Pocket2Mol_0
     RDKit          3D

 10 10  0  0  0  0  0  0  0  0999 V2000
   39.1330   30.9319   53.8386 C   0  0  0  0  0  0  0  0  0  0  0  0
   39.4035   30.9277   55.1419 C   0  0  0  0  0  0  0  0  0  0  0  0
   39.6134   29.7036   55.7326 C   0  0  0  0  0  0  0  0  0  0  0  0
   39.0021   31.9076   55.9793 C   0  0  0  0  0  0  0  0  0  0  0  0
   38.6367   31.6509   57.3159 C   0  0  0  0  0  0  0  0  0  0  0  0
   39.0132   30.4639   57.9178 C   0  0  0  0  0  0  0  0  0  0  0  0
   39.4252   29.3971   57.0605 C   0  0  0  0  0  0  0  0  0  0  0  0
   39.8626   30.0621   53.0084 C   0  0  0  0  0  0  0  0  0  0  0  0
   39.7500   30.2317   51.5041 C   0  0  0  0  0  0  0  0  0  0  0  0
   39.7112   29.1860   50.8006 N   0  0  0  0  0  0  0  0  0  0  0  0
  1  2  1  0
  2  3  2  0
  2  4  1  0
  4  5  2  0
  5  6  1  0
  3  7  1  0
  6  7  2  0
  1  8  2  3
  8  9  1  0
  9 10  2  0
M  END
$$$$
Pocket2Mol_1
     RDKit          3D

 10 11  0  0  0  0  0  0  0  0999 V2000
   38.8270   31.9927   55.4028 C   0  0  0  0  0  0  0  0  0  0  0  0
   38.7039   31.6595   56.6016 C   0  0  0  0  0  0  0  0  0  0  0  0
   38.8401   30.3561   56.9531 C   0  0  0  0  0  0  0  0  0  0  0  0
   38.3952   32.4515   57.6447 C   0  0  0  0  0  0  0  0  0  0  0  0
   39.0848   29.3097   56.1761 C   0  0  0  0  0  0  0  0  0  0  0  0
   39.2076   29.6734   54.8880 C   0  0  0  0  0  0  0  0  0  0  0  0
   38.2749   31.9067   58.8744 C   0  0  0  0  0  0  0  0  0  0  0  0
   39.5116   28.6524   53.9248 O   0  0  0  0  0  0  0  0  0  0  0  0
   38.5842   30.5003   58.4594 N   0  0  0  0  0  0  0  0  0  0  0  0
   39.1136   30.9280   54.4102 C   0  0  0  0  0  0  0  0  0  0  0  0
  1  2  1  0
  2  3  1  0
  2  4  2  0
  3  5  1  0
  5  6  2  0
  4  7  1  0
  6  8  1  0
  3  9  1  0
  7  9  1  0
  1 10  2  0
  6 10  1  0
M  CHG  1   9   1
M  END
$$$$
Pocket2Mol_2
     RDKit          3D

  5  4  0  0  0  0  0  0  0  0999 V2000
   39.1330   30.9319   53.8386 C   0  0  0  0  0  0  0  0  0  0  0  0
   39.4035   30.9277   55.1419 C   0  0  0  0  0  0  0  0  0  0  0  0
   39.6184   29.7866   53.2236 C   0  0  0  0  0  0  0  0  0  0  0  0
   38.4551   31.7594   55.9841 C   0  0  0  0  0  0  0  0  0  0  0  0
   39.0860   32.1767   57.1850 O   0  0  0  0  0  0  0  0  0  0  0  0
  1  2  1  0
  1  3  1  0
  2  4  1  0
  4  5  1  0
M  END
$$$$
Pocket2Mol_3
     RDKit          3D

  5  5  0  0  0  0  0  0  0  0999 V2000
   38.4115   31.9403   56.1264 C   0  0  0  0  0  0  0  0  0  0  0  0
   38.3166   31.4536   57.2314 O   0  0  0  0  0  0  0  0  0  0  0  0
   38.5849   30.2178   57.3845 C   0  0  0  0  0  0  0  0  0  0  0  0
   38.4549   31.0343   55.0993 C   0  0  0  0  0  0  0  0  0  0  0  0
   38.7884   29.8312   56.1592 C   0  0  0  0  0  0  0  0  0  0  0  0
  1  2  1  0
  2  3  1  0
  1  4  2  0
  3  5  2  0
  4  5  1  0
M  END
$$$$
Pocket2Mol_4
     RDKit          3D

  5  5  0  0  0  0  0  0  0  0999 V2000
   39.1143   30.9593   53.8853 C   0  0  0  0  0  0  0  0  0  0  0  0
   38.7479   31.4545   55.0791 C   0  0  0  0  0  0  0  0  0  0  0  0
   39.5044   29.6072   53.9792 C   0  0  0  0  0  0  0  0  0  0  0  0
   39.3771   29.1374   55.3859 C   0  0  0  0  0  0  0  0  0  0  0  0
   39.0606   30.2520   56.2101 C   0  0  0  0  0  0  0  0  0  0  0  0
  1  2  2  0
  1  3  2  0
  3  4  1  0
  2  5  1  0
  4  5  2  0
M  END
$$$$
Pocket2Mol_5
     RDKit          3D

  5  5  0  0  0  0  0  0  0  0999 V2000
   38.6443   31.4883   54.4720 C   0  0  0  0  0  0  0  0  0  0  0  0
   38.6558   31.9480   55.8471 C   0  0  0  0  0  0  0  0  0  0  0  0
   39.2117   30.1996   54.4858 C   0  0  0  0  0  0  0  0  0  0  0  0
   39.4370   29.7684   55.7881 C   0  0  0  0  0  0  0  0  0  0  0  0
   39.0471   30.9457   56.4096 N   0  0  0  0  0  0  0  0  0  0  0  0
  1  2  1  0
  1  3  1  0
  3  4  1  0
  2  5  2  0
  4  5  1  0
M  CHG  1   5   1
M  END
$$$$
Pocket2Mol_6
     RDKit          3D

  5  4  0  0  0  0  0  0  0  0999 V2000
   38.1129   31.6389   54.8554 C   0  0  0  0  0  0  0  0  0  0  0  0
   38.6301   31.6844   56.2041 O   0  0  0  0  0  0  0  0  0  0  0  0
   38.7915   30.6532   56.8760 C   0  0  0  0  0  0  0  0  0  0  0  0
   38.8789   29.5395   56.2915 O   0  0  0  0  0  0  0  0  0  0  0  0
   38.6246   30.7106   58.3439 C   0  0  0  0  0  0  0  0  0  0  0  0
  1  2  1  0
  2  3  1  0
  3  4  2  0
  3  5  1  0
M  END
$$$$
Pocket2Mol_7
     RDKit          3D

  5  5  0  0  0  0  0  0  0  0999 V2000
   38.8270   31.9927   55.4028 C   0  0  0  0  0  0  0  0  0  0  0  0
   38.7039   31.6595   56.6016 C   0  0  0  0  0  0  0  0  0  0  0  0
   39.1102   30.9272   54.5449 C   0  0  0  0  0  0  0  0  0  0  0  0
   39.0723   29.8314   55.3525 C   0  0  0  0  0  0  0  0  0  0  0  0
   38.8673   30.2669   56.6322 C   0  0  0  0  0  0  0  0  0  0  0  0
  1  2  2  0
  1  3  1  0
  3  4  1  0
  2  5  1  0
  4  5  1  0
M  END
$$$$
Pocket2Mol_8
     RDKit          3D

  6  6  0  0  0  0  0  0  0  0999 V2000
   38.9583   31.3514   54.6318 C   0  0  0  0  0  0  0  0  0  0  0  0
   38.8830   31.6963   55.8970 C   0  0  0  0  0  0  0  0  0  0  0  0
   39.3680   30.0687   54.4549 C   0  0  0  0  0  0  0  0  0  0  0  0
   39.4487   29.0865   55.3795 C   0  0  0  0  0  0  0  0  0  0  0  0
   39.2652   29.6124   56.6325 C   0  0  0  0  0  0  0  0  0  0  0  0
   38.9561   30.8624   56.9720 C   0  0  0  0  0  0  0  0  0  0  0  0
  1  2  2  0
  1  3  1  0
  3  4  2  0
  4  5  1  0
  2  6  1  0
  5  6  2  0
M  END
$$$$
Pocket2Mol_9
     RDKit          3D

  6  6  0  0  0  0  0  0  0  0999 V2000
   38.8270   31.9927   55.4028 C   0  0  0  0  0  0  0  0  0  0  0  0
   38.7039   31.6595   56.6016 C   0  0  0  0  0  0  0  0  0  0  0  0
   39.1102   30.9272   54.5449 C   0  0  0  0  0  0  0  0  0  0  0  0
   39.0723   29.8314   55.3525 C   0  0  0  0  0  0  0  0  0  0  0  0
   38.8434   30.4669   56.6155 N   0  0  0  0  0  0  0  0  0  0  0  0
   39.2479   28.6464   55.1410 O   0  0  0  0  0  0  0  0  0  0  0  0
  1  2  1  0
  1  3  1  0
  3  4  1  0
  2  5  2  0
  4  5  1  0
  4  6  2  0
M  END
$$$$
Pocket2Mol_10
     RDKit          3D

  6  6  0  0  0  0  0  0  0  0999 V2000
   38.8270   31.9927   55.4028 C   0  0  0  0  0  0  0  0  0  0  0  0
   38.6258   32.1674   56.6529 C   0  0  0  0  0  0  0  0  0  0  0  0
   38.5839   30.9962   57.3846 C   0  0  0  0  0  0  0  0  0  0  0  0
   38.4026   31.1578   58.8891 C   0  0  0  0  0  0  0  0  0  0  0  0
   38.8345   30.7291   54.9717 C   0  0  0  0  0  0  0  0  0  0  0  0
   38.7872   29.6873   56.7593 S   0  0  0  0  0  0  0  0  0  0  0  0
  1  2  1  0
  2  3  2  0
  3  4  1  0
  1  5  2  0
  3  6  1  0
  5  6  1  0
M  END
$$$$
Pocket2Mol_11
     RDKit          3D

  4  3  0  0  0  0  0  0  0  0999 V2000
   39.2262   31.2676   55.6596 C   0  0  0  0  0  0  0  0  0  0  0  0
   38.6306   31.6249   56.5779 C   0  0  0  0  0  0  0  0  0  0  0  0
   38.3895   32.7861   56.9685 O   0  0  0  0  0  0  0  0  0  0  0  0
   38.2697   30.5959   57.4428 O   0  0  0  0  0  0  0  0  0  0  0  0
  1  2  1  0
  2  3  2  0
  2  4  1  0
M  CHG  1   4  -1
M  END
$$$$
Pocket2Mol_12
     RDKit          3D

  6  6  0  0  0  0  0  0  0  0999 V2000
   38.1129   31.6389   54.8554 C   0  0  0  0  0  0  0  0  0  0  0  0
   38.6301   31.6844   56.2041 O   0  0  0  0  0  0  0  0  0  0  0  0
   38.2645   30.8654   57.1073 C   0  0  0  0  0  0  0  0  0  0  0  0
   38.9012   30.4908   54.1835 C   0  0  0  0  0  0  0  0  0  0  0  0
   38.7023   29.2800   55.1109 O   0  0  0  0  0  0  0  0  0  0  0  0
   38.9394   29.5056   56.5413 C   0  0  0  0  0  0  0  0  0  0  0  0
  1  2  1  0
  2  3  1  0
  1  4  1  0
  4  5  1  0
  3  6  1  0
  5  6  1  0
M  END
$$$$
Pocket2Mol_13
     RDKit          3D

  6  6  0  0  0  0  0  0  0  0999 V2000
   39.2262   31.2676   55.6596 C   0  0  0  0  0  0  0  0  0  0  0  0
   38.6306   31.6249   56.5779 C   0  0  0  0  0  0  0  0  0  0  0  0
   39.4023   29.9848   55.3551 C   0  0  0  0  0  0  0  0  0  0  0  0
   38.2113   30.5557   57.2775 C   0  0  0  0  0  0  0  0  0  0  0  0
   38.7701   29.3875   56.3527 N   0  0  0  0  0  0  0  0  0  0  0  0
   39.8422   29.3330   54.3761 O   0  0  0  0  0  0  0  0  0  0  0  0
  1  2  1  0
  1  3  1  0
  2  4  2  0
  3  5  1  0
  4  5  1  0
  3  6  2  0
M  END
$$$$
Pocket2Mol_14
     RDKit          3D

  6  6  0  0  0  0  0  0  0  0999 V2000
   38.1129   31.6389   54.8554 C   0  0  0  0  0  0  0  0  0  0  0  0
   38.6301   31.6844   56.2041 C   0  0  0  0  0  0  0  0  0  0  0  0
   38.1594   30.2287   54.5768 O   0  0  0  0  0  0  0  0  0  0  0  0
   38.8559   30.4992   56.7277 O   0  0  0  0  0  0  0  0  0  0  0  0
   38.5630   29.6033   55.7250 C   0  0  0  0  0  0  0  0  0  0  0  0
   38.7865   28.4174   55.7894 O   0  0  0  0  0  0  0  0  0  0  0  0
  1  2  1  0
  1  3  1  0
  2  4  1  0
  3  5  1  0
  4  5  1  0
  5  6  2  0
M  END
$$$$
Pocket2Mol_15
     RDKit          3D

  6  6  0  0  0  0  0  0  0  0999 V2000
   38.2337   31.8199   55.5505 C   0  0  0  0  0  0  0  0  0  0  0  0
   38.4772   32.0168   56.8231 O   0  0  0  0  0  0  0  0  0  0  0  0
   38.8197   30.5918   55.1007 C   0  0  0  0  0  0  0  0  0  0  0  0
   38.7276   30.9109   57.4482 C   0  0  0  0  0  0  0  0  0  0  0  0
   38.9493   29.8874   56.4631 C   0  0  0  0  0  0  0  0  0  0  0  0
   38.7593   30.7495   58.6717 O   0  0  0  0  0  0  0  0  0  0  0  0
  1  2  1  0
  1  3  1  0
  2  4  1  0
  3  5  1  0
  4  5  1  0
  4  6  2  0
M  END
$$$$
Pocket2Mol_16
     RDKit          3D

  6  6  0  0  0  0  0  0  0  0999 V2000
   38.2337   31.8199   55.5505 C   0  0  0  0  0  0  0  0  0  0  0  0
   38.4772   32.0168   56.8231 C   0  0  0  0  0  0  0  0  0  0  0  0
   38.6710   30.6292   55.0974 C   0  0  0  0  0  0  0  0  0  0  0  0
   38.6089   30.9804   57.3631 C   0  0  0  0  0  0  0  0  0  0  0  0
   38.4585   30.2577   56.6030 C   0  0  0  0  0  0  0  0  0  0  0  0
   39.9088   30.5799   54.9724 C   0  0  0  0  0  0  0  0  0  0  0  0
  1  2  1  0
  1  3  1  0
  2  4  1  0
  3  5  1  0
  4  5  1  0
  3  6  1  0
M  END
$$$$
Pocket2Mol_17
     RDKit          3D

  6  6  0  0  0  0  0  0  0  0999 V2000
   39.2262   31.2676   55.6596 C   0  0  0  0  0  0  0  0  0  0  0  0
   38.6306   31.6249   56.5779 C   0  0  0  0  0  0  0  0  0  0  0  0
   39.4023   29.9848   55.3551 C   0  0  0  0  0  0  0  0  0  0  0  0
   38.2113   30.5557   57.2775 C   0  0  0  0  0  0  0  0  0  0  0  0
   38.8358   29.3990   56.6347 C   0  0  0  0  0  0  0  0  0  0  0  0
   38.3041   29.7381   54.4408 O   0  0  0  0  0  0  0  0  0  0  0  0
  1  2  1  0
  1  3  1  0
  2  4  1  0
  3  5  1  0
  4  5  1  0
  3  6  1  0
M  END
$$$$
Pocket2Mol_18
     RDKit          3D

  6  6  0  0  0  0  0  0  0  0999 V2000
   38.0974   31.5465   55.2838 C   0  0  0  0  0  0  0  0  0  0  0  0
   38.6046   32.0608   56.4559 C   0  0  0  0  0  0  0  0  0  0  0  0
   38.2419   31.3489   57.5651 C   0  0  0  0  0  0  0  0  0  0  0  0
   39.0266   30.4787   54.7532 C   0  0  0  0  0  0  0  0  0  0  0  0
   39.0107   29.9667   57.4271 C   0  0  0  0  0  0  0  0  0  0  0  0
   38.9044   29.3522   55.9497 C   0  0  0  0  0  0  0  0  0  0  0  0
  1  2  1  0
  2  3  1  0
  1  4  1  0
  3  5  1  0
  4  6  1  0
  5  6  1  0
M  END
$$$$
Pocket2Mol_19
     RDKit          3D

  6  6  0  0  0  0  0  0  0  0999 V2000
   38.0974   31.5465   55.2838 C   0  0  0  0  0  0  0  0  0  0  0  0
   38.4761   31.4599   56.6015 O   0  0  0  0  0  0  0  0  0  0  0  0
   38.7793   30.4553   57.0573 C   0  0  0  0  0  0  0  0  0  0  0  0
   38.1936   30.2665   54.6971 C   0  0  0  0  0  0  0  0  0  0  0  0
   38.5667   29.4246   55.9671 C   0  0  0  0  0  0  0  0  0  0  0  0
   39.0361   30.0283   58.2119 O   0  0  0  0  0  0  0  0  0  0  0  0
  1  2  1  0
  2  3  1  0
  1  4  2  0
  3  5  1  0
  4  5  1  0
  3  6  2  0
M  END
$$$$
Pocket2Mol_20
     RDKit          3D

  6  6  0  0  0  0  0  0  0  0999 V2000
   39.1143   30.9593   53.8853 C   0  0  0  0  0  0  0  0  0  0  0  0
   38.7479   31.4545   55.0791 C   0  0  0  0  0  0  0  0  0  0  0  0
   39.4153   29.7429   54.2863 C   0  0  0  0  0  0  0  0  0  0  0  0
   38.9194   30.7500   56.1092 C   0  0  0  0  0  0  0  0  0  0  0  0
   39.3694   29.4535   55.7281 N   0  0  0  0  0  0  0  0  0  0  0  0
   39.6120   28.4820   56.2138 O   0  0  0  0  0  0  0  0  0  0  0  0
  1  2  1  0
  1  3  2  0
  2  4  2  0
  3  5  1  0
  4  5  1  0
  5  6  1  0
M  END
$$$$
Pocket2Mol_21
     RDKit          3D

  6  6  0  0  0  0  0  0  0  0999 V2000
   39.1143   30.9593   53.8853 C   0  0  0  0  0  0  0  0  0  0  0  0
   38.7479   31.4545   55.0791 C   0  0  0  0  0  0  0  0  0  0  0  0
   39.4153   29.7429   54.2863 C   0  0  0  0  0  0  0  0  0  0  0  0
   38.9194   30.7500   56.1092 C   0  0  0  0  0  0  0  0  0  0  0  0
   39.3694   29.4535   55.7281 N   0  0  0  0  0  0  0  0  0  0  0  0
   39.5352   28.4420   56.4894 C   0  0  0  0  0  0  0  0  0  0  0  0
  1  2  1  0
  1  3  2  0
  2  4  2  0
  3  5  1  0
  4  5  1  0
  5  6  1  0
M  END
$$$$
Pocket2Mol_22
     RDKit          3D

  4  3  0  0  0  0  0  0  0  0999 V2000
   38.6443   31.4883   54.4720 C   0  0  0  0  0  0  0  0  0  0  0  0
   38.8264   31.5895   55.8863 C   0  0  0  0  0  0  0  0  0  0  0  0
   38.5931   32.6124   56.5644 C   0  0  0  0  0  0  0  0  0  0  0  0
   39.2127   30.3921   56.4348 O   0  0  0  0  0  0  0  0  0  0  0  0
  1  2  1  0
  2  3  1  0
  2  4  2  0
M  END
$$$$
Pocket2Mol_23
     RDKit          3D

  6  6  0  0  0  0  0  0  0  0999 V2000
   38.1129   31.6389   54.8554 C   0  0  0  0  0  0  0  0  0  0  0  0
   38.6301   31.6844   56.2041 C   0  0  0  0  0  0  0  0  0  0  0  0
   38.1594   30.2287   54.5768 O   0  0  0  0  0  0  0  0  0  0  0  0
   38.4284   29.5910   55.6903 C   0  0  0  0  0  0  0  0  0  0  0  0
   38.9507   30.3778   56.3788 O   0  0  0  0  0  0  0  0  0  0  0  0
   39.1957   28.3962   55.5406 C   0  0  0  0  0  0  0  0  0  0  0  0
  1  2  1  0
  1  3  1  0
  3  4  1  0
  2  5  1  0
  4  5  1  0
  4  6  1  0
M  END
$$$$
Pocket2Mol_24
     RDKit          3D

  6  6  0  0  0  0  0  0  0  0999 V2000
   38.6820   31.7376   56.4541 C   0  0  0  0  0  0  0  0  0  0  0  0
   38.7804   31.7421   55.2319 C   0  0  0  0  0  0  0  0  0  0  0  0
   39.2310   30.5545   54.6989 C   0  0  0  0  0  0  0  0  0  0  0  0
   39.3747   30.4323   53.2130 C   0  0  0  0  0  0  0  0  0  0  0  0
   38.9125   30.5172   57.0176 N   0  0  0  0  0  0  0  0  0  0  0  0
   39.2875   29.4982   55.7660 S   0  0  0  0  0  0  0  0  0  0  0  0
  1  2  1  0
  2  3  2  0
  3  4  1  0
  1  5  2  0
  3  6  1  0
  5  6  1  0
M  END
$$$$
Pocket2Mol_25
     RDKit          3D

  6  5  0  0  0  0  0  0  0  0999 V2000
   38.1129   31.6389   54.8554 C   0  0  0  0  0  0  0  0  0  0  0  0
   38.8931   31.9999   55.9392 O   0  0  0  0  0  0  0  0  0  0  0  0
   38.3258   31.8383   57.1642 C   0  0  0  0  0  0  0  0  0  0  0  0
   38.8210   30.4072   54.2973 C   0  0  0  0  0  0  0  0  0  0  0  0
   38.7616   29.4267   55.2113 O   0  0  0  0  0  0  0  0  0  0  0  0
   39.7189   28.8470   55.7276 C   0  0  0  0  0  0  0  0  0  0  0  0
  1  2  1  0
  2  3  1  0
  1  4  1  0
  4  5  1  0
  5  6  1  0
M  END
$$$$
Pocket2Mol_26
     RDKit          3D

  6  6  0  0  0  0  0  0  0  0999 V2000
   38.5324   32.1847   55.2978 C   0  0  0  0  0  0  0  0  0  0  0  0
   38.7004   32.0932   56.6080 C   0  0  0  0  0  0  0  0  0  0  0  0
   38.7259   30.9835   54.6711 C   0  0  0  0  0  0  0  0  0  0  0  0
   38.9985   29.9207   55.6864 C   0  0  0  0  0  0  0  0  0  0  0  0
   38.8538   30.7827   57.0072 N   0  0  0  0  0  0  0  0  0  0  0  0
   38.6314   30.2576   58.1758 C   0  0  0  0  0  0  0  0  0  0  0  0
  1  2  1  0
  1  3  2  0
  3  4  1  0
  2  5  1  0
  4  5  1  0
  5  6  1  0
M  END
$$$$
Pocket2Mol_27
     RDKit          3D

  7  7  0  0  0  0  0  0  0  0999 V2000
   39.1330   30.9319   53.8386 C   0  0  0  0  0  0  0  0  0  0  0  0
   38.7764   31.4054   55.0455 C   0  0  0  0  0  0  0  0  0  0  0  0
   38.9350   30.6521   56.1683 C   0  0  0  0  0  0  0  0  0  0  0  0
   39.3685   29.5192   53.7394 C   0  0  0  0  0  0  0  0  0  0  0  0
   39.2755   29.2164   55.8923 C   0  0  0  0  0  0  0  0  0  0  0  0
   39.5706   29.0247   52.3072 C   0  0  0  0  0  0  0  0  0  0  0  0
   39.4198   28.7398   54.7455 C   0  0  0  0  0  0  0  0  0  0  0  0
  1  2  2  0
  2  3  1  0
  1  4  1  0
  3  5  2  0
  4  6  1  0
  4  7  2  0
  5  7  1  0
M  END
$$$$
Pocket2Mol_28
     RDKit          3D

  7  7  0  0  0  0  0  0  0  0999 V2000
   38.1129   31.6389   54.8554 C   0  0  0  0  0  0  0  0  0  0  0  0
   38.6301   31.6844   56.2041 O   0  0  0  0  0  0  0  0  0  0  0  0
   38.7915   30.6532   56.8760 C   0  0  0  0  0  0  0  0  0  0  0  0
   38.6030   30.6258   58.1966 O   0  0  0  0  0  0  0  0  0  0  0  0
   39.5946   29.5876   56.3172 C   0  0  0  0  0  0  0  0  0  0  0  0
   38.9111   30.5529   54.1146 C   0  0  0  0  0  0  0  0  0  0  0  0
   39.0604   29.3297   54.9272 O   0  0  0  0  0  0  0  0  0  0  0  0
  1  2  1  0
  2  3  1  0
  3  4  2  0
  3  5  1  0
  1  6  1  0
  5  7  1  0
  6  7  1  0
M  END
$$$$
Pocket2Mol_29
     RDKit          3D

  7  7  0  0  0  0  0  0  0  0999 V2000
   38.6820   31.7376   56.4541 C   0  0  0  0  0  0  0  0  0  0  0  0
   38.7804   31.7421   55.2319 C   0  0  0  0  0  0  0  0  0  0  0  0
   38.7167   30.6476   57.1742 C   0  0  0  0  0  0  0  0  0  0  0  0
   38.9952   30.5823   54.5122 C   0  0  0  0  0  0  0  0  0  0  0  0
   38.6050   30.5194   58.6962 O   0  0  0  0  0  0  0  0  0  0  0  0
   39.0702   29.3627   55.4365 C   0  0  0  0  0  0  0  0  0  0  0  0
   38.9674   29.4370   56.6203 C   0  0  0  0  0  0  0  0  0  0  0  0
  1  2  2  0
  1  3  1  0
  2  4  1  0
  3  5  1  0
  4  6  2  0
  3  7  2  0
  6  7  1  0
M  END
$$$$
Pocket2Mol_30
     RDKit          3D

  7  7  0  0  0  0  0  0  0  0999 V2000
   39.2262   31.2676   55.6596 C   0  0  0  0  0  0  0  0  0  0  0  0
   38.6306   31.6249   56.5779 C   0  0  0  0  0  0  0  0  0  0  0  0
   38.2299   30.6973   57.4321 C   0  0  0  0  0  0  0  0  0  0  0  0
   37.6447   30.9150   58.7838 N   0  0  0  0  0  0  0  0  0  0  0  0
   39.4686   30.0608   55.1842 C   0  0  0  0  0  0  0  0  0  0  0  0
   38.5208   29.3176   57.2297 C   0  0  0  0  0  0  0  0  0  0  0  0
   39.1434   29.0252   56.0577 C   0  0  0  0  0  0  0  0  0  0  0  0
  1  2  2  0
  2  3  1  0
  3  4  1  0
  1  5  1  0
  3  6  2  0
  5  7  2  0
  6  7  1  0
M  END
$$$$
Pocket2Mol_31
     RDKit          3D

  7  7  0  0  0  0  0  0  0  0999 V2000
   38.8270   31.9927   55.4028 C   0  0  0  0  0  0  0  0  0  0  0  0
   38.7039   31.6595   56.6016 C   0  0  0  0  0  0  0  0  0  0  0  0
   38.8401   30.3561   56.9531 C   0  0  0  0  0  0  0  0  0  0  0  0
   38.3952   32.4515   57.6447 O   0  0  0  0  0  0  0  0  0  0  0  0
   38.1881   31.2061   54.5854 C   0  0  0  0  0  0  0  0  0  0  0  0
   38.1029   29.4924   56.0230 C   0  0  0  0  0  0  0  0  0  0  0  0
   38.5429   29.7771   54.7518 C   0  0  0  0  0  0  0  0  0  0  0  0
  1  2  1  0
  2  3  1  0
  2  4  2  0
  1  5  1  0
  3  6  1  0
  5  7  1  0
  6  7  1  0
M  END
$$$$
Pocket2Mol_32
     RDKit          3D

  7  7  0  0  0  0  0  0  0  0999 V2000
   38.1129   31.6389   54.8554 C   0  0  0  0  0  0  0  0  0  0  0  0
   38.8931   31.9999   55.9392 C   0  0  0  0  0  0  0  0  0  0  0  0
   38.2826   31.5433   57.1469 O   0  0  0  0  0  0  0  0  0  0  0  0
   37.7128   30.4513   55.2365 O   0  0  0  0  0  0  0  0  0  0  0  0
   37.9814   30.1950   56.4373 C   0  0  0  0  0  0  0  0  0  0  0  0
   39.1422   29.2281   56.5841 C   0  0  0  0  0  0  0  0  0  0  0  0
   39.7038   29.2516   55.3445 O   0  0  0  0  0  0  0  0  0  0  0  0
  1  2  1  0
  2  3  1  0
  1  4  1  0
  3  5  1  0
  4  5  1  0
  5  6  1  0
  6  7  1  0
M  END
$$$$
Pocket2Mol_33
     RDKit          3D

  4  3  0  0  0  0  0  0  0  0999 V2000
   38.4115   31.9403   56.1264 C   0  0  0  0  0  0  0  0  0  0  0  0
   38.3166   31.4536   57.2314 O   0  0  0  0  0  0  0  0  0  0  0  0
   38.9647   31.0193   55.2144 C   0  0  0  0  0  0  0  0  0  0  0  0
   38.8752   29.8630   55.5642 O   0  0  0  0  0  0  0  0  0  0  0  0
  1  2  1  0
  1  3  1  0
  3  4  1  0
M  END
$$$$
Pocket2Mol_34
     RDKit          3D

  7  7  0  0  0  0  0  0  0  0999 V2000
   39.2262   31.2676   55.6596 C   0  0  0  0  0  0  0  0  0  0  0  0
   38.6306   31.6249   56.5779 C   0  0  0  0  0  0  0  0  0  0  0  0
   38.2299   30.6973   57.4321 C   0  0  0  0  0  0  0  0  0  0  0  0
   38.5562   29.2975   57.2470 C   0  0  0  0  0  0  0  0  0  0  0  0
   39.5705   30.0302   55.2564 C   0  0  0  0  0  0  0  0  0  0  0  0
   40.2305   29.6792   54.0157 F   0  0  0  0  0  0  0  0  0  0  0  0
   39.2173   28.9928   56.1214 C   0  0  0  0  0  0  0  0  0  0  0  0
  1  2  2  0
  2  3  1  0
  3  4  2  0
  1  5  1  0
  5  6  1  0
  4  7  1  0
  5  7  2  0
M  END
$$$$
Pocket2Mol_35
     RDKit          3D

  7  7  0  0  0  0  0  0  0  0999 V2000
   38.1129   31.6389   54.8554 C   0  0  0  0  0  0  0  0  0  0  0  0
   38.8931   31.9999   55.9392 O   0  0  0  0  0  0  0  0  0  0  0  0
   38.3258   31.8383   57.1642 C   0  0  0  0  0  0  0  0  0  0  0  0
   38.8210   30.4072   54.2973 C   0  0  0  0  0  0  0  0  0  0  0  0
   38.7616   29.4267   55.2113 O   0  0  0  0  0  0  0  0  0  0  0  0
   38.1518   30.5293   57.4405 C   0  0  0  0  0  0  0  0  0  0  0  0
   38.3480   29.6339   56.4060 C   0  0  0  0  0  0  0  0  0  0  0  0
  1  2  1  0
  2  3  1  0
  1  4  1  0
  4  5  1  0
  3  6  1  0
  5  7  1  0
  6  7  1  0
M  END
$$$$
Pocket2Mol_36
     RDKit          3D

  7  7  0  0  0  0  0  0  0  0999 V2000
   38.0974   31.5465   55.2838 C   0  0  0  0  0  0  0  0  0  0  0  0
   38.4761   31.4599   56.6015 C   0  0  0  0  0  0  0  0  0  0  0  0
   38.8836   30.6642   54.4115 C   0  0  0  0  0  0  0  0  0  0  0  0
   38.2366   32.2622   57.4143 O   0  0  0  0  0  0  0  0  0  0  0  0
   39.0794   29.4975   54.9599 C   0  0  0  0  0  0  0  0  0  0  0  0
   39.6770   29.6195   56.2466 C   0  0  0  0  0  0  0  0  0  0  0  0
   38.9675   30.3460   57.0273 C   0  0  0  0  0  0  0  0  0  0  0  0
  1  2  1  0
  1  3  1  0
  2  4  1  0
  3  5  1  0
  5  6  1  0
  2  7  1  0
  6  7  1  0
M  END
$$$$
Pocket2Mol_37
     RDKit          3D

  7  7  0  0  0  0  0  0  0  0999 V2000
   38.1129   31.6389   54.8554 C   0  0  0  0  0  0  0  0  0  0  0  0
   38.6301   31.6844   56.2041 O   0  0  0  0  0  0  0  0  0  0  0  0
   38.7915   30.6532   56.8760 C   0  0  0  0  0  0  0  0  0  0  0  0
   38.6030   30.6258   58.1966 O   0  0  0  0  0  0  0  0  0  0  0  0
   38.9981   29.3568   56.2497 C   0  0  0  0  0  0  0  0  0  0  0  0
   38.1350   30.2603   54.4318 C   0  0  0  0  0  0  0  0  0  0  0  0
   38.5449   29.2203   55.1076 C   0  0  0  0  0  0  0  0  0  0  0  0
  1  2  1  0
  2  3  1  0
  3  4  2  0
  3  5  1  0
  1  6  2  0
  5  7  2  0
  6  7  1  0
M  END
$$$$
Pocket2Mol_38
     RDKit          3D

  7  7  0  0  0  0  0  0  0  0999 V2000
   38.6443   31.4883   54.4720 C   0  0  0  0  0  0  0  0  0  0  0  0
   38.6558   31.9480   55.8471 C   0  0  0  0  0  0  0  0  0  0  0  0
   38.6934   31.0950   56.8785 C   0  0  0  0  0  0  0  0  0  0  0  0
   38.3460   31.6852   58.0470 O   0  0  0  0  0  0  0  0  0  0  0  0
   39.0269   30.2431   54.5585 C   0  0  0  0  0  0  0  0  0  0  0  0
   38.8157   29.7326   55.8690 C   0  0  0  0  0  0  0  0  0  0  0  0
   39.2683   30.2514   56.9559 C   0  0  0  0  0  0  0  0  0  0  0  0
  1  2  1  0
  2  3  2  0
  3  4  1  0
  1  5  1  0
  5  6  1  0
  3  7  1  0
  6  7  1  0
M  END
$$$$
Pocket2Mol_39
     RDKit          3D

  7  7  0  0  0  0  0  0  0  0999 V2000
   38.1129   31.6389   54.8554 C   0  0  0  0  0  0  0  0  0  0  0  0
   38.6301   31.6844   56.2041 C   0  0  0  0  0  0  0  0  0  0  0  0
   38.1594   30.2287   54.5768 O   0  0  0  0  0  0  0  0  0  0  0  0
   39.2349   29.6913   54.2903 C   0  0  0  0  0  0  0  0  0  0  0  0
   38.4090   30.6434   56.9532 O   0  0  0  0  0  0  0  0  0  0  0  0
   39.6603   28.8531   55.4108 O   0  0  0  0  0  0  0  0  0  0  0  0
   39.5277   29.5919   56.7865 C   0  0  0  0  0  0  0  0  0  0  0  0
  1  2  1  0
  1  3  1  0
  3  4  1  0
  2  5  1  0
  4  6  1  0
  5  7  1  0
  6  7  1  0
M  END
$$$$
Pocket2Mol_40
     RDKit          3D

  7  7  0  0  0  0  0  0  0  0999 V2000
   38.6820   31.7376   56.4541 C   0  0  0  0  0  0  0  0  0  0  0  0
   38.7804   31.7421   55.2319 C   0  0  0  0  0  0  0  0  0  0  0  0
   39.2310   30.5545   54.6989 C   0  0  0  0  0  0  0  0  0  0  0  0
   39.3747   30.4323   53.2130 C   0  0  0  0  0  0  0  0  0  0  0  0
   38.9125   30.5172   57.0176 N   0  0  0  0  0  0  0  0  0  0  0  0
   39.2084   29.4775   55.9759 C   0  0  0  0  0  0  0  0  0  0  0  0
   39.4389   28.3992   55.8979 O   0  0  0  0  0  0  0  0  0  0  0  0
  1  2  1  0
  2  3  2  0
  3  4  1  0
  1  5  2  0
  3  6  1  0
  5  6  1  0
  6  7  2  0
M  END
$$$$
Pocket2Mol_41
     RDKit          3D

  7  7  0  0  0  0  0  0  0  0999 V2000
   38.8270   31.9927   55.4028 C   0  0  0  0  0  0  0  0  0  0  0  0
   38.6258   32.1674   56.6529 C   0  0  0  0  0  0  0  0  0  0  0  0
   38.5839   30.9962   57.3846 C   0  0  0  0  0  0  0  0  0  0  0  0
   38.4026   31.1578   58.8891 C   0  0  0  0  0  0  0  0  0  0  0  0
   38.8345   30.7291   54.9717 C   0  0  0  0  0  0  0  0  0  0  0  0
   39.0177   30.3624   53.4712 C   0  0  0  0  0  0  0  0  0  0  0  0
   38.7992   29.7234   56.6649 S   0  0  0  0  0  0  0  0  0  0  0  0
  1  2  1  0
  2  3  2  0
  3  4  1  0
  1  5  2  0
  5  6  1  0
  3  7  1  0
  5  7  1  0
M  END
$$$$
Pocket2Mol_42
     RDKit          3D

  7  6  0  0  0  0  0  0  0  0999 V2000
   38.1129   31.6389   54.8554 C   0  0  0  0  0  0  0  0  0  0  0  0
   38.6301   31.6844   56.2041 O   0  0  0  0  0  0  0  0  0  0  0  0
   38.7915   30.6532   56.8760 C   0  0  0  0  0  0  0  0  0  0  0  0
   39.0417   29.3986   56.1286 C   0  0  0  0  0  0  0  0  0  0  0  0
   39.2270   30.6047   58.0440 O   0  0  0  0  0  0  0  0  0  0  0  0
   38.5855   29.4190   54.8679 O   0  0  0  0  0  0  0  0  0  0  0  0
   39.1659   28.2049   56.8491 O   0  0  0  0  0  0  0  0  0  0  0  0
  1  2  1  0
  2  3  1  0
  3  4  1  0
  3  5  2  0
  4  6  2  0
  4  7  1  0
M  CHG  1   7  -1
M  END
$$$$
Pocket2Mol_43
     RDKit          3D

  7  7  0  0  0  0  0  0  0  0999 V2000
   38.1129   31.6389   54.8554 C   0  0  0  0  0  0  0  0  0  0  0  0
   38.8931   31.9999   55.9392 O   0  0  0  0  0  0  0  0  0  0  0  0
   38.3258   31.8383   57.1642 C   0  0  0  0  0  0  0  0  0  0  0  0
   38.8210   30.4072   54.2973 C   0  0  0  0  0  0  0  0  0  0  0  0
   38.7616   29.4267   55.2113 O   0  0  0  0  0  0  0  0  0  0  0  0
   38.1518   30.5293   57.4405 C   0  0  0  0  0  0  0  0  0  0  0  0
   38.5366   29.5909   56.3801 C   0  0  0  0  0  0  0  0  0  0  0  0
  1  2  1  0
  2  3  1  0
  1  4  1  0
  4  5  1  0
  3  6  2  0
  5  7  1  0
  6  7  1  0
M  END
$$$$
Pocket2Mol_44
     RDKit          3D

  4  3  0  0  0  0  0  0  0  0999 V2000
   38.1701   31.8221   56.3476 C   0  0  0  0  0  0  0  0  0  0  0  0
   38.5468   30.9849   55.4239 O   0  0  0  0  0  0  0  0  0  0  0  0
   39.7344   30.9547   54.9841 C   0  0  0  0  0  0  0  0  0  0  0  0
   38.8473   31.5423   57.5544 O   0  0  0  0  0  0  0  0  0  0  0  0
  1  2  1  0
  2  3  1  0
  1  4  1  0
M  END
$$$$
Pocket2Mol_45
     RDKit          3D

  7  7  0  0  0  0  0  0  0  0999 V2000
   38.1129   31.6389   54.8554 C   0  0  0  0  0  0  0  0  0  0  0  0
   38.6301   31.6844   56.2041 O   0  0  0  0  0  0  0  0  0  0  0  0
   38.7915   30.6532   56.8760 C   0  0  0  0  0  0  0  0  0  0  0  0
   38.6030   30.6258   58.1966 O   0  0  0  0  0  0  0  0  0  0  0  0
   39.5946   29.5876   56.3172 C   0  0  0  0  0  0  0  0  0  0  0  0
   39.1553   30.9082   54.0174 C   0  0  0  0  0  0  0  0  0  0  0  0
   39.3084   29.5019   54.8000 C   0  0  0  0  0  0  0  0  0  0  0  0
  1  2  1  0
  2  3  1  0
  3  4  2  0
  3  5  1  0
  1  6  1  0
  5  7  1  0
  6  7  1  0
M  END
$$$$
Pocket2Mol_46
     RDKit          3D

  7  6  0  0  0  0  0  0  0  0999 V2000
   38.1129   31.6389   54.8554 C   0  0  0  0  0  0  0  0  0  0  0  0
   38.6301   31.6844   56.2041 O   0  0  0  0  0  0  0  0  0  0  0  0
   38.7915   30.6532   56.8760 C   0  0  0  0  0  0  0  0  0  0  0  0
   39.0417   29.3986   56.1286 C   0  0  0  0  0  0  0  0  0  0  0  0
   39.2270   30.6047   58.0440 O   0  0  0  0  0  0  0  0  0  0  0  0
   38.5855   29.4190   54.8679 O   0  0  0  0  0  0  0  0  0  0  0  0
   39.1659   28.2049   56.8491 N   0  0  0  0  0  0  0  0  0  0  0  0
  1  2  1  0
  2  3  1  0
  3  4  1  0
  3  5  2  0
  4  6  2  0
  4  7  1  0
M  END
$$$$
Pocket2Mol_47
     RDKit          3D

  8  8  0  0  0  0  0  0  0  0999 V2000
   38.1129   31.6389   54.8554 C   0  0  0  0  0  0  0  0  0  0  0  0
   38.6301   31.6844   56.2041 O   0  0  0  0  0  0  0  0  0  0  0  0
   38.2645   30.8654   57.1073 C   0  0  0  0  0  0  0  0  0  0  0  0
   39.2884   31.2230   54.1015 C   0  0  0  0  0  0  0  0  0  0  0  0
   39.9394   30.1823   54.8355 O   0  0  0  0  0  0  0  0  0  0  0  0
   39.2750   29.0910   55.3211 C   0  0  1  0  0  0  0  0  0  0  0  0
   39.6377   27.8592   54.9748 C   0  0  0  0  0  0  0  0  0  0  0  0
   39.1338   29.4356   56.8202 C   0  0  0  0  0  0  0  0  0  0  0  0
  1  2  1  0
  2  3  1  0
  1  4  1  0
  4  5  1  0
  5  6  1  0
  6  7  1  1
  3  8  1  0
  6  8  1  0
M  END
$$$$
Pocket2Mol_48
     RDKit          3D

  8  8  0  0  0  0  0  0  0  0999 V2000
   39.1143   30.9593   53.8853 C   0  0  0  0  0  0  0  0  0  0  0  0
   38.7479   31.4545   55.0791 C   0  0  0  0  0  0  0  0  0  0  0  0
   39.5044   29.6072   53.9792 C   0  0  0  0  0  0  0  0  0  0  0  0
   39.3771   29.1374   55.3859 C   0  0  0  0  0  0  0  0  0  0  0  0
   38.9329   30.5893   56.1511 C   0  0  0  0  0  0  0  0  0  0  0  0
   38.7230   30.6000   57.4354 C   0  0  0  0  0  0  0  0  0  0  0  0
   38.8393   29.5908   58.2211 O   0  0  0  0  0  0  0  0  0  0  0  0
   38.6170   31.7892   57.9216 O   0  0  0  0  0  0  0  0  0  0  0  0
  1  2  1  0
  1  3  2  0
  3  4  1  0
  2  5  2  0
  4  5  1  0
  5  6  1  0
  6  7  2  0
  6  8  1  0
M  CHG  1   8  -1
M  END
$$$$
Pocket2Mol_49
     RDKit          3D

  8  8  0  0  0  0  0  0  0  0999 V2000
   38.8270   31.9927   55.4028 C   0  0  0  0  0  0  0  0  0  0  0  0
   38.6258   32.1674   56.6529 C   0  0  0  0  0  0  0  0  0  0  0  0
   38.5839   30.9962   57.3846 C   0  0  0  0  0  0  0  0  0  0  0  0
   38.4026   31.1578   58.8891 C   0  0  0  0  0  0  0  0  0  0  0  0
   38.8066   29.8159   56.8804 C   0  0  0  0  0  0  0  0  0  0  0  0
   38.7361   28.6789   57.7283 O   0  0  0  0  0  0  0  0  0  0  0  0
   39.0191   30.7197   54.8014 C   0  0  0  0  0  0  0  0  0  0  0  0
   38.9734   29.5700   55.5975 C   0  0  0  0  0  0  0  0  0  0  0  0
  1  2  2  0
  2  3  1  0
  3  4  1  0
  3  5  2  0
  5  6  1  0
  1  7  1  0
  5  8  1  0
  7  8  2  0
M  END
$$$$
Pocket2Mol_50
     RDKit          3D

  8  8  0  0  0  0  0  0  0  0999 V2000
   38.6820   31.7376   56.4541 C   0  0  0  0  0  0  0  0  0  0  0  0
   38.7804   31.7421   55.2319 C   0  0  0  0  0  0  0  0  0  0  0  0
   39.2310   30.5545   54.6989 C   0  0  0  0  0  0  0  0  0  0  0  0
   39.3967   29.4343   55.3793 C   0  0  0  0  0  0  0  0  0  0  0  0
   38.6539   30.7876   57.2723 C   0  0  0  0  0  0  0  0  0  0  0  0
   39.7865   28.2013   54.8068 O   0  0  0  0  0  0  0  0  0  0  0  0
   38.5095   30.6981   58.7213 O   0  0  0  0  0  0  0  0  0  0  0  0
   39.1105   29.4026   56.8571 C   0  0  0  0  0  0  0  0  0  0  0  0
  1  2  2  0
  2  3  1  0
  3  4  2  0
  1  5  1  0
  4  6  1  0
  5  7  1  0
  4  8  1  0
  5  8  2  0
M  END
$$$$
Pocket2Mol_51
     RDKit          3D

  8  8  0  0  0  0  0  0  0  0999 V2000
   38.8270   31.9927   55.4028 C   0  0  0  0  0  0  0  0  0  0  0  0
   38.6258   32.1674   56.6529 C   0  0  0  0  0  0  0  0  0  0  0  0
   38.5839   30.9962   57.3846 C   0  0  0  0  0  0  0  0  0  0  0  0
   38.4026   31.1578   58.8891 C   0  0  0  0  0  0  0  0  0  0  0  0
   38.8345   30.7291   54.9717 C   0  0  0  0  0  0  0  0  0  0  0  0
   39.0177   30.3624   53.4712 C   0  0  0  0  0  0  0  0  0  0  0  0
   38.7295   29.5008   55.8856 C   0  0  0  0  0  0  0  0  0  0  0  0
   38.6812   29.8171   56.9717 C   0  0  0  0  0  0  0  0  0  0  0  0
  1  2  2  0
  2  3  1  0
  3  4  1  0
  1  5  1  0
  5  6  1  0
  5  7  2  0
  3  8  2  0
  7  8  1  0
M  END
$$$$
Pocket2Mol_52
     RDKit          3D

  8  8  0  0  0  0  0  0  0  0999 V2000
   38.6820   31.7376   56.4541 C   0  0  0  0  0  0  0  0  0  0  0  0
   38.7804   31.7421   55.2319 C   0  0  0  0  0  0  0  0  0  0  0  0
   38.7167   30.6476   57.1742 C   0  0  0  0  0  0  0  0  0  0  0  0
   38.6649   30.5508   58.6960 C   0  0  0  0  0  0  0  0  0  0  0  0
   38.9383   30.5422   54.5362 C   0  0  0  0  0  0  0  0  0  0  0  0
   39.0237   29.4060   55.1605 C   0  0  0  0  0  0  0  0  0  0  0  0
   39.2208   28.1765   54.4961 O   0  0  0  0  0  0  0  0  0  0  0  0
   38.9243   29.3775   56.5442 C   0  0  0  0  0  0  0  0  0  0  0  0
  1  2  2  0
  1  3  1  0
  3  4  1  0
  2  5  1  0
  5  6  2  0
  6  7  1  0
  3  8  2  0
  6  8  1  0
M  END
$$$$
Pocket2Mol_53
     RDKit          3D

  8  8  0  0  0  0  0  0  0  0999 V2000
   38.6443   31.4883   54.4720 C   0  0  0  0  0  0  0  0  0  0  0  0
   38.8264   31.5895   55.8863 C   0  0  0  0  0  0  0  0  0  0  0  0
   38.5931   32.6124   56.5644 C   0  0  0  0  0  0  0  0  0  0  0  0
   38.6043   32.3310   57.9606 C   0  0  0  0  0  0  0  0  0  0  0  0
   38.6448   31.1988   58.6135 C   0  0  0  0  0  0  0  0  0  0  0  0
   38.8736   30.1978   56.4088 C   0  0  0  0  0  0  0  0  0  0  0  0
   38.5599   30.9700   59.9546 N   0  0  0  0  0  0  0  0  0  0  0  0
   38.8104   30.0509   57.7616 N   0  0  0  0  0  0  0  0  0  0  0  0
  1  2  1  0
  2  3  2  0
  3  4  1  0
  4  5  2  0
  2  6  1  0
  5  7  1  0
  5  8  1  0
  6  8  2  0
M  END
$$$$
Pocket2Mol_54
     RDKit          3D

  8  8  0  0  0  0  0  0  0  0999 V2000
   39.2262   31.2676   55.6596 C   0  0  0  0  0  0  0  0  0  0  0  0
   38.6306   31.6249   56.5779 C   0  0  0  0  0  0  0  0  0  0  0  0
   38.2299   30.6973   57.4321 C   0  0  0  0  0  0  0  0  0  0  0  0
   37.6447   30.9150   58.7838 N   0  0  0  0  0  0  0  0  0  0  0  0
   39.4686   30.0608   55.1842 C   0  0  0  0  0  0  0  0  0  0  0  0
   39.1747   29.0338   55.9995 C   0  0  0  0  0  0  0  0  0  0  0  0
   39.4254   27.6298   55.7397 C   0  0  0  0  0  0  0  0  0  0  0  0
   38.5469   29.3179   57.2974 C   0  0  0  0  0  0  0  0  0  0  0  0
  1  2  2  0
  2  3  1  0
  3  4  1  0
  1  5  1  0
  5  6  2  0
  6  7  1  0
  3  8  2  0
  6  8  1  0
M  END
$$$$
Pocket2Mol_55
     RDKit          3D

  5  5  0  0  0  0  0  0  0  0999 V2000
   38.2337   31.8199   55.5505 C   0  0  0  0  0  0  0  0  0  0  0  0
   38.4772   32.0168   56.8231 O   0  0  0  0  0  0  0  0  0  0  0  0
   38.6444   30.5093   55.2367 C   0  0  0  0  0  0  0  0  0  0  0  0
   38.6668   29.7364   56.4402 O   0  0  0  0  0  0  0  0  0  0  0  0
   38.5120   30.8222   57.4432 C   0  0  0  0  0  0  0  0  0  0  0  0
  1  2  1  0
  1  3  1  0
  3  4  1  0
  2  5  1  0
  4  5  1  0
M  END
$$$$
Pocket2Mol_56
     RDKit          3D

  8  8  0  0  0  0  0  0  0  0999 V2000
   38.8270   31.9927   55.4028 C   0  0  0  0  0  0  0  0  0  0  0  0
   38.6258   32.1674   56.6529 C   0  0  0  0  0  0  0  0  0  0  0  0
   38.5839   30.9962   57.3846 C   0  0  0  0  0  0  0  0  0  0  0  0
   38.4026   31.1578   58.8891 C   0  0  0  0  0  0  0  0  0  0  0  0
   38.8345   30.7291   54.9717 C   0  0  0  0  0  0  0  0  0  0  0  0
   39.0177   30.3624   53.4712 C   0  0  0  0  0  0  0  0  0  0  0  0
   38.7295   29.5008   55.8856 C   0  0  0  0  0  0  0  0  0  0  0  0
   38.6228   29.8132   57.0338 N   0  0  0  0  0  0  0  0  0  0  0  0
  1  2  2  0
  2  3  1  0
  3  4  1  0
  1  5  1  0
  5  6  1  0
  5  7  2  0
  3  8  2  0
  7  8  1  0
M  END
$$$$
Pocket2Mol_57
     RDKit          3D

  8  8  0  0  0  0  0  0  0  0999 V2000
   38.9583   31.3514   54.6318 C   0  0  0  0  0  0  0  0  0  0  0  0
   38.8830   31.6963   55.8970 C   0  0  0  0  0  0  0  0  0  0  0  0
   39.3680   30.0687   54.4549 C   0  0  0  0  0  0  0  0  0  0  0  0
   39.4487   29.0865   55.3795 C   0  0  0  0  0  0  0  0  0  0  0  0
   39.8111   27.7943   55.1147 O   0  0  0  0  0  0  0  0  0  0  0  0
   38.4696   33.0887   56.2617 C   0  0  0  0  0  0  0  0  0  0  0  0
   39.2315   29.6290   56.6105 C   0  0  0  0  0  0  0  0  0  0  0  0
   38.8800   30.8719   56.9548 C   0  0  0  0  0  0  0  0  0  0  0  0
  1  2  2  0
  1  3  1  0
  3  4  2  0
  4  5  1  0
  2  6  1  0
  4  7  1  0
  2  8  1  0
  7  8  2  0
M  END
$$$$
Pocket2Mol_58
     RDKit          3D

  8  8  0  0  0  0  0  0  0  0999 V2000
   38.6443   31.4883   54.4720 C   0  0  0  0  0  0  0  0  0  0  0  0
   38.8264   31.5895   55.8863 C   0  0  0  0  0  0  0  0  0  0  0  0
   38.5931   32.6124   56.5644 C   0  0  0  0  0  0  0  0  0  0  0  0
   38.6043   32.3310   57.9606 C   0  0  0  0  0  0  0  0  0  0  0  0
   38.6448   31.1988   58.6135 C   0  0  0  0  0  0  0  0  0  0  0  0
   38.8736   30.1978   56.4088 C   0  0  0  0  0  0  0  0  0  0  0  0
   38.5599   30.9700   59.9546 N   0  0  0  0  0  0  0  0  0  0  0  0
   38.8249   30.0542   57.7653 C   0  0  0  0  0  0  0  0  0  0  0  0
  1  2  1  0
  2  3  2  0
  3  4  1  0
  4  5  2  0
  2  6  1  0
  5  7  1  0
  5  8  1  0
  6  8  2  0
M  END
$$$$
Pocket2Mol_59
     RDKit          3D

  8  8  0  0  0  0  0  0  0  0999 V2000
   39.2262   31.2676   55.6596 C   0  0  0  0  0  0  0  0  0  0  0  0
   38.6306   31.6249   56.5779 C   0  0  0  0  0  0  0  0  0  0  0  0
   38.2299   30.6973   57.4321 C   0  0  0  0  0  0  0  0  0  0  0  0
   37.6447   30.9150   58.7838 N   0  0  0  0  0  0  0  0  0  0  0  0
   39.4686   30.0608   55.1842 C   0  0  0  0  0  0  0  0  0  0  0  0
   38.5208   29.3176   57.2297 C   0  0  0  0  0  0  0  0  0  0  0  0
   38.1456   28.3182   58.1410 N   0  0  0  0  0  0  0  0  0  0  0  0
   39.1347   29.0244   56.0563 C   0  0  0  0  0  0  0  0  0  0  0  0
  1  2  2  0
  2  3  1  0
  3  4  1  0
  1  5  1  0
  3  6  2  0
  6  7  1  0
  5  8  2  0
  6  8  1  0
M  END
$$$$
Pocket2Mol_60
     RDKit          3D

  8  8  0  0  0  0  0  0  0  0999 V2000
   39.1143   30.9593   53.8853 C   0  0  0  0  0  0  0  0  0  0  0  0
   38.7479   31.4545   55.0791 C   0  0  0  0  0  0  0  0  0  0  0  0
   39.4153   29.7429   54.2863 C   0  0  0  0  0  0  0  0  0  0  0  0
   38.9194   30.7500   56.1092 C   0  0  0  0  0  0  0  0  0  0  0  0
   39.2968   29.4658   55.6875 N   0  0  0  0  0  0  0  0  0  0  0  0
   38.6585   30.9937   57.5154 C   0  0  0  0  0  0  0  0  0  0  0  0
   38.4039   32.1618   57.9225 O   0  0  0  0  0  0  0  0  0  0  0  0
   38.5031   30.0082   58.3932 O   0  0  0  0  0  0  0  0  0  0  0  0
  1  2  1  0
  1  3  2  0
  2  4  2  0
  3  5  1  0
  4  5  1  0
  4  6  1  0
  6  7  2  0
  6  8  1  0
M  CHG  2   5  -1   8  -1
M  END
$$$$
Pocket2Mol_61
     RDKit          3D

  8  8  0  0  0  0  0  0  0  0999 V2000
   39.1143   30.9593   53.8853 C   0  0  0  0  0  0  0  0  0  0  0  0
   38.7479   31.4545   55.0791 C   0  0  0  0  0  0  0  0  0  0  0  0
   39.4153   29.7429   54.2863 C   0  0  0  0  0  0  0  0  0  0  0  0
   39.4688   29.7174   55.6048 C   0  0  0  0  0  0  0  0  0  0  0  0
   39.0800   30.7800   56.0740 N   0  0  0  0  0  0  0  0  0  0  0  0
   38.8041   31.0416   57.3135 N   0  0  0  0  0  0  0  0  0  0  0  0
   38.8464   30.0049   58.1333 O   0  0  0  0  0  0  0  0  0  0  0  0
   38.3252   32.1220   57.8063 O   0  0  0  0  0  0  0  0  0  0  0  0
  1  2  1  0
  1  3  1  0
  3  4  1  0
  2  5  1  0
  4  5  1  0
  5  6  1  0
  6  7  2  0
  6  8  1  0
M  CHG  2   6   1   8  -1
M  END
$$$$
Pocket2Mol_62
     RDKit          3D

  8  7  0  0  0  0  0  0  0  0999 V2000
   38.1129   31.6389   54.8554 C   0  0  0  0  0  0  0  0  0  0  0  0
   38.6301   31.6844   56.2041 C   0  0  0  0  0  0  0  0  0  0  0  0
   38.1594   30.2287   54.5768 O   0  0  0  0  0  0  0  0  0  0  0  0
   39.2349   29.6913   54.2903 C   0  0  0  0  0  0  0  0  0  0  0  0
   38.4090   30.6434   56.9532 O   0  0  0  0  0  0  0  0  0  0  0  0
   39.6603   28.8531   55.4108 O   0  0  0  0  0  0  0  0  0  0  0  0
   40.2871   30.5071   53.8079 C   0  0  0  0  0  0  0  0  0  0  0  0
   38.8933   28.7921   53.1324 C   0  0  0  0  0  0  0  0  0  0  0  0
  1  2  1  0
  1  3  1  0
  3  4  1  0
  2  5  1  0
  4  6  1  0
  4  7  1  0
  4  8  1  0
M  END
$$$$
Pocket2Mol_63
     RDKit          3D

  8  8  0  0  0  0  0  0  0  0999 V2000
   38.5324   32.1847   55.2978 C   0  0  0  0  0  0  0  0  0  0  0  0
   38.7004   32.0932   56.6080 C   0  0  0  0  0  0  0  0  0  0  0  0
   38.7259   30.9835   54.6711 C   0  0  0  0  0  0  0  0  0  0  0  0
   38.9985   29.9207   55.6864 C   0  0  0  0  0  0  0  0  0  0  0  0
   38.8538   30.7827   57.0072 N   0  0  0  0  0  0  0  0  0  0  0  0
   38.8009   30.2831   57.9392 N   0  0  0  0  0  0  0  0  0  0  0  0
   38.7229   29.0791   58.1098 O   0  0  0  0  0  0  0  0  0  0  0  0
   38.8318   31.0989   59.0780 O   0  0  0  0  0  0  0  0  0  0  0  0
  1  2  1  0
  1  3  2  0
  3  4  1  0
  2  5  1  0
  4  5  1  0
  5  6  1  0
  6  7  2  0
  6  8  1  0
M  CHG  2   6   1   8  -1
M  END
$$$$
Pocket2Mol_64
     RDKit          3D

  8  8  0  0  0  0  0  0  0  0999 V2000
   38.9583   31.3514   54.6318 C   0  0  0  0  0  0  0  0  0  0  0  0
   38.9138   31.6718   55.9512 C   0  0  0  0  0  0  0  0  0  0  0  0
   38.7617   30.7261   56.8917 C   0  0  0  0  0  0  0  0  0  0  0  0
   38.6800   29.3740   56.1023 C   0  0  0  0  0  0  0  0  0  0  0  0
   38.9002   30.2002   54.0755 C   0  0  0  0  0  0  0  0  0  0  0  0
   38.5013   28.2926   57.1480 N   0  0  0  0  0  0  0  0  0  0  0  0
   38.9700   29.8285   52.6699 O   0  0  0  0  0  0  0  0  0  0  0  0
   38.7426   28.9856   54.9147 C   0  0  0  0  0  0  0  0  0  0  0  0
  1  2  2  0
  2  3  1  0
  3  4  2  0
  1  5  1  0
  4  6  1  0
  5  7  1  0
  4  8  1  0
  5  8  2  0
M  END
$$$$
Pocket2Mol_65
     RDKit          3D

  8  8  0  0  0  0  0  0  0  0999 V2000
   39.1143   30.9593   53.8853 C   0  0  0  0  0  0  0  0  0  0  0  0
   38.7479   31.4545   55.0791 C   0  0  0  0  0  0  0  0  0  0  0  0
   39.4153   29.7429   54.2863 C   0  0  0  0  0  0  0  0  0  0  0  0
   39.4688   29.7174   55.6048 C   0  0  0  0  0  0  0  0  0  0  0  0
   39.0800   30.7800   56.0740 N   0  0  0  0  0  0  0  0  0  0  0  0
   38.1554   30.9418   56.9574 N   0  0  0  0  0  0  0  0  0  0  0  0
   38.5044   31.9966   57.6766 C   0  0  0  0  0  0  0  0  0  0  0  0
   37.4689   32.6709   58.4313 N   0  0  0  0  0  0  0  0  0  0  0  0
  1  2  1  0
  1  3  1  0
  3  4  1  0
  2  5  1  0
  4  5  1  0
  5  6  1  0
  6  7  2  3
  7  8  1  0
M  CHG  2   5   1   6   1
M  END
$$$$
Pocket2Mol_66
     RDKit          3D

  5  4  0  0  0  0  0  0  0  0999 V2000
   38.0974   31.5465   55.2838 C   0  0  0  0  0  0  0  0  0  0  0  0
   38.6046   32.0608   56.4559 C   0  0  0  0  0  0  0  0  0  0  0  0
   38.0857   30.2185   55.3751 O   0  0  0  0  0  0  0  0  0  0  0  0
   38.0975   31.5415   57.6573 O   0  0  0  0  0  0  0  0  0  0  0  0
   38.1919   29.4630   54.3223 C   0  0  0  0  0  0  0  0  0  0  0  0
  1  2  1  0
  1  3  1  0
  2  4  1  0
  3  5  1  0
M  END
$$$$
Pocket2Mol_67
     RDKit          3D

  8  8  0  0  0  0  0  0  0  0999 V2000
   38.1129   31.6389   54.8554 C   0  0  0  0  0  0  0  0  0  0  0  0
   38.6301   31.6844   56.2041 O   0  0  0  0  0  0  0  0  0  0  0  0
   38.7915   30.6532   56.8760 C   0  0  0  0  0  0  0  0  0  0  0  0
   38.6030   30.6258   58.1966 O   0  0  0  0  0  0  0  0  0  0  0  0
   38.9981   29.3568   56.2497 C   0  0  0  0  0  0  0  0  0  0  0  0
   38.1350   30.2603   54.4318 C   0  0  0  0  0  0  0  0  0  0  0  0
   39.2089   28.2629   57.1827 O   0  0  0  0  0  0  0  0  0  0  0  0
   38.3600   29.1334   55.1859 C   0  0  0  0  0  0  0  0  0  0  0  0
  1  2  1  0
  2  3  1  0
  3  4  2  0
  3  5  1  0
  1  6  2  0
  5  7  1  0
  5  8  2  0
  6  8  1  0
M  END
$$$$
Pocket2Mol_68
     RDKit          3D

  9 10  0  0  0  0  0  0  0  0999 V2000
   38.6443   31.4883   54.4720 C   0  0  0  0  0  0  0  0  0  0  0  0
   38.8264   31.5895   55.8863 C   0  0  0  0  0  0  0  0  0  0  0  0
   38.5931   32.6124   56.5644 C   0  0  0  0  0  0  0  0  0  0  0  0
   38.6043   32.3310   57.9606 C   0  0  0  0  0  0  0  0  0  0  0  0
   38.6448   31.1988   58.6135 C   0  0  0  0  0  0  0  0  0  0  0  0
   38.8602   30.3318   56.5475 C   0  0  0  0  0  0  0  0  0  0  0  0
   39.0479   29.1008   55.6216 C   0  0  0  0  0  0  0  0  0  0  0  0
   38.8833   30.0575   54.1174 C   0  0  0  0  0  0  0  0  0  0  0  0
   38.8345   30.0733   57.8048 C   0  0  0  0  0  0  0  0  0  0  0  0
  1  2  1  0
  2  3  2  0
  3  4  1  0
  4  5  2  0
  2  6  1  0
  6  7  1  0
  1  8  1  0
  7  8  1  0
  5  9  1  0
  6  9  2  0
M  END
$$$$
Pocket2Mol_69
     RDKit          3D

  9 10  0  0  0  0  0  0  0  0999 V2000
   38.2337   31.8199   55.5505 C   0  0  0  0  0  0  0  0  0  0  0  0
   38.4772   32.0168   56.8231 O   0  0  0  0  0  0  0  0  0  0  0  0
   38.6444   30.5093   55.2367 O   0  0  0  0  0  0  0  0  0  0  0  0
   38.6538   31.0478   57.5848 C   0  0  0  0  0  0  0  0  0  0  0  0
   38.8088   29.9413   56.6978 C   0  0  0  0  0  0  0  0  0  0  0  0
   39.0534   28.6527   57.0554 C   0  0  0  0  0  0  0  0  0  0  0  0
   39.2320   28.4961   58.4040 C   0  0  0  0  0  0  0  0  0  0  0  0
   38.7621   30.7633   58.9569 C   0  0  0  0  0  0  0  0  0  0  0  0
   39.0139   29.4186   59.3097 C   0  0  0  0  0  0  0  0  0  0  0  0
  1  2  1  0
  1  3  1  0
  2  4  1  0
  3  5  1  0
  4  5  2  0
  5  6  1  0
  6  7  2  0
  4  8  1  0
  7  9  1  0
  8  9  2  0
M  END
$$$$
Pocket2Mol_70
     RDKit          3D

  9 10  0  0  0  0  0  0  0  0999 V2000
   38.8270   31.9927   55.4028 C   0  0  0  0  0  0  0  0  0  0  0  0
   38.7039   31.6595   56.6016 C   0  0  0  0  0  0  0  0  0  0  0  0
   38.8401   30.3561   56.9531 C   0  0  2  0  0  0  0  0  0  0  0  0
   38.3952   32.4515   57.6447 C   0  0  0  0  0  0  0  0  0  0  0  0
   39.0848   29.3097   56.1761 C   0  0  0  0  0  0  0  0  0  0  0  0
   38.2995   31.6845   58.8992 N   0  0  0  0  0  0  0  0  0  0  0  0
   38.5556   30.3976   58.4579 N   0  0  0  0  0  0  0  0  0  0  0  0
   39.1481   30.9410   54.3958 C   0  0  0  0  0  0  0  0  0  0  0  0
   39.2447   29.5924   54.9681 C   0  0  0  0  0  0  0  0  0  0  0  0
  1  2  1  0
  2  3  1  0
  2  4  2  0
  3  5  1  0
  4  6  1  0
  3  7  1  6
  6  7  1  0
  1  8  2  0
  5  9  2  0
  8  9  1  0
M  END
$$$$
Pocket2Mol_71
     RDKit          3D

  9  9  0  0  0  0  0  0  0  0999 V2000
   38.8270   31.9927   55.4028 C   0  0  0  0  0  0  0  0  0  0  0  0
   38.6258   32.1674   56.6529 C   0  0  0  0  0  0  0  0  0  0  0  0
   38.5839   30.9962   57.3846 C   0  0  0  0  0  0  0  0  0  0  0  0
   38.4026   31.1578   58.8891 C   0  0  0  0  0  0  0  0  0  0  0  0
   38.8066   29.8159   56.8804 C   0  0  0  0  0  0  0  0  0  0  0  0
   38.7361   28.6789   57.7283 O   0  0  0  0  0  0  0  0  0  0  0  0
   39.0191   30.7197   54.8014 C   0  0  0  0  0  0  0  0  0  0  0  0
   39.2237   30.5366   53.3872 O   0  0  0  0  0  0  0  0  0  0  0  0
   38.9978   29.5492   55.5707 C   0  0  0  0  0  0  0  0  0  0  0  0
  1  2  2  0
  2  3  1  0
  3  4  1  0
  3  5  2  0
  5  6  1  0
  1  7  1  0
  7  8  1  0
  5  9  1  0
  7  9  2  0
M  END
$$$$
Pocket2Mol_72
     RDKit          3D

  9 10  0  0  0  0  0  0  0  0999 V2000
   38.8270   31.9927   55.4028 C   0  0  0  0  0  0  0  0  0  0  0  0
   38.7039   31.6595   56.6016 C   0  0  0  0  0  0  0  0  0  0  0  0
   38.8401   30.3561   56.9531 C   0  0  0  0  0  0  0  0  0  0  0  0
   38.3952   32.4515   57.6447 C   0  0  0  0  0  0  0  0  0  0  0  0
   39.0848   29.3097   56.1761 C   0  0  0  0  0  0  0  0  0  0  0  0
   38.2127   32.2080   59.0292 C   0  0  0  0  0  0  0  0  0  0  0  0
   39.2953   29.6577   54.8607 C   0  0  0  0  0  0  0  0  0  0  0  0
   38.3781   30.6410   58.8014 C   0  0  0  0  0  0  0  0  0  0  0  0
   39.2072   30.9046   54.4819 C   0  0  0  0  0  0  0  0  0  0  0  0
  1  2  1  0
  2  3  1  0
  2  4  2  0
  3  5  1  0
  4  6  2  0
  5  7  2  0
  3  8  2  0
  6  8  1  0
  1  9  2  0
  7  9  1  0
M  END
$$$$
Pocket2Mol_73
     RDKit          3D

  9 10  0  0  0  0  0  0  0  0999 V2000
   39.1143   30.9593   53.8853 C   0  0  0  0  0  0  0  0  0  0  0  0
   38.7479   31.4545   55.0791 C   0  0  0  0  0  0  0  0  0  0  0  0
   39.5044   29.6072   53.9792 C   0  0  0  0  0  0  0  0  0  0  0  0
   39.3771   29.1374   55.3859 C   0  0  0  0  0  0  0  0  0  0  0  0
   39.0606   30.2520   56.2101 C   0  0  0  0  0  0  0  0  0  0  0  0
   38.7522   30.3998   57.3673 C   0  0  0  0  0  0  0  0  0  0  0  0
   38.3917   32.5441   55.5265 N   0  0  0  0  0  0  0  0  0  0  0  0
   38.3497   31.7150   57.8328 N   0  0  0  0  0  0  0  0  0  0  0  0
   38.1975   32.6421   56.9490 C   0  0  0  0  0  0  0  0  0  0  0  0
  1  2  1  0
  1  3  2  0
  3  4  1  0
  2  5  1  0
  4  5  2  0
  5  6  1  0
  2  7  2  0
  6  8  2  0
  7  9  1  0
  8  9  1  0
M  END
$$$$
Pocket2Mol_74
     RDKit          3D

  9 10  0  0  0  0  0  0  0  0999 V2000
   38.8270   31.9927   55.4028 C   0  0  0  0  0  0  0  0  0  0  0  0
   38.7039   31.6595   56.6016 C   0  0  0  0  0  0  0  0  0  0  0  0
   38.8401   30.3561   56.9531 C   0  0  0  0  0  0  0  0  0  0  0  0
   38.3952   32.4515   57.6447 C   0  0  0  0  0  0  0  0  0  0  0  0
   39.0848   29.3097   56.1761 C   0  0  0  0  0  0  0  0  0  0  0  0
   38.6556   30.0080   58.3927 N   0  0  0  0  0  0  0  0  0  0  0  0
   38.3167   31.5302   58.9705 C   0  0  0  0  0  0  0  0  0  0  0  0
   38.8671   30.9874   54.4316 C   0  0  0  0  0  0  0  0  0  0  0  0
   39.1359   29.6327   54.8308 C   0  0  0  0  0  0  0  0  0  0  0  0
  1  2  1  0
  2  3  1  0
  2  4  2  0
  3  5  1  0
  3  6  2  0
  4  7  1  0
  6  7  1  0
  1  8  2  0
  5  9  2  0
  8  9  1  0
M  END
$$$$
Pocket2Mol_75
     RDKit          3D

  9 10  0  0  0  0  0  0  0  0999 V2000
   39.1143   30.9593   53.8853 C   0  0  0  0  0  0  0  0  0  0  0  0
   38.7479   31.4545   55.0791 C   0  0  1  0  0  0  0  0  0  0  0  0
   39.4153   29.7429   54.2863 C   0  0  0  0  0  0  0  0  0  0  0  0
   39.4688   29.7174   55.6048 C   0  0  0  0  0  0  0  0  0  0  0  0
   39.0800   30.7800   56.0740 N   0  0  2  0  0  0  0  0  0  0  0  0
   38.1554   30.9418   56.9574 N   0  0  0  0  0  0  0  0  0  0  0  0
   38.5044   31.9966   57.6766 C   0  0  0  0  0  0  0  0  0  0  0  0
   38.7095   32.9570   56.9881 C   0  0  0  0  0  0  0  0  0  0  0  0
   38.8425   32.6313   55.5718 C   0  0  0  0  0  0  0  0  0  0  0  0
  2  1  1  6
  1  3  1  0
  3  4  1  0
  2  5  1  0
  5  4  1  6
  5  6  1  0
  6  7  2  0
  7  8  1  0
  2  9  1  0
  8  9  1  0
M  CHG  1   5   1
M  END
$$$$
Pocket2Mol_76
     RDKit          3D

  9  9  0  0  0  0  0  0  0  0999 V2000
   38.9583   31.3514   54.6318 C   0  0  0  0  0  0  0  0  0  0  0  0
   38.9138   31.6718   55.9512 C   0  0  0  0  0  0  0  0  0  0  0  0
   38.7617   30.7261   56.8917 C   0  0  0  0  0  0  0  0  0  0  0  0
   38.6800   29.3740   56.1023 C   0  0  0  0  0  0  0  0  0  0  0  0
   38.7475   29.6657   54.7634 C   0  0  0  0  0  0  0  0  0  0  0  0
   38.7143   30.7263   58.2817 C   0  0  0  0  0  0  0  0  0  0  0  0
   38.2894   28.3689   56.6221 O   0  0  0  0  0  0  0  0  0  0  0  0
   38.9877   29.7867   59.0173 O   0  0  0  0  0  0  0  0  0  0  0  0
   38.5814   31.8857   58.8103 O   0  0  0  0  0  0  0  0  0  0  0  0
  1  2  1  0
  2  3  2  0
  3  4  1  0
  1  5  2  0
  4  5  1  0
  3  6  1  0
  4  7  2  0
  6  8  2  0
  6  9  1  0
M  CHG  1   9  -1
M  END
$$$$
Pocket2Mol_77
     RDKit          3D

  5  5  0  0  0  0  0  0  0  0999 V2000
   38.2337   31.8199   55.5505 C   0  0  0  0  0  0  0  0  0  0  0  0
   38.4791   31.4243   56.7319 C   0  0  0  0  0  0  0  0  0  0  0  0
   38.8221   30.1498   56.9112 C   0  0  0  0  0  0  0  0  0  0  0  0
   38.6587   30.8792   54.6101 C   0  0  0  0  0  0  0  0  0  0  0  0
   38.3988   29.6288   55.7110 C   0  0  0  0  0  0  0  0  0  0  0  0
  1  2  1  0
  2  3  1  0
  1  4  1  0
  3  5  1  0
  4  5  1  0
M  END
$$$$
Pocket2Mol_78
     RDKit          3D

  9  9  0  0  0  0  0  0  0  0999 V2000
   38.9583   31.3514   54.6318 C   0  0  0  0  0  0  0  0  0  0  0  0
   38.9138   31.6718   55.9512 C   0  0  0  0  0  0  0  0  0  0  0  0
   38.7617   30.7261   56.8917 C   0  0  0  0  0  0  0  0  0  0  0  0
   38.7197   30.9725   58.2787 C   0  0  0  0  0  0  0  0  0  0  0  0
   38.5755   29.9652   59.1117 O   0  0  0  0  0  0  0  0  0  0  0  0
   38.6233   32.2064   58.6329 O   0  0  0  0  0  0  0  0  0  0  0  0
   38.8122   29.9285   54.4782 C   0  0  0  0  0  0  0  0  0  0  0  0
   38.7028   29.0914   56.5153 C   0  0  0  0  0  0  0  0  0  0  0  0
   38.7522   28.9276   55.2781 C   0  0  0  0  0  0  0  0  0  0  0  0
  1  2  2  0
  2  3  1  0
  3  4  1  0
  4  5  2  0
  4  6  1  0
  1  7  1  0
  3  8  2  0
  7  9  2  0
  8  9  1  0
M  CHG  1   6  -1
M  END
$$$$
Pocket2Mol_79
     RDKit          3D

  9 10  0  0  0  0  0  0  0  0999 V2000
   38.8270   31.9927   55.4028 C   0  0  0  0  0  0  0  0  0  0  0  0
   38.7039   31.6595   56.6016 C   0  0  0  0  0  0  0  0  0  0  0  0
   38.8401   30.3561   56.9531 C   0  0  0  0  0  0  0  0  0  0  0  0
   38.3952   32.4515   57.6447 C   0  0  0  0  0  0  0  0  0  0  0  0
   38.2043   32.1708   59.0180 C   0  0  0  0  0  0  0  0  0  0  0  0
   39.1331   29.3915   56.0543 C   0  0  0  0  0  0  0  0  0  0  0  0
   39.3024   29.8387   54.7839 C   0  0  0  0  0  0  0  0  0  0  0  0
   38.3954   30.6186   58.7676 C   0  0  0  0  0  0  0  0  0  0  0  0
   39.1863   31.0241   54.4446 C   0  0  0  0  0  0  0  0  0  0  0  0
  1  2  1  0
  2  3  1  0
  2  4  1  0
  4  5  2  0
  3  6  1  0
  6  7  2  0
  3  8  2  0
  5  8  1  0
  1  9  2  0
  7  9  1  0
M  END
$$$$
Pocket2Mol_80
     RDKit          3D

  9  9  0  0  0  0  0  0  0  0999 V2000
   38.8270   31.9927   55.4028 C   0  0  0  0  0  0  0  0  0  0  0  0
   38.6258   32.1674   56.6529 C   0  0  0  0  0  0  0  0  0  0  0  0
   38.5839   30.9962   57.3846 C   0  0  0  0  0  0  0  0  0  0  0  0
   38.4026   31.1578   58.8891 C   0  0  0  0  0  0  0  0  0  0  0  0
   38.6665   29.8718   56.6867 C   0  0  0  0  0  0  0  0  0  0  0  0
   38.9039   30.8118   54.7181 C   0  0  0  0  0  0  0  0  0  0  0  0
   39.0673   30.6794   53.3018 C   0  0  0  0  0  0  0  0  0  0  0  0
   39.4846   29.7875   52.9183 O   0  0  0  0  0  0  0  0  0  0  0  0
   38.8587   29.7263   55.5013 C   0  0  0  0  0  0  0  0  0  0  0  0
  1  2  2  0
  2  3  1  0
  3  4  1  0
  3  5  2  0
  1  6  1  0
  6  7  1  0
  7  8  2  0
  5  9  1  0
  6  9  2  0
M  END
$$$$
Pocket2Mol_81
     RDKit          3D

  9 10  0  0  0  0  0  0  0  0999 V2000
   38.8270   31.9927   55.4028 C   0  0  0  0  0  0  0  0  0  0  0  0
   38.7039   31.6595   56.6016 C   0  0  0  0  0  0  0  0  0  0  0  0
   38.8401   30.3561   56.9531 C   0  0  0  0  0  0  0  0  0  0  0  0
   38.3952   32.4515   57.6447 C   0  0  0  0  0  0  0  0  0  0  0  0
   39.0848   29.3097   56.1761 C   0  0  0  0  0  0  0  0  0  0  0  0
   38.2995   31.6845   58.8992 N   0  0  0  0  0  0  0  0  0  0  0  0
   38.5485   30.3675   58.4568 N   0  0  0  0  0  0  0  0  0  0  0  0
   39.1648   30.9234   54.4248 C   0  0  0  0  0  0  0  0  0  0  0  0
   39.3009   29.6251   54.8987 C   0  0  0  0  0  0  0  0  0  0  0  0
  1  2  1  0
  2  3  1  0
  2  4  2  0
  3  5  1  0
  4  6  1  0
  3  7  2  0
  6  7  1  0
  1  8  2  0
  5  9  2  0
  8  9  1  0
M  END
$$$$
Pocket2Mol_82
     RDKit          3D

  9  9  0  0  0  0  0  0  0  0999 V2000
   38.2337   31.8199   55.5505 C   0  0  0  0  0  0  0  0  0  0  0  0
   38.4791   31.4243   56.7319 C   0  0  0  0  0  0  0  0  0  0  0  0
   38.8221   30.1498   56.9112 C   0  0  0  0  0  0  0  0  0  0  0  0
   38.3552   32.2762   57.6922 C   0  0  0  0  0  0  0  0  0  0  0  0
   38.4310   31.6868   59.0553 C   0  0  0  0  0  0  0  0  0  0  0  0
   38.9254   29.6075   58.2399 C   0  0  0  0  0  0  0  0  0  0  0  0
   38.6830   30.4560   59.3048 C   0  0  0  0  0  0  0  0  0  0  0  0
   38.4181   30.9426   54.4412 O   0  0  0  0  0  0  0  0  0  0  0  0
   37.9310   32.9687   55.1504 N   0  0  0  0  0  0  0  0  0  0  0  0
  1  2  1  0
  2  3  2  0
  2  4  1  0
  4  5  2  0
  3  6  1  0
  5  7  1  0
  6  7  2  0
  1  8  2  0
  1  9  1  0
M  END
$$$$
Pocket2Mol_83
     RDKit          3D

  9 10  0  0  0  0  0  0  0  0999 V2000
   38.9583   31.3514   54.6318 C   0  0  0  0  0  0  0  0  0  0  0  0
   38.8830   31.6963   55.8970 C   0  0  0  0  0  0  0  0  0  0  0  0
   39.3680   30.0687   54.4549 C   0  0  0  0  0  0  0  0  0  0  0  0
   39.4487   29.0865   55.3795 C   0  0  0  0  0  0  0  0  0  0  0  0
   39.2652   29.6124   56.6325 C   0  0  0  0  0  0  0  0  0  0  0  0
   38.4564   33.0312   56.2872 C   0  0  0  0  0  0  0  0  0  0  0  0
   38.1805   32.7680   57.4557 C   0  0  0  0  0  0  0  0  0  0  0  0
   38.9083   30.8187   56.9311 C   0  0  0  0  0  0  0  0  0  0  0  0
   38.5441   31.5882   58.0070 N   0  0  0  0  0  0  0  0  0  0  0  0
  1  2  2  0
  1  3  1  0
  3  4  2  0
  4  5  1  0
  2  6  1  0
  6  7  2  0
  2  8  1  0
  5  8  2  0
  7  9  1  0
  8  9  1  0
M  END
$$$$
Pocket2Mol_84
     RDKit          3D

  9  9  0  0  0  0  0  0  0  0999 V2000
   38.1129   31.6389   54.8554 C   0  0  0  0  0  0  0  0  0  0  0  0
   38.6301   31.6844   56.2041 C   0  0  0  0  0  0  0  0  0  0  0  0
   38.1594   30.2287   54.5768 O   0  0  0  0  0  0  0  0  0  0  0  0
   39.2349   29.6913   54.2903 C   0  0  1  0  0  0  0  0  0  0  0  0
   39.0890   28.4211   53.7381 C   0  0  0  0  0  0  0  0  0  0  0  0
   38.4392   30.5177   56.8665 O   0  0  0  0  0  0  0  0  0  0  0  0
   39.5896   29.5931   56.7527 C   0  0  0  0  0  0  0  0  0  0  0  0
   39.9884   30.5998   53.6169 O   0  0  0  0  0  0  0  0  0  0  0  0
   39.8191   29.1766   55.4993 C   0  0  0  0  0  0  0  0  0  0  0  0
  1  2  1  0
  1  3  1  0
  3  4  1  0
  4  5  1  6
  2  6  1  0
  6  7  1  0
  4  8  1  0
  4  9  1  0
  7  9  2  0
M  END
$$$$
Pocket2Mol_85
     RDKit          3D

  9  9  0  0  0  0  0  0  0  0999 V2000
   39.1143   30.9593   53.8853 C   0  0  0  0  0  0  0  0  0  0  0  0
   38.7479   31.4545   55.0791 C   0  0  0  0  0  0  0  0  0  0  0  0
   39.4153   29.7429   54.2863 C   0  0  0  0  0  0  0  0  0  0  0  0
   38.9194   30.7500   56.1092 C   0  0  0  0  0  0  0  0  0  0  0  0
   39.8285   28.5717   53.4034 O   0  0  0  0  0  0  0  0  0  0  0  0
   39.3770   29.4613   55.7626 C   0  0  0  0  0  0  0  0  0  0  0  0
   38.6735   31.0780   57.5050 C   0  0  0  0  0  0  0  0  0  0  0  0
   38.4139   32.2880   57.8122 O   0  0  0  0  0  0  0  0  0  0  0  0
   39.0282   30.2587   58.4395 O   0  0  0  0  0  0  0  0  0  0  0  0
  1  2  1  0
  1  3  2  0
  2  4  2  0
  3  5  1  0
  3  6  1  0
  4  6  1  0
  4  7  1  0
  7  8  2  0
  7  9  1  0
M  CHG  2   5  -1   9  -1
M  END
$$$$
Pocket2Mol_86
     RDKit          3D

  9  9  0  0  0  0  0  0  0  0999 V2000
   38.5324   32.1847   55.2978 C   0  0  0  0  0  0  0  0  0  0  0  0
   38.7004   32.0932   56.6080 C   0  0  0  0  0  0  0  0  0  0  0  0
   38.7259   30.9835   54.6711 C   0  0  0  0  0  0  0  0  0  0  0  0
   38.7930   30.8356   53.1937 O   0  0  0  0  0  0  0  0  0  0  0  0
   39.0619   29.6960   55.3487 C   0  0  0  0  0  0  0  0  0  0  0  0
   38.3609   33.3683   57.3168 C   0  0  0  0  0  0  0  0  0  0  0  0
   39.2653   28.5381   54.6279 O   0  0  0  0  0  0  0  0  0  0  0  0
   38.8821   30.9818   57.3325 C   0  0  0  0  0  0  0  0  0  0  0  0
   39.0884   29.7906   56.7037 C   0  0  0  0  0  0  0  0  0  0  0  0
  1  2  2  0
  1  3  1  0
  3  4  1  0
  3  5  2  0
  2  6  1  0
  5  7  1  0
  2  8  1  0
  5  9  1  0
  8  9  2  0
M  END
$$$$
Pocket2Mol_87
     RDKit          3D

  9  9  0  0  0  0  0  0  0  0999 V2000
   38.9583   31.3514   54.6318 C   0  0  0  0  0  0  0  0  0  0  0  0
   38.9138   31.6718   55.9512 C   0  0  0  0  0  0  0  0  0  0  0  0
   38.7617   30.7261   56.8917 C   0  0  0  0  0  0  0  0  0  0  0  0
   38.7197   30.9725   58.2787 C   0  0  0  0  0  0  0  0  0  0  0  0
   38.5755   29.9652   59.1117 N   0  0  0  0  0  0  0  0  0  0  0  0
   38.5759   32.3008   58.6659 C   0  0  0  0  0  0  0  0  0  0  0  0
   38.9207   29.9268   54.3328 C   0  0  0  0  0  0  0  0  0  0  0  0
   38.7777   29.1290   56.6883 C   0  0  0  0  0  0  0  0  0  0  0  0
   38.8812   28.9564   55.4036 C   0  0  0  0  0  0  0  0  0  0  0  0
  1  2  2  0
  2  3  1  0
  3  4  1  0
  4  5  2  0
  4  6  1  0
  1  7  1  0
  3  8  2  0
  7  9  2  0
  8  9  1  0
M  END
$$$$
Pocket2Mol_88
     RDKit          3D

  5  5  0  0  0  0  0  0  0  0999 V2000
   38.5324   32.1847   55.2978 C   0  0  0  0  0  0  0  0  0  0  0  0
   38.4811   31.7430   56.5574 C   0  0  0  0  0  0  0  0  0  0  0  0
   38.9104   31.1229   54.4253 C   0  0  0  0  0  0  0  0  0  0  0  0
   39.0584   29.9203   55.2923 C   0  0  0  0  0  0  0  0  0  0  0  0
   38.5596   30.3193   56.3991 N   0  0  0  0  0  0  0  0  0  0  0  0
  1  2  1  0
  1  3  1  0
  3  4  1  0
  2  5  1  0
  4  5  1  0
M  CHG  1   5   1
M  END
$$$$
Pocket2Mol_89
     RDKit          3D

  9 10  0  0  0  0  0  0  0  0999 V2000
   38.6443   31.4883   54.4720 C   0  0  0  0  0  0  0  0  0  0  0  0
   38.8264   31.5895   55.8863 C   0  0  0  0  0  0  0  0  0  0  0  0
   38.5931   32.6124   56.5644 C   0  0  0  0  0  0  0  0  0  0  0  0
   38.6043   32.3310   57.9606 C   0  0  0  0  0  0  0  0  0  0  0  0
   38.6448   31.1988   58.6135 C   0  0  0  0  0  0  0  0  0  0  0  0
   38.8602   30.3318   56.5475 C   0  0  0  0  0  0  0  0  0  0  0  0
   39.0479   29.1008   55.6216 C   0  0  0  0  0  0  0  0  0  0  0  0
   38.8179   30.0764   57.8188 C   0  0  0  0  0  0  0  0  0  0  0  0
   38.8266   30.1130   54.0554 C   0  0  0  0  0  0  0  0  0  0  0  0
  1  2  1  0
  2  3  2  0
  3  4  1  0
  4  5  2  0
  2  6  1  0
  6  7  1  0
  5  8  1  0
  6  8  2  0
  1  9  2  0
  7  9  1  0
M  END
$$$$
Pocket2Mol_90
     RDKit          3D

  9  9  0  0  0  0  0  0  0  0999 V2000
   38.9583   31.3514   54.6318 C   0  0  0  0  0  0  0  0  0  0  0  0
   38.9138   31.6718   55.9512 C   0  0  0  0  0  0  0  0  0  0  0  0
   38.7617   30.7261   56.8917 C   0  0  0  0  0  0  0  0  0  0  0  0
   38.6800   29.3740   56.1023 C   0  0  0  0  0  0  0  0  0  0  0  0
   38.7475   29.6657   54.7634 C   0  0  0  0  0  0  0  0  0  0  0  0
   38.7143   30.7263   58.2817 C   0  0  0  0  0  0  0  0  0  0  0  0
   38.2894   28.3689   56.6221 O   0  0  0  0  0  0  0  0  0  0  0  0
   38.9877   29.7867   59.0173 N   0  0  0  0  0  0  0  0  0  0  0  0
   38.3177   31.8567   58.8039 O   0  0  0  0  0  0  0  0  0  0  0  0
  1  2  1  0
  2  3  2  0
  3  4  1  0
  1  5  2  0
  4  5  1  0
  3  6  1  0
  4  7  2  0
  6  8  1  0
  6  9  2  0
M  END
$$$$
Pocket2Mol_91
     RDKit          3D

  9 10  0  0  0  0  0  0  0  0999 V2000
   38.9583   31.3514   54.6318 C   0  0  0  0  0  0  0  0  0  0  0  0
   38.9138   31.6718   55.9512 C   0  0  0  0  0  0  0  0  0  0  0  0
   38.7617   30.7261   56.8917 C   0  0  0  0  0  0  0  0  0  0  0  0
   38.7197   30.9725   58.2787 C   0  0  0  0  0  0  0  0  0  0  0  0
   38.8512   30.0042   54.2886 C   0  0  0  0  0  0  0  0  0  0  0  0
   38.7602   29.3326   56.5147 C   0  0  0  0  0  0  0  0  0  0  0  0
   38.6625   28.4095   57.5163 N   0  0  0  0  0  0  0  0  0  0  0  0
   38.5384   29.1444   58.7521 C   0  0  0  0  0  0  0  0  0  0  0  0
   38.8150   28.9883   55.2444 C   0  0  0  0  0  0  0  0  0  0  0  0
  1  2  2  0
  2  3  1  0
  3  4  1  0
  1  5  1  0
  3  6  2  0
  6  7  1  0
  4  8  2  0
  7  8  2  0
  5  9  2  0
  6  9  1  0
M  END
$$$$
Pocket2Mol_92
     RDKit          3D

 10 11  0  0  0  0  0  0  0  0999 V2000
   38.8270   31.9927   55.4028 C   0  0  0  0  0  0  0  0  0  0  0  0
   38.7039   31.6595   56.6016 C   0  0  0  0  0  0  0  0  0  0  0  0
   38.8401   30.3561   56.9531 C   0  0  0  0  0  0  0  0  0  0  0  0
   38.3952   32.4515   57.6447 C   0  0  0  0  0  0  0  0  0  0  0  0
   38.2043   32.1708   59.0180 C   0  0  0  0  0  0  0  0  0  0  0  0
   39.1331   29.3915   56.0543 C   0  0  0  0  0  0  0  0  0  0  0  0
   38.6374   30.0000   58.3635 C   0  0  0  0  0  0  0  0  0  0  0  0
   39.0869   31.1147   54.3588 C   0  0  0  0  0  0  0  0  0  0  0  0
   38.3525   30.8617   59.3133 C   0  0  0  0  0  0  0  0  0  0  0  0
   39.2406   29.7619   54.8013 C   0  0  0  0  0  0  0  0  0  0  0  0
  1  2  2  0
  2  3  1  0
  2  4  1  0
  4  5  2  0
  3  6  2  0
  3  7  1  0
  1  8  1  0
  5  9  1  0
  7  9  2  0
  6 10  1  0
  8 10  2  0
M  END
$$$$
Pocket2Mol_93
     RDKit          3D

 10 11  0  0  0  0  0  0  0  0999 V2000
   38.8270   31.9927   55.4028 C   0  0  0  0  0  0  0  0  0  0  0  0
   38.7039   31.6595   56.6016 C   0  0  0  0  0  0  0  0  0  0  0  0
   38.8401   30.3561   56.9531 C   0  0  0  0  0  0  0  0  0  0  0  0
   38.3952   32.4515   57.6447 C   0  0  0  0  0  0  0  0  0  0  0  0
   39.0848   29.3097   56.1761 C   0  0  0  0  0  0  0  0  0  0  0  0
   38.6556   30.0080   58.3927 N   0  0  0  0  0  0  0  0  0  0  0  0
   38.1943   32.1813   58.9810 C   0  0  0  0  0  0  0  0  0  0  0  0
   39.0905   30.9828   54.3982 C   0  0  0  0  0  0  0  0  0  0  0  0
   38.3310   30.9439   59.2558 C   0  0  0  0  0  0  0  0  0  0  0  0
   39.2525   29.6774   54.8350 C   0  0  0  0  0  0  0  0  0  0  0  0
  1  2  2  0
  2  3  1  0
  2  4  1  0
  3  5  2  0
  3  6  1  0
  4  7  2  0
  1  8  1  0
  6  9  2  0
  7  9  1  0
  5 10  1  0
  8 10  2  0
M  END
$$$$
Pocket2Mol_94
     RDKit          3D

 10 11  0  0  0  0  0  0  0  0999 V2000
   38.8270   31.9927   55.4028 C   0  0  0  0  0  0  0  0  0  0  0  0
   38.7039   31.6595   56.6016 C   0  0  0  0  0  0  0  0  0  0  0  0
   38.8401   30.3561   56.9531 C   0  0  0  0  0  0  0  0  0  0  0  0
   38.3952   32.4515   57.6447 C   0  0  0  0  0  0  0  0  0  0  0  0
   39.0848   29.3097   56.1761 C   0  0  0  0  0  0  0  0  0  0  0  0
   38.2127   32.2080   59.0292 C   0  0  0  0  0  0  0  0  0  0  0  0
   39.2953   29.6577   54.8607 C   0  0  0  0  0  0  0  0  0  0  0  0
   38.3781   30.6410   58.8014 C   0  0  0  0  0  0  0  0  0  0  0  0
   39.6509   28.5714   54.0525 O   0  0  0  0  0  0  0  0  0  0  0  0
   39.2073   30.9224   54.3462 C   0  0  0  0  0  0  0  0  0  0  0  0
  1  2  1  0
  2  3  1  0
  2  4  2  0
  3  5  1  0
  4  6  1  0
  5  7  2  0
  3  8  2  0
  6  8  2  0
  7  9  1  0
  1 10  2  0
  7 10  1  0
M  END
$$$$
Pocket2Mol_95
     RDKit          3D

 10 11  0  0  0  0  0  0  0  0999 V2000
   38.9583   31.3514   54.6318 C   0  0  0  0  0  0  0  0  0  0  0  0
   38.9138   31.6718   55.9512 C   0  0  0  0  0  0  0  0  0  0  0  0
   38.7617   30.7261   56.8917 C   0  0  0  0  0  0  0  0  0  0  0  0
   38.6800   29.3740   56.1023 C   0  0  0  0  0  0  0  0  0  0  0  0
   38.7475   29.6657   54.7634 C   0  0  0  0  0  0  0  0  0  0  0  0
   38.7143   30.7263   58.2817 C   0  0  0  0  0  0  0  0  0  0  0  0
   38.4030   31.8374   58.8151 O   0  0  0  0  0  0  0  0  0  0  0  0
   38.5738   28.2119   56.7220 N   0  0  0  0  0  0  0  0  0  0  0  0
   38.4820   28.2683   58.1198 C   0  0  0  0  0  0  0  0  0  0  0  0
   38.5216   29.4508   58.8691 N   0  0  0  0  0  0  0  0  0  0  0  0
  1  2  1  0
  2  3  2  0
  3  4  1  0
  1  5  2  0
  4  5  1  0
  3  6  1  0
  6  7  2  0
  4  8  2  0
  8  9  1  0
  6 10  1  0
  9 10  2  0
M  END
$$$$
Pocket2Mol_96
     RDKit          3D

 10 11  0  0  0  0  0  0  0  0999 V2000
   39.1143   30.9593   53.8853 C   0  0  0  0  0  0  0  0  0  0  0  0
   38.7479   31.4545   55.0791 C   0  0  0  0  0  0  0  0  0  0  0  0
   39.4153   29.7429   54.2863 C   0  0  0  0  0  0  0  0  0  0  0  0
   38.9194   30.7500   56.1092 C   0  0  0  0  0  0  0  0  0  0  0  0
   39.2968   29.4658   55.6875 N   0  0  0  0  0  0  0  0  0  0  0  0
   38.6694   30.9534   57.5207 C   0  0  0  0  0  0  0  0  0  0  0  0
   38.3959   32.1433   57.9346 O   0  0  0  0  0  0  0  0  0  0  0  0
   39.4617   28.4814   56.1457 C   0  0  0  0  0  0  0  0  0  0  0  0
   38.9933   29.9128   58.3867 N   0  0  0  0  0  0  0  0  0  0  0  0
   39.3669   28.6352   57.7128 C   0  0  0  0  0  0  0  0  0  0  0  0
  1  2  1  0
  1  3  2  0
  2  4  2  0
  3  5  1  0
  4  5  1  0
  4  6  1  0
  6  7  2  0
  5  8  1  0
  6  9  1  0
  8 10  1  0
  9 10  1  0
M  END
$$$$
Pocket2Mol_97
     RDKit          3D

 10 11  0  0  0  0  0  0  0  0999 V2000
   38.8270   31.9927   55.4028 C   0  0  0  0  0  0  0  0  0  0  0  0
   38.7039   31.6595   56.6016 C   0  0  0  0  0  0  0  0  0  0  0  0
   38.8401   30.3561   56.9531 C   0  0  0  0  0  0  0  0  0  0  0  0
   38.3952   32.4515   57.6447 C   0  0  0  0  0  0  0  0  0  0  0  0
   38.2043   32.1708   59.0180 C   0  0  0  0  0  0  0  0  0  0  0  0
   39.1331   29.3915   56.0543 C   0  0  0  0  0  0  0  0  0  0  0  0
   39.3024   29.8387   54.7839 C   0  0  0  0  0  0  0  0  0  0  0  0
   38.6317   30.0844   58.3640 C   0  0  0  0  0  0  0  0  0  0  0  0
   38.3420   30.8800   59.2963 N   0  0  0  0  0  0  0  0  0  0  0  0
   39.1730   31.0829   54.4291 C   0  0  0  0  0  0  0  0  0  0  0  0
  1  2  2  0
  2  3  1  0
  2  4  1  0
  4  5  2  0
  3  6  2  0
  6  7  1  0
  3  8  1  0
  5  9  1  0
  8  9  2  0
  1 10  1  0
  7 10  2  0
M  END
$$$$
Pocket2Mol_98
     RDKit          3D

 10 11  0  0  0  0  0  0  0  0999 V2000
   38.2337   31.8199   55.5505 C   0  0  0  0  0  0  0  0  0  0  0  0
   38.4772   32.0168   56.8231 O   0  0  0  0  0  0  0  0  0  0  0  0
   38.6444   30.5093   55.2367 O   0  0  0  0  0  0  0  0  0  0  0  0
   38.6538   31.0478   57.5848 C   0  0  0  0  0  0  0  0  0  0  0  0
   38.8088   29.9413   56.6978 C   0  0  0  0  0  0  0  0  0  0  0  0
   39.0534   28.6527   57.0554 C   0  0  0  0  0  0  0  0  0  0  0  0
   39.2320   28.4961   58.4040 C   0  0  0  0  0  0  0  0  0  0  0  0
   39.4717   27.1082   58.7486 C   0  0  0  0  0  0  0  0  0  0  0  0
   38.8209   30.7972   58.9085 C   0  0  0  0  0  0  0  0  0  0  0  0
   39.0609   29.4736   59.3006 C   0  0  0  0  0  0  0  0  0  0  0  0
  1  2  1  0
  1  3  1  0
  2  4  1  0
  3  5  1  0
  4  5  2  0
  5  6  1  0
  6  7  2  0
  7  8  1  0
  4  9  1  0
  7 10  1  0
  9 10  2  0
M  END
$$$$
Pocket2Mol_99
     RDKit          3D

  5  5  0  0  0  0  0  0  0  0999 V2000
   38.2337   31.8199   55.5505 C   0  0  0  0  0  0  0  0  0  0  0  0
   38.4772   32.0168   56.8231 O   0  0  0  0  0  0  0  0  0  0  0  0
   38.3513   31.1053   57.6727 C   0  0  0  0  0  0  0  0  0  0  0  0
   38.2103   30.5113   55.2142 C   0  0  0  0  0  0  0  0  0  0  0  0
   37.8330   30.0842   56.9869 C   0  0  0  0  0  0  0  0  0  0  0  0
  1  2  1  0
  2  3  1  0
  1  4  1  0
  3  5  1  0
  4  5  1  0
M  END
$$$$
