
     RDKit          3D

 21 22  0  0  0  0  0  0  0  0999 V2000
  -15.6396   -4.9808  145.7102 C   0  0  0  0  0  0  0  0  0  0  0  0
  -17.0290   -4.4938  145.3104 C   0  0  0  0  0  0  0  0  0  0  0  0
  -17.3131   -3.0000  145.5287 C   0  0  0  0  0  0  0  0  0  0  0  0
  -15.1039   -6.1726  144.9004 C   0  0  0  0  0  0  0  0  0  0  0  0
  -14.1793   -7.0347  145.7775 C   0  0  0  0  0  0  0  0  0  0  0  0
  -16.7980   -2.1193  144.3782 C   0  0  0  0  0  0  0  0  0  0  0  0
  -13.5562   -8.2928  145.0992 C   0  0  0  0  0  0  0  0  0  0  0  0
  -17.7650   -1.2026  142.2208 C   0  0  0  0  0  0  0  0  0  0  0  0
  -16.8418   -5.2931  146.5965 C   0  0  0  0  0  0  0  0  0  0  0  0
  -16.8485   -0.2846  141.8919 C   0  0  0  0  0  0  0  0  0  0  0  0
  -17.4245   -2.4573  142.9963 C   0  0  0  0  0  0  0  0  0  0  0  0
  -12.2321   -7.9890  144.3505 C   0  0  0  0  0  0  0  0  0  0  0  0
  -16.5095   -3.3609  142.1528 C   0  0  0  0  0  0  0  0  0  0  0  0
  -12.3551   -7.0606  143.1248 C   0  0  0  0  0  0  0  0  0  0  0  0
  -14.5532   -9.0547  144.2048 C   0  0  0  0  0  0  0  0  0  0  0  0
  -11.3836   -5.8760  143.0664 C   0  0  0  0  0  0  0  0  0  0  0  0
  -11.8045   -4.6654  142.2162 C   0  0  0  0  0  0  0  0  0  0  0  0
  -13.1139   -9.4195  146.4257 Cl  0  0  0  0  0  0  0  0  0  0  0  0
  -11.7752   -3.3667  143.0309 C   0  0  0  0  0  0  0  0  0  0  0  0
  -12.8297   -3.3517  144.1329 C   0  0  0  0  0  0  0  0  0  0  0  0
  -11.1180   -7.1201  142.2339 C   0  0  0  0  0  0  0  0  0  0  0  0
  2  1  1  0
  3  2  1  0
  4  1  1  0
  5  4  1  0
  6  3  1  0
  7  5  1  0
  9  1  1  0
  9  2  1  0
 10  8  2  0
 11  6  1  0
 11  8  1  0
 12  7  1  0
 13 11  1  0
 14 12  1  0
 15  7  1  0
 16 14  1  0
 17 16  1  0
 18  7  1  0
 19 17  1  0
 20 19  1  0
 21 14  1  0
 21 16  1  0
M  END
$$$$

     RDKit          3D

 21 21  0  0  0  0  0  0  0  0999 V2000
  -24.9676   -6.0279  133.1585 O   0  0  0  0  0  0  0  0  0  0  0  0
  -24.2872   -4.9461  132.5720 C   0  0  0  0  0  0  0  0  0  0  0  0
  -22.7436   -5.2299  132.6114 C   0  0  0  0  0  0  0  0  0  0  0  0
  -24.7734   -3.6329  133.2296 C   0  0  0  0  0  0  0  0  0  0  0  0
  -24.4904   -3.6220  134.8171 B   0  0  0  0  0  0  0  0  0  0  0  0
  -21.0991   -4.0630  131.7784 N   0  0  0  0  0  0  0  0  0  0  0  0
  -26.6242   -2.1832  132.9137 C   0  0  0  0  0  0  0  0  0  0  0  0
  -27.3558   -1.7466  134.1693 C   0  0  0  0  0  0  0  0  0  0  0  0
  -27.4686   -0.4198  134.4110 C   0  0  0  0  0  0  0  0  0  0  0  0
  -26.1730   -3.5270  133.0009 O   0  0  0  0  0  0  0  0  0  0  0  0
  -24.6806   -2.3934  135.5869 O   0  0  0  0  0  0  0  0  0  0  0  0
  -28.1522    0.1832  135.6160 C   0  0  0  0  0  0  0  0  0  0  0  0
  -21.7517   -4.1550  133.0855 C   0  0  0  0  0  0  0  0  0  0  0  0
  -27.9851   -2.7706  135.0916 C   0  0  0  0  0  0  0  0  0  0  0  0
  -29.6851    0.0104  135.5607 C   0  0  0  0  0  0  0  0  0  0  0  0
  -30.5610    2.3227  134.8395 C   0  0  0  0  0  0  0  0  0  0  0  0
  -29.3575    3.2270  134.7702 C   0  0  0  0  0  0  0  0  0  0  0  0
  -28.9027    4.1925  135.6289 C   0  0  0  0  0  0  0  0  0  0  0  0
  -30.4680    1.2735  135.9688 C   0  0  0  0  0  0  0  0  0  0  0  0
  -20.7769   -4.6585  134.1504 C   0  0  0  0  0  0  0  0  0  0  0  0
  -22.0425   -5.0554  131.2625 C   0  0  0  0  0  0  0  0  0  0  0  0
  2  1  1  0
  3  2  1  0
  4  2  1  0
  5  4  1  0
  8  7  1  0
  9  8  2  3
 10  4  1  0
 10  7  1  0
 11  5  1  0
 12  9  1  0
 13  3  1  0
 13  6  1  0
 14  8  1  0
 15 12  1  0
 17 16  1  0
 18 17  2  0
 19 15  1  0
 19 16  1  0
 20 13  1  0
 21  3  1  0
 21  6  1  0
M  END
$$$$

     RDKit          3D

 21 21  0  0  0  0  0  0  0  0999 V2000
  -25.9932    0.3512  140.9691 C   0  0  0  0  0  0  0  0  0  0  0  0
  -22.8054   -0.0155  139.1699 As  0  0  0  0  0  3  0  0  0  0  0  0
  -24.1602    2.1435  138.8101 O   0  0  0  0  0  0  0  0  0  0  0  0
  -22.4936   -0.8879  141.7694 O   0  0  0  0  0  0  0  0  0  0  0  0
  -25.6802   -0.3030  142.3403 C   0  0  0  0  0  0  0  0  0  0  0  0
  -26.8618   -0.4232  144.5822 C   0  0  0  0  0  0  0  0  0  0  0  0
  -25.3622   -0.7766  138.2653 O   0  0  0  0  0  0  0  0  0  0  0  0
  -26.1441   -1.4193  145.4922 C   0  0  0  0  0  0  0  0  0  0  0  0
  -23.5971   -2.8876  138.0963 O   0  0  0  0  0  0  0  0  0  0  0  0
  -25.4345   -2.5486  144.7449 C   0  0  0  0  0  0  0  0  0  0  0  0
  -25.9252    0.4030  143.6887 C   0  0  0  0  0  0  0  0  0  0  0  0
  -23.0424    1.8068  139.4252 O   0  0  0  0  0  0  0  0  0  0  0  0
  -23.5640   -0.7014  140.8750 C   0  0  0  0  0  0  0  0  0  0  0  0
  -28.0344    1.6562  141.0886 O   0  0  0  0  0  0  0  0  0  0  0  0
  -24.2005   -1.9192  140.5832 O   0  0  0  0  0  0  0  0  0  0  0  0
  -23.9244    3.3556  138.3559 O   0  0  0  0  0  0  0  0  0  0  0  0
  -26.8126    1.6489  141.1052 C   0  0  0  0  0  0  0  0  0  0  0  0
  -24.5479    0.3118  141.5293 C   0  0  0  0  0  0  0  0  0  0  0  0
  -26.2130   -0.6918  137.2545 O   0  0  0  0  0  0  0  0  0  0  0  0
  -24.0753   -0.5716  137.7369 C   0  0  0  0  0  0  0  0  0  0  0  0
  -23.5605   -1.8747  137.1284 C   0  0  0  0  0  0  0  0  0  0  0  0
  5  1  1  0
  8  6  1  0
 10  8  1  0
 11  5  1  0
 11  6  1  0
 12  2  1  0
 12  3  1  0
 13  2  1  0
 13  4  1  0
 15 13  1  0
 16  3  1  0
 17  1  1  0
 17 14  2  0
 18  1  1  0
 18  5  1  0
 18 13  1  0
 19  7  1  0
 20  2  1  0
 20  7  1  0
 21  9  1  0
 21 20  1  0
M  END
$$$$

     RDKit          3D

 21 23  0  0  0  0  0  0  0  0999 V2000
  -24.6153   -7.3237  145.2620 C   0  0  0  0  0  0  0  0  0  0  0  0
  -26.4171   -7.8031  143.3851 C   0  0  0  0  0  0  0  0  0  0  0  0
  -24.1244   -8.4035  144.3670 C   0  0  0  0  0  0  0  0  0  0  0  0
  -25.3291   -7.8813  142.3640 C   0  0  0  0  0  0  0  0  0  0  0  0
  -24.3827   -8.5799  147.4463 C   0  0  0  0  0  0  0  0  0  0  0  0
  -25.0098   -7.2853  143.7457 C   0  0  0  0  0  0  0  0  0  0  0  0
  -26.7478   -8.5362  146.3050 C   0  0  0  0  0  0  0  0  0  0  0  0
  -24.3966   -8.1054  148.9147 C   0  0  0  0  0  0  0  0  0  0  0  0
  -25.3922   -7.7931  146.5472 C   0  0  0  0  0  0  0  0  0  0  0  0
  -27.6291   -8.7569  147.4955 N   0  0  0  0  0  0  0  0  0  0  0  0
  -29.0764   -8.7655  147.0748 C   0  0  0  0  0  0  0  0  0  0  0  0
  -30.0074   -9.2067  148.1300 N   0  0  0  0  0  0  0  0  0  0  0  0
  -29.3141   -9.6044  145.8720 N   0  0  0  0  0  0  0  0  0  0  0  0
  -27.7716  -11.5493  147.3292 Si  0  0  0  0  0  4  0  0  0  0  0  0
  -28.8658  -11.0148  145.8710 C   0  0  0  0  0  0  0  0  0  0  0  0
  -30.1754   -8.3796  149.3384 C   0  0  0  0  0  0  0  0  0  0  0  0
  -27.2940   -9.9865  148.2542 C   0  0  0  0  0  0  0  0  0  0  0  0
  -30.5409   -9.2501  150.4534 N   0  0  0  0  0  2  0  0  0  0  0  0
  -30.0822  -11.9234  145.7468 C   0  0  0  0  0  0  0  0  0  0  0  0
  -28.9655   -7.6420  149.6964 N   0  0  0  0  0  2  0  0  0  0  0  0
  -23.8559   -9.1534  149.8837 C   0  0  0  0  0  0  0  0  0  0  0  0
  3  1  1  0
  4  2  1  0
  6  1  1  0
  6  2  1  0
  6  3  1  0
  6  4  1  0
  8  5  1  0
  9  1  1  0
  9  5  1  0
  9  7  1  0
 10  7  1  0
 11 10  1  0
 12 11  1  0
 13 11  1  0
 15 13  1  0
 15 14  1  0
 16 12  1  0
 17 10  1  0
 17 14  1  0
 18 16  1  0
 19 15  1  0
 20 16  1  0
 21  8  1  0
M  RAD  2  18   2  20   2
M  END
$$$$

     RDKit          3D

 21 27  0  0  0  0  0  0  0  0999 V2000
  -28.4311   -4.8106  145.2345 C   0  0  0  0  0  0  0  0  0  0  0  0
  -29.7505   -5.2545  144.6120 C   0  0  0  0  0  0  0  0  0  0  0  0
  -30.9894   -4.7351  145.3258 C   0  0  0  0  0  0  0  0  0  0  0  0
  -31.8701   -3.9577  144.6682 C   0  0  0  0  0  0  0  0  0  0  0  0
  -28.8926   -6.2523  145.3810 C   0  0  0  0  0  0  0  0  0  0  0  0
  -31.5976   -3.5632  143.2281 C   0  0  0  0  0  0  0  0  0  0  0  0
  -31.0963   -4.8893  142.4880 C   0  0  0  0  0  0  0  0  0  0  0  0
  -31.3688   -5.3383  140.9870 C   0  0  0  0  0  0  0  0  0  0  0  0
  -30.6565   -2.2973  143.3388 C   0  0  0  0  0  0  0  0  0  0  0  0
  -28.3183   -0.9217  141.1575 C   0  0  0  0  0  0  0  0  0  0  0  0
  -27.9639   -1.0892  139.6306 C   0  0  0  0  0  0  0  0  0  0  0  0
  -32.2102   -4.4148  140.1203 C   0  0  0  0  0  0  0  0  0  0  0  0
  -29.7594   -5.3876  143.0616 C   0  0  0  0  0  0  0  0  0  0  0  0
  -30.7906   -4.7805  139.6663 C   0  0  0  0  0  0  0  0  0  0  0  0
  -30.0076   -1.9370  142.0185 C   0  0  0  0  0  0  0  0  0  0  0  0
  -29.7521   -0.5102  141.5365 C   0  0  0  0  0  0  0  0  0  0  0  0
  -28.7857   -1.9300  138.5794 C   0  0  0  0  0  0  0  0  0  0  0  0
  -30.0422   -2.5838  139.0355 C   0  0  0  0  0  0  0  0  0  0  0  0
  -29.7701   -3.7681  139.8756 N   0  0  0  0  0  0  0  0  0  0  0  0
  -28.8882   -3.4614  138.7316 C   0  0  0  0  0  0  0  0  0  0  0  0
  -28.4944   -2.2236  141.9172 C   0  0  0  0  0  0  0  0  0  0  0  0
  2  1  1  0
  3  2  1  0
  4  3  2  0
  5  1  1  0
  5  2  1  0
  6  4  1  0
  7  6  1  0
  8  7  1  0
  9  6  1  0
 11 10  1  0
 12  8  1  0
 13  2  1  0
 13  7  1  0
 14  8  1  0
 14 12  1  0
 15  9  1  0
 16 10  1  0
 16 15  1  0
 17 11  1  0
 18 17  1  0
 19 14  1  0
 19 18  1  0
 20 17  1  0
 20 18  1  0
 20 19  1  0
 21 10  1  0
 21 15  1  0
M  END
$$$$

     RDKit          3D

 21 24  0  0  0  0  0  0  0  0999 V2000
  -30.9157  -16.8398  137.6100 C   0  0  0  0  0  0  0  0  0  0  0  0
  -31.1349  -15.9688  138.7493 C   0  0  0  0  0  0  0  0  0  0  0  0
  -31.4637  -16.6305  140.1783 C   0  0  0  0  0  0  0  0  0  0  0  0
  -29.6649  -16.2317  138.2739 C   0  0  0  0  0  0  0  0  0  0  0  0
  -33.0478  -16.5940  140.3055 C   0  0  0  0  0  0  0  0  0  0  0  0
  -33.8835  -16.7672  141.6608 C   0  0  0  0  0  0  0  0  0  0  0  0
  -33.5841  -17.9029  140.7629 C   0  0  0  0  0  0  0  0  0  0  0  0
  -27.5668  -14.8293  138.6283 C   0  0  0  0  0  0  0  0  0  0  0  0
  -27.1671  -14.3549  140.0947 C   0  0  0  0  0  0  0  0  0  0  0  0
  -25.7565  -13.7976  140.2453 C   0  0  0  0  0  0  0  0  0  0  0  0
  -27.6778  -13.0057  140.5970 C   0  0  0  0  0  0  0  0  0  0  0  0
  -29.1218  -14.8090  138.5515 C   0  0  0  0  0  0  0  0  0  0  0  0
  -30.3657  -17.7931  140.4879 C   0  0  0  0  0  0  0  0  0  0  0  0
  -26.2746  -12.4785  140.7593 C   0  0  0  0  0  0  0  0  0  0  0  0
  -34.1151  -18.2001  142.1562 C   0  0  0  0  0  0  0  0  0  0  0  0
  -31.5291  -20.0869  140.8988 C   0  0  0  0  0  0  0  0  0  0  0  0
  -32.1492  -21.1680  141.8462 C   0  0  0  0  0  0  0  0  0  0  0  0
  -31.3816  -22.4744  142.3080 C   0  0  0  0  0  0  0  0  0  0  0  0
  -30.8655  -18.8499  141.5572 C   0  0  0  0  0  0  0  0  0  0  0  0
  -31.6936  -23.1359  144.0265 Cl  0  0  0  0  0  0  0  0  0  0  0  0
  -35.4258  -18.7045  142.1508 O   0  0  0  0  0  0  0  0  0  0  0  0
  2  1  1  0
  3  2  1  0
  4  1  1  0
  4  2  1  0
  5  3  1  0
  6  5  1  0
  7  5  1  0
  7  6  1  0
  9  8  1  0
 10  9  1  0
 11  9  1  0
 12  4  1  0
 12  8  1  0
 13  3  1  0
 14 10  1  0
 14 11  1  0
 15  6  1  0
 15  7  1  0
 17 16  1  0
 18 17  1  0
 19 13  1  0
 19 16  1  0
 20 18  1  0
 21 15  1  0
M  END
$$$$

     RDKit          3D

 21 23  0  0  0  0  0  0  0  0999 V2000
  -27.3473  -23.0226  138.9961 O   0  0  0  0  0  0  0  0  0  0  0  0
  -27.6661  -21.8180  138.8046 C   0  0  0  0  0  0  0  0  0  0  0  0
  -27.3165  -20.4360  138.3962 O   0  0  0  0  0  0  0  0  0  0  0  0
  -28.5871  -20.7659  138.8310 C   0  0  0  0  0  0  0  0  0  0  0  0
  -29.4774  -19.8417  137.9771 C   0  0  0  0  0  0  0  0  0  0  0  0
  -30.5327  -19.3162  138.7411 O   0  0  0  0  0  0  0  0  0  0  0  0
  -29.5777  -21.2927  137.7231 C   0  0  0  0  0  0  0  0  0  0  0  0
  -29.1115  -21.6307  136.2737 C   0  0  0  0  0  0  0  0  0  0  0  0
  -29.1053  -23.1500  136.0367 C   0  0  0  0  0  0  0  0  0  0  0  0
  -28.7998  -23.6295  134.5898 C   0  0  0  0  0  0  0  0  0  0  0  0
  -27.4953  -23.0566  133.9322 C   0  0  0  0  0  0  0  0  0  0  0  0
  -30.0289  -23.5036  133.6779 C   0  0  0  0  0  0  0  0  0  0  0  0
  -27.7209  -21.6483  133.3130 C   0  0  0  0  0  0  0  0  0  0  0  0
  -26.3236  -23.0338  134.8908 C   0  0  0  0  0  0  0  0  0  0  0  0
  -26.6048  -21.0779  132.4409 C   0  0  0  0  0  0  0  0  0  0  0  0
  -26.3265  -18.9815  131.0595 C   0  0  0  0  0  0  0  0  0  0  0  0
  -27.8730  -21.6147  131.7921 C   0  0  0  0  0  0  0  0  0  0  0  0
  -25.3560  -19.1073  133.2934 N   0  0  0  0  0  0  0  0  0  0  0  0
  -25.2880  -19.2528  130.3453 N   0  0  0  0  0  0  0  0  0  0  0  0
  -26.4817  -19.5354  132.4579 C   0  0  0  0  0  0  0  0  0  0  0  0
  -25.8280  -24.1583  135.4119 C   0  0  0  0  0  0  0  0  0  0  0  0
  2  1  2  0
  3  2  1  0
  4  2  1  0
  4  3  1  0
  5  4  1  0
  6  5  1  0
  7  4  1  0
  7  5  1  0
  8  7  1  0
  9  8  1  0
 10  9  1  0
 11 10  1  0
 12 10  1  0
 13 11  1  0
 14 11  1  0
 15 13  1  0
 17 13  1  0
 17 15  1  0
 19 16  2  0
 20 15  1  0
 20 16  1  0
 20 18  1  0
 21 14  2  0
M  END
$$$$

     RDKit          3D

 20 20  0  0  0  0  0  0  0  0999 V2000
  -18.2749    2.8670  143.4225 O   0  0  0  0  0  0  0  0  0  0  0  0
  -19.5044    2.5082  144.0052 C   0  0  0  0  0  0  0  0  0  0  0  0
  -20.4501    1.8876  143.0142 C   0  0  0  0  0  0  0  0  0  0  0  0
  -21.0451    2.6227  141.8459 C   0  0  0  0  0  0  0  0  0  0  0  0
  -20.6423    2.0085  140.5313 C   0  0  0  0  0  0  0  0  0  0  0  0
  -19.3522    1.3996  145.0015 C   0  0  0  0  0  0  0  0  0  0  0  0
  -21.1878    0.8658  140.0910 C   0  0  0  0  0  0  0  0  0  0  0  0
  -20.8108    0.6809  143.4220 C   0  0  0  0  0  0  0  0  0  0  0  0
  -20.1221    0.3795  144.6652 C   0  0  0  0  0  0  0  0  0  0  0  0
  -20.8924    0.3123  138.7234 C   0  0  0  0  0  0  0  0  0  0  0  0
  -19.4850   -0.2995  138.5817 C   0  0  0  0  0  0  0  0  0  0  0  0
  -19.0964   -1.5104  140.8862 C   0  0  0  0  0  0  0  0  0  0  0  0
  -18.0816   -0.4516  141.3585 C   0  0  0  0  0  0  0  0  0  0  0  0
  -16.6130   -0.7786  140.9693 C   0  0  0  0  0  0  0  0  0  0  0  0
  -15.7539    0.5068  140.9660 C   0  0  0  0  0  0  0  0  0  0  0  0
  -14.3291    0.8835  138.8432 C   0  0  0  0  0  0  0  0  0  0  0  0
  -14.3893    0.3041  140.2725 C   0  0  0  0  0  0  0  0  0  0  0  0
  -19.2698   -1.6224  139.3520 C   0  0  0  0  0  0  0  0  0  0  0  0
  -16.0119   -1.7514  141.8952 N   0  0  0  0  0  0  0  0  0  0  0  0
  -15.2330    0.1460  137.8592 C   0  0  0  0  0  0  0  0  0  0  0  0
  2  1  1  0
  3  2  1  0
  4  3  1  0
  5  4  1  0
  6  2  1  0
  7  5  2  3
  8  3  2  0
  9  6  2  0
  9  8  1  0
 10  7  1  0
 11 10  1  0
 13 12  1  0
 14 13  1  0
 15 14  1  0
 17 15  1  0
 17 16  1  0
 18 11  1  0
 18 12  1  0
 19 14  1  0
 20 16  1  0
M  END
$$$$

     RDKit          3D

 21 26  0  0  0  0  0  0  0  0999 V2000
  -28.6915   -0.7156  144.9373 N   0  0  0  0  0  0  0  0  0  0  0  0
  -27.3296   -1.1521  145.3273 C   0  0  0  0  0  0  0  0  0  0  0  0
  -26.8791   -2.3267  144.5267 N   0  0  0  0  0  0  0  0  0  0  0  0
  -25.4559   -2.6558  144.8013 C   0  0  0  0  0  0  0  0  0  0  0  0
  -25.3960   -3.7889  145.7473 N   0  0  0  0  0  0  0  0  0  0  0  0
  -27.3125   -1.4665  146.7694 N   0  0  0  0  0  0  0  0  0  0  0  0
  -29.5665   -0.8726  146.0962 C   0  0  0  0  0  0  0  0  0  0  0  0
  -28.6989   -1.3268  147.2453 C   0  0  0  0  0  0  0  0  0  0  0  0
  -24.0428   -4.2351  146.1840 C   0  0  0  0  0  0  0  0  0  0  0  0
  -27.0942   -2.1229  143.0809 C   0  0  0  0  0  0  0  0  0  0  0  0
  -28.1290   -2.6600  147.1135 C   0  0  0  0  0  0  0  0  0  0  0  0
  -28.8031    0.6179  144.2821 C   0  0  0  0  0  0  0  0  0  0  0  0
  -27.8786    1.7492  144.8407 C   0  0  0  0  0  0  0  0  0  0  0  0
  -28.6580    2.9991  145.2737 C   0  0  0  0  0  0  0  0  0  0  0  0
  -23.3388   -3.1196  146.9773 C   0  0  0  0  0  0  0  0  0  0  0  0
  -22.8132   -3.5441  145.6209 C   0  0  0  0  0  0  0  0  0  0  0  0
  -26.6163    2.1145  144.0054 C   0  0  0  0  0  0  0  0  0  0  0  0
  -21.6483   -4.3050  145.7563 O   0  0  0  0  0  0  0  0  0  0  0  0
  -25.3421    2.3256  144.8290 C   0  0  0  0  0  0  0  0  0  0  0  0
  -27.9696    2.1471  146.3200 C   0  0  0  0  0  0  0  0  0  0  0  0
  -24.8334   -3.3642  147.0514 C   0  0  0  0  0  0  0  0  0  0  0  0
  2  1  1  0
  3  2  1  0
  4  3  1  0
  5  4  1  0
  6  2  1  0
  7  1  1  0
  8  6  1  0
  8  7  1  0
  9  5  1  0
 10  3  1  0
 11  6  1  0
 11  8  1  0
 12  1  1  0
 13 12  1  0
 14 13  1  0
 15  9  1  0
 16  9  1  0
 16 15  1  0
 17 13  1  0
 18 16  1  0
 19 17  1  0
 20 13  1  0
 20 14  1  0
 21  5  1  0
 21  9  1  0
 21 15  1  0
M  END
$$$$

     RDKit          3D

 21 22  0  0  0  0  0  0  0  0999 V2000
  -13.8475  -21.6115  136.4179 C   0  0  0  0  0  0  0  0  0  0  0  0
  -16.0337  -21.2682  137.8516 C   0  0  0  0  0  0  0  0  0  0  0  0
  -13.1920  -23.1101  138.2410 O   0  0  0  0  0  0  0  0  0  0  0  0
  -14.6440  -20.7549  137.4570 C   0  0  0  0  0  0  0  0  0  0  0  0
  -12.6433  -20.9023  136.2077 O   0  0  0  0  0  0  0  0  0  0  0  0
  -14.5856  -24.1710  136.6265 C   0  0  0  0  0  0  0  0  0  0  0  0
  -15.8540  -23.9574  135.7842 C   0  0  0  0  0  0  0  0  0  0  0  0
  -16.5823  -20.4982  139.0538 C   0  0  0  0  0  0  0  0  0  0  0  0
  -17.1088  -24.5844  136.4434 C   0  0  0  0  0  0  0  0  0  0  0  0
  -13.4960  -23.0902  136.8675 C   0  0  0  0  0  0  0  0  0  0  0  0
  -18.3912  -23.9446  135.8845 C   0  0  0  0  0  0  0  0  0  0  0  0
  -19.7380  -24.5182  136.3664 C   0  0  0  0  0  0  0  0  0  0  0  0
  -19.8260  -25.8024  137.2326 C   0  0  0  0  0  0  0  0  0  0  0  0
  -12.2426  -23.5652  136.0685 C   0  0  0  0  0  0  0  0  0  0  0  0
  -19.7544  -25.4931  138.7359 C   0  0  0  0  0  0  0  0  0  0  0  0
  -21.0489  -24.9239  139.2622 C   0  0  0  0  0  0  0  0  0  0  0  0
  -21.5448  -23.7379  138.8861 C   0  0  0  0  0  0  0  0  0  0  0  0
  -20.8988  -22.8360  137.8827 C   0  0  0  0  0  0  0  0  0  0  0  0
  -19.2491  -24.7839  134.9407 C   0  0  0  0  0  0  0  0  0  0  0  0
  -14.3373  -25.4120  137.1103 C   0  0  0  0  0  0  0  0  0  0  0  0
  -20.8688  -23.4795  136.4824 C   0  0  0  0  0  0  0  0  0  0  0  0
  4  1  1  0
  4  2  1  0
  5  1  1  0
  7  6  1  0
  8  2  1  0
  9  7  1  0
 10  1  1  0
 10  3  1  0
 10  6  1  0
 11  9  1  0
 12 11  1  0
 13 12  1  0
 14 10  1  0
 15 13  1  0
 16 15  1  0
 17 16  2  0
 18 17  1  0
 19 11  1  0
 19 12  1  0
 20  6  2  0
 21 12  1  0
 21 18  1  0
M  END
$$$$

     RDKit          3D

 11 13  0  0  0  0  0  0  0  0999 V2000
  -27.8881   -7.7562  152.2238 C   0  0  0  0  0  0  0  0  0  0  0  0
  -28.1159   -6.6009  151.2459 C   0  0  0  0  0  0  0  0  0  0  0  0
  -27.3439   -6.7229  149.9432 C   0  0  0  0  0  0  0  0  0  0  0  0
  -28.0614   -6.1473  148.6945 C   0  0  0  0  0  0  0  0  0  0  0  0
  -28.6330   -4.7326  148.8175 C   0  0  0  0  0  0  0  0  0  0  0  0
  -26.8912   -5.7166  151.0435 C   0  0  0  0  0  0  0  0  0  0  0  0
  -25.8833   -6.3122  150.0771 C   0  0  0  0  0  0  0  0  0  0  0  0
  -27.5915   -3.7821  149.3967 C   0  0  0  0  0  0  0  0  0  0  0  0
  -27.2185   -4.2147  150.8260 C   0  0  0  0  0  0  0  0  0  0  0  0
  -28.8874   -8.8775  151.9647 C   0  0  0  0  0  0  0  0  0  0  0  0
  -28.1170   -2.3411  149.3931 C   0  0  0  0  0  0  0  0  0  0  0  0
  2  1  1  0
  3  2  1  0
  4  3  1  0
  5  4  1  0
  6  2  1  0
  6  3  1  0
  7  3  1  0
  7  6  1  0
  8  5  1  0
  9  6  1  0
  9  8  1  0
 10  1  1  0
 11  8  1  0
M  END
$$$$

     RDKit          3D

 21 22  0  0  0  0  0  0  0  0999 V2000
  -23.6227  -22.1594  136.6651 N   0  0  0  0  0  0  0  0  0  0  0  0
  -22.6880  -20.1426  135.9392 C   0  0  0  0  0  0  0  0  0  0  0  0
  -21.2784  -20.4753  136.1354 N   0  0  0  0  0  0  0  0  0  0  0  0
  -20.4286  -20.8925  135.0570 C   0  0  0  0  0  0  0  0  0  0  0  0
  -23.4439  -21.3318  135.5397 N   0  0  0  0  0  0  0  0  0  0  0  0
  -20.9479  -21.1670  133.8960 N   0  0  0  0  0  0  0  0  0  0  0  0
  -20.2882  -21.5756  132.6823 C   0  0  0  0  0  0  0  0  0  0  0  0
  -19.0120  -20.8295  135.2333 N   0  0  0  0  0  0  0  0  0  0  0  0
  -18.2028  -22.0505  135.3458 C   0  0  0  0  0  0  0  0  0  0  0  0
  -19.1586  -21.0944  132.1244 C   0  0  0  0  0  0  0  0  0  0  0  0
  -18.4249  -19.9364  132.6276 O   0  0  0  0  0  0  0  0  0  0  0  0
  -18.4408  -22.7611  136.6863 C   0  0  0  0  0  0  0  0  0  0  0  0
  -18.7891  -18.9475  133.6981 C   0  0  0  0  0  0  0  0  0  0  0  0
  -18.4011  -19.5116  135.0630 C   0  0  0  0  0  0  0  0  0  0  0  0
  -19.5828  -23.7855  136.6000 C   0  0  0  0  0  0  0  0  0  0  0  0
  -19.6991  -24.5721  137.8830 C   0  0  0  0  0  0  0  0  0  0  0  0
  -20.3074  -24.1158  138.9923 C   0  0  0  0  0  0  0  0  0  0  0  0
  -20.9738  -22.7653  139.0657 C   0  0  0  0  0  0  0  0  0  0  0  0
  -20.2428  -21.7459  139.9337 C   0  0  0  0  0  0  0  0  0  0  0  0
  -21.5305  -22.3931  140.4348 C   0  0  0  0  0  0  0  0  0  0  0  0
  -22.7842  -21.5188  140.3804 C   0  0  0  0  0  0  0  0  0  0  0  0
  3  2  1  0
  4  3  1  0
  5  1  1  0
  5  2  1  0
  6  4  2  3
  7  6  1  0
  8  4  1  0
  9  8  1  0
 10  7  2  3
 11 10  1  0
 12  9  1  0
 13 11  1  0
 14  8  1  0
 14 13  1  0
 15 12  1  0
 16 15  1  0
 17 16  2  3
 18 17  1  0
 19 18  1  0
 20 18  1  0
 20 19  1  0
 21 20  1  0
M  END
$$$$

     RDKit          3D

 20 24  0  0  0  0  0  0  0  0999 V2000
  -27.5946  -18.0987  136.5985 C   0  0  0  0  0  0  0  0  0  0  0  0
  -27.2561  -19.0523  137.7287 N   0  0  0  0  0  0  0  0  0  0  0  0
  -29.7616  -15.3918  138.6184 O   0  0  0  0  0  0  0  0  0  0  0  0
  -24.9278  -21.0389  134.9957 N   0  0  0  0  0  0  0  0  0  0  0  0
  -23.9979  -23.0683  132.7625 O   0  0  0  0  0  0  0  0  0  0  0  0
  -23.2602  -20.9707  134.2954 P   0  0  0  0  0  0  0  0  0  0  0  0
  -22.4189  -21.0997  135.8224 O   0  0  0  0  0  0  0  0  0  0  0  0
  -25.7133  -19.8486  134.6250 C   0  0  0  0  0  0  0  0  0  0  0  0
  -21.1383  -20.5638  135.6362 C   0  0  0  0  0  0  0  0  0  0  0  0
  -27.0807  -20.1582  134.7084 O   0  0  0  0  0  0  0  0  0  0  0  0
  -28.2800  -18.3195  138.5960 C   0  0  0  0  0  0  0  0  0  0  0  0
  -27.2629  -17.6434  137.8907 C   0  0  0  0  0  0  0  0  0  0  0  0
  -23.1978  -22.7956  133.8843 C   0  0  0  0  0  0  0  0  0  0  0  0
  -21.8760  -23.2318  133.6741 O   0  0  0  0  0  0  0  0  0  0  0  0
  -28.6878  -15.7683  137.8004 C   0  0  0  0  0  0  0  0  0  0  0  0
  -28.4284  -14.7797  136.6621 C   0  0  0  0  0  0  0  0  0  0  0  0
  -27.4998  -14.8136  137.8778 C   0  0  0  0  0  0  0  0  0  0  0  0
  -28.6082  -17.2850  137.4600 C   0  0  0  0  0  0  0  0  0  0  0  0
  -25.3352  -18.6078  135.4897 C   0  0  0  0  0  0  0  0  0  0  0  0
  -26.4661  -17.5782  135.6757 C   0  0  0  0  0  0  0  0  0  0  0  0
  2  1  1  0
  6  4  1  0
  7  6  1  0
  8  4  1  0
  9  7  1  0
 10  8  1  0
 11  2  1  0
 12  1  1  0
 12  2  1  0
 12 11  1  0
 13  5  1  0
 13  6  1  0
 14 13  1  0
 15  3  1  0
 16 15  1  0
 17 15  1  0
 17 16  1  0
 18  1  1  0
 18 11  1  0
 18 12  1  0
 18 15  1  0
 19  8  1  0
 20  1  1  0
 20 19  1  0
M  END
$$$$

     RDKit          3D

 21 24  0  0  0  0  0  0  0  0999 V2000
  -22.5758   -3.0648  138.0092 C   0  0  0  0  0  0  0  0  0  0  0  0
  -22.9598   -1.0910  137.2073 C   0  0  0  0  0  0  0  0  0  0  0  0
  -21.9517   -2.2110  136.9187 C   0  0  0  0  0  0  0  0  0  0  0  0
  -23.5867   -1.9604  138.3195 C   0  0  0  0  0  0  0  0  0  0  0  0
  -26.1075   -1.7962  138.7124 C   0  0  0  0  0  0  0  0  0  0  0  0
  -27.1009    0.0338  140.1632 C   0  0  0  0  0  0  0  0  0  0  0  0
  -24.9623   -2.3966  137.9619 N   0  0  0  0  0  0  0  0  0  0  0  0
  -22.2646    0.2203  137.6711 C   0  0  0  0  0  0  0  0  0  0  0  0
  -23.0403    1.5122  137.3202 C   0  0  0  0  0  0  0  0  0  0  0  0
  -25.5782   -3.0990  139.1167 C   0  0  0  0  0  0  0  0  0  0  0  0
  -27.7057   -0.3253  141.5084 C   0  0  0  0  0  0  0  0  0  0  0  0
  -27.3887   -2.4620  141.7561 O   0  0  0  0  0  0  0  0  0  0  0  0
  -25.7958   -0.5824  139.6055 C   0  0  0  0  0  0  0  0  0  0  0  0
  -24.5958    0.1778  133.4877 N   0  0  0  0  0  0  0  0  0  0  0  0
  -23.3445    1.6682  135.8116 C   0  0  0  0  0  0  0  0  0  0  0  0
  -25.1540    1.4115  134.0313 C   0  0  0  0  0  0  0  0  0  0  0  0
  -24.8553    1.5355  135.5300 C   0  0  0  0  0  0  0  0  0  0  0  0
  -26.9640   -1.2968  142.2025 O   0  0  0  0  0  0  0  0  0  0  0  0
  -27.4410    0.9988  142.0444 N   0  0  0  0  0  0  0  0  0  0  0  0
  -26.8203    1.3595  140.7664 C   0  0  0  0  0  0  0  0  0  0  0  0
  -27.6694    1.2548  139.5646 N   0  0  0  0  0  0  0  0  0  0  0  0
  3  1  1  0
  3  2  1  0
  4  1  1  0
  4  2  1  0
  7  4  1  0
  7  5  1  0
  8  2  1  0
  9  8  1  0
 10  5  1  0
 10  7  1  0
 11  6  1  0
 13  5  1  0
 13  6  1  0
 15  9  1  0
 16 14  1  0
 17 15  1  0
 17 16  1  0
 18 11  1  0
 18 12  1  0
 19 11  1  0
 20  6  1  0
 20 19  1  0
 21  6  1  0
 21 20  1  0
M  END
$$$$

     RDKit          3D

 21 23  0  0  0  0  0  0  0  0999 V2000
  -26.8491   -0.1516  143.3905 N   0  0  0  0  0  0  0  0  0  0  0  0
  -27.7880   -0.5097  144.2750 C   0  0  0  0  0  0  0  0  0  0  0  0
  -27.5484   -0.5944  145.5795 N   0  0  0  0  0  2  0  0  0  0  0  0
  -28.0977    0.2801  146.4516 C   0  0  0  0  0  0  0  0  0  0  0  0
  -28.8281   -1.1682  143.7123 N   0  0  0  0  0  0  0  0  0  0  0  0
  -28.6770    1.4128  146.0184 N   0  0  0  0  0  0  0  0  0  0  0  0
  -28.5482   -1.0088  146.2889 N   0  0  0  0  0  2  0  0  0  0  0  0
  -29.6706   -0.5623  142.7265 C   0  0  0  0  0  0  0  0  0  0  0  0
  -30.1164    0.7858  143.1670 C   0  0  0  0  0  0  0  0  0  0  0  0
  -30.1030    1.6505  146.0811 C   0  0  0  0  0  0  0  0  0  0  0  0
  -30.7238    0.9067  147.2206 C   0  0  0  0  0  0  0  0  0  0  0  0
  -31.9639    0.2322  147.0549 C   0  0  0  0  0  0  0  0  0  0  0  0
  -30.0198    0.4783  148.3955 C   0  0  0  0  0  0  0  0  0  0  0  0
  -31.9933   -0.8180  146.1081 C   0  0  0  0  0  0  0  0  0  0  0  0
  -31.2524   -0.1777  148.1882 C   0  0  0  0  0  0  0  0  0  0  0  0
  -31.3563   -2.0022  146.5031 C   0  0  0  0  0  0  0  0  0  0  0  0
  -32.0313   -3.2263  146.7008 C   0  0  0  0  0  0  0  0  0  0  0  0
  -31.5448   -2.4007  145.6688 C   0  0  0  0  0  0  0  0  0  0  0  0
  -31.0532    0.7198  144.3116 C   0  0  0  0  0  0  0  0  0  0  0  0
  -30.1358    1.1788  145.3845 C   0  0  0  0  0  0  0  0  0  0  0  0
  -29.5904    0.9650  142.6645 C   0  0  0  0  0  0  0  0  0  0  0  0
  2  1  1  0
  3  2  1  0
  4  3  1  0
  5  2  1  0
  6  4  1  0
  7  4  1  0
  8  5  1  0
  9  8  1  0
 10  6  1  0
 11 10  1  0
 12 11  1  0
 13 11  1  0
 14 12  1  0
 15 11  1  0
 15 12  1  0
 15 13  1  0
 16 14  1  0
 18 16  1  0
 18 17  1  0
 19  9  1  0
 20 10  1  0
 20 19  1  0
 21  9  2  0
M  RAD  2   3   2   7   2
M  END
$$$$

     RDKit          3D

 21 26  0  0  0  0  0  0  0  0999 V2000
  -19.9803   -8.6219  142.2922 C   0  0  0  0  0  0  0  0  0  0  0  0
  -18.7411   -8.3995  143.1407 C   0  0  0  0  0  0  0  0  0  0  0  0
  -18.7042   -7.0615  143.7362 N   0  0  0  0  0  0  0  0  0  0  0  0
  -17.4579   -8.6842  142.4029 C   0  0  0  0  0  0  0  0  0  0  0  0
  -18.6746   -8.3023  141.5849 C   0  0  0  0  0  0  0  0  0  0  0  0
  -21.0339   -7.5005  142.2035 C   0  0  0  0  0  0  0  0  0  0  0  0
  -22.1294   -7.8181  141.1581 C   0  0  0  0  0  0  0  0  0  0  0  0
  -23.3082   -6.8035  141.2644 C   0  0  0  0  0  0  0  0  0  0  0  0
  -24.5351   -7.2659  142.0991 C   0  0  0  0  0  0  0  0  0  0  0  0
  -25.3252   -8.4262  141.4263 C   0  0  0  0  0  0  0  0  0  0  0  0
  -26.6021   -7.9609  140.7096 C   0  0  0  0  0  0  0  0  0  0  0  0
  -26.2963   -7.0977  139.4816 C   0  0  0  0  0  0  0  0  0  0  0  0
  -27.5239   -6.6795  138.8436 N   0  0  0  0  0  0  0  0  0  0  0  0
  -24.1617   -7.6142  143.5463 C   0  0  0  0  0  0  0  0  0  0  0  0
  -21.5095   -7.7389  139.7419 C   0  0  0  0  0  0  0  0  0  0  0  0
  -26.7121   -5.6637  139.6036 C   0  0  0  0  0  0  0  0  0  0  0  0
  -25.5369   -5.0410  138.8528 C   0  0  0  0  0  0  0  0  0  0  0  0
  -21.0072   -9.0490  139.1488 C   0  0  0  0  0  0  0  0  0  0  0  0
  -22.2974   -8.4333  138.6382 C   0  0  0  0  0  0  0  0  0  0  0  0
  -25.8935   -4.3000  137.6480 N   0  0  0  0  0  0  0  0  0  0  0  0
  -26.8260   -4.3448  138.7797 C   0  0  0  0  0  0  0  0  0  0  0  0
  2  1  1  0
  3  2  1  0
  4  2  1  0
  5  1  1  0
  5  2  1  0
  5  4  1  0
  6  1  1  0
  7  6  1  0
  8  7  1  0
  9  8  1  0
 10  9  1  0
 11 10  1  0
 12 11  1  0
 13 12  1  0
 14  9  1  0
 15  7  1  0
 16 12  1  0
 16 13  1  0
 17 16  1  0
 18 15  1  0
 19 15  1  0
 19 18  1  0
 20 17  1  0
 21 16  1  0
 21 17  1  0
 21 20  1  0
M  END
$$$$

     RDKit          3D

 21 28  0  0  0  0  0  0  0  0999 V2000
  -26.3687  -21.7295  144.0033 C   0  0  0  0  0  0  0  0  0  0  0  0
  -25.7123  -21.2648  145.3412 C   0  0  0  0  0  0  0  0  0  0  0  0
  -27.5036  -22.6615  144.4108 C   0  0  0  0  0  0  0  0  0  0  0  0
  -25.6788  -19.7381  145.3589 C   0  0  0  0  0  0  0  0  0  0  0  0
  -28.6633  -22.7014  143.4228 C   0  0  0  0  0  0  0  0  0  0  0  0
  -25.3491  -22.4595  143.1072 C   0  0  0  0  0  0  0  0  0  0  0  0
  -26.1971  -19.1195  146.6723 C   0  0  0  0  0  0  0  0  0  0  0  0
  -24.1046  -21.5912  142.7493 C   0  0  0  0  0  0  0  0  0  0  0  0
  -28.4676  -23.6344  142.2471 C   0  0  0  0  0  0  0  0  0  0  0  0
  -27.0847  -24.1453  141.8314 C   0  0  0  0  0  0  0  0  0  0  0  0
  -25.6207  -23.8018  142.3035 C   0  0  0  0  0  0  0  0  0  0  0  0
  -27.7233  -22.9645  141.0991 C   0  0  0  0  0  0  0  0  0  0  0  0
  -28.5759  -22.1212  142.0160 C   0  0  0  0  0  0  0  0  0  0  0  0
  -24.0718  -22.5350  143.9656 C   0  0  0  0  0  0  0  0  0  0  0  0
  -24.6599  -23.9596  141.0649 C   0  0  0  0  0  0  0  0  0  0  0  0
  -24.3754  -21.9507  145.3390 C   0  0  0  0  0  0  0  0  0  0  0  0
  -28.5385  -19.4755  146.1561 O   0  0  0  0  0  0  0  0  0  0  0  0
  -27.5985  -18.4931  146.4924 C   0  0  0  0  0  0  0  0  0  0  0  0
  -23.3733  -24.3262  141.4819 O   0  0  0  0  0  0  0  0  0  0  0  0
  -25.1259  -24.9041  140.1149 O   0  0  0  0  0  0  0  0  0  0  0  0
  -24.3438  -20.4580  145.4464 C   0  0  0  0  0  0  0  0  0  0  0  0
  2  1  1  0
  3  1  1  0
  4  2  1  0
  5  3  1  0
  6  1  1  0
  7  4  1  0
  8  6  1  0
  9  5  1  0
 10  9  1  0
 11  6  1  0
 11 10  1  0
 12  9  1  0
 12 10  1  0
 13  5  1  0
 13  9  1  0
 13 12  1  0
 14  6  1  0
 14  8  1  0
 15 11  1  0
 16  2  1  0
 16 14  1  0
 18  7  1  0
 18 17  1  0
 19 15  1  0
 20 15  1  0
 21  2  1  0
 21  4  1  0
 21 16  1  0
M  END
$$$$

     RDKit          3D

 21 23  0  0  0  0  0  0  0  0999 V2000
  -26.7871   -4.4194  141.3871 O   0  0  0  0  0  0  0  0  0  0  0  0
  -24.4824   -3.1957  141.7506 C   0  0  0  0  0  0  0  0  0  0  0  0
  -23.8788   -2.8613  139.0242 Br  0  0  0  0  0  0  0  0  0  0  0  0
  -25.3117   -4.5628  141.5725 C   0  0  0  0  0  0  0  0  0  0  0  0
  -21.2795   -4.2588  141.0303 C   0  0  0  0  0  0  0  0  0  0  0  0
  -29.6171   -1.0357  137.0937 C   0  0  0  0  0  0  0  0  0  0  0  0
  -24.0142   -6.2210  143.3046 C   0  0  0  0  0  0  0  0  0  0  0  0
  -20.9776   -3.2655  139.9415 C   0  0  0  0  0  0  0  0  0  0  0  0
  -23.2335   -3.4001  140.9210 C   0  0  0  0  0  0  0  0  0  0  0  0
  -24.0512   -5.4170  142.1367 C   0  0  0  0  0  0  0  0  0  0  0  0
  -21.8280   -2.8548  141.1778 C   0  0  0  0  0  0  0  0  0  0  0  0
  -22.7257   -4.9803  141.1931 C   0  0  0  0  0  0  0  0  0  0  0  0
  -28.7133   -2.1304  139.1793 C   0  0  0  0  0  0  0  0  0  0  0  0
  -28.0130   -0.1246  135.2347 C   0  0  0  0  0  0  0  0  0  0  0  0
  -27.9145    0.8668  137.5673 C   0  0  0  0  0  0  0  0  0  0  0  0
  -31.6258   -1.2829  138.7561 C   0  0  0  0  0  0  0  0  0  0  0  0
  -20.0000   -4.5946  141.7357 C   0  0  0  0  0  0  0  0  0  0  0  0
  -27.0495   -3.0646  140.8078 C   0  0  0  0  0  0  0  0  0  0  0  0
  -28.1890   -0.4105  136.7514 C   0  0  0  0  0  0  0  0  0  0  0  0
  -28.4420   -2.7327  140.4504 O   0  0  0  0  0  0  0  0  0  0  0  0
  -29.9690   -1.1687  138.6466 C   0  0  0  0  0  0  0  0  0  0  0  0
  4  1  1  0
  4  2  1  0
  8  5  1  0
  9  2  1  0
  9  3  1  0
 10  4  1  0
 10  7  2  0
 11  5  1  0
 11  8  1  0
 11  9  1  0
 12  5  1  0
 12  9  1  0
 12 10  1  0
 17  5  1  0
 18  1  1  0
 19  6  1  0
 19 14  1  0
 19 15  1  0
 20 13  1  0
 20 18  1  0
 21  6  1  0
 21 13  1  0
 21 16  1  0
M  END
$$$$

     RDKit          3D

 21 26  0  0  0  0  0  0  0  0999 V2000
  -23.5803  -17.9016  143.4377 Cl  0  0  0  0  0  0  0  0  0  0  0  0
  -24.3799  -17.6989  145.0533 C   0  0  0  0  0  0  0  0  0  0  0  0
  -25.6786  -16.7956  144.8279 C   0  0  0  0  0  0  0  0  0  0  0  0
  -23.1933  -17.0958  145.8761 C   0  0  0  0  0  0  0  0  0  0  0  0
  -26.9404  -17.4324  144.0874 C   0  0  0  0  0  0  0  0  0  0  0  0
  -26.2171  -15.9200  145.9746 C   0  0  0  0  0  0  0  0  0  0  0  0
  -25.8664  -15.9343  147.2735 C   0  0  0  0  0  0  0  0  0  0  0  0
  -26.5100  -18.4591  142.5622 P   0  0  0  0  0  0  0  0  0  0  0  0
  -24.8384  -16.8304  147.8860 C   0  0  0  0  0  0  0  0  0  0  0  0
  -23.1122  -15.6039  146.2445 C   0  0  0  0  0  0  0  0  0  0  0  0
  -23.4211  -16.6674  147.3243 C   0  0  0  0  0  0  0  0  0  0  0  0
  -24.6875  -19.1378  145.5732 C   0  0  0  0  0  0  0  0  0  0  0  0
  -24.6119  -19.3327  147.1138 C   0  0  0  0  0  0  0  0  0  0  0  0
  -27.9641  -18.1191  145.0564 C   0  0  0  0  0  0  0  0  0  0  0  0
  -25.3361  -18.2967  147.9927 C   0  0  0  0  0  0  0  0  0  0  0  0
  -29.1177  -18.8963  144.3751 C   0  0  0  0  0  0  0  0  0  0  0  0
  -28.7690  -20.3921  144.1448 C   0  0  0  0  0  0  0  0  0  0  0  0
  -28.7227  -20.8682  142.6817 C   0  0  0  0  0  0  0  0  0  0  0  0
  -29.2991  -22.2671  142.5737 C   0  0  0  0  0  0  0  0  0  0  0  0
  -29.9825  -22.6593  143.8645 C   0  0  0  0  0  0  0  0  0  0  0  0
  -29.9182  -21.1879  143.5067 C   0  0  0  0  0  0  0  0  0  0  0  0
  2  1  1  0
  3  2  1  0
  4  2  1  0
  5  3  1  0
  6  3  1  0
  7  6  2  0
  8  5  1  0
  9  7  1  0
 10  4  1  0
 11  4  1  0
 11  9  1  0
 11 10  1  0
 12  2  1  0
 13 12  1  0
 14  5  1  0
 15  9  1  0
 15 13  1  0
 16 14  1  0
 17 16  1  0
 18 17  1  0
 19 18  1  0
 20 19  1  0
 21 17  1  0
 21 18  1  0
 21 19  1  0
 21 20  1  0
M  END
$$$$

     RDKit          3D

 13 17  0  0  0  0  0  0  0  0999 V2000
  -17.9309   -7.3467  137.2112 C   0  0  0  0  0  0  0  0  0  0  0  0
  -18.3719   -6.1438  138.1644 C   0  0  0  0  0  0  0  0  0  0  0  0
  -19.9292   -5.9155  137.9038 C   0  0  0  0  0  0  0  0  0  0  0  0
  -19.0827   -8.2783  136.6674 C   0  0  0  0  0  0  0  0  0  0  0  0
  -19.4466   -6.0693  139.2977 C   0  0  0  0  0  0  0  0  0  0  0  0
  -17.6004   -7.4130  138.6542 C   0  0  0  0  0  0  0  0  0  0  0  0
  -19.4741   -8.4924  135.2795 N   0  0  0  0  0  0  0  0  0  0  0  0
  -20.2854   -8.4259  137.5666 C   0  0  0  0  0  0  0  0  0  0  0  0
  -18.3515   -8.4364  134.3262 C   0  0  0  0  0  0  0  0  0  0  0  0
  -18.8579   -8.0905  132.9171 C   0  0  0  0  0  0  0  0  0  0  0  0
  -20.6607   -7.0470  137.1130 C   0  0  0  0  0  0  0  0  0  0  0  0
  -19.9699   -9.0314  132.4405 C   0  0  0  0  0  0  0  0  0  0  0  0
  -19.7649   -7.1681  135.8687 C   0  0  0  0  0  0  0  0  0  0  0  0
  2  1  1  0
  3  2  1  0
  4  1  1  0
  5  2  1  0
  5  3  1  0
  6  1  1  0
  6  2  1  0
  7  4  1  0
  8  4  1  0
  9  7  1  0
 10  9  1  0
 11  3  1  0
 11  8  1  0
 12 10  1  0
 13  4  1  0
 13  7  1  0
 13 11  1  0
M  END
$$$$

     RDKit          3D

 21 27  0  0  0  0  0  0  0  0999 V2000
  -16.6442  -19.5735  134.0188 C   0  0  0  0  0  0  0  0  0  0  0  0
  -17.4221  -19.5873  132.6739 C   0  0  0  0  0  0  0  0  0  0  0  0
  -16.0107  -20.9345  134.4051 C   0  0  0  0  0  0  0  0  0  0  0  0
  -16.7497  -19.0942  131.3752 C   0  0  0  0  0  0  0  0  0  0  0  0
  -15.2289  -21.6365  133.2553 C   0  0  0  0  0  0  0  0  0  0  0  0
  -14.0997  -20.7302  132.6698 C   0  0  0  0  0  0  0  0  0  0  0  0
  -14.4007  -20.0605  131.3105 C   0  0  0  0  0  0  0  0  0  0  0  0
  -15.8058  -20.0895  130.7367 C   0  0  0  0  0  0  0  0  0  0  0  0
  -18.4626  -20.6762  132.5386 C   0  0  0  0  0  0  0  0  0  0  0  0
  -14.7041  -23.0323  133.7155 C   0  0  0  0  0  0  0  0  0  0  0  0
  -14.4432  -23.1524  135.2282 C   0  0  0  0  0  0  0  0  0  0  0  0
  -19.8343  -20.3262  133.0443 C   0  0  0  0  0  0  0  0  0  0  0  0
  -15.2597  -18.8165  131.4225 C   0  0  0  0  0  0  0  0  0  0  0  0
  -15.1511  -20.7679  135.6914 C   0  0  0  0  0  0  0  0  0  0  0  0
  -14.0346  -21.8154  135.8375 C   0  0  0  0  0  0  0  0  0  0  0  0
  -20.0775  -20.6303  134.4990 C   0  0  0  0  0  0  0  0  0  0  0  0
  -21.3210  -20.5660  134.9794 C   0  0  0  0  0  0  0  0  0  0  0  0
  -22.4640  -20.2572  134.0951 C   0  0  0  0  0  0  0  0  0  0  0  0
  -22.3225  -20.1807  132.7640 C   0  0  0  0  0  0  0  0  0  0  0  0
  -18.8937  -19.1795  132.7169 C   0  0  0  0  0  0  0  0  0  0  0  0
  -21.0197  -20.5102  132.0806 C   0  0  0  0  0  0  0  0  0  0  0  0
  2  1  1  0
  3  1  1  0
  4  2  1  0
  5  3  1  0
  6  5  1  0
  7  6  1  0
  8  4  1  0
  8  7  1  0
  9  2  1  0
 10  5  1  0
 11 10  1  0
 12  9  1  0
 13  4  1  0
 13  7  1  0
 13  8  1  0
 14  3  1  0
 15 11  1  0
 15 14  1  0
 16 12  1  0
 17 16  2  0
 18 17  1  0
 19 18  2  0
 20  2  1  0
 20  9  1  0
 20 12  1  0
 21 12  1  0
 21 19  1  0
M  END
$$$$

     RDKit          3D

 11 13  0  0  0  0  0  0  0  0999 V2000
  -25.7956   -6.3184  149.0465 O   0  0  0  0  0  0  0  0  0  0  0  0
  -25.3202   -7.4388  148.3449 C   0  0  0  0  0  0  0  0  0  0  0  0
  -23.9149   -7.4233  148.3083 O   0  0  0  0  0  0  0  0  0  0  0  0
  -25.8692   -8.7416  148.9742 C   0  0  0  0  0  0  0  0  0  0  0  0
  -27.3643   -8.9125  149.1683 C   0  0  0  0  0  0  0  0  0  0  0  0
  -25.0363  -10.0185  148.9237 C   0  0  0  0  0  0  0  0  0  0  0  0
  -25.1901   -9.2313  150.2419 C   0  0  0  0  0  0  0  0  0  0  0  0
  -28.4893   -8.6535  151.4498 N   0  0  0  0  0  0  0  0  0  0  0  0
  -27.5409   -9.3814  150.6054 C   0  0  0  0  0  0  0  0  0  0  0  0
  -27.1073  -10.7114  151.0465 C   0  0  0  0  0  0  0  0  0  0  0  0
  -26.2239   -9.5347  151.2622 N   0  0  0  0  0  0  0  0  0  0  0  0
  2  1  1  0
  3  2  1  0
  4  2  1  0
  5  4  1  0
  6  4  1  0
  7  4  1  0
  7  6  1  0
  9  5  1  0
  9  8  1  0
 10  9  1  0
 11  7  1  0
 11  9  1  0
 11 10  1  0
M  END
$$$$

     RDKit          3D

 21 25  0  0  0  0  0  0  0  0999 V2000
  -23.8995   -1.4471  148.6668 O   0  0  0  0  0  0  0  0  0  0  0  0
  -23.2245   -2.0787  149.7249 C   0  0  0  0  0  0  0  0  0  0  0  0
  -22.7511   -3.5072  149.2916 C   0  0  0  0  0  0  0  0  0  0  0  0
  -21.7041   -4.1127  150.2906 C   0  0  0  0  0  0  0  0  0  0  0  0
  -24.0970   -1.9849  151.0005 C   0  0  0  0  0  0  0  0  0  0  0  0
  -21.6012   -5.6532  150.1969 C   0  0  0  0  0  0  0  0  0  0  0  0
  -23.9168   -4.4577  148.8053 C   0  0  0  0  0  0  0  0  0  0  0  0
  -19.9239   -7.4914  150.8994 C   0  0  0  0  0  0  0  0  0  0  0  0
  -22.9898   -6.1667  150.5426 C   0  0  0  0  0  0  0  0  0  0  0  0
  -19.1426   -6.1946  150.8553 C   0  0  0  0  0  0  0  0  0  0  0  0
  -25.4362   -2.7237  150.9265 C   0  0  0  0  0  0  0  0  0  0  0  0
  -20.6101   -6.1780  151.2513 C   0  0  0  0  0  0  0  0  0  0  0  0
  -23.7028   -7.2972  149.8127 C   0  0  0  0  0  0  0  0  0  0  0  0
  -20.4398   -3.5591  150.0364 O   0  0  0  0  0  0  0  0  0  0  0  0
  -24.1594   -4.5661  147.2782 C   0  0  0  0  0  0  0  0  0  0  0  0
  -24.8867   -3.3593  146.6937 C   0  0  0  0  0  0  0  0  0  0  0  0
  -25.2541   -4.2347  151.0939 C   0  0  0  0  0  0  0  0  0  0  0  0
  -25.1017   -4.9416  149.7287 C   0  0  0  0  0  0  0  0  0  0  0  0
  -22.9283   -8.0725  148.7959 C   0  0  0  0  0  0  0  0  0  0  0  0
  -22.3090   -9.2058  149.1319 C   0  0  0  0  0  0  0  0  0  0  0  0
  -23.9390   -5.8638  149.3806 C   0  0  0  0  0  0  0  0  0  0  0  0
  2  1  1  0
  3  2  1  0
  4  3  1  0
  5  2  1  0
  6  4  1  0
  7  3  1  0
  9  6  1  0
 10  8  1  0
 11  5  1  0
 12  6  1  0
 12  8  1  0
 12 10  1  0
 13  9  1  0
 14  4  1  0
 15  7  1  0
 16 15  1  0
 17 11  1  0
 18  7  1  0
 18 17  1  0
 19 13  1  0
 20 19  2  0
 21  7  1  0
 21  9  1  0
 21 13  1  0
 21 18  1  0
M  END
$$$$

     RDKit          3D

 21 27  0  0  0  0  0  0  0  0999 V2000
  -28.1035   -8.5872  153.3197 C   0  0  0  0  0  0  0  0  0  0  0  0
  -28.6561   -8.6776  154.7406 C   0  0  0  0  0  0  0  0  0  0  0  0
  -27.8006   -7.9151  155.7722 C   0  0  0  0  0  0  0  0  0  0  0  0
  -26.9506   -9.5566  153.0463 C   0  0  0  0  0  0  0  0  0  0  0  0
  -26.4730   -7.3652  156.3244 C   0  0  0  0  0  0  0  0  0  0  0  0
  -26.8648   -9.9715  151.5344 C   0  0  0  0  0  0  0  0  0  0  0  0
  -25.6989   -8.4029  156.9865 N   0  0  0  0  0  0  0  0  0  0  0  0
  -27.7664   -7.5076  154.2992 C   0  0  0  0  0  0  0  0  0  0  0  0
  -28.5919   -7.0266  156.7069 C   0  0  0  0  0  0  0  0  0  0  0  0
  -27.2686   -6.4758  157.2807 C   0  0  0  0  0  0  0  0  0  0  0  0
  -25.8484   -9.1252  150.6557 C   0  0  0  0  0  0  0  0  0  0  0  0
  -25.6926   -7.6449  151.0597 C   0  0  0  0  0  0  0  0  0  0  0  0
  -28.2093  -10.5725  150.9859 C   0  0  0  0  0  0  0  0  0  0  0  0
  -29.1039   -9.7812  149.9976 C   0  0  0  0  0  0  0  0  0  0  0  0
  -26.6361   -8.1288  153.4906 C   0  0  0  0  0  0  0  0  0  0  0  0
  -26.1830   -7.1617  152.4081 C   0  0  0  0  0  0  0  0  0  0  0  0
  -29.7211   -8.4717  150.4856 C   0  0  0  0  0  0  0  0  0  0  0  0
  -26.0349   -9.1542  149.1340 C   0  0  0  0  0  0  0  0  0  0  0  0
  -24.6834   -7.4006  152.1871 C   0  0  0  0  0  0  0  0  0  0  0  0
  -30.9448   -8.6782  151.4013 C   0  0  0  0  0  0  0  0  0  0  0  0
  -26.3626  -10.4293  148.6428 O   0  0  0  0  0  0  0  0  0  0  0  0
  2  1  1  0
  3  2  1  0
  4  1  1  0
  5  3  1  0
  6  4  1  0
  7  5  1  0
  8  1  1  0
  8  2  1  0
  8  3  1  0
  9  3  1  0
 10  5  1  0
 10  9  1  0
 11  6  1  0
 12 11  1  0
 13  6  1  0
 14 13  1  0
 15  1  1  0
 15  4  1  0
 15  8  1  0
 16 12  1  0
 16 15  1  0
 17 14  1  0
 18 11  1  0
 19 12  1  0
 19 16  1  0
 20 17  1  0
 21 18  1  0
M  END
$$$$

     RDKit          3D

 21 25  0  0  0  0  0  0  0  0999 V2000
  -30.2222    0.2646  132.4618 O   0  0  0  0  0  0  0  0  0  0  0  0
  -28.7974    0.2830  132.3053 C   0  0  0  0  0  0  0  0  0  0  0  0
  -28.3743    1.6417  132.1953 O   0  0  0  0  0  0  0  0  0  0  0  0
  -27.0759   -1.4425  131.1582 C   0  0  0  0  0  0  0  0  0  0  0  0
  -25.8059   -0.9592  130.6684 O   0  0  0  0  0  0  0  0  0  0  0  0
  -28.3531   -0.5698  131.0666 C   0  0  0  0  0  0  0  0  0  0  0  0
  -23.7838    1.0729  131.8132 Sb  0  0  0  0  0  3  0  0  0  0  0  0
  -26.9695   -2.4291  132.3846 C   0  0  0  0  0  0  0  0  0  0  0  0
  -25.8348    0.7835  134.1983 C   0  0  0  0  0  0  0  0  0  0  0  0
  -25.0218   -0.4253  134.5670 C   0  0  0  0  0  0  0  0  0  0  0  0
  -24.7434   -1.3543  135.7708 C   0  0  0  0  0  0  0  0  0  0  0  0
  -23.2279   -1.3443  135.9985 C   0  0  0  0  0  0  0  0  0  0  0  0
  -22.3912   -0.6566  132.3676 C   0  0  0  0  0  0  0  0  0  0  0  0
  -25.5645    0.4431  130.7171 C   0  0  0  0  0  0  0  0  0  0  0  0
  -24.1922   -0.3828  136.7933 C   0  0  0  0  0  0  0  0  0  0  0  0
  -21.8461   -1.1327  133.7904 C   0  0  0  0  0  0  0  0  0  0  0  0
  -25.8353   -1.6677  134.6577 C   0  0  0  0  0  0  0  0  0  0  0  0
  -24.8602    1.8434  133.6206 C   0  0  0  0  0  0  0  0  0  0  0  0
  -22.1939   -0.5058  135.1866 C   0  0  0  0  0  0  0  0  0  0  0  0
  -25.6732   -2.3265  133.2217 C   0  0  0  0  0  0  0  0  0  0  0  0
  -21.0756   -0.1186  132.9457 C   0  0  0  0  0  0  0  0  0  0  0  0
  2  1  1  0
  3  2  1  0
  5  4  1  0
  6  2  1  0
  6  4  1  0
  8  4  1  0
 10  9  1  0
 11 10  1  0
 12 11  1  0
 13  7  1  0
 14  5  1  0
 14  7  1  0
 15 11  1  0
 15 12  1  0
 16 13  1  0
 17 10  1  0
 17 11  1  0
 18  7  1  0
 18  9  1  0
 19 12  1  0
 19 16  1  0
 20  8  1  0
 20 17  1  0
 21 13  1  0
 21 16  1  0
M  END
$$$$

     RDKit          3D

 21 23  0  0  0  0  0  0  0  0999 V2000
  -27.3420  -20.5950  138.3340 O   0  0  0  0  0  0  0  0  0  0  0  0
  -26.9151  -21.9131  138.5858 C   0  0  0  0  0  0  0  0  0  0  0  0
  -25.5887  -22.2457  137.9382 C   0  0  0  0  0  0  0  0  0  0  0  0
  -25.6498  -21.9895  139.4466 C   0  0  0  0  0  0  0  0  0  0  0  0
  -25.4643  -23.2715  140.2793 C   0  0  0  0  0  0  0  0  0  0  0  0
  -23.9620  -23.5015  140.5266 C   0  0  0  0  0  0  0  0  0  0  0  0
  -26.3369  -23.3223  141.5719 C   0  0  0  0  0  0  0  0  0  0  0  0
  -27.0951  -20.9067  142.1326 C   0  0  0  0  0  0  0  0  0  0  0  0
  -26.2407  -19.9941  141.5087 O   0  0  0  0  0  0  0  0  0  0  0  0
  -24.8955  -21.9286  143.2492 C   0  0  0  0  0  0  0  0  0  0  0  0
  -24.7618  -21.1119  144.6025 C   0  0  0  0  0  0  0  0  0  0  0  0
  -26.3201  -22.1722  142.6283 C   0  0  0  0  0  0  0  0  0  0  0  0
  -23.6225  -20.1484  144.5971 N   0  0  0  0  0  0  0  0  0  0  0  0
  -26.0538  -20.4321  145.0818 C   0  0  0  0  0  0  0  0  0  0  0  0
  -22.3000  -20.7982  144.3967 C   0  0  0  0  0  0  0  0  0  0  0  0
  -25.9197  -19.4815  146.2757 C   0  0  0  0  0  0  0  0  0  0  0  0
  -26.2025  -18.9305  144.8882 C   0  0  0  0  0  0  0  0  0  0  0  0
  -23.9176  -19.0041  143.6798 C   0  0  0  0  0  0  0  0  0  0  0  0
  -25.0348  -18.1348  144.2720 C   0  0  0  0  0  0  0  0  0  0  0  0
  -22.6981  -18.1206  143.3488 C   0  0  0  0  0  0  0  0  0  0  0  0
  -21.9292  -22.0296  145.7008 S   0  0  0  0  0  0  0  0  0  0  0  0
  2  1  1  0
  3  2  1  0
  4  2  1  0
  4  3  1  0
  5  4  1  0
  6  5  1  0
  7  5  1  0
  9  8  1  0
 11 10  1  0
 12  7  1  0
 12  8  1  0
 12 10  1  0
 13 11  1  0
 14 11  1  0
 15 13  1  0
 16 14  1  0
 17 14  1  0
 17 16  1  0
 18 13  1  0
 19 17  1  0
 19 18  1  0
 20 18  1  0
 21 15  1  0
M  END
$$$$

     RDKit          3D

 21 22  0  0  0  0  0  0  0  0999 V2000
  -26.7137    0.9987  134.4420 C   0  0  0  0  0  0  0  0  0  0  0  0
  -25.3056    1.5744  134.4083 C   0  0  0  0  0  0  0  0  0  0  0  0
  -27.6044    1.6684  133.3572 C   0  0  0  0  0  0  0  0  0  0  0  0
  -29.1151    1.9588  133.7093 C   0  0  0  0  0  0  0  0  0  0  0  0
  -30.1541    1.8666  132.5034 C   0  0  0  0  0  0  0  0  0  0  0  0
  -26.5324    2.4690  134.0889 C   0  0  0  0  0  0  0  0  0  0  0  0
  -24.3878    0.9982  133.2366 C   0  0  0  0  0  0  0  0  0  0  0  0
  -29.6428    1.2575  131.2611 N   0  0  0  0  0  0  0  0  0  0  0  0
  -24.6069    1.7206  131.8693 C   0  0  0  0  0  0  0  0  0  0  0  0
  -25.3345    0.9572  130.6992 C   0  0  0  0  0  0  0  0  0  0  0  0
  -29.4853   -0.2056  131.3078 C   0  0  0  0  0  0  0  0  0  0  0  0
  -22.8619    0.7279  133.6666 C   0  0  0  0  0  0  0  0  0  0  0  0
  -26.0137   -0.2483  130.7018 C   0  0  0  0  0  0  0  0  0  0  0  0
  -25.4961   -1.6598  130.6335 C   0  0  0  0  0  0  0  0  0  0  0  0
  -30.7801    3.2642  132.1092 C   0  0  0  0  0  0  0  0  0  0  0  0
  -25.8673   -2.6951  131.7224 C   0  0  0  0  0  0  0  0  0  0  0  0
  -26.0938   -2.0941  133.0758 C   0  0  0  0  0  0  0  0  0  0  0  0
  -31.8580    3.1866  130.9703 C   0  0  0  0  0  0  0  0  0  0  0  0
  -22.2619    1.9368  134.1092 O   0  0  0  0  0  0  0  0  0  0  0  0
  -26.3644   -4.1380  134.3710 C   0  0  0  0  0  0  0  0  0  0  0  0
  -26.2566   -2.6897  134.2088 N   0  0  0  0  0  0  0  0  0  0  0  0
  2  1  1  0
  3  1  1  0
  4  3  1  0
  5  4  1  0
  6  1  1  0
  6  2  1  0
  6  3  1  0
  7  2  1  0
  8  5  1  0
  9  7  1  0
 10  9  1  0
 11  8  1  0
 12  7  1  0
 13 10  2  3
 14 13  1  0
 15  5  1  0
 16 14  1  0
 17 16  1  0
 18 15  1  0
 19 12  1  0
 21 17  2  3
 21 20  1  0
M  END
$$$$

     RDKit          3D

 21 25  0  0  0  0  0  0  0  0999 V2000
  -20.0704    0.0699  139.6256 C   0  0  0  0  0  0  0  0  0  0  0  0
  -21.5527   -1.4733  138.5648 C   0  0  0  0  0  0  0  0  0  0  0  0
  -19.1258   -1.1328  137.6881 N   0  0  0  0  0  0  0  0  0  0  0  0
  -18.5580   -0.3747  138.9154 C   0  0  0  0  0  0  0  0  0  0  0  0
  -20.0603   -1.5837  138.7489 C   0  0  0  0  0  0  0  0  0  0  0  0
  -22.1795   -1.0991  136.9203 C   0  0  0  0  0  0  0  0  0  0  0  0
  -22.1305    1.2114  136.7508 C   0  0  0  0  0  0  0  0  0  0  0  0
  -21.2649    3.0715  136.8978 C   0  0  0  0  0  0  0  0  0  0  0  0
  -22.8022   -3.1927  137.4985 C   0  0  0  0  0  0  0  0  0  0  0  0
  -24.5996    4.4448  137.2764 C   0  0  0  0  0  0  0  0  0  0  0  0
  -25.0323    1.7713  138.0465 C   0  0  0  0  0  0  0  0  0  0  0  0
  -22.3685    4.6712  136.1014 C   0  0  0  0  0  0  0  0  0  0  0  0
  -26.4190   -0.7616  137.7673 C   0  0  0  0  0  0  0  0  0  0  0  0
  -24.3510    3.3821  138.7912 C   0  0  0  0  0  0  0  0  0  0  0  0
  -24.9534    3.4059  140.4396 C   0  0  0  0  0  0  0  0  0  0  0  0
  -22.8907    3.1285  139.3487 C   0  0  0  0  0  0  0  0  0  0  0  0
  -26.3613   -2.6159  136.8826 C   0  0  0  0  0  0  0  0  0  0  0  0
  -25.9024   -4.4858  136.3993 C   0  0  0  0  0  0  0  0  0  0  0  0
  -24.9366   -5.2224  135.4323 O   0  0  0  0  0  0  0  0  0  0  0  0
  -27.7936   -2.8382  137.7097 C   0  0  0  0  0  0  0  0  0  0  0  0
  -26.1835   -6.4211  137.7428 I   0  0  0  0  0  0  0  0  0  0  0  0
  2  1  1  0
  4  1  1  0
  4  3  1  0
  5  1  1  0
  5  2  1  0
  5  3  1  0
  6  2  1  0
  7  6  1  0
  8  7  1  0
  9  2  1  0
  9  6  1  0
 11 10  1  0
 12  8  1  0
 12 10  1  0
 13 11  1  0
 14 10  1  0
 14 11  1  0
 15 14  1  0
 16 14  1  0
 17 13  1  0
 18 17  1  0
 19 18  1  0
 20 13  1  0
 20 17  1  0
 21 18  1  0
M  END
$$$$

     RDKit          3D

 21 24  0  0  0  0  0  0  0  0999 V2000
  -23.9174   -5.0950  139.6751 C   0  0  0  0  0  0  0  0  0  0  0  0
  -22.8754   -4.2369  139.0950 N   0  0  0  0  0  0  0  0  0  0  0  0
  -21.9333   -3.8264  140.1466 C   0  0  0  0  0  0  0  0  0  0  0  0
  -19.3491   -3.8793  139.9893 C   0  0  0  0  0  0  0  0  0  0  0  0
  -26.1787   -6.1746  139.3109 C   0  0  0  0  0  0  0  0  0  0  0  0
  -25.8976   -6.9592  140.2585 O   0  0  0  0  0  0  0  0  0  0  0  0
  -27.5201   -6.1700  138.7900 N   0  0  0  0  0  0  0  0  0  0  0  0
  -20.6579   -3.2342  139.5103 C   0  0  0  0  0  0  0  0  0  0  0  0
  -20.6041   -1.6939  139.3652 C   0  0  0  0  0  0  0  0  0  0  0  0
  -19.8696   -4.1751  138.5906 C   0  0  0  0  0  0  0  0  0  0  0  0
  -19.5885   -1.0947  138.3673 C   0  0  0  0  0  0  0  0  0  0  0  0
  -20.7290    0.2533  136.4286 C   0  0  0  0  0  0  0  0  0  0  0  0
  -19.7391    1.4359  136.4636 C   0  0  0  0  0  0  0  0  0  0  0  0
  -20.0987   -1.0838  136.9055 C   0  0  0  0  0  0  0  0  0  0  0  0
  -22.0268    0.5969  137.1784 C   0  0  0  0  0  0  0  0  0  0  0  0
  -25.1006   -5.2899  138.7116 C   0  0  0  0  0  0  0  0  0  0  0  0
  -27.9835   -5.6906  136.3299 C   0  0  0  0  0  0  0  0  0  0  0  0
  -27.5193   -7.0942  136.0234 C   0  0  0  0  0  0  0  0  0  0  0  0
  -29.2663   -5.6629  137.1171 C   0  0  0  0  0  0  0  0  0  0  0  0
  -29.0130   -6.8399  136.1855 C   0  0  0  0  0  0  0  0  0  0  0  0
  -27.9774   -5.2183  137.7809 C   0  0  0  0  0  0  0  0  0  0  0  0
  2  1  1  0
  3  2  1  0
  6  5  2  0
  7  5  1  0
  8  3  1  0
  8  4  1  0
  9  8  1  0
 10  4  1  0
 10  8  1  0
 11  9  1  0
 13 12  1  0
 14 11  1  0
 14 12  1  0
 15 12  1  0
 16  1  1  0
 16  5  1  0
 18 17  1  0
 19 17  1  0
 20 17  1  0
 20 18  1  0
 20 19  1  0
 21  7  1  0
 21 17  1  0
 21 19  1  0
M  END
$$$$

     RDKit          3D

 20 25  0  0  0  0  0  0  0  0999 V2000
  -25.3408   -7.9356  137.5105 C   0  0  0  0  0  0  0  0  0  0  0  0
  -23.9202   -8.5045  138.8257 C   0  0  0  0  0  0  0  0  0  0  0  0
  -22.4543   -8.4555  139.3619 C   0  0  0  0  0  0  0  0  0  0  0  0
  -24.6284  -10.3885  137.2067 C   0  0  0  0  0  0  0  0  0  0  0  0
  -23.7639  -11.3917  137.3930 C   0  0  0  0  0  0  0  0  0  0  0  0
  -22.7051   -6.9769  136.7822 C   0  0  0  0  0  0  0  0  0  0  0  0
  -22.0358   -9.5534  140.3160 C   0  0  0  0  0  0  0  0  0  0  0  0
  -22.2791   -6.2041  135.5488 C   0  0  0  0  0  0  0  0  0  0  0  0
  -22.4030   -8.1549  140.8300 C   0  0  0  0  0  0  0  0  0  0  0  0
  -24.1231  -12.7718  137.2266 N   0  0  0  0  0  0  0  0  0  0  0  0
  -24.2067   -8.9570  137.3863 C   0  0  0  0  0  0  0  0  0  0  0  0
  -23.2764   -7.3393  135.3986 C   0  0  0  0  0  0  0  0  0  0  0  0
  -23.0709   -8.4383  136.4497 C   0  0  0  0  0  0  0  0  0  0  0  0
  -23.6658   -6.2677  137.8549 C   0  0  0  0  0  0  0  0  0  0  0  0
  -24.4118   -5.0038  137.3870 C   0  0  0  0  0  0  0  0  0  0  0  0
  -22.3139   -9.2731  141.6617 O   0  0  0  0  0  0  0  0  0  0  0  0
  -24.6020   -7.2135  138.5587 N   0  0  0  0  0  0  0  0  0  0  0  0
  -25.3855  -14.0242  138.9394 C   0  0  0  0  0  0  0  0  0  0  0  0
  -25.1495  -13.0345  140.0795 C   0  0  0  0  0  0  0  0  0  0  0  0
  -25.4321  -13.3333  137.5711 C   0  0  0  0  0  0  0  0  0  0  0  0
  3  2  1  0
  5  4  2  3
  7  3  1  0
  8  6  1  0
  9  3  1  0
  9  7  1  0
 10  5  1  0
 11  1  1  0
 11  2  1  0
 11  4  1  0
 12  6  1  0
 12  8  1  0
 13  6  1  0
 13 11  1  0
 13 12  1  0
 14  6  1  0
 15 14  1  0
 16  7  1  0
 16  9  1  0
 17  1  1  0
 17  2  1  0
 17 14  1  0
 19 18  1  0
 20 10  1  0
 20 18  1  0
M  END
$$$$

     RDKit          3D

 21 23  0  0  0  0  0  0  0  0999 V2000
  -23.9897  -21.2603  137.1715 C   0  0  0  0  0  0  0  0  0  0  0  0
  -25.1058  -21.9873  136.4415 C   0  0  0  0  0  0  0  0  0  0  0  0
  -24.2307  -20.3024  138.0288 C   0  0  0  0  0  0  0  0  0  0  0  0
  -24.4784  -19.3464  138.8839 C   0  0  0  0  0  0  0  0  0  0  0  0
  -24.3776  -17.8987  138.4932 C   0  0  0  0  0  0  0  0  0  0  0  0
  -23.0674  -17.6305  138.0610 O   0  0  0  0  0  0  0  0  0  0  0  0
  -25.8862  -20.9679  135.5807 C   0  0  0  0  0  0  0  0  0  0  0  0
  -24.4889  -23.0378  135.4915 C   0  0  0  0  0  0  0  0  0  0  0  0
  -26.1051  -22.6572  137.4398 C   0  0  0  0  0  0  0  0  0  0  0  0
  -25.4602  -16.0475  137.1411 C   0  0  0  0  0  0  0  0  0  0  0  0
  -26.5156  -15.3041  137.9515 C   0  0  0  0  0  0  0  0  0  0  0  0
  -26.1090  -13.8785  138.3391 C   0  0  0  0  0  0  0  0  0  0  0  0
  -27.3183  -13.1821  139.0064 C   0  0  0  0  0  0  0  0  0  0  0  0
  -26.9445  -12.2199  140.1207 C   0  0  0  0  0  0  0  0  0  0  0  0
  -25.3908  -17.5608  137.3854 C   0  0  0  0  0  0  0  0  0  0  0  0
  -28.2887  -12.5601  138.0204 C   0  0  0  0  0  0  0  0  0  0  0  0
  -26.7405  -15.5704  136.4660 C   0  0  0  0  0  0  0  0  0  0  0  0
  -24.6152  -23.3722  139.3200 C   0  0  0  0  0  0  0  0  0  0  0  0
  -27.3413  -11.6518  138.7762 C   0  0  0  0  0  0  0  0  0  0  0  0
  -23.8473  -23.0112  140.1760 C   0  0  0  0  0  0  0  0  0  0  0  0
  -25.5557  -23.8220  138.2864 C   0  0  0  0  0  0  0  0  0  0  0  0
  2  1  1  0
  3  1  2  0
  4  3  2  0
  5  4  1  0
  6  5  1  0
  7  2  1  0
  8  2  1  0
  9  2  1  0
 11 10  1  0
 12 11  1  0
 13 12  1  0
 14 13  1  0
 15  5  1  0
 15 10  1  0
 16 13  1  0
 17 10  1  0
 17 11  1  0
 19 13  1  0
 19 14  1  0
 19 16  1  0
 20 18  3  0
 21  9  1  0
 21 18  1  0
M  END
$$$$

     RDKit          3D

 20 22  0  0  0  0  0  0  0  0999 V2000
  -18.9712   -5.5748  140.3823 O   0  0  0  0  0  0  0  0  0  0  0  0
  -18.4089   -5.5834  139.1005 C   0  0  0  0  0  0  0  0  0  0  0  0
  -19.3018   -5.2499  137.8904 C   0  0  0  0  0  0  0  0  0  0  0  0
  -16.9525   -5.1255  138.9920 C   0  0  0  0  0  0  0  0  0  0  0  0
  -16.2431   -4.7336  140.2709 C   0  0  0  0  0  0  0  0  0  0  0  0
  -19.9968   -6.4554  137.2740 C   0  0  0  0  0  0  0  0  0  0  0  0
  -14.9539   -4.3491  140.3081 C   0  0  0  0  0  0  0  0  0  0  0  0
  -17.2994   -6.6111  138.9138 C   0  0  0  0  0  0  0  0  0  0  0  0
  -13.5033   -5.5814  138.6646 C   0  0  0  0  0  0  0  0  0  0  0  0
  -12.8425   -5.5478  137.2772 C   0  0  0  0  0  0  0  0  0  0  0  0
  -20.8000   -5.4473  138.0722 C   0  0  0  0  0  0  0  0  0  0  0  0
  -11.6495   -4.5757  137.1889 C   0  0  0  0  0  0  0  0  0  0  0  0
  -14.0716   -4.2220  139.0915 C   0  0  0  0  0  0  0  0  0  0  0  0
  -12.0221   -3.2801  136.4400 C   0  0  0  0  0  0  0  0  0  0  0  0
  -11.0616   -2.1111  136.7171 C   0  0  0  0  0  0  0  0  0  0  0  0
   -9.6459   -2.3945  136.2562 C   0  0  0  0  0  0  0  0  0  0  0  0
   -8.8036   -1.3858  135.9994 C   0  0  0  0  0  0  0  0  0  0  0  0
   -9.2731    0.0101  136.0282 C   0  0  0  0  0  0  0  0  0  0  0  0
  -10.5787    0.2824  136.1024 C   0  0  0  0  0  0  0  0  0  0  0  0
  -11.5954   -0.8255  136.0462 C   0  0  0  0  0  0  0  0  0  0  0  0
  2  1  1  0
  3  2  1  0
  4  2  1  0
  5  4  1  0
  6  3  1  0
  7  5  2  3
  8  2  1  0
  8  4  1  0
 10  9  1  0
 11  3  1  0
 11  6  1  0
 12 10  1  0
 13  7  1  0
 13  9  1  0
 14 12  1  0
 15 14  1  0
 16 15  1  0
 17 16  2  0
 18 17  1  0
 19 18  2  0
 20 15  1  0
 20 19  1  0
M  END
$$$$

     RDKit          3D

 11 12  0  0  0  0  0  0  0  0999 V2000
  -29.4592  -17.0675  138.1396 Cl  0  0  0  0  0  0  0  0  0  0  0  0
  -26.4654  -20.8830  139.9364 C   0  0  0  0  0  0  0  0  0  0  0  0
  -26.4465  -22.0580  140.8555 C   0  0  0  0  0  0  0  0  0  0  0  0
  -28.4346  -20.1141  138.5304 C   0  0  0  0  0  0  0  0  0  0  0  0
  -27.5188  -21.2893  138.9273 C   0  0  0  0  0  0  0  0  0  0  0  0
  -27.4917  -22.9678  140.3996 N   0  0  0  0  0  0  0  0  0  0  0  0
  -28.2939  -22.3142  139.5056 O   0  0  0  0  0  0  0  0  0  0  0  0
  -26.6611  -18.4467  137.9169 N   0  0  0  0  0  0  0  0  0  0  0  0
  -28.8768  -18.2088  136.8932 C   0  0  0  0  0  0  0  0  0  0  0  0
  -27.8297  -19.1926  137.4396 C   0  0  0  0  0  0  0  0  0  0  0  0
  -26.9134  -20.7146  141.3849 C   0  0  0  0  0  0  0  0  0  0  0  0
  3  2  1  0
  5  2  1  0
  5  4  1  0
  6  3  1  0
  7  5  1  0
  7  6  1  0
  9  1  1  0
 10  4  1  0
 10  8  1  0
 10  9  1  0
 11  2  1  0
 11  3  1  0
M  END
$$$$

     RDKit          3D

 21 27  0  0  0  0  0  0  0  0999 V2000
  -21.6019   -4.1139  143.6467 C   0  0  0  0  0  0  0  0  0  0  0  0
  -20.4637   -3.2701  143.1038 C   0  0  0  0  0  0  0  0  0  0  0  0
  -20.8036   -1.8676  142.5650 C   0  0  0  0  0  0  0  0  0  0  0  0
  -20.6004   -3.4436  144.6052 C   0  0  0  0  0  0  0  0  0  0  0  0
  -22.3086   -2.6630  140.6547 C   0  0  0  0  0  0  0  0  0  0  0  0
  -22.6785   -2.5874  139.1486 C   0  0  0  0  0  0  0  0  0  0  0  0
  -22.1056   -3.5700  138.1498 C   0  0  0  0  0  0  0  0  0  0  0  0
  -21.0564   -1.8587  141.0507 C   0  0  0  0  0  0  0  0  0  0  0  0
  -21.1558   -4.5956  138.7978 C   0  0  0  0  0  0  0  0  0  0  0  0
  -21.0699   -5.9166  138.0447 C   0  0  0  0  0  0  0  0  0  0  0  0
  -21.3977   -2.9631  136.9589 C   0  0  0  0  0  0  0  0  0  0  0  0
  -22.3203   -3.0347  135.7217 C   0  0  0  0  0  0  0  0  0  0  0  0
  -21.8475   -5.8367  139.3436 C   0  0  0  0  0  0  0  0  0  0  0  0
  -23.7442   -2.7614  136.0220 N   0  0  0  0  0  0  0  0  0  0  0  0
  -24.0520   -1.3497  136.3648 C   0  0  0  0  0  0  0  0  0  0  0  0
  -21.2317   -4.7734  144.9569 C   0  0  0  0  0  0  0  0  0  0  0  0
  -18.9805   -4.2636  142.3433 Br  0  0  0  0  0  0  0  0  0  0  0  0
  -24.3629   -1.8482  135.0258 C   0  0  0  0  0  0  0  0  0  0  0  0
  -21.5847   -2.0810  138.2010 C   0  0  0  0  0  0  0  0  0  0  0  0
  -22.8547   -0.4003  136.4981 C   0  0  0  0  0  0  0  0  0  0  0  0
  -22.0669   -0.6436  137.7930 C   0  0  0  0  0  0  0  0  0  0  0  0
  2  1  1  0
  3  2  1  0
  4  1  1  0
  4  2  1  0
  6  5  1  0
  7  6  1  0
  8  3  1  0
  8  5  1  0
  9  7  1  0
 10  9  1  0
 11  7  1  0
 12 11  1  0
 13  9  1  0
 13 10  1  0
 14 12  1  0
 15 14  1  0
 16  1  1  0
 16  4  1  0
 17  2  1  0
 18 14  1  0
 18 15  1  0
 19  6  1  0
 19  7  1  0
 19 11  1  0
 20 15  1  0
 21 19  1  0
 21 20  1  0
M  END
$$$$

     RDKit          3D

 21 24  0  0  0  0  0  0  0  0999 V2000
  -27.0733  -12.8282  152.3743 O   0  0  0  0  0  0  0  0  0  0  0  0
  -26.4671  -13.7253  153.2962 C   0  0  0  0  0  0  0  0  0  0  0  0
  -25.6604  -12.9684  154.3788 C   0  0  0  0  0  0  0  0  0  0  0  0
  -27.5593  -14.6064  153.9665 C   0  0  0  0  0  0  0  0  0  0  0  0
  -27.9848  -15.7293  152.9783 C   0  0  0  0  0  0  0  0  0  0  0  0
  -29.1005  -15.4419  151.9832 C   0  0  0  0  0  0  0  0  0  0  0  0
  -25.7902  -11.4531  154.4901 C   0  0  0  0  0  0  0  0  0  0  0  0
  -29.3477  -16.3897  153.1481 C   0  0  0  0  0  0  0  0  0  0  0  0
  -28.7160  -13.7332  154.5392 C   0  0  0  0  0  0  0  0  0  0  0  0
  -24.5459  -12.0621  153.8526 C   0  0  0  0  0  0  0  0  0  0  0  0
  -23.2900  -11.9739  154.7384 C   0  0  0  0  0  0  0  0  0  0  0  0
  -21.9947  -12.3597  153.9838 C   0  0  0  0  0  0  0  0  0  0  0  0
  -22.0687  -13.7186  153.2693 C   0  0  0  0  0  0  0  0  0  0  0  0
  -20.8330  -12.5131  154.9674 C   0  0  0  0  0  0  0  0  0  0  0  0
  -21.4365  -14.7549  154.2100 C   0  0  0  0  0  0  0  0  0  0  0  0
  -28.4485  -13.1305  155.9191 C   0  0  0  0  0  0  0  0  0  0  0  0
  -29.4335  -14.2726  155.7716 C   0  0  0  0  0  0  0  0  0  0  0  0
  -22.4506  -15.8170  154.6554 C   0  0  0  0  0  0  0  0  0  0  0  0
  -20.8576  -13.9732  155.3977 C   0  0  0  0  0  0  0  0  0  0  0  0
  -26.6607  -13.0929  151.0496 C   0  0  0  0  0  0  0  0  0  0  0  0
  -27.3567  -12.1222  150.1067 C   0  0  0  0  0  0  0  0  0  0  0  0
  2  1  1  0
  3  2  1  0
  4  2  1  0
  5  4  1  0
  6  5  1  0
  7  3  1  0
  8  5  1  0
  8  6  1  0
  9  4  1  0
 10  3  1  0
 10  7  1  0
 11 10  1  0
 12 11  1  0
 13 12  1  0
 14 12  1  0
 15 13  1  0
 16  9  1  0
 17  9  1  0
 17 16  1  0
 18 15  1  0
 19 14  1  0
 19 15  1  0
 20  1  1  0
 21 20  1  0
M  END
$$$$

     RDKit          3D

 20 20  0  0  0  0  0  0  0  0999 V2000
  -23.2299  -10.7450  149.7154 C   0  0  0  0  0  0  0  0  0  0  0  0
  -22.7731   -9.3305  149.2722 C   0  0  0  0  0  0  0  0  0  0  0  0
  -21.3950   -9.0100  149.8109 C   0  0  0  0  0  0  0  0  0  0  0  0
  -24.1155  -11.4117  148.6311 C   0  0  0  0  0  0  0  0  0  0  0  0
  -23.9877  -11.9773  151.8480 C   0  0  0  0  0  0  0  0  0  0  0  0
  -21.0392   -7.8568  150.4203 C   0  0  0  0  0  0  0  0  0  0  0  0
  -22.0318   -6.7582  150.7419 C   0  0  0  0  0  0  0  0  0  0  0  0
  -25.1577  -12.0638  152.8412 C   0  0  0  0  0  0  0  0  0  0  0  0
  -26.4475  -12.3546  152.1180 C   0  0  0  0  0  0  0  0  0  0  0  0
  -24.0027  -10.6541  151.0563 C   0  0  0  0  0  0  0  0  0  0  0  0
  -23.3417  -11.7361  147.3313 C   0  0  0  0  0  0  0  0  0  0  0  0
  -27.3095  -11.4461  151.9796 O   0  0  0  0  0  0  0  0  0  0  0  0
  -26.6613  -13.6423  151.5294 N   0  0  0  0  0  0  0  0  0  0  0  0
  -27.8479  -13.9364  150.7309 C   0  0  0  0  0  0  0  0  0  0  0  0
  -27.8816  -13.2157  149.3929 C   0  0  0  0  0  0  0  0  0  0  0  0
  -23.6367  -13.1419  146.7768 C   0  0  0  0  0  0  0  0  0  0  0  0
  -27.5348  -14.6959  149.4519 C   0  0  0  0  0  0  0  0  0  0  0  0
  -25.0373  -13.3127  146.3852 N   0  0  0  0  0  0  0  0  0  0  0  0
  -22.9140   -7.1819  151.8244 N   0  0  0  0  0  0  0  0  0  0  0  0
  -19.5835   -7.6577  150.7730 C   0  0  0  0  0  0  0  0  0  0  0  0
  2  1  1  0
  3  2  1  0
  4  1  1  0
  6  3  2  3
  7  6  1  0
  8  5  1  0
  9  8  1  0
 10  1  1  0
 10  5  1  0
 11  4  1  0
 12  9  2  0
 13  9  1  0
 14 13  1  0
 15 14  1  0
 16 11  1  0
 17 14  1  0
 17 15  1  0
 18 16  1  0
 19  7  1  0
 20  6  1  0
M  END
$$$$

     RDKit          3D

 21 24  0  0  0  0  0  0  0  0999 V2000
  -19.9716  -17.3591  139.5901 C   0  0  0  0  0  0  0  0  0  0  0  0
  -21.5420  -17.5204  139.6509 C   0  0  0  0  0  0  0  0  0  0  0  0
  -18.7378  -17.8166  138.7011 C   0  0  0  0  0  0  0  0  0  0  0  0
  -19.0214  -19.2731  138.9584 C   0  0  0  0  0  0  0  0  0  0  0  0
  -22.9836  -17.9242  137.4557 C   0  0  0  0  0  0  0  0  0  0  0  0
  -24.2402  -18.7523  137.7858 C   0  0  0  0  0  0  0  0  0  0  0  0
  -22.5419  -16.9601  138.5878 C   0  0  0  0  0  0  0  0  0  0  0  0
  -23.7748  -17.1903  136.3667 C   0  0  0  0  0  0  0  0  0  0  0  0
  -21.4629  -19.0185  139.8571 C   0  0  0  0  0  0  0  0  0  0  0  0
  -25.0363  -17.9456  136.7621 C   0  0  0  0  0  0  0  0  0  0  0  0
  -19.9698  -18.8511  140.0393 C   0  0  0  0  0  0  0  0  0  0  0  0
  -19.7503  -16.9837  138.0829 C   0  0  0  0  0  0  0  0  0  0  0  0
  -19.3102  -15.5316  137.7318 C   0  0  0  0  0  0  0  0  0  0  0  0
  -24.1255  -20.2317  137.3996 C   0  0  0  0  0  0  0  0  0  0  0  0
  -19.3734  -14.5168  138.9019 C   0  0  0  0  0  0  0  0  0  0  0  0
  -18.1773  -14.5839  139.7557 N   0  0  0  0  0  0  0  0  0  0  0  0
  -16.6696  -13.3580  141.2458 C   0  0  0  0  0  0  0  0  0  0  0  0
  -17.9965  -13.3333  140.5003 C   0  0  0  0  0  0  0  0  0  0  0  0
  -17.9635  -15.5015  136.9677 C   0  0  0  0  0  0  0  0  0  0  0  0
  -17.8203  -14.2543  136.1959 N   0  0  0  0  0  0  0  0  0  0  0  0
  -16.8382  -13.4451  136.8020 N   0  0  0  0  0  0  0  0  0  0  0  0
  2  1  1  0
  3  1  1  0
  4  3  1  0
  6  5  1  0
  7  2  1  0
  7  5  1  0
  8  5  1  0
  9  2  1  0
 10  6  1  0
 10  8  1  0
 11  1  1  0
 11  4  1  0
 11  9  1  0
 12  1  1  0
 12  3  1  0
 13 12  1  0
 14  6  1  0
 15 13  1  0
 16 15  1  0
 18 16  1  0
 18 17  1  0
 19 13  1  0
 20 19  1  0
 21 20  1  0
M  END
$$$$

     RDKit          3D

 12 13  0  0  0  0  0  0  0  0999 V2000
  -18.3394   -2.2485  138.9742 O   0  0  0  0  0  0  0  0  0  0  0  0
  -18.1348   -3.6138  138.7348 C   0  0  0  0  0  0  0  0  0  0  0  0
  -17.3944   -3.9563  137.4426 C   0  0  0  0  0  0  0  0  0  0  0  0
  -16.9975   -2.8145  136.5417 C   0  0  0  0  0  0  0  0  0  0  0  0
  -17.8783   -4.5020  139.9270 C   0  0  0  0  0  0  0  0  0  0  0  0
  -16.0137   -1.9486  136.8177 C   0  0  0  0  0  0  0  0  0  0  0  0
  -17.2500   -5.6820  139.8203 C   0  0  0  0  0  0  0  0  0  0  0  0
  -18.9121   -4.1766  137.5461 C   0  0  0  0  0  0  0  0  0  0  0  0
  -15.2200   -1.9800  138.0623 C   0  0  0  0  0  0  0  0  0  0  0  0
  -16.8855   -6.2764  138.4865 C   0  0  0  0  0  0  0  0  0  0  0  0
  -16.4890   -5.2090  137.4527 C   0  0  0  0  0  0  0  0  0  0  0  0
  -14.2464   -1.0996  138.2751 C   0  0  0  0  0  0  0  0  0  0  0  0
  2  1  1  0
  3  2  1  0
  4  3  1  0
  5  2  1  0
  6  4  2  3
  7  5  2  0
  8  2  1  0
  8  3  1  0
  9  6  1  0
 10  7  1  0
 11  3  1  0
 11 10  1  0
 12  9  2  0
M  END
$$$$

     RDKit          3D

 20 23  0  0  0  0  0  0  0  0999 V2000
  -25.1041  -15.7207  144.6403 C   0  0  0  0  0  0  0  0  0  0  0  0
  -26.6059  -16.0048  144.0449 C   0  0  0  0  0  0  0  0  0  0  0  0
  -24.8209  -16.3644  146.0524 C   0  0  0  0  0  0  0  0  0  0  0  0
  -23.8796  -15.7477  143.6847 C   0  0  0  0  0  0  0  0  0  0  0  0
  -25.6054  -15.6370  147.1786 C   0  0  0  0  0  0  0  0  0  0  0  0
  -26.6046  -16.4476  142.4854 C   0  0  0  0  0  0  0  0  0  0  0  0
  -25.3635  -16.4370  141.6182 C   0  0  0  0  0  0  0  0  0  0  0  0
  -24.7519  -14.7383  148.0967 C   0  0  0  0  0  0  0  0  0  0  0  0
  -27.4114  -17.2262  144.9318 C   0  0  0  0  0  0  0  0  0  0  0  0
  -26.3672  -15.3061  141.4978 C   0  0  0  0  0  0  0  0  0  0  0  0
  -23.3334  -16.4180  146.4602 C   0  0  0  0  0  0  0  0  0  0  0  0
  -24.0326  -16.0115  142.1963 C   0  0  0  0  0  0  0  0  0  0  0  0
  -24.0361  -18.3804  143.3547 C   0  0  0  0  0  0  0  0  0  0  0  0
  -23.6616  -11.6637  147.6383 N   0  0  0  0  0  0  0  0  0  0  0  0
  -23.3261  -17.0509  143.0783 C   0  0  0  0  0  0  0  0  0  0  0  0
  -23.7261  -12.8092  146.7262 C   0  0  0  0  0  0  0  0  0  0  0  0
  -23.2842  -19.1221  144.2474 F   0  0  0  0  0  0  0  0  0  0  0  0
  -22.7716  -15.0694  146.5225 N   0  0  0  0  0  0  0  0  0  0  0  0
  -23.4600  -14.1493  147.4557 C   0  0  0  0  0  0  0  0  0  0  0  0
  -28.6193  -17.3189  145.0988 O   0  0  0  0  0  0  0  0  0  0  0  0
  2  1  1  0
  3  1  1  0
  4  1  1  0
  5  3  1  0
  6  2  1  0
  7  6  1  0
  8  5  1  0
  9  2  1  0
 10  6  1  0
 10  7  1  0
 11  3  1  0
 12  4  1  0
 12  7  1  0
 15  4  1  0
 15 12  1  0
 15 13  1  0
 16 14  1  0
 17 13  1  0
 18 11  1  0
 19  8  1  0
 19 16  1  0
 19 18  1  0
 20  9  2  0
M  END
$$$$

     RDKit          3D

 20 21  0  0  0  0  0  0  0  0999 V2000
  -24.2944    6.5924  138.8773 O   0  0  0  0  0  0  0  0  0  0  0  0
  -23.1794    6.4175  138.0634 C   0  0  0  0  0  0  0  0  0  0  0  0
  -26.9767    8.3089  136.6597 C   0  0  0  0  0  0  0  0  0  0  0  0
  -28.1234    7.2793  136.9767 C   0  0  0  0  0  0  0  0  0  0  0  0
  -22.9684    7.2046  137.1004 O   0  0  0  0  0  0  0  0  0  0  0  0
  -22.2738    5.3821  138.3026 O   0  0  0  0  0  0  0  0  0  0  0  0
  -27.0097    9.6822  137.3283 C   0  0  0  0  0  0  0  0  0  0  0  0
  -30.2537    8.5374  136.0944 C   0  0  0  0  0  0  0  0  0  0  0  0
  -31.5190    7.7660  136.5073 C   0  0  0  0  0  0  0  0  0  0  0  0
  -30.7976    5.7383  137.8609 C   0  0  0  0  0  0  0  0  0  0  0  0
  -30.7794    7.2523  137.7394 C   0  0  0  0  0  0  0  0  0  0  0  0
  -29.4952    8.0193  137.3323 C   0  0  0  0  0  0  0  0  0  0  0  0
  -25.2508    5.5590  139.0979 C   0  0  0  0  0  0  0  0  0  0  0  0
  -26.9880    4.6379  140.7561 C   0  0  0  0  0  0  0  0  0  0  0  0
  -26.3981    3.4511  141.5258 C   0  0  0  0  0  0  0  0  0  0  0  0
  -26.2683    5.5649  137.8989 C   0  0  0  0  0  0  0  0  0  0  0  0
  -25.5513    2.7120  140.6905 O   0  0  0  0  0  0  0  0  0  0  0  0
  -25.9120    5.7384  140.4860 C   0  0  0  0  0  0  0  0  0  0  0  0
  -25.9961    8.6457  137.7838 C   0  0  0  0  0  0  0  0  0  0  0  0
  -27.7013    6.2118  138.0489 C   0  0  0  0  0  0  0  0  0  0  0  0
  2  1  1  0
  4  3  1  0
  5  2  2  0
  6  2  1  0
  7  3  1  0
  9  8  1  0
 11  9  1  0
 11 10  1  0
 12  4  1  0
 12  8  1  0
 12 11  1  0
 13  1  1  0
 15 14  1  0
 16 13  1  0
 17 15  1  0
 18 13  1  0
 18 14  1  0
 19  3  1  0
 19  7  1  0
 20  4  1  0
 20 16  1  0
M  END
$$$$

     RDKit          3D

 21 27  0  0  0  0  0  0  0  0999 V2000
  -31.9903  -10.8761  134.9083 F   0  0  0  0  0  0  0  0  0  0  0  0
  -33.9805   -6.0167  137.2605 C   0  0  0  0  0  0  0  0  0  0  0  0
  -32.6535   -6.0456  137.9798 C   0  0  0  0  0  0  0  0  0  0  0  0
  -33.7962   -6.9888  138.4094 C   0  0  0  0  0  0  0  0  0  0  0  0
  -30.4471   -7.3844  138.4399 C   0  0  0  0  0  0  0  0  0  0  0  0
  -29.8814   -8.6817  138.0091 N   0  0  0  0  0  0  0  0  0  0  0  0
  -29.4362   -9.7343  138.9395 C   0  0  0  0  0  0  0  0  0  0  0  0
  -30.4125  -10.8998  139.0423 C   0  0  0  0  0  0  0  0  0  0  0  0
  -31.9113  -11.0411  138.6303 C   0  0  0  0  0  0  0  0  0  0  0  0
  -28.9273   -9.2581  140.2757 C   0  0  0  0  0  0  0  0  0  0  0  0
  -33.3358   -9.2794  137.2903 C   0  0  0  0  0  0  0  0  0  0  0  0
  -30.3117   -9.8917  140.1980 C   0  0  0  0  0  0  0  0  0  0  0  0
  -31.3904  -10.5317  136.1078 C   0  0  0  0  0  0  0  0  0  0  0  0
  -32.4336  -10.5510  137.2414 C   0  0  0  0  0  0  0  0  0  0  0  0
  -31.7729   -7.2527  137.6755 C   0  0  0  0  0  0  0  0  0  0  0  0
  -32.8458   -8.1711  138.2381 C   0  0  0  0  0  0  0  0  0  0  0  0
  -29.5288   -6.1663  138.1216 C   0  0  0  0  0  0  0  0  0  0  0  0
  -27.6392   -5.9626  137.4669 C   0  0  0  0  0  0  0  0  0  0  0  0
  -28.8929   -6.2236  136.8739 O   0  0  0  0  0  0  0  0  0  0  0  0
  -28.2274   -6.0571  138.8817 C   0  0  0  0  0  0  0  0  0  0  0  0
  -27.0900   -6.9620  138.4502 C   0  0  0  0  0  0  0  0  0  0  0  0
  3  2  1  0
  4  2  1  0
  4  3  1  0
  6  5  1  0
  7  6  1  0
  8  7  1  0
  9  8  1  0
 10  7  1  0
 12  7  1  0
 12  8  1  0
 12 10  1  0
 13  1  1  0
 14  9  1  0
 14 11  1  0
 14 13  1  0
 15  3  1  0
 15  5  1  0
 16  4  1  0
 16 11  1  0
 16 15  1  0
 17  5  1  0
 19 17  1  0
 19 18  1  0
 20 17  1  0
 20 18  1  0
 21 18  1  0
 21 20  1  0
M  END
$$$$

     RDKit          3D

 21 26  0  0  0  0  0  0  0  0999 V2000
  -23.3471   -4.8140  138.7676 C   0  0  0  0  0  0  0  0  0  0  0  0
  -23.6704   -3.7873  137.7623 N   0  0  0  0  0  0  0  0  0  0  0  0
  -23.3149   -2.4568  138.2836 C   0  0  0  0  0  0  0  0  0  0  0  0
  -21.1401   -2.3945  136.8935 C   0  0  0  0  0  0  0  0  0  0  0  0
  -21.5807   -1.3872  135.7978 C   0  0  0  0  0  0  0  0  0  0  0  0
  -22.8538   -1.6950  134.9496 C   0  0  0  0  0  0  0  0  0  0  0  0
  -24.4178   -5.9042  138.9186 C   0  0  0  0  0  0  0  0  0  0  0  0
  -23.7378   -3.4845  139.2301 C   0  0  0  0  0  0  0  0  0  0  0  0
  -23.0550   -3.1189  134.4673 C   0  0  0  0  0  0  0  0  0  0  0  0
  -21.8071   -2.1557  138.2593 C   0  0  0  0  0  0  0  0  0  0  0  0
  -23.3159   -3.3914  133.1812 C   0  0  0  0  0  0  0  0  0  0  0  0
  -25.5947   -5.7205  138.0436 N   0  0  0  0  0  0  0  0  0  0  0  0
  -23.4218   -2.2795  132.1690 C   0  0  0  0  0  0  0  0  0  0  0  0
  -21.0461    0.0381  135.9749 C   0  0  0  0  0  0  0  0  0  0  0  0
  -20.4290   -0.8751  134.9259 C   0  0  0  0  0  0  0  0  0  0  0  0
  -24.1959   -1.1036  132.7837 C   0  0  0  0  0  0  0  0  0  0  0  0
  -24.1334   -0.9852  135.3802 C   0  0  0  0  0  0  0  0  0  0  0  0
  -23.4811   -0.6021  134.0538 C   0  0  0  0  0  0  0  0  0  0  0  0
  -24.5915   -6.7635  137.7511 C   0  0  0  0  0  0  0  0  0  0  0  0
  -25.0637   -8.0362  138.0304 F   0  0  0  0  0  0  0  0  0  0  0  0
  -24.0931   -2.7723  130.8866 C   0  0  0  0  0  0  0  0  0  0  0  0
  2  1  1  0
  3  2  1  0
  5  4  1  0
  6  5  1  0
  7  1  1  0
  8  1  1  0
  8  2  1  0
  8  3  1  0
  9  6  1  0
 10  3  1  0
 10  4  1  0
 11  9  2  0
 12  7  1  0
 13 11  1  0
 14  5  1  0
 15  5  1  0
 15 14  1  0
 16 13  1  0
 17  6  1  0
 18  6  1  0
 18 16  1  0
 18 17  1  0
 19  7  1  0
 19 12  1  0
 20 19  1  0
 21 13  1  0
M  END
$$$$

     RDKit          3D

 21 24  0  0  0  0  0  0  0  0999 V2000
  -28.4967   -3.4516  129.1819 O   0  0  0  0  0  0  0  0  0  0  0  0
  -26.3112   -3.1318  128.3106 C   0  0  0  0  0  0  0  0  0  0  0  0
  -24.8305   -3.0184  128.5975 N   0  0  0  0  0  0  0  0  0  0  0  0
  -24.5122   -1.6565  129.1668 C   0  0  0  0  0  0  0  0  0  0  0  0
  -27.1639   -3.3490  129.5201 N   0  0  0  0  0  0  0  0  0  0  0  0
  -23.2377   -0.3411  130.2561 C   0  0  0  0  0  0  0  0  0  0  0  0
  -26.9628   -2.3630  130.6272 C   0  0  0  0  0  0  0  0  0  0  0  0
  -27.8845   -2.2954  131.7825 C   0  0  0  0  0  0  0  0  0  0  0  0
  -26.6968    0.0126  132.8432 C   0  0  0  0  0  0  0  0  0  0  0  0
  -26.5480   -3.0421  132.0042 C   0  0  0  0  0  0  0  0  0  0  0  0
  -26.6216   -4.5845  131.8225 C   0  0  0  0  0  0  0  0  0  0  0  0
  -26.9307   -4.0232  133.1403 C   0  0  0  0  0  0  0  0  0  0  0  0
  -23.9620    1.0013  130.7330 C   0  0  0  0  0  0  0  0  0  0  0  0
  -25.5271   -0.5345  133.6900 C   0  0  0  0  0  0  0  0  0  0  0  0
  -25.5334    1.2064  130.6372 C   0  0  0  0  0  0  0  0  0  0  0  0
  -27.9662   -0.9102  132.5203 C   0  0  0  0  0  0  0  0  0  0  0  0
  -26.3612    1.2648  131.9610 C   0  0  0  0  0  0  0  0  0  0  0  0
  -24.0126   -1.6089  130.6213 C   0  0  0  0  0  0  0  0  0  0  0  0
  -23.3666   -0.7227  128.7538 C   0  0  0  0  0  0  0  0  0  0  0  0
  -24.0686   -3.3440  127.3545 C   0  0  0  0  0  0  0  0  0  0  0  0
  -22.8591   -4.2154  127.6967 C   0  0  0  0  0  0  0  0  0  0  0  0
  3  2  1  0
  4  3  1  0
  5  1  1  0
  5  2  1  0
  7  5  1  0
  8  7  1  0
 10  7  1  0
 10  8  1  0
 11 10  1  0
 12 10  1  0
 12 11  1  0
 13  6  1  0
 14  9  1  0
 15 13  1  0
 16  8  1  0
 16  9  1  0
 17  9  1  0
 17 15  1  0
 18  4  1  0
 18  6  1  0
 19  4  1  0
 19  6  1  0
 20  3  1  0
 21 20  1  0
M  END
$$$$

     RDKit          3D

 11 11  0  0  0  0  0  0  0  0999 V2000
  -19.2697  -18.0361  134.0079 O   0  0  0  0  0  1  0  0  0  0  0  0
  -19.0041  -19.3660  134.3429 C   0  0  0  0  0  0  0  0  0  0  0  0
  -18.9637  -20.2645  133.1126 C   0  0  0  0  0  0  0  0  0  0  0  0
  -17.7360  -21.2052  133.0648 C   0  0  0  0  0  0  0  0  0  0  0  0
  -20.2095  -20.8961  133.7201 C   0  0  0  0  0  0  0  0  0  0  0  0
  -20.2011  -20.0055  134.8767 N   0  0  0  0  0  2  0  0  0  0  0  0
  -17.9332  -22.3956  132.2097 N   0  0  0  0  0  2  0  0  0  0  0  0
  -18.2546  -22.2495  130.7727 C   0  0  0  0  0  0  0  0  0  0  0  0
  -19.7008  -22.2476  130.5399 N   0  0  0  0  0  0  0  0  0  0  0  0
  -16.4345  -20.4555  132.7399 C   0  0  0  0  0  0  0  0  0  0  0  0
  -17.6083  -21.0990  130.1448 N   0  0  0  0  0  2  0  0  0  0  0  0
  2  1  1  0
  3  2  1  0
  4  3  1  0
  5  3  1  0
  6  2  1  0
  6  5  1  0
  7  4  1  0
  8  7  1  0
  9  8  1  0
 10  4  1  0
 11  8  1  0
M  RAD  4   1   2   6   2   7   2  11   2
M  END
$$$$

     RDKit          3D

 21 26  0  0  0  0  0  0  0  0999 V2000
  -21.4260   -3.4382  142.2583 O   0  0  0  0  0  0  0  0  0  0  0  0
  -20.2686   -3.5890  141.4863 C   0  0  0  0  0  0  0  0  0  0  0  0
  -20.2385   -4.9970  140.8348 C   0  0  0  0  0  0  0  0  0  0  0  0
  -18.9757   -3.2989  142.3096 C   0  0  0  0  0  0  0  0  0  0  0  0
  -18.6924   -1.8272  143.6507 C   0  0  0  0  0  0  0  0  0  0  0  0
  -18.6343   -1.9317  142.2499 O   0  0  0  0  0  0  0  0  0  0  0  0
  -20.2700   -6.1337  141.9088 C   0  0  0  0  0  0  0  0  0  0  0  0
  -20.7994   -8.2250  141.6886 C   0  0  0  0  0  0  0  0  0  0  0  0
  -21.5728   -8.1613  142.9961 C   0  0  0  0  0  0  0  0  0  0  0  0
  -20.7708   -8.1060  144.3106 C   0  0  0  0  0  0  0  0  0  0  0  0
  -21.6750   -7.5894  145.4485 C   0  0  0  0  0  0  0  0  0  0  0  0
  -21.3203   -5.1116  139.7464 C   0  0  0  0  0  0  0  0  0  0  0  0
  -21.5662   -6.9378  142.0945 C   0  0  0  0  0  0  0  0  0  0  0  0
  -19.0829   -3.2741  143.8221 C   0  0  0  0  0  0  0  0  0  0  0  0
  -19.5346   -7.3961  141.4936 C   0  0  0  0  0  0  0  0  0  0  0  0
  -22.7262   -8.4216  145.8564 O   0  0  0  0  0  0  0  0  0  0  0  0
  -21.1322   -6.7080  146.5756 C   0  0  0  0  0  0  0  0  0  0  0  0
  -19.6769   -6.2354  146.5450 C   0  0  0  0  0  0  0  0  0  0  0  0
  -20.8729   -6.3250  143.8858 S   0  0  0  0  0  4  0  0  0  0  0  0
  -18.7446   -7.3634  146.9512 C   0  0  0  0  0  0  0  0  0  0  0  0
  -22.0132   -6.0984  145.4822 C   0  0  0  0  0  0  0  0  0  0  0  0
  2  1  1  0
  3  2  1  0
  4  2  1  0
  6  4  1  0
  6  5  1  0
  7  3  1  0
  9  8  1  0
 10  9  1  0
 11 10  1  0
 12  3  1  0
 13  7  1  0
 13  8  1  0
 13  9  1  0
 14  4  1  0
 14  5  1  0
 15  7  1  0
 15  8  1  0
 16 11  1  0
 17 11  1  0
 18 17  1  0
 19  1  1  0
 19 18  1  0
 20 18  1  0
 20 19  1  0
 21 11  1  0
 21 17  1  0
M  END
$$$$

     RDKit          3D

 21 24  0  0  0  0  0  0  0  0999 V2000
  -39.7731  -20.4398  150.9361 C   0  0  0  0  0  0  0  0  0  0  0  0
  -33.2258  -24.5909  150.2267 As  0  0  0  0  0  3  0  0  0  0  0  0
  -41.1067  -18.4726  150.3751 C   0  0  0  0  0  0  0  0  0  0  0  0
  -40.8060  -20.8896  149.8958 C   0  0  0  0  0  0  0  0  0  0  0  0
  -39.3684  -21.1675  149.5380 C   0  0  0  0  0  0  0  0  0  0  0  0
  -30.6929  -22.7323  150.6464 O   0  0  0  0  0  0  0  0  0  0  0  0
  -24.7169  -19.8027  143.2519 O   0  0  0  0  0  0  0  0  0  0  0  0
  -25.9360  -20.6366  144.5041 C   0  0  0  0  0  0  0  0  0  0  0  0
  -42.1746  -16.5943  150.3609 C   0  0  0  0  0  0  0  0  0  0  0  0
  -41.1101  -16.2049  151.2751 C   0  0  0  0  0  0  0  0  0  0  0  0
  -39.7925  -16.1268  150.5968 C   0  0  0  0  0  0  0  0  0  0  0  0
  -41.6189  -15.0180  150.9147 O   0  0  0  0  0  0  0  0  0  0  0  0
  -38.9639  -15.0840  151.3273 O   0  0  0  0  0  0  0  0  0  0  0  0
  -36.3028  -23.9436  150.5294 C   0  0  0  0  0  0  0  0  0  0  0  0
  -38.1369  -21.8746  150.6959 C   0  0  0  0  0  0  0  0  0  0  0  0
  -30.7494  -22.9853  149.1763 C   0  0  0  0  0  0  0  0  0  0  0  0
  -39.0903  -15.3332  152.8271 C   0  0  0  0  0  0  0  0  0  0  0  0
  -28.7984  -21.8189  148.1573 C   0  0  0  0  0  0  0  0  0  0  0  0
  -27.2712  -21.1692  146.4970 C   0  0  0  0  0  0  0  0  0  0  0  0
  -29.5881  -20.3963  147.9971 C   0  0  0  0  0  0  0  0  0  0  0  0
  -39.9028  -20.1869  148.1479 C   0  0  0  0  0  0  0  0  0  0  0  0
  3  1  1  0
  4  1  1  0
  5  1  1  0
  5  4  1  0
  8  7  1  0
  9  3  1  0
 10  9  1  0
 11 10  1  0
 12  9  1  0
 12 10  1  0
 13 11  1  0
 14  2  1  0
 15  1  1  0
 15  5  1  0
 15 14  1  0
 16  2  1  0
 16  6  1  0
 17 13  1  0
 18 16  1  0
 19  8  1  0
 19 18  1  0
 20 18  1  0
 21  4  1  0
 21  5  1  0
M  END
$$$$

     RDKit          3D

 21 26  0  0  0  0  0  0  0  0999 V2000
  -22.7405    0.6309  134.4845 N   0  0  0  0  0  0  0  0  0  0  0  0
  -22.0442    0.4335  133.1781 C   0  0  0  0  0  0  0  0  0  0  0  0
  -20.9623    1.4288  133.0564 N   0  0  0  0  0  0  0  0  0  0  0  0
  -22.9122    0.3056  131.8689 C   0  0  0  0  0  0  0  0  0  0  0  0
  -23.6905    1.5937  131.4042 C   0  0  0  0  0  0  0  0  0  0  0  0
  -21.2518    0.8503  129.9577 C   0  0  0  0  0  0  0  0  0  0  0  0
  -19.9848    1.3723  130.7100 C   0  0  0  0  0  0  0  0  0  0  0  0
  -22.1903    2.0301  129.5587 C   0  0  0  0  0  0  0  0  0  0  0  0
  -22.7681    2.6213  130.8180 C   0  0  0  0  0  0  0  0  0  0  0  0
  -19.8353    1.0023  132.2028 C   0  0  0  0  0  0  0  0  0  0  0  0
  -22.0135   -0.2698  130.7227 C   0  0  0  0  0  0  0  0  0  0  0  0
  -24.0545    1.2568  134.4867 C   0  0  0  0  0  0  0  0  0  0  0  0
  -24.8112    0.0533  135.0374 C   0  0  0  0  0  0  0  0  0  0  0  0
  -25.8554   -0.6180  134.1115 C   0  0  0  0  0  0  0  0  0  0  0  0
  -24.0171    2.3061  135.6377 C   0  0  0  0  0  0  0  0  0  0  0  0
  -23.6773    1.8482  129.8907 C   0  0  0  0  0  0  0  0  0  0  0  0
  -23.4116   -0.5994  134.9822 C   0  0  0  0  0  0  0  0  0  0  0  0
  -24.3086    2.7607  134.2531 C   0  0  0  0  0  0  0  0  0  0  0  0
  -26.9709    0.3296  133.6053 C   0  0  0  0  0  0  0  0  0  0  0  0
  -27.7967    0.9376  134.7551 C   0  0  0  0  0  0  0  0  0  0  0  0
  -27.8949   -0.4234  132.6355 C   0  0  0  0  0  0  0  0  0  0  0  0
  2  1  1  0
  3  2  1  0
  4  2  1  0
  5  4  1  0
  7  6  1  0
  8  6  1  0
  9  5  1  0
  9  8  1  0
 10  3  1  0
 10  7  1  0
 11  4  1  0
 11  6  1  0
 12  1  1  0
 13 12  1  0
 14 13  1  0
 15 12  1  0
 16  5  1  0
 16  8  1  0
 16  9  1  0
 17  1  1  0
 17 13  1  0
 18 12  1  0
 18 15  1  0
 19 14  1  0
 20 19  1  0
 21 19  1  0
M  END
$$$$

     RDKit          3D

 20 22  0  0  0  0  0  0  0  0999 V2000
  -17.6623   -0.7816  144.8980 O   0  0  0  0  0  0  0  0  0  0  0  0
  -17.9037    0.0045  142.5749 C   0  0  0  0  0  0  0  0  0  0  0  0
  -19.4824   -0.1476  141.9728 C   0  0  0  0  0  0  0  0  0  0  0  0
  -22.5014   -0.0399  142.0487 C   0  0  0  0  0  0  0  0  0  0  0  0
  -24.1165    0.1602  141.0998 C   0  0  0  0  0  0  0  0  0  0  0  0
  -28.0149    0.4279  138.3220 C   0  0  0  0  0  0  0  0  0  0  0  0
  -24.1326    3.0791  137.9555 C   0  0  0  0  0  0  0  0  0  0  0  0
  -23.9876    1.8481  138.4135 C   0  0  0  0  0  0  0  0  0  0  0  0
  -19.9258    0.7180  140.8218 C   0  0  0  0  0  0  0  0  0  0  0  0
  -18.9979   -0.5351  140.5412 C   0  0  0  0  0  0  0  0  0  0  0  0
  -25.3379    0.9656  138.0683 C   0  0  0  0  0  0  0  0  0  0  0  0
  -26.4711    0.7636  139.1445 C   0  0  0  0  0  0  0  0  0  0  0  0
  -15.5351   -0.9291  143.5347 C   0  0  0  0  0  0  0  0  0  0  0  0
  -15.0371   -2.1276  142.8081 C   0  0  0  0  0  0  0  0  0  0  0  0
  -17.2560   -1.0282  143.5853 C   0  0  0  0  0  0  0  0  0  0  0  0
  -20.8616   -0.5028  142.7391 C   0  0  0  0  0  0  0  0  0  0  0  0
  -14.8286    0.0832  142.5643 C   0  0  0  0  0  0  0  0  0  0  0  0
  -14.2458   -1.2146  141.8708 C   0  0  0  0  0  0  0  0  0  0  0  0
  -25.6032    0.4267  140.6378 C   0  0  0  0  0  0  0  0  0  0  0  0
  -17.5648   -0.4803  141.1465 C   0  0  0  0  0  0  0  0  0  0  0  0
  3  2  1  0
  5  4  1  0
  8  7  2  0
  9  3  1  0
 10  3  1  0
 10  9  1  0
 11  8  1  0
 12  6  1  0
 12 11  1  0
 14 13  1  0
 15  1  1  0
 15  2  1  0
 15 13  1  0
 16  3  1  0
 16  4  1  0
 17 13  1  0
 18 14  1  0
 18 17  1  0
 19  5  2  3
 19 12  1  0
 20  2  1  0
 20 10  1  0
M  END
$$$$

     RDKit          3D

 21 26  0  0  0  0  0  0  0  0999 V2000
  -17.3106   -5.8470  141.1745 C   0  0  0  0  0  0  0  0  0  0  0  0
  -17.4137   -4.4029  140.8370 C   0  0  0  0  0  0  0  0  0  0  0  0
  -15.9603   -5.9088  141.9023 C   0  0  0  0  0  0  0  0  0  0  0  0
  -15.9560   -7.0213  142.7828 C   0  0  0  0  0  0  0  0  0  0  0  0
  -16.1555   -5.5627  143.5671 B   0  0  0  0  0  0  0  0  0  0  0  0
  -18.8299   -3.8945  140.6920 C   0  0  0  0  0  0  0  0  0  0  0  0
  -19.5705   -3.7502  142.0360 C   0  0  0  0  0  0  0  0  0  0  0  0
  -17.0567   -5.4173  139.7165 C   0  0  0  0  0  0  0  0  0  0  0  0
  -16.2466   -4.3879  138.9735 C   0  0  0  0  0  0  0  0  0  0  0  0
  -20.6024   -4.8578  142.3037 C   0  0  0  0  0  0  0  0  0  0  0  0
  -18.4473   -5.2862  140.2556 C   0  0  0  0  0  0  0  0  0  0  0  0
  -14.7571   -6.5426  143.3830 C   0  0  0  0  0  0  0  0  0  0  0  0
  -15.4559   -8.0418  145.4273 C   0  0  0  0  0  0  0  0  0  0  0  0
  -21.7746   -4.8147  141.3105 C   0  0  0  0  0  0  0  0  0  0  0  0
  -13.6222   -6.3159  145.6712 C   0  0  0  0  0  0  0  0  0  0  0  0
  -22.7486   -5.9809  141.5312 C   0  0  0  0  0  0  0  0  0  0  0  0
  -14.3271   -7.2835  144.6897 C   0  0  0  0  0  0  0  0  0  0  0  0
  -12.2705   -5.8091  145.1411 C   0  0  0  0  0  0  0  0  0  0  0  0
  -22.1306   -7.2482  141.1476 N   0  0  0  0  0  0  0  0  0  0  0  0
  -16.6293   -3.9599  137.7658 C   0  0  0  0  0  0  0  0  0  0  0  0
  -11.5377   -4.9866  146.1975 C   0  0  0  0  0  0  0  0  0  0  0  0
  2  1  1  0
  3  1  1  0
  4  3  1  0
  5  3  1  0
  5  4  1  0
  6  2  1  0
  7  6  1  0
  8  1  1  0
  8  2  1  0
  9  8  1  0
 10  7  1  0
 11  1  1  0
 11  2  1  0
 11  6  1  0
 11  8  1  0
 12  4  1  0
 12  5  1  0
 14 10  1  0
 16 14  1  0
 17 12  1  0
 17 13  1  0
 17 15  1  0
 18 15  1  0
 19 16  1  0
 20  9  2  0
 21 18  1  0
M  END
$$$$

     RDKit          3D

 21 24  0  0  0  0  0  0  0  0999 V2000
  -27.6729   -7.0581  139.7869 O   0  0  0  0  0  0  0  0  0  0  0  0
  -27.6361   -6.0528  140.7698 C   0  0  0  0  0  0  0  0  0  0  0  0
  -26.3153   -5.5868  140.9284 O   0  0  0  0  0  0  0  0  0  0  0  0
  -28.5439   -4.8807  140.3394 C   0  0  0  0  0  0  0  0  0  0  0  0
  -28.9083   -4.9285  137.8032 C   0  0  0  0  0  0  0  0  0  0  0  0
  -28.7470   -4.1682  136.4742 C   0  0  0  0  0  0  0  0  0  0  0  0
  -29.2743   -2.7192  136.4448 C   0  0  0  0  0  0  0  0  0  0  0  0
  -30.6589   -2.4784  137.0726 C   0  0  0  0  0  0  0  0  0  0  0  0
  -31.8472   -3.0348  136.2555 C   0  0  0  0  0  0  0  0  0  0  0  0
  -32.9478   -3.9806  136.5750 C   0  0  0  0  0  0  0  0  0  0  0  0
  -32.4046   -5.2970  136.0045 C   0  0  0  0  0  0  0  0  0  0  0  0
  -32.9565   -4.3091  135.0386 C   0  0  0  0  0  0  0  0  0  0  0  0
  -33.1608   -2.4036  136.4947 C   0  0  0  0  0  0  0  0  0  0  0  0
  -33.0677   -1.7925  135.0920 C   0  0  0  0  0  0  0  0  0  0  0  0
  -34.3949   -1.6083  134.3468 C   0  0  0  0  0  0  0  0  0  0  0  0
  -34.3330   -4.6525  134.4513 C   0  0  0  0  0  0  0  0  0  0  0  0
  -32.1592   -2.9892  134.7807 C   0  0  0  0  0  0  0  0  0  0  0  0
  -33.4382   -1.6343  137.8082 C   0  0  0  0  0  0  0  0  0  0  0  0
  -28.1763   -4.2529  138.9781 C   0  0  0  0  0  0  0  0  0  0  0  0
  -28.1099   -6.5794  141.9900 O   0  0  0  0  0  0  0  0  0  0  0  0
  -33.4290   -0.1153  137.6369 C   0  0  0  0  0  0  0  0  0  0  0  0
  2  1  1  0
  3  2  1  0
  4  2  1  0
  6  5  1  0
  7  6  1  0
  8  7  1  0
  9  8  1  0
 10  9  1  0
 11 10  1  0
 12 10  1  0
 12 11  1  0
 13  9  1  0
 13 10  1  0
 14 13  1  0
 15 14  1  0
 16 12  1  0
 17  9  1  0
 17 12  1  0
 17 14  1  0
 18 13  1  0
 19  4  1  0
 19  5  1  0
 20  2  1  0
 21 18  1  0
M  END
$$$$

     RDKit          3D

 21 29  0  0  0  0  0  0  0  0999 V2000
  -24.9266    0.2087  136.8969 C   0  0  0  0  0  0  0  0  0  0  0  0
  -24.4262    1.0412  135.6988 C   0  0  0  0  0  0  0  0  0  0  0  0
  -26.2669   -0.4674  136.5576 C   0  0  0  0  0  0  0  0  0  0  0  0
  -27.0965   -0.9853  137.7183 C   0  0  0  0  0  0  0  0  0  0  0  0
  -22.9197    1.4760  135.6836 C   0  0  0  0  0  0  0  0  0  0  0  0
  -27.9922    0.0577  138.3479 C   0  0  0  0  0  0  0  0  0  0  0  0
  -27.4483    0.3564  136.9839 C   0  0  0  0  0  0  0  0  0  0  0  0
  -27.3908    0.8304  139.3268 F   0  0  0  0  0  0  0  0  0  0  0  0
  -22.3985    1.9365  134.3362 C   0  0  0  0  0  0  0  0  0  0  0  0
  -22.8761    2.9887  133.6665 C   0  0  0  0  0  0  0  0  0  0  0  0
  -23.9800    3.8044  134.1951 C   0  0  0  0  0  0  0  0  0  0  0  0
  -23.2987    0.0226  135.5299 C   0  0  0  0  0  0  0  0  0  0  0  0
  -24.4909    3.5351  135.4007 C   0  0  0  0  0  0  0  0  0  0  0  0
  -23.9945    2.3949  136.2437 C   0  0  0  0  0  0  0  0  0  0  0  0
  -24.4661    4.9926  133.4131 C   0  0  0  0  0  0  0  0  0  0  0  0
  -23.6563    6.1675  133.7706 N   0  0  0  0  0  0  0  0  0  0  0  0
  -24.2562    7.4098  133.2318 C   0  0  0  0  0  0  0  0  0  0  0  0
  -24.1547    8.5035  134.2667 C   0  0  0  0  0  0  0  0  0  0  0  0
  -23.7548   -0.7335  136.7598 C   0  0  0  0  0  0  0  0  0  0  0  0
  -23.5279    7.9231  135.5144 C   0  0  0  0  0  0  0  0  0  0  0  0
  -24.4344    7.0648  134.6470 C   0  0  0  0  0  0  0  0  0  0  0  0
  2  1  1  0
  3  1  1  0
  4  3  1  0
  5  2  1  0
  6  4  1  0
  7  3  1  0
  7  4  1  0
  7  6  1  0
  8  6  1  0
  9  5  1  0
 10  9  2  0
 11 10  1  0
 12  2  1  0
 12  5  1  0
 13 11  2  0
 14  2  1  0
 14  5  1  0
 14 13  1  0
 15 11  1  0
 16 15  1  0
 17 16  1  0
 18 17  1  0
 19  1  1  0
 19 12  1  0
 20 18  1  0
 21 16  1  0
 21 17  1  0
 21 18  1  0
 21 20  1  0
M  END
$$$$

     RDKit          3D

 21 26  0  0  0  0  0  0  0  0999 V2000
  -34.8767   -4.3393  137.7008 O   0  0  0  0  0  0  0  0  0  0  0  0
  -34.0697   -3.3026  138.1220 C   0  0  0  0  0  0  0  0  0  0  0  0
  -34.6011   -2.7241  139.2779 O   0  0  0  0  0  0  0  0  0  0  0  0
  -33.6432   -4.7609  138.2826 C   0  0  0  0  0  0  0  0  0  0  0  0
  -33.8299   -2.0803  136.6140 Br  0  0  0  0  0  0  0  0  0  0  0  0
  -32.3140   -4.7489  137.4637 C   0  0  0  0  0  0  0  0  0  0  0  0
  -31.0341   -5.0844  138.2544 C   0  0  0  0  0  0  0  0  0  0  0  0
  -30.9808   -4.3513  139.6120 C   0  0  0  0  0  0  0  0  0  0  0  0
  -29.5803   -4.2041  140.2497 C   0  0  0  0  0  0  0  0  0  0  0  0
  -27.6513   -4.5730  139.3352 C   0  0  0  0  0  0  0  0  0  0  0  0
  -33.2557   -5.8801  137.2890 C   0  0  0  0  0  0  0  0  0  0  0  0
  -27.1925   -3.2691  139.9251 C   0  0  0  0  0  0  0  0  0  0  0  0
  -28.6346   -5.3959  140.1554 C   0  0  0  0  0  0  0  0  0  0  0  0
  -26.2477   -2.2757  139.3187 C   0  0  0  0  0  0  0  0  0  0  0  0
  -28.6163   -3.3440  139.4384 C   0  0  0  0  0  0  0  0  0  0  0  0
  -25.8873   -1.8794  140.7744 C   0  0  0  0  0  0  0  0  0  0  0  0
  -26.2716   -0.4365  141.1380 C   0  0  0  0  0  0  0  0  0  0  0  0
  -26.8709   -2.9273  141.3530 C   0  0  0  0  0  0  0  0  0  0  0  0
  -25.3275    0.5577  140.4563 C   0  0  0  0  0  0  0  0  0  0  0  0
  -24.1328    0.9424  141.2073 C   0  0  0  0  0  0  0  0  0  0  0  0
  -25.2955    1.8572  141.1576 N   0  0  0  0  0  0  0  0  0  0  0  0
  2  1  1  0
  3  2  1  0
  4  1  1  0
  4  2  1  0
  5  2  1  0
  6  4  1  0
  7  6  1  0
  8  7  1  0
  9  8  1  0
 11  4  1  0
 11  6  1  0
 12 10  1  0
 13  9  1  0
 13 10  1  0
 14 12  1  0
 15  9  1  0
 15 10  1  0
 15 12  1  0
 16 14  1  0
 17 16  1  0
 18 12  1  0
 18 16  1  0
 19 17  1  0
 20 19  1  0
 21 19  1  0
 21 20  1  0
M  END
$$$$

     RDKit          3D

 21 23  0  0  0  0  0  0  0  0999 V2000
  -26.8510   -5.9630  139.0728 Mg  0  0  0  0  0  2  0  0  0  0  0  0
  -24.5587  -11.8380  141.5596 O   0  0  0  0  0  0  0  0  0  0  0  0
  -23.4877  -11.2872  141.0329 O   0  0  0  0  0  0  0  0  0  0  0  0
  -27.0244   -8.0052  137.4583 C   0  0  0  0  0  0  0  0  0  0  0  0
  -26.2965   -7.3710  142.6933 C   0  0  0  0  0  0  0  0  0  0  0  0
  -27.0760   -8.0478  141.5595 C   0  0  0  0  0  0  0  0  0  0  0  0
  -26.2652   -8.1901  140.2269 C   0  0  0  0  0  0  0  0  0  0  0  0
  -25.9633  -11.0247  140.8822 P   0  0  0  0  0  0  0  0  0  0  0  0
  -27.6406   -6.8062  136.5977 C   0  0  0  0  0  0  0  0  0  0  0  0
  -27.2509   -7.9236  139.0224 C   0  0  0  0  0  0  0  0  0  0  0  0
  -25.2716   -9.3868  140.2510 C   0  0  0  0  0  0  0  0  0  0  0  0
  -25.6397   -8.4225  136.9302 C   0  0  0  0  0  0  0  0  0  0  0  0
  -24.5237   -6.2148  136.3142 C   0  0  0  0  0  0  0  0  0  0  0  0
  -27.3094   -5.2383  136.6885 C   0  0  0  0  0  0  0  0  0  0  0  0
  -26.1778   -4.7457  137.6291 C   0  0  0  0  0  0  0  0  0  0  0  0
  -24.5314   -7.4144  137.2540 C   0  0  0  0  0  0  0  0  0  0  0  0
  -23.1251   -7.8002  136.7631 C   0  0  0  0  0  0  0  0  0  0  0  0
  -23.0724   -6.5265  135.9289 C   0  0  0  0  0  0  0  0  0  0  0  0
  -24.7505   -4.8902  137.0462 C   0  0  0  0  0  0  0  0  0  0  0  0
  -26.3662   -3.4368  138.0833 O   0  0  0  0  0  0  0  0  0  0  0  0
  -26.1956  -11.9519  139.2886 C   0  0  0  0  0  0  0  0  0  0  0  0
  3  2  1  0
  6  5  1  0
  7  6  1  0
  8  2  1  0
  9  4  1  0
 10  1  1  0
 10  4  1  0
 10  7  1  0
 11  7  1  0
 11  8  1  0
 12  4  1  0
 14  9  1  0
 15  1  1  0
 15 14  1  0
 16 12  1  0
 16 13  1  0
 17 16  1  0
 18 13  1  0
 18 17  1  0
 19 13  1  0
 19 15  1  0
 20 15  1  0
 21  8  1  0
M  END
$$$$

     RDKit          3D

 20 22  0  0  0  0  0  0  0  0999 V2000
  -22.7274   -5.6804  146.1643 N   0  0  0  0  0  0  0  0  0  0  0  0
  -23.3522   -6.8083  145.7258 C   0  0  0  0  0  0  0  0  0  0  0  0
  -22.5942   -5.5378  147.5197 C   0  0  0  0  0  0  0  0  0  0  0  0
  -22.9466   -8.0978  146.0582 C   0  0  0  0  0  0  0  0  0  0  0  0
  -24.4104   -6.7055  144.8362 C   0  0  0  0  0  0  0  0  0  0  0  0
  -25.6281   -7.3331  145.0835 C   0  0  0  0  0  0  0  0  0  0  0  0
  -22.1284   -8.1403  144.9275 C   0  0  0  0  0  0  0  0  0  0  0  0
  -21.0687   -7.3208  144.4536 N   0  0  0  0  0  2  0  0  0  0  0  0
  -25.7707   -8.6734  144.7292 C   0  0  0  0  0  0  0  0  0  0  0  0
  -24.6935   -9.5403  144.8691 C   0  0  0  0  0  0  0  0  0  0  0  0
  -24.6744  -10.4937  145.9151 C   0  0  0  0  0  0  0  0  0  0  0  0
  -24.9306  -10.9171  145.0405 C   0  0  0  0  0  0  0  0  0  0  0  0
  -20.0625   -7.6955  145.3446 C   0  0  0  0  0  0  0  0  0  0  0  0
  -22.9242   -4.3828  148.1277 C   0  0  0  0  0  0  0  0  0  0  0  0
  -19.9082   -7.0359  144.1266 N   0  0  0  0  0  2  0  0  0  0  0  0
  -23.1548   -4.3405  149.5124 C   0  0  0  0  0  0  0  0  0  0  0  0
  -23.7402   -5.4138  150.1724 C   0  0  0  0  0  0  0  0  0  0  0  0
  -25.6135   -6.0493  145.1380 C   0  0  0  0  0  0  0  0  0  0  0  0
  -24.3091   -4.1384  150.0890 C   0  0  0  0  0  0  0  0  0  0  0  0
  -24.9284   -5.2666  150.5473 N   0  0  0  0  0  0  0  0  0  0  0  0
  2  1  1  0
  3  1  1  0
  4  2  1  0
  5  2  1  0
  6  5  1  0
  7  4  1  0
  8  7  1  0
  9  6  1  0
 10  9  1  0
 12 10  1  0
 12 11  1  0
 13  8  1  0
 14  3  2  3
 15 13  1  0
 16 14  1  0
 17 16  1  0
 18  5  1  0
 18  6  1  0
 19 16  1  0
 19 17  1  0
 20 17  1  0
 20 19  1  0
M  RAD  2   8   2  15   2
M  END
$$$$

     RDKit          3D

  6  5  0  0  0  0  0  0  0  0999 V2000
  -33.2809   -2.2956  140.3541 O   0  0  0  0  0  0  0  0  0  0  0  0
  -32.1519   -1.8839  141.6060 P   0  0  0  0  0  0  0  0  0  0  0  0
  -30.9932   -3.1043  141.1649 O   0  0  0  0  0  0  0  0  0  0  0  0
  -31.3836   -0.6117  140.7054 O   0  0  0  0  0  0  0  0  0  0  0  0
  -31.1671   -4.3428  142.3675 P   0  0  0  0  0  0  0  0  0  0  0  0
  -30.1704   -5.4943  141.5331 O   0  0  0  0  0  0  0  0  0  0  0  0
  2  1  1  0
  3  2  1  0
  4  2  1  0
  5  3  1  0
  6  5  1  0
M  END
$$$$

     RDKit          3D

 21 24  0  0  0  0  0  0  0  0999 V2000
  -27.5085   -9.7780  154.1189 O   0  0  0  0  0  0  0  0  0  0  0  0
  -28.6133  -10.6130  153.5358 C   0  0  0  0  0  0  0  0  0  0  0  0
  -28.2015  -12.1985  153.2514 C   0  0  0  0  0  0  0  0  0  0  0  0
  -29.4486  -10.0201  152.3819 C   0  0  0  0  0  0  0  0  0  0  0  0
  -29.8023   -8.5211  152.1091 C   0  0  0  0  0  0  0  0  0  0  0  0
  -29.2786  -12.8766  152.3046 C   0  0  0  0  0  0  0  0  0  0  0  0
  -30.8385  -12.2276  152.5286 C   0  0  0  0  0  0  0  0  0  0  0  0
  -30.5777   -7.7549  153.1640 C   0  0  0  0  0  0  0  0  0  0  0  0
  -29.8819  -10.7573  154.3712 C   0  0  0  0  0  0  0  0  0  0  0  0
  -31.5559  -12.1676  151.1257 C   0  0  0  0  0  0  0  0  0  0  0  0
  -30.6623  -10.7390  153.0316 C   0  0  0  0  0  0  0  0  0  0  0  0
  -30.1871   -7.4523  154.4652 C   0  0  0  0  0  0  0  0  0  0  0  0
  -28.8321   -7.4387  155.0788 C   0  0  0  0  0  0  0  0  0  0  0  0
  -27.6740   -7.2341  154.0574 C   0  0  0  0  0  0  0  0  0  0  0  0
  -30.7010  -11.6779  149.7970 C   0  0  0  0  0  0  0  0  0  0  0  0
  -29.5334  -12.5057  149.1923 C   0  0  0  0  0  0  0  0  0  0  0  0
  -29.6898  -13.9977  149.7530 C   0  0  0  0  0  0  0  0  0  0  0  0
  -28.9067  -14.0818  151.1856 C   0  0  0  0  0  0  0  0  0  0  0  0
  -27.1724   -8.5506  153.4217 C   0  0  0  0  0  0  0  0  0  0  0  0
  -26.5510   -8.6789  152.2454 C   0  0  0  0  0  0  0  0  0  0  0  0
  -29.2487  -15.1536  148.8045 C   0  0  0  0  0  0  0  0  0  0  0  0
  2  1  1  0
  3  2  1  0
  4  2  1  0
  5  4  1  0
  6  3  1  0
  7  6  1  0
  8  5  1  0
  9  2  1  0
 10  7  1  0
 11  4  1  0
 11  7  1  0
 11  9  1  0
 12  8  2  3
 13 12  1  0
 14 13  1  0
 15 10  1  0
 16 15  1  0
 17 16  1  0
 18  6  1  0
 18 17  1  0
 19  1  1  0
 19 14  1  0
 20 19  2  0
 21 17  1  0
M  END
$$$$

     RDKit          3D

 21 25  0  0  0  0  0  0  0  0999 V2000
  -27.1127   -3.2461  141.1633 O   0  0  0  0  0  0  0  0  0  0  0  0
  -26.4315   -4.4672  140.9786 C   0  0  0  0  0  0  0  0  0  0  0  0
  -27.4022   -5.5869  140.9039 N   0  0  0  0  0  0  0  0  0  0  0  0
  -27.9175   -7.6673  141.9373 C   0  0  0  0  0  0  0  0  0  0  0  0
  -26.8501   -6.7787  141.4408 N   0  0  0  0  0  0  0  0  0  0  0  0
  -25.3883   -4.6078  142.1049 C   0  0  0  0  0  0  0  0  0  0  0  0
  -27.3283   -8.8610  142.7268 C   0  0  0  0  0  0  0  0  0  0  0  0
  -28.4032   -9.9216  143.0789 C   0  0  0  0  0  0  0  0  0  0  0  0
  -29.6629   -9.3359  143.7404 C   0  0  0  0  0  0  0  0  0  0  0  0
  -26.5756   -8.3798  143.9795 C   0  0  0  0  0  0  0  0  0  0  0  0
  -30.5636  -10.4285  144.2558 C   0  0  0  0  0  0  0  0  0  0  0  0
  -30.4699  -10.8565  145.5238 C   0  0  0  0  0  0  0  0  0  0  0  0
  -31.4415  -11.8733  146.0662 C   0  0  0  0  0  0  0  0  0  0  0  0
  -31.2322  -12.2238  147.5550 C   0  0  0  0  0  0  0  0  0  0  0  0
  -30.3963  -13.4639  147.7981 C   0  0  0  0  0  0  0  0  0  0  0  0
  -29.2316  -13.3272  148.7333 C   0  0  0  0  0  0  0  0  0  0  0  0
  -29.5535  -12.8476  150.1376 C   0  0  0  0  0  0  0  0  0  0  0  0
  -29.8365  -12.0546  148.1525 C   0  0  0  0  0  0  0  0  0  0  0  0
  -28.4140  -12.8113  151.1186 C   0  0  0  0  0  0  0  0  0  0  0  0
  -28.7758  -11.5234  150.4281 C   0  0  0  0  0  0  0  0  0  0  0  0
  -30.0360  -11.5441  149.5936 C   0  0  0  0  0  0  0  0  0  0  0  0
  2  1  1  0
  3  2  1  0
  5  3  1  0
  5  4  1  0
  6  2  1  0
  7  4  1  0
  8  7  1  0
  9  8  1  0
 10  7  1  0
 11  9  1  0
 12 11  2  3
 13 12  1  0
 14 13  1  0
 15 14  1  0
 16 15  1  0
 17 16  1  0
 18 14  1  0
 18 15  1  0
 18 16  1  0
 19 17  1  0
 20 17  1  0
 20 19  1  0
 21 17  1  0
 21 18  1  0
 21 20  1  0
M  END
$$$$

     RDKit          3D

 21 23  0  0  0  0  0  0  0  0999 V2000
  -26.3422  -17.9058  144.6957 O   0  0  0  0  0  0  0  0  0  0  0  0
  -25.1678  -17.4220  145.3430 C   0  0  0  0  0  0  0  0  0  0  0  0
  -25.1365  -15.8611  145.7097 C   0  0  0  0  0  0  0  0  0  0  0  0
  -24.6636  -15.6190  147.2586 C   0  0  0  0  0  0  0  0  0  0  0  0
  -24.0001  -15.1796  144.8775 C   0  0  0  0  0  0  0  0  0  0  0  0
  -23.8592  -18.1023  144.8391 C   0  0  0  0  0  0  0  0  0  0  0  0
  -22.1365  -16.0149  147.9355 C   0  0  0  0  0  0  0  0  0  0  0  0
  -23.5752  -16.5527  147.9201 C   0  0  0  0  0  0  0  0  0  0  0  0
  -25.4904  -14.9445  148.3869 C   0  0  0  0  0  0  0  0  0  0  0  0
  -26.5831  -17.6954  143.3010 C   0  0  0  0  0  0  0  0  0  0  0  0
  -26.9447  -14.5362  148.2305 C   0  0  0  0  0  0  0  0  0  0  0  0
  -24.4845  -14.1191  147.6219 C   0  0  0  0  0  0  0  0  0  0  0  0
  -27.5002  -18.8665  142.8830 C   0  0  0  0  0  0  0  0  0  0  0  0
  -25.3826  -17.7454  142.3245 C   0  0  0  0  0  0  0  0  0  0  0  0
  -27.3769  -16.3943  143.0923 C   0  0  0  0  0  0  0  0  0  0  0  0
  -27.8180  -15.6356  147.6313 C   0  0  0  0  0  0  0  0  0  0  0  0
  -27.8174  -15.5523  146.1124 C   0  0  0  0  0  0  0  0  0  0  0  0
  -29.0582  -15.4013  145.5818 C   0  0  0  0  0  0  0  0  0  0  0  0
  -26.7877  -15.1299  143.7511 C   0  0  0  0  0  0  0  0  0  0  0  0
  -27.5756  -17.0508  148.1754 C   0  0  0  0  0  0  0  0  0  0  0  0
  -26.5355  -15.1635  145.3058 C   0  0  0  0  0  0  0  0  0  0  0  0
  2  1  1  0
  3  2  1  0
  4  3  1  0
  5  3  1  0
  6  2  1  0
  8  4  1  0
  8  7  1  0
  9  4  1  0
 10  1  1  0
 11  9  1  0
 12  4  1  0
 12  9  1  0
 13 10  1  0
 14 10  1  0
 15 10  1  0
 16 11  1  0
 17 16  1  0
 18 17  2  0
 19 15  1  0
 20 16  1  0
 21  3  1  0
 21 17  1  0
 21 19  1  0
M  END
$$$$

     RDKit          3D

 21 27  0  0  0  0  0  0  0  0999 V2000
  -23.7873    3.4439  137.4848 C   0  0  0  0  0  0  0  0  0  0  0  0
  -23.1115    4.1810  136.2912 C   0  0  0  0  0  0  0  0  0  0  0  0
  -24.8674    4.2894  138.2491 C   0  0  0  0  0  0  0  0  0  0  0  0
  -21.7005    3.9241  136.9000 C   0  0  0  0  0  0  0  0  0  0  0  0
  -24.0250    2.9902  136.0623 C   0  0  0  0  0  0  0  0  0  0  0  0
  -20.8640    5.2341  137.0606 C   0  0  0  0  0  0  0  0  0  0  0  0
  -24.3402    4.9170  139.4854 N   0  0  0  0  0  0  0  0  0  0  0  0
  -23.5525    3.9133  140.1937 C   0  0  0  0  0  0  0  0  0  0  0  0
  -21.6244    6.4328  137.5980 C   0  0  0  0  0  0  0  0  0  0  0  0
  -21.1990    7.6878  137.3886 C   0  0  0  0  0  0  0  0  0  0  0  0
  -19.9218    7.9932  136.7052 C   0  0  0  0  0  0  0  0  0  0  0  0
  -22.2689    3.8192  139.4024 C   0  0  0  0  0  0  0  0  0  0  0  0
  -22.3990    3.2509  138.0630 C   0  0  0  0  0  0  0  0  0  0  0  0
  -18.7963    7.2933  136.9121 C   0  0  0  0  0  0  0  0  0  0  0  0
  -18.6682    6.2693  138.0096 C   0  0  0  0  0  0  0  0  0  0  0  0
  -22.1926    4.2665  140.8271 C   0  0  0  0  0  0  0  0  0  0  0  0
  -21.8821    2.3158  139.2020 C   0  0  0  0  0  0  0  0  0  0  0  0
  -19.5589    5.0162  137.8505 C   0  0  0  0  0  0  0  0  0  0  0  0
  -22.8757    1.1602  139.4775 C   0  0  0  0  0  0  0  0  0  0  0  0
  -20.7340    2.3509  140.2078 C   0  0  0  0  0  0  0  0  0  0  0  0
  -21.2527    3.1958  141.3934 C   0  0  0  0  0  0  0  0  0  0  0  0
  2  1  1  0
  3  1  1  0
  4  2  1  0
  5  1  1  0
  5  2  1  0
  6  4  1  0
  7  3  1  0
  8  7  1  0
  9  6  1  0
 10  9  2  0
 11 10  1  0
 12  8  1  0
 13  1  1  0
 13  4  1  0
 13 12  1  0
 14 11  2  0
 15 14  1  0
 16  8  1  0
 16 12  1  0
 17 12  1  0
 17 13  1  0
 18  6  1  0
 18 15  1  0
 19 17  1  0
 20 17  1  0
 21 16  1  0
 21 20  1  0
M  END
$$$$

     RDKit          3D

 21 26  0  0  0  0  0  0  0  0999 V2000
  -20.7853    3.5983  138.4383 O   0  0  0  0  0  0  0  0  0  0  0  0
  -20.0493    4.1909  139.4840 C   0  0  0  0  0  0  0  0  0  0  0  0
  -18.7781    3.4334  139.8589 C   0  0  0  0  0  0  0  0  0  0  0  0
  -18.4568    2.1339  139.1075 C   0  0  0  0  0  0  0  0  0  0  0  0
  -20.0034    3.3618  140.7619 C   0  0  0  0  0  0  0  0  0  0  0  0
  -17.6005    1.2369  140.0048 C   0  0  0  0  0  0  0  0  0  0  0  0
  -18.3593    0.1287  140.7420 C   0  0  0  0  0  0  0  0  0  0  0  0
  -17.6049   -0.9731  141.5217 C   0  0  0  0  0  0  0  0  0  0  0  0
  -18.4494   -2.2875  141.8002 C   0  0  0  0  0  0  0  0  0  0  0  0
  -19.4187   -2.2688  142.9730 C   0  0  0  0  0  0  0  0  0  0  0  0
  -17.4745   -0.1743  139.5084 C   0  0  0  0  0  0  0  0  0  0  0  0
  -16.9939   -0.5018  142.9018 C   0  0  0  0  0  0  0  0  0  0  0  0
  -19.6111   -2.6423  140.8520 C   0  0  0  0  0  0  0  0  0  0  0  0
  -19.4528   -0.9100  143.6739 C   0  0  0  0  0  0  0  0  0  0  0  0
  -18.4294   -3.5816  140.9872 C   0  0  0  0  0  0  0  0  0  0  0  0
  -20.5785   -2.5557  142.0275 C   0  0  0  0  0  0  0  0  0  0  0  0
  -16.6168   -1.1070  140.3562 C   0  0  0  0  0  0  0  0  0  0  0  0
  -16.2061    0.8298  142.9196 C   0  0  0  0  0  0  0  0  0  0  0  0
  -17.0737    1.9277  142.8157 O   0  0  0  0  0  0  0  0  0  0  0  0
  -22.1008    4.0954  138.4913 C   0  0  0  0  0  0  0  0  0  0  0  0
  -18.0282   -0.5136  144.0835 C   0  0  0  0  0  0  0  0  0  0  0  0
  2  1  1  0
  3  2  1  0
  4  3  1  0
  5  2  1  0
  5  3  1  0
  6  4  1  0
  7  6  1  0
  8  7  1  0
  9  8  1  0
 10  9  1  0
 11  6  1  0
 11  7  1  0
 12  8  1  0
 13  9  1  0
 14 10  1  0
 15  9  1  0
 15 13  1  0
 16 10  1  0
 16 13  1  0
 17  8  1  0
 17 11  1  0
 18 12  1  0
 19 18  1  0
 20  1  1  0
 21 12  1  0
 21 14  1  0
M  END
$$$$

     RDKit          3D

 21 24  0  0  0  0  0  0  0  0999 V2000
  -17.8107    6.7724  138.2925 O   0  0  0  0  0  0  0  0  0  0  0  0
  -19.2069    6.7520  138.3353 C   0  0  0  0  0  0  0  0  0  0  0  0
  -19.9989    5.4489  138.5807 C   0  0  0  0  0  0  0  0  0  0  0  0
  -19.1178    4.2307  138.1872 C   0  0  0  0  0  0  0  0  0  0  0  0
  -17.5848    4.0412  138.1369 C   0  0  0  0  0  0  0  0  0  0  0  0
  -19.6895    6.4725  139.7190 C   0  0  0  0  0  0  0  0  0  0  0  0
  -17.2072    2.5890  138.4790 C   0  0  0  0  0  0  0  0  0  0  0  0
  -15.5679    0.6979  138.2390 C   0  0  0  0  0  0  0  0  0  0  0  0
  -19.1345    5.3627  140.5855 C   0  0  0  0  0  0  0  0  0  0  0  0
  -14.6614    3.0626  138.3819 C   0  0  0  0  0  0  0  0  0  0  0  0
  -19.8672    5.2278  141.9454 C   0  0  0  0  0  0  0  0  0  0  0  0
  -15.8388    2.1692  137.8916 C   0  0  0  0  0  0  0  0  0  0  0  0
  -19.5277    6.4158  142.8629 C   0  0  0  0  0  0  0  0  0  0  0  0
  -21.6449    5.6015  144.4395 N   0  0  0  0  0  0  0  0  0  0  0  0
  -14.3467    4.2367  137.4423 C   0  0  0  0  0  0  0  0  0  0  0  0
  -19.5466    3.8550  142.6157 C   0  0  0  0  0  0  0  0  0  0  0  0
  -19.6092    4.3242  139.5902 C   0  0  0  0  0  0  0  0  0  0  0  0
  -20.8242    3.0282  142.9008 C   0  0  0  0  0  0  0  0  0  0  0  0
  -21.1348    4.4057  145.1320 C   0  0  0  0  0  0  0  0  0  0  0  0
  -21.3613    3.0959  144.3488 C   0  0  0  0  0  0  0  0  0  0  0  0
  -20.5307    6.6023  144.1001 B   0  0  0  0  0  0  0  0  0  0  0  0
  2  1  1  0
  3  2  1  0
  4  3  1  0
  5  4  1  0
  6  2  1  0
  6  3  1  0
  7  5  1  0
  9  6  1  0
 11  9  1  0
 12  7  1  0
 12  8  1  0
 12 10  1  0
 13 11  1  0
 15 10  1  0
 16 11  1  0
 17  3  1  0
 17  4  1  0
 17  9  1  0
 18 16  1  0
 19 14  1  0
 20 18  1  0
 20 19  1  0
 21 13  1  0
 21 14  1  0
M  END
$$$$

     RDKit          3D

 20 23  0  0  0  0  0  0  0  0999 V2000
  -25.1378   -6.2045  143.3108 C   0  0  0  0  0  0  0  0  0  0  0  0
  -23.6956   -5.6377  143.3804 C   0  0  0  0  0  0  0  0  0  0  0  0
  -22.6533   -6.7393  143.7254 C   0  0  0  0  0  0  0  0  0  0  0  0
  -25.9681   -5.7444  142.1253 C   0  0  0  0  0  0  0  0  0  0  0  0
  -25.5826   -6.4526  140.8463 C   0  0  0  0  0  0  0  0  0  0  0  0
  -23.6212   -4.4516  144.3977 C   0  0  0  0  0  0  0  0  0  0  0  0
  -24.4493   -3.2324  143.9560 C   0  0  0  0  0  0  0  0  0  0  0  0
  -23.4627   -2.1853  143.4087 C   0  0  0  0  0  0  0  0  0  0  0  0
  -25.3884   -7.1680  142.1640 C   0  0  0  0  0  0  0  0  0  0  0  0
  -22.8021   -7.4020  145.0468 C   0  0  0  0  0  0  0  0  0  0  0  0
  -22.2029   -3.8878  144.5716 C   0  0  0  0  0  0  0  0  0  0  0  0
  -21.8149   -9.3333  146.3884 C   0  0  0  0  0  0  0  0  0  0  0  0
  -21.5314   -8.0121  145.6510 C   0  0  0  0  0  0  0  0  0  0  0  0
  -23.1757   -8.0450  143.8516 O   0  0  0  0  0  0  0  0  0  0  0  0
  -23.8226   -1.6300  142.0087 C   0  0  0  0  0  0  0  0  0  0  0  0
  -22.1732   -9.1546  147.8780 C   0  0  0  0  0  0  0  0  0  0  0  0
  -23.4790   -8.5247  148.0791 N   0  0  0  0  0  0  0  0  0  0  0  0
  -23.9194   -2.6656  140.8819 C   0  0  0  0  0  0  0  0  0  0  0  0
  -21.0631   -1.8119  143.9040 N   0  0  0  0  0  0  0  0  0  0  0  0
  -22.0613   -2.8069  143.5088 C   0  0  0  0  0  0  0  0  0  0  0  0
  2  1  1  0
  3  2  1  0
  4  1  1  0
  5  4  1  0
  6  2  1  0
  7  6  1  0
  8  7  1  0
  9  1  1  0
  9  4  1  0
  9  5  1  0
 10  3  1  0
 11  6  1  0
 13 10  1  0
 13 12  1  0
 14  3  1  0
 14 10  1  0
 15  8  1  0
 16 12  1  0
 17 16  1  0
 18 15  1  0
 20  8  1  0
 20 11  1  0
 20 19  1  0
M  END
$$$$

     RDKit          3D

 13 14  0  0  0  0  0  0  0  0999 V2000
  -17.7615   -5.7727  136.2702 C   0  0  0  0  0  0  0  0  0  0  0  0
  -18.5075   -4.6603  134.1519 C   0  0  0  0  0  0  0  0  0  0  0  0
  -17.7545   -5.4202  137.7811 C   0  0  0  0  0  0  0  0  0  0  0  0
  -17.5934   -4.6416  135.3798 C   0  0  0  0  0  0  0  0  0  0  0  0
  -15.4147   -6.0087  138.7314 C   0  0  0  0  0  0  0  0  0  0  0  0
  -16.2368   -5.1790  135.0722 C   0  0  0  0  0  0  0  0  0  0  0  0
  -14.0053   -5.8002  138.1530 C   0  0  0  0  0  0  0  0  0  0  0  0
  -16.4050   -4.8874  138.3255 C   0  0  0  0  0  0  0  0  0  0  0  0
  -13.9833   -6.2577  136.7555 N   0  0  0  0  0  0  0  0  0  0  0  0
  -13.2707   -5.3633  135.8331 C   0  0  0  0  0  0  0  0  0  0  0  0
  -13.9192   -5.4457  134.4431 C   0  0  0  0  0  0  0  0  0  0  0  0
  -15.1994   -4.7412  134.4312 N   0  0  0  0  0  0  0  0  0  0  0  0
  -16.5364   -6.3574  135.8662 O   0  0  0  0  0  0  0  0  0  0  0  0
  3  1  1  0
  4  1  1  0
  4  2  1  0
  6  4  1  0
  7  5  1  0
  8  3  1  0
  8  5  1  0
  9  7  1  0
 10  9  1  0
 11 10  1  0
 12  6  2  3
 12 11  1  0
 13  1  1  0
 13  6  1  0
M  END
$$$$

     RDKit          3D

 21 23  0  0  0  0  0  0  0  0999 V2000
  -26.0925  -19.9750  137.0462 N   0  0  0  0  0  0  0  0  0  0  0  0
  -25.4874  -21.0194  137.6863 C   0  0  0  0  0  0  0  0  0  0  0  0
  -26.1013  -22.1491  137.9871 N   0  0  0  0  0  0  0  0  0  0  0  0
  -25.4484  -23.2810  137.6381 C   0  0  0  0  0  0  0  0  0  0  0  0
  -26.0562  -24.4542  137.9041 N   0  0  0  0  0  2  0  0  0  0  0  0
  -26.4183  -20.0912  135.7180 C   0  0  0  0  0  0  0  0  0  0  0  0
  -27.5511  -21.5809  134.9879 P   0  0  0  0  0  0  0  0  0  0  0  0
  -25.8423  -20.2244  136.6102 C   0  0  0  0  0  0  0  0  0  0  0  0
  -25.5899  -25.2392  138.8504 C   0  0  0  0  0  0  0  0  0  0  0  0
  -26.7493  -20.1246  135.3585 S   0  0  0  0  0  0  0  0  0  0  0  0
  -25.4802  -19.4531  135.9369 C   0  0  0  0  0  0  0  0  0  0  0  0
  -27.1735  -22.5835  134.0956 C   0  0  0  0  0  0  0  0  0  0  0  0
  -26.3693  -21.1741  136.5881 C   0  0  0  0  0  0  0  0  0  0  0  0
  -24.6517  -24.3672  137.2947 N   0  0  0  0  0  2  0  0  0  0  0  0
  -26.9605  -22.5200  134.1604 C   0  0  0  0  0  0  0  0  0  0  0  0
  -24.2678  -25.9086  138.8750 C   0  0  0  0  0  0  0  0  0  0  0  0
  -23.2260  -25.0667  138.4957 N   0  0  0  0  0  0  0  0  0  0  0  0
  -26.6816  -21.1583  133.8949 C   0  0  0  0  0  0  0  0  0  0  0  0
  -25.3765  -27.0483  138.6403 Si  0  0  0  0  0  4  0  0  0  0  0  0
  -25.4614  -26.7756  138.9111 C   0  0  0  0  0  0  0  0  0  0  0  0
  -27.7827  -23.7888  133.8123 C   0  0  0  0  0  0  0  0  0  0  0  0
  2  1  1  0
  3  2  1  0
  4  3  1  0
  5  4  1  0
  8  1  1  0
  8  6  1  0
  9  5  1  0
 10  6  1  0
 10  7  1  0
 11  6  1  0
 11  8  1  0
 13  2  1  0
 13  6  1  0
 13  8  1  0
 14  4  2  0
 15  7  1  0
 15 12  1  0
 16  9  1  0
 17 16  1  0
 18 15  1  0
 19 16  1  0
 20 19  1  0
 21 12  1  0
M  RAD  2   5   2  14   2
M  END
$$$$

     RDKit          3D

 19 21  0  0  0  0  0  0  0  0999 V2000
  -22.5502  -15.8088  135.9846 C   0  0  0  0  0  0  0  0  0  0  0  0
  -22.9946  -15.2947  137.4001 C   0  0  0  0  0  0  0  0  0  0  0  0
  -23.3743  -15.6011  134.6846 C   0  0  0  0  0  0  0  0  0  0  0  0
  -22.5083  -15.8039  133.4220 C   0  0  0  0  0  0  0  0  0  0  0  0
  -22.8991  -14.8222  132.2709 C   0  0  0  0  0  0  0  0  0  0  0  0
  -22.3760  -17.2860  133.0350 C   0  0  0  0  0  0  0  0  0  0  0  0
  -24.3385  -14.6463  131.7413 C   0  0  0  0  0  0  0  0  0  0  0  0
  -24.5468  -15.4184  137.3635 C   0  0  0  0  0  0  0  0  0  0  0  0
  -23.2885  -15.3834  130.9054 C   0  0  0  0  0  0  0  0  0  0  0  0
  -21.9590  -14.5505  136.5099 C   0  0  0  0  0  0  0  0  0  0  0  0
  -26.5598  -14.9607  133.0729 C   0  0  0  0  0  0  0  0  0  0  0  0
  -23.9552  -14.1213  137.7429 C   0  0  0  0  0  0  0  0  0  0  0  0
  -27.0946  -13.5409  132.6940 C   0  0  0  0  0  0  0  0  0  0  0  0
  -27.8645  -13.9728  130.2784 C   0  0  0  0  0  0  0  0  0  0  0  0
  -25.5270  -15.5704  132.0798 C   0  0  0  0  0  0  0  0  0  0  0  0
  -28.7304  -11.9881  131.5617 C   0  0  0  0  0  0  0  0  0  0  0  0
  -28.2548  -13.4472  131.6638 C   0  0  0  0  0  0  0  0  0  0  0  0
  -27.7199  -15.9445  133.3618 C   0  0  0  0  0  0  0  0  0  0  0  0
  -27.3325  -17.0669  134.3246 C   0  0  0  0  0  0  0  0  0  0  0  0
  2  1  1  0
  3  1  1  0
  4  3  1  0
  5  4  1  0
  6  4  1  0
  7  5  1  0
  8  2  1  0
  9  5  1  0
  9  7  1  0
 10  1  1  0
 10  2  1  0
 12  2  1  0
 12  8  1  0
 13 11  1  0
 15  7  1  0
 15 11  1  0
 17 13  1  0
 17 14  1  0
 17 16  1  0
 18 11  1  0
 19 18  1  0
M  END
$$$$

     RDKit          3D

 11 11  0  0  0  0  0  0  0  0999 V2000
  -18.9016    2.3447  140.1750 O   0  0  0  0  0  0  0  0  0  0  0  0
  -20.2489    2.4966  139.8005 C   0  0  0  0  0  0  0  0  0  0  0  0
  -19.6180    3.7692  137.6187 C   0  0  0  0  0  0  0  0  0  0  0  0
  -18.2517    3.9694  137.9168 O   0  0  0  0  0  0  0  0  0  0  0  0
  -20.4557    3.7452  138.9136 C   0  0  0  0  0  0  0  0  0  0  0  0
  -20.0766    4.8781  136.6808 C   0  0  0  0  0  0  0  0  0  0  0  0
  -20.8140    1.2112  139.1739 C   0  0  0  0  0  0  0  0  0  0  0  0
  -18.8053    5.2373  135.9671 C   0  0  0  0  0  0  0  0  0  0  0  0
  -18.7817    6.6975  135.4844 C   0  0  0  0  0  0  0  0  0  0  0  0
  -17.7463    4.9293  137.0155 C   0  0  0  0  0  0  0  0  0  0  0  0
  -17.5677    6.9833  134.8439 O   0  0  0  0  0  0  0  0  0  0  0  0
  2  1  1  0
  4  3  1  0
  5  2  1  0
  5  3  1  0
  6  3  1  0
  7  2  1  0
  8  6  1  0
  9  8  1  0
 10  4  1  0
 10  8  1  0
 11  9  1  0
M  END
$$$$

     RDKit          3D

 21 23  0  0  0  0  0  0  0  0999 V2000
  -24.8665   -9.5921  145.9441 F   0  0  0  0  0  0  0  0  0  0  0  0
  -22.7236   -6.6496  146.6533 C   0  0  0  0  0  0  0  0  0  0  0  0
  -21.8594   -7.0738  147.8474 C   0  0  0  0  0  0  0  0  0  0  0  0
  -22.8727   -5.1223  146.7386 C   0  0  0  0  0  0  0  0  0  0  0  0
  -21.7324   -5.8587  148.7603 C   0  0  0  0  0  0  0  0  0  0  0  0
  -24.0884   -7.4031  146.5777 C   0  0  0  0  0  0  0  0  0  0  0  0
  -20.4546   -5.2418  148.6457 O   0  0  0  0  0  0  0  0  0  0  0  0
  -24.1023   -8.5154  145.5037 C   0  0  0  0  0  0  0  0  0  0  0  0
  -21.0070   -4.0747  148.0409 C   0  0  0  0  0  0  0  0  0  0  0  0
  -20.8214   -2.8362  148.9238 C   0  0  0  0  0  0  0  0  0  0  0  0
  -19.4159   -2.7042  149.3133 N   0  0  0  0  0  0  0  0  0  0  0  0
  -24.8571   -7.8737  143.9551 S   0  0  0  0  0  0  0  0  0  0  0  0
  -23.6162   -8.5211  142.7798 C   0  0  0  0  0  0  0  0  0  0  0  0
  -22.3813   -4.6777  148.1348 C   0  0  0  0  0  0  0  0  0  0  0  0
  -24.1880   -8.6169  141.3504 C   0  0  0  0  0  0  0  0  0  0  0  0
  -25.1527   -9.8182  141.0320 C   0  0  0  0  0  0  0  0  0  0  0  0
  -23.8299   -4.4786  147.7142 C   0  0  0  0  0  0  0  0  0  0  0  0
  -25.8025  -11.4398  139.1269 C   0  0  0  0  0  0  0  0  0  0  0  0
  -25.3973  -11.8968  137.8839 F   0  0  0  0  0  0  0  0  0  0  0  0
  -25.2214  -10.9010  142.1380 C   0  0  0  0  0  0  0  0  0  0  0  0
  -24.7541  -10.4674  139.6772 C   0  0  0  0  0  0  0  0  0  0  0  0
  3  2  1  0
  4  2  1  0
  5  3  1  0
  6  2  1  0
  7  5  1  0
  8  1  1  0
  8  6  1  0
  9  7  1  0
 10  9  1  0
 11 10  1  0
 12  8  1  0
 13 12  1  0
 14  4  1  0
 14  5  1  0
 14  9  1  0
 15 13  1  0
 16 15  1  0
 17  4  1  0
 17 14  1  0
 19 18  1  0
 20 16  1  0
 21 16  1  0
 21 18  1  0
M  END
$$$$

     RDKit          3D

 15 17  0  0  0  0  0  0  0  0999 V2000
  -25.8186  -16.7596  143.7635 Si  0  0  0  0  0  4  0  0  0  0  0  0
  -27.5485  -16.1583  144.1059 C   0  0  0  0  0  0  0  0  0  0  0  0
  -24.7783  -15.3819  143.0234 C   0  0  0  0  0  0  0  0  0  0  0  0
  -24.6209  -14.2958  143.9946 N   0  0  0  0  0  0  0  0  0  0  0  0
  -25.2112  -14.8304  141.7044 N   0  0  0  0  0  0  0  0  0  0  0  0
  -24.3063  -13.9656  140.9651 C   0  0  0  0  0  0  0  0  0  0  0  0
  -27.5719  -15.0838  145.1965 C   0  0  0  0  0  0  0  0  0  0  0  0
  -26.1341  -18.0801  142.4795 C   0  0  0  0  0  0  0  0  0  0  0  0
  -27.0930  -17.5761  141.3904 C   0  0  0  0  0  0  0  0  0  0  0  0
  -28.2497  -15.7008  142.8069 C   0  0  0  0  0  0  0  0  0  0  0  0
  -25.6383  -17.9149  141.0451 C   0  0  0  0  0  0  0  0  0  0  0  0
  -26.5146  -14.9935  141.0054 C   0  0  0  0  0  0  0  0  0  0  0  0
  -27.5293  -16.0743  141.4789 C   0  0  0  0  0  0  0  0  0  0  0  0
  -26.3911  -19.5181  142.9550 C   0  0  0  0  0  0  0  0  0  0  0  0
  -22.9844  -13.8994  141.1694 C   0  0  0  0  0  0  0  0  0  0  0  0
  2  1  1  0
  3  1  1  0
  4  3  1  0
  5  3  1  0
  6  5  1  0
  7  2  1  0
  8  1  1  0
  9  8  1  0
 10  2  1  0
 11  8  1  0
 11  9  1  0
 12  5  1  0
 13  9  1  0
 13 10  1  0
 13 12  1  0
 14  8  1  0
 15  6  2  0
M  END
$$$$

     RDKit          3D

 21 26  0  0  0  0  0  0  0  0999 V2000
  -30.3864   -7.6988  140.1112 C   0  0  0  0  0  0  0  0  0  0  0  0
  -31.6550   -7.8394  142.2136 C   0  0  0  0  0  0  0  0  0  0  0  0
  -32.3137   -6.5824  142.9279 C   0  0  0  0  0  0  0  0  0  0  0  0
  -33.8718   -6.6028  143.1246 C   0  0  0  0  0  0  0  0  0  0  0  0
  -34.6232   -7.6772  144.0015 C   0  0  0  0  0  0  0  0  0  0  0  0
  -31.7778   -7.9492  140.6577 C   0  0  0  0  0  0  0  0  0  0  0  0
  -34.3480   -8.2493  145.4267 C   0  0  0  0  0  0  0  0  0  0  0  0
  -32.9036   -8.1430  145.9084 C   0  0  0  0  0  0  0  0  0  0  0  0
  -32.1630   -8.9596  144.9040 C   0  0  0  0  0  0  0  0  0  0  0  0
  -30.7952   -9.4159  145.3246 C   0  0  0  0  0  0  0  0  0  0  0  0
  -29.4730   -8.3205  141.1437 C   0  0  0  0  0  0  0  0  0  0  0  0
  -30.0878   -7.9641  142.5039 C   0  0  0  0  0  0  0  0  0  0  0  0
  -32.8480   -7.1418  139.9095 C   0  0  0  0  0  0  0  0  0  0  0  0
  -31.9426   -5.3376  142.2391 N   0  0  0  0  0  0  0  0  0  0  0  0
  -29.8523   -8.2463  145.0881 C   0  0  0  0  0  0  0  0  0  0  0  0
  -29.4939   -8.8544  143.7018 C   0  0  0  0  0  0  0  0  0  0  0  0
  -27.9600   -9.1268  143.5226 C   0  0  0  0  0  0  0  0  0  0  0  0
  -30.3048  -10.1349  144.0557 C   0  0  0  0  0  0  0  0  0  0  0  0
  -35.1567   -6.9917  145.2783 C   0  0  0  0  0  0  0  0  0  0  0  0
  -32.0137   -9.3506  146.3119 C   0  0  0  0  0  0  0  0  0  0  0  0
  -27.1862   -9.6732  144.7334 C   0  0  0  0  0  0  0  0  0  0  0  0
  3  2  1  0
  4  3  1  0
  5  4  1  0
  6  1  1  0
  6  2  1  0
  7  5  1  0
  8  7  1  0
  9  8  1  0
 10  9  1  0
 11  1  1  0
 12  2  1  0
 12 11  1  0
 13  6  1  0
 14  3  1  0
 15 10  1  0
 16 12  1  0
 16 15  1  0
 17 16  1  0
 18 10  1  0
 18 16  1  0
 19  5  1  0
 19  7  1  0
 20  8  1  0
 20  9  1  0
 20 10  1  0
 21 17  1  0
M  END
$$$$

     RDKit          3D

 21 22  0  0  0  0  0  0  0  0999 V2000
  -21.2796  -19.1660  134.7127 C   0  0  0  0  0  0  0  0  0  0  0  0
  -21.3421  -19.7929  136.0976 C   0  0  0  0  0  0  0  0  0  0  0  0
  -22.2171  -19.0460  137.1211 C   0  0  0  0  0  0  0  0  0  0  0  0
  -21.7613  -19.3355  138.5869 C   0  0  0  0  0  0  0  0  0  0  0  0
  -20.0892  -19.0532  135.6531 C   0  0  0  0  0  0  0  0  0  0  0  0
  -22.6794  -20.4162  139.2643 C   0  0  0  0  0  0  0  0  0  0  0  0
  -21.7072  -18.0099  139.3905 C   0  0  0  0  0  0  0  0  0  0  0  0
  -22.6102  -21.7597  138.4980 C   0  0  0  0  0  0  0  0  0  0  0  0
  -22.3180  -20.6755  140.7443 C   0  0  0  0  0  0  0  0  0  0  0  0
  -20.8139  -18.1242  140.4651 O   0  0  0  0  0  0  0  0  0  0  0  0
  -23.2993  -22.8940  139.2092 C   0  0  0  0  0  0  0  0  0  0  0  0
  -23.2968  -21.6765  141.3948 C   0  0  0  0  0  0  0  0  0  0  0  0
  -22.8026  -22.1116  142.7886 C   0  0  0  0  0  0  0  0  0  0  0  0
  -23.5247  -22.8936  140.5300 C   0  0  0  0  0  0  0  0  0  0  0  0
  -22.6301  -20.9600  143.6757 N   0  0  0  0  0  0  0  0  0  0  0  0
  -23.7293  -20.2225  144.2304 C   0  0  0  0  0  0  0  0  0  0  0  0
  -23.4574  -19.0585  145.0277 N   0  0  0  0  0  0  0  0  0  0  0  0
  -24.3096  -17.9045  145.0789 C   0  0  0  0  0  0  0  0  0  0  0  0
  -25.2473  -17.7602  144.2486 O   0  0  0  0  0  0  0  0  0  0  0  0
  -24.0264  -16.8144  146.0602 C   0  0  0  0  0  0  0  0  0  0  0  0
  -24.9438  -20.6510  144.0695 N   0  0  0  0  0  0  0  0  0  0  0  0
  2  1  1  0
  3  2  1  0
  4  3  1  0
  5  1  1  0
  5  2  1  0
  6  4  1  0
  7  4  1  0
  8  6  1  0
  9  6  1  0
 10  7  1  0
 11  8  1  0
 12  9  1  0
 13 12  1  0
 14 11  2  0
 14 12  1  0
 15 13  1  0
 16 15  1  0
 17 16  1  0
 18 17  1  0
 19 18  2  0
 20 18  1  0
 21 16  2  0
M  END
$$$$

     RDKit          3D

 12 16  0  0  0  0  0  0  0  0999 V2000
  -21.8857   -4.9587  143.1180 C   0  0  0  0  0  0  0  0  0  0  0  0
  -22.7984   -3.7326  143.1968 C   0  0  0  0  0  0  0  0  0  0  0  0
  -23.8205   -3.7567  142.0597 C   0  0  0  0  0  0  0  0  0  0  0  0
  -25.1140   -2.9189  142.3689 C   0  0  0  0  0  0  0  0  0  0  0  0
  -26.6768   -2.7607  142.3621 C   0  0  0  0  0  0  0  0  0  0  0  0
  -25.9809   -3.6151  141.3844 C   0  0  0  0  0  0  0  0  0  0  0  0
  -25.9434   -5.0096  141.4591 O   0  0  0  0  0  0  0  0  0  0  0  0
  -20.8530   -4.9255  144.2516 C   0  0  0  0  0  0  0  0  0  0  0  0
  -25.1033   -4.4048  142.3977 C   0  0  0  0  0  0  0  0  0  0  0  0
  -19.5716   -5.7069  143.9745 C   0  0  0  0  0  0  0  0  0  0  0  0
  -19.5599   -4.1818  143.9364 C   0  0  0  0  0  0  0  0  0  0  0  0
  -18.8932   -3.5085  145.1361 C   0  0  0  0  0  0  0  0  0  0  0  0
  2  1  1  0
  3  2  1  0
  4  3  1  0
  5  4  1  0
  6  4  1  0
  6  5  1  0
  7  6  1  0
  8  1  1  0
  9  3  1  0
  9  4  1  0
  9  6  1  0
  9  7  1  0
 10  8  1  0
 11  8  1  0
 11 10  1  0
 12 11  1  0
M  END
$$$$

     RDKit          3D

 21 24  0  0  0  0  0  0  0  0999 V2000
  -24.7540  -14.3414  140.2069 C   0  0  0  0  0  0  0  0  0  0  0  0
  -26.2531  -14.2180  139.8539 C   0  0  0  0  0  0  0  0  0  0  0  0
  -24.0746  -15.5259  139.5126 C   0  0  0  0  0  0  0  0  0  0  0  0
  -27.3828  -13.4722  142.0125 C   0  0  0  0  0  0  0  0  0  0  0  0
  -27.5075  -12.2880  142.9939 C   0  0  0  0  0  0  0  0  0  0  0  0
  -28.1231  -12.5223  139.7768 C   0  0  0  0  0  0  0  0  0  0  0  0
  -26.9272  -13.0387  140.5956 C   0  0  0  0  0  0  0  0  0  0  0  0
  -28.5741  -12.5667  144.0897 C   0  0  0  0  0  0  0  0  0  0  0  0
  -28.5541  -11.2524  144.8687 C   0  0  0  0  0  0  0  0  0  0  0  0
  -23.2911  -16.3295  140.4703 N   0  0  0  0  0  0  0  0  0  0  0  0
  -23.8664  -13.3766  139.4168 C   0  0  0  0  0  0  0  0  0  0  0  0
  -23.2276  -14.5521  138.6863 C   0  0  0  0  0  0  0  0  0  0  0  0
  -27.6034  -11.3851  146.0533 C   0  0  0  0  0  0  0  0  0  0  0  0
  -27.9495  -13.6896  144.9273 C   0  0  0  0  0  0  0  0  0  0  0  0
  -28.8305  -14.9464  144.9985 C   0  0  0  0  0  0  0  0  0  0  0  0
  -28.5280  -12.5151  145.6543 C   0  0  0  0  0  0  0  0  0  0  0  0
  -22.8310  -17.5740  139.8408 C   0  0  0  0  0  0  0  0  0  0  0  0
  -22.0127  -18.4094  140.8291 C   0  0  0  0  0  0  0  0  0  0  0  0
  -28.6012  -15.7148  146.2323 N   0  0  0  0  0  0  0  0  0  0  0  0
  -22.7259  -18.6184  142.0192 O   0  0  0  0  0  0  0  0  0  0  0  0
  -27.3977  -16.5462  146.1466 C   0  0  0  0  0  0  0  0  0  0  0  0
  2  1  1  0
  3  1  1  0
  5  4  1  0
  7  2  1  0
  7  4  1  0
  7  6  1  0
  8  5  1  0
  9  8  1  0
 10  3  1  0
 11  1  1  0
 12  3  1  0
 12 11  1  0
 13  9  1  0
 14  8  1  0
 15 14  1  0
 16  8  1  0
 16  9  1  0
 16 13  1  0
 16 14  1  0
 17 10  1  0
 18 17  1  0
 19 15  1  0
 20 18  1  0
 21 19  1  0
M  END
$$$$

     RDKit          3D

 21 22  0  0  0  0  0  0  0  0999 V2000
  -27.9564  -16.7859  135.3245 C   0  0  0  0  0  0  0  0  0  0  0  0
  -26.8753  -17.6676  135.9349 C   0  0  0  0  0  0  0  0  0  0  0  0
  -28.3160  -18.1564  135.8885 C   0  0  0  0  0  0  0  0  0  0  0  0
  -29.0617  -18.1390  137.2283 C   0  0  0  0  0  0  0  0  0  0  0  0
  -30.5659  -17.9938  136.9933 C   0  0  0  0  0  0  0  0  0  0  0  0
  -31.3670  -18.0059  138.2992 C   0  0  0  0  0  0  0  0  0  0  0  0
  -31.3476  -16.6592  139.0539 C   0  0  0  0  0  0  0  0  0  0  0  0
  -32.4896  -15.7092  138.6480 C   0  0  0  0  0  0  0  0  0  0  0  0
  -32.2541  -15.0834  137.3005 C   0  0  0  0  0  0  0  0  0  0  0  0
  -33.0196  -15.3603  136.2347 C   0  0  0  0  0  0  0  0  0  0  0  0
  -32.7655  -14.7297  134.8889 C   0  0  0  0  0  0  0  0  0  0  0  0
  -31.4646  -15.2559  134.2554 C   0  0  0  0  0  0  0  0  0  0  0  0
  -31.3004  -14.8590  132.7747 C   0  0  0  0  0  0  0  0  0  0  0  0
  -31.3715  -13.3446  132.4918 C   0  0  0  0  0  0  0  0  0  0  0  0
  -30.2132  -12.5361  133.1058 C   0  0  0  0  0  0  0  0  0  0  0  0
  -28.8720  -12.7172  132.3569 C   0  0  0  0  0  0  0  0  0  0  0  0
  -28.4218  -11.4392  131.6234 C   0  0  0  0  0  0  0  0  0  0  0  0
  -29.1786  -11.2325  130.3072 C   0  0  0  0  0  0  0  0  0  0  0  0
  -28.7752   -9.9028  129.6609 C   0  0  0  0  0  0  0  0  0  0  0  0
  -27.5030   -9.9362  128.8387 C   0  0  0  0  0  0  0  0  0  0  0  0
  -28.8551   -9.8663  128.1425 C   0  0  0  0  0  0  0  0  0  0  0  0
  2  1  1  0
  3  1  1  0
  3  2  1  0
  4  3  1  0
  5  4  1  0
  6  5  1  0
  7  6  1  0
  8  7  1  0
  9  8  1  0
 10  9  2  3
 11 10  1  0
 12 11  1  0
 13 12  1  0
 14 13  1  0
 15 14  1  0
 16 15  1  0
 17 16  1  0
 18 17  1  0
 19 18  1  0
 20 19  1  0
 21 19  1  0
 21 20  1  0
M  END
$$$$

     RDKit          3D

 21 24  0  0  0  0  0  0  0  0999 V2000
  -29.8316  -14.2920  137.9130 O   0  0  0  0  0  0  0  0  0  0  0  0
  -30.7276  -13.4743  138.6269 C   0  0  0  0  0  0  0  0  0  0  0  0
  -31.7780  -12.9758  137.6523 C   0  0  0  0  0  0  0  0  0  0  0  0
  -33.0317  -13.4014  137.7757 C   0  0  0  0  0  0  0  0  0  0  0  0
  -29.5144  -11.1660  138.4835 C   0  0  0  0  0  0  0  0  0  0  0  0
  -35.3537  -13.4057  138.8531 C   0  0  0  0  0  0  0  0  0  0  0  0
  -35.8976  -13.6587  140.2157 N   0  0  0  0  0  0  0  0  0  0  0  0
  -29.9944  -12.3340  139.3645 C   0  0  0  0  0  0  0  0  0  0  0  0
  -35.3855  -14.9639  140.7378 C   0  0  0  0  0  0  0  0  0  0  0  0
  -33.9241  -12.8334  138.8826 C   0  0  0  0  0  0  0  0  0  0  0  0
  -34.2607  -14.5666  141.7433 C   0  0  0  0  0  0  0  0  0  0  0  0
  -34.5091  -15.2903  143.0684 C   0  0  0  0  0  0  0  0  0  0  0  0
  -34.6425  -15.7504  139.6477 C   0  0  0  0  0  0  0  0  0  0  0  0
  -33.5659  -14.8820  144.1842 C   0  0  0  0  0  0  0  0  0  0  0  0
  -34.6541  -14.2868  144.9900 N   0  0  0  0  0  0  0  0  0  0  0  0
  -35.7020  -14.7606  139.2628 C   0  0  0  0  0  0  0  0  0  0  0  0
  -34.8903  -15.0460  146.2371 C   0  0  0  0  0  0  0  0  0  0  0  0
  -28.3761  -11.5479  137.5278 C   0  0  0  0  0  0  0  0  0  0  0  0
  -35.6002  -14.6628  143.9281 C   0  0  0  0  0  0  0  0  0  0  0  0
  -36.1509  -14.5138  146.9689 C   0  0  0  0  0  0  0  0  0  0  0  0
  -36.9576  -15.6391  147.6064 C   0  0  0  0  0  0  0  0  0  0  0  0
  2  1  1  0
  3  2  1  0
  4  3  2  3
  7  6  1  0
  8  2  1  0
  8  5  1  0
  9  7  1  0
 10  4  1  0
 10  6  1  0
 11  9  1  0
 12 11  1  0
 13  9  1  0
 14 12  1  0
 15 14  1  0
 16  6  1  0
 16  7  1  0
 16  9  1  0
 16 13  1  0
 17 15  1  0
 18  5  1  0
 19 12  1  0
 19 15  1  0
 20 17  1  0
 21 20  1  0
M  END
$$$$

     RDKit          3D

 21 29  0  0  0  0  0  0  0  0999 V2000
  -19.0144   -4.3821  140.4016 C   0  0  0  0  0  0  0  0  0  0  0  0
  -19.0287   -3.5900  139.0618 C   0  0  0  0  0  0  0  0  0  0  0  0
  -18.8760   -5.8855  140.4498 C   0  0  0  0  0  0  0  0  0  0  0  0
  -18.4883   -4.0919  137.6512 C   0  0  0  0  0  0  0  0  0  0  0  0
  -17.6870   -4.2170  138.8498 C   0  0  0  0  0  0  0  0  0  0  0  0
  -18.7860   -6.5336  141.8452 C   0  0  0  0  0  0  0  0  0  0  0  0
  -17.6268   -6.0879  142.7657 C   0  0  0  0  0  0  0  0  0  0  0  0
  -16.2658   -6.8159  142.6140 C   0  0  0  0  0  0  0  0  0  0  0  0
  -15.1489   -6.2976  141.6766 C   0  0  0  0  0  0  0  0  0  0  0  0
  -15.2252   -5.3093  140.4819 C   0  0  0  0  0  0  0  0  0  0  0  0
  -16.4186   -4.3591  140.4709 C   0  0  0  0  0  0  0  0  0  0  0  0
  -16.5092   -3.3571  139.2365 C   0  0  0  0  0  0  0  0  0  0  0  0
  -17.6875   -5.0836  139.9855 C   0  0  0  0  0  0  0  0  0  0  0  0
  -16.0720   -3.2756  137.7802 C   0  0  0  0  0  0  0  0  0  0  0  0
  -17.3658   -3.3506  136.9030 C   0  0  0  0  0  0  0  0  0  0  0  0
  -15.9262   -7.5825  141.3510 C   0  0  0  0  0  0  0  0  0  0  0  0
  -14.8031   -2.5419  137.3815 C   0  0  0  0  0  0  0  0  0  0  0  0
  -14.8525   -4.0688  137.3311 C   0  0  0  0  0  0  0  0  0  0  0  0
  -17.8768   -2.0747  136.2366 C   0  0  0  0  0  0  0  0  0  0  0  0
  -16.9970   -0.9896  136.2354 O   0  0  0  0  0  0  0  0  0  0  0  0
  -17.3706   -3.2377  135.3855 C   0  0  0  0  0  0  0  0  0  0  0  0
  2  1  1  0
  3  1  1  0
  4  2  1  0
  5  2  1  0
  5  4  1  0
  6  3  1  0
  7  6  1  0
  8  7  1  0
  9  8  1  0
 10  9  1  0
 11 10  1  0
 12  5  1  0
 12 11  1  0
 13  1  1  0
 13  3  1  0
 13  5  1  0
 13 11  1  0
 14 12  1  0
 15  4  1  0
 15 14  1  0
 16  8  1  0
 16  9  1  0
 17 14  1  0
 18 14  1  0
 18 17  1  0
 19 15  1  0
 20 19  1  0
 21 15  1  0
 21 19  1  0
M  END
$$$$

     RDKit          3D

 21 27  0  0  0  0  0  0  0  0999 V2000
  -23.2562  -19.2177  143.6445 C   0  0  0  0  0  0  0  0  0  0  0  0
  -23.9218  -18.9485  144.9844 C   0  0  0  0  0  0  0  0  0  0  0  0
  -23.9131  -18.7389  142.3348 C   0  0  0  0  0  0  0  0  0  0  0  0
  -25.3826  -18.4128  144.9130 C   0  0  0  0  0  0  0  0  0  0  0  0
  -22.7459  -18.0832  144.5302 C   0  0  0  0  0  0  0  0  0  0  0  0
  -23.1373  -19.1712  141.0964 C   0  0  0  0  0  0  0  0  0  0  0  0
  -23.1400  -17.7140  141.5126 C   0  0  0  0  0  0  0  0  0  0  0  0
  -25.6076  -16.9746  144.4106 C   0  0  0  0  0  0  0  0  0  0  0  0
  -25.9502  -15.9832  145.5289 C   0  0  0  0  0  0  0  0  0  0  0  0
  -24.9251  -14.8511  145.7008 C   0  0  0  0  0  0  0  0  0  0  0  0
  -23.5138  -15.2761  145.3918 C   0  0  0  0  0  0  0  0  0  0  0  0
  -22.6516  -15.6615  146.5465 C   0  0  0  0  0  0  0  0  0  0  0  0
  -22.4361  -17.1751  146.8567 C   0  0  0  0  0  0  0  0  0  0  0  0
  -22.9235  -18.4245  146.0294 C   0  0  0  0  0  0  0  0  0  0  0  0
  -27.2275  -15.5966  144.7879 C   0  0  0  0  0  0  0  0  0  0  0  0
  -26.9714  -16.7037  143.7733 C   0  0  0  0  0  0  0  0  0  0  0  0
  -23.9706  -15.0001  146.8705 C   0  0  0  0  0  0  0  0  0  0  0  0
  -22.3522  -17.4260  148.3514 C   0  0  0  0  0  0  0  0  0  0  0  0
  -23.3338  -17.8608  149.1631 C   0  0  0  0  0  0  0  0  0  0  0  0
  -24.6482  -18.1567  148.6870 N   0  0  0  0  0  0  0  0  0  0  0  0
  -23.0327  -18.0521  150.6224 C   0  0  0  0  0  0  0  0  0  0  0  0
  2  1  1  0
  3  1  1  0
  4  2  1  0
  5  1  1  0
  5  2  1  0
  6  3  1  0
  7  3  1  0
  7  6  1  0
  8  4  1  0
  9  8  1  0
 10  9  1  0
 11 10  1  0
 12 11  1  0
 13 12  1  0
 14  2  1  0
 14  5  1  0
 14 13  1  0
 15  9  1  0
 16  8  1  0
 16 15  1  0
 17 10  1  0
 17 11  1  0
 17 12  1  0
 18 13  1  0
 19 18  2  3
 20 19  1  0
 21 19  1  0
M  END
$$$$

     RDKit          3D

 11 13  0  0  0  0  0  0  0  0999 V2000
  -23.0819   -1.6664  140.1017 C   0  0  0  0  0  0  0  0  0  0  0  0
  -25.3914   -0.9282  139.3352 C   0  0  0  0  0  0  0  0  0  0  0  0
  -26.2976   -0.3807  140.4229 C   0  0  0  0  0  0  0  0  0  0  0  0
  -23.1250   -1.1211  141.5076 C   0  0  0  0  0  0  0  0  0  0  0  0
  -23.1783    0.2041  141.6978 C   0  0  0  0  0  0  0  0  0  0  0  0
  -27.7720   -0.3714  140.1155 C   0  0  0  0  0  0  0  0  0  0  0  0
  -26.8707   -1.2399  139.2543 C   0  0  0  0  0  0  0  0  0  0  0  0
  -23.1365   -2.0623  142.6837 C   0  0  0  0  0  0  0  0  0  0  0  0
  -26.5532   -1.0747  141.7582 C   0  0  0  0  0  0  0  0  0  0  0  0
  -28.0469   -0.9383  141.5065 C   0  0  0  0  0  0  0  0  0  0  0  0
  -24.4637   -2.1254  139.6204 C   0  0  0  0  0  0  0  0  0  0  0  0
  3  2  1  0
  4  1  1  0
  5  4  2  0
  6  3  1  0
  7  2  1  0
  7  3  1  0
  7  6  1  0
  8  4  1  0
  9  3  1  0
 10  6  1  0
 10  9  1  0
 11  1  1  0
 11  2  1  0
M  END
$$$$

     RDKit          3D

 21 24  0  0  0  0  0  0  0  0999 V2000
  -22.7768   -6.0366  144.1389 O   0  0  0  0  0  0  0  0  0  0  0  0
  -22.8787   -5.6674  142.7866 C   0  0  0  0  0  0  0  0  0  0  0  0
  -21.5120   -5.3823  142.1975 C   0  0  0  0  0  0  0  0  0  0  0  0
  -21.9482   -2.7463  141.6321 C   0  0  0  0  0  0  0  0  0  0  0  0
  -21.0163   -2.1060  142.5773 N   0  0  0  0  0  0  0  0  0  0  0  0
  -21.1862   -0.6389  142.6388 C   0  0  0  0  0  0  0  0  0  0  0  0
  -22.0139   -0.1582  143.8695 C   0  0  0  0  0  0  0  0  0  0  0  0
  -22.3332   -1.2463  144.9050 C   0  0  0  0  0  0  0  0  0  0  0  0
  -21.7762   -5.1661  143.6727 C   0  0  0  0  0  0  0  0  0  0  0  0
  -21.6583   -4.5698  139.7713 C   0  0  0  0  0  0  0  0  0  0  0  0
  -20.2797   -4.1088  140.2254 C   0  0  0  0  0  0  0  0  0  0  0  0
  -18.2933   -5.0614  141.2849 C   0  0  0  0  0  0  0  0  0  0  0  0
  -21.4453   -4.1613  141.2326 C   0  0  0  0  0  0  0  0  0  0  0  0
  -19.2368   -5.1775  140.3546 C   0  0  0  0  0  0  0  0  0  0  0  0
  -23.2422    0.7031  143.4846 C   0  0  0  0  0  0  0  0  0  0  0  0
  -24.3498    0.0188  142.6536 C   0  0  0  0  0  0  0  0  0  0  0  0
  -26.7059   -0.8719  142.9307 C   0  0  0  0  0  0  0  0  0  0  0  0
  -27.4996   -2.1582  143.1393 C   0  0  0  0  0  0  0  0  0  0  0  0
  -25.2693   -0.9012  143.4744 C   0  0  0  0  0  0  0  0  0  0  0  0
  -26.9750   -1.7959  141.7559 C   0  0  0  0  0  0  0  0  0  0  0  0
  -28.0156   -1.2995  140.8651 N   0  0  0  0  0  0  0  0  0  0  0  0
  2  1  1  0
  3  2  1  0
  5  4  1  0
  6  5  1  0
  7  6  1  0
  8  7  1  0
  9  1  1  0
  9  2  1  0
  9  3  1  0
 11 10  1  0
 13  3  1  0
 13  4  1  0
 13 10  1  0
 13 11  1  0
 14 11  1  0
 14 12  2  0
 15  7  1  0
 16 15  1  0
 18 17  1  0
 19 16  1  0
 19 17  1  0
 20 17  1  0
 20 18  1  0
 21 20  1  0
M  END
$$$$

     RDKit          3D

 21 22  0  0  0  0  0  0  0  0999 V2000
  -21.8858    0.3190  141.7981 C   0  0  0  0  0  0  0  0  0  0  0  0
  -21.1030   -0.6749  142.5839 N   0  0  0  0  0  0  0  0  0  0  0  0
  -21.5122    0.4460  140.2628 C   0  0  0  0  0  0  0  0  0  0  0  0
  -21.6778    1.9253  139.7739 C   0  0  0  0  0  0  0  0  0  0  0  0
  -23.3931    0.0583  141.9856 C   0  0  0  0  0  0  0  0  0  0  0  0
  -20.2036   -0.2604  139.8356 C   0  0  0  0  0  0  0  0  0  0  0  0
  -20.6270    2.6352  138.9054 C   0  0  0  0  0  0  0  0  0  0  0  0
  -21.1137   -2.0909  142.1708 C   0  0  0  0  0  0  0  0  0  0  0  0
  -20.1042    1.1008  144.1098 C   0  0  0  0  0  0  0  0  0  0  0  0
  -19.9571   -0.2685  143.4403 C   0  0  0  0  0  0  0  0  0  0  0  0
  -21.2407    3.5647  138.0524 O   0  0  0  0  0  0  0  0  0  0  0  0
  -20.6977    2.9280  140.4154 C   0  0  0  0  0  0  0  0  0  0  0  0
  -21.2266    4.3323  140.8131 C   0  0  0  0  0  0  0  0  0  0  0  0
  -22.4725    4.3007  141.7577 C   0  0  0  0  0  0  0  0  0  0  0  0
  -23.3898    5.5317  141.5024 C   0  0  0  0  0  0  0  0  0  0  0  0
  -24.1027    5.4883  140.1293 C   0  0  0  0  0  0  0  0  0  0  0  0
  -22.0245    4.2092  143.2574 C   0  0  0  0  0  0  0  0  0  0  0  0
  -24.3896    5.7529  142.6421 C   0  0  0  0  0  0  0  0  0  0  0  0
  -22.1800    5.5385  144.0186 C   0  0  0  0  0  0  0  0  0  0  0  0
  -23.6331    5.9781  143.9326 C   0  0  0  0  0  0  0  0  0  0  0  0
  -24.2038    6.6327  144.9556 C   0  0  0  0  0  0  0  0  0  0  0  0
  2  1  1  0
  3  1  1  0
  4  3  1  0
  5  1  1  0
  6  3  1  0
  7  4  1  0
  8  2  1  0
 10  2  1  0
 10  9  1  0
 11  7  1  0
 12  4  1  0
 12  7  1  0
 13 12  1  0
 14 13  1  0
 15 14  1  0
 16 15  1  0
 17 14  1  0
 18 15  1  0
 19 17  1  0
 20 18  1  0
 20 19  1  0
 21 20  2  0
M  END
$$$$

     RDKit          3D

 21 24  0  0  0  0  0  0  0  0999 V2000
  -23.9397   -3.1503  135.6449 N   0  0  0  0  0  0  0  0  0  0  0  0
  -23.4322   -3.6622  134.5732 C   0  0  0  0  0  0  0  0  0  0  0  0
  -25.2839   -2.6288  135.7544 C   0  0  0  0  0  0  0  0  0  0  0  0
  -25.3517   -1.1244  135.5626 C   0  0  0  0  0  0  0  0  0  0  0  0
  -24.2234   -3.8512  133.2919 C   0  0  0  0  0  0  0  0  0  0  0  0
  -24.4233   -5.3429  133.0176 C   0  0  0  0  0  0  0  0  0  0  0  0
  -26.6479   -0.6120  134.9881 C   0  0  0  0  0  0  0  0  0  0  0  0
  -25.4695   -1.7241  136.9590 C   0  0  0  0  0  0  0  0  0  0  0  0
  -26.7498   -0.1418  133.7327 C   0  0  0  0  0  0  0  0  0  0  0  0
  -25.6021   -5.9981  133.6996 C   0  0  0  0  0  0  0  0  0  0  0  0
  -21.9996   -4.1139  134.6239 C   0  0  0  0  0  0  0  0  0  0  0  0
  -26.8963   -5.9885  132.9138 C   0  0  0  0  0  0  0  0  0  0  0  0
  -25.5845   -0.0867  132.7680 C   0  0  0  0  0  0  0  0  0  0  0  0
  -27.8337   -4.7912  133.1665 C   0  0  0  0  0  0  0  0  0  0  0  0
  -24.8764    1.6705  131.7345 C   0  0  0  0  0  0  0  0  0  0  0  0
  -24.5720    1.0171  133.0742 C   0  0  0  0  0  0  0  0  0  0  0  0
  -28.7081   -4.5210  131.9275 C   0  0  0  0  0  0  0  0  0  0  0  0
  -25.9107    0.5907  131.4369 C   0  0  0  0  0  0  0  0  0  0  0  0
  -25.6138   -5.7085  132.1630 C   0  0  0  0  0  0  0  0  0  0  0  0
  -27.9228   -4.0433  130.8670 O   0  0  0  0  0  0  0  0  0  0  0  0
  -28.7245   -5.1046  134.3726 C   0  0  0  0  0  0  0  0  0  0  0  0
  2  1  2  3
  3  1  1  0
  4  3  1  0
  5  2  1  0
  6  5  1  0
  7  4  1  0
  8  3  1  0
  8  4  1  0
  9  7  2  3
 10  6  1  0
 11  2  1  0
 12 10  1  0
 13  9  1  0
 14 12  1  0
 16 13  1  0
 16 15  1  0
 17 14  1  0
 18 13  1  0
 18 15  1  0
 19  6  1  0
 19 10  1  0
 19 12  1  0
 20 17  1  0
 21 14  1  0
M  END
$$$$

     RDKit          3D

 20 23  0  0  0  0  0  0  0  0999 V2000
  -18.2025  -16.0261  141.9979 O   0  0  0  0  0  0  0  0  0  0  0  0
  -18.1339  -15.8506  140.6104 C   0  0  0  0  0  0  0  0  0  0  0  0
  -19.8328  -18.3331  140.7243 As  0  0  0  0  0  3  0  0  0  0  0  0
  -19.2180  -17.6215  138.9463 C   0  0  0  0  0  0  0  0  0  0  0  0
  -19.3520  -16.5289  139.9119 C   0  0  0  0  0  0  0  0  0  0  0  0
  -21.5300  -17.4642  141.3877 C   0  0  0  0  0  0  0  0  0  0  0  0
  -20.3204  -17.6395  137.8547 C   0  0  0  0  0  0  0  0  0  0  0  0
  -20.6285  -19.0409  137.2737 C   0  0  0  0  0  0  0  0  0  0  0  0
  -19.0967  -13.6082  140.9727 C   0  0  0  0  0  0  0  0  0  0  0  0
  -22.3551  -18.9651  143.2772 C   0  0  0  0  0  0  0  0  0  0  0  0
  -22.1112  -19.9726  135.5591 C   0  0  0  0  0  0  0  0  0  0  0  0
  -25.0888  -23.3058  149.8371 O   0  0  0  0  0  0  0  0  0  0  0  0
  -20.0449  -18.8827  134.9192 C   0  0  0  0  0  0  0  0  0  0  0  0
  -18.0739  -14.4108  140.2870 N   0  0  0  0  0  0  0  0  0  0  0  0
  -23.5381  -19.5361  135.9538 C   0  0  0  0  0  0  0  0  0  0  0  0
  -18.5356  -12.9706  142.2286 C   0  0  0  0  0  0  0  0  0  0  0  0
  -21.6632  -17.6493  142.9038 C   0  0  0  0  0  0  0  0  0  0  0  0
  -21.1632  -18.8951  135.8846 N   0  0  0  0  0  0  0  0  0  0  0  0
  -18.8441  -16.3839  140.3948 S   0  0  0  0  0  6  0  0  0  0  0  0
  -17.7944  -18.0330  138.5164 C   0  0  0  0  0  0  0  0  0  0  0  0
  2  1  1  0
  4  3  1  0
  5  2  1  0
  5  3  1  0
  5  4  1  0
  6  3  1  0
  7  4  1  0
  8  7  1  0
 14  2  1  0
 14  9  1  0
 15 11  1  0
 16  9  1  0
 17  6  1  0
 17 10  1  0
 18  8  1  0
 18 11  1  0
 18 13  1  0
 19  9  1  0
 19 10  1  0
 19 12  1  0
 19 16  1  0
 19 17  1  0
 20  4  1  0
M  END
$$$$

     RDKit          3D

 21 26  0  0  0  0  0  0  0  0999 V2000
  -19.6123  -21.2303  137.9051 C   0  0  0  0  0  0  0  0  0  0  0  0
  -20.8021  -21.2221  138.8269 C   0  0  0  0  0  0  0  0  0  0  0  0
  -21.9400  -20.2913  138.4894 C   0  0  0  0  0  0  0  0  0  0  0  0
  -22.0373  -19.1099  139.4766 C   0  0  0  0  0  0  0  0  0  0  0  0
  -24.1725  -18.0983  138.4963 C   0  0  0  0  0  0  0  0  0  0  0  0
  -20.8001  -20.4044  137.4884 C   0  0  0  0  0  0  0  0  0  0  0  0
  -19.9192  -19.1467  137.5031 C   0  0  0  0  0  0  0  0  0  0  0  0
  -24.8301  -16.8429  137.8979 C   0  0  0  0  0  0  0  0  0  0  0  0
  -19.8898  -18.6200  136.0866 C   0  0  0  0  0  0  0  0  0  0  0  0
  -22.6882  -17.8744  138.8378 C   0  0  0  0  0  0  0  0  0  0  0  0
  -18.6278  -19.2334  136.6298 C   0  0  0  0  0  0  0  0  0  0  0  0
  -24.4979  -16.6656  136.4030 C   0  0  0  0  0  0  0  0  0  0  0  0
  -18.7437  -19.9947  137.9222 C   0  0  0  0  0  0  0  0  0  0  0  0
  -24.9197  -15.2874  135.8288 C   0  0  0  0  0  0  0  0  0  0  0  0
  -26.4284  -14.9379  136.0028 C   0  0  0  0  0  0  0  0  0  0  0  0
  -27.4343  -15.6891  135.0904 C   0  0  0  0  0  0  0  0  0  0  0  0
  -24.2986  -13.6810  133.9269 C   0  0  0  0  0  0  0  0  0  0  0  0
  -24.4350  -15.1426  134.3631 C   0  0  0  0  0  0  0  0  0  0  0  0
  -28.7857  -14.9810  134.9596 C   0  0  0  0  0  0  0  0  0  0  0  0
  -27.8316  -15.0270  133.7745 C   0  0  0  0  0  0  0  0  0  0  0  0
  -27.5310  -17.2201  135.1314 C   0  0  0  0  0  0  0  0  0  0  0  0
  2  1  1  0
  3  2  1  0
  4  3  1  0
  6  1  1  0
  6  2  1  0
  6  3  1  0
  7  6  1  0
  8  5  1  0
  9  7  1  0
 10  4  1  0
 10  5  1  0
 11  7  1  0
 11  9  1  0
 12  8  1  0
 13  1  1  0
 13  7  1  0
 13 11  1  0
 14 12  1  0
 15 14  1  0
 16 15  1  0
 18 14  1  0
 18 17  1  0
 19 16  1  0
 20 16  1  0
 20 19  1  0
 21 16  1  0
M  END
$$$$

     RDKit          3D

 21 26  0  0  0  0  0  0  0  0999 V2000
  -31.2543   -5.3210  145.1169 N   0  0  0  0  0  0  0  0  0  0  0  0
  -31.6602   -5.7377  143.7615 C   0  0  0  0  0  0  0  0  0  0  0  0
  -32.4380   -6.9887  143.7911 N   0  0  0  0  0  0  0  0  0  0  0  0
  -31.6787   -8.0111  144.5558 C   0  0  0  0  0  0  0  0  0  0  0  0
  -30.3590   -6.4018  145.5644 C   0  0  0  0  0  0  0  0  0  0  0  0
  -30.7300   -8.8370  143.7964 N   0  0  0  0  0  0  0  0  0  0  0  0
  -30.5769   -5.4510  140.3018 As  0  0  0  0  0  3  0  0  0  0  0  0
  -29.2866   -7.9106  139.5002 C   0  0  0  0  0  0  0  0  0  0  0  0
  -32.1719   -4.6011  143.0067 N   0  0  0  0  0  0  0  0  0  0  0  0
  -31.2924   -7.6103  145.9844 C   0  0  0  0  0  0  0  0  0  0  0  0
  -32.3700   -8.6347  145.6219 N   0  0  0  0  0  0  0  0  0  0  0  0
  -28.4702   -6.5415  141.5171 C   0  0  0  0  0  0  0  0  0  0  0  0
  -29.1000   -4.1680  142.5312 C   0  0  0  0  0  0  0  0  0  0  0  0
  -31.8371   -9.9301  146.0761 C   0  0  0  0  0  0  0  0  0  0  0  0
  -29.1773   -4.7715  143.9445 C   0  0  0  0  0  0  0  0  0  0  0  0
  -28.8807   -5.0987  141.2944 C   0  0  0  0  0  0  0  0  0  0  0  0
  -32.5591  -11.1543  145.5389 C   0  0  0  0  0  0  0  0  0  0  0  0
  -28.8525   -9.3309  139.8311 C   0  0  0  0  0  0  0  0  0  0  0  0
  -32.8603  -10.6553  146.9385 C   0  0  0  0  0  0  0  0  0  0  0  0
  -29.6597   -7.1379  140.7772 C   0  0  0  0  0  0  0  0  0  0  0  0
  -30.2557   -5.8623  144.1739 C   0  0  0  0  0  0  0  0  0  0  0  0
  2  1  1  0
  3  2  1  0
  4  3  1  0
  5  1  1  0
  6  4  1  0
  9  2  1  0
 10  4  1  0
 10  5  1  0
 11  4  1  0
 11 10  1  0
 14 11  1  0
 15 13  1  0
 16  7  1  0
 16 12  1  0
 16 13  1  0
 17 14  1  0
 18  8  1  0
 19 14  1  0
 19 17  1  0
 20  7  1  0
 20  8  1  0
 20 12  1  0
 21  1  1  0
 21  2  1  0
 21  5  1  0
 21 15  1  0
M  END
$$$$

     RDKit          3D

 21 23  0  0  0  0  0  0  0  0999 V2000
  -29.8793   -9.4446  139.9756 F   0  0  0  0  0  0  0  0  0  0  0  0
  -31.4166   -8.7103  138.3121 C   0  0  0  0  0  0  0  0  0  0  0  0
  -32.0309   -5.8709  138.8582 C   0  0  0  0  0  0  0  0  0  0  0  0
  -30.9952   -9.8986  137.5465 C   0  0  0  0  0  0  0  0  0  0  0  0
  -30.9863   -9.7400  135.9343 C   0  0  0  0  0  0  0  0  0  0  0  0
  -35.1760  -11.0251  144.9516 C   0  0  0  0  0  0  0  0  0  0  0  0
  -36.1342  -12.0182  144.2385 C   0  0  0  0  0  0  0  0  0  0  0  0
  -32.4406   -9.3952  134.3169 C   0  0  0  0  0  0  0  0  0  0  0  0
  -30.5911   -5.2914  139.4759 C   0  0  0  0  0  0  0  0  0  0  0  0
  -33.8012   -7.5564  138.7620 C   0  0  0  0  0  0  0  0  0  0  0  0
  -35.0526  -10.5462  142.3545 C   0  0  0  0  0  0  0  0  0  0  0  0
  -31.5281   -8.4646  135.1060 C   0  0  0  0  0  0  0  0  0  0  0  0
  -34.8199  -11.1871  140.9000 C   0  0  0  0  0  0  0  0  0  0  0  0
  -32.0326  -10.5970  135.2027 C   0  0  0  0  0  0  0  0  0  0  0  0
  -34.8491  -11.5808  143.4924 C   0  0  0  0  0  0  0  0  0  0  0  0
  -33.1712   -6.4194  139.4692 O   0  0  0  0  0  0  0  0  0  0  0  0
  -34.2080  -11.2203  139.4437 C   0  0  0  0  0  0  0  0  0  0  0  0
  -32.6828  -11.6071  139.4257 C   0  0  0  0  0  0  0  0  0  0  0  0
  -31.4212  -10.8563  138.8142 C   0  0  0  0  0  0  0  0  0  0  0  0
  -32.8723   -8.4574  137.8846 C   0  0  0  0  0  0  0  0  0  0  0  0
  -31.2349   -9.5218  139.6080 C   0  0  0  0  0  0  0  0  0  0  0  0
  4  2  1  0
  5  4  1  0
  7  6  1  0
  9  3  1  0
 12  5  1  0
 12  8  1  0
 13 11  1  0
 14  5  1  0
 14  8  1  0
 15  6  1  0
 15  7  1  0
 15 11  1  0
 16  3  1  0
 16 10  1  0
 17 13  1  0
 18 17  1  0
 19  4  1  0
 19 18  1  0
 20  2  1  0
 20 10  1  0
 21  1  1  0
 21  2  1  0
 21 19  1  0
M  END
$$$$

     RDKit          3D

 21 22  0  0  0  0  0  0  0  0999 V2000
  -18.3526  -19.9365  135.9955 C   0  0  0  0  0  0  0  0  0  0  0  0
  -17.3892  -21.1273  136.0698 C   0  0  0  0  0  0  0  0  0  0  0  0
  -20.0006  -21.1901  137.5704 C   0  0  0  0  0  0  0  0  0  0  0  0
  -20.8978  -20.0194  135.4182 C   0  0  0  0  0  0  0  0  0  0  0  0
  -15.9009  -20.7838  136.2357 C   0  0  0  0  0  0  0  0  0  0  0  0
  -21.4989  -21.3741  134.9522 C   0  0  0  0  0  0  0  0  0  0  0  0
  -22.6522  -21.9245  135.7650 C   0  0  0  0  0  0  0  0  0  0  0  0
  -15.3646  -21.3671  137.5252 C   0  0  0  0  0  0  0  0  0  0  0  0
  -17.9603  -20.6938  134.7268 C   0  0  0  0  0  0  0  0  0  0  0  0
  -15.7646  -20.7929  138.8648 C   0  0  0  0  0  0  0  0  0  0  0  0
  -15.5807  -19.2691  138.9384 C   0  0  0  0  0  0  0  0  0  0  0  0
  -19.8019  -20.0847  136.5246 C   0  0  0  0  0  0  0  0  0  0  0  0
  -16.8428  -18.4222  138.8091 C   0  0  0  0  0  0  0  0  0  0  0  0
  -23.5276  -21.2027  136.4950 C   0  0  0  0  0  0  0  0  0  0  0  0
  -14.6853  -22.5239  137.5258 C   0  0  0  0  0  0  0  0  0  0  0  0
  -24.6313  -21.8667  137.2816 C   0  0  0  0  0  0  0  0  0  0  0  0
  -16.2193  -18.6464  140.1788 C   0  0  0  0  0  0  0  0  0  0  0  0
  -24.0745  -22.6391  138.4930 C   0  0  0  0  0  0  0  0  0  0  0  0
  -24.7649  -22.2636  139.8235 C   0  0  0  0  0  0  0  0  0  0  0  0
  -24.2628  -19.7761  140.0909 C   0  0  0  0  0  0  0  0  0  0  0  0
  -23.9943  -21.1867  140.6157 C   0  0  0  0  0  0  0  0  0  0  0  0
  2  1  1  0
  5  2  1  0
  6  4  1  0
  7  6  1  0
  8  5  1  0
  9  1  1  0
  9  2  1  0
 10  8  1  0
 11 10  1  0
 12  1  1  0
 12  3  1  0
 12  4  1  0
 13 11  1  0
 14  7  2  3
 15  8  2  0
 16 14  1  0
 17 11  1  0
 17 13  1  0
 18 16  1  0
 19 18  1  0
 21 19  1  0
 21 20  1  0
M  END
$$$$

     RDKit          3D

 21 26  0  0  0  0  0  0  0  0999 V2000
  -29.1319    1.5681  134.8203 O   0  0  0  0  0  0  0  0  0  0  0  0
  -29.5815    2.9015  134.8206 C   0  0  0  0  0  0  0  0  0  0  0  0
  -28.5432    3.9821  135.0508 C   0  0  0  0  0  0  0  0  0  0  0  0
  -27.5390    4.4025  134.2383 C   0  0  0  0  0  0  0  0  0  0  0  0
  -30.7724    3.1441  133.8781 C   0  0  0  0  0  0  0  0  0  0  0  0
  -27.1569    4.0155  132.8103 C   0  0  0  0  0  0  0  0  0  0  0  0
  -31.5823    1.9580  133.2864 C   0  0  0  0  0  0  0  0  0  0  0  0
  -27.7404    4.8560  131.6770 C   0  0  0  0  0  0  0  0  0  0  0  0
  -28.6672    6.0323  132.0771 C   0  0  0  0  0  0  0  0  0  0  0  0
  -28.3494    3.4975  132.0410 C   0  0  0  0  0  0  0  0  0  0  0  0
  -30.9605    3.2518  135.3916 C   0  0  0  0  0  0  0  0  0  0  0  0
  -30.7450    0.8637  132.5791 C   0  0  0  0  0  0  0  0  0  0  0  0
  -27.2112    2.5498  132.4312 C   0  0  0  0  0  0  0  0  0  0  0  0
  -29.3052    6.6326  130.8543 C   0  0  0  0  0  0  0  0  0  0  0  0
  -30.9353   -0.5494  133.1800 C   0  0  0  0  0  0  0  0  0  0  0  0
  -30.0008   -0.9068  134.3583 C   0  0  0  0  0  0  0  0  0  0  0  0
  -29.7739    5.8401  129.8813 C   0  0  0  0  0  0  0  0  0  0  0  0
  -30.3466   -0.1872  135.6886 C   0  0  0  0  0  0  0  0  0  0  0  0
  -29.4888    0.9746  135.9873 N   0  0  0  0  0  0  0  0  0  0  0  0
  -29.6681    4.3445  130.0063 C   0  0  0  0  0  0  0  0  0  0  0  0
  -28.2983    3.9402  130.5834 C   0  0  0  0  0  0  0  0  0  0  0  0
  2  1  1  0
  3  2  1  0
  4  3  2  3
  5  2  1  0
  6  4  1  0
  7  5  1  0
  8  6  1  0
  9  8  1  0
 10  6  1  0
 10  8  1  0
 11  2  1  0
 11  5  1  0
 12  7  1  0
 13  6  1  0
 13 10  1  0
 14  9  1  0
 15 12  1  0
 16 15  1  0
 17 14  2  0
 18 16  1  0
 19  1  1  0
 19 18  1  0
 20 17  1  0
 21  8  1  0
 21 10  1  0
 21 20  1  0
M  END
$$$$

     RDKit          3D

 21 28  0  0  0  0  0  0  0  0999 V2000
  -18.6944  -21.2702  134.3840 O   0  0  0  0  0  0  0  0  0  0  0  0
  -18.4645  -20.8834  133.0612 C   0  0  0  0  0  0  0  0  0  0  0  0
  -17.0647  -21.0819  132.5241 C   0  0  0  0  0  0  0  0  0  0  0  0
  -16.6588  -20.0464  131.4438 C   0  0  0  0  0  0  0  0  0  0  0  0
  -19.4079  -19.9008  132.3922 C   0  0  0  0  0  0  0  0  0  0  0  0
  -16.0539  -18.8022  132.0879 C   0  0  0  0  0  0  0  0  0  0  0  0
  -18.2409  -22.0510  132.1486 C   0  0  0  0  0  0  0  0  0  0  0  0
  -19.8518  -20.5458  131.0684 C   0  0  0  0  0  0  0  0  0  0  0  0
  -18.9281  -21.7365  130.8124 C   0  0  0  0  0  0  0  0  0  0  0  0
  -15.0302  -18.1068  131.1883 C   0  0  0  0  0  0  0  0  0  0  0  0
  -15.6054  -17.8812  129.7973 C   0  0  0  0  0  0  0  0  0  0  0  0
  -17.1138  -17.7815  130.1081 C   0  0  0  0  0  0  0  0  0  0  0  0
  -16.7994  -22.5099  132.0760 C   0  0  0  0  0  0  0  0  0  0  0  0
  -17.5722  -16.2904  130.2750 C   0  0  0  0  0  0  0  0  0  0  0  0
  -16.7004  -15.2888  131.0917 C   0  0  0  0  0  0  0  0  0  0  0  0
  -16.3848  -15.6658  132.5672 C   0  0  0  0  0  0  0  0  0  0  0  0
  -14.9379  -16.1603  132.8530 C   0  0  0  0  0  0  0  0  0  0  0  0
  -14.2992  -16.8352  131.6377 C   0  0  0  0  0  0  0  0  0  0  0  0
  -13.5860  -18.1780  131.6622 C   0  0  0  0  0  0  0  0  0  0  0  0
  -18.6863  -18.5595  132.1992 C   0  0  0  0  0  0  0  0  0  0  0  0
  -17.3795  -18.6764  131.3604 C   0  0  0  0  0  0  0  0  0  0  0  0
  2  1  1  0
  3  2  1  0
  4  3  1  0
  5  2  1  0
  6  4  1  0
  7  2  1  0
  7  3  1  0
  8  5  1  0
  9  7  1  0
  9  8  1  0
 10  6  1  0
 11 10  1  0
 12 11  1  0
 13  3  1  0
 13  7  1  0
 14 12  1  0
 15 14  1  0
 16 15  1  0
 17 16  1  0
 18 10  1  0
 18 17  1  0
 19 10  1  0
 19 18  1  0
 20  5  1  0
 21  4  1  0
 21  6  1  0
 21 12  1  0
 21 20  1  0
M  END
$$$$

     RDKit          3D

 11 14  0  0  0  0  0  0  0  0999 V2000
  -24.4304   -1.5965  136.3918 O   0  0  0  0  0  0  0  0  0  0  0  0
  -25.5176   -2.4577  136.2318 C   0  0  0  0  0  0  0  0  0  0  0  0
  -26.7048   -1.9435  136.7560 O   0  0  0  0  0  0  0  0  0  0  0  0
  -25.2065   -3.8059  136.9169 C   0  0  0  0  0  0  0  0  0  0  0  0
  -26.2440   -4.8608  136.4704 C   0  0  0  0  0  0  0  0  0  0  0  0
  -26.0008   -6.7496  135.8178 C   0  0  0  0  0  0  0  0  0  0  0  0
  -25.0368   -7.0883  136.9272 C   0  0  0  0  0  0  0  0  0  0  0  0
  -23.9118   -4.2190  136.5581 O   0  0  0  0  0  0  0  0  0  0  0  0
  -25.9285   -5.4630  135.2437 O   0  0  0  0  0  0  0  0  0  0  0  0
  -25.5411   -1.2963  137.1872 C   0  0  0  0  0  0  0  0  0  0  0  0
  -26.2066   -6.1714  137.2219 C   0  0  0  0  0  0  0  0  0  0  0  0
  2  1  1  0
  3  2  1  0
  4  2  1  0
  5  4  1  0
  7  6  1  0
  8  4  1  0
  9  5  1  0
  9  6  1  0
 10  1  1  0
 10  2  1  0
 10  3  1  0
 11  5  1  0
 11  6  1  0
 11  7  1  0
M  END
$$$$

     RDKit          3D

 21 24  0  0  0  0  0  0  0  0999 V2000
  -22.4441   -2.4064  139.7718 C   0  0  0  0  0  0  0  0  0  0  0  0
  -23.7871   -3.0506  138.3639 C   0  0  0  0  0  0  0  0  0  0  0  0
  -22.3657   -0.2439  139.5210 C   0  0  0  0  0  0  0  0  0  0  0  0
  -20.9058    0.9892  139.2646 C   0  0  0  0  0  0  0  0  0  0  0  0
  -24.9135   -4.0636  138.5772 O   0  0  0  0  0  0  0  0  0  0  0  0
  -24.0877   -1.9554  137.4175 C   0  0  0  0  0  0  0  0  0  0  0  0
  -25.4639   -2.2653  136.4037 C   0  0  0  0  0  0  0  0  0  0  0  0
  -19.3927    0.1944  138.8366 C   0  0  0  0  0  0  0  0  0  0  0  0
  -18.3731    1.7046  139.4091 C   0  0  0  0  0  0  0  0  0  0  0  0
  -20.0348    2.7716  140.2047 C   0  0  0  0  0  0  0  0  0  0  0  0
  -18.6029    4.2122  138.9356 C   0  0  0  0  0  0  0  0  0  0  0  0
  -21.4045    3.3731  141.7041 C   0  0  0  0  0  0  0  0  0  0  0  0
  -18.8624    6.4184  137.5551 C   0  0  0  0  0  0  0  0  0  0  0  0
  -19.3955    8.6415  135.0403 C   0  0  0  0  0  0  0  0  0  0  0  0
  -17.9299    4.2328  137.8457 C   0  0  0  0  0  0  0  0  0  0  0  0
  -18.5413   10.3097  132.7321 C   0  0  0  0  0  0  0  0  0  0  0  0
  -20.3352   10.5121  132.0269 C   0  0  0  0  0  0  0  0  0  0  0  0
  -20.8331   -3.8765  140.4784 C   0  0  0  0  0  0  0  0  0  0  0  0
  -19.6048    2.4343  137.5019 C   0  0  0  0  0  0  0  0  0  0  0  0
  -24.0041   -1.9649  139.2543 C   0  0  0  0  0  0  0  0  0  0  0  0
  -25.0765   -2.0273  140.5804 C   0  0  0  0  0  0  0  0  0  0  0  0
  2  1  1  0
  3  1  1  0
  4  3  1  0
  5  2  1  0
  6  2  1  0
  7  6  1  0
  8  4  1  0
  9  8  2  0
 10  4  1  0
 11  9  1  0
 12 10  1  0
 13 11  1  0
 14 13  1  0
 15 11  1  0
 15 13  1  0
 16 14  1  0
 17 16  1  0
 18  1  1  0
 19 10  1  0
 19 15  1  0
 20  1  1  0
 20  2  1  0
 20  6  1  0
 21 20  1  0
M  END
$$$$

     RDKit          3D

 21 23  0  0  0  0  0  0  0  0999 V2000
  -24.0418  -16.7006  145.0704 O   0  0  0  0  0  0  0  0  0  0  0  0
  -22.8549  -17.3167  144.5896 C   0  0  0  0  0  0  0  0  0  0  0  0
  -21.7675  -16.8669  145.3465 O   0  0  0  0  0  0  0  0  0  0  0  0
  -25.3019  -17.0708  144.5993 C   0  0  0  0  0  0  0  0  0  0  0  0
  -26.4072  -16.4586  145.0442 C   0  0  0  0  0  0  0  0  0  0  0  0
  -27.7564  -16.7790  144.4347 C   0  0  0  0  0  0  0  0  0  0  0  0
  -28.1981  -15.7545  143.3545 C   0  0  0  0  0  0  0  0  0  0  0  0
  -27.5370  -16.0405  141.9747 C   0  0  0  0  0  0  0  0  0  0  0  0
  -27.8761  -14.9728  140.9600 C   0  0  0  0  0  0  0  0  0  0  0  0
  -27.0449  -14.0272  140.4708 C   0  0  0  0  0  0  0  0  0  0  0  0
  -26.3193  -15.3172  146.0365 C   0  0  0  0  0  0  0  0  0  0  0  0
  -25.5424  -13.9309  140.6586 C   0  0  0  0  0  0  0  0  0  0  0  0
  -26.0235  -13.9536  145.3702 C   0  0  0  0  0  0  0  0  0  0  0  0
  -28.0563  -14.2811  143.8299 C   0  0  0  0  0  0  0  0  0  0  0  0
  -25.0925  -12.4794  141.0514 C   0  0  0  0  0  0  0  0  0  0  0  0
  -26.5759  -13.8202  143.9308 C   0  0  0  0  0  0  0  0  0  0  0  0
  -23.7356  -11.9843  140.4555 C   0  0  0  0  0  0  0  0  0  0  0  0
  -22.6921  -12.9920  139.9842 C   0  0  0  0  0  0  0  0  0  0  0  0
  -23.4920  -12.1815  138.9652 C   0  0  0  0  0  0  0  0  0  0  0  0
  -25.0067  -12.2766  142.5932 C   0  0  0  0  0  0  0  0  0  0  0  0
  -26.3532  -12.4018  143.3414 C   0  0  0  0  0  0  0  0  0  0  0  0
  2  1  1  0
  3  2  1  0
  4  1  1  0
  5  4  2  3
  6  5  1  0
  7  6  1  0
  8  7  1  0
  9  8  1  0
 10  9  2  3
 11  5  1  0
 12 10  1  0
 13 11  1  0
 14  7  1  0
 15 12  1  0
 16 13  1  0
 16 14  1  0
 17 15  1  0
 18 17  1  0
 19 17  1  0
 19 18  1  0
 20 15  1  0
 21 16  1  0
 21 20  1  0
M  END
$$$$

     RDKit          3D

 21 25  0  0  0  0  0  0  0  0999 V2000
  -25.9958  -20.8315  139.3760 C   0  0  0  0  0  0  0  0  0  0  0  0
  -25.5332  -22.2700  139.1434 C   0  0  0  0  0  0  0  0  0  0  0  0
  -25.2943  -19.9096  138.3964 C   0  0  0  0  0  0  0  0  0  0  0  0
  -24.4453  -20.6927  137.4108 C   0  0  0  0  0  0  0  0  0  0  0  0
  -26.4778  -23.5063  139.2106 C   0  0  0  0  0  0  0  0  0  0  0  0
  -25.7265  -21.3083  137.9639 C   0  0  0  0  0  0  0  0  0  0  0  0
  -24.2130  -22.5031  139.5100 F   0  0  0  0  0  0  0  0  0  0  0  0
  -28.0384  -23.3279  139.1721 C   0  0  0  0  0  0  0  0  0  0  0  0
  -28.6377  -22.3798  140.2662 C   0  0  0  0  0  0  0  0  0  0  0  0
  -29.8560  -21.3983  140.0258 C   0  0  0  0  0  0  0  0  0  0  0  0
  -30.2650  -21.0968  138.5355 C   0  0  0  0  0  0  0  0  0  0  0  0
  -28.7524  -23.9695  137.9255 C   0  0  0  0  0  0  0  0  0  0  0  0
  -31.7815  -21.1748  138.2436 C   0  0  0  0  0  0  0  0  0  0  0  0
  -28.7140  -23.8843  140.4769 C   0  0  0  0  0  0  0  0  0  0  0  0
  -31.0107  -21.5805  141.0613 C   0  0  0  0  0  0  0  0  0  0  0  0
  -32.5072  -20.0225  138.8958 C   0  0  0  0  0  0  0  0  0  0  0  0
  -31.9749  -19.4140  140.1755 C   0  0  0  0  0  0  0  0  0  0  0  0
  -28.2045  -23.5111  136.5627 C   0  0  0  0  0  0  0  0  0  0  0  0
  -33.6561  -19.6542  138.4559 N   0  0  0  0  0  0  0  0  0  0  0  0
  -30.0748  -24.5967  140.4483 C   0  0  0  0  0  0  0  0  0  0  0  0
  -31.9060  -20.4113  141.2581 N   0  0  0  0  0  0  0  0  0  0  0  0
  2  1  1  0
  3  1  1  0
  4  3  1  0
  5  2  1  0
  6  1  1  0
  6  2  1  0
  6  3  1  0
  6  4  1  0
  7  2  1  0
  8  5  1  0
  9  8  1  0
 10  9  1  0
 11 10  1  0
 12  8  1  0
 13 11  1  0
 14  8  1  0
 14  9  1  0
 15 10  1  0
 16 13  1  0
 17 16  1  0
 18 12  1  0
 19 16  2  0
 20 14  1  0
 21 15  1  0
 21 17  1  0
M  END
$$$$

     RDKit          3D

 20 25  0  0  0  0  0  0  0  0999 V2000
  -22.6021  -14.9615  140.8412 O   0  0  0  0  0  0  0  0  0  0  0  0
  -23.1352  -19.2348  140.8541 O   0  0  0  0  0  0  0  0  0  0  0  0
  -23.8003  -18.9276  143.1658 C   0  0  0  0  0  0  0  0  0  0  0  0
  -24.7543  -20.1332  143.1967 C   0  0  0  0  0  0  0  0  0  0  0  0
  -24.4553  -21.1887  144.2586 C   0  0  0  0  0  0  0  0  0  0  0  0
  -24.9141  -22.6204  143.9415 C   0  0  0  0  0  0  0  0  0  0  0  0
  -23.7302  -23.5795  143.8115 C   0  0  0  0  0  0  0  0  0  0  0  0
  -22.8688  -23.2624  142.5812 C   0  0  0  0  0  0  0  0  0  0  0  0
  -21.3945  -23.1638  142.8588 C   0  0  0  0  0  0  0  0  0  0  0  0
  -20.5245  -22.3259  141.9713 C   0  0  0  0  0  0  0  0  0  0  0  0
  -19.4785  -23.4774  141.9767 C   0  0  0  0  0  0  0  0  0  0  0  0
  -19.6587  -24.9349  141.6509 C   0  0  0  0  0  0  0  0  0  0  0  0
  -20.5348  -24.3950  142.7597 C   0  0  0  0  0  0  0  0  0  0  0  0
  -19.9045  -22.7715  140.6883 C   0  0  0  0  0  0  0  0  0  0  0  0
  -21.9443  -16.1986  140.8985 C   0  0  0  0  0  0  0  0  0  0  0  0
  -21.5859  -18.0557  142.2644 C   0  0  0  0  0  0  0  0  0  0  0  0
  -22.6485  -19.1633  142.1730 C   0  0  0  0  0  0  0  0  0  0  0  0
  -22.1715  -16.7658  142.1748 O   0  0  0  0  0  0  0  0  0  0  0  0
  -25.6191  -20.2164  144.4476 C   0  0  0  0  0  0  0  0  0  0  0  0
  -21.9773  -24.4171  142.1901 C   0  0  0  0  0  0  0  0  0  0  0  0
  4  3  1  0
  5  4  1  0
  6  5  1  0
  7  6  1  0
  8  7  1  0
  9  8  1  0
 10  9  1  0
 11 10  1  0
 12 11  1  0
 13  9  1  0
 13 11  1  0
 13 12  1  0
 14 10  1  0
 14 11  1  0
 15  1  1  0
 17  2  1  0
 17  3  1  0
 17 16  1  0
 18 15  1  0
 18 16  1  0
 19  4  1  0
 19  5  1  0
 20  8  1  0
 20  9  1  0
 20 13  1  0
M  END
$$$$

     RDKit          3D

 14 16  0  0  0  0  0  0  0  0999 V2000
  -28.1833   -8.7220  152.9522 O   0  0  0  0  0  0  0  0  0  0  0  0
  -28.1129   -7.5553  153.5659 O   0  0  0  0  0  0  0  0  0  0  0  0
  -26.9994   -9.4062  153.2787 C   0  0  0  0  0  0  0  0  0  0  0  0
  -28.2414  -11.6354  153.0073 C   0  0  0  0  0  0  0  0  0  0  0  0
  -25.6723  -11.5131  153.0297 C   0  0  0  0  0  0  0  0  0  0  0  0
  -24.4110  -11.7540  152.3066 C   0  0  0  0  0  0  0  0  0  0  0  0
  -26.9914  -10.7979  152.6231 C   0  0  0  0  0  0  0  0  0  0  0  0
  -25.5552  -12.4527  151.7217 C   0  0  0  0  0  0  0  0  0  0  0  0
  -28.3874  -11.8943  154.5208 C   0  0  0  0  0  0  0  0  0  0  0  0
  -25.2318  -12.9138  153.0631 C   0  0  0  0  0  0  0  0  0  0  0  0
  -29.5393  -12.8603  154.8418 C   0  0  0  0  0  0  0  0  0  0  0  0
  -29.1711  -14.3269  154.5693 C   0  0  0  0  0  0  0  0  0  0  0  0
  -30.3087  -15.2664  154.9950 C   0  0  0  0  0  0  0  0  0  0  0  0
  -29.9692  -16.6639  154.7355 N   0  0  0  0  0  0  0  0  0  0  0  0
  2  1  1  0
  3  1  1  0
  6  5  1  0
  7  3  1  0
  7  4  1  0
  7  5  1  0
  8  5  1  0
  8  6  1  0
  9  4  1  0
 10  5  1  0
 10  6  1  0
 10  8  1  0
 11  9  1  0
 12 11  1  0
 13 12  1  0
 14 13  1  0
M  END
$$$$

     RDKit          3D

 20 24  0  0  0  0  0  0  0  0999 V2000
  -31.8322   -7.5537  142.2051 O   0  0  0  0  0  0  0  0  0  0  0  0
  -30.5918  -12.5460  141.8673 C   0  0  0  0  0  0  0  0  0  0  0  0
  -31.2425  -12.4311  140.6311 O   0  0  0  0  0  0  0  0  0  0  0  0
  -32.4926   -8.7357  142.5634 C   0  0  0  0  0  0  0  0  0  0  0  0
  -31.7200   -9.5991  143.5593 C   0  0  0  0  0  0  0  0  0  0  0  0
  -34.3053   -9.5448  143.9908 C   0  0  0  0  0  0  0  0  0  0  0  0
  -31.8863  -11.7906  143.4282 Sb  0  0  0  0  0  3  0  0  0  0  0  0
  -33.6137   -9.2444  141.6661 C   0  0  0  0  0  0  0  0  0  0  0  0
  -35.4772  -10.9137  142.0635 C   0  0  0  0  0  0  0  0  0  0  0  0
  -36.8829  -11.4899  142.3350 C   0  0  0  0  0  0  0  0  0  0  0  0
  -34.8295   -9.5728  142.5521 C   0  0  0  0  0  0  0  0  0  0  0  0
  -36.6487  -10.4952  141.2124 C   0  0  0  0  0  0  0  0  0  0  0  0
  -37.0983  -11.5306  143.8647 C   0  0  0  0  0  0  0  0  0  0  0  0
  -32.9641   -8.8166  144.0007 C   0  0  0  0  0  0  0  0  0  0  0  0
  -38.5537  -13.4696  144.7055 C   0  0  0  0  0  0  0  0  0  0  0  0
  -36.6513  -11.3531  139.6143 P   0  0  0  0  0  2  0  0  0  0  0  0
  -37.9652  -10.6293  141.8215 N   0  0  0  0  0  2  0  0  0  0  0  0
  -36.1490  -13.2939  145.4607 C   0  0  0  0  0  0  0  0  0  0  0  0
  -34.2064  -12.8392  144.6397 Mg  0  0  0  0  0  2  0  0  0  0  0  0
  -37.1366  -13.0266  144.3140 C   0  0  0  0  0  0  0  0  0  0  0  0
  3  2  1  0
  4  1  1  0
  5  4  1  0
  7  2  1  0
  7  5  1  0
  8  4  1  0
 10  9  1  0
 11  6  1  0
 11  8  1  0
 11  9  1  0
 12  9  1  0
 12 10  1  0
 13 10  1  0
 14  4  1  0
 14  5  1  0
 14  6  1  0
 16 12  1  0
 17 10  1  0
 17 12  1  0
 19  7  1  0
 19 18  1  0
 20 13  1  0
 20 15  1  0
 20 18  1  0
M  RAD  2  16   2  17   2
M  END
$$$$

     RDKit          3D

 21 27  0  0  0  0  0  0  0  0999 V2000
  -30.0546  -10.6867  136.8847 C   0  0  0  0  0  0  0  0  0  0  0  0
  -28.6608  -10.2599  137.4790 C   0  0  0  0  0  0  0  0  0  0  0  0
  -28.1103  -10.6684  138.8630 C   0  0  0  0  0  0  0  0  0  0  0  0
  -30.9616  -11.4733  134.5086 C   0  0  0  0  0  0  0  0  0  0  0  0
  -28.9750  -11.5734  139.7359 C   0  0  0  0  0  0  0  0  0  0  0  0
  -27.6268  -11.3696  137.5903 C   0  0  0  0  0  0  0  0  0  0  0  0
  -29.6477  -11.2997  141.0743 C   0  0  0  0  0  0  0  0  0  0  0  0
  -29.8584  -10.8476  135.3496 C   0  0  0  0  0  0  0  0  0  0  0  0
  -28.9890  -10.2031  141.9324 C   0  0  0  0  0  0  0  0  0  0  0  0
  -30.8853  -11.7843  137.5905 C   0  0  0  0  0  0  0  0  0  0  0  0
  -29.9018   -8.3482  143.4850 C   0  0  0  0  0  0  0  0  0  0  0  0
  -30.3546  -10.8888  139.7938 C   0  0  0  0  0  0  0  0  0  0  0  0
  -31.1631  -11.7678  138.9097 C   0  0  0  0  0  0  0  0  0  0  0  0
  -29.6814  -12.2533  134.7945 C   0  0  0  0  0  0  0  0  0  0  0  0
  -31.1570   -8.9939  142.9089 C   0  0  0  0  0  0  0  0  0  0  0  0
  -31.5861  -10.3038  143.5894 C   0  0  0  0  0  0  0  0  0  0  0  0
  -32.4528   -9.9861  144.8124 C   0  0  0  0  0  0  0  0  0  0  0  0
  -29.8713   -8.9486  142.0811 C   0  0  0  0  0  0  0  0  0  0  0  0
  -33.5270  -11.0098  145.1178 C   0  0  0  0  0  0  0  0  0  0  0  0
  -34.7274  -10.8735  144.2083 C   0  0  0  0  0  0  0  0  0  0  0  0
  -33.8937   -9.6457  144.4968 C   0  0  0  0  0  0  0  0  0  0  0  0
  2  1  1  0
  3  2  1  0
  5  3  1  0
  6  2  1  0
  6  3  1  0
  7  5  1  0
  8  1  1  0
  8  4  1  0
  9  7  1  0
 10  1  1  0
 12  5  1  0
 12  7  1  0
 13 10  2  0
 13 12  1  0
 14  4  1  0
 14  8  1  0
 15 11  1  0
 16 15  1  0
 17 16  1  0
 18  9  1  0
 18 11  1  0
 18 15  1  0
 19 17  1  0
 20 19  1  0
 21 17  1  0
 21 19  1  0
 21 20  1  0
M  END
$$$$

     RDKit          3D

 11 12  0  0  0  0  0  0  0  0999 V2000
  -22.8798   -4.3488  145.7611 C   0  0  0  0  0  0  0  0  0  0  0  0
  -24.7752   -5.5062  147.9972 C   0  0  0  0  0  0  0  0  0  0  0  0
  -23.2844   -3.9903  144.3284 C   0  0  0  0  0  0  0  0  0  0  0  0
  -24.2823   -2.8374  144.1801 C   0  0  0  0  0  0  0  0  0  0  0  0
  -25.8471   -6.4066  148.0142 O   0  0  0  0  0  0  0  0  0  0  0  0
  -23.6109   -6.1537  147.3706 N   0  0  0  0  0  0  0  0  0  0  0  0
  -24.3477   -4.9872  143.8763 C   0  0  0  0  0  0  0  0  0  0  0  0
  -24.5382   -6.0067  145.0129 C   0  0  0  0  0  0  0  0  0  0  0  0
  -23.3524   -5.7908  145.9601 C   0  0  0  0  0  0  0  0  0  0  0  0
  -26.6203   -3.8154  144.5566 C   0  0  0  0  0  0  0  0  0  0  0  0
  -25.3475   -3.8238  143.7012 C   0  0  0  0  0  0  0  0  0  0  0  0
  3  1  1  0
  4  3  1  0
  5  2  1  0
  6  2  1  0
  7  3  1  0
  8  7  1  0
  9  1  1  0
  9  6  1  0
  9  8  1  0
 11  4  1  0
 11  7  1  0
 11 10  1  0
M  END
$$$$

     RDKit          3D

 20 24  0  0  0  0  0  0  0  0999 V2000
  -25.1537    0.5718  146.4745 C   0  0  0  0  0  0  0  0  0  0  0  0
  -25.6423   -1.3899  146.5686 C   0  0  0  0  0  0  0  0  0  0  0  0
  -26.0034   -0.2094  147.5074 C   0  0  0  0  0  0  0  0  0  0  0  0
  -25.8587    0.4206  145.0753 C   0  0  0  0  0  0  0  0  0  0  0  0
  -27.4376    0.1446  148.0193 C   0  0  0  0  0  0  0  0  0  0  0  0
  -25.0095   -0.4964  143.0352 C   0  0  0  0  0  0  0  0  0  0  0  0
  -22.5774   -1.5377  142.9596 C   0  0  0  0  0  0  0  0  0  0  0  0
  -23.5162   -0.3487  142.7271 C   0  0  0  0  0  0  0  0  0  0  0  0
  -24.2762   -0.7002  146.4596 C   0  0  0  0  0  0  0  0  0  0  0  0
  -27.6787   -0.7430  144.8947 C   0  0  0  0  0  0  0  0  0  0  0  0
  -27.3427    0.7570  144.8731 C   0  0  0  0  0  0  0  0  0  0  0  0
  -27.4855   -0.9373  150.4160 C   0  0  0  0  0  0  0  0  0  0  0  0
  -27.7076   -2.1737  151.0415 O   0  0  0  0  0  0  0  0  0  0  0  0
  -25.4902   -1.6907  143.9009 C   0  0  0  0  0  0  0  0  0  0  0  0
  -25.1197    0.7313  143.8316 N   0  0  0  0  0  0  0  0  0  0  0  0
  -23.3583    1.0158  143.9178 S   0  0  0  0  0  0  0  0  0  0  0  0
  -27.4213    1.5469  148.6815 C   0  0  0  0  0  0  0  0  0  0  0  0
  -28.8244    2.0910  148.9548 C   0  0  0  0  0  0  0  0  0  0  0  0
  -26.1921   -1.0631  145.1236 C   0  0  0  0  0  0  0  0  0  0  0  0
  -27.9683   -0.9838  148.9530 C   0  0  0  0  0  0  0  0  0  0  0  0
  3  1  1  0
  3  2  1  0
  4  1  1  0
  5  3  1  0
  8  6  1  0
  8  7  1  0
  9  1  1  0
  9  2  1  0
 11  4  1  0
 11 10  1  0
 13 12  1  0
 14  6  1  0
 15  4  1  0
 15  6  1  0
 16  8  1  0
 16 15  1  0
 17  5  1  0
 18 17  1  0
 19  2  1  0
 19  4  1  0
 19 10  1  0
 19 14  1  0
 20  5  1  0
 20 12  1  0
M  END
$$$$

     RDKit          3D

 21 24  0  0  0  0  0  0  0  0999 V2000
  -25.8853  -11.2859  138.4653 O   0  0  0  0  0  0  0  0  0  0  0  0
  -26.5186  -11.4492  139.7068 C   0  0  0  0  0  0  0  0  0  0  0  0
  -27.0322  -10.1000  140.2704 C   0  0  0  0  0  0  0  0  0  0  0  0
  -25.9838   -9.4305  141.1935 C   0  0  0  0  0  0  0  0  0  0  0  0
  -27.7817  -12.3013  139.5655 C   0  0  0  0  0  0  0  0  0  0  0  0
  -28.7915  -11.6440  140.4566 C   0  0  0  0  0  0  0  0  0  0  0  0
  -28.2225  -10.4426  141.0598 N   0  0  0  0  0  0  0  0  0  0  0  0
  -28.1584  -12.9441  140.9305 C   0  0  0  0  0  0  0  0  0  0  0  0
  -25.6781  -10.2371  142.3024 O   0  0  0  0  0  0  0  0  0  0  0  0
  -27.7684  -13.8160  139.7436 C   0  0  0  0  0  0  0  0  0  0  0  0
  -27.3996   -9.1044  139.1360 C   0  0  0  0  0  0  0  0  0  0  0  0
  -26.5746  -14.8058  139.9369 C   0  0  0  0  0  0  0  0  0  0  0  0
  -26.5188  -16.3694  142.0698 C   0  0  0  0  0  0  0  0  0  0  0  0
  -25.2464  -14.2910  140.5152 C   0  0  0  0  0  0  0  0  0  0  0  0
  -27.4449  -16.8057  143.2165 C   0  0  0  0  0  0  0  0  0  0  0  0
  -27.0736  -16.1095  140.6447 C   0  0  0  0  0  0  0  0  0  0  0  0
  -28.9786  -16.9133  143.0314 C   0  0  0  0  0  0  0  0  0  0  0  0
  -29.6824  -16.8685  144.3289 N   0  0  0  0  0  0  0  0  0  0  0  0
  -30.0883  -15.5051  144.6822 C   0  0  0  0  0  0  0  0  0  0  0  0
  -29.3812  -18.6196  142.2033 Br  0  0  0  0  0  0  0  0  0  0  0  0
  -26.9106  -15.3795  143.1602 C   0  0  0  0  0  0  0  0  0  0  0  0
  2  1  1  0
  3  2  1  0
  4  3  1  0
  5  2  1  0
  6  5  1  0
  7  3  1  0
  7  6  1  0
  8  5  1  0
  8  6  1  0
  9  4  1  0
 10  5  1  0
 10  8  1  0
 11  3  1  0
 12 10  1  0
 14 12  1  0
 15 13  1  0
 16 12  1  0
 16 13  1  0
 17 15  1  0
 18 17  1  0
 19 18  1  0
 20 17  1  0
 21 13  1  0
 21 15  1  0
M  END
$$$$

     RDKit          3D

 11 13  0  0  0  0  0  0  0  0999 V2000
  -23.9470  -10.1321  152.8286 O   0  0  0  0  0  0  0  0  0  0  0  0
  -24.3402   -9.1022  153.6618 C   0  0  0  0  0  0  0  0  0  0  0  0
  -24.3800   -8.9630  152.1467 C   0  0  0  0  0  0  0  0  0  0  0  0
  -23.5882   -7.6266  152.3393 C   0  0  0  0  0  0  0  0  0  0  0  0
  -25.7540   -9.1901  154.2688 C   0  0  0  0  0  0  0  0  0  0  0  0
  -23.1278   -8.6181  151.3382 C   0  0  0  0  0  0  0  0  0  0  0  0
  -26.6346   -7.9575  153.9826 C   0  0  0  0  0  0  0  0  0  0  0  0
  -23.4379   -7.9102  153.8060 C   0  0  0  0  0  0  0  0  0  0  0  0
  -28.0798   -8.1361  154.4791 C   0  0  0  0  0  0  0  0  0  0  0  0
  -28.2074   -8.1475  156.0060 C   0  0  0  0  0  0  0  0  0  0  0  0
  -27.7255   -6.9468  156.5431 O   0  0  0  0  0  0  0  0  0  0  0  0
  2  1  1  0
  3  1  1  0
  3  2  1  0
  4  3  1  0
  5  2  1  0
  6  3  1  0
  6  4  1  0
  7  5  1  0
  8  2  1  0
  8  4  1  0
  9  7  1  0
 10  9  1  0
 11 10  1  0
M  END
$$$$

     RDKit          3D

 21 26  0  0  0  0  0  0  0  0999 V2000
  -28.8682  -10.1334  138.4223 N   0  0  0  0  0  0  0  0  0  0  0  0
  -27.5296  -10.3985  137.8539 C   0  0  0  0  0  0  0  0  0  0  0  0
  -29.2960   -8.7347  138.1796 C   0  0  0  0  0  0  0  0  0  0  0  0
  -31.2090   -7.9848  136.7290 C   0  0  0  0  0  0  0  0  0  0  0  0
  -30.8178   -8.5670  138.0897 C   0  0  0  0  0  0  0  0  0  0  0  0
  -27.5521  -10.9380  136.4087 C   0  0  0  0  0  0  0  0  0  0  0  0
  -28.7161  -11.8688  135.9226 C   0  0  0  0  0  0  0  0  0  0  0  0
  -26.1829  -11.6201  136.2676 C   0  0  0  0  0  0  0  0  0  0  0  0
  -29.8435  -12.2496  136.9271 C   0  0  0  0  0  0  0  0  0  0  0  0
  -31.1096  -11.9515  136.0710 C   0  0  0  0  0  0  0  0  0  0  0  0
  -28.7568  -13.2514  136.4607 C   0  0  0  0  0  0  0  0  0  0  0  0
  -31.0924  -13.1721  136.9072 C   0  0  0  0  0  0  0  0  0  0  0  0
  -25.7661  -12.0519  137.6795 C   0  0  0  0  0  0  0  0  0  0  0  0
  -26.7755  -11.4466  138.6562 C   0  0  0  0  0  0  0  0  0  0  0  0
  -28.8020   -9.1241  139.5029 C   0  0  0  0  0  0  0  0  0  0  0  0
  -31.8830  -13.1024  138.2247 C   0  0  0  0  0  0  0  0  0  0  0  0
  -34.0796  -13.8692  139.3199 C   0  0  0  0  0  0  0  0  0  0  0  0
  -34.0190  -15.3880  139.3538 C   0  0  0  0  0  0  0  0  0  0  0  0
  -32.6528  -16.0303  139.4038 C   0  0  0  0  0  0  0  0  0  0  0  0
  -33.2161  -13.8468  138.0735 C   0  0  0  0  0  0  0  0  0  0  0  0
  -33.0998  -15.3709  138.1134 C   0  0  0  0  0  0  0  0  0  0  0  0
  2  1  1  0
  3  1  1  0
  5  3  1  0
  5  4  1  0
  6  2  1  0
  7  6  1  0
  8  6  1  0
  9  7  1  0
 10  9  1  0
 11  7  1  0
 11  9  1  0
 12  9  1  0
 12 10  1  0
 13  8  1  0
 14  2  1  0
 14 13  1  0
 15  1  1  0
 15  3  1  0
 16 12  1  0
 18 17  1  0
 19 18  1  0
 20 16  1  0
 20 17  1  0
 21 18  1  0
 21 19  1  0
 21 20  1  0
M  END
$$$$

     RDKit          3D

 21 25  0  0  0  0  0  0  0  0999 V2000
  -30.0598  -12.5907  150.7427 C   0  0  0  0  0  0  0  0  0  0  0  0
  -29.8724  -11.0909  150.4296 C   0  0  0  0  0  0  0  0  0  0  0  0
  -30.8115  -10.6110  149.3058 C   0  0  0  0  0  0  0  0  0  0  0  0
  -28.9715  -13.1027  151.7156 C   0  0  0  0  0  0  0  0  0  0  0  0
  -31.8690   -9.6042  149.7391 C   0  0  0  0  0  0  0  0  0  0  0  0
  -29.0609  -12.5372  153.1576 C   0  0  0  0  0  0  0  0  0  0  0  0
  -31.2542   -8.2339  149.9740 C   0  0  0  0  0  0  0  0  0  0  0  0
  -27.7213  -11.9802  153.6789 C   0  0  0  0  0  0  0  0  0  0  0  0
  -29.7982   -8.1976  149.5326 C   0  0  0  0  0  0  0  0  0  0  0  0
  -26.6483  -13.1155  153.7269 C   0  0  0  0  0  0  0  0  0  0  0  0
  -25.1788  -12.8741  154.1055 C   0  0  0  0  0  0  0  0  0  0  0  0
  -24.6207  -11.4441  154.2518 C   0  0  0  0  0  0  0  0  0  0  0  0
  -23.6790  -10.9702  153.1035 C   0  0  0  0  0  0  0  0  0  0  0  0
  -25.1206  -12.4194  151.5676 C   0  0  0  0  0  0  0  0  0  0  0  0
  -23.9224   -9.4833  152.7673 C   0  0  0  0  0  0  0  0  0  0  0  0
  -25.5419  -13.3713  152.6928 C   0  0  0  0  0  0  0  0  0  0  0  0
  -30.7407   -9.1528  148.8447 C   0  0  0  0  0  0  0  0  0  0  0  0
  -23.7285  -11.8593  151.8398 C   0  0  0  0  0  0  0  0  0  0  0  0
  -22.8424   -8.9510  151.9380 N   0  0  0  0  0  0  0  0  0  0  0  0
  -27.4000  -10.4216  152.8554 Cl  0  0  0  0  0  0  0  0  0  0  0  0
  -31.4770  -12.9134  151.2450 C   0  0  0  0  0  0  0  0  0  0  0  0
  2  1  1  0
  3  2  1  0
  4  1  1  0
  5  3  1  0
  6  4  1  0
  7  5  1  0
  8  6  1  0
  9  7  1  0
 10  8  1  0
 11 10  1  0
 12 11  1  0
 13 12  1  0
 15 13  1  0
 16 10  1  0
 16 11  1  0
 16 14  1  0
 17  3  1  0
 17  5  1  0
 17  7  1  0
 17  9  1  0
 18 13  1  0
 18 14  1  0
 19 15  1  0
 20  8  1  0
 21  1  1  0
M  END
$$$$

     RDKit          3D

 21 26  0  0  0  0  0  0  0  0999 V2000
  -22.4853  -22.3530  137.1511 O   0  0  0  0  0  0  0  0  0  0  0  0
  -22.7546  -21.1258  137.0447 C   0  0  0  0  0  0  0  0  0  0  0  0
  -23.9891  -20.7232  136.5210 O   0  0  0  0  0  0  0  0  0  0  0  0
  -21.7663  -20.0762  137.5082 C   0  0  0  0  0  0  0  0  0  0  0  0
  -20.2837  -20.4711  137.2818 C   0  0  0  0  0  0  0  0  0  0  0  0
  -19.7909  -20.3725  135.8104 C   0  0  0  0  0  0  0  0  0  0  0  0
  -20.2676  -19.0792  135.0985 C   0  0  0  0  0  0  0  0  0  0  0  0
  -21.7809  -18.8404  135.3015 C   0  0  0  0  0  0  0  0  0  0  0  0
  -22.4354  -17.6471  134.5212 C   0  0  0  0  0  0  0  0  0  0  0  0
  -22.0478  -18.7311  136.8216 C   0  0  0  0  0  0  0  0  0  0  0  0
  -23.6301  -18.1316  133.6519 C   0  0  0  0  0  0  0  0  0  0  0  0
  -24.7882  -18.7788  134.4563 C   0  0  0  0  0  0  0  0  0  0  0  0
  -21.4370  -16.8984  133.6109 C   0  0  0  0  0  0  0  0  0  0  0  0
  -24.8931  -20.3057  134.2309 C   0  0  0  0  0  0  0  0  0  0  0  0
  -24.5259  -21.3024  135.3376 C   0  0  0  0  0  0  0  0  0  0  0  0
  -25.9785  -20.9382  135.1015 C   0  0  0  0  0  0  0  0  0  0  0  0
  -21.7674  -15.4345  133.3383 C   0  0  0  0  0  0  0  0  0  0  0  0
  -20.1244  -21.6349  134.9981 C   0  0  0  0  0  0  0  0  0  0  0  0
  -20.4788  -14.6331  133.2854 C   0  0  0  0  0  0  0  0  0  0  0  0
  -19.3037  -15.4893  133.7326 C   0  0  0  0  0  0  0  0  0  0  0  0
  -20.6656  -15.7824  134.2991 C   0  0  0  0  0  0  0  0  0  0  0  0
  2  1  2  0
  3  2  1  0
  4  2  1  0
  5  4  1  0
  6  5  1  0
  7  6  1  0
  8  7  1  0
  9  8  1  0
 10  4  1  0
 10  8  1  0
 11  9  1  0
 12 11  1  0
 13  9  1  0
 14 12  1  0
 15  3  1  0
 15 14  1  0
 16 14  1  0
 16 15  1  0
 17 13  1  0
 18  6  1  0
 19 17  1  0
 20 19  1  0
 21 13  1  0
 21 17  1  0
 21 19  1  0
 21 20  1  0
M  END
$$$$

     RDKit          3D

 21 27  0  0  0  0  0  0  0  0999 V2000
  -29.4895  -17.8150  143.5276 C   0  0  0  0  0  0  0  0  0  0  0  0
  -28.4568  -16.7872  142.9542 C   0  0  0  0  0  0  0  0  0  0  0  0
  -26.9232  -16.7576  143.3988 C   0  0  0  0  0  0  0  0  0  0  0  0
  -26.1419  -18.0082  143.9599 C   0  0  0  0  0  0  0  0  0  0  0  0
  -26.8419  -19.3710  143.7170 C   0  0  0  0  0  0  0  0  0  0  0  0
  -30.7374  -17.4195  144.3369 C   0  0  0  0  0  0  0  0  0  0  0  0
  -30.9435  -15.9615  144.7318 C   0  0  0  0  0  0  0  0  0  0  0  0
  -27.2032  -20.2580  144.9077 C   0  0  0  0  0  0  0  0  0  0  0  0
  -26.0290  -20.6284  144.0177 C   0  0  0  0  0  0  0  0  0  0  0  0
  -25.4568  -17.7650  145.3399 C   0  0  0  0  0  0  0  0  0  0  0  0
  -30.8536  -17.6671  142.8466 C   0  0  0  0  0  0  0  0  0  0  0  0
  -26.4408  -15.3976  144.0016 C   0  0  0  0  0  0  0  0  0  0  0  0
  -30.6952  -15.7086  146.2107 C   0  0  0  0  0  0  0  0  0  0  0  0
  -30.0952  -14.4395  146.4094 O   0  0  0  0  0  0  0  0  0  0  0  0
  -26.2971  -17.3036  146.5580 C   0  0  0  0  0  0  0  0  0  0  0  0
  -32.1118  -15.6767  145.6686 C   0  0  0  0  0  0  0  0  0  0  0  0
  -26.9321  -15.8791  146.6574 C   0  0  0  0  0  0  0  0  0  0  0  0
  -27.8366  -14.8255  145.9298 C   0  0  0  0  0  0  0  0  0  0  0  0
  -28.9200  -14.1386  145.7592 N   0  0  0  0  0  0  0  0  0  0  0  0
  -27.7637  -17.1708  146.4944 C   0  0  0  0  0  0  0  0  0  0  0  0
  -26.4300  -15.1068  145.5294 C   0  0  0  0  0  0  0  0  0  0  0  0
  2  1  1  0
  3  2  1  0
  4  3  1  0
  5  4  1  0
  6  1  1  0
  7  6  1  0
  8  5  1  0
  9  5  1  0
  9  8  1  0
 10  4  1  0
 11  1  1  0
 11  6  1  0
 12  3  1  0
 13  7  1  0
 14 13  1  0
 15 10  1  0
 16  7  1  0
 16 13  1  0
 17 15  1  0
 18 17  1  0
 19 14  1  0
 19 18  2  3
 20 15  1  0
 20 17  1  0
 21 12  1  0
 21 17  1  0
 21 18  1  0
M  END
$$$$

     RDKit          3D

 21 21  0  0  0  0  0  0  0  0999 V2000
  -24.4039   -6.4253  140.0267 C   0  0  0  0  0  0  0  0  0  0  0  0
  -24.3661   -7.2129  141.3382 C   0  0  0  0  0  0  0  0  0  0  0  0
  -24.3240   -8.7007  140.9401 C   0  0  0  0  0  0  0  0  0  0  0  0
  -24.8740   -7.4027  138.9186 C   0  0  0  0  0  0  0  0  0  0  0  0
  -24.8643   -9.6158  142.0696 C   0  0  0  0  0  0  0  0  0  0  0  0
  -23.7504   -7.6425  137.8784 C   0  0  0  0  0  0  0  0  0  0  0  0
  -26.1280   -6.8815  138.1997 C   0  0  0  0  0  0  0  0  0  0  0  0
  -25.3357  -11.0109  141.5807 C   0  0  0  0  0  0  0  0  0  0  0  0
  -25.1709   -8.7180  139.6669 C   0  0  0  0  0  0  0  0  0  0  0  0
  -26.2245  -11.8071  142.5543 C   0  0  0  0  0  0  0  0  0  0  0  0
  -27.3188  -11.0011  143.3017 C   0  0  0  0  0  0  0  0  0  0  0  0
  -28.6825  -11.7272  143.4823 C   0  0  0  0  0  0  0  0  0  0  0  0
  -28.7143  -12.9607  144.4368 C   0  0  0  0  0  0  0  0  0  0  0  0
  -27.9219  -14.1702  144.0251 C   0  0  0  0  0  0  0  0  0  0  0  0
  -28.1587  -15.4451  144.3334 C   0  0  0  0  0  0  0  0  0  0  0  0
  -27.3568  -16.5691  143.7123 C   0  0  0  0  0  0  0  0  0  0  0  0
  -27.8045  -18.1395  144.4332 Cl  0  0  0  0  0  0  0  0  0  0  0  0
  -29.7640  -10.6405  143.8118 C   0  0  0  0  0  0  0  0  0  0  0  0
  -29.5836  -12.9401  145.5088 C   0  0  0  0  0  0  0  0  0  0  0  0
  -27.6010  -16.6089  142.3479 F   0  0  0  0  0  0  0  0  0  0  0  0
  -30.4606  -14.0984  145.9447 C   0  0  0  0  0  0  0  0  0  0  0  0
  2  1  1  0
  3  2  1  0
  4  1  1  0
  5  3  1  0
  6  4  1  0
  7  4  1  0
  8  5  1  0
  9  3  1  0
  9  4  1  0
 10  8  1  0
 11 10  1  0
 12 11  1  0
 13 12  1  0
 14 13  1  0
 15 14  2  3
 16 15  1  0
 17 16  1  0
 18 12  1  0
 19 13  2  3
 20 16  1  0
 21 19  1  0
M  END
$$$$

     RDKit          3D

 19 21  0  0  0  0  0  0  0  0999 V2000
  -25.6201   -3.1896  145.3100 C   0  0  0  0  0  0  0  0  0  0  0  0
  -26.2265   -2.8785  146.8132 C   0  0  0  0  0  0  0  0  0  0  0  0
  -26.9814   -1.4540  146.8653 C   0  0  0  0  0  0  0  0  0  0  0  0
  -26.4516   -0.4914  145.7693 C   0  0  0  0  0  0  0  0  0  0  0  0
  -26.7151    1.0888  145.9356 C   0  0  0  0  0  0  0  0  0  0  0  0
  -28.1182    1.5534  146.4467 C   0  0  0  0  0  0  0  0  0  0  0  0
  -26.0164    1.9603  144.7930 C   0  0  0  0  0  0  0  0  0  0  0  0
  -29.4477    1.9309  145.5990 C   0  0  0  0  0  0  0  0  0  0  0  0
  -24.9354   -0.7471  145.6557 C   0  0  0  0  0  0  0  0  0  0  0  0
  -30.6727    1.9217  146.5090 C   0  0  0  0  0  0  0  0  0  0  0  0
  -31.3471    3.1830  146.8683 C   0  0  0  0  0  0  0  0  0  0  0  0
  -26.6362   -1.1565  144.4129 C   0  0  0  0  0  0  0  0  0  0  0  0
  -25.2914   -1.8012  144.6001 C   0  0  0  0  0  0  0  0  0  0  0  0
  -31.0906    4.6196  146.3127 C   0  0  0  0  0  0  0  0  0  0  0  0
  -31.4227    0.6671  146.6105 C   0  0  0  0  0  0  0  0  0  0  0  0
  -32.7782    0.6757  147.1375 C   0  0  0  0  0  0  0  0  0  0  0  0
  -33.5018    1.8643  147.0101 C   0  0  0  0  0  0  0  0  0  0  0  0
  -32.7582    3.0291  147.0962 C   0  0  0  0  0  0  0  0  0  0  0  0
  -31.7724    4.6118  144.9899 C   0  0  0  0  0  0  0  0  0  0  0  0
  2  1  1  0
  3  2  1  0
  4  3  1  0
  5  4  1  0
  6  5  1  0
  7  5  1  0
  8  6  1  0
  9  4  1  0
 10  8  1  0
 11 10  4  0
 12  4  1  0
 13  1  1  0
 13  9  1  0
 13 12  1  0
 14 11  1  0
 15 10  4  0
 16 15  4  0
 17 16  4  0
 18 11  4  0
 18 17  4  0
 19 14  1  0
M  END
$$$$

     RDKit          3D

 21 21  0  0  0  0  0  0  0  0999 V2000
  -32.0793  -21.8874  137.1018 C   0  0  0  0  0  0  0  0  0  0  0  0
  -30.8135  -21.2876  136.6889 C   0  0  0  0  0  0  0  0  0  0  0  0
  -30.8924  -20.0223  135.7872 C   0  0  0  0  0  0  0  0  0  0  0  0
  -31.2712  -22.5355  136.0480 N   0  0  0  0  0  0  0  0  0  0  0  0
  -29.5432  -19.8666  135.0418 C   0  0  0  0  0  0  0  0  0  0  0  0
  -28.3717  -18.9401  132.9943 C   0  0  0  0  0  0  0  0  0  0  0  0
  -29.5817  -18.8171  133.9204 C   0  0  0  0  0  0  0  0  0  0  0  0
  -31.2824  -18.7721  136.6272 C   0  0  0  0  0  0  0  0  0  0  0  0
  -30.4509  -18.5844  137.9167 C   0  0  0  0  0  0  0  0  0  0  0  0
  -29.7271  -17.1704  139.8657 C   0  0  0  0  0  0  0  0  0  0  0  0
  -30.5693  -17.1830  138.5671 C   0  0  0  0  0  0  0  0  0  0  0  0
  -32.0388  -16.6818  138.7819 C   0  0  0  0  0  0  0  0  0  0  0  0
  -32.8716  -17.6271  139.6721 C   0  0  0  0  0  0  0  0  0  0  0  0
  -32.1252  -15.2051  139.2988 C   0  0  0  0  0  0  0  0  0  0  0  0
  -32.6628  -14.1867  138.2651 C   0  0  0  0  0  0  0  0  0  0  0  0
  -30.2729  -13.5379  137.3700 C   0  0  0  0  0  0  0  0  0  0  0  0
  -29.4426  -13.3433  136.0890 C   0  0  0  0  0  0  0  0  0  0  0  0
  -33.1778  -12.8848  138.9191 C   0  0  0  0  0  0  0  0  0  0  0  0
  -31.9079  -11.9991  140.0877 Br  0  0  0  0  0  0  0  0  0  0  0  0
  -29.4691  -14.5488  135.2594 N   0  0  0  0  0  0  0  0  0  0  0  0
  -31.7275  -13.9310  137.0504 C   0  0  0  0  0  0  0  0  0  0  0  0
  2  1  1  0
  3  2  1  0
  4  1  1  0
  4  2  1  0
  5  3  1  0
  7  5  1  0
  7  6  1  0
  8  3  1  0
  9  8  1  0
 11  9  1  0
 11 10  1  0
 12 11  1  0
 13 12  1  0
 14 12  1  0
 15 14  1  0
 17 16  1  0
 18 15  1  0
 19 18  1  0
 20 17  1  0
 21 15  1  0
 21 16  1  0
M  END
$$$$

     RDKit          3D

 20 21  0  0  0  0  0  0  0  0999 V2000
  -34.5164   -8.2722  145.2136 O   0  0  0  0  0  0  0  0  0  0  0  0
  -33.5776   -8.1613  143.3293 C   0  0  0  0  0  0  0  0  0  0  0  0
  -32.3800   -8.7595  142.8790 O   0  0  0  0  0  0  0  0  0  0  0  0
  -34.6307   -9.0074  144.0129 C   0  0  0  0  0  0  0  0  0  0  0  0
  -31.9388   -9.5743  143.8301 F   0  0  0  0  0  0  0  0  0  0  0  0
  -32.7398   -5.2932  144.0142 O   0  0  0  0  0  0  0  0  0  0  0  0
  -33.4849   -7.4749  144.6695 C   0  0  0  0  0  0  0  0  0  0  0  0
  -37.2787   -6.1045  143.2802 C   0  0  0  0  0  0  0  0  0  0  0  0
  -33.8735   -6.1300  144.0207 C   0  0  0  0  0  0  0  0  0  0  0  0
  -38.8109   -6.0193  143.4354 C   0  0  0  0  0  0  0  0  0  0  0  0
  -39.8169   -8.4273  143.2620 C   0  0  0  0  0  0  0  0  0  0  0  0
  -33.9846   -6.8462  142.6632 C   0  0  0  0  0  0  0  0  0  0  0  0
  -38.7086   -8.8136  142.4769 O   0  0  0  0  0  0  0  0  0  0  0  0
  -39.4430   -7.2304  144.1658 C   0  0  0  0  0  0  0  0  0  0  0  0
  -38.8608  -10.0965  142.1969 O   0  0  0  0  0  0  0  0  0  0  0  0
  -36.5289   -6.0379  144.6303 C   0  0  0  0  0  0  0  0  0  0  0  0
  -34.7936   -4.7728  145.9820 C   0  0  0  0  0  0  0  0  0  0  0  0
  -34.7869   -5.7825  146.9552 O   0  0  0  0  0  0  0  0  0  0  0  0
  -35.1247   -5.3485  144.5828 C   0  0  0  0  0  0  0  0  0  0  0  0
  -41.0200   -8.1142  142.3617 C   0  0  0  0  0  0  0  0  0  0  0  0
  3  2  1  0
  4  1  1  0
  4  2  1  0
  5  3  1  0
  7  1  1  0
  7  2  1  0
  9  6  1  0
  9  7  1  0
 10  8  1  0
 12  2  1  0
 12  9  1  0
 13 11  1  0
 14 10  1  0
 14 11  1  0
 15 13  1  0
 16  8  1  0
 18 17  1  0
 19  9  1  0
 19 16  1  0
 19 17  1  0
 20 11  1  0
M  END
$$$$

     RDKit          3D

 21 25  0  0  0  0  0  0  0  0999 V2000
  -21.5332  -12.1634  139.6049 C   0  0  0  0  0  0  0  0  0  0  0  0
  -21.1665  -13.0094  140.8438 C   0  0  0  0  0  0  0  0  0  0  0  0
  -19.8067  -12.5828  141.4854 C   0  0  0  0  0  0  0  0  0  0  0  0
  -18.8354  -13.6899  141.9134 C   0  0  0  0  0  0  0  0  0  0  0  0
  -21.7728  -14.4203  141.1095 C   0  0  0  0  0  0  0  0  0  0  0  0
  -22.0773  -12.9155  138.3704 C   0  0  0  0  0  0  0  0  0  0  0  0
  -23.2988  -14.3202  141.1236 C   0  0  0  0  0  0  0  0  0  0  0  0
  -23.5675  -12.8256  141.1107 C   0  0  0  0  0  0  0  0  0  0  0  0
  -24.9051  -12.2963  140.6380 C   0  0  0  0  0  0  0  0  0  0  0  0
  -22.3153  -11.9999  140.9039 C   0  0  0  0  0  0  0  0  0  0  0  0
  -18.6134  -12.9305  143.2354 C   0  0  0  0  0  0  0  0  0  0  0  0
  -24.5600  -12.2884  142.1261 C   0  0  0  0  0  0  0  0  0  0  0  0
  -22.4744  -11.9801  137.2139 C   0  0  0  0  0  0  0  0  0  0  0  0
  -18.5257  -13.8619  144.4573 C   0  0  0  0  0  0  0  0  0  0  0  0
  -17.1599  -14.6051  144.4787 C   0  0  0  0  0  0  0  0  0  0  0  0
  -21.3788  -10.9672  136.8417 C   0  0  0  0  0  0  0  0  0  0  0  0
  -19.8730  -12.1194  142.9525 C   0  0  0  0  0  0  0  0  0  0  0  0
  -21.5143  -10.4802  135.4023 C   0  0  0  0  0  0  0  0  0  0  0  0
  -16.8567  -15.2671  143.1480 C   0  0  0  0  0  0  0  0  0  0  0  0
  -16.4695  -14.4608  142.1348 C   0  0  0  0  0  0  0  0  0  0  0  0
  -17.5193  -13.9717  141.1510 C   0  0  0  0  0  0  0  0  0  0  0  0
  2  1  1  0
  3  2  1  0
  4  3  1  0
  5  2  1  0
  6  1  1  0
  7  5  1  0
  8  7  1  0
  9  8  1  0
 10  1  1  0
 10  2  1  0
 10  8  1  0
 11  4  1  0
 12  8  1  0
 12  9  1  0
 13  6  1  0
 14 11  1  0
 15 14  1  0
 16 13  1  0
 17  3  1  0
 17 11  1  0
 18 16  1  0
 19 15  1  0
 20 19  2  0
 21  4  1  0
 21 20  1  0
M  END
$$$$

     RDKit          3D

 21 25  0  0  0  0  0  0  0  0999 V2000
  -24.5028  -11.3063  148.5012 O   0  0  0  0  0  0  0  0  0  0  0  0
  -21.9274  -11.6088  147.4640 C   0  0  0  0  0  0  0  0  0  0  0  0
  -21.1427  -10.6754  149.6211 C   0  0  0  0  0  0  0  0  0  0  0  0
  -20.5548  -12.0695  149.4482 C   0  0  0  0  0  0  0  0  0  0  0  0
  -21.0608  -13.1348  150.4552 C   0  0  0  0  0  0  0  0  0  0  0  0
  -23.6536  -12.9073  150.0902 C   0  0  0  0  0  0  0  0  0  0  0  0
  -22.6445  -14.2905  152.0080 C   0  0  0  0  0  0  0  0  0  0  0  0
  -20.7786  -12.4576  147.9824 C   0  0  0  0  0  0  0  0  0  0  0  0
  -23.6142  -10.3959  149.0908 C   0  0  0  0  0  0  0  0  0  0  0  0
  -23.3004  -13.9926  153.3654 C   0  0  0  0  0  0  0  0  0  0  0  0
  -22.4717  -13.0169  151.1112 C   0  0  0  0  0  0  0  0  0  0  0  0
  -25.6872  -11.2435  150.5753 C   0  0  0  0  0  0  0  0  0  0  0  0
  -22.1839  -10.5146  148.5189 C   0  0  0  0  0  0  0  0  0  0  0  0
  -25.6779  -11.2749  152.1072 C   0  0  0  0  0  0  0  0  0  0  0  0
  -24.2924  -11.4900  149.8909 C   0  0  0  0  0  0  0  0  0  0  0  0
  -26.7016  -10.2317  152.5363 C   0  0  0  0  0  0  0  0  0  0  0  0
  -24.1538  -15.1650  153.8499 C   0  0  0  0  0  0  0  0  0  0  0  0
  -27.3547   -9.7052  151.3409 N   0  0  0  0  0  0  0  0  0  0  0  0
  -26.3803   -9.9061  150.2764 C   0  0  0  0  0  0  0  0  0  0  0  0
  -27.5435  -11.3025  153.2129 C   0  0  0  0  0  0  0  0  0  0  0  0
  -26.5435  -12.3597  152.7746 C   0  0  0  0  0  0  0  0  0  0  0  0
  4  3  1  0
  5  4  1  0
  8  2  1  0
  8  4  1  0
  9  1  1  0
 10  7  1  0
 11  5  1  0
 11  6  1  0
 11  7  1  0
 13  2  1  0
 13  3  1  0
 13  9  1  0
 14 12  1  0
 15  1  1  0
 15  6  1  0
 15  9  1  0
 15 12  1  0
 16 14  1  0
 17 10  1  0
 18 16  1  0
 19 12  1  0
 19 18  1  0
 20 16  1  0
 21 14  1  0
 21 20  1  0
M  END
$$$$

     RDKit          3D

 11 12  0  0  0  0  0  0  0  0999 V2000
  -23.9059   -6.0322  140.2544 C   0  0  0  0  0  0  0  0  0  0  0  0
  -22.8634   -5.6746  139.2064 C   0  0  0  0  0  0  0  0  0  0  0  0
  -23.3064   -4.5342  138.2718 C   0  0  0  0  0  0  0  0  0  0  0  0
  -23.9703   -7.3662  139.5381 C   0  0  0  0  0  0  0  0  0  0  0  0
  -22.3287   -4.3063  137.1071 C   0  0  0  0  0  0  0  0  0  0  0  0
  -20.1027   -3.2737  136.4231 C   0  0  0  0  0  0  0  0  0  0  0  0
  -19.6582   -0.6606  136.2840 C   0  0  0  0  0  0  0  0  0  0  0  0
  -22.9646   -6.9792  138.5476 N   0  0  0  0  0  0  0  0  0  0  0  0
  -21.0759   -2.2153  137.9017 C   0  0  0  0  0  0  0  0  0  0  0  0
  -20.9957   -3.6771  137.5618 C   0  0  0  0  0  0  0  0  0  0  0  0
  -20.1648   -1.7942  136.7618 C   0  0  0  0  0  0  0  0  0  0  0  0
  2  1  1  0
  3  2  1  0
  4  1  1  0
  5  3  1  0
  8  2  1  0
  8  4  1  0
 10  5  1  0
 10  6  1  0
 10  9  1  0
 11  6  1  0
 11  7  2  0
 11  9  1  0
M  END
$$$$

     RDKit          3D

 11 13  0  0  0  0  0  0  0  0999 V2000
  -35.4328  -14.5041  145.5794 C   0  0  0  0  0  0  0  0  0  0  0  0
  -36.5044  -13.5323  145.0886 C   0  0  0  0  0  0  0  0  0  0  0  0
  -37.2152  -14.0255  143.8203 C   0  0  0  0  0  0  0  0  0  0  0  0
  -37.9932  -12.9542  143.0883 C   0  0  0  0  0  0  0  0  0  0  0  0
  -37.0959  -12.0436  142.2800 C   0  0  0  0  0  0  0  0  0  0  0  0
  -37.3168  -13.7861  146.3571 C   0  0  0  0  0  0  0  0  0  0  0  0
  -36.6477  -13.4655  142.5348 C   0  0  0  0  0  0  0  0  0  0  0  0
  -37.6457  -16.4301  148.1956 C   0  0  0  0  0  0  0  0  0  0  0  0
  -36.9085  -16.3331  149.5310 C   0  0  0  0  0  0  0  0  0  0  0  0
  -36.2416  -14.7552  146.8528 C   0  0  0  0  0  0  0  0  0  0  0  0
  -36.7184  -16.2150  146.9888 C   0  0  0  0  0  0  0  0  0  0  0  0
  2  1  1  0
  3  2  1  0
  4  3  1  0
  5  4  1  0
  6  2  1  0
  7  3  1  0
  7  4  1  0
  7  5  1  0
  9  8  1  0
 10  1  1  0
 10  6  1  0
 11  8  1  0
 11 10  1  0
M  END
$$$$

     RDKit          3D

 21 27  0  0  0  0  0  0  0  0999 V2000
  -21.0572  -10.6308  142.4266 O   0  0  0  0  0  0  0  0  0  0  0  0
  -18.6708  -11.3374  142.4001 C   0  0  0  0  0  0  0  0  0  0  0  0
  -17.4528  -10.7199  142.2431 O   0  0  0  0  0  0  0  0  0  0  0  0
  -17.7920  -11.6685  144.4933 C   0  0  0  0  0  0  0  0  0  0  0  0
  -18.0379  -10.5650  143.5403 C   0  0  0  0  0  0  0  0  0  0  0  0
  -16.7265  -10.5850  144.4632 C   0  0  0  0  0  0  0  0  0  0  0  0
  -16.8211  -10.1078  145.9295 C   0  0  0  0  0  0  0  0  0  0  0  0
  -16.3980   -8.6976  145.5758 C   0  0  0  0  0  0  0  0  0  0  0  0
  -19.9065  -10.7016  140.2227 C   0  0  0  0  0  0  0  0  0  0  0  0
  -19.8350  -10.5803  141.7512 C   0  0  0  0  0  0  0  0  0  0  0  0
  -18.6576  -11.5828  145.7494 C   0  0  0  0  0  0  0  0  0  0  0  0
  -21.2096  -10.7295  139.3628 C   0  0  0  0  0  0  0  0  0  0  0  0
  -22.4591  -10.0631  139.8948 C   0  0  0  0  0  0  0  0  0  0  0  0
  -19.5932   -9.3495  140.8747 C   0  0  0  0  0  0  0  0  0  0  0  0
  -16.2296   -9.1404  144.1391 C   0  0  0  0  0  0  0  0  0  0  0  0
  -22.3432  -11.5774  139.9995 C   0  0  0  0  0  0  0  0  0  0  0  0
  -18.2489  -10.2917  146.4349 C   0  0  0  0  0  0  0  0  0  0  0  0
  -21.4689  -12.1377  138.8926 C   0  0  0  0  0  0  0  0  0  0  0  0
  -18.3134  -10.3580  147.9751 C   0  0  0  0  0  0  0  0  0  0  0  0
  -19.7455  -10.5077  148.5191 C   0  0  0  0  0  0  0  0  0  0  0  0
  -20.5867   -9.2428  148.3336 C   0  0  0  0  0  0  0  0  0  0  0  0
  3  2  1  0
  5  2  1  0
  5  3  1  0
  5  4  1  0
  6  4  1  0
  6  5  1  0
  7  6  1  0
  8  7  1  0
 10  1  1  0
 10  2  1  0
 10  9  1  0
 11  4  1  0
 12  9  1  0
 13 12  1  0
 14  9  1  0
 14 10  1  0
 15  6  1  0
 15  8  1  0
 16 12  1  0
 16 13  1  0
 17  7  1  0
 17 11  1  0
 18 12  1  0
 18 16  1  0
 19 17  1  0
 20 19  1  0
 21 20  1  0
M  END
$$$$

     RDKit          3D

 21 23  0  0  0  0  0  0  0  0999 V2000
  -18.8035   -5.3514  138.0986 C   0  0  0  0  0  0  0  0  0  0  0  0
  -18.6347   -6.3566  136.9603 C   0  0  0  0  0  0  0  0  0  0  0  0
  -17.5495   -4.4769  138.0932 C   0  0  0  0  0  0  0  0  0  0  0  0
  -17.1702   -3.9307  139.4849 C   0  0  0  0  0  0  0  0  0  0  0  0
  -18.1638   -2.9173  139.9998 C   0  0  0  0  0  0  0  0  0  0  0  0
  -17.1540   -6.3388  136.5663 C   0  0  0  0  0  0  0  0  0  0  0  0
  -16.9100   -6.0232  135.0711 C   0  0  0  0  0  0  0  0  0  0  0  0
  -17.3069   -4.5977  134.6317 C   0  0  0  0  0  0  0  0  0  0  0  0
  -17.0790   -4.3377  133.1306 C   0  0  0  0  0  0  0  0  0  0  0  0
  -15.6204   -4.5447  132.6679 C   0  0  0  0  0  0  0  0  0  0  0  0
  -18.0260   -2.2874  141.1802 C   0  0  0  0  0  0  0  0  0  0  0  0
  -16.9325   -2.5788  142.1807 C   0  0  0  0  0  0  0  0  0  0  0  0
  -16.4528   -5.3673  137.5215 C   0  0  0  0  0  0  0  0  0  0  0  0
  -17.4015   -3.5896  143.2388 C   0  0  0  0  0  0  0  0  0  0  0  0
  -15.1792   -5.9582  132.1939 C   0  0  0  0  0  0  0  0  0  0  0  0
  -14.8999   -5.9844  130.6856 C   0  0  0  0  0  0  0  0  0  0  0  0
  -18.3592   -2.9562  144.2525 C   0  0  0  0  0  0  0  0  0  0  0  0
  -13.8997   -4.9209  130.3198 C   0  0  0  0  0  0  0  0  0  0  0  0
  -13.9563   -3.6972  130.8740 C   0  0  0  0  0  0  0  0  0  0  0  0
  -14.5495   -3.6773  133.3323 C   0  0  0  0  0  0  0  0  0  0  0  0
  -14.9943   -3.3579  131.9127 C   0  0  0  0  0  0  0  0  0  0  0  0
  2  1  1  0
  3  1  1  0
  4  3  1  0
  5  4  1  0
  6  2  1  0
  7  6  1  0
  8  7  1  0
  9  8  1  0
 10  9  1  0
 11  5  2  3
 12 11  1  0
 13  3  1  0
 13  6  1  0
 14 12  1  0
 15 10  1  0
 16 15  1  0
 17 14  1  0
 18 16  1  0
 19 18  2  0
 20 10  1  0
 21 10  1  0
 21 19  1  0
 21 20  1  0
M  END
$$$$

     RDKit          3D

 21 26  0  0  0  0  0  0  0  0999 V2000
  -18.1023    1.2727  141.6616 O   0  0  0  0  0  0  0  0  0  0  0  0
  -19.2289    1.7184  142.3740 C   0  0  0  0  0  0  0  0  0  0  0  0
  -20.0981    0.5387  142.8148 C   0  0  0  0  0  0  0  0  0  0  0  0
  -20.2511    0.5298  144.3753 C   0  0  0  0  0  0  0  0  0  0  0  0
  -21.7070    1.0804  144.7329 C   0  0  0  0  0  0  0  0  0  0  0  0
  -18.8147    2.3357  143.6756 C   0  0  0  0  0  0  0  0  0  0  0  0
  -19.8580    1.3282  145.6791 C   0  0  0  0  0  0  0  0  0  0  0  0
  -22.8556    1.4574  143.7011 C   0  0  0  0  0  0  0  0  0  0  0  0
  -21.1485    2.1066  145.6625 C   0  0  0  0  0  0  0  0  0  0  0  0
  -18.9298    1.2370  144.6268 N   0  0  0  0  0  0  0  0  0  0  0  0
  -23.5177    2.8330  144.0439 C   0  0  0  0  0  0  0  0  0  0  0  0
  -19.9364    2.6268  141.6012 F   0  0  0  0  0  0  0  0  0  0  0  0
  -23.9862    0.5007  143.5064 N   0  0  0  0  0  0  0  0  0  0  0  0
  -23.7996   -0.9796  143.5066 C   0  0  0  0  0  0  0  0  0  0  0  0
  -23.8991   -0.2713  142.2413 C   0  0  0  0  0  0  0  0  0  0  0  0
  -22.7234    2.6797  142.7661 C   0  0  0  0  0  0  0  0  0  0  0  0
  -23.9479    2.9502  141.2373 Al  0  0  0  0  0  3  0  0  0  0  0  0
  -22.2064   -1.7679  143.7044 Cl  0  0  0  0  0  0  0  0  0  0  0  0
  -25.5281    2.9524  142.3642 C   0  0  0  0  0  0  0  0  0  0  0  0
  -25.0327    3.1305  143.8188 C   0  0  0  0  0  0  0  0  0  0  0  0
  -25.9205    2.4014  144.8313 C   0  0  0  0  0  0  0  0  0  0  0  0
  2  1  1  0
  3  2  1  0
  4  3  1  0
  5  4  1  0
  6  2  1  0
  7  4  1  0
  8  5  1  0
  9  5  1  0
  9  7  1  0
 10  4  1  0
 10  6  1  0
 10  7  1  0
 11  8  1  0
 12  2  1  0
 13  8  1  0
 14 13  1  0
 15 13  1  0
 15 14  1  0
 16  8  1  0
 16 11  1  0
 17 16  1  0
 18 14  1  0
 19 17  1  0
 20 11  1  0
 20 19  1  0
 21 20  1  0
M  END
$$$$

     RDKit          3D

 21 23  0  0  0  0  0  0  0  0999 V2000
  -31.7548  -13.0721  147.4274 C   0  0  0  0  0  0  0  0  0  0  0  0
  -31.7286  -14.5889  147.1874 C   0  0  0  0  0  0  0  0  0  0  0  0
  -33.0966  -15.2378  147.0438 C   0  0  0  0  0  0  0  0  0  0  0  0
  -30.5511  -12.5940  148.2693 C   0  0  0  0  0  0  0  0  0  0  0  0
  -29.1870  -12.8533  147.6147 C   0  0  0  0  0  0  0  0  0  0  0  0
  -28.6621  -14.2455  147.9145 C   0  0  0  0  0  0  0  0  0  0  0  0
  -32.2742  -15.4642  148.3022 C   0  0  0  0  0  0  0  0  0  0  0  0
  -27.7905  -14.9163  147.1434 C   0  0  0  0  0  0  0  0  0  0  0  0
  -27.2187  -14.4214  145.8360 C   0  0  0  0  0  0  0  0  0  0  0  0
  -28.2654  -11.7856  148.2001 C   0  0  0  0  0  0  0  0  0  0  0  0
  -29.1529  -10.5999  148.5668 C   0  0  0  0  0  0  0  0  0  0  0  0
  -30.5995  -11.0790  148.4907 C   0  0  0  0  0  0  0  0  0  0  0  0
  -28.1460  -14.6660  144.6300 C   0  0  0  0  0  0  0  0  0  0  0  0
  -28.7448  -16.0819  144.5491 C   0  0  0  0  0  0  0  0  0  0  0  0
  -27.6959  -17.2004  144.4679 C   0  0  0  0  0  0  0  0  0  0  0  0
  -28.4032  -18.5630  144.3607 C   0  0  0  0  0  0  0  0  0  0  0  0
  -29.0917  -19.0121  145.6528 C   0  0  0  0  0  0  0  0  0  0  0  0
  -30.3935  -19.8068  145.4507 C   0  0  0  0  0  0  0  0  0  0  0  0
  -31.4277  -19.4765  146.5360 C   0  0  0  0  0  0  0  0  0  0  0  0
  -31.0269  -20.0246  147.9070 C   0  0  0  0  0  0  0  0  0  0  0  0
  -27.8157  -19.7077  145.1798 C   0  0  0  0  0  0  0  0  0  0  0  0
  2  1  1  0
  3  2  1  0
  4  1  1  0
  5  4  1  0
  6  5  1  0
  7  2  1  0
  7  3  1  0
  8  6  2  3
  9  8  1  0
 10  5  1  0
 11 10  1  0
 12  4  1  0
 12 11  1  0
 13  9  1  0
 14 13  1  0
 15 14  1  0
 16 15  1  0
 17 16  1  0
 18 17  1  0
 19 18  1  0
 20 19  1  0
 21 16  1  0
 21 17  1  0
M  END
$$$$

     RDKit          3D

 21 26  0  0  0  0  0  0  0  0999 V2000
  -26.6246   -2.7366  145.2280 C   0  0  0  0  0  0  0  0  0  0  0  0
  -28.0116   -3.4478  145.1554 C   0  0  0  0  0  0  0  0  0  0  0  0
  -26.3002   -1.5994  146.2619 C   0  0  0  0  0  0  0  0  0  0  0  0
  -25.9663   -2.0150  147.6934 C   0  0  0  0  0  0  0  0  0  0  0  0
  -24.8591   -1.5258  146.7933 C   0  0  0  0  0  0  0  0  0  0  0  0
  -29.2119   -3.3210  146.1431 C   0  0  0  0  0  0  0  0  0  0  0  0
  -25.4306   -3.5134  144.5802 C   0  0  0  0  0  0  0  0  0  0  0  0
  -30.4462   -2.6432  145.5938 C   0  0  0  0  0  0  0  0  0  0  0  0
  -24.8734   -4.7307  145.3902 C   0  0  0  0  0  0  0  0  0  0  0  0
  -24.9844   -6.1901  144.9790 C   0  0  0  0  0  0  0  0  0  0  0  0
  -30.4845   -1.3815  145.1643 C   0  0  0  0  0  0  0  0  0  0  0  0
  -25.9248   -7.3156  144.4710 C   0  0  0  0  0  0  0  0  0  0  0  0
  -26.0346   -5.6237  146.4314 S   0  0  0  0  0  0  0  0  0  0  0  0
  -25.2245   -8.5527  143.9229 C   0  0  0  0  0  0  0  0  0  0  0  0
  -29.2800   -0.5003  145.1632 C   0  0  0  0  0  0  0  0  0  0  0  0
  -28.2785   -0.9253  144.0882 C   0  0  0  0  0  0  0  0  0  0  0  0
  -24.8389   -8.2225  142.4908 C   0  0  0  0  0  0  0  0  0  0  0  0
  -28.9246   -2.9646  147.6040 C   0  0  0  0  0  0  0  0  0  0  0  0
  -27.6793   -2.3559  144.1378 C   0  0  0  0  0  0  0  0  0  0  0  0
  -24.7341   -6.7112  142.4487 C   0  0  0  0  0  0  0  0  0  0  0  0
  -25.6304   -6.1935  143.5642 C   0  0  0  0  0  0  0  0  0  0  0  0
  2  1  1  0
  3  1  1  0
  4  3  1  0
  5  3  1  0
  5  4  1  0
  6  2  1  0
  7  1  1  0
  8  6  1  0
  9  7  1  0
 10  9  1  0
 11  8  2  0
 12 10  1  0
 13  9  1  0
 13 10  1  0
 14 12  1  0
 15 11  1  0
 16 15  1  0
 17 14  1  0
 18  6  1  0
 19  1  1  0
 19  2  1  0
 19 16  1  0
 20 17  1  0
 21 10  1  0
 21 12  1  0
 21 20  1  0
M  END
$$$$

     RDKit          3D

 21 27  0  0  0  0  0  0  0  0999 V2000
  -24.8101  -15.7041  143.7346 C   0  0  0  0  0  0  0  0  0  0  0  0
  -23.5353  -14.9429  143.3345 C   0  0  0  0  0  0  0  0  0  0  0  0
  -26.1192  -14.9088  143.7197 C   0  0  0  0  0  0  0  0  0  0  0  0
  -26.0994  -13.4584  143.1938 C   0  0  0  0  0  0  0  0  0  0  0  0
  -27.4428  -12.7595  142.9756 C   0  0  0  0  0  0  0  0  0  0  0  0
  -25.8391  -15.9339  142.6316 C   0  0  0  0  0  0  0  0  0  0  0  0
  -22.8385  -15.4607  142.0386 C   0  0  0  0  0  0  0  0  0  0  0  0
  -22.7654  -14.0921  141.3566 C   0  0  0  0  0  0  0  0  0  0  0  0
  -28.7219  -13.5628  143.2902 C   0  0  0  0  0  0  0  0  0  0  0  0
  -22.3145  -15.7548  143.4788 C   0  0  0  0  0  0  0  0  0  0  0  0
  -21.4117  -13.5280  141.0667 C   0  0  0  0  0  0  0  0  0  0  0  0
  -30.0344  -13.1827  142.5976 C   0  0  0  0  0  0  0  0  0  0  0  0
  -20.8514  -12.7612  142.2335 C   0  0  0  0  0  0  0  0  0  0  0  0
  -21.5638  -15.0259  141.2423 C   0  0  0  0  0  0  0  0  0  0  0  0
  -30.0293  -11.9199  141.7248 C   0  0  0  0  0  0  0  0  0  0  0  0
  -31.2436  -11.7564  140.8944 C   0  0  0  0  0  0  0  0  0  0  0  0
  -30.0213  -12.1838  140.3408 O   0  0  0  0  0  0  0  0  0  0  0  0
  -19.5336  -12.5969  142.3688 C   0  0  0  0  0  0  0  0  0  0  0  0
  -26.5926  -12.4230  144.1946 C   0  0  0  0  0  0  0  0  0  0  0  0
  -18.8863  -11.6969  143.7302 Cl  0  0  0  0  0  0  0  0  0  0  0  0
  -29.2151  -14.3665  142.0949 C   0  0  0  0  0  0  0  0  0  0  0  0
  2  1  1  0
  3  1  1  0
  4  3  1  0
  5  4  1  0
  6  1  1  0
  6  3  1  0
  7  2  1  0
  8  7  1  0
  9  5  1  0
 10  2  1  0
 10  7  1  0
 11  8  1  0
 12  9  1  0
 13 11  1  0
 14  7  1  0
 14  8  1  0
 14 11  1  0
 15 12  1  0
 16 15  1  0
 17 15  1  0
 17 16  1  0
 18 13  2  3
 19  4  1  0
 19  5  1  0
 20 18  1  0
 21  9  1  0
 21 12  1  0
M  END
$$$$

     RDKit          3D

 21 25  0  0  0  0  0  0  0  0999 V2000
  -25.1782   -2.4051  134.0923 C   0  0  0  0  0  0  0  0  0  0  0  0
  -26.6463   -1.9255  134.2608 C   0  0  0  0  0  0  0  0  0  0  0  0
  -23.9629   -3.0276  136.2491 C   0  0  0  0  0  0  0  0  0  0  0  0
  -24.3114   -1.6257  136.7330 C   0  0  0  0  0  0  0  0  0  0  0  0
  -24.8169   -3.5244  135.0583 C   0  0  0  0  0  0  0  0  0  0  0  0
  -23.4822   -0.6060  136.4871 C   0  0  0  0  0  0  0  0  0  0  0  0
  -27.3654   -1.6465  135.6353 C   0  0  0  0  0  0  0  0  0  0  0  0
  -26.8134   -2.0471  137.0551 C   0  0  0  0  0  0  0  0  0  0  0  0
  -28.7412   -0.9502  135.7684 C   0  0  0  0  0  0  0  0  0  0  0  0
  -25.5342   -1.3844  137.5744 C   0  0  0  0  0  0  0  0  0  0  0  0
  -29.9449   -1.1550  134.8341 C   0  0  0  0  0  0  0  0  0  0  0  0
  -27.5819   -0.1816  135.1935 C   0  0  0  0  0  0  0  0  0  0  0  0
  -31.2115   -1.4547  135.6902 C   0  0  0  0  0  0  0  0  0  0  0  0
  -30.1634    0.0808  133.8866 C   0  0  0  0  0  0  0  0  0  0  0  0
  -26.8476   -0.4489  133.8708 C   0  0  0  0  0  0  0  0  0  0  0  0
  -27.2978   -1.5393  132.9383 C   0  0  0  0  0  0  0  0  0  0  0  0
  -32.3163   -2.1551  134.8983 C   0  0  0  0  0  0  0  0  0  0  0  0
  -27.0694    0.8381  136.0116 O   0  0  0  0  0  0  0  0  0  0  0  0
  -27.9259    1.9890  135.9301 C   0  0  0  0  0  0  0  0  0  0  0  0
  -30.1388    1.4782  134.5701 C   0  0  0  0  0  0  0  0  0  0  0  0
  -28.7508    2.2032  134.6100 C   0  0  0  0  0  0  0  0  0  0  0  0
  2  1  1  0
  4  3  1  0
  5  1  1  0
  5  3  1  0
  6  4  2  0
  7  2  1  0
  8  7  1  0
  9  7  1  0
 10  4  1  0
 10  8  1  0
 11  9  1  0
 12  7  1  0
 12  9  1  0
 13 11  1  0
 14 11  1  0
 15  2  1  0
 15 12  1  0
 16  2  1  0
 16 15  1  0
 17 13  1  0
 18 12  1  0
 19 18  1  0
 20 14  1  0
 21 19  1  0
 21 20  1  0
M  END
$$$$

     RDKit          3D

 21 25  0  0  0  0  0  0  0  0999 V2000
  -28.6392   -1.9563  137.4741 N   0  0  0  0  0  0  0  0  0  0  0  0
  -29.7636   -1.8489  136.5327 C   0  0  0  0  0  0  0  0  0  0  0  0
  -28.0313   -3.3094  137.6175 C   0  0  0  0  0  0  0  0  0  0  0  0
  -31.4896   -2.3086  138.4113 C   0  0  0  0  0  0  0  0  0  0  0  0
  -26.7317   -3.4701  136.7461 C   0  0  0  0  0  0  0  0  0  0  0  0
  -27.8730   -3.5968  139.1508 C   0  0  0  0  0  0  0  0  0  0  0  0
  -26.4794   -3.9864  139.6871 C   0  0  0  0  0  0  0  0  0  0  0  0
  -27.3002   -5.5230  135.2506 C   0  0  0  0  0  0  0  0  0  0  0  0
  -31.0163   -2.6229  136.9799 C   0  0  0  0  0  0  0  0  0  0  0  0
  -31.1582   -1.0145  138.8650 O   0  0  0  0  0  0  0  0  0  0  0  0
  -32.5045   -1.2404  138.5208 C   0  0  0  0  0  0  0  0  0  0  0  0
  -26.0713   -6.4416  135.4726 C   0  0  0  0  0  0  0  0  0  0  0  0
  -26.3116   -7.6036  136.4724 C   0  0  0  0  0  0  0  0  0  0  0  0
  -26.5802   -5.0330  140.8036 C   0  0  0  0  0  0  0  0  0  0  0  0
  -27.0060   -3.9933  135.3060 C   0  0  0  0  0  0  0  0  0  0  0  0
  -25.7737   -7.3190  137.8923 C   0  0  0  0  0  0  0  0  0  0  0  0
  -25.3111   -5.8813  140.8179 C   0  0  0  0  0  0  0  0  0  0  0  0
  -25.5535   -4.8667  141.9159 C   0  0  0  0  0  0  0  0  0  0  0  0
  -25.8855   -5.3844  139.5008 C   0  0  0  0  0  0  0  0  0  0  0  0
  -26.7173   -6.4247  138.7217 C   0  0  0  0  0  0  0  0  0  0  0  0
  -25.8872   -3.5731  134.3451 C   0  0  0  0  0  0  0  0  0  0  0  0
  2  1  1  0
  3  1  1  0
  5  3  1  0
  6  3  1  0
  7  6  1  0
  9  2  1  0
  9  4  1  0
 10  4  1  0
 11  4  1  0
 11 10  1  0
 12  8  1  0
 13 12  1  0
 14  7  1  0
 15  5  1  0
 15  8  1  0
 16 13  1  0
 17 14  1  0
 18 14  1  0
 18 17  1  0
 19  7  1  0
 19 14  1  0
 19 17  1  0
 20 16  1  0
 20 19  1  0
 21 15  1  0
M  END
$$$$

     RDKit          3D

 19 21  0  0  0  0  0  0  0  0999 V2000
  -24.3555   -7.4483  152.5148 O   0  0  0  0  0  0  0  0  0  0  0  0
  -24.3250   -9.8417  152.2197 C   0  0  0  0  0  0  0  0  0  0  0  0
  -25.7908   -8.3619  150.9196 O   0  0  0  0  0  0  0  0  0  0  0  0
  -23.5962  -10.9346  151.3437 C   0  0  0  0  0  0  0  0  0  0  0  0
  -22.7600  -11.9989  152.1298 C   0  0  0  0  0  0  0  0  0  0  0  0
  -21.6510  -12.1162  153.9898 C   0  0  0  0  0  0  0  0  0  0  0  0
  -23.1017  -12.3576  153.5845 C   0  0  0  0  0  0  0  0  0  0  0  0
  -21.3080  -11.6840  152.5655 C   0  0  0  0  0  0  0  0  0  0  0  0
  -22.7507  -10.4199  150.3387 O   0  0  0  0  0  0  0  0  0  0  0  0
  -23.3772   -9.4012  149.6176 C   0  0  0  0  0  0  0  0  0  0  0  0
  -23.7710   -6.5109  149.3012 I   0  0  0  0  0  0  0  0  0  0  0  0
  -20.7997  -10.2356  152.4987 C   0  0  0  0  0  0  0  0  0  0  0  0
  -24.5062   -8.4359  151.5137 C   0  0  0  0  0  0  0  0  0  0  0  0
  -23.4713   -8.2307  150.4818 N   0  0  0  0  0  0  0  0  0  0  0  0
  -26.3363   -9.6222  153.8708 C   0  0  0  0  0  0  0  0  0  0  0  0
  -26.4765  -10.4061  155.1784 C   0  0  0  0  0  0  0  0  0  0  0  0
  -25.7010  -10.4203  152.6961 C   0  0  0  0  0  0  0  0  0  0  0  0
  -27.9941  -10.3145  155.0637 C   0  0  0  0  0  0  0  0  0  0  0  0
  -27.8601   -9.5269  153.7672 C   0  0  0  0  0  0  0  0  0  0  0  0
  4  2  1  0
  5  4  1  0
  7  5  1  0
  7  6  1  0
  8  5  1  0
  8  6  1  0
  9  4  1  0
 10  9  1  0
 12  8  1  0
 13  1  1  0
 13  2  1  0
 13  3  1  0
 14 10  1  0
 14 11  1  0
 14 13  1  0
 16 15  1  0
 17  2  1  0
 17 15  1  0
 18 16  1  0
 19 15  1  0
 19 18  1  0
M  END
$$$$

     RDKit          3D

 21 26  0  0  0  0  0  0  0  0999 V2000
  -33.6408   -6.9801  142.6754 O   0  0  0  0  0  0  0  0  0  0  0  0
  -33.3442   -6.8202  144.0241 C   0  0  0  0  0  0  0  0  0  0  0  0
  -32.3939   -5.7238  144.5617 C   0  0  0  0  0  0  0  0  0  0  0  0
  -33.1102   -4.6753  143.7543 C   0  0  0  0  0  0  0  0  0  0  0  0
  -31.8188   -6.9649  143.9866 C   0  0  0  0  0  0  0  0  0  0  0  0
  -33.8266   -3.5747  144.6111 C   0  0  0  0  0  0  0  0  0  0  0  0
  -35.6241   -4.8798  145.8417 N   0  0  0  0  0  0  0  0  0  0  0  0
  -33.2295   -4.8072  142.2458 C   0  0  0  0  0  0  0  0  0  0  0  0
  -35.9379   -2.7384  145.8288 C   0  0  0  0  0  0  0  0  0  0  0  0
  -35.3358   -3.7837  144.9053 C   0  0  0  0  0  0  0  0  0  0  0  0
  -36.2475   -3.9095  146.7427 C   0  0  0  0  0  0  0  0  0  0  0  0
  -34.0624   -5.7396  143.1564 C   0  0  0  0  0  0  0  0  0  0  0  0
  -34.0430   -3.8909  141.2743 C   0  0  0  0  0  0  0  0  0  0  0  0
  -35.5201   -4.3417  141.0653 C   0  0  0  0  0  0  0  0  0  0  0  0
  -35.8970   -5.2514  139.8784 C   0  0  0  0  0  0  0  0  0  0  0  0
  -33.9169   -2.3802  141.6027 C   0  0  0  0  0  0  0  0  0  0  0  0
  -33.9330   -1.5034  140.3779 C   0  0  0  0  0  0  0  0  0  0  0  0
  -37.1121   -6.1689  140.0797 C   0  0  0  0  0  0  0  0  0  0  0  0
  -36.2401   -3.7634  139.8436 C   0  0  0  0  0  0  0  0  0  0  0  0
  -32.9788   -1.6140  139.4470 C   0  0  0  0  0  0  0  0  0  0  0  0
  -34.8547   -5.7047  138.8361 C   0  0  0  0  0  0  0  0  0  0  0  0
  2  1  1  0
  3  2  1  0
  4  3  1  0
  5  2  1  0
  5  3  1  0
  6  4  1  0
  8  4  1  0
 10  6  1  0
 10  7  1  0
 10  9  1  0
 11  7  1  0
 11  9  1  0
 12  1  1  0
 12  2  1  0
 12  4  1  0
 12  8  1  0
 13  8  1  0
 14 13  1  0
 15 14  1  0
 16 13  1  0
 17 16  1  0
 18 15  1  0
 19 14  1  0
 19 15  1  0
 20 17  2  0
 21 15  1  0
M  END
$$$$

     RDKit          3D

 11 12  0  0  0  0  0  0  0  0999 V2000
  -29.8732   -7.2446  149.9123 C   0  0  0  0  0  0  0  0  0  0  0  0
  -31.2811   -6.6572  149.7672 C   0  0  0  0  0  0  0  0  0  0  0  0
  -31.7672   -6.0583  151.0901 C   0  0  0  0  0  0  0  0  0  0  0  0
  -29.3918   -7.8353  148.6105 C   0  0  0  0  0  0  0  0  0  0  0  0
  -33.1864   -5.4979  150.9304 C   0  0  0  0  0  0  0  0  0  0  0  0
  -28.1905   -8.4201  148.4795 C   0  0  0  0  0  0  0  0  0  0  0  0
  -33.2749   -4.0417  150.4992 C   0  0  0  0  0  0  0  0  0  0  0  0
  -27.2232   -8.5555  149.6253 C   0  0  0  0  0  0  0  0  0  0  0  0
  -25.7564   -8.5488  149.2239 C   0  0  0  0  0  0  0  0  0  0  0  0
  -33.5723   -4.4280  151.9403 C   0  0  0  0  0  0  0  0  0  0  0  0
  -26.3705   -7.3216  149.8760 C   0  0  0  0  0  0  0  0  0  0  0  0
  2  1  1  0
  3  2  1  0
  4  1  1  0
  5  3  1  0
  6  4  2  3
  7  5  1  0
  8  6  1  0
  9  8  1  0
 10  5  1  0
 10  7  1  0
 11  8  1  0
 11  9  1  0
M  END
$$$$

     RDKit          3D

 19 25  0  0  0  0  0  0  0  0999 V2000
  -26.7990   -5.5902  138.3551 C   0  0  0  0  0  0  0  0  0  0  0  0
  -26.3556   -4.3072  138.9468 C   0  0  0  0  0  0  0  0  0  0  0  0
  -27.3077   -6.3422  137.1359 C   0  0  0  0  0  0  0  0  0  0  0  0
  -25.9960   -2.8831  138.5716 C   0  0  0  0  0  0  0  0  0  0  0  0
  -27.1205   -1.8646  138.5834 C   0  0  0  0  0  0  0  0  0  0  0  0
  -27.1798   -1.1893  137.2100 C   0  0  0  0  0  0  0  0  0  0  0  0
  -24.9264   -0.1113  138.0598 C   0  0  0  0  0  0  0  0  0  0  0  0
  -26.5930   -6.1308  139.7542 C   0  0  0  0  0  0  0  0  0  0  0  0
  -24.9318   -2.3146  139.5222 C   0  0  0  0  0  0  0  0  0  0  0  0
  -27.4683   -3.2766  138.9831 C   0  0  0  0  0  0  0  0  0  0  0  0
  -28.1313   -5.3244  136.4812 N   0  0  0  0  0  0  0  0  0  0  0  0
  -26.1424   -4.8596  140.2291 O   0  0  0  0  0  0  0  0  0  0  0  0
  -26.2231   -6.5840  136.0955 C   0  0  0  0  0  0  0  0  0  0  0  0
  -24.1127   -1.2343  138.7751 C   0  0  0  0  0  0  0  0  0  0  0  0
  -25.1905   -5.4631  136.2245 C   0  0  0  0  0  0  0  0  0  0  0  0
  -25.7631   -6.1662  137.4341 C   0  0  0  0  0  0  0  0  0  0  0  0
  -24.9617   -1.3428  135.8090 C   0  0  0  0  0  0  0  0  0  0  0  0
  -27.8345   -2.0478  136.1203 C   0  0  0  0  0  0  0  0  0  0  0  0
  -25.7949   -0.5382  136.8238 C   0  0  0  0  0  0  0  0  0  0  0  0
  2  1  1  0
  3  1  1  0
  4  2  1  0
  5  4  1  0
  6  5  1  0
  8  1  1  0
  9  4  1  0
 10  2  1  0
 10  4  1  0
 10  5  1  0
 11  3  1  0
 12  2  1  0
 12  8  1  0
 13  3  1  0
 14  7  1  0
 14  9  1  0
 15 13  1  0
 16  1  1  0
 16  3  1  0
 16 13  1  0
 16 15  1  0
 18  6  1  0
 19  6  1  0
 19  7  1  0
 19 17  1  0
M  END
$$$$

     RDKit          3D

 21 30  0  0  0  0  0  0  0  0999 V2000
  -22.4182   -2.7272  131.1215 C   0  0  0  0  0  0  0  0  0  0  0  0
  -22.9446   -4.1078  131.4842 C   0  0  0  0  0  0  0  0  0  0  0  0
  -22.6053   -4.5509  132.9405 C   0  0  0  0  0  0  0  0  0  0  0  0
  -21.7662   -3.9325  130.4637 C   0  0  0  0  0  0  0  0  0  0  0  0
  -23.7239   -5.2286  134.6479 C   0  0  0  0  0  0  0  0  0  0  0  0
  -23.2096   -5.8865  133.3859 C   0  0  0  0  0  0  0  0  0  0  0  0
  -20.4087   -4.2147  130.9763 N   0  0  0  0  0  0  0  0  0  0  0  0
  -22.6709   -5.1528  130.4165 C   0  0  0  0  0  0  0  0  0  0  0  0
  -23.2736   -3.8302  134.1366 C   0  0  0  0  0  0  0  0  0  0  0  0
  -22.1269   -3.2451  135.0492 C   0  0  0  0  0  0  0  0  0  0  0  0
  -24.4501   -2.8277  133.7416 C   0  0  0  0  0  0  0  0  0  0  0  0
  -22.3792   -2.7329  136.4719 C   0  0  0  0  0  0  0  0  0  0  0  0
  -25.8714   -3.1522  134.2498 C   0  0  0  0  0  0  0  0  0  0  0  0
  -22.1556   -1.7523  135.3524 C   0  0  0  0  0  0  0  0  0  0  0  0
  -26.5222   -4.4244  133.6760 C   0  0  0  0  0  0  0  0  0  0  0  0
  -25.7084   -5.4766  132.9237 C   0  0  0  0  0  0  0  0  0  0  0  0
  -23.8084   -2.5692  137.0092 C   0  0  0  0  0  0  0  0  0  0  0  0
  -24.6723   -6.1539  133.8530 C   0  0  0  0  0  0  0  0  0  0  0  0
  -21.4841   -1.5286  136.7277 C   0  0  0  0  0  0  0  0  0  0  0  0
  -20.8262   -1.0600  135.4371 C   0  0  0  0  0  0  0  0  0  0  0  0
  -25.9523   -5.5839  134.4242 C   0  0  0  0  0  0  0  0  0  0  0  0
  2  1  1  0
  3  2  1  0
  4  1  1  0
  4  2  1  0
  6  3  1  0
  6  5  1  0
  7  4  1  0
  8  2  1  0
  8  4  1  0
  9  3  1  0
  9  5  1  0
 10  9  1  0
 11  9  1  0
 12 10  1  0
 13 11  1  0
 14 10  1  0
 14 12  1  0
 15 13  1  0
 16 15  1  0
 17 12  1  0
 18  5  1  0
 18  6  1  0
 18 16  1  0
 19 12  1  0
 19 14  1  0
 20 14  1  0
 20 19  1  0
 21 15  1  0
 21 16  1  0
 21 18  1  0
M  END
$$$$

     RDKit          3D

 21 25  0  0  0  0  0  0  0  0999 V2000
  -24.9311   -9.3189  146.6271 N   0  0  0  0  0  0  0  0  0  0  0  0
  -24.8472  -10.1568  147.8373 C   0  0  0  0  0  0  0  0  0  0  0  0
  -23.5019  -10.1241  148.4289 N   0  0  0  0  0  0  0  0  0  0  0  0
  -25.4837  -11.5256  147.6264 C   0  0  0  0  0  0  0  0  0  0  0  0
  -24.7298  -12.7667  148.1271 C   0  0  0  0  0  0  0  0  0  0  0  0
  -24.7892  -10.7911  146.4939 C   0  0  0  0  0  0  0  0  0  0  0  0
  -25.7140  -10.0669  145.6264 C   0  0  0  0  0  0  0  0  0  0  0  0
  -25.0572   -9.7855  143.9509 S   0  0  0  0  0  0  0  0  0  0  0  0
  -25.9482  -11.1402  143.0829 C   0  0  0  0  0  0  0  0  0  0  0  0
  -27.4385  -10.8131  142.8976 C   0  0  0  0  0  0  0  0  0  0  0  0
  -28.2051  -11.9756  142.3134 C   0  0  0  0  0  0  0  0  0  0  0  0
  -27.7696  -13.2460  142.3914 C   0  0  0  0  0  0  0  0  0  0  0  0
  -25.3880  -14.0379  147.5848 C   0  0  0  0  0  0  0  0  0  0  0  0
  -26.3910  -13.6065  142.8917 C   0  0  0  0  0  0  0  0  0  0  0  0
  -25.7829  -12.5054  143.7677 C   0  0  0  0  0  0  0  0  0  0  0  0
  -24.6600  -15.2618  148.0714 C   0  0  0  0  0  0  0  0  0  0  0  0
  -23.5831  -15.7846  147.3357 C   0  0  0  0  0  0  0  0  0  0  0  0
  -22.8875  -16.9034  147.8047 C   0  0  0  0  0  0  0  0  0  0  0  0
  -23.2554  -17.5013  149.0134 C   0  0  0  0  0  0  0  0  0  0  0  0
  -24.3167  -16.9784  149.7576 C   0  0  0  0  0  0  0  0  0  0  0  0
  -25.0147  -15.8594  149.2925 C   0  0  0  0  0  0  0  0  0  0  0  0
  2  1  1  0
  3  2  1  0
  4  2  1  0
  5  4  1  0
  6  1  1  0
  6  2  1  0
  6  4  1  0
  7  1  1  0
  7  6  1  0
  8  7  1  0
  9  8  1  0
 10  9  1  0
 11 10  1  0
 12 11  2  0
 13  5  1  0
 14 12  1  0
 15  9  1  0
 15 14  1  0
 16 13  1  0
 17 16  4  0
 18 17  4  0
 19 18  4  0
 20 19  4  0
 21 16  4  0
 21 20  4  0
M  END
$$$$

     RDKit          3D

 21 23  0  0  0  0  0  0  0  0999 V2000
  -26.7496  -12.3392  146.7189 O   0  0  0  0  0  0  0  0  0  0  0  0
  -27.3883  -13.2409  146.1234 C   0  0  0  0  0  0  0  0  0  0  0  0
  -26.6740  -14.2664  145.4731 O   0  0  0  0  0  0  0  0  0  0  0  0
  -28.8875  -13.0004  145.9403 C   0  0  0  0  0  0  0  0  0  0  0  0
  -29.5532  -12.7571  147.3476 C   0  0  0  0  0  0  0  0  0  0  0  0
  -29.6283  -13.5829  144.6477 C   0  0  0  0  0  0  0  0  0  0  0  0
  -30.4455  -12.5100  143.7958 C   0  0  0  0  0  0  0  0  0  0  0  0
  -29.8760  -11.0831  143.6049 C   0  0  0  0  0  0  0  0  0  0  0  0
  -30.4605  -14.9655  144.6335 C   0  0  0  0  0  0  0  0  0  0  0  0
  -29.9085  -16.2198  145.3665 C   0  0  0  0  0  0  0  0  0  0  0  0
  -30.5798  -10.0286  144.5414 C   0  0  0  0  0  0  0  0  0  0  0  0
  -29.7789  -16.1115  146.8973 C   0  0  0  0  0  0  0  0  0  0  0  0
  -32.5746  -14.1059  146.0304 C   0  0  0  0  0  0  0  0  0  0  0  0
  -32.0297  -14.8541  144.7902 C   0  0  0  0  0  0  0  0  0  0  0  0
  -29.7996   -9.6330  145.8297 C   0  0  0  0  0  0  0  0  0  0  0  0
  -30.4086  -10.2889  147.1221 C   0  0  0  0  0  0  0  0  0  0  0  0
  -29.4456  -11.2680  147.8640 C   0  0  0  0  0  0  0  0  0  0  0  0
  -30.0835  -17.4361  147.6629 C   0  0  0  0  0  0  0  0  0  0  0  0
  -31.4656  -18.0202  147.4116 C   0  0  0  0  0  0  0  0  0  0  0  0
  -29.7705  -17.4650  149.1753 C   0  0  0  0  0  0  0  0  0  0  0  0
  -31.1888  -17.2058  148.6775 C   0  0  0  0  0  0  0  0  0  0  0  0
  2  1  2  0
  3  2  1  0
  4  2  1  0
  5  4  1  0
  6  4  1  0
  7  6  1  0
  8  7  1  0
  9  6  1  0
 10  9  1  0
 11  8  1  0
 12 10  1  0
 14  9  1  0
 14 13  1  0
 15 11  1  0
 16 15  1  0
 17  5  1  0
 17 16  1  0
 18 12  1  0
 19 18  1  0
 20 18  1  0
 21 18  1  0
 21 19  1  0
 21 20  1  0
M  END
$$$$

     RDKit          3D

 21 26  0  0  0  0  0  0  0  0999 V2000
  -17.1347   -5.0680  135.0948 C   0  0  0  0  0  0  0  0  0  0  0  0
  -16.4373   -4.0230  135.9321 C   0  0  0  0  0  0  0  0  0  0  0  0
  -17.2657   -2.7350  136.2353 C   0  0  0  0  0  0  0  0  0  0  0  0
  -16.2945   -1.5990  136.3047 C   0  0  0  0  0  0  0  0  0  0  0  0
  -16.9443   -4.6796  133.6378 C   0  0  0  0  0  0  0  0  0  0  0  0
  -14.8847   -1.8835  135.5860 C   0  0  0  0  0  0  0  0  0  0  0  0
  -13.7712   -2.6506  136.2764 C   0  0  0  0  0  0  0  0  0  0  0  0
  -17.6632   -3.3960  133.1966 N   0  0  0  0  0  0  0  0  0  0  0  0
  -16.1373   -2.6641  135.2506 C   0  0  0  0  0  0  0  0  0  0  0  0
  -18.2257   -3.6593  131.9086 C   0  0  0  0  0  0  0  0  0  0  0  0
  -13.3104   -3.6985  135.4436 F   0  0  0  0  0  0  0  0  0  0  0  0
  -14.4709   -0.9516  134.6520 F   0  0  0  0  0  0  0  0  0  0  0  0
  -20.7184   -3.8519  132.2957 C   0  0  0  0  0  0  0  0  0  0  0  0
  -18.6377   -2.7977  135.4333 C   0  0  0  0  0  0  0  0  0  0  0  0
  -21.7470   -4.9262  131.4977 C   0  0  0  0  0  0  0  0  0  0  0  0
  -18.3528   -2.3771  133.9936 N   0  0  0  0  0  0  0  0  0  0  0  0
  -22.7337   -6.4687  131.8355 Cl  0  0  0  0  0  0  0  0  0  0  0  0
  -19.7782   -2.3405  134.3764 C   0  0  0  0  0  0  0  0  0  0  0  0
  -21.1950   -5.2271  129.9685 C   0  0  0  0  0  0  0  0  0  0  0  0
  -20.9414   -3.3225  133.8203 C   0  0  0  0  0  0  0  0  0  0  0  0
  -19.4117   -4.5688  132.3512 C   0  0  0  0  0  0  0  0  0  0  0  0
  2  1  1  0
  3  2  1  0
  4  3  1  0
  5  1  1  0
  6  4  1  0
  7  6  1  0
  8  5  1  0
  9  2  1  0
  9  3  1  0
  9  4  1  0
  9  6  1  0
 10  8  1  0
 11  7  1  0
 12  6  1  0
 14  3  1  0
 15 13  1  0
 16  8  1  0
 16 14  1  0
 17 15  1  0
 18 14  1  0
 18 16  1  0
 19 15  1  0
 20 13  1  0
 20 18  1  0
 21 10  1  0
 21 13  1  0
M  END
$$$$

     RDKit          3D

 21 23  0  0  0  0  0  0  0  0999 V2000
  -22.9862  -21.2081  147.7510 O   0  0  0  0  0  0  0  0  0  0  0  0
  -23.5972  -20.8272  146.5466 C   0  0  0  0  0  0  0  0  0  0  0  0
  -22.6275  -20.1801  145.7601 O   0  0  0  0  0  0  0  0  0  0  0  0
  -24.7458  -19.8351  146.8435 C   0  0  0  0  0  0  0  0  0  0  0  0
  -26.4826  -19.4726  145.8621 C   0  0  0  0  0  0  0  0  0  0  0  0
  -25.1270  -19.1505  145.6701 O   0  0  0  0  0  0  0  0  0  0  0  0
  -27.1901  -19.9752  144.5361 C   0  0  0  0  0  0  0  0  0  0  0  0
  -26.2588  -20.1418  143.2976 C   0  0  0  0  0  0  0  0  0  0  0  0
  -28.1301  -21.1809  144.7484 C   0  0  0  0  0  0  0  0  0  0  0  0
  -29.4058  -21.3286  143.9157 C   0  0  0  0  0  0  0  0  0  0  0  0
  -26.1819  -20.3232  147.1240 C   0  0  0  0  0  0  0  0  0  0  0  0
  -31.2174  -20.4695  145.2967 O   0  0  0  0  0  0  0  0  0  0  0  0
  -28.3317  -22.2213  147.2896 P   0  0  0  0  0  0  0  0  0  0  0  0
  -25.6201  -21.5339  143.1520 C   0  0  0  0  0  0  0  0  0  0  0  0
  -24.4355  -21.5512  142.1808 C   0  0  0  0  0  0  0  0  0  0  0  0
  -24.0417  -22.9825  141.7895 C   0  0  0  0  0  0  0  0  0  0  0  0
  -30.2120  -21.4439  145.2145 C   0  0  0  0  0  0  0  0  0  0  0  0
  -23.7515  -23.7594  142.9239 O   0  0  0  0  0  0  0  0  0  0  0  0
  -28.9731  -21.0439  146.0063 C   0  0  0  0  0  0  0  0  0  0  0  0
  -26.4727  -21.8533  147.1598 C   0  0  0  0  0  0  0  0  0  0  0  0
  -25.8018  -22.5450  148.3640 C   0  0  0  0  0  0  0  0  0  0  0  0
  2  1  1  0
  3  2  1  0
  4  2  1  0
  6  4  1  0
  6  5  1  0
  7  5  1  0
  8  7  1  0
  9  7  1  0
 10  9  1  0
 11  4  1  0
 11  5  1  0
 14  8  1  0
 15 14  1  0
 16 15  1  0
 17 10  1  0
 17 12  1  0
 18 16  1  0
 19  9  1  0
 19 13  1  0
 19 17  1  0
 20 11  1  0
 20 13  1  0
 21 20  1  0
M  END
$$$$

     RDKit          3D

 16 17  0  0  0  0  0  0  0  0999 V2000
  -22.1896  -10.7186  149.0029 C   0  0  0  0  0  0  0  0  0  0  0  0
  -23.4286   -9.8224  148.8854 C   0  0  0  0  0  0  0  0  0  0  0  0
  -23.9578   -9.8664  147.5996 F   0  0  0  0  0  0  0  0  0  0  0  0
  -23.4720  -10.6839  151.0909 C   0  0  0  0  0  0  0  0  0  0  0  0
  -20.9535  -10.7748  151.2197 C   0  0  0  0  0  0  0  0  0  0  0  0
  -22.1979  -12.8394  150.4901 C   0  0  0  0  0  0  0  0  0  0  0  0
  -22.1974  -11.2771  150.4531 C   0  0  0  0  0  0  0  0  0  0  0  0
  -25.5727  -12.4805  150.1678 C   0  0  0  0  0  0  0  0  0  0  0  0
  -27.4161  -12.8518  151.7371 C   0  0  0  0  0  0  0  0  0  0  0  0
  -26.7527  -13.7694  152.7225 C   0  0  0  0  0  0  0  0  0  0  0  0
  -24.5628  -13.2563  150.7979 O   0  0  0  0  0  0  0  0  0  0  0  0
  -25.0438  -11.4911  149.2959 O   0  0  0  0  0  0  0  0  0  0  0  0
  -24.4065  -10.3737  149.9124 C   0  0  0  0  0  0  0  0  0  0  0  0
  -27.3418  -14.8992  153.1216 C   0  0  0  0  0  0  0  0  0  0  0  0
  -26.4581  -11.8787  151.1899 N   0  0  0  0  0  0  0  0  0  0  0  0
  -23.4611  -13.5359  149.9517 C   0  0  0  0  0  0  0  0  0  0  0  0
  2  1  1  0
  3  2  1  0
  7  1  1  0
  7  4  1  0
  7  5  1  0
  7  6  1  0
 10  9  1  0
 11  8  1  0
 12  8  1  0
 13  2  1  0
 13  4  1  0
 13 12  1  0
 14 10  2  0
 15  8  1  0
 15  9  1  0
 16  6  1  0
 16 11  1  0
M  END
$$$$

     RDKit          3D

 21 24  0  0  0  0  0  0  0  0999 V2000
  -21.7034  -14.6190  148.2059 N   0  0  0  0  0  2  0  0  0  0  0  0
  -22.5854  -14.9433  147.2575 C   0  0  0  0  0  0  0  0  0  0  0  0
  -22.9900  -14.2073  148.3285 N   0  0  0  0  0  2  0  0  0  0  0  0
  -22.2742  -16.3026  146.8385 C   0  0  0  0  0  0  0  0  0  0  0  0
  -23.2249  -17.4042  146.8615 C   0  0  0  0  0  0  0  0  0  0  0  0
  -22.3303  -14.8348  146.9296 C   0  0  0  0  0  0  0  0  0  0  0  0
  -24.5896  -17.0974  146.9037 C   0  0  0  0  0  0  0  0  0  0  0  0
  -25.0709  -15.7923  146.6696 C   0  0  0  0  0  0  0  0  0  0  0  0
  -22.3233  -16.5389  146.0789 C   0  0  0  0  0  0  0  0  0  0  0  0
  -24.1790  -14.7260  146.4979 C   0  0  0  0  0  0  0  0  0  0  0  0
  -24.0444  -13.8488  145.2852 C   0  0  0  0  0  0  0  0  0  0  0  0
  -23.1827  -14.2507  144.3130 C   0  0  0  0  0  0  0  0  0  0  0  0
  -21.9155  -14.7577  144.6987 C   0  0  0  0  0  0  0  0  0  0  0  0
  -21.4645  -15.9644  144.3631 C   0  0  0  0  0  0  0  0  0  0  0  0
  -20.9653  -16.6883  145.2375 N   0  0  0  0  0  0  0  0  0  0  0  0
  -21.4961  -17.9233  145.9580 C   0  0  0  0  0  0  0  0  0  0  0  0
  -20.7361  -18.8900  146.9237 C   0  0  0  0  0  0  0  0  0  0  0  0
  -22.9569  -18.4574  145.8075 C   0  0  0  0  0  0  0  0  0  0  0  0
  -22.8244  -18.0252  147.0823 P   0  0  0  0  0  0  0  0  0  0  0  0
  -23.0887  -19.0022  144.8130 P   0  0  0  0  0  0  0  0  0  0  0  0
  -21.7920  -19.1575  145.1301 C   0  0  0  0  0  0  0  0  0  0  0  0
  2  1  1  0
  3  2  1  0
  4  2  1  0
  5  4  1  0
  6  2  1  0
  7  5  2  3
  8  7  1  0
  9  4  1  0
 10  8  1  0
 11 10  1  0
 12 11  1  0
 13 12  1  0
 14 13  1  0
 15  9  1  0
 15 14  1  0
 17 16  1  0
 18 16  1  0
 19  5  1  0
 19 16  1  0
 19 18  1  0
 20 18  1  0
 21 16  1  0
 21 18  1  0
 21 20  1  0
M  RAD  2   1   2   3   2
M  END
$$$$

     RDKit          3D

 21 24  0  0  0  0  0  0  0  0999 V2000
  -22.6872    1.1011  143.4560 C   0  0  0  0  0  0  0  0  0  0  0  0
  -21.7921    2.1633  144.1509 C   0  0  0  0  0  0  0  0  0  0  0  0
  -23.5577    1.7058  142.2980 C   0  0  0  0  0  0  0  0  0  0  0  0
  -23.4271    1.1476  140.8929 C   0  0  0  0  0  0  0  0  0  0  0  0
  -22.1900    1.5672  140.0259 C   0  0  0  0  0  0  0  0  0  0  0  0
  -20.6134    2.7271  143.2656 C   0  0  0  0  0  0  0  0  0  0  0  0
  -22.6868    3.3417  144.7851 C   0  0  0  0  0  0  0  0  0  0  0  0
  -21.3752    2.7354  140.6323 C   0  0  0  0  0  0  0  0  0  0  0  0
  -21.9694   -0.1586  143.1700 N   0  0  0  0  0  0  0  0  0  0  0  0
  -20.3456    2.3712  141.7628 C   0  0  0  0  0  0  0  0  0  0  0  0
  -21.4342    0.2694  139.5237 C   0  0  0  0  0  0  0  0  0  0  0  0
  -22.6689    3.4564  146.3221 C   0  0  0  0  0  0  0  0  0  0  0  0
  -23.9087    2.9344  145.6050 C   0  0  0  0  0  0  0  0  0  0  0  0
  -22.4177   -0.6348  138.7262 C   0  0  0  0  0  0  0  0  0  0  0  0
  -20.2032    0.5484  138.6148 C   0  0  0  0  0  0  0  0  0  0  0  0
  -19.1199   -0.5554  138.7271 C   0  0  0  0  0  0  0  0  0  0  0  0
  -18.2286   -0.4333  139.9916 C   0  0  0  0  0  0  0  0  0  0  0  0
  -22.2038   -2.0823  139.0548 C   0  0  0  0  0  0  0  0  0  0  0  0
  -20.9256   -2.6868  138.5032 C   0  0  0  0  0  0  0  0  0  0  0  0
  -19.5191   -2.0502  138.4361 C   0  0  0  0  0  0  0  0  0  0  0  0
  -19.9074   -2.8922  139.6364 C   0  0  0  0  0  0  0  0  0  0  0  0
  2  1  1  0
  3  1  1  0
  4  3  1  0
  5  4  1  0
  6  2  1  0
  7  2  1  0
  8  5  1  0
  9  1  1  0
 10  6  1  0
 10  8  1  0
 11  5  1  0
 12  7  1  0
 13  7  1  0
 13 12  1  0
 14 11  1  0
 15 11  1  0
 16 15  1  0
 17 16  1  0
 18 14  1  0
 19 18  1  0
 20 16  1  0
 20 19  1  0
 21 19  1  0
 21 20  1  0
M  END
$$$$

     RDKit          3D

 21 23  0  0  0  0  0  0  0  0999 V2000
  -26.0998   -9.1672  148.3983 O   0  0  0  0  0  0  0  0  0  0  0  0
  -25.4442   -9.6140  147.2442 C   0  0  0  0  0  0  0  0  0  0  0  0
  -25.0146  -11.0472  147.4035 C   0  0  0  0  0  0  0  0  0  0  0  0
  -25.8812  -12.1397  146.8991 C   0  0  0  0  0  0  0  0  0  0  0  0
  -27.1697  -12.1862  147.2742 C   0  0  0  0  0  0  0  0  0  0  0  0
  -28.1593  -13.1931  146.7474 C   0  0  0  0  0  0  0  0  0  0  0  0
  -23.8716  -11.3059  148.0455 C   0  0  0  0  0  0  0  0  0  0  0  0
  -25.0659  -13.4464  145.6183 Al  0  0  0  0  0  3  0  0  0  0  0  0
  -28.6510  -12.9022  145.3233 C   0  0  0  0  0  0  0  0  0  0  0  0
  -29.0206  -14.0707  144.3821 C   0  0  0  0  0  0  0  0  0  0  0  0
  -28.3740  -16.4465  144.8284 C   0  0  0  0  0  0  0  0  0  0  0  0
  -29.2043  -15.4203  145.0399 C   0  0  0  0  0  0  0  0  0  0  0  0
  -29.5978  -12.7033  146.5078 C   0  0  0  0  0  0  0  0  0  0  0  0
  -31.2359  -10.8413  146.0954 C   0  0  0  0  0  0  0  0  0  0  0  0
  -32.5975  -10.9188  146.8011 C   0  0  0  0  0  0  0  0  0  0  0  0
  -29.9395  -11.2365  146.8186 C   0  0  0  0  0  0  0  0  0  0  0  0
  -32.6707  -11.6231  148.1778 C   0  0  0  0  0  0  0  0  0  0  0  0
  -31.8702   -9.5794  146.6672 C   0  0  0  0  0  0  0  0  0  0  0  0
  -32.5138  -10.6818  149.3838 C   0  0  0  0  0  0  0  0  0  0  0  0
  -33.4620  -10.8581  150.4834 C   0  0  0  0  0  0  0  0  0  0  0  0
  -33.6500   -9.7506  149.5236 N   0  0  0  0  0  0  0  0  0  0  0  0
  2  1  1  0
  3  2  1  0
  4  3  1  0
  5  4  2  3
  6  5  1  0
  7  3  2  0
  8  4  1  0
  9  6  1  0
 10  9  1  0
 12 10  1  0
 12 11  2  0
 13  6  1  0
 13  9  1  0
 15 14  1  0
 16 13  1  0
 16 14  1  0
 17 15  1  0
 18 14  1  0
 18 15  1  0
 19 17  1  0
 20 19  1  0
 21 19  1  0
 21 20  1  0
M  END
$$$$

     RDKit          3D

  9 11  0  0  0  0  0  0  0  0999 V2000
  -22.9664   -7.9757  136.6101 C   0  0  0  0  0  0  0  0  0  0  0  0
  -23.3300   -8.2570  139.1150 C   0  0  0  0  0  0  0  0  0  0  0  0
  -22.8524   -6.2717  138.3926 N   0  0  0  0  0  0  0  0  0  0  0  0
  -22.5528   -7.0486  139.5963 C   0  0  0  0  0  0  0  0  0  0  0  0
  -23.6169   -7.4122  137.8850 C   0  0  0  0  0  0  0  0  0  0  0  0
  -24.6112   -8.5806  133.3372 C   0  0  0  0  0  0  0  0  0  0  0  0
  -24.7318   -8.1403  134.7956 C   0  0  0  0  0  0  0  0  0  0  0  0
  -23.8196   -8.8873  135.7449 C   0  0  0  0  0  0  0  0  0  0  0  0
  -23.5529   -7.3916  135.3571 C   0  0  0  0  0  0  0  0  0  0  0  0
  4  2  1  0
  4  3  1  0
  5  1  1  0
  5  2  1  0
  5  3  1  0
  7  6  1  0
  8  1  1  0
  8  7  1  0
  9  1  1  0
  9  7  1  0
  9  8  1  0
M  END
$$$$

     RDKit          3D

 21 25  0  0  0  0  0  0  0  0999 V2000
  -21.9483   -5.9418  149.8384 C   0  0  0  0  0  0  0  0  0  0  0  0
  -23.1024   -5.5775  150.4055 C   0  0  0  0  0  0  0  0  0  0  0  0
  -24.3719   -6.3931  150.3318 C   0  0  0  0  0  0  0  0  0  0  0  0
  -21.8754   -7.0102  148.7948 C   0  0  0  0  0  0  0  0  0  0  0  0
  -25.5557   -5.7427  149.5879 C   0  0  0  0  0  0  0  0  0  0  0  0
  -22.7112   -6.5833  147.5844 C   0  0  0  0  0  0  0  0  0  0  0  0
  -25.3006   -4.3732  148.9013 C   0  0  0  0  0  0  0  0  0  0  0  0
  -24.7503   -7.1246  151.6251 C   0  0  0  0  0  0  0  0  0  0  0  0
  -26.6105   -3.6967  148.3957 C   0  0  0  0  0  0  0  0  0  0  0  0
  -26.7633   -3.9372  146.8859 C   0  0  0  0  0  0  0  0  0  0  0  0
  -24.1876   -7.0129  147.6662 C   0  0  0  0  0  0  0  0  0  0  0  0
  -26.8292   -2.2082  148.7920 C   0  0  0  0  0  0  0  0  0  0  0  0
  -27.7747   -4.5661  147.8508 C   0  0  0  0  0  0  0  0  0  0  0  0
  -29.2109   -4.0618  147.5584 C   0  0  0  0  0  0  0  0  0  0  0  0
  -24.9092   -7.0360  149.0413 C   0  0  0  0  0  0  0  0  0  0  0  0
  -27.4382   -1.9674  150.1998 C   0  0  0  0  0  0  0  0  0  0  0  0
  -27.0965   -2.8751  151.3816 C   0  0  0  0  0  0  0  0  0  0  0  0
  -26.4214   -1.5223  151.2469 C   0  0  0  0  0  0  0  0  0  0  0  0
  -29.9214   -3.4718  148.7845 C   0  0  0  0  0  0  0  0  0  0  0  0
  -30.5126   -2.0730  148.6122 C   0  0  0  0  0  0  0  0  0  0  0  0
  -31.4207   -3.2898  148.5659 C   0  0  0  0  0  0  0  0  0  0  0  0
  2  1  2  0
  3  2  1  0
  4  1  1  0
  5  3  1  0
  6  4  1  0
  7  5  1  0
  8  3  1  0
  9  7  1  0
 10  9  1  0
 11  6  1  0
 12  9  1  0
 13  9  1  0
 13 10  1  0
 14 13  1  0
 15  3  1  0
 15  5  1  0
 15 11  1  0
 16 12  1  0
 17 16  1  0
 18 16  1  0
 18 17  1  0
 19 14  1  0
 20 19  1  0
 21 19  1  0
 21 20  1  0
M  END
$$$$

     RDKit          3D

 21 27  0  0  0  0  0  0  0  0999 V2000
  -22.7348   -2.1042  137.7562 C   0  0  0  0  0  0  0  0  0  0  0  0
  -23.4318   -3.1055  136.8867 C   0  0  0  0  0  0  0  0  0  0  0  0
  -22.3224   -3.8211  136.1216 C   0  0  0  0  0  0  0  0  0  0  0  0
  -23.7132   -2.9389  138.3969 C   0  0  0  0  0  0  0  0  0  0  0  0
  -24.3275   -1.9295  136.4165 C   0  0  0  0  0  0  0  0  0  0  0  0
  -25.0588   -3.6690  138.6775 C   0  0  0  0  0  0  0  0  0  0  0  0
  -24.4628   -3.1667  141.2068 C   0  0  0  0  0  0  0  0  0  0  0  0
  -24.9239   -5.1975  138.5592 C   0  0  0  0  0  0  0  0  0  0  0  0
  -26.0112   -5.8035  137.6371 C   0  0  0  0  0  0  0  0  0  0  0  0
  -25.0557   -3.1123  142.6341 C   0  0  0  0  0  0  0  0  0  0  0  0
  -25.6181   -7.2457  137.5443 C   0  0  0  0  0  0  0  0  0  0  0  0
  -26.6589   -6.8238  136.6036 C   0  0  0  0  0  0  0  0  0  0  0  0
  -25.2512   -5.3357  140.0465 C   0  0  0  0  0  0  0  0  0  0  0  0
  -25.2153   -4.4834  143.3350 C   0  0  0  0  0  0  0  0  0  0  0  0
  -25.4122   -3.8210  140.1708 C   0  0  0  0  0  0  0  0  0  0  0  0
  -23.9376   -4.0721  145.5119 C   0  0  0  0  0  0  0  0  0  0  0  0
  -26.4520   -5.9787  140.2966 F   0  0  0  0  0  0  0  0  0  0  0  0
  -25.3265   -6.2126  136.3879 C   0  0  0  0  0  0  0  0  0  0  0  0
  -24.0867   -1.5035  137.9068 C   0  0  0  0  0  0  0  0  0  0  0  0
  -24.0427   -4.9277  144.2430 C   0  0  0  0  0  0  0  0  0  0  0  0
  -22.7044   -5.0007  143.5058 C   0  0  0  0  0  0  0  0  0  0  0  0
  2  1  1  0
  3  2  1  0
  4  1  1  0
  4  2  1  0
  5  2  1  0
  6  4  1  0
  8  6  1  0
  9  8  1  0
 10  7  1  0
 11  9  1  0
 12  9  1  0
 12 11  1  0
 13  8  1  0
 14 10  1  0
 15  6  1  0
 15  7  1  0
 15 13  1  0
 17 13  1  0
 18  9  1  0
 18 11  1  0
 18 12  1  0
 19  1  1  0
 19  4  1  0
 19  5  1  0
 20 14  1  0
 20 16  1  0
 21 20  1  0
M  END
$$$$

     RDKit          3D

 13 14  0  0  0  0  0  0  0  0999 V2000
  -25.9419  -13.9845  143.2024 C   0  0  0  0  0  0  0  0  0  0  0  0
  -27.7233  -10.8410  143.0049 C   0  0  0  0  0  0  0  0  0  0  0  0
  -27.6304  -10.4552  141.5105 C   0  0  0  0  0  0  0  0  0  0  0  0
  -26.1936  -10.4160  140.9169 C   0  0  0  0  0  0  0  0  0  0  0  0
  -24.5789  -13.3835  142.8050 C   0  0  0  0  0  0  0  0  0  0  0  0
  -24.6246  -11.9524  142.2545 C   0  0  0  0  0  0  0  0  0  0  0  0
  -26.8402  -13.0625  144.0608 C   0  0  0  0  0  0  0  0  0  0  0  0
  -26.7127   -8.4773  139.3237 C   0  0  0  0  0  0  0  0  0  0  0  0
  -26.9919   -8.0338  137.8950 C   0  0  0  0  0  0  0  0  0  0  0  0
  -26.2348   -9.9340  139.4467 C   0  0  0  0  0  0  0  0  0  0  0  0
  -25.4944  -11.8003  140.9890 C   0  0  0  0  0  0  0  0  0  0  0  0
  -27.9576  -12.3526  143.2554 C   0  0  0  0  0  0  0  0  0  0  0  0
  -28.1466   -8.2747  138.8535 C   0  0  0  0  0  0  0  0  0  0  0  0
  3  2  1  0
  4  3  1  0
  5  1  1  0
  6  5  1  0
  7  1  1  0
  9  8  1  0
 10  4  1  0
 10  8  1  0
 11  4  1  0
 11  6  1  0
 12  2  1  0
 12  7  1  0
 13  8  1  0
 13  9  1  0
M  END
$$$$

     RDKit          3D

 21 25  0  0  0  0  0  0  0  0999 V2000
  -30.5120  -22.3240  138.9176 O   0  0  0  0  0  0  0  0  0  0  0  0
  -30.9858  -21.0911  139.4089 C   0  0  0  0  0  0  0  0  0  0  0  0
  -33.0700  -19.8814  140.1999 C   0  0  0  0  0  0  0  0  0  0  0  0
  -33.5554  -19.1104  138.9297 C   0  0  0  0  0  0  0  0  0  0  0  0
  -30.7420  -21.3187  137.9584 C   0  0  0  0  0  0  0  0  0  0  0  0
  -29.4154  -20.7989  137.4044 C   0  0  0  0  0  0  0  0  0  0  0  0
  -29.6022  -19.4972  136.5952 C   0  0  0  0  0  0  0  0  0  0  0  0
  -28.5633  -17.3533  137.6130 C   0  0  0  0  0  0  0  0  0  0  0  0
  -29.2803  -17.8302  139.2799 P   0  0  0  0  0  0  0  0  0  0  0  0
  -28.3557  -18.5746  136.6951 C   0  0  0  0  0  0  0  0  0  0  0  0
  -35.0067  -19.4519  138.5655 C   0  0  0  0  0  0  0  0  0  0  0  0
  -32.4078  -21.2463  139.9539 C   0  0  0  0  0  0  0  0  0  0  0  0
  -36.1330  -18.6528  137.9518 C   0  0  0  0  0  0  0  0  0  0  0  0
  -33.8919  -19.8429  137.6045 C   0  0  0  0  0  0  0  0  0  0  0  0
  -37.0838  -19.7582  138.4658 C   0  0  0  0  0  0  0  0  0  0  0  0
  -32.6608  -16.0862  140.5255 C   0  0  0  0  0  0  0  0  0  0  0  0
  -35.9089  -20.5644  139.0548 C   0  0  0  0  0  0  0  0  0  0  0  0
  -27.3292  -16.7097  137.8063 O   0  0  0  0  0  0  0  0  0  0  0  0
  -33.2876  -17.5870  138.8255 C   0  0  0  0  0  0  0  0  0  0  0  0
  -31.4360  -16.9366  139.2093 Al  0  0  0  0  0  3  0  0  0  0  0  0
  -33.9036  -16.7738  139.9708 C   0  0  0  0  0  0  0  0  0  0  0  0
  2  1  1  0
  4  3  1  0
  5  1  1  0
  5  2  1  0
  6  5  1  0
  7  6  1  0
  9  8  1  0
 10  7  1  0
 10  8  1  0
 11  4  1  0
 12  2  1  0
 12  3  1  0
 13 11  1  0
 14  4  1  0
 14 11  1  0
 15 13  1  0
 17 11  1  0
 17 15  1  0
 18  8  1  0
 19  4  1  0
 20  9  1  0
 20 16  1  0
 20 19  1  0
 21 16  1  0
 21 19  1  0
M  END
$$$$

     RDKit          3D

 21 23  0  0  0  0  0  0  0  0999 V2000
  -28.8591    0.1115  136.8880 C   0  0  0  0  0  0  0  0  0  0  0  0
  -30.2952   -0.0688  137.3384 C   0  0  0  0  0  0  0  0  0  0  0  0
  -27.8583   -2.1227  137.6878 C   0  0  0  0  0  0  0  0  0  0  0  0
  -28.8434   -1.4041  136.7559 C   0  0  0  0  0  0  0  0  0  0  0  0
  -30.2308   -1.5387  137.2249 N   0  0  0  0  0  0  0  0  0  0  0  0
  -35.4572   -1.7322  138.7367 I   0  0  0  0  0  0  0  0  0  0  0  0
  -31.2084   -3.7740  140.8083 C   0  0  0  0  0  0  0  0  0  0  0  0
  -31.8256   -2.4788  142.8089 C   0  0  0  0  0  0  0  0  0  0  0  0
  -30.8802   -1.4720  142.5213 O   0  0  0  0  0  0  0  0  0  0  0  0
  -32.7248   -2.8332  137.9927 C   0  0  0  0  0  0  0  0  0  0  0  0
  -30.0749   -2.7469  140.5817 C   0  0  0  0  0  0  0  0  0  0  0  0
  -31.2723   -3.5156  143.6308 O   0  0  0  0  0  0  0  0  0  0  0  0
  -29.7351   -2.0738  141.9365 C   0  0  0  0  0  0  0  0  0  0  0  0
  -32.3854   -3.0605  141.4638 C   0  0  0  0  0  0  0  0  0  0  0  0
  -31.1119   -2.0696  136.1568 C   0  0  0  0  0  0  0  0  0  0  0  0
  -32.9974   -1.8775  140.6207 C   0  0  0  0  0  0  0  0  0  0  0  0
  -32.5682   -2.1049  136.6246 C   0  0  0  0  0  0  0  0  0  0  0  0
  -29.1136   -3.0261  142.7900 O   0  0  0  0  0  0  0  0  0  0  0  0
  -33.3219   -1.8757  139.0711 C   0  0  0  0  0  0  0  0  0  0  0  0
  -29.8855   -3.3183  143.9427 C   0  0  0  0  0  0  0  0  0  0  0  0
  -29.3392   -4.5977  144.5473 C   0  0  0  0  0  0  0  0  0  0  0  0
  2  1  1  0
  4  1  1  0
  4  3  1  0
  5  2  1  0
  5  4  1  0
  9  8  1  0
 11  7  1  0
 12  8  1  0
 13  9  1  0
 13 11  1  0
 14  7  1  0
 14  8  1  0
 15  5  1  0
 16 14  1  0
 17 10  1  0
 17 15  1  0
 18 13  1  0
 19  6  1  0
 19 10  1  0
 19 16  1  0
 20 12  1  0
 20 18  1  0
 21 20  1  0
M  END
$$$$

     RDKit          3D

 20 25  0  0  0  0  0  0  0  0999 V2000
  -37.5212   -5.3386  140.2253 O   0  0  0  0  0  0  0  0  0  0  0  0
  -35.9161   -4.3668  144.4152 O   0  0  0  0  0  0  0  0  0  0  0  0
  -35.1474   -5.2994  145.1449 C   0  0  0  0  0  0  0  0  0  0  0  0
  -33.2237   -4.6267  145.1155 C   0  0  0  0  0  0  0  0  0  0  0  0
  -36.8466   -5.0557  143.7722 O   0  0  0  0  0  0  0  0  0  0  0  0
  -39.0496   -4.3780  141.8555 C   0  0  0  0  0  0  0  0  0  0  0  0
  -34.0638   -5.8187  147.4497 Si  0  0  0  0  0  4  0  0  0  0  0  0
  -34.3360   -4.5901  146.1184 N   0  0  0  0  0  0  0  0  0  0  0  0
  -32.4796   -5.9240  144.7799 C   0  0  0  0  0  0  0  0  0  0  0  0
  -31.9578   -6.3724  146.1160 C   0  0  0  0  0  0  0  0  0  0  0  0
  -33.1526   -7.1484  146.4730 C   0  0  0  0  0  0  0  0  0  0  0  0
  -38.8948   -2.4607  140.5399 C   0  0  0  0  0  0  0  0  0  0  0  0
  -33.9379   -5.7345  144.3192 C   0  0  0  0  0  0  0  0  0  0  0  0
  -30.7166   -5.9637  146.8886 C   0  0  0  0  0  0  0  0  0  0  0  0
  -39.5609   -1.5340  141.3579 O   0  0  0  0  0  0  0  0  0  0  0  0
  -37.8372   -5.3104  141.5959 C   0  0  0  0  0  0  0  0  0  0  0  0
  -33.5120   -7.0707  144.9402 C   0  0  0  0  0  0  0  0  0  0  0  0
  -30.6734   -7.1946  145.9959 C   0  0  0  0  0  0  0  0  0  0  0  0
  -39.4889   -3.7355  140.6707 O   0  0  0  0  0  0  0  0  0  0  0  0
  -36.6038   -4.8735  142.3985 C   0  0  0  0  0  0  0  0  0  0  0  0
  3  2  1  0
  5  2  1  0
  8  3  1  0
  8  4  1  0
  8  7  1  0
  9  4  1  0
 10  9  1  0
 11  7  1  0
 11 10  1  0
 13  3  1  0
 13  4  1  0
 13  9  1  0
 14 10  1  0
 15 12  1  0
 16  1  1  0
 16  6  1  0
 17  9  1  0
 17 11  1  0
 17 13  1  0
 18 10  1  0
 18 14  1  0
 19  6  1  0
 19 12  1  0
 20  5  1  0
 20 16  1  0
M  END
$$$$

     RDKit          3D

 18 21  0  0  0  0  0  0  0  0999 V2000
  -29.7857  -18.1158  150.5901 O   0  0  0  0  0  0  0  0  0  0  0  0
  -28.7181  -17.6755  152.7676 C   0  0  0  0  0  0  0  0  0  0  0  0
  -28.6078  -19.2155  152.8253 C   0  0  0  0  0  0  0  0  0  0  0  0
  -28.0158  -16.4567  150.5945 C   0  0  0  0  0  0  0  0  0  0  0  0
  -26.1137  -16.5537  148.7953 C   0  0  0  0  0  0  0  0  0  0  0  0
  -25.2028  -15.6375  149.6690 C   0  0  0  0  0  0  0  0  0  0  0  0
  -27.4648  -19.8657  153.5479 C   0  0  0  0  0  0  0  0  0  0  0  0
  -24.4870  -16.2948  150.8223 C   0  0  0  0  0  0  0  0  0  0  0  0
  -24.5678  -17.7373  151.0165 C   0  0  0  0  0  0  0  0  0  0  0  0
  -25.5447  -18.1611  151.8167 C   0  0  0  0  0  0  0  0  0  0  0  0
  -26.5952  -19.0719  151.2287 C   0  0  0  0  0  0  0  0  0  0  0  0
  -29.2008  -17.1070  151.3835 C   0  0  0  0  0  0  0  0  0  0  0  0
  -27.5586  -20.0068  152.0095 C   0  0  0  0  0  0  0  0  0  0  0  0
  -27.3331  -17.2907  149.4627 C   0  0  0  0  0  0  0  0  0  0  0  0
  -30.2199  -16.0670  151.6125 N   0  0  0  0  0  0  0  0  0  0  0  0
  -26.1954  -20.4970  151.4916 C   0  0  0  0  0  0  0  0  0  0  0  0
  -27.0386  -18.7916  149.7792 C   0  0  0  0  0  0  0  0  0  0  0  0
  -23.9227  -15.5705  151.6927 O   0  0  0  0  0  0  0  0  0  0  0  0
  3  2  1  0
  6  5  1  0
  7  3  1  0
  8  6  1  0
  9  8  1  0
 10  9  2  3
 11 10  1  0
 12  1  1  0
 12  2  1  0
 12  4  1  0
 13  3  1  0
 13  7  1  0
 13 11  1  0
 14  4  1  0
 14  5  1  0
 15 12  1  0
 16 11  1  0
 16 13  1  0
 17 11  1  0
 17 14  1  0
 18  8  2  0
M  END
$$$$

     RDKit          3D

 21 24  0  0  0  0  0  0  0  0999 V2000
  -23.4562  -14.5506  136.2209 C   0  0  0  0  0  0  0  0  0  0  0  0
  -23.0756  -13.8189  137.5369 C   0  0  0  0  0  0  0  0  0  0  0  0
  -23.9914  -12.7625  138.2168 C   0  0  0  0  0  0  0  0  0  0  0  0
  -25.4965  -12.7308  137.8036 C   0  0  0  0  0  0  0  0  0  0  0  0
  -23.6315  -16.0840  136.2630 C   0  0  0  0  0  0  0  0  0  0  0  0
  -24.4948  -16.7018  135.1366 C   0  0  0  0  0  0  0  0  0  0  0  0
  -26.0443  -11.2734  137.5197 C   0  0  0  0  0  0  0  0  0  0  0  0
  -22.3208  -15.4711  135.7696 C   0  0  0  0  0  0  0  0  0  0  0  0
  -22.8958  -12.3136  137.2650 C   0  0  0  0  0  0  0  0  0  0  0  0
  -26.2488  -13.4508  138.9513 C   0  0  0  0  0  0  0  0  0  0  0  0
  -25.0184  -18.1020  135.5267 C   0  0  0  0  0  0  0  0  0  0  0  0
  -27.4346  -10.9219  138.1425 C   0  0  0  0  0  0  0  0  0  0  0  0
  -27.3395  -10.3354  139.5705 C   0  0  0  0  0  0  0  0  0  0  0  0
  -25.7146  -18.7890  134.3331 C   0  0  0  0  0  0  0  0  0  0  0  0
  -25.9808  -14.9563  139.0146 C   0  0  0  0  0  0  0  0  0  0  0  0
  -26.6536  -19.9713  134.6794 C   0  0  0  0  0  0  0  0  0  0  0  0
  -27.3327  -14.4438  138.5619 C   0  0  0  0  0  0  0  0  0  0  0  0
  -27.6939  -19.7374  135.8154 C   0  0  0  0  0  0  0  0  0  0  0  0
  -28.3233  -18.3667  135.9882 C   0  0  0  0  0  0  0  0  0  0  0  0
  -29.1091  -19.4695  135.2999 C   0  0  0  0  0  0  0  0  0  0  0  0
  -25.6641  -21.4505  135.1132 S   0  0  0  0  0  0  0  0  0  0  0  0
  2  1  1  0
  3  2  1  0
  4  3  1  0
  5  1  1  0
  6  5  1  0
  7  4  1  0
  8  1  1  0
  8  5  1  0
  9  2  1  0
  9  3  1  0
 10  4  1  0
 11  6  1  0
 12  7  1  0
 13 12  1  0
 14 11  1  0
 15 10  1  0
 16 14  1  0
 17 10  1  0
 17 15  1  0
 18 16  1  0
 19 18  1  0
 20 18  1  0
 20 19  1  0
 21 16  1  0
M  END
$$$$

     RDKit          3D

 21 22  0  0  0  0  0  0  0  0999 V2000
  -23.8883   -6.0379  138.6446 O   0  0  0  0  0  0  0  0  0  0  0  0
  -27.0833   -2.8083  138.5083 C   0  0  0  0  0  0  0  0  0  0  0  0
  -24.2487   -1.9707  137.9455 C   0  0  0  0  0  0  0  0  0  0  0  0
  -26.0383   -3.5773  137.9788 C   0  0  0  0  0  0  0  0  0  0  0  0
  -24.5769   -4.9757  139.1455 C   0  0  0  0  0  0  0  0  0  0  0  0
  -24.1814   -7.2863  139.9400 Cl  0  0  0  0  0  0  0  0  0  0  0  0
  -23.2370   -3.6548  140.4739 C   0  0  0  0  0  0  0  0  0  0  0  0
  -23.8794   -3.0127  137.9684 C   0  0  0  0  0  0  0  0  0  0  0  0
  -25.7169   -2.4697  139.5797 C   0  0  0  0  0  0  0  0  0  0  0  0
  -22.4081   -1.8218  138.1735 C   0  0  0  0  0  0  0  0  0  0  0  0
  -20.1813   -2.7358  140.7429 C   0  0  0  0  0  0  0  0  0  0  0  0
  -19.7827   -4.7003  141.7105 C   0  0  0  0  0  0  0  0  0  0  0  0
  -20.3141   -6.4382  140.3528 C   0  0  0  0  0  0  0  0  0  0  0  0
  -20.6538   -6.4527  138.2044 C   0  0  0  0  0  0  0  0  0  0  0  0
  -19.6656   -8.1497  140.7580 C   0  0  0  0  0  0  0  0  0  0  0  0
  -21.6510   -7.4079  134.9549 C   0  0  0  0  0  0  0  0  0  0  0  0
  -21.5233   -1.5081  139.6661 C   0  0  0  0  0  0  0  0  0  0  0  0
  -19.0192   -5.3152  135.3204 C   0  0  0  0  0  0  0  0  0  0  0  0
  -22.0209   -7.8157  136.5534 C   0  0  0  0  0  0  0  0  0  0  0  0
  -20.1126   -6.8910  136.2767 C   0  0  0  0  0  0  0  0  0  0  0  0
  -20.2176   -8.4779  136.6673 C   0  0  0  0  0  0  0  0  0  0  0  0
  4  2  1  0
  4  3  1  0
  5  1  1  0
  5  4  1  0
  6  1  1  0
  7  5  1  0
  9  2  1  0
  9  8  1  0
 10  3  1  0
 10  8  1  0
 12 11  1  0
 13 12  1  0
 14 13  1  0
 15 13  1  0
 17 10  1  0
 17 11  1  0
 19 16  1  0
 20 14  1  0
 20 16  1  0
 20 18  1  0
 21 19  1  0
 21 20  1  0
M  END
$$$$

     RDKit          3D

 21 26  0  0  0  0  0  0  0  0999 V2000
  -26.9826  -16.2561  139.4306 O   0  0  0  0  0  0  0  0  0  0  0  0
  -27.7102  -16.1896  138.1991 C   0  0  0  0  0  0  0  0  0  0  0  0
  -30.2439  -15.9752  138.9835 C   0  0  0  0  0  0  0  0  0  0  0  0
  -29.5910  -15.2442  136.7084 C   0  0  0  0  0  0  0  0  0  0  0  0
  -29.6380  -16.5001  136.1195 F   0  0  0  0  0  0  0  0  0  0  0  0
  -26.8579  -17.4500  141.5790 C   0  0  0  0  0  0  0  0  0  0  0  0
  -30.9739  -15.1611  140.0325 C   0  0  0  0  0  0  0  0  0  0  0  0
  -29.0447  -15.3351  138.1759 C   0  0  0  0  0  0  0  0  0  0  0  0
  -27.7348  -16.9282  140.4294 C   0  0  0  0  0  0  0  0  0  0  0  0
  -30.1153  -16.3540  140.4839 C   0  0  0  0  0  0  0  0  0  0  0  0
  -28.7466  -14.0509  138.6258 F   0  0  0  0  0  0  0  0  0  0  0  0
  -29.7632  -16.1857  141.9752 C   0  0  0  0  0  0  0  0  0  0  0  0
  -25.6125  -18.2740  141.2841 C   0  0  0  0  0  0  0  0  0  0  0  0
  -28.7269  -15.8970  140.9497 C   0  0  0  0  0  0  0  0  0  0  0  0
  -26.7289  -16.6082  142.6901 O   0  0  0  0  0  0  0  0  0  0  0  0
  -26.8142  -18.9548  141.9402 C   0  0  0  0  0  0  0  0  0  0  0  0
  -27.4005  -20.1440  141.1085 C   0  0  0  0  0  0  0  0  0  0  0  0
  -28.9925  -20.2494  141.2384 C   0  0  0  0  0  0  0  0  0  0  0  0
  -28.7353  -20.3875  139.7911 B   0  0  0  0  0  0  0  0  0  0  0  0
  -27.9102  -21.2513  138.7438 C   0  0  0  0  0  0  0  0  0  0  0  0
  -27.2271  -20.1982  139.4893 C   0  0  0  0  0  0  0  0  0  0  0  0
  2  1  1  0
  5  4  1  0
  7  3  1  0
  8  2  1  0
  8  3  1  0
  8  4  1  0
  9  1  1  0
  9  6  1  0
 10  3  1  0
 10  7  1  0
 11  8  1  0
 12 10  1  0
 13  6  1  0
 14  9  1  0
 14 10  1  0
 14 12  1  0
 15  6  1  0
 16  6  1  0
 16 13  1  0
 17 16  1  0
 18 17  1  0
 19 18  1  0
 20 19  1  0
 21 17  1  0
 21 19  1  0
 21 20  1  0
M  END
$$$$

     RDKit          3D

 11 14  0  0  0  0  0  0  0  0999 V2000
  -24.6811   -7.5769  143.8811 N   0  0  0  0  0  0  0  0  0  0  0  0
  -26.5882   -6.4238  142.6733 C   0  0  0  0  0  0  0  0  0  0  0  0
  -26.1736   -6.2627  141.2725 N   0  0  0  0  0  0  0  0  0  0  0  0
  -26.3100   -9.1429  142.7593 C   0  0  0  0  0  0  0  0  0  0  0  0
  -27.2799   -5.9375  140.3643 C   0  0  0  0  0  0  0  0  0  0  0  0
  -28.3251   -8.9484  143.5329 C   0  0  0  0  0  0  0  0  0  0  0  0
  -27.7081   -9.5104  142.2671 C   0  0  0  0  0  0  0  0  0  0  0  0
  -27.3818   -6.8760  139.3245 O   0  0  0  0  0  0  0  0  0  0  0  0
  -26.0076   -7.7319  143.2653 C   0  0  0  0  0  0  0  0  0  0  0  0
  -27.6395   -6.4776  141.6628 C   0  0  0  0  0  0  0  0  0  0  0  0
  -26.9453   -8.6106  144.0827 C   0  0  0  0  0  0  0  0  0  0  0  0
  3  2  1  0
  5  3  1  0
  7  4  1  0
  7  6  1  0
  8  5  1  0
  9  1  1  0
  9  2  1  0
  9  4  1  0
 10  2  1  0
 10  3  1  0
 10  5  1  0
 11  4  1  0
 11  6  1  0
 11  9  1  0
M  END
$$$$

     RDKit          3D

 21 23  0  0  0  0  0  0  0  0999 V2000
  -23.2751   -6.9982  137.4451 C   0  0  0  0  0  0  0  0  0  0  0  0
  -23.5172   -5.8345  138.4706 C   0  0  0  0  0  0  0  0  0  0  0  0
  -21.8200   -7.5245  137.5500 C   0  0  0  0  0  0  0  0  0  0  0  0
  -20.3045   -6.8322  135.5751 C   0  0  0  0  0  0  0  0  0  0  0  0
  -23.7321   -6.6365  135.9939 C   0  0  0  0  0  0  0  0  0  0  0  0
  -21.0190   -7.9886  136.3053 C   0  0  0  0  0  0  0  0  0  0  0  0
  -22.9705   -8.4092  138.0531 C   0  0  0  0  0  0  0  0  0  0  0  0
  -24.3863   -6.2622  139.6717 C   0  0  0  0  0  0  0  0  0  0  0  0
  -23.2013   -9.7710  137.3402 C   0  0  0  0  0  0  0  0  0  0  0  0
  -23.8276  -10.8194  138.2804 C   0  0  0  0  0  0  0  0  0  0  0  0
  -25.7896   -6.8326  139.3854 C   0  0  0  0  0  0  0  0  0  0  0  0
  -24.3100   -7.7031  135.0606 C   0  0  0  0  0  0  0  0  0  0  0  0
  -25.1952  -10.3788  138.8385 C   0  0  0  0  0  0  0  0  0  0  0  0
  -23.6811   -6.6436  140.9708 C   0  0  0  0  0  0  0  0  0  0  0  0
  -24.3818   -5.2967  140.8459 C   0  0  0  0  0  0  0  0  0  0  0  0
  -26.2072  -11.5448  139.0276 C   0  0  0  0  0  0  0  0  0  0  0  0
  -27.4626  -11.3911  138.1459 C   0  0  0  0  0  0  0  0  0  0  0  0
  -27.1481  -11.4606  136.6439 C   0  0  0  0  0  0  0  0  0  0  0  0
  -28.4004  -11.1037  135.8212 C   0  0  0  0  0  0  0  0  0  0  0  0
  -28.1365  -10.3738  134.5062 C   0  0  0  0  0  0  0  0  0  0  0  0
  -28.6641   -9.5993  135.6997 C   0  0  0  0  0  0  0  0  0  0  0  0
  2  1  1  0
  3  1  1  0
  5  1  1  0
  6  3  1  0
  6  4  1  0
  7  1  1  0
  7  3  1  0
  8  2  1  0
  9  7  1  0
 10  9  1  0
 11  8  1  0
 12  5  1  0
 13 10  1  0
 14  8  1  0
 15  8  1  0
 15 14  1  0
 16 13  1  0
 17 16  1  0
 18 17  1  0
 19 18  1  0
 20 19  1  0
 21 19  1  0
 21 20  1  0
M  END
$$$$

     RDKit          3D

 21 27  0  0  0  0  0  0  0  0999 V2000
  -21.5903    1.9787  139.5750 C   0  0  0  0  0  0  0  0  0  0  0  0
  -22.4495    3.1765  139.7726 N   0  0  0  0  0  0  0  0  0  0  0  0
  -21.2754    1.4633  140.9270 N   0  0  0  0  0  0  0  0  0  0  0  0
  -23.0947    2.2094  137.5995 N   0  0  0  0  0  0  0  0  0  0  0  0
  -20.0113    0.6934  140.7391 C   0  0  0  0  0  0  0  0  0  0  0  0
  -19.9757   -3.4008  138.3166 N   0  0  0  0  0  0  0  0  0  0  0  0
  -21.2968   -3.0378  138.8611 C   0  0  0  0  0  0  0  0  0  0  0  0
  -21.1534    0.0189  141.3166 C   0  0  0  0  0  0  0  0  0  0  0  0
  -21.0935   -2.3831  140.2116 C   0  0  0  0  0  0  0  0  0  0  0  0
  -20.1546   -2.1503  139.0888 C   0  0  0  0  0  0  0  0  0  0  0  0
  -19.7125   -2.2557  140.4269 O   0  0  0  0  0  0  0  0  0  0  0  0
  -24.0808    1.2306  139.7455 C   0  0  0  0  0  0  0  0  0  0  0  0
  -19.5012   -4.3976  139.1039 F   0  0  0  0  0  0  0  0  0  0  0  0
  -24.7625    0.2930  138.7970 N   0  0  0  0  0  0  0  0  0  0  0  0
  -25.7857   -0.0067  137.8886 N   0  0  0  0  0  0  0  0  0  0  0  0
  -25.6737    0.2939  136.6348 C   0  0  0  0  0  0  0  0  0  0  0  0
  -22.9665    2.0090  139.0454 C   0  0  0  0  0  0  0  0  0  0  0  0
  -22.7102   -0.6669  139.4648 O   0  0  0  0  0  0  0  0  0  0  0  0
  -25.2558    2.0887  140.7699 Cl  0  0  0  0  0  0  0  0  0  0  0  0
  -21.9278   -1.1082  140.5586 C   0  0  0  0  0  0  0  0  0  0  0  0
  -23.9187   -0.1230  139.9519 C   0  0  0  0  0  0  0  0  0  0  0  0
  2  1  1  0
  3  1  1  0
  5  3  1  0
  7  6  1  0
  8  3  1  0
  8  5  1  0
  9  7  1  0
 10  6  1  0
 10  7  1  0
 10  9  1  0
 11  9  1  0
 11 10  1  0
 13  6  1  0
 14 12  1  0
 15 14  1  0
 16 15  2  0
 17  1  1  0
 17  2  1  0
 17  4  1  0
 17 12  1  0
 19 12  1  0
 20  8  1  0
 20  9  1  0
 20 18  1  0
 21 12  1  0
 21 14  1  0
 21 18  1  0
M  END
$$$$

     RDKit          3D

 21 20  0  0  0  0  0  0  0  0999 V2000
  -19.6502    3.2259  136.7182 O   0  0  0  0  0  0  0  0  0  0  0  0
  -19.0565    4.0312  137.7040 C   0  0  0  0  0  0  0  0  0  0  0  0
  -17.6362    3.5386  137.9855 C   0  0  0  0  0  0  0  0  0  0  0  0
  -20.7160    2.8673  139.4304 C   0  0  0  0  0  0  0  0  0  0  0  0
  -16.8449    3.7229  136.8645 F   0  0  0  0  0  0  0  0  0  0  0  0
  -21.9140    3.1707  140.4275 C   0  0  0  0  0  0  0  0  0  0  0  0
  -21.5513    3.4194  141.9282 C   0  0  0  0  0  0  0  0  0  0  0  0
  -21.0373    4.8118  142.4240 C   0  0  0  0  0  0  0  0  0  0  0  0
  -21.5091    6.0267  141.6054 C   0  0  0  0  0  0  0  0  0  0  0  0
  -19.9595    4.1448  138.9588 C   0  0  0  0  0  0  0  0  0  0  0  0
  -22.9855    2.0359  140.3281 C   0  0  0  0  0  0  0  0  0  0  0  0
  -19.5242    4.8507  142.7067 C   0  0  0  0  0  0  0  0  0  0  0  0
  -24.8950    2.0791  142.0971 C   0  0  0  0  0  0  0  0  0  0  0  0
  -19.1174    3.8479  144.1322 Cl  0  0  0  0  0  0  0  0  0  0  0  0
  -25.6096    3.2331  142.8225 C   0  0  0  0  0  0  0  0  0  0  0  0
  -18.6580    1.8837  140.7610 C   0  0  0  0  0  0  0  0  0  0  0  0
  -19.8326    1.6389  139.8043 C   0  0  0  0  0  0  0  0  0  0  0  0
  -27.0325    3.4702  142.2830 C   0  0  0  0  0  0  0  0  0  0  0  0
  -24.4352    2.4746  140.6739 C   0  0  0  0  0  0  0  0  0  0  0  0
  -28.7647    1.7130  143.3129 C   0  0  0  0  0  0  0  0  0  0  0  0
  -27.9859    2.5004  142.8378 C   0  0  0  0  0  0  0  0  0  0  0  0
  2  1  1  0
  3  2  1  0
  5  3  1  0
  6  4  1  0
  7  6  1  0
  8  7  1  0
  9  8  1  0
 10  2  1  0
 10  4  1  0
 11  6  1  0
 12  8  1  0
 14 12  1  0
 15 13  1  0
 17  4  1  0
 17 16  1  0
 18 15  1  0
 19 11  1  0
 19 13  1  0
 21 18  1  0
 21 20  3  0
M  END
$$$$

     RDKit          3D

 21 23  0  0  0  0  0  0  0  0999 V2000
  -25.6056  -10.3926  149.0647 O   0  0  0  0  0  0  0  0  0  0  0  0
  -24.8531  -10.9947  148.2537 C   0  0  0  0  0  0  0  0  0  0  0  0
  -23.9053  -10.2442  147.5450 O   0  0  0  0  0  0  0  0  0  0  0  0
  -24.9414  -12.5046  148.1682 C   0  0  0  0  0  0  0  0  0  0  0  0
  -26.2083  -12.9487  147.4178 C   0  0  0  0  0  0  0  0  0  0  0  0
  -26.1395  -12.6489  145.9249 C   0  0  0  0  0  0  0  0  0  0  0  0
  -23.6404  -13.1300  147.5919 C   0  0  0  0  0  0  0  0  0  0  0  0
  -23.3316  -14.5774  148.1086 C   0  0  0  0  0  0  0  0  0  0  0  0
  -23.5413  -12.9258  146.0527 C   0  0  0  0  0  0  0  0  0  0  0  0
  -24.8628  -13.2015  145.2769 C   0  0  0  0  0  0  0  0  0  0  0  0
  -22.9094  -11.5580  145.6982 C   0  0  0  0  0  0  0  0  0  0  0  0
  -23.2995  -14.4885  149.5222 O   0  0  0  0  0  0  0  0  0  0  0  0
  -24.3434  -15.5665  147.6342 N   0  0  0  0  0  0  0  0  0  0  0  0
  -23.9280  -16.3853  146.4762 C   0  0  0  0  0  0  0  0  0  0  0  0
  -25.1210  -16.3160  148.6578 C   0  0  0  0  0  0  0  0  0  0  0  0
  -23.6924  -10.3152  146.1357 C   0  0  0  0  0  0  0  0  0  0  0  0
  -24.6064  -17.7347  149.0218 C   0  0  0  0  0  0  0  0  0  0  0  0
  -23.1297  -17.8762  149.4473 C   0  0  0  0  0  0  0  0  0  0  0  0
  -22.8240  -17.4459  150.8891 C   0  0  0  0  0  0  0  0  0  0  0  0
  -22.8440  -15.9309  151.1006 C   0  0  0  0  0  0  0  0  0  0  0  0
  -22.3263  -15.2620  149.9709 O   0  0  0  0  0  0  0  0  0  0  0  0
  2  1  2  0
  3  2  1  0
  4  2  1  0
  5  4  1  0
  6  5  1  0
  7  4  1  0
  8  7  1  0
  9  7  1  0
 10  6  1  0
 10  9  1  0
 11  9  1  0
 12  8  1  0
 13  8  1  0
 14 13  1  0
 15 13  1  0
 16  3  1  0
 16 11  1  0
 17 15  1  0
 18 17  1  0
 19 18  1  0
 20 19  1  0
 21 12  1  0
 21 20  1  0
M  END
$$$$

     RDKit          3D

 21 23  0  0  0  0  0  0  0  0999 V2000
  -28.8092  -17.1729  144.6309 O   0  0  0  0  0  0  0  0  0  0  0  0
  -27.4488  -17.2512  144.2494 C   0  0  0  0  0  0  0  0  0  0  0  0
  -26.8229  -15.9924  144.2360 O   0  0  0  0  0  0  0  0  0  0  0  0
  -27.3568  -16.5380  146.5149 C   0  0  0  0  0  0  0  0  0  0  0  0
  -26.1337  -18.4037  147.5823 O   0  0  0  0  0  0  0  0  0  0  0  0
  -27.8789  -17.6326  145.6027 C   0  0  0  0  0  0  0  0  0  0  0  0
  -27.0742  -15.4071  145.4981 C   0  0  0  0  0  0  0  0  0  0  0  0
  -24.6900  -16.5149  147.0072 C   0  0  0  0  0  0  0  0  0  0  0  0
  -23.6513  -15.6443  147.8610 C   0  0  0  0  0  0  0  0  0  0  0  0
  -24.2203  -14.5824  148.9285 C   0  0  0  0  0  0  0  0  0  0  0  0
  -26.1490  -16.9901  147.4775 C   0  0  0  0  0  0  0  0  0  0  0  0
  -24.2048  -14.7545  150.4281 C   0  0  0  0  0  0  0  0  0  0  0  0
  -26.5231  -16.5416  148.8984 C   0  0  0  0  0  0  0  0  0  0  0  0
  -22.6765  -14.9054  146.8526 C   0  0  0  0  0  0  0  0  0  0  0  0
  -23.6666  -15.9157  151.3095 C   0  0  0  0  0  0  0  0  0  0  0  0
  -25.2002  -13.4734  148.4671 C   0  0  0  0  0  0  0  0  0  0  0  0
  -23.3039  -13.8798  145.8714 C   0  0  0  0  0  0  0  0  0  0  0  0
  -22.8689  -16.5795  148.5815 O   0  0  0  0  0  0  0  0  0  0  0  0
  -23.1568  -13.9477  149.7691 N   0  0  0  0  0  0  0  0  0  0  0  0
  -23.1439  -14.2280  144.3764 C   0  0  0  0  0  0  0  0  0  0  0  0
  -22.3573  -16.3382  151.0260 O   0  0  0  0  0  0  0  0  0  0  0  0
  2  1  1  0
  3  2  1  0
  6  1  1  0
  6  2  1  0
  6  4  1  0
  7  3  1  0
  7  4  1  0
  9  8  1  0
 10  9  1  0
 11  4  1  0
 11  5  1  0
 11  8  1  0
 12 10  1  0
 13 11  1  0
 14  9  1  0
 15 12  1  0
 16 10  1  0
 17 14  1  0
 18  9  1  0
 19 10  1  0
 19 12  1  0
 20 17  1  0
 21 15  1  0
M  END
$$$$

     RDKit          3D

 11 11  0  0  0  0  0  0  0  0999 V2000
  -32.1194  -10.1784  142.8279 N   0  0  0  0  0  2  0  0  0  0  0  0
  -32.4126   -8.9944  143.6286 C   0  0  0  0  0  0  0  0  0  0  0  0
  -31.5537   -8.9713  144.8256 N   0  0  0  0  0  0  0  0  0  0  0  0
  -33.8161   -9.0272  144.0233 N   0  0  0  0  0  2  0  0  0  0  0  0
  -31.5907   -7.6664  145.5291 C   0  0  0  0  0  0  0  0  0  0  0  0
  -30.5375   -6.6682  144.9801 C   0  0  0  0  0  0  0  0  0  0  0  0
  -29.0862   -6.9755  145.3964 C   0  0  0  0  0  0  0  0  0  0  0  0
  -28.1168   -5.9721  144.7779 C   0  0  0  0  0  0  0  0  0  0  0  0
  -31.4706   -7.8126  147.0670 C   0  0  0  0  0  0  0  0  0  0  0  0
  -32.2858   -8.9375  147.6913 C   0  0  0  0  0  0  0  0  0  0  0  0
  -30.7677   -9.0391  147.6366 C   0  0  0  0  0  0  0  0  0  0  0  0
  2  1  1  0
  3  2  1  0
  4  2  1  0
  5  3  1  0
  6  5  1  0
  7  6  1  0
  8  7  1  0
  9  5  1  0
 10  9  1  0
 11  9  1  0
 11 10  1  0
M  RAD  2   1   2   4   2
M  END
$$$$

     RDKit          3D

 21 22  0  0  0  0  0  0  0  0999 V2000
  -27.0857   -3.8151  138.8333 N   0  0  0  0  0  2  0  0  0  0  0  0
  -27.1555   -2.6064  139.4216 C   0  0  0  0  0  0  0  0  0  0  0  0
  -28.1634   -1.7831  139.0654 N   0  0  0  0  0  0  0  0  0  0  0  0
  -27.6164   -4.0234  137.6125 C   0  0  0  0  0  0  0  0  0  0  0  0
  -27.3862   -2.7545  137.9802 N   0  0  0  0  0  2  0  0  0  0  0  0
  -28.7119   -3.2035  137.0495 C   0  0  0  0  0  0  0  0  0  0  0  0
  -28.3459   -0.5124  139.7861 C   0  0  0  0  0  0  0  0  0  0  0  0
  -27.8204   -3.8494  136.1056 F   0  0  0  0  0  0  0  0  0  0  0  0
  -27.0206    0.0811  140.1087 C   0  0  0  0  0  0  0  0  0  0  0  0
  -27.7413   -3.8687  136.5670 F   0  0  0  0  0  0  0  0  0  0  0  0
  -26.2567   -0.6916  140.9097 C   0  0  0  0  0  0  0  0  0  0  0  0
  -24.8405   -0.4651  140.9156 C   0  0  0  0  0  0  0  0  0  0  0  0
  -26.4220   -1.2153  140.5650 C   0  0  0  0  0  0  0  0  0  0  0  0
  -26.2536   -1.0906  139.2685 C   0  0  0  0  0  0  0  0  0  0  0  0
  -28.2634   -0.6322  140.0839 C   0  0  0  0  0  0  0  0  0  0  0  0
  -27.4394    0.9528  139.4699 C   0  0  0  0  0  0  0  0  0  0  0  0
  -23.6965    0.4061  140.9768 C   0  0  0  0  0  0  0  0  0  0  0  0
  -22.9963   -0.7359  140.2986 C   0  0  0  0  0  0  0  0  0  0  0  0
  -23.2534   -0.3484  141.7130 C   0  0  0  0  0  0  0  0  0  0  0  0
  -21.4168   -0.8520  140.3519 C   0  0  0  0  0  0  0  0  0  0  0  0
  -20.6662    0.5688  139.2515 Se  0  0  0  0  0  2  0  0  0  0  0  0
  2  1  1  0
  3  2  1  0
  4  1  1  0
  5  2  1  0
  5  4  1  0
  6  4  1  0
  7  3  1  0
  8  6  1  0
 10  4  1  0
 11  9  1  0
 12 11  1  0
 13 11  1  0
 14  2  1  0
 14 13  1  0
 15  7  1  0
 15  9  1  0
 16  9  2  0
 17 12  1  0
 19 17  1  0
 19 18  1  0
 20 18  1  0
 21 20  1  0
M  RAD  2   1   2   5   2
M  END
$$$$

     RDKit          3D

 21 24  0  0  0  0  0  0  0  0999 V2000
  -27.0628   -4.9524  150.8785 C   0  0  0  0  0  0  0  0  0  0  0  0
  -25.9723   -5.2525  151.9863 C   0  0  0  0  0  0  0  0  0  0  0  0
  -27.3247   -4.4745  153.7610 C   0  0  0  0  0  0  0  0  0  0  0  0
  -26.6619   -5.0916  149.4439 N   0  0  0  0  0  0  0  0  0  0  0  0
  -26.6092   -5.5718  153.2168 O   0  0  0  0  0  0  0  0  0  0  0  0
  -26.2153   -6.4212  148.9125 C   0  0  0  0  0  0  0  0  0  0  0  0
  -26.5749   -3.8478  148.6302 C   0  0  0  0  0  0  0  0  0  0  0  0
  -24.0795   -4.3458  149.0330 C   0  0  0  0  0  0  0  0  0  0  0  0
  -27.4569   -7.2132  148.4248 C   0  0  0  0  0  0  0  0  0  0  0  0
  -22.9070   -3.5760  149.6494 C   0  0  0  0  0  0  0  0  0  0  0  0
  -27.4828   -3.9046  147.3939 C   0  0  0  0  0  0  0  0  0  0  0  0
  -23.7631   -5.6136  148.2422 C   0  0  0  0  0  0  0  0  0  0  0  0
  -27.5117   -8.3663  146.7698 C   0  0  0  0  0  0  0  0  0  0  0  0
  -27.7513   -7.0089  147.0674 O   0  0  0  0  0  0  0  0  0  0  0  0
  -28.3448   -9.3961  147.5017 C   0  0  0  0  0  0  0  0  0  0  0  0
  -27.2268   -8.6920  148.2342 C   0  0  0  0  0  0  0  0  0  0  0  0
  -23.3388   -2.6159  150.8091 C   0  0  0  0  0  0  0  0  0  0  0  0
  -25.0636   -6.3602  147.8330 C   0  0  0  0  0  0  0  0  0  0  0  0
  -24.6781   -2.9172  151.5606 C   0  0  0  0  0  0  0  0  0  0  0  0
  -25.1095   -3.4543  148.2916 C   0  0  0  0  0  0  0  0  0  0  0  0
  -24.7340   -4.3001  152.2610 C   0  0  0  0  0  0  0  0  0  0  0  0
  2  1  1  0
  4  1  1  0
  5  2  1  0
  5  3  1  0
  6  4  1  0
  7  4  1  0
  9  6  1  0
 10  8  1  0
 11  7  1  0
 12  8  1  0
 14  9  1  0
 14 13  1  0
 15 13  1  0
 16  9  1  0
 16 13  1  0
 16 15  1  0
 17 10  1  0
 18  6  1  0
 18 12  1  0
 19 17  1  0
 20  7  1  0
 20  8  1  0
 21  2  1  0
 21 19  1  0
M  END
$$$$

     RDKit          3D

 21 25  0  0  0  0  0  0  0  0999 V2000
  -28.7606  -16.5085  138.7230 C   0  0  0  0  0  0  0  0  0  0  0  0
  -29.8246  -17.4595  138.4143 N   0  0  0  0  0  0  0  0  0  0  0  0
  -27.8733  -17.6779  139.0458 C   0  0  0  0  0  0  0  0  0  0  0  0
  -28.9663  -18.5662  138.6361 N   0  0  0  0  0  0  0  0  0  0  0  0
  -28.5397  -20.2414  140.5178 C   0  0  0  0  0  0  0  0  0  0  0  0
  -27.3799  -20.8093  139.6501 C   0  0  0  0  0  0  0  0  0  0  0  0
  -29.2823  -21.3639  141.2820 C   0  0  0  0  0  0  0  0  0  0  0  0
  -29.8704  -22.4496  140.3433 C   0  0  0  0  0  0  0  0  0  0  0  0
  -25.6470  -18.9829  138.6541 C   0  0  0  0  0  0  0  0  0  0  0  0
  -29.7944  -23.9256  140.7502 C   0  0  0  0  0  0  0  0  0  0  0  0
  -29.5497  -19.3423  139.7494 C   0  0  0  0  0  0  0  0  0  0  0  0
  -26.3382  -18.9778  137.2996 C   0  0  0  0  0  0  0  0  0  0  0  0
  -26.3630  -17.5577  136.7395 C   0  0  0  0  0  0  0  0  0  0  0  0
  -27.4750  -17.4153  135.6885 C   0  0  0  0  0  0  0  0  0  0  0  0
  -26.0613  -19.9928  139.7554 C   0  0  0  0  0  0  0  0  0  0  0  0
  -26.3835  -15.7048  134.1310 C   0  0  0  0  0  0  0  0  0  0  0  0
  -29.0582  -24.1929  141.9867 N   0  0  0  0  0  0  0  0  0  0  0  0
  -31.0958  -23.1555  140.9238 C   0  0  0  0  0  0  0  0  0  0  0  0
  -26.5229  -17.7941  138.2560 C   0  0  0  0  0  0  0  0  0  0  0  0
  -26.5757  -14.3546  133.4431 C   0  0  0  0  0  0  0  0  0  0  0  0
  -27.5372  -15.9947  135.1043 C   0  0  0  0  0  0  0  0  0  0  0  0
  2  1  1  0
  3  1  1  0
  4  2  1  0
  4  3  1  0
  6  5  1  0
  7  5  1  0
  8  7  1  0
 10  8  1  0
 11  4  1  0
 11  5  1  0
 12  9  1  0
 13 12  1  0
 14 13  1  0
 15  6  1  0
 15  9  1  0
 17 10  1  0
 18  8  1  0
 18 10  1  0
 19  3  1  0
 19  9  1  0
 19 12  1  0
 19 13  1  0
 20 16  1  0
 21 14  1  0
 21 16  1  0
M  END
$$$$

     RDKit          3D

 12 16  0  0  0  0  0  0  0  0999 V2000
  -26.2933  -20.3100  134.9219 F   0  0  0  0  0  0  0  0  0  0  0  0
  -25.2903  -20.0447  134.0051 C   0  0  0  0  0  0  0  0  0  0  0  0
  -23.9144  -20.2534  134.5864 C   0  0  0  0  0  0  0  0  0  0  0  0
  -22.5828  -20.1447  134.0292 C   0  0  0  0  0  0  0  0  0  0  0  0
  -22.3010  -20.1631  132.5599 C   0  0  0  0  0  0  0  0  0  0  0  0
  -21.5375  -18.9748  132.0308 C   0  0  0  0  0  0  0  0  0  0  0  0
  -22.9898  -18.8207  132.4342 C   0  0  0  0  0  0  0  0  0  0  0  0
  -23.4433  -18.8531  133.9375 C   0  0  0  0  0  0  0  0  0  0  0  0
  -24.9834  -18.5829  133.8975 C   0  0  0  0  0  0  0  0  0  0  0  0
  -25.6498  -17.8643  132.6986 C   0  0  0  0  0  0  0  0  0  0  0  0
  -24.7356  -17.7524  131.4865 C   0  0  0  0  0  0  0  0  0  0  0  0
  -23.9375  -18.8975  131.3949 O   0  0  0  0  0  0  0  0  0  0  0  0
  2  1  1  0
  3  2  1  0
  4  3  1  0
  5  4  1  0
  6  5  1  0
  7  5  1  0
  7  6  1  0
  8  3  1  0
  8  4  1  0
  8  7  1  0
  9  2  1  0
  9  8  1  0
 10  9  1  0
 11 10  1  0
 12  7  1  0
 12 11  1  0
M  END
$$$$

     RDKit          3D

 11 12  0  0  0  0  0  0  0  0999 V2000
  -28.9109  -13.9917  143.0973 N   0  0  0  0  0  0  0  0  0  0  0  0
  -29.5636  -12.1062  144.3002 C   0  0  0  0  0  0  0  0  0  0  0  0
  -30.7825  -12.6653  144.9091 N   0  0  0  0  0  0  0  0  0  0  0  0
  -30.4602  -13.6248  145.9865 C   0  0  0  0  0  0  0  0  0  0  0  0
  -29.3789  -12.6711  142.9623 N   0  0  0  0  0  0  0  0  0  0  0  0
  -31.6193  -14.2300  146.6433 N   0  0  0  0  0  0  0  0  0  0  0  0
  -32.0202  -12.6540  148.5682 C   0  0  0  0  0  0  0  0  0  0  0  0
  -32.2663  -11.2384  148.8578 N   0  0  0  0  0  0  0  0  0  0  0  0
  -33.0249  -13.5011  149.2170 N   0  0  0  0  0  0  0  0  0  0  0  0
  -32.0392  -12.8903  147.0416 C   0  0  0  0  0  0  0  0  0  0  0  0
  -30.8772  -12.2453  146.3216 C   0  0  0  0  0  0  0  0  0  0  0  0
  3  2  1  0
  4  3  1  0
  5  1  1  0
  5  2  1  0
  6  4  1  0
  8  7  1  0
  9  7  1  0
 10  6  1  0
 10  7  1  0
 11  3  1  0
 11  4  1  0
 11 10  1  0
M  END
$$$$

     RDKit          3D

 21 22  0  0  0  0  0  0  0  0999 V2000
  -18.0063  -12.1290  148.8108 N   0  0  0  0  0  0  0  0  0  0  0  0
  -19.2196  -12.6793  149.4556 C   0  0  0  0  0  0  0  0  0  0  0  0
  -19.3743  -12.1778  150.8322 N   0  0  0  0  0  2  0  0  0  0  0  0
  -19.3488  -11.6515  148.4307 C   0  0  0  0  0  0  0  0  0  0  0  0
  -19.9347  -13.1783  151.7508 C   0  0  0  0  0  0  0  0  0  0  0  0
  -19.7280  -12.1718  147.1044 N   0  0  0  0  0  0  0  0  0  0  0  0
  -21.1777  -12.0976  146.9084 C   0  0  0  0  0  0  0  0  0  0  0  0
  -20.9330  -11.0604  145.8439 C   0  0  0  0  0  0  0  0  0  0  0  0
  -21.2949  -11.5015  144.4946 N   0  0  0  0  0  0  0  0  0  0  0  0
  -19.4994  -11.2027  146.0841 N   0  0  0  0  0  0  0  0  0  0  0  0
  -19.3186  -14.4245  151.5702 O   0  0  0  0  0  1  0  0  0  0  0  0
  -21.4700  -13.2607  151.6004 C   0  0  0  0  0  0  0  0  0  0  0  0
  -22.1129  -14.5143  152.2628 C   0  0  0  0  0  0  0  0  0  0  0  0
  -21.9820  -14.4886  153.8066 C   0  0  0  0  0  0  0  0  0  0  0  0
  -23.5397  -14.7065  151.8691 N   0  0  0  0  0  0  0  0  0  0  0  0
  -22.5177  -15.7680  155.9619 C   0  0  0  0  0  0  0  0  0  0  0  0
  -23.6972  -15.3988  150.5713 C   0  0  0  0  0  0  0  0  0  0  0  0
  -23.7854  -16.9048  150.7993 C   0  0  0  0  0  0  0  0  0  0  0  0
  -24.3775  -13.4925  151.9543 C   0  0  0  0  0  0  0  0  0  0  0  0
  -21.2343  -15.5788  156.6449 N   0  0  0  0  0  0  0  0  0  0  0  0
  -22.3697  -15.8416  154.4320 C   0  0  0  0  0  0  0  0  0  0  0  0
  2  1  1  0
  3  2  1  0
  4  1  1  0
  4  2  1  0
  5  3  1  0
  6  4  1  0
  7  6  1  0
  8  7  1  0
  9  8  1  0
 10  6  1  0
 10  8  1  0
 11  5  1  0
 12  5  1  0
 13 12  1  0
 14 13  1  0
 15 13  1  0
 17 15  1  0
 18 17  1  0
 19 15  1  0
 20 16  1  0
 21 14  1  0
 21 16  1  0
M  RAD  2   3   2  11   2
M  END
$$$$

     RDKit          3D

 18 17  0  0  0  0  0  0  0  0999 V2000
  -28.1665  -20.4977  136.2078 O   0  0  0  0  0  0  0  0  0  0  0  0
  -27.6814  -19.2361  136.9986 P   0  0  0  0  0  0  0  0  0  0  0  0
  -28.3511  -18.3526  138.0444 O   0  0  0  0  0  0  0  0  0  0  0  0
  -28.4876  -19.3387  138.3413 O   0  0  0  0  0  0  0  0  0  0  0  0
  -28.6926  -19.6098  137.9668 O   0  0  0  0  0  0  0  0  0  0  0  0
  -28.8712  -19.0010  138.0823 N   0  0  0  0  0  0  0  0  0  0  0  0
  -26.6911  -19.9383  137.1055 C   0  0  0  0  0  0  0  0  0  0  0  0
  -26.9461  -21.2077  137.4899 N   0  0  0  0  0  0  0  0  0  0  0  0
  -27.2915  -21.4497  136.8120 O   0  0  0  0  0  0  0  0  0  0  0  0
  -25.4937  -19.1343  137.0459 O   0  0  0  0  0  0  0  0  0  0  0  0
  -26.9190  -21.4781  136.7137 C   0  0  0  0  0  0  0  0  0  0  0  0
  -28.4379  -21.2035  136.8468 H   0  0  0  0  0  0  0  0  0  0  0  0
  -28.7283  -20.2687  138.5804 H   0  0  0  0  0  0  0  0  0  0  0  0
  -29.3576  -20.3407  138.0273 H   0  0  0  0  0  0  0  0  0  0  0  0
  -27.1105  -21.6605  138.4002 H   0  0  0  0  0  0  0  0  0  0  0  0
  -27.3729  -21.4435  137.7986 H   0  0  0  0  0  0  0  0  0  0  0  0
  -26.5390  -20.7889  135.9451 H   0  0  0  0  0  0  0  0  0  0  0  0
  -26.3743  -22.3378  136.2962 H   0  0  0  0  0  0  0  0  0  0  0  0
  2  1  1  0
  3  2  1  0
  6  3  1  0
  6  4  4  0
  6  5  4  0
  7  2  1  0
  8  7  1  0
 10  7  2  0
 11  8  1  0
 11  9  1  0
  1 12  1  0
  4 13  1  0
  5 14  1  0
  8 15  1  0
  9 16  1  0
 11 17  1  0
 11 18  1  0
M  END
$$$$

     RDKit          3D

 21 22  0  0  0  0  0  0  0  0999 V2000
  -32.8947  -12.3280  151.5877 O   0  0  0  0  0  0  0  0  0  0  0  0
  -31.5114  -12.4294  151.2210 C   0  0  0  0  0  0  0  0  0  0  0  0
  -30.9516  -11.1290  151.2717 O   0  0  0  0  0  0  0  0  0  0  0  0
  -31.1719  -13.0284  149.7937 C   0  0  0  0  0  0  0  0  0  0  0  0
  -29.6403  -13.1970  149.5252 C   0  0  0  0  0  0  0  0  0  0  0  0
  -31.5123  -11.0280  148.1721 C   0  0  0  0  0  0  0  0  0  0  0  0
  -31.3214  -10.0836  148.9827 O   0  0  0  0  0  0  0  0  0  0  0  0
  -29.4579  -14.4685  148.6402 C   0  0  0  0  0  0  0  0  0  0  0  0
  -28.7871  -13.1832  150.8472 C   0  0  0  0  0  0  0  0  0  0  0  0
  -29.4904  -13.9718  151.9542 C   0  0  0  0  0  0  0  0  0  0  0  0
  -28.3024  -11.7506  151.2598 C   0  0  0  0  0  0  0  0  0  0  0  0
  -31.7649  -12.3667  148.6216 N   0  0  0  0  0  0  0  0  0  0  0  0
  -30.9221  -13.4662  152.2556 C   0  0  0  0  0  0  0  0  0  0  0  0
  -28.1308  -14.5574  147.8600 C   0  0  0  0  0  0  0  0  0  0  0  0
  -27.3776  -12.2553  146.9537 C   0  0  0  0  0  0  0  0  0  0  0  0
  -29.2285  -13.4968  145.7504 C   0  0  0  0  0  0  0  0  0  0  0  0
  -27.9599  -13.6439  146.6099 C   0  0  0  0  0  0  0  0  0  0  0  0
  -27.8756  -16.2829  147.3839 Cl  0  0  0  0  0  0  0  0  0  0  0  0
  -33.8344  -12.3615  150.5479 C   0  0  0  0  0  0  0  0  0  0  0  0
  -28.8950  -11.1250  152.5622 C   0  0  0  0  0  0  0  0  0  0  0  0
  -30.3811  -10.7258  152.4911 C   0  0  0  0  0  0  0  0  0  0  0  0
  2  1  1  0
  3  2  1  0
  4  2  1  0
  5  4  1  0
  7  6  2  0
  8  5  1  0
  9  5  1  0
 10  9  1  0
 11  9  1  0
 12  4  1  0
 12  6  1  0
 13  2  1  0
 13 10  1  0
 14  8  1  0
 17 14  1  0
 17 15  1  0
 17 16  1  0
 18 14  1  0
 19  1  1  0
 20 11  1  0
 21  3  1  0
 21 20  1  0
M  END
$$$$

     RDKit          3D

 21 24  0  0  0  0  0  0  0  0999 V2000
  -25.1233   -3.5311  141.6367 O   0  0  0  0  0  0  0  0  0  0  0  0
  -25.0995   -4.6163  140.7478 C   0  0  0  0  0  0  0  0  0  0  0  0
  -26.4459   -5.4028  140.7384 C   0  0  0  0  0  0  0  0  0  0  0  0
  -26.8104   -6.1099  142.1251 C   0  0  0  0  0  0  0  0  0  0  0  0
  -27.9595   -7.1725  141.9474 C   0  0  0  0  0  0  0  0  0  0  0  0
  -27.7649   -8.0999  143.1656 C   0  0  0  0  0  0  0  0  0  0  0  0
  -26.4532   -6.3464  139.5045 C   0  0  0  0  0  0  0  0  0  0  0  0
  -25.6326   -6.9855  142.6158 C   0  0  0  0  0  0  0  0  0  0  0  0
  -28.8937   -7.6688  144.1157 C   0  0  0  0  0  0  0  0  0  0  0  0
  -27.5293   -6.2096  145.5668 C   0  0  0  0  0  0  0  0  0  0  0  0
  -27.9104   -5.0946  144.5387 C   0  0  0  0  0  0  0  0  0  0  0  0
  -28.2547   -8.8758  145.6917 C   0  0  0  0  0  0  0  0  0  0  0  0
  -27.0717   -4.9657  143.2221 C   0  0  0  0  0  0  0  0  0  0  0  0
  -26.9247   -9.2892  146.3630 C   0  0  0  0  0  0  0  0  0  0  0  0
  -29.3360   -6.5619  141.5822 C   0  0  0  0  0  0  0  0  0  0  0  0
  -28.5642   -7.3781  145.5417 C   0  0  0  0  0  0  0  0  0  0  0  0
  -28.4494   -9.0930  144.1616 C   0  0  0  0  0  0  0  0  0  0  0  0
  -27.1645   -9.8849  147.7628 C   0  0  0  0  0  0  0  0  0  0  0  0
  -25.8639   -9.9856  148.5843 C   0  0  0  0  0  0  0  0  0  0  0  0
  -26.2413   -8.1501  143.3787 C   0  0  0  0  0  0  0  0  0  0  0  0
  -25.5013   -8.6578  149.2604 C   0  0  0  0  0  0  0  0  0  0  0  0
  2  1  1  0
  3  2  1  0
  4  3  1  0
  5  4  1  0
  6  5  1  0
  7  3  1  0
  8  4  1  0
  9  6  1  0
 11 10  1  0
 13  4  1  0
 13 11  1  0
 14 12  1  0
 15  5  1  0
 16  9  1  0
 16 10  1  0
 16 12  1  0
 17  6  1  0
 17  9  1  0
 17 12  1  0
 18 14  1  0
 19 18  1  0
 20  6  1  0
 20  8  1  0
 21 19  1  0
M  END
$$$$

     RDKit          3D

 19 19  0  0  0  0  0  0  0  0999 V2000
  -29.7422  -16.9112  141.2790 C   0  0  0  0  0  0  0  0  0  0  0  0
  -28.1756  -17.0233  141.4074 C   0  0  0  0  0  0  0  0  0  0  0  0
  -30.5960  -16.6486  139.9653 C   0  0  0  0  0  0  0  0  0  0  0  0
  -27.5737  -17.5962  140.1310 C   0  0  0  0  0  0  0  0  0  0  0  0
  -27.6242  -15.5418  141.6808 C   0  0  0  0  0  0  0  0  0  0  0  0
  -32.3933  -14.5626  137.7614 C   0  0  0  0  0  0  0  0  0  0  0  0
  -26.1735  -14.8981  141.2909 C   0  0  0  0  0  0  0  0  0  0  0  0
  -30.1710  -16.5519  142.6421 C   0  0  0  0  0  0  0  0  0  0  0  0
  -30.7421  -15.0454  142.6937 C   0  0  0  0  0  0  0  0  0  0  0  0
  -30.0797  -14.2117  143.6942 N   0  0  0  0  0  0  0  0  0  0  0  0
  -26.1494  -13.4381  141.8215 C   0  0  0  0  0  0  0  0  0  0  0  0
  -29.6050  -13.3057  138.9727 C   0  0  0  0  0  0  0  0  0  0  0  0
  -29.6000  -17.7047  143.4494 C   0  0  0  0  0  0  0  0  0  0  0  0
  -28.1511  -17.9674  142.6951 C   0  0  0  0  0  0  0  0  0  0  0  0
  -24.8655  -13.0381  142.5518 C   0  0  0  0  0  0  0  0  0  0  0  0
  -24.9495  -11.6372  143.2914 C   0  0  0  0  0  0  0  0  0  0  0  0
  -26.3827  -11.1698  143.6127 C   0  0  0  0  0  0  0  0  0  0  0  0
  -27.0982  -10.6100  142.3659 C   0  0  0  0  0  0  0  0  0  0  0  0
  -30.7378  -14.7925  138.9320 Al  0  0  0  0  0  3  0  0  0  0  0  0
  2  1  1  0
  3  1  1  0
  4  2  1  0
  5  2  1  0
  7  5  1  0
  8  1  1  0
  9  8  1  0
 10  9  1  0
 11  7  1  0
 13  8  1  0
 14  2  1  0
 14 13  1  0
 15 11  1  0
 16 15  1  0
 17 16  1  0
 18 17  1  0
 19  3  1  0
 19  6  1  0
 19 12  1  0
M  END
$$$$

     RDKit          3D

 21 25  0  0  0  0  0  0  0  0999 V2000
  -20.9706   -7.4041  137.4305 C   0  0  0  0  0  0  0  0  0  0  0  0
  -22.3451   -7.2477  138.0910 C   0  0  0  0  0  0  0  0  0  0  0  0
  -23.5245   -7.6099  137.1902 C   0  0  0  0  0  0  0  0  0  0  0  0
  -24.9709   -7.0479  137.4667 C   0  0  0  0  0  0  0  0  0  0  0  0
  -25.9624   -7.8853  136.5637 C   0  0  0  0  0  0  0  0  0  0  0  0
  -28.0775   -9.3414  136.1981 C   0  0  0  0  0  0  0  0  0  0  0  0
  -19.8619   -6.5297  138.0056 C   0  0  0  0  0  0  0  0  0  0  0  0
  -19.9173   -8.0032  138.3458 C   0  0  0  0  0  0  0  0  0  0  0  0
  -27.5023   -8.0734  136.9374 C   0  0  0  0  0  0  0  0  0  0  0  0
  -28.1260   -8.2343  138.3839 C   0  0  0  0  0  0  0  0  0  0  0  0
  -25.0352   -5.4941  137.1936 C   0  0  0  0  0  0  0  0  0  0  0  0
  -23.0606   -8.5710  138.3008 C   0  0  0  0  0  0  0  0  0  0  0  0
  -26.9614   -6.2530  139.5026 O   0  0  0  0  0  0  0  0  0  0  0  0
  -24.9167   -4.4064  139.5388 C   0  0  0  0  0  0  0  0  0  0  0  0
  -27.1481   -5.2020  138.5853 C   0  0  0  0  0  0  0  0  0  0  0  0
  -25.7630   -4.6248  138.2581 C   0  0  0  0  0  0  0  0  0  0  0  0
  -25.7286   -8.5671  134.0271 C   0  0  0  0  0  0  0  0  0  0  0  0
  -28.0033   -7.1573  139.4513 C   0  0  0  0  0  0  0  0  0  0  0  0
  -26.6755   -7.3771  133.9176 C   0  0  0  0  0  0  0  0  0  0  0  0
  -27.4046   -8.5598  139.6694 C   0  0  0  0  0  0  0  0  0  0  0  0
  -25.6674   -7.4524  135.0528 C   0  0  0  0  0  0  0  0  0  0  0  0
  2  1  1  0
  3  2  1  0
  4  3  1  0
  5  4  1  0
  7  1  1  0
  8  1  1  0
  8  7  1  0
  9  5  1  0
  9  6  1  0
 10  9  1  0
 11  4  1  0
 12  2  1  0
 12  3  1  0
 15 13  1  0
 16 11  1  0
 16 14  1  0
 16 15  1  0
 18 10  1  0
 18 13  1  0
 19 17  1  0
 20 10  1  0
 20 18  1  0
 21  5  1  0
 21 17  1  0
 21 19  1  0
M  END
$$$$

     RDKit          3D

 21 26  0  0  0  0  0  0  0  0999 V2000
  -24.6640   -5.2667  140.5635 C   0  0  0  0  0  0  0  0  0  0  0  0
  -24.8759   -6.6218  141.2828 C   0  0  0  0  0  0  0  0  0  0  0  0
  -23.2109   -4.8376  140.1711 C   0  0  0  0  0  0  0  0  0  0  0  0
  -23.7966   -8.0009  142.3601 C   0  0  0  0  0  0  0  0  0  0  0  0
  -22.7202   -7.0276  142.9237 C   0  0  0  0  0  0  0  0  0  0  0  0
  -23.7696   -7.0445  145.3069 C   0  0  0  0  0  0  0  0  0  0  0  0
  -24.1667   -8.4991  145.6539 C   0  0  0  0  0  0  0  0  0  0  0  0
  -24.2343   -7.8441  140.9501 C   0  0  0  0  0  0  0  0  0  0  0  0
  -23.8347   -6.4664  143.7940 C   0  0  0  0  0  0  0  0  0  0  0  0
  -25.4267   -8.8802  145.0276 N   0  0  0  0  0  0  0  0  0  0  0  0
  -23.9387   -4.2765  141.4917 C   0  0  0  0  0  0  0  0  0  0  0  0
  -25.0616   -3.1655  141.6860 C   0  0  0  0  0  0  0  0  0  0  0  0
  -23.1303   -9.5213  145.2108 C   0  0  0  0  0  0  0  0  0  0  0  0
  -26.1123   -3.2558  142.5335 C   0  0  0  0  0  0  0  0  0  0  0  0
  -26.5542   -4.5065  143.2795 C   0  0  0  0  0  0  0  0  0  0  0  0
  -23.0774  -10.9718  145.8372 C   0  0  0  0  0  0  0  0  0  0  0  0
  -27.7223   -5.2369  142.5046 C   0  0  0  0  0  0  0  0  0  0  0  0
  -23.8574  -10.6128  144.5402 C   0  0  0  0  0  0  0  0  0  0  0  0
  -24.8482   -7.1035  142.7890 C   0  0  0  0  0  0  0  0  0  0  0  0
  -28.0175   -4.4535  143.8157 C   0  0  0  0  0  0  0  0  0  0  0  0
  -25.3451  -10.2838  144.6826 C   0  0  0  0  0  0  0  0  0  0  0  0
  2  1  1  0
  3  1  1  0
  5  4  1  0
  7  6  1  0
  8  2  2  0
  8  4  1  0
  9  5  1  0
  9  6  1  0
 10  7  1  0
 11  1  1  0
 11  3  1  0
 12 11  1  0
 13  7  1  0
 14 12  2  3
 15 14  1  0
 16 13  1  0
 17 15  1  0
 18 13  1  0
 18 16  1  0
 19  2  1  0
 19  4  1  0
 19  9  1  0
 20 15  1  0
 20 17  1  0
 21 10  1  0
 21 18  1  0
M  END
$$$$

     RDKit          3D

 21 25  0  0  0  0  0  0  0  0999 V2000
  -31.1504   -4.9731  142.1723 O   0  0  0  0  0  0  0  0  0  0  0  0
  -29.8914   -5.2655  142.7056 C   0  0  0  0  0  0  0  0  0  0  0  0
  -29.4255   -5.1147  144.1520 C   0  0  0  0  0  0  0  0  0  0  0  0
  -28.6734   -5.3836  141.8418 C   0  0  0  0  0  0  0  0  0  0  0  0
  -28.0029   -5.3003  144.0112 N   0  0  0  0  0  0  0  0  0  0  0  0
  -27.6219   -5.4389  142.8307 N   0  0  0  0  0  0  0  0  0  0  0  0
  -29.6980   -6.5176  141.8863 C   0  0  0  0  0  0  0  0  0  0  0  0
  -30.0598   -6.0561  145.2326 C   0  0  0  0  0  0  0  0  0  0  0  0
  -31.6358   -6.0565  145.1856 C   0  0  0  0  0  0  0  0  0  0  0  0
  -31.0747   -6.1321  141.3754 C   0  0  0  0  0  0  0  0  0  0  0  0
  -32.3747   -7.3001  144.5812 C   0  0  0  0  0  0  0  0  0  0  0  0
  -29.4147   -7.4416  145.2275 C   0  0  0  0  0  0  0  0  0  0  0  0
  -33.0082   -8.2788  145.6011 C   0  0  0  0  0  0  0  0  0  0  0  0
  -32.3288   -5.3748  146.3885 C   0  0  0  0  0  0  0  0  0  0  0  0
  -32.0329   -9.2176  146.3224 C   0  0  0  0  0  0  0  0  0  0  0  0
  -32.2828   -4.6399  145.0629 C   0  0  0  0  0  0  0  0  0  0  0  0
  -29.6831   -8.4473  146.0751 C   0  0  0  0  0  0  0  0  0  0  0  0
  -30.8555   -8.5099  147.0098 C   0  0  0  0  0  0  0  0  0  0  0  0
  -33.5832   -4.4273  144.2365 C   0  0  0  0  0  0  0  0  0  0  0  0
  -34.9134   -4.7558  144.9347 C   0  0  0  0  0  0  0  0  0  0  0  0
  -36.1004   -4.3546  144.0590 C   0  0  0  0  0  0  0  0  0  0  0  0
  2  1  1  0
  3  2  1  0
  4  2  1  0
  5  3  1  0
  6  4  1  0
  6  5  2  0
  7  2  1  0
  7  4  1  0
  8  3  1  0
  9  8  1  0
 10  1  1  0
 10  7  1  0
 11  9  1  0
 12  8  1  0
 13 11  1  0
 14  9  1  0
 15 13  1  0
 16  9  1  0
 16 14  1  0
 17 12  2  3
 18 15  1  0
 18 17  1  0
 19 16  1  0
 20 19  1  0
 21 20  1  0
M  END
$$$$

     RDKit          3D

 21 24  0  0  0  0  0  0  0  0999 V2000
  -27.4696    2.0514  142.9393 N   0  0  0  0  0  0  0  0  0  0  0  0
  -27.9841    3.2644  142.7133 C   0  0  0  0  0  0  0  0  0  0  0  0
  -27.9373    4.2544  143.6384 N   0  0  0  0  0  2  0  0  0  0  0  0
  -29.1120    4.5283  144.3241 C   0  0  0  0  0  0  0  0  0  0  0  0
  -27.1473    4.2361  142.2249 N   0  0  0  0  0  2  0  0  0  0  0  0
  -30.3627    4.3744  143.6899 C   0  0  0  0  0  0  0  0  0  0  0  0
  -30.5027    4.4550  142.3039 C   0  0  0  0  0  0  0  0  0  0  0  0
  -31.2661    3.4945  141.6245 C   0  0  0  0  0  0  0  0  0  0  0  0
  -31.0037    2.1210  141.8013 C   0  0  0  0  0  0  0  0  0  0  0  0
  -29.3481    4.2723  141.4821 C   0  0  0  0  0  0  0  0  0  0  0  0
  -29.2120    3.0697  140.7827 C   0  0  0  0  0  0  0  0  0  0  0  0
  -29.8073    1.7656  141.3475 C   0  0  0  0  0  0  0  0  0  0  0  0
  -28.7271    3.3887  139.5545 C   0  0  0  0  0  0  0  0  0  0  0  0
  -30.1329    5.1907  140.7995 N   0  0  0  0  0  0  0  0  0  0  0  0
  -29.2931    3.0601  138.3086 C   0  0  0  0  0  0  0  0  0  0  0  0
  -30.5513    2.4734  138.2073 C   0  0  0  0  0  0  0  0  0  0  0  0
  -30.7593    1.1907  138.6944 C   0  0  0  0  0  0  0  0  0  0  0  0
  -31.8623    0.9226  139.4964 C   0  0  0  0  0  0  0  0  0  0  0  0
  -32.1200    1.7203  140.6071 C   0  0  0  0  0  0  0  0  0  0  0  0
  -33.4624    2.3669  140.7832 C   0  0  0  0  0  0  0  0  0  0  0  0
  -32.5540    3.1666  142.3632 C   0  0  0  0  0  0  0  0  0  0  0  0
  2  1  1  0
  3  2  1  0
  4  3  1  0
  5  2  1  0
  6  4  1  0
  7  6  1  0
  8  7  1  0
  9  8  1  0
 10  7  1  0
 11 10  1  0
 12  9  1  0
 12 11  1  0
 13 11  1  0
 14  7  1  0
 14 10  1  0
 15 13  2  3
 16 15  1  0
 17 16  1  0
 18 17  1  0
 19  9  1  0
 19 18  1  0
 20 19  1  0
 21  8  1  0
 21  9  1  0
M  RAD  2   3   2   5   2
M  END
$$$$

     RDKit          3D

 21 23  0  0  0  0  0  0  0  0999 V2000
  -29.0122  -23.9643  136.2020 C   0  0  0  0  0  0  0  0  0  0  0  0
  -30.4336  -22.4409  140.9846 C   0  0  0  0  0  0  0  0  0  0  0  0
  -28.2540  -22.9561  140.7402 C   0  0  0  0  0  0  0  0  0  0  0  0
  -30.8147  -21.9523  139.2732 C   0  0  0  0  0  0  0  0  0  0  0  0
  -28.4889  -22.4091  136.3069 C   0  0  0  0  0  0  0  0  0  0  0  0
  -29.3436  -20.0194  138.5886 C   0  0  0  0  0  0  0  0  0  0  0  0
  -27.8398  -24.1957  137.5552 C   0  0  0  0  0  0  0  0  0  0  0  0
  -27.4754  -18.4481  135.6901 C   0  0  0  0  0  0  0  0  0  0  0  0
  -26.9376  -24.0357  139.3365 C   0  0  0  0  0  0  0  0  0  0  0  0
  -27.1125  -20.0264  141.7968 N   0  0  0  0  0  0  0  0  0  0  0  0
  -28.1252  -20.3946  136.6542 C   0  0  0  0  0  0  0  0  0  0  0  0
  -29.2791  -20.0533  140.9422 C   0  0  0  0  0  0  0  0  0  0  0  0
  -28.1342  -20.5460  143.0504 C   0  0  0  0  0  0  0  0  0  0  0  0
  -28.8438  -17.7014  139.5142 C   0  0  0  0  0  0  0  0  0  0  0  0
  -28.5269  -17.4723  137.2947 C   0  0  0  0  0  0  0  0  0  0  0  0
  -32.6533  -19.0222  141.3886 C   0  0  0  0  0  0  0  0  0  0  0  0
  -27.5922  -18.9832  140.4545 N   0  0  0  0  0  0  0  0  0  0  0  0
  -28.9554  -18.9191  140.4730 O   0  0  0  0  0  0  0  0  0  0  0  0
  -25.4264  -17.8622  136.1711 C   0  0  0  0  0  0  0  0  0  0  0  0
  -30.9657  -17.8391  141.1688 C   0  0  0  0  0  0  0  0  0  0  0  0
  -25.6772  -17.0392  138.1012 O   0  0  0  0  0  0  0  0  0  0  0  0
  3  2  1  0
  4  2  1  0
  5  1  1  0
  7  1  1  0
  7  5  1  0
  9  3  1  0
  9  7  1  0
 11  5  1  0
 11  6  1  0
 11  8  1  0
 12  6  1  0
 13 10  1  0
 13 12  1  0
 15  8  1  0
 15 14  1  0
 17 10  1  0
 17 14  1  0
 18 12  1  0
 18 17  1  0
 19  8  1  0
 20 14  1  0
 20 16  2  0
 21 19  1  0
M  END
$$$$

     RDKit          3D

 11 11  0  0  0  0  0  0  0  0999 V2000
  -26.7836   -4.8028  139.6049 N   0  0  0  0  0  0  0  0  0  0  0  0
  -26.0001   -4.8439  138.3601 C   0  0  0  0  0  0  0  0  0  0  0  0
  -24.5775   -3.3519  136.9268 N   0  0  0  0  0  0  0  0  0  0  0  0
  -24.4385   -4.2130  135.7864 C   0  0  0  0  0  0  0  0  0  0  0  0
  -26.0520   -5.4118  140.6399 N   0  0  0  0  0  0  0  0  0  0  0  0
  -24.5869   -5.4597  135.8797 O   0  0  0  0  0  0  0  0  0  0  0  0
  -24.8651   -3.7807  138.3058 C   0  0  0  0  0  0  0  0  0  0  0  0
  -23.5670   -4.1821  139.0448 C   0  0  0  0  0  0  0  0  0  0  0  0
  -22.8139   -5.3628  138.4083 C   0  0  0  0  0  0  0  0  0  0  0  0
  -21.7703   -5.9856  139.3267 C   0  0  0  0  0  0  0  0  0  0  0  0
  -23.0498   -6.7399  139.0109 C   0  0  0  0  0  0  0  0  0  0  0  0
  2  1  1  0
  4  3  1  0
  5  1  1  0
  6  4  2  0
  7  2  1  0
  7  3  1  0
  8  7  1  0
  9  8  1  0
 10  9  1  0
 11  9  1  0
 11 10  1  0
M  END
$$$$

     RDKit          3D

 21 24  0  0  0  0  0  0  0  0999 V2000
  -26.5126   -3.1822  138.7990 C   0  0  0  0  0  0  0  0  0  0  0  0
  -25.1856   -2.4126  139.0676 C   0  0  0  0  0  0  0  0  0  0  0  0
  -25.2738   -0.9971  139.6961 C   0  0  0  0  0  0  0  0  0  0  0  0
  -24.8632   -1.1661  138.2273 C   0  0  0  0  0  0  0  0  0  0  0  0
  -27.1447   -0.0838  137.4229 C   0  0  0  0  0  0  0  0  0  0  0  0
  -24.1057   -0.4066  140.5292 C   0  0  0  0  0  0  0  0  0  0  0  0
  -27.4862   -3.1863  140.0001 C   0  0  0  0  0  0  0  0  0  0  0  0
  -27.9544    0.1712  136.1419 C   0  0  0  0  0  0  0  0  0  0  0  0
  -25.7904   -0.7253  137.0716 C   0  0  0  0  0  0  0  0  0  0  0  0
  -29.3582    0.6875  136.4473 C   0  0  0  0  0  0  0  0  0  0  0  0
  -29.6676   -3.6209  138.7553 C   0  0  0  0  0  0  0  0  0  0  0  0
  -29.2678   -4.7538  138.3564 O   0  0  0  0  0  0  0  0  0  0  0  0
  -28.8286   -2.7935  139.5727 N   0  0  0  0  0  0  0  0  0  0  0  0
  -23.2302   -1.4112  141.3115 C   0  0  0  0  0  0  0  0  0  0  0  0
  -21.8168   -0.8271  141.5632 C   0  0  0  0  0  0  0  0  0  0  0  0
  -21.9254    0.3331  142.5303 C   0  0  0  0  0  0  0  0  0  0  0  0
  -20.6729    1.1319  142.7955 C   0  0  0  0  0  0  0  0  0  0  0  0
  -20.8766   -1.9462  141.9579 C   0  0  0  0  0  0  0  0  0  0  0  0
  -20.0095   -0.1057  143.3504 C   0  0  0  0  0  0  0  0  0  0  0  0
  -19.8289   -0.0102  144.7365 O   0  0  0  0  0  0  0  0  0  0  0  0
  -21.2575   -0.9466  143.0259 C   0  0  0  0  0  0  0  0  0  0  0  0
  2  1  1  0
  3  2  1  0
  4  2  1  0
  4  3  1  0
  6  3  1  0
  7  1  1  0
  8  5  1  0
  9  4  1  0
  9  5  1  0
 10  8  1  0
 12 11  2  0
 13  7  1  0
 13 11  1  0
 14  6  1  0
 15 14  1  0
 16 15  1  0
 17 16  1  0
 18 15  1  0
 19 17  1  0
 20 19  1  0
 21 15  1  0
 21 16  1  0
 21 18  1  0
 21 19  1  0
M  END
$$$$

     RDKit          3D

 20 21  0  0  0  0  0  0  0  0999 V2000
  -17.5707  -19.1653  133.6879 C   0  0  0  0  0  0  0  0  0  0  0  0
  -18.7333  -17.6399  132.2077 O   0  0  0  0  0  0  0  0  0  0  0  0
  -17.4584  -18.1480  134.7490 N   0  0  0  0  0  0  0  0  0  0  0  0
  -16.5142  -18.5112  135.8059 C   0  0  0  0  0  0  0  0  0  0  0  0
  -16.2151  -19.1384  132.9187 C   0  0  0  0  0  0  0  0  0  0  0  0
  -15.6393  -17.3274  136.2569 C   0  0  0  0  0  0  0  0  0  0  0  0
  -14.3945  -18.1871  135.9930 C   0  0  0  0  0  0  0  0  0  0  0  0
  -15.6386  -16.1014  135.3740 C   0  0  0  0  0  0  0  0  0  0  0  0
  -16.2445  -19.9405  131.5835 C   0  0  0  0  0  0  0  0  0  0  0  0
  -15.0491  -19.5147  133.8606 C   0  0  0  0  0  0  0  0  0  0  0  0
  -16.3898  -21.4859  131.7277 C   0  0  0  0  0  0  0  0  0  0  0  0
  -17.8742  -23.1642  133.0111 C   0  0  0  0  0  0  0  0  0  0  0  0
  -15.2737  -19.2916  135.3821 C   0  0  0  0  0  0  0  0  0  0  0  0
  -17.1550  -22.9937  134.3707 C   0  0  0  0  0  0  0  0  0  0  0  0
  -18.0682  -23.0468  135.6227 C   0  0  0  0  0  0  0  0  0  0  0  0
  -19.2933  -22.1720  135.5546 C   0  0  0  0  0  0  0  0  0  0  0  0
  -19.4282  -21.0850  136.3477 C   0  0  0  0  0  0  0  0  0  0  0  0
  -18.7381  -18.8693  132.8147 N   0  0  0  0  0  0  0  0  0  0  0  0
  -20.2828  -19.0148  133.6789 S   0  0  0  0  0  0  0  0  0  0  0  0
  -17.8140  -21.9690  132.0565 C   0  0  0  0  0  0  0  0  0  0  0  0
  3  1  1  0
  4  3  1  0
  5  1  1  0
  6  4  1  0
  7  6  1  0
  8  6  1  0
  9  5  1  0
 10  5  1  0
 11  9  1  0
 13  4  1  0
 13  7  1  0
 13 10  1  0
 14 12  1  0
 15 14  1  0
 16 15  1  0
 17 16  2  0
 18  1  1  0
 18  2  1  0
 19 18  1  0
 20 11  1  0
 20 12  1  0
M  END
$$$$

     RDKit          3D

 21 23  0  0  0  0  0  0  0  0999 V2000
  -26.3262   -7.1819  131.0708 O   0  0  0  0  0  0  0  0  0  0  0  0
  -27.1403   -6.0280  131.1331 C   0  0  0  0  0  0  0  0  0  0  0  0
  -27.0797   -7.0054  132.2509 C   0  0  0  0  0  0  0  0  0  0  0  0
  -26.2208   -6.5703  133.4411 C   0  0  0  0  0  0  0  0  0  0  0  0
  -28.3909   -6.1161  130.2313 C   0  0  0  0  0  0  0  0  0  0  0  0
  -29.4514   -5.0648  130.6622 C   0  0  0  0  0  0  0  0  0  0  0  0
  -28.0112   -6.0276  128.7229 C   0  0  0  0  0  0  0  0  0  0  0  0
  -29.6049   -6.1222  127.5868 Br  0  0  0  0  0  0  0  0  0  0  0  0
  -26.2318   -7.6418  134.5266 C   0  0  0  0  0  0  0  0  0  0  0  0
  -29.7799   -5.1442  132.0868 N   0  0  0  0  0  0  0  0  0  0  0  0
  -26.6843   -4.7870  126.8416 C   0  0  0  0  0  0  0  0  0  0  0  0
  -27.5581   -3.4497  128.2793 C   0  0  0  0  0  0  0  0  0  0  0  0
  -27.1904   -2.2404  129.1629 C   0  0  0  0  0  0  0  0  0  0  0  0
  -27.0224   -4.8822  128.3512 C   0  0  0  0  0  0  0  0  0  0  0  0
  -25.9647   -2.4161  129.8324 O   0  0  0  0  0  0  0  0  0  0  0  0
  -27.2080   -0.9308  128.2864 C   0  0  0  0  0  0  0  0  0  0  0  0
  -28.0467   -1.0633  126.9515 C   0  0  0  0  0  0  0  0  0  0  0  0
  -27.6946   -2.3439  126.0924 C   0  0  0  0  0  0  0  0  0  0  0  0
  -26.8459   -3.2786  126.9467 C   0  0  0  0  0  0  0  0  0  0  0  0
  -27.9236    0.2169  126.1115 C   0  0  0  0  0  0  0  0  0  0  0  0
  -28.8236    0.1696  125.0364 O   0  0  0  0  0  0  0  0  0  0  0  0
  2  1  1  0
  3  1  1  0
  3  2  1  0
  4  3  1  0
  5  2  1  0
  6  5  1  0
  7  5  1  0
  8  7  1  0
  9  4  1  0
 10  6  1  0
 13 12  1  0
 14  7  1  0
 14 11  1  0
 14 12  1  0
 15 13  1  0
 16 13  1  0
 17 16  1  0
 18 17  1  0
 19 11  1  0
 19 12  1  0
 19 18  1  0
 20 17  1  0
 21 20  1  0
M  END
$$$$

     RDKit          3D

 21 24  0  0  0  0  0  0  0  0999 V2000
  -27.0682  -13.3450  136.6595 O   0  0  0  0  0  0  0  0  0  0  0  0
  -27.5126  -14.0671  138.8635 C   0  0  0  0  0  0  0  0  0  0  0  0
  -27.1595  -15.4100  138.6434 O   0  0  0  0  0  0  0  0  0  0  0  0
  -27.2162  -13.7306  140.3641 C   0  0  0  0  0  0  0  0  0  0  0  0
  -27.5791  -12.4055  140.9626 C   0  0  0  0  0  0  0  0  0  0  0  0
  -26.7865  -13.2276  137.8431 C   0  0  0  0  0  0  0  0  0  0  0  0
  -25.7877  -13.9820  140.9113 C   0  0  0  0  0  0  0  0  0  0  0  0
  -28.2476  -14.3971  141.3027 C   0  0  0  0  0  0  0  0  0  0  0  0
  -27.5844  -11.0102  140.2710 C   0  0  0  0  0  0  0  0  0  0  0  0
  -26.9983  -12.3960  142.3655 C   0  0  0  0  0  0  0  0  0  0  0  0
  -25.8075  -13.3789  142.3481 C   0  0  0  0  0  0  0  0  0  0  0  0
  -26.1836  -10.3734  140.2104 C   0  0  0  0  0  0  0  0  0  0  0  0
  -24.4557  -12.7500  142.7604 C   0  0  0  0  0  0  0  0  0  0  0  0
  -28.3754  -13.0755  142.0777 C   0  0  0  0  0  0  0  0  0  0  0  0
  -29.7358  -12.4177  142.3435 C   0  0  0  0  0  0  0  0  0  0  0  0
  -24.4804  -12.1096  144.1668 C   0  0  0  0  0  0  0  0  0  0  0  0
  -24.4232  -10.5733  144.1191 C   0  0  0  0  0  0  0  0  0  0  0  0
  -22.9942  -10.0015  144.1117 C   0  0  0  0  0  0  0  0  0  0  0  0
  -22.2192  -10.2748  142.8037 C   0  0  0  0  0  0  0  0  0  0  0  0
  -21.3897   -9.0960  142.2931 C   0  0  0  0  0  0  0  0  0  0  0  0
  -22.6846   -9.4814  141.5885 C   0  0  0  0  0  0  0  0  0  0  0  0
  3  2  1  0
  4  2  1  0
  5  4  1  0
  6  1  2  0
  6  2  1  0
  7  4  1  0
  8  4  1  0
  9  5  1  0
 10  5  1  0
 11  7  1  0
 11 10  1  0
 12  9  1  0
 13 11  1  0
 14  5  1  0
 14  8  1  0
 14 10  1  0
 15 14  1  0
 16 13  1  0
 17 16  1  0
 18 17  1  0
 19 18  1  0
 20 19  1  0
 21 19  1  0
 21 20  1  0
M  END
$$$$

     RDKit          3D

 21 24  0  0  0  0  0  0  0  0999 V2000
  -22.2127  -20.8195  143.4330 C   0  0  0  0  0  0  0  0  0  0  0  0
  -21.3204  -19.7404  144.2129 C   0  0  0  0  0  0  0  0  0  0  0  0
  -20.1069  -18.8618  146.2240 N   0  0  0  0  0  0  0  0  0  0  0  0
  -22.5405  -22.2574  143.7517 C   0  0  0  0  0  0  0  0  0  0  0  0
  -23.3963  -20.2122  142.5912 C   0  0  0  0  0  0  0  0  0  0  0  0
  -18.8510  -20.3576  144.8070 C   0  0  0  0  0  0  0  0  0  0  0  0
  -20.6866  -21.1959  146.3268 C   0  0  0  0  0  0  0  0  0  0  0  0
  -20.2592  -20.0540  145.3720 C   0  0  0  0  0  0  0  0  0  0  0  0
  -21.7887  -23.3217  143.0007 C   0  0  0  0  0  0  0  0  0  0  0  0
  -24.5066  -19.5409  143.4472 C   0  0  0  0  0  0  0  0  0  0  0  0
  -20.3324  -22.8737  142.9660 C   0  0  0  0  0  0  0  0  0  0  0  0
  -24.4424  -17.9870  143.4283 C   0  0  0  0  0  0  0  0  0  0  0  0
  -25.6276  -17.0978  142.9595 C   0  0  0  0  0  0  0  0  0  0  0  0
  -21.4680  -21.9106  142.6474 C   0  0  0  0  0  0  0  0  0  0  0  0
  -26.8643  -17.7651  142.2982 C   0  0  0  0  0  0  0  0  0  0  0  0
  -28.0737  -16.7761  142.2045 C   0  0  0  0  0  0  0  0  0  0  0  0
  -28.3320  -16.0983  143.4792 N   0  0  0  0  0  0  0  0  0  0  0  0
  -26.4691  -18.2742  140.8896 C   0  0  0  0  0  0  0  0  0  0  0  0
  -29.3672  -17.4768  141.7624 C   0  0  0  0  0  0  0  0  0  0  0  0
  -20.7047  -18.7732  143.1544 C   0  0  0  0  0  0  0  0  0  0  0  0
  -25.4115  -17.3696  144.4414 C   0  0  0  0  0  0  0  0  0  0  0  0
  2  1  1  0
  4  1  1  0
  5  1  1  0
  8  2  1  0
  8  3  1  0
  8  6  1  0
  8  7  1  0
  9  4  1  0
 10  5  1  0
 11  9  1  0
 12 10  1  0
 13 12  1  0
 14  1  1  0
 14  4  1  0
 14  9  1  0
 14 11  1  0
 15 13  1  0
 16 15  1  0
 17 16  1  0
 18 15  1  0
 19 16  1  0
 20  2  1  0
 21 12  1  0
 21 13  1  0
M  END
$$$$

     RDKit          3D

 21 23  0  0  0  0  0  0  0  0999 V2000
  -33.1687   -7.9672  136.8913 O   0  0  0  0  0  0  0  0  0  0  0  0
  -33.6033   -7.6518  138.2098 C   0  0  0  0  0  0  0  0  0  0  0  0
  -34.6225   -6.6892  138.0665 O   0  0  0  0  0  0  0  0  0  0  0  0
  -32.4028   -6.9736  138.9166 C   0  0  0  0  0  0  0  0  0  0  0  0
  -32.8456   -6.2552  140.0391 O   0  0  0  0  0  0  0  0  0  0  0  0
  -31.1058   -7.8176  139.2415 C   0  0  0  0  0  0  0  0  0  0  0  0
  -30.6047   -7.8659  140.7346 C   0  0  0  0  0  0  0  0  0  0  0  0
  -30.9723   -9.0890  141.6326 C   0  0  0  0  0  0  0  0  0  0  0  0
  -32.0350   -8.7376  142.7160 C   0  0  0  0  0  0  0  0  0  0  0  0
  -30.6427   -9.0385  138.3902 C   0  0  0  0  0  0  0  0  0  0  0  0
  -33.3180   -8.2893  142.0688 C   0  0  0  0  0  0  0  0  0  0  0  0
  -31.3757  -10.3609  138.4908 C   0  0  0  0  0  0  0  0  0  0  0  0
  -31.3590   -9.6119  137.1555 C   0  0  0  0  0  0  0  0  0  0  0  0
  -32.8019   -9.3128  136.6764 C   0  0  0  0  0  0  0  0  0  0  0  0
  -32.8862   -9.5578  135.1646 C   0  0  0  0  0  0  0  0  0  0  0  0
  -32.6698  -10.9132  134.8785 O   0  0  0  0  0  0  0  0  0  0  0  0
  -33.9818   -9.0841  141.2198 C   0  0  0  0  0  0  0  0  0  0  0  0
  -32.2963   -9.9055  143.6803 C   0  0  0  0  0  0  0  0  0  0  0  0
  -29.7989   -9.5304  142.2754 O   0  0  0  0  0  0  0  0  0  0  0  0
  -34.8002   -8.5144  140.1107 C   0  0  0  0  0  0  0  0  0  0  0  0
  -34.1170   -8.7923  138.9009 O   0  0  0  0  0  0  0  0  0  0  0  0
  2  1  1  0
  3  2  1  0
  4  2  1  0
  5  4  1  0
  6  4  1  0
  7  6  1  0
  8  7  1  0
  9  8  1  0
 10  6  1  0
 11  9  1  0
 12 10  1  0
 13 10  1  0
 13 12  1  0
 14  1  1  0
 14 13  1  0
 15 14  1  0
 16 15  1  0
 17 11  2  3
 18  9  1  0
 19  8  1  0
 20 17  1  0
 21  2  1  0
 21 20  1  0
M  END
$$$$

     RDKit          3D

 21 24  0  0  0  0  0  0  0  0999 V2000
  -28.2275  -16.5212  144.9109 C   0  0  0  0  0  0  0  0  0  0  0  0
  -27.9182  -17.0621  143.5322 C   0  0  0  0  0  0  0  0  0  0  0  0
  -28.7368  -17.5094  141.1678 C   0  0  0  0  0  0  0  0  0  0  0  0
  -28.9870  -16.7780  142.4885 C   0  0  0  0  0  0  0  0  0  0  0  0
  -30.0241  -17.4461  143.3739 C   0  0  0  0  0  0  0  0  0  0  0  0
  -29.0755  -17.4103  145.8279 C   0  0  0  0  0  0  0  0  0  0  0  0
  -30.3292  -16.6542  146.3806 C   0  0  0  0  0  0  0  0  0  0  0  0
  -30.1636  -16.2870  147.8750 C   0  0  0  0  0  0  0  0  0  0  0  0
  -30.0555  -17.4328  148.9273 C   0  0  0  0  0  0  0  0  0  0  0  0
  -28.9190  -17.8157  144.3680 C   0  0  0  0  0  0  0  0  0  0  0  0
  -30.1417  -18.9138  148.4466 C   0  0  0  0  0  0  0  0  0  0  0  0
  -28.9451  -19.3771  147.5403 C   0  0  0  0  0  0  0  0  0  0  0  0
  -30.2470  -19.8693  149.6756 C   0  0  0  0  0  0  0  0  0  0  0  0
  -29.3935  -20.4953  146.5555 C   0  0  0  0  0  0  0  0  0  0  0  0
  -28.2051  -18.2348  146.8120 C   0  0  0  0  0  0  0  0  0  0  0  0
  -31.6879  -17.3409  146.1003 C   0  0  0  0  0  0  0  0  0  0  0  0
  -31.5155  -19.7325  150.5486 C   0  0  0  0  0  0  0  0  0  0  0  0
  -33.0269  -21.1413  149.0429 C   0  0  0  0  0  0  0  0  0  0  0  0
  -32.8526  -19.8211  149.7923 C   0  0  0  0  0  0  0  0  0  0  0  0
  -28.2189  -21.2622  145.9258 C   0  0  0  0  0  0  0  0  0  0  0  0
  -28.7128  -22.4673  145.1297 C   0  0  0  0  0  0  0  0  0  0  0  0
  2  1  1  0
  4  2  1  0
  4  3  1  0
  5  4  1  0
  6  1  1  0
  7  6  1  0
  8  7  1  0
  9  8  1  0
 10  1  1  0
 10  2  1  0
 10  5  1  0
 10  6  1  0
 11  9  1  0
 12 11  1  0
 13 11  1  0
 14 12  1  0
 15  6  1  0
 15 12  1  0
 16  7  1  0
 17 13  1  0
 19 17  1  0
 19 18  1  0
 20 14  1  0
 21 20  1  0
M  END
$$$$

     RDKit          3D

 21 21  0  0  0  0  0  0  0  0999 V2000
  -25.4538  -15.5584  151.3565 N   0  0  0  0  0  0  0  0  0  0  0  0
  -25.0637  -16.6780  151.9099 C   0  0  0  0  0  0  0  0  0  0  0  0
  -23.6579  -17.0064  152.0145 N   0  0  0  0  0  0  0  0  0  0  0  0
  -26.1384  -17.5512  152.5589 C   0  0  0  0  0  0  0  0  0  0  0  0
  -26.7146  -19.0218  150.5459 C   0  0  0  0  0  0  0  0  0  0  0  0
  -26.7597  -16.7858  153.7421 C   0  0  0  0  0  0  0  0  0  0  0  0
  -27.7677  -17.9644  154.9119 Br  0  0  0  0  0  0  0  0  0  0  0  0
  -27.6817  -19.1824  149.3565 C   0  0  0  0  0  0  0  0  0  0  0  0
  -23.1267  -18.2523  152.5698 C   0  0  0  0  0  0  0  0  0  0  0  0
  -24.6559  -14.4455  150.8204 C   0  0  0  0  0  0  0  0  0  0  0  0
  -23.7201  -14.0246  151.7793 O   0  0  0  0  0  0  0  0  0  0  0  0
  -23.9633  -14.7594  149.4713 C   0  0  0  0  0  0  0  0  0  0  0  0
  -27.0431  -19.7680  148.0730 C   0  0  0  0  0  0  0  0  0  0  0  0
  -22.1299  -17.1436  154.5233 N   0  0  0  0  0  0  0  0  0  0  0  0
  -23.0598  -18.1864  154.0988 C   0  0  0  0  0  0  0  0  0  0  0  0
  -28.0026  -19.7313  147.0483 O   0  0  0  0  0  0  0  0  0  0  0  0
  -25.7404  -19.0725  147.5888 C   0  0  0  0  0  0  0  0  0  0  0  0
  -24.9175  -15.3387  148.4055 C   0  0  0  0  0  0  0  0  0  0  0  0
  -27.2276  -17.9695  151.5421 C   0  0  0  0  0  0  0  0  0  0  0  0
  -24.6516  -16.8336  148.1739 C   0  0  0  0  0  0  0  0  0  0  0  0
  -25.8249  -17.5300  147.4627 C   0  0  0  0  0  0  0  0  0  0  0  0
  2  1  2  3
  3  2  1  0
  4  2  1  0
  6  4  1  0
  7  6  1  0
  8  5  1  0
  9  3  1  0
 10  1  1  0
 11 10  1  0
 12 10  1  0
 13  8  1  0
 15  9  1  0
 15 14  1  0
 16 13  1  0
 17 13  1  0
 18 12  1  0
 19  4  1  0
 19  5  1  0
 20 18  1  0
 21 17  1  0
 21 20  1  0
M  END
$$$$

     RDKit          3D

 21 28  0  0  0  0  0  0  0  0999 V2000
  -20.2466   -1.6823  146.5647 C   0  0  0  0  0  0  0  0  0  0  0  0
  -18.8138   -1.9430  146.1466 C   0  0  0  0  0  0  0  0  0  0  0  0
  -21.0547   -0.6198  147.3558 C   0  0  0  0  0  0  0  0  0  0  0  0
  -22.2113   -0.6799  146.4033 C   0  0  0  0  0  0  0  0  0  0  0  0
  -23.1628    0.4839  146.0249 N   0  0  0  0  0  0  0  0  0  0  0  0
  -19.0916   -0.6421  146.8537 C   0  0  0  0  0  0  0  0  0  0  0  0
  -20.9028   -0.8344  145.4951 C   0  0  0  0  0  0  0  0  0  0  0  0
  -22.6140    1.7824  145.6051 C   0  0  0  0  0  0  0  0  0  0  0  0
  -23.7412    2.8000  145.2869 C   0  0  0  0  0  0  0  0  0  0  0  0
  -23.4398    4.9474  142.9505 Mg  0  0  0  0  0  2  0  0  0  0  0  0
  -23.2342    4.2478  145.0333 C   0  0  0  0  0  0  0  0  0  0  0  0
  -22.3051   -1.4082  145.1714 C   0  0  0  0  0  0  0  0  0  0  0  0
  -24.7614    2.7639  146.3560 N   0  0  0  0  0  0  0  0  0  0  0  0
  -18.6480   -2.4148  144.6735 C   0  0  0  0  0  0  0  0  0  0  0  0
  -25.2230   -0.9286  145.0274 P   0  0  0  0  0  2  0  0  0  0  0  0
  -23.9275   -1.3585  142.7044 O   0  0  0  0  0  1  0  0  0  0  0  0
  -23.3734   -0.3764  144.8661 C   0  0  0  0  0  0  0  0  0  0  0  0
  -18.8838    0.6048  146.1011 C   0  0  0  0  0  0  0  0  0  0  0  0
  -24.1590   -0.3015  143.6338 C   0  0  0  0  0  0  0  0  0  0  0  0
  -18.4542   -1.3766  143.5144 C   0  0  0  0  0  0  0  0  0  0  0  0
  -20.3367    0.2500  146.4393 C   0  0  0  0  0  0  0  0  0  0  0  0
  2  1  1  0
  3  1  1  0
  4  3  1  0
  5  4  1  0
  6  1  1  0
  6  2  1  0
  7  1  1  0
  7  4  1  0
  8  5  1  0
  9  8  1  0
 11  9  1  0
 11 10  1  0
 12  4  1  0
 12  7  1  0
 13  9  1  0
 14  2  1  0
 17  5  1  0
 17 12  1  0
 17 15  1  0
 18  6  1  0
 19 15  1  0
 19 16  1  0
 19 17  1  0
 20 14  1  0
 21  3  1  0
 21  6  1  0
 21  7  1  0
 21 18  1  0
M  RAD  2  15   2  16   2
M  END
$$$$

     RDKit          3D

 21 25  0  0  0  0  0  0  0  0999 V2000
  -24.9018   -9.5452  135.9706 C   0  0  0  0  0  0  0  0  0  0  0  0
  -24.2679  -10.8307  136.5253 C   0  0  0  0  0  0  0  0  0  0  0  0
  -24.8808  -11.7174  137.6529 C   0  0  0  0  0  0  0  0  0  0  0  0
  -24.2665   -8.2788  136.5680 C   0  0  0  0  0  0  0  0  0  0  0  0
  -26.2082  -11.5208  138.4620 C   0  0  0  0  0  0  0  0  0  0  0  0
  -27.3450  -10.6556  137.9325 C   0  0  0  0  0  0  0  0  0  0  0  0
  -25.1604   -7.0442  136.4593 C   0  0  0  0  0  0  0  0  0  0  0  0
  -25.9996  -11.0605  139.9077 C   0  0  0  0  0  0  0  0  0  0  0  0
  -27.3734  -10.5558  140.3652 C   0  0  0  0  0  0  0  0  0  0  0  0
  -28.2723  -10.5305  139.1247 C   0  0  0  0  0  0  0  0  0  0  0  0
  -24.4689  -11.9915  135.5601 C   0  0  0  0  0  0  0  0  0  0  0  0
  -24.4212   -5.7393  136.1140 C   0  0  0  0  0  0  0  0  0  0  0  0
  -23.7588  -13.2735  135.9543 C   0  0  0  0  0  0  0  0  0  0  0  0
  -23.8899  -14.4807  135.0095 C   0  0  0  0  0  0  0  0  0  0  0  0
  -22.2539  -16.0997  136.0954 C   0  0  0  0  0  0  0  0  0  0  0  0
  -25.0361  -12.8802  136.6588 C   0  0  0  0  0  0  0  0  0  0  0  0
  -24.8431   -7.6384  137.8254 C   0  0  0  0  0  0  0  0  0  0  0  0
  -22.0415  -17.4158  136.8233 C   0  0  0  0  0  0  0  0  0  0  0  0
  -22.5622  -13.1032  136.6407 F   0  0  0  0  0  0  0  0  0  0  0  0
  -21.6096  -17.2823  135.3686 C   0  0  0  0  0  0  0  0  0  0  0  0
  -23.7325  -15.8069  135.7650 C   0  0  0  0  0  0  0  0  0  0  0  0
  2  1  1  0
  3  2  1  0
  4  1  1  0
  5  3  1  0
  6  5  1  0
  7  4  1  0
  8  5  1  0
  9  8  1  0
 10  6  1  0
 10  9  1  0
 11  2  1  0
 12  7  1  0
 13 11  1  0
 14 13  1  0
 16  3  1  0
 16 11  1  0
 16 13  1  0
 17  4  1  0
 17  7  1  0
 18 15  1  0
 19 13  1  0
 20 15  1  0
 20 18  1  0
 21 14  1  0
 21 15  1  0
M  END
$$$$

     RDKit          3D

 11 11  0  0  0  0  0  0  0  0999 V2000
  -22.8243   -7.3504  140.4431 O   0  0  0  0  0  0  0  0  0  0  0  0
  -21.6583   -6.5974  140.6229 C   0  0  0  0  0  0  0  0  0  0  0  0
  -20.7166   -6.5708  139.4229 C   0  0  0  0  0  0  0  0  0  0  0  0
  -21.1608   -7.3359  138.1613 C   0  0  0  0  0  0  0  0  0  0  0  0
  -20.3914   -7.4409  140.6330 C   0  0  0  0  0  0  0  0  0  0  0  0
  -19.9656   -7.7035  137.2702 C   0  0  0  0  0  0  0  0  0  0  0  0
  -19.4038   -6.4882  136.5120 C   0  0  0  0  0  0  0  0  0  0  0  0
  -18.1599   -6.8356  135.6785 C   0  0  0  0  0  0  0  0  0  0  0  0
  -18.4922   -7.6802  134.4392 C   0  0  0  0  0  0  0  0  0  0  0  0
  -17.2488   -7.8840  133.5657 C   0  0  0  0  0  0  0  0  0  0  0  0
  -17.5697   -8.7318  132.3381 C   0  0  0  0  0  0  0  0  0  0  0  0
  2  1  1  0
  3  2  1  0
  4  3  1  0
  5  2  1  0
  5  3  1  0
  6  4  1  0
  7  6  1  0
  8  7  1  0
  9  8  1  0
 10  9  1  0
 11 10  1  0
M  END
$$$$

     RDKit          3D

 20 22  0  0  0  0  0  0  0  0999 V2000
  -29.9095   -8.4772  133.3828 N   0  0  0  0  0  2  0  0  0  0  0  0
  -28.7930   -9.0276  133.9077 C   0  0  0  0  0  0  0  0  0  0  0  0
  -29.9704   -7.1220  133.4059 C   0  0  0  0  0  0  0  0  0  0  0  0
  -28.2431  -10.2106  133.4295 C   0  0  0  0  0  0  0  0  0  0  0  0
  -30.6805   -7.9634  134.2039 N   0  0  0  0  0  2  0  0  0  0  0  0
  -29.9750   -6.0052  134.2897 C   0  0  0  0  0  0  0  0  0  0  0  0
  -28.8142   -5.2009  134.2862 C   0  0  0  0  0  0  0  0  0  0  0  0
  -28.2820   -4.8783  133.0399 C   0  0  0  0  0  0  0  0  0  0  0  0
  -27.6783   -9.0634  133.0747 N   0  0  0  0  0  0  0  0  0  0  0  0
  -27.4781  -11.1277  134.0712 N   0  0  0  0  0  0  0  0  0  0  0  0
  -29.0434   -4.9010  131.8920 C   0  0  0  0  0  0  0  0  0  0  0  0
  -29.9965   -5.7858  135.0867 N   0  0  0  0  0  0  0  0  0  0  0  0
  -30.0166   -4.3464  134.7467 C   0  0  0  0  0  0  0  0  0  0  0  0
  -30.4003   -5.2269  131.9637 C   0  0  0  0  0  0  0  0  0  0  0  0
  -31.3646   -4.3106  132.3731 C   0  0  0  0  0  0  0  0  0  0  0  0
  -32.7392   -4.6199  132.2904 C   0  0  0  0  0  0  0  0  0  0  0  0
  -33.7075   -5.0896  133.1936 C   0  0  0  0  0  0  0  0  0  0  0  0
  -32.7999   -5.8341  132.4445 C   0  0  0  0  0  0  0  0  0  0  0  0
  -29.0744   -4.8548  131.9682 C   0  0  0  0  0  0  0  0  0  0  0  0
  -32.0336   -7.0043  131.5589 Cl  0  0  0  0  0  0  0  0  0  0  0  0
  2  1  1  0
  3  1  1  0
  4  2  1  0
  5  3  1  0
  6  3  1  0
  7  6  1  0
  8  7  1  0
  9  2  1  0
  9  4  1  0
 10  4  1  0
 12  6  1  0
 13  7  1  0
 13 12  1  0
 15 14  2  3
 16 15  1  0
 17 16  1  0
 18 16  1  0
 18 17  1  0
 19  8  1  0
 19 11  1  0
 19 14  1  0
 20 18  1  0
M  RAD  2   1   2   5   2
M  END
$$$$

     RDKit          3D

 21 28  0  0  0  0  0  0  0  0999 V2000
  -22.2485  -14.2766  147.6138 C   0  0  0  0  0  0  0  0  0  0  0  0
  -22.8901  -12.9213  147.8159 C   0  0  0  0  0  0  0  0  0  0  0  0
  -23.0966  -11.9381  146.6229 C   0  0  0  0  0  0  0  0  0  0  0  0
  -21.9413  -14.9177  146.4755 C   0  0  0  0  0  0  0  0  0  0  0  0
  -24.0499  -12.6141  145.5496 C   0  0  0  0  0  0  0  0  0  0  0  0
  -22.0452  -14.3874  145.0777 C   0  0  0  0  0  0  0  0  0  0  0  0
  -24.3999  -14.9261  144.2721 C   0  0  0  0  0  0  0  0  0  0  0  0
  -25.8002  -14.6356  143.7544 C   0  0  0  0  0  0  0  0  0  0  0  0
  -23.8590  -13.8842  143.2798 C   0  0  0  0  0  0  0  0  0  0  0  0
  -24.6769  -11.5476  144.5933 C   0  0  0  0  0  0  0  0  0  0  0  0
  -25.5883  -10.5801  145.3709 C   0  0  0  0  0  0  0  0  0  0  0  0
  -25.0222  -10.0439  146.6811 C   0  0  0  0  0  0  0  0  0  0  0  0
  -23.6889   -9.3345  146.5454 C   0  0  0  0  0  0  0  0  0  0  0  0
  -22.9492  -14.4691  142.1802 C   0  0  0  0  0  0  0  0  0  0  0  0
  -25.2818  -13.5135  142.8652 C   0  0  0  0  0  0  0  0  0  0  0  0
  -21.7039  -11.4900  146.0802 C   0  0  0  0  0  0  0  0  0  0  0  0
  -23.4383  -13.8193  144.7450 C   0  0  0  0  0  0  0  0  0  0  0  0
  -23.7761  -10.6788  147.2862 C   0  0  0  0  0  0  0  0  0  0  0  0
  -26.3962  -13.2678  143.9296 C   0  0  0  0  0  0  0  0  0  0  0  0
  -25.5381  -12.1271  143.4394 C   0  0  0  0  0  0  0  0  0  0  0  0
  -27.7986  -13.2098  143.3060 C   0  0  0  0  0  0  0  0  0  0  0  0
  2  1  1  0
  3  2  1  0
  4  1  2  0
  5  3  1  0
  6  4  1  0
  8  7  1  0
  9  7  1  0
 10  5  1  0
 11 10  1  0
 12 11  1  0
 13 12  1  0
 14  9  1  0
 15  8  1  0
 15  9  1  0
 16  3  1  0
 17  5  1  0
 17  6  1  0
 17  7  1  0
 17  9  1  0
 18  3  1  0
 18 12  1  0
 18 13  1  0
 19  8  1  0
 19 15  1  0
 20 10  1  0
 20 15  1  0
 20 19  1  0
 21 19  1  0
M  END
$$$$

     RDKit          3D

 21 25  0  0  0  0  0  0  0  0999 V2000
  -18.9132   -8.7577  137.7435 O   0  0  0  0  0  0  0  0  0  0  0  0
  -20.0546   -7.9553  137.6311 C   0  0  0  0  0  0  0  0  0  0  0  0
  -20.5277   -7.3452  138.9321 C   0  0  0  0  0  0  0  0  0  0  0  0
  -21.8520   -6.5899  139.2426 C   0  0  0  0  0  0  0  0  0  0  0  0
  -21.5255   -5.0499  139.3896 C   0  0  0  0  0  0  0  0  0  0  0  0
  -20.0679   -4.6851  139.5149 N   0  0  0  0  0  0  0  0  0  0  0  0
  -19.2132   -5.8368  139.0689 C   0  0  0  0  0  0  0  0  0  0  0  0
  -22.6296   -4.0073  139.6635 C   0  0  0  0  0  0  0  0  0  0  0  0
  -19.5227   -6.9794  139.9153 N   0  0  0  0  0  0  0  0  0  0  0  0
  -21.1524   -8.4602  136.7296 C   0  0  0  0  0  0  0  0  0  0  0  0
  -21.2144   -1.6903  139.6929 C   0  0  0  0  0  0  0  0  0  0  0  0
  -22.2092   -4.2782  138.2355 C   0  0  0  0  0  0  0  0  0  0  0  0
  -20.1122   -1.5866  140.7560 C   0  0  0  0  0  0  0  0  0  0  0  0
  -21.8432   -9.7598  137.0720 C   0  0  0  0  0  0  0  0  0  0  0  0
  -19.8377   -6.4686  137.8166 C   0  0  0  0  0  0  0  0  0  0  0  0
  -22.4373   -2.5413  140.1382 C   0  0  0  0  0  0  0  0  0  0  0  0
  -21.1187  -10.8377  136.5411 O   0  0  0  0  0  0  0  0  0  0  0  0
  -19.0923   -2.7267  140.6811 C   0  0  0  0  0  0  0  0  0  0  0  0
  -19.7245   -4.1180  140.8657 C   0  0  0  0  0  0  0  0  0  0  0  0
  -21.4206   -7.8162  135.5804 C   0  0  0  0  0  0  0  0  0  0  0  0
  -18.8078   -4.9391  141.6707 N   0  0  0  0  0  0  0  0  0  0  0  0
  2  1  1  0
  3  2  1  0
  4  3  1  0
  5  4  1  0
  6  5  1  0
  7  6  1  0
  8  5  1  0
  9  3  1  0
  9  7  1  0
 10  2  1  0
 12  5  1  0
 12  8  1  0
 13 11  1  0
 14 10  1  0
 15  2  1  0
 15  3  1  0
 15  7  1  0
 16  8  1  0
 16 11  1  0
 17 14  1  0
 18 13  1  0
 19  6  1  0
 19 18  1  0
 20 10  2  0
 21 19  1  0
M  END
$$$$

     RDKit          3D

 15 14  0  0  0  0  0  0  0  0999 V2000
  -24.7815  -14.0434  159.8882 O   0  0  0  0  0  0  0  0  0  0  0  0
  -23.6766  -15.0540  160.7966 P   0  0  0  0  0  0  0  0  0  0  0  0
  -22.8716  -15.7951  159.4416 O   0  0  0  0  0  0  0  0  0  0  0  0
  -22.4789  -13.8131  161.0434 O   0  0  0  0  0  0  0  0  0  0  0  0
  -22.3863  -13.6121  162.7645 P   0  0  0  0  0  0  0  0  0  0  0  0
  -25.3714   -9.8048  157.4726 O   0  0  0  0  0  0  0  0  0  0  0  0
  -21.0248  -14.6729  162.9663 O   0  0  0  0  0  0  0  0  0  0  0  0
  -21.4440  -12.1430  162.7272 O   0  0  0  0  0  0  0  0  0  0  0  0
  -25.6223  -12.2354  157.5818 P   0  0  0  0  0  0  0  0  0  0  0  0
  -26.9788  -12.8095  158.5349 O   0  0  0  0  0  0  0  0  0  0  0  0
  -25.5275  -10.7091  158.4143 O   0  0  0  0  0  0  0  0  0  0  0  0
  -27.5080  -14.6616  156.2891 C   0  0  0  0  0  0  0  0  0  0  0  0
  -27.7909  -15.0052  157.7506 C   0  0  0  0  0  0  0  0  0  0  0  0
  -26.9410  -14.2108  158.7744 C   0  0  0  0  0  0  0  0  0  0  0  0
  -25.5553  -14.8573  159.0248 C   0  0  0  0  0  0  0  0  0  0  0  0
  2  1  1  0
  3  2  1  0
  4  2  1  0
  5  4  1  0
  7  5  1  0
  8  5  1  0
 10  9  1  0
 11  6  1  0
 11  9  1  0
 13 12  1  0
 14 10  1  0
 14 13  1  0
 15  1  1  0
 15 14  1  0
M  END
$$$$

     RDKit          3D

 20 23  0  0  0  0  0  0  0  0999 V2000
  -31.7974   -0.5884  134.6775 O   0  0  0  0  0  0  0  0  0  0  0  0
  -29.4689    0.1119  133.7158 O   0  0  0  0  0  0  0  0  0  0  0  0
  -32.2090    0.1338  137.0391 C   0  0  0  0  0  0  0  0  0  0  0  0
  -30.6599   -1.1098  135.1129 O   0  0  0  0  0  0  0  0  0  0  0  0
  -30.8581    0.9280  137.0668 C   0  0  0  0  0  0  0  0  0  0  0  0
  -32.6568   -0.6404  135.7818 C   0  0  0  0  0  0  0  0  0  0  0  0
  -33.8285   -1.6421  135.6511 C   0  0  0  0  0  0  0  0  0  0  0  0
  -29.9636    0.4385  138.2343 C   0  0  0  0  0  0  0  0  0  0  0  0
  -33.2464    0.7371  136.1015 C   0  0  0  0  0  0  0  0  0  0  0  0
  -30.1111    1.1327  135.6931 C   0  0  0  0  0  0  0  0  0  0  0  0
  -29.7037   -0.1316  135.0328 N   0  0  0  0  0  0  0  0  0  0  0  0
  -28.9208    2.1317  135.7833 C   0  0  0  0  0  0  0  0  0  0  0  0
  -33.6019   -3.0974  136.0632 C   0  0  0  0  0  0  0  0  0  0  0  0
  -32.2774   -3.4915  136.7151 C   0  0  0  0  0  0  0  0  0  0  0  0
  -26.6539    1.2354  134.8652 C   0  0  0  0  0  0  0  0  0  0  0  0
  -34.4844   -2.1906  136.9168 C   0  0  0  0  0  0  0  0  0  0  0  0
  -29.3751   -0.9616  138.0596 C   0  0  0  0  0  0  0  0  0  0  0  0
  -25.7155    0.0366  134.9950 C   0  0  0  0  0  0  0  0  0  0  0  0
  -27.5550    1.4771  136.0726 C   0  0  0  0  0  0  0  0  0  0  0  0
  -26.3630    2.3950  135.8066 C   0  0  0  0  0  0  0  0  0  0  0  0
  4  1  1  0
  5  3  1  0
  6  1  1  0
  6  3  1  0
  7  6  1  0
  8  5  1  0
  9  3  1  0
  9  6  1  0
 10  5  1  0
 11  2  1  0
 11  4  1  0
 11 10  1  0
 12 10  1  0
 13  7  1  0
 14 13  1  0
 16  7  1  0
 16 13  1  0
 17  8  1  0
 18 15  1  0
 19 12  1  0
 19 15  1  0
 20 15  1  0
 20 19  1  0
M  END
$$$$

     RDKit          3D

 14 16  0  0  0  0  0  0  0  0999 V2000
  -31.4037   -6.3196  135.9965 O   0  0  0  0  0  0  0  0  0  0  0  0
  -30.5949   -5.3933  135.2933 C   0  0  0  0  0  0  0  0  0  0  0  0
  -30.6340   -5.3671  133.7588 C   0  0  0  0  0  0  0  0  0  0  0  0
  -30.3262   -4.1054  135.9639 C   0  0  0  0  0  0  0  0  0  0  0  0
  -30.7909   -3.7813  137.4148 C   0  0  0  0  0  0  0  0  0  0  0  0
  -31.6386   -8.5989  136.6697 C   0  0  0  0  0  0  0  0  0  0  0  0
  -29.2603   -5.1454  135.8848 N   0  0  0  0  0  0  0  0  0  0  0  0
  -31.5575   -4.8061  138.0424 O   0  0  0  0  0  0  0  0  0  0  0  0
  -29.1605   -5.8170  137.0590 F   0  0  0  0  0  0  0  0  0  0  0  0
  -32.7389   -4.0803  138.3375 C   0  0  0  0  0  0  0  0  0  0  0  0
  -31.7877   -2.6247  137.4611 C   0  0  0  0  0  0  0  0  0  0  0  0
  -32.2184   -2.7727  138.9081 C   0  0  0  0  0  0  0  0  0  0  0  0
  -31.0698   -7.6427  135.6334 C   0  0  0  0  0  0  0  0  0  0  0  0
  -33.0446   -3.3624  137.0366 C   0  0  0  0  0  0  0  0  0  0  0  0
  2  1  1  0
  3  2  1  0
  4  2  1  0
  5  4  1  0
  7  2  1  0
  7  4  1  0
  8  5  1  0
  9  7  1  0
 10  8  1  0
 11  5  1  0
 12 10  1  0
 12 11  1  0
 13  1  1  0
 13  6  1  0
 14 10  1  0
 14 11  1  0
M  END
$$$$

     RDKit          3D

 21 24  0  0  0  0  0  0  0  0999 V2000
  -30.1548   -2.7674  136.4276 C   0  0  0  0  0  0  0  0  0  0  0  0
  -30.4390   -1.4080  136.9043 N   0  0  0  0  0  0  0  0  0  0  0  0
  -31.4097   -3.4012  135.8228 C   0  0  0  0  0  0  0  0  0  0  0  0
  -29.3179   -0.8904  137.6994 C   0  0  0  0  0  0  0  0  0  0  0  0
  -31.8223   -2.6892  134.6153 N   0  0  0  0  0  0  0  0  0  0  0  0
  -29.6719    0.4867  138.3286 C   0  0  0  0  0  0  0  0  0  0  0  0
  -30.7797    0.5881  139.4384 C   0  0  0  0  0  0  0  0  0  0  0  0
  -28.5473    1.5463  138.2782 C   0  0  0  0  0  0  0  0  0  0  0  0
  -28.5597    2.7597  139.2357 C   0  0  0  0  0  0  0  0  0  0  0  0
  -32.0322   -0.2389  139.1125 C   0  0  0  0  0  0  0  0  0  0  0  0
  -30.2870    0.3545  140.8995 C   0  0  0  0  0  0  0  0  0  0  0  0
  -29.3370   -0.8291  141.1800 C   0  0  0  0  0  0  0  0  0  0  0  0
  -29.6917    1.6007  137.2734 C   0  0  0  0  0  0  0  0  0  0  0  0
  -29.9697   -2.2364  141.1616 C   0  0  0  0  0  0  0  0  0  0  0  0
  -30.6224   -2.1799  143.8326 Cl  0  0  0  0  0  0  0  0  0  0  0  0
  -27.2546    3.1896  139.8826 C   0  0  0  0  0  0  0  0  0  0  0  0
  -26.4689    4.2151  139.0873 C   0  0  0  0  0  0  0  0  0  0  0  0
  -26.9273    4.2612  137.6342 C   0  0  0  0  0  0  0  0  0  0  0  0
  -26.3352    3.1265  136.7964 C   0  0  0  0  0  0  0  0  0  0  0  0
  -27.9308    4.0591  138.7732 C   0  0  0  0  0  0  0  0  0  0  0  0
  -31.1331   -2.4310  142.1419 C   0  0  0  0  0  0  0  0  0  0  0  0
  2  1  1  0
  3  1  1  0
  4  2  1  0
  5  3  1  0
  6  4  1  0
  7  6  1  0
  8  6  1  0
  9  8  1  0
 10  7  1  0
 11  7  1  0
 12 11  1  0
 13  6  1  0
 13  8  1  0
 14 12  1  0
 16  9  1  0
 17 16  1  0
 18 17  1  0
 19 18  1  0
 20  9  1  0
 20 16  1  0
 20 17  1  0
 20 18  1  0
 21 14  1  0
 21 15  1  0
M  END
$$$$

     RDKit          3D

 21 29  0  0  0  0  0  0  0  0999 V2000
  -22.4361   -2.4412  141.9785 O   0  0  0  0  0  0  0  0  0  0  0  0
  -23.5686   -2.8186  142.7167 C   0  0  0  0  0  0  0  0  0  0  0  0
  -24.8546   -2.5124  141.9109 C   0  0  0  0  0  0  0  0  0  0  0  0
  -23.7451   -1.9019  143.9172 C   0  0  0  0  0  0  0  0  0  0  0  0
  -25.3354   -3.7907  141.1779 C   0  0  0  0  0  0  0  0  0  0  0  0
  -25.8140   -1.8975  142.9819 C   0  0  0  0  0  0  0  0  0  0  0  0
  -22.8087   -2.2250  145.0572 C   0  0  0  0  0  0  0  0  0  0  0  0
  -24.2564   -1.8356  145.3293 C   0  0  0  0  0  0  0  0  0  0  0  0
  -27.2880   -2.3644  142.9190 C   0  0  0  0  0  0  0  0  0  0  0  0
  -25.1850   -2.3765  144.2814 C   0  0  0  0  0  0  0  0  0  0  0  0
  -28.2319   -1.3850  143.6098 C   0  0  0  0  0  0  0  0  0  0  0  0
  -28.5125   -0.1868  142.7171 C   0  0  0  0  0  0  0  0  0  0  0  0
  -27.9727   -0.4022  141.3119 C   0  0  0  0  0  0  0  0  0  0  0  0
  -28.3582   -1.6075  142.1289 C   0  0  0  0  0  0  0  0  0  0  0  0
  -26.2628   -3.4759  139.9944 C   0  0  0  0  0  0  0  0  0  0  0  0
  -25.5693   -3.0271  138.7640 C   0  0  0  0  0  0  0  0  0  0  0  0
  -26.3674   -2.1405  137.8210 C   0  0  0  0  0  0  0  0  0  0  0  0
  -27.1888   -3.0733  136.9678 C   0  0  0  0  0  0  0  0  0  0  0  0
  -26.8734   -4.4781  137.4582 C   0  0  0  0  0  0  0  0  0  0  0  0
  -27.5970   -4.9394  138.6600 C   0  0  0  0  0  0  0  0  0  0  0  0
  -26.1168   -4.4808  138.8120 C   0  0  0  0  0  0  0  0  0  0  0  0
  2  1  1  0
  3  2  1  0
  4  2  1  0
  5  3  1  0
  6  3  1  0
  7  4  1  0
  8  4  1  0
  8  7  1  0
  9  6  1  0
 10  4  1  0
 10  6  1  0
 10  8  1  0
 11  9  1  0
 12 11  1  0
 13 12  1  0
 14  9  1  0
 14 11  1  0
 14 12  1  0
 14 13  1  0
 15  5  1  0
 16 15  1  0
 17 16  1  0
 18 17  1  0
 19 18  1  0
 20 19  1  0
 21 15  1  0
 21 16  1  0
 21 19  1  0
 21 20  1  0
M  END
$$$$

     RDKit          3D

 21 22  0  0  0  0  0  0  0  0999 V2000
  -16.2103  -20.2433  135.1286 O   0  0  0  0  0  0  0  0  0  0  0  0
  -15.4668  -19.1153  135.5140 C   0  0  0  0  0  0  0  0  0  0  0  0
  -14.2969  -18.9040  134.5283 C   0  0  0  0  0  0  0  0  0  0  0  0
  -13.3794  -20.1343  134.3860 C   0  0  0  0  0  0  0  0  0  0  0  0
  -12.6642  -20.5728  135.6818 C   0  0  0  0  0  0  0  0  0  0  0  0
  -16.4206  -17.9027  135.6907 C   0  0  0  0  0  0  0  0  0  0  0  0
  -11.8234  -19.4732  136.3569 C   0  0  0  0  0  0  0  0  0  0  0  0
  -10.8533  -18.8248  135.4077 C   0  0  0  0  0  0  0  0  0  0  0  0
  -17.2635  -17.5687  134.4594 C   0  0  0  0  0  0  0  0  0  0  0  0
   -9.8331  -19.5067  134.8666 C   0  0  0  0  0  0  0  0  0  0  0  0
   -8.9424  -18.8839  133.8299 C   0  0  0  0  0  0  0  0  0  0  0  0
   -9.7002  -18.6955  132.5424 C   0  0  0  0  0  0  0  0  0  0  0  0
  -18.7111  -17.1474  134.7536 C   0  0  0  0  0  0  0  0  0  0  0  0
  -10.2698  -17.4500  132.2273 C   0  0  0  0  0  0  0  0  0  0  0  0
  -19.2624  -16.2466  133.6466 C   0  0  0  0  0  0  0  0  0  0  0  0
  -11.0257  -17.2962  131.0609 C   0  0  0  0  0  0  0  0  0  0  0  0
  -19.3794  -16.9561  132.4420 O   0  0  0  0  0  0  0  0  0  0  0  0
  -11.2238  -18.3839  130.2060 C   0  0  0  0  0  0  0  0  0  0  0  0
  -10.6680  -19.6280  130.5168 C   0  0  0  0  0  0  0  0  0  0  0  0
   -9.9119  -19.7863  131.6823 C   0  0  0  0  0  0  0  0  0  0  0  0
  -16.1904  -16.5937  134.9285 C   0  0  0  0  0  0  0  0  0  0  0  0
  2  1  1  0
  3  2  1  0
  4  3  1  0
  5  4  1  0
  6  2  1  0
  7  5  1  0
  8  7  1  0
  9  6  1  0
 10  8  2  3
 11 10  1  0
 12 11  1  0
 13  9  1  0
 14 12  4  0
 15 13  1  0
 16 14  4  0
 17 15  1  0
 18 16  4  0
 19 18  4  0
 20 12  4  0
 20 19  4  0
 21  6  1  0
 21  9  1  0
M  END
$$$$

     RDKit          3D

 21 24  0  0  0  0  0  0  0  0999 V2000
  -23.0237   -3.8421  139.7719 O   0  0  0  0  0  0  0  0  0  0  0  0
  -22.3492   -2.6645  140.1959 C   0  0  0  0  0  0  0  0  0  0  0  0
  -23.2213   -1.4287  140.4482 C   0  0  0  0  0  0  0  0  0  0  0  0
  -23.6492   -0.7011  139.1527 C   0  0  0  0  0  0  0  0  0  0  0  0
  -22.7561    1.5365  139.3945 C   0  0  0  0  0  0  0  0  0  0  0  0
  -22.2366    2.7494  138.6301 C   0  0  0  0  0  0  0  0  0  0  0  0
  -22.5539    0.2301  138.6340 C   0  0  0  0  0  0  0  0  0  0  0  0
  -24.8422    0.2322  139.4106 C   0  0  0  0  0  0  0  0  0  0  0  0
  -20.8263   -2.5854  140.0478 C   0  0  0  0  0  0  0  0  0  0  0  0
  -24.5500    2.0825  141.1346 C   0  0  0  0  0  0  0  0  0  0  0  0
  -18.6733   -4.8035  139.6168 As  0  0  0  0  0  3  0  0  0  0  0  0
  -20.0852   -2.4074  141.3579 C   0  0  0  0  0  0  0  0  0  0  0  0
  -22.8462   -4.8286  140.7681 C   0  0  0  0  0  0  0  0  0  0  0  0
  -24.1342   -4.9817  141.5799 C   0  0  0  0  0  0  0  0  0  0  0  0
  -20.1784   -3.5928  139.0030 C   0  0  0  0  0  0  0  0  0  0  0  0
  -21.6803   -4.4221  141.6715 C   0  0  0  0  0  0  0  0  0  0  0  0
  -21.5037   -2.9590  141.4068 C   0  0  0  0  0  0  0  0  0  0  0  0
  -24.2738    1.6313  139.6883 C   0  0  0  0  0  0  0  0  0  0  0  0
  -19.6198   -2.7028  137.8709 C   0  0  0  0  0  0  0  0  0  0  0  0
  -19.6391   -6.5200  139.8563 C   0  0  0  0  0  0  0  0  0  0  0  0
  -17.9642   -5.3602  137.8424 C   0  0  0  0  0  0  0  0  0  0  0  0
  2  1  1  0
  3  2  1  0
  4  3  1  0
  6  5  1  0
  7  4  1  0
  7  5  1  0
  8  4  1  0
  9  2  1  0
 12  9  1  0
 13  1  1  0
 14 13  1  0
 15  9  1  0
 15 11  1  0
 16 13  1  0
 17  2  1  0
 17  9  1  0
 17 12  1  0
 17 16  1  0
 18  5  1  0
 18  8  1  0
 18 10  1  0
 19 15  1  0
 20 11  1  0
 21 11  1  0
M  END
$$$$

     RDKit          3D

 11 12  0  0  0  0  0  0  0  0999 V2000
  -26.3892   -9.8655  153.7089 O   0  0  0  0  0  0  0  0  0  0  0  0
  -27.6830  -10.1278  153.2369 C   0  0  0  0  0  0  0  0  0  0  0  0
  -27.9245  -10.0777  151.7216 C   0  0  0  0  0  0  0  0  0  0  0  0
  -27.5975   -8.6980  151.1600 C   0  0  0  0  0  0  0  0  0  0  0  0
  -28.5198  -11.1002  154.0627 C   0  0  0  0  0  0  0  0  0  0  0  0
  -27.8434  -11.6754  155.3105 C   0  0  0  0  0  0  0  0  0  0  0  0
  -28.7895   -9.5964  154.1375 C   0  0  0  0  0  0  0  0  0  0  0  0
  -27.4102  -13.0679  155.1830 C   0  0  0  0  0  0  0  0  0  0  0  0
  -28.6563  -12.7516  155.9230 N   0  0  0  0  0  0  0  0  0  0  0  0
  -28.4525  -12.8236  157.3820 C   0  0  0  0  0  0  0  0  0  0  0  0
  -29.3998  -12.0195  158.0280 O   0  0  0  0  0  0  0  0  0  0  0  0
  2  1  1  0
  3  2  1  0
  4  3  1  0
  5  2  1  0
  6  5  1  0
  7  2  1  0
  7  5  1  0
  8  6  1  0
  9  6  1  0
  9  8  1  0
 10  9  1  0
 11 10  1  0
M  END
$$$$

     RDKit          3D

 21 23  0  0  0  0  0  0  0  0999 V2000
  -26.6352    1.3539  147.8695 N   0  0  0  0  0  0  0  0  0  0  0  0
  -25.7704   -0.3112  146.7558 C   0  0  0  0  0  0  0  0  0  0  0  0
  -24.2851   -1.6990  144.7793 O   0  0  0  0  0  0  0  0  0  0  0  0
  -24.1937    0.4040  148.2138 C   0  0  0  0  0  0  0  0  0  0  0  0
  -22.8513    1.0062  148.0238 N   0  0  0  0  0  0  0  0  0  0  0  0
  -24.4066   -0.8071  147.3582 C   0  0  0  0  0  0  0  0  0  0  0  0
  -25.3286    1.0550  147.3063 C   0  0  0  0  0  0  0  0  0  0  0  0
  -23.1796   -0.9928  145.8858 P   0  0  0  0  0  0  0  0  0  0  0  0
  -21.3312   -0.6547  149.0212 N   0  0  0  0  0  0  0  0  0  0  0  0
  -21.8948    0.7200  149.0547 C   0  0  0  0  0  0  0  0  0  0  0  0
  -20.0774   -0.6782  148.2443 C   0  0  0  0  0  0  0  0  0  0  0  0
  -18.7065    0.1751  148.7203 C   0  0  0  0  0  0  0  0  0  0  0  0
  -16.5680    0.7997  151.0918 Al  0  0  0  0  0  3  0  0  0  0  0  0
  -19.3526    1.3594  150.8048 N   0  0  0  0  0  0  0  0  0  0  0  0
  -18.7899   -0.9642  150.9619 N   0  0  0  0  0  0  0  0  0  0  0  0
  -17.6655    1.4413  152.5643 C   0  0  0  0  0  0  0  0  0  0  0  0
  -14.9147    2.4875  153.3678 C   0  0  0  0  0  0  0  0  0  0  0  0
  -15.0317    2.0135  151.8762 C   0  0  0  0  0  0  0  0  0  0  0  0
  -18.4692    0.3261  150.3458 C   0  0  0  0  0  0  0  0  0  0  0  0
  -18.7670    2.1739  151.8531 C   0  0  0  0  0  0  0  0  0  0  0  0
  -27.1303    0.2504  147.1371 C   0  0  0  0  0  0  0  0  0  0  0  0
  5  4  1  0
  6  2  1  0
  6  4  1  0
  7  1  1  0
  7  2  1  0
  7  4  1  0
  8  3  1  0
  8  6  1  0
 10  5  1  0
 10  9  1  0
 11  9  1  0
 12 11  1  0
 16 13  1  0
 18 13  1  0
 18 17  1  0
 19 12  1  0
 19 13  1  0
 19 14  1  0
 19 15  1  0
 20 14  1  0
 20 16  1  0
 21  1  1  0
 21  2  1  0
M  END
$$$$

     RDKit          3D

 21 24  0  0  0  0  0  0  0  0999 V2000
  -33.6152  -11.3278  145.3286 F   0  0  0  0  0  0  0  0  0  0  0  0
  -35.9270  -11.7209  144.6076 C   0  0  0  0  0  0  0  0  0  0  0  0
  -36.4472  -10.9398  145.8435 C   0  0  0  0  0  0  0  0  0  0  0  0
  -35.9567  -10.7626  143.3593 C   0  0  0  0  0  0  0  0  0  0  0  0
  -35.3539   -9.4525  143.6619 N   0  0  0  0  0  0  0  0  0  0  0  0
  -35.7212   -9.6782  146.0309 N   0  0  0  0  0  0  0  0  0  0  0  0
  -34.5103  -12.2970  144.9105 C   0  0  0  0  0  0  0  0  0  0  0  0
  -36.8850  -12.9139  144.3744 C   0  0  0  0  0  0  0  0  0  0  0  0
  -35.9230   -8.8100  144.8589 C   0  0  0  0  0  0  0  0  0  0  0  0
  -33.7516   -7.4513  145.3058 C   0  0  0  0  0  0  0  0  0  0  0  0
  -30.0379   -9.3216  140.9725 F   0  0  0  0  0  0  0  0  0  0  0  0
  -35.4767   -6.6189  146.3012 C   0  0  0  0  0  0  0  0  0  0  0  0
  -33.9791   -6.6521  146.5826 C   0  0  0  0  0  0  0  0  0  0  0  0
  -35.2498   -7.4134  145.0116 C   0  0  0  0  0  0  0  0  0  0  0  0
  -34.2939  -10.5607  141.2737 C   0  0  0  0  0  0  0  0  0  0  0  0
  -30.9058  -10.1469  140.2784 C   0  0  0  0  0  0  0  0  0  0  0  0
  -31.8325  -10.9673  141.1706 C   0  0  0  0  0  0  0  0  0  0  0  0
  -35.7033  -10.8147  140.7634 C   0  0  0  0  0  0  0  0  0  0  0  0
  -33.1863  -11.3413  140.5588 C   0  0  0  0  0  0  0  0  0  0  0  0
  -30.6289  -11.6239  140.5099 C   0  0  0  0  0  0  0  0  0  0  0  0
  -35.2769  -11.4053  142.1044 C   0  0  0  0  0  0  0  0  0  0  0  0
  3  2  1  0
  4  2  1  0
  5  4  1  0
  6  3  1  0
  7  1  1  0
  7  2  1  0
  8  2  1  0
  9  5  1  0
  9  6  1  0
 13 10  1  0
 13 12  1  0
 14  9  1  0
 14 10  1  0
 14 12  1  0
 16 11  1  0
 17 16  1  0
 18 15  1  0
 19 15  1  0
 19 17  1  0
 20 16  1  0
 20 17  1  0
 21  4  1  0
 21 15  1  0
 21 18  1  0
M  END
$$$$

     RDKit          3D

 24 28  0  0  0  0  0  0  0  0999 V2000
  -20.8271   -3.3304  150.6763 O   0  0  0  0  0  0  0  0  0  0  0  0
  -21.2457   -2.5712  149.6111 C   0  0  0  0  0  0  0  0  0  0  0  0
  -22.3115   -3.5750  148.7536 C   0  0  0  0  0  0  0  0  0  0  0  0
  -19.9470   -1.8633  148.9889 C   0  0  0  0  0  0  0  0  0  0  0  0
  -23.2091   -2.9660  147.6144 C   0  0  0  0  0  0  0  0  0  0  0  0
  -22.7872   -3.1275  146.1892 C   0  0  0  0  0  0  0  0  0  0  0  0
  -20.1667   -3.5544  146.1190 C   0  0  0  0  0  0  0  0  0  0  0  0
  -21.3628   -2.5558  145.8647 C   0  0  0  0  0  0  0  0  0  0  0  0
  -17.9412   -2.3639  149.4475 C   0  0  0  0  0  0  0  0  0  0  0  0
  -19.8901   -2.9897  149.6645 C   0  0  0  0  0  0  0  0  0  0  0  0
  -17.2012   -3.9744  148.2666 C   0  0  0  0  0  0  0  0  0  0  0  0
  -19.5227   -3.6590  148.3979 C   0  0  0  0  0  0  0  0  0  0  0  0
  -19.7733   -4.9487  148.5350 C   0  0  0  0  0  0  0  0  0  0  0  0
  -18.2392   -4.5546  146.4208 C   0  0  0  0  0  0  0  0  0  0  0  0
  -18.3024   -2.2596  147.0935 C   0  0  0  0  0  0  0  0  0  0  0  0
  -18.5514   -6.1982  146.2572 C   0  0  0  0  0  0  0  0  0  0  0  0
  -18.9154   -7.3752  147.3311 C   0  0  0  0  0  0  0  0  0  0  0  0
  -17.8297   -7.8285  148.3439 C   0  0  0  0  0  0  0  0  0  0  0  0
  -19.6813   -6.3574  145.2052 C   0  0  0  0  0  0  0  0  0  0  0  0
  -20.7010   -1.9689  147.1540 C   0  0  0  0  0  0  0  0  0  0  0  0
  -17.0811   -4.3756  145.2217 C   0  0  0  0  0  0  0  0  0  0  0  0
  -21.1006   -5.7795  143.2989 C   0  0  0  0  0  0  0  0  0  0  0  0
  -16.7345   -5.4028  144.0415 C   0  0  0  0  0  0  0  0  0  0  0  0
  -19.8101   -5.4452  143.9410 C   0  0  0  0  0  0  0  0  0  0  0  0
  2  1  1  0
  3  2  1  0
  4  2  1  0
  5  3  1  0
  6  5  1  0
  8  6  1  0
  8  7  1  0
  9  4  1  0
 10  1  1  0
 10  2  1  0
 10  4  1  0
 11  9  1  0
 12 10  1  0
 13 12  2  0
 14  7  1  0
 14 11  1  0
 15 12  1  0
 16 14  1  0
 17 16  1  0
 18 17  1  0
 19 16  1  0
 20  4  1  0
 20  7  1  0
 20  8  1  0
 21 14  1  0
 23 21  1  0
 24 19  1  0
 24 22  1  0
M  END
$$$$

     RDKit          3D

 15 17  0  0  0  0  0  0  0  0999 V2000
  -24.6517  -24.2444  152.3886 C   0  0  0  0  0  0  0  0  0  0  0  0
  -24.5779  -25.2428  153.5592 C   0  0  0  0  0  0  0  0  0  0  0  0
  -24.1020  -24.8145  151.0520 C   0  0  0  0  0  0  0  0  0  0  0  0
  -25.8092  -23.2220  152.2877 C   0  0  0  0  0  0  0  0  0  0  0  0
  -23.6817  -24.0033  153.5538 C   0  0  0  0  0  0  0  0  0  0  0  0
  -27.0366  -23.8030  151.5897 C   0  0  0  0  0  0  0  0  0  0  0  0
  -23.2074  -23.8986  150.2333 C   0  0  0  0  0  0  0  0  0  0  0  0
  -21.7289  -24.0592  150.4950 C   0  0  0  0  0  0  0  0  0  0  0  0
  -25.6421  -25.2581  154.6793 C   0  0  0  0  0  0  0  0  0  0  0  0
  -24.9967  -25.7424  155.9829 C   0  0  0  0  0  0  0  0  0  0  0  0
  -26.7696  -26.1841  154.2925 C   0  0  0  0  0  0  0  0  0  0  0  0
  -21.0260  -24.3765  149.3168 O   0  0  0  0  0  0  0  0  0  0  0  0
  -22.6354  -25.1507  150.9901 C   0  0  0  0  0  0  0  0  0  0  0  0
  -19.7373  -24.8143  149.6760 C   0  0  0  0  0  0  0  0  0  0  0  0
  -27.9345  -26.1814  154.9478 C   0  0  0  0  0  0  0  0  0  0  0  0
  2  1  1  0
  3  1  1  0
  4  1  1  0
  5  1  1  0
  5  2  1  0
  6  4  1  0
  7  3  1  0
  8  7  1  0
  9  2  1  0
 10  9  1  0
 11  9  1  0
 12  8  1  0
 13  3  1  0
 13  7  1  0
 13  8  1  0
 14 12  1  0
 15 11  2  0
M  END
$$$$

     RDKit          3D

 24 26  0  0  0  0  0  0  0  0999 V2000
  -17.0903   -6.3019  141.5154 B   0  0  0  0  0  0  0  0  0  0  0  0
  -15.6056   -5.7646  141.9519 C   0  0  0  0  0  0  0  0  0  0  0  0
  -14.4696   -5.6720  137.6029 O   0  0  0  0  0  0  0  0  0  0  0  0
  -14.5731   -6.7061  141.7162 O   0  0  0  0  0  0  0  0  0  0  0  0
  -15.5486   -5.3939  143.4759 C   0  0  0  0  0  0  0  0  0  0  0  0
  -19.4126   -5.4009  140.8003 C   0  0  0  0  0  0  0  0  0  0  0  0
  -18.4296   -5.5442  141.9561 C   0  0  0  0  0  0  0  0  0  0  0  0
  -16.1376   -6.4801  144.3648 C   0  0  0  0  0  0  0  0  0  0  0  0
  -14.0998   -5.0146  143.9549 C   0  0  0  0  0  0  0  0  0  0  0  0
  -14.7063   -5.7909  138.9828 C   0  0  0  0  0  0  0  0  0  0  0  0
  -15.2317   -4.4692  139.5940 C   0  0  0  0  0  0  0  0  0  0  0  0
  -16.4014   -6.2444  145.6667 C   0  0  0  0  0  0  0  0  0  0  0  0
  -14.0028   -3.5283  144.3632 C   0  0  0  0  0  0  0  0  0  0  0  0
  -12.8283   -2.7551  143.7578 C   0  0  0  0  0  0  0  0  0  0  0  0
  -14.4697   -3.2290  139.0372 C   0  0  0  0  0  0  0  0  0  0  0  0
  -17.1595   -7.1796  146.5749 C   0  0  0  0  0  0  0  0  0  0  0  0
  -18.3520   -7.7915  145.8742 C   0  0  0  0  0  0  0  0  0  0  0  0
  -18.4529   -9.2989  146.0030 C   0  0  0  0  0  0  0  0  0  0  0  0
  -15.2938   -4.4504  141.1476 C   0  0  0  0  0  0  0  0  0  0  0  0
  -18.5775   -9.9876  144.6329 C   0  0  0  0  0  0  0  0  0  0  0  0
  -17.1229   -8.6644  146.3420 C   0  0  0  0  0  0  0  0  0  0  0  0
  -12.9455   -3.2849  139.2187 C   0  0  0  0  0  0  0  0  0  0  0  0
  -15.0896   -1.6954  139.7340 Cl  0  0  0  0  0  0  0  0  0  0  0  0
  -12.7868   -3.1842  145.2117 C   0  0  0  0  0  0  0  0  0  0  0  0
  2  1  1  0
  4  2  1  0
  5  2  1  0
  7  1  1  0
  7  6  1  0
  8  5  1  0
  9  5  1  0
 10  3  1  0
 11 10  1  0
 12  8  2  3
 13  9  1  0
 14 13  1  0
 15 11  1  0
 16 12  1  0
 17 16  1  0
 18 17  1  0
 19  2  1  0
 19 11  1  0
 20 18  1  0
 21 16  1  0
 21 17  1  0
 21 18  1  0
 22 15  1  0
 23 15  1  0
 24 13  1  0
 24 14  1  0
M  END
$$$$

     RDKit          3D

 23 24  0  0  0  0  0  0  0  0999 V2000
  -18.2132    3.9585  142.8361 C   0  0  0  0  0  0  0  0  0  0  0  0
  -16.9936    4.0053  145.1560 C   0  0  0  0  0  0  0  0  0  0  0  0
  -18.7698    2.9456  146.5431 C   0  0  0  0  0  0  0  0  0  0  0  0
  -19.0474    4.9713  142.1337 N   0  0  0  0  0  0  0  0  0  0  0  0
  -20.3964    5.3637  142.6125 C   0  0  0  0  0  0  0  0  0  0  0  0
  -18.3717    1.3156  144.6900 C   0  0  0  0  0  0  0  0  0  0  0  0
  -17.4422    3.7317  146.6183 C   0  0  0  0  0  0  0  0  0  0  0  0
  -19.2720    0.2687  145.0054 O   0  0  0  0  0  0  0  0  0  0  0  0
  -21.4950    4.6023  141.9636 N   0  0  0  0  0  0  0  0  0  0  0  0
  -22.2305    3.7653  142.9491 C   0  0  0  0  0  0  0  0  0  0  0  0
  -18.3249    3.9075  144.4025 C   0  0  0  0  0  0  0  0  0  0  0  0
  -18.9875    2.6727  145.0531 C   0  0  0  0  0  0  0  0  0  0  0  0
  -22.3954    5.5092  141.4775 O   0  0  0  0  0  0  0  0  0  0  0  0
  -25.0244    1.8761  140.9267 C   0  0  0  0  0  0  0  0  0  0  0  0
  -26.2819    2.5394  141.5358 C   0  0  0  0  0  0  0  0  0  0  0  0
  -25.4703    2.2607  143.9133 C   0  0  0  0  0  0  0  0  0  0  0  0
  -24.8746    2.7937  145.2384 C   0  0  0  0  0  0  0  0  0  0  0  0
  -22.8638    2.5132  142.3227 C   0  0  0  0  0  0  0  0  0  0  0  0
  -25.4677    4.1708  145.6121 C   0  0  0  0  0  0  0  0  0  0  0  0
  -25.1567    1.7881  146.3651 C   0  0  0  0  0  0  0  0  0  0  0  0
  -25.4039    3.1860  142.6293 C   0  0  0  0  0  0  0  0  0  0  0  0
  -21.8892    1.8746  141.3243 C   0  0  0  0  0  0  0  0  0  0  0  0
  -24.2015    2.9048  141.6906 C   0  0  0  0  0  0  0  0  0  0  0  0
  4  1  1  0
  5  4  1  0
  7  2  1  0
  7  3  1  0
  8  6  1  0
  9  5  1  0
 10  9  1  0
 11  1  1  0
 11  2  1  0
 12  3  1  0
 12  6  1  0
 12 11  1  0
 13  9  1  0
 15 14  1  0
 17 16  1  0
 18 10  1  0
 19 17  1  0
 20 17  1  0
 21 15  1  0
 21 16  1  0
 22 18  1  0
 23 14  1  0
 23 18  1  0
 23 21  1  0
M  END
$$$$

     RDKit          3D

 24 30  0  0  0  0  0  0  0  0999 V2000
  -20.0249  -12.6757  152.9008 O   0  0  0  0  0  0  0  0  0  0  0  0
  -20.2687  -12.5184  151.5022 C   0  0  0  0  0  0  0  0  0  0  0  0
  -23.2136  -13.0745  152.5735 Sb  0  0  0  0  0  3  0  0  0  0  0  0
  -21.4800  -13.3869  151.2042 C   0  0  0  0  0  0  0  0  0  0  0  0
  -21.6298  -11.9190  151.5058 C   0  0  0  0  0  0  0  0  0  0  0  0
  -21.9343  -10.9066  150.3038 C   0  0  0  0  0  0  0  0  0  0  0  0
  -20.6979  -10.1225  149.7180 C   0  0  0  0  0  0  0  0  0  0  0  0
  -23.3574  -10.3176  150.6430 C   0  0  0  0  0  0  0  0  0  0  0  0
  -23.5029   -9.4795  148.7760 C   0  0  0  0  0  0  0  0  0  0  0  0
  -19.5318  -12.0174  148.2428 C   0  0  0  0  0  0  0  0  0  0  0  0
  -24.4104   -7.9753  150.6655 O   0  0  0  0  0  0  0  0  0  0  0  0
  -19.0850   -9.6372  147.5178 C   0  0  0  0  0  0  0  0  0  0  0  0
  -20.8851  -11.7659  147.6115 C   0  0  0  0  0  0  0  0  0  0  0  0
  -20.1416  -10.5923  148.2855 C   0  0  0  0  0  0  0  0  0  0  0  0
  -17.9051  -11.9021  152.1842 C   0  0  0  0  0  0  0  0  0  0  0  0
  -18.9674  -13.0120  152.1025 C   0  0  0  0  0  0  0  0  0  0  0  0
  -24.5549   -9.5870  147.6031 C   0  0  0  0  0  0  0  0  0  0  0  0
  -23.9173  -14.8633  151.5135 C   0  0  0  0  0  0  0  0  0  0  0  0
  -24.7478  -14.4780  150.2897 C   0  0  0  0  0  0  0  0  0  0  0  0
  -23.8601   -8.9583  150.1575 C   0  0  0  0  0  0  0  0  0  0  0  0
  -26.2697   -8.2234  146.2572 C   0  0  0  0  0  0  0  0  0  0  0  0
  -27.0784   -9.2848  147.0204 C   0  0  0  0  0  0  0  0  0  0  0  0
  -23.1018  -10.8566  149.2838 C   0  0  0  0  0  0  0  0  0  0  0  0
  -25.7957   -8.6589  147.6488 C   0  0  0  0  0  0  0  0  0  0  0  0
  2  1  1  0
  4  2  1  0
  4  3  1  0
  5  2  1  0
  5  3  1  0
  5  4  1  0
  6  5  1  0
  7  6  1  0
  8  6  1  0
 13 10  1  0
 14  7  1  0
 14 10  1  0
 14 12  1  0
 14 13  1  0
 16  1  1  0
 16  2  1  0
 16 15  1  0
 17  9  1  0
 18  3  1  0
 19 18  1  0
 20  8  1  0
 20  9  1  0
 20 11  2  0
 22 21  1  0
 23  6  1  0
 23  8  1  0
 23  9  1  0
 24 17  1  0
 24 21  1  0
 24 22  1  0
M  END
$$$$

     RDKit          3D

 24 27  0  0  0  0  0  0  0  0999 V2000
  -29.5374  -11.1847  138.3484 O   0  0  0  0  0  0  0  0  0  0  0  0
  -29.9035  -11.3110  136.9892 C   0  0  0  0  0  0  0  0  0  0  0  0
  -30.9600  -13.2274  135.7352 C   0  0  0  0  0  0  0  0  0  0  0  0
  -31.8110  -12.6725  134.5804 C   0  0  0  0  0  0  0  0  0  0  0  0
  -31.8239  -11.2240  134.0053 C   0  0  0  0  0  0  0  0  0  0  0  0
  -28.6848  -11.6029  136.0909 C   0  0  0  0  0  0  0  0  0  0  0  0
  -29.7072  -12.7269  136.4629 C   0  0  0  0  0  0  0  0  0  0  0  0
  -32.5613  -10.2507  134.9240 C   0  0  0  0  0  0  0  0  0  0  0  0
  -30.5300  -10.4634  139.0197 C   0  0  0  0  0  0  0  0  0  0  0  0
  -30.0392  -10.0988  140.4230 C   0  0  0  0  0  0  0  0  0  0  0  0
  -28.6003   -9.5355  140.3730 C   0  0  0  0  0  0  0  0  0  0  0  0
  -27.5218  -10.6291  140.5431 C   0  0  0  0  0  0  0  0  0  0  0  0
  -32.5837   -8.9441  134.6132 C   0  0  0  0  0  0  0  0  0  0  0  0
  -33.9315   -8.2706  134.4960 C   0  0  0  0  0  0  0  0  0  0  0  0
  -30.7410  -13.7067  134.2868 C   0  0  0  0  0  0  0  0  0  0  0  0
  -28.7064  -11.3993  134.6379 N   0  0  0  0  0  0  0  0  0  0  0  0
  -29.4734  -10.2261  134.1407 C   0  0  0  0  0  0  0  0  0  0  0  0
  -28.6596   -9.2712  133.1906 C   0  0  0  0  0  0  0  0  0  0  0  0
  -26.5677  -10.1733  134.3774 C   0  0  0  0  0  0  0  0  0  0  0  0
  -30.6136  -10.6953  133.3435 N   0  0  0  0  0  0  0  0  0  0  0  0
  -26.3388   -8.5063  132.4661 C   0  0  0  0  0  0  0  0  0  0  0  0
  -27.3238  -11.4719  134.1116 C   0  0  0  0  0  0  0  0  0  0  0  0
  -27.2182   -8.9550  133.6515 C   0  0  0  0  0  0  0  0  0  0  0  0
  -34.0932   -7.2067  135.5015 N   0  0  0  0  0  0  0  0  0  0  0  0
  2  1  1  0
  4  3  1  0
  5  4  1  0
  6  2  1  0
  7  2  1  0
  7  3  1  0
  7  6  1  0
  8  5  1  0
  9  1  1  0
 10  9  1  0
 11 10  1  0
 12 11  1  0
 13  8  2  3
 14 13  1  0
 15  3  1  0
 15  4  1  0
 16  6  1  0
 17 16  1  0
 18 17  1  0
 20  5  1  0
 20 17  1  0
 22 16  1  0
 22 19  1  0
 23 18  1  0
 23 19  1  0
 23 21  1  0
 24 14  1  0
M  END
$$$$

     RDKit          3D

 24 25  0  0  0  0  0  0  0  0999 V2000
  -20.7204  -19.0019  131.1138 I   0  0  0  0  0  0  0  0  0  0  0  0
  -22.6588  -18.3783  131.7874 C   0  0  0  0  0  0  0  0  0  0  0  0
  -23.6806  -18.1921  130.5401 B   0  0  0  0  0  0  0  0  0  0  0  0
  -23.8542  -17.8832  128.9739 C   0  0  0  0  0  0  0  0  0  0  0  0
  -25.3458  -17.7393  128.5447 C   0  0  0  0  0  0  0  0  0  0  0  0
  -23.0343  -16.6192  128.6275 C   0  0  0  0  0  0  0  0  0  0  0  0
  -22.8069  -16.5290  127.2454 O   0  0  0  0  0  0  0  0  0  0  0  0
  -26.1895  -19.0029  128.8536 C   0  0  0  0  0  0  0  0  0  0  0  0
  -23.8292  -19.2775  131.7357 C   0  0  0  0  0  0  0  0  0  0  0  0
  -23.6614  -20.7322  131.2574 C   0  0  0  0  0  0  0  0  0  0  0  0
  -27.0961  -18.8301  130.0715 C   0  0  0  0  0  0  0  0  0  0  0  0
  -23.2462  -21.6690  132.3786 C   0  0  0  0  0  0  0  0  0  0  0  0
  -25.4035  -17.5187  127.1539 O   0  0  0  0  0  0  0  0  0  0  0  0
  -25.0111  -23.1922  133.4704 C   0  0  0  0  0  0  0  0  0  0  0  0
  -23.6148  -21.6155  134.9903 C   0  0  0  0  0  0  0  0  0  0  0  0
  -24.2069  -24.5017  133.4375 C   0  0  0  0  0  0  0  0  0  0  0  0
  -22.4041  -22.4103  135.4949 C   0  0  0  0  0  0  0  0  0  0  0  0
  -24.1876  -21.8812  133.5642 C   0  0  0  0  0  0  0  0  0  0  0  0
  -22.1230  -22.3941  132.2680 C   0  0  0  0  0  0  0  0  0  0  0  0
  -25.0815  -25.5954  133.4733 O   0  0  0  0  0  0  0  0  0  0  0  0
  -21.6873  -21.0898  135.8192 C   0  0  0  0  0  0  0  0  0  0  0  0
  -21.5789  -20.8290  137.3311 C   0  0  0  0  0  0  0  0  0  0  0  0
  -20.3353  -20.9171  135.1043 C   0  0  0  0  0  0  0  0  0  0  0  0
  -22.8348  -20.3078  135.1646 C   0  0  0  0  0  0  0  0  0  0  0  0
  2  1  1  0
  3  2  1  0
  4  3  1  0
  5  4  1  0
  6  4  1  0
  7  6  1  0
  8  5  1  0
  9  2  1  0
  9  3  1  0
 10  9  1  0
 11  8  1  0
 12 10  1  0
 13  5  1  0
 16 14  1  0
 17 15  1  0
 18 12  1  0
 18 14  1  0
 18 15  1  0
 19 12  2  0
 20 16  1  0
 21 17  1  0
 22 21  1  0
 23 21  1  0
 24 15  1  0
 24 21  1  0
M  END
$$$$

     RDKit          3D

 24 26  0  0  0  0  0  0  0  0999 V2000
  -16.9853   -4.2587  138.4383 O   0  0  0  0  0  0  0  0  0  0  0  0
  -17.7772   -3.1625  138.9347 C   0  0  0  0  0  0  0  0  0  0  0  0
  -19.2208   -2.5262  140.9291 C   0  0  0  0  0  0  0  0  0  0  0  0
  -19.2080   -3.4267  138.9133 C   0  0  0  0  0  0  0  0  0  0  0  0
  -20.6879   -2.8126  141.6008 C   0  0  0  0  0  0  0  0  0  0  0  0
  -19.5721   -4.7902  139.6975 C   0  0  0  0  0  0  0  0  0  0  0  0
  -18.6868   -5.4020  140.5811 C   0  0  0  0  0  0  0  0  0  0  0  0
  -18.7447   -4.5167  143.3915 C   0  0  0  0  0  0  0  0  0  0  0  0
  -17.7843   -3.1951  143.6290 C   0  0  0  0  0  0  0  0  0  0  0  0
  -18.5901   -5.4137  144.6231 C   0  0  0  0  0  0  0  0  0  0  0  0
  -21.0181   -2.0041  142.8954 C   0  0  0  0  0  0  0  0  0  0  0  0
  -22.2503   -2.5644  143.6471 C   0  0  0  0  0  0  0  0  0  0  0  0
  -18.0736   -0.2825  142.3865 C   0  0  0  0  0  0  0  0  0  0  0  0
  -23.5193   -2.5991  142.9683 N   0  0  0  0  0  0  0  0  0  0  0  0
  -22.1873   -2.8986  144.9261 C   0  0  0  0  0  0  0  0  0  0  0  0
  -18.8311   -5.6071  142.1403 C   0  0  0  0  0  0  0  0  0  0  0  0
  -19.2650   -0.2348  141.4369 N   0  0  0  0  0  0  0  0  0  0  0  0
  -19.5750   -6.2106  145.0586 C   0  0  0  0  0  0  0  0  0  0  0  0
  -16.7688   -4.1536  137.0310 C   0  0  0  0  0  0  0  0  0  0  0  0
  -17.6558   -2.8559  140.4081 C   0  0  0  0  0  0  0  0  0  0  0  0
  -19.5202    0.6987  140.3408 C   0  0  0  0  0  0  0  0  0  0  0  0
  -18.9865   -0.6352  139.9551 C   0  0  0  0  0  0  0  0  0  0  0  0
  -19.7353   -2.0537  139.6420 C   0  0  0  0  0  0  0  0  0  0  0  0
  -17.4513   -1.7009  142.9758 C   0  0  0  0  0  0  0  0  0  0  0  0
  2  1  1  0
  4  2  1  0
  5  3  1  0
  6  4  1  0
  7  6  2  3
  9  8  1  0
 10  8  1  0
 11  5  1  0
 12 11  1  0
 14 12  1  0
 15 12  2  0
 16  7  1  0
 16  8  1  0
 17 13  1  0
 18 10  2  0
 19  1  1  0
 20  2  1  0
 20  3  1  0
 21 17  1  0
 22 17  1  0
 22 21  1  0
 23  3  1  0
 23  4  1  0
 23 22  1  0
 24  9  1  0
 24 13  1  0
M  END
$$$$

     RDKit          3D

 11 10  0  0  0  0  0  0  0  0999 V2000
  -21.0659  -10.7850  143.2085 C   0  0  0  0  0  0  0  0  0  0  0  0
  -19.7599  -10.0338  143.0681 C   0  0  0  0  0  0  0  0  0  0  0  0
  -18.7193  -10.8526  142.3439 C   0  0  0  0  0  0  0  0  0  0  0  0
  -22.3421  -10.2093  142.6544 C   0  0  0  0  0  0  0  0  0  0  0  0
  -21.1085  -11.9478  143.8768 C   0  0  0  0  0  0  0  0  0  0  0  0
  -18.6731  -11.0255  141.0096 C   0  0  0  0  0  0  0  0  0  0  0  0
  -19.6399  -10.3882  140.0300 C   0  0  0  0  0  0  0  0  0  0  0  0
  -19.6506  -11.1345  138.6793 C   0  0  0  0  0  0  0  0  0  0  0  0
  -18.1084   -8.5537  139.3415 C   0  0  0  0  0  0  0  0  0  0  0  0
  -20.2347  -12.5427  138.8022 C   0  0  0  0  0  0  0  0  0  0  0  0
  -19.2959   -8.9331  139.8234 C   0  0  0  0  0  0  0  0  0  0  0  0
  2  1  1  0
  3  2  1  0
  4  1  1  0
  5  1  2  0
  6  3  2  3
  7  6  1  0
  8  7  1  0
 10  8  1  0
 11  7  1  0
 11  9  2  0
M  END
$$$$

     RDKit          3D

 24 29  0  0  0  0  0  0  0  0999 V2000
  -23.8840  -10.5117  146.6823 O   0  0  0  0  0  0  0  0  0  0  0  0
  -23.9858  -10.2713  147.9118 C   0  0  0  0  0  0  0  0  0  0  0  0
  -24.2304  -11.3022  148.8049 O   0  0  0  0  0  0  0  0  0  0  0  0
  -24.0347   -8.8716  148.4120 C   0  0  0  0  0  0  0  0  0  0  0  0
  -25.4971   -8.4258  148.3497 C   0  0  0  0  0  0  0  0  0  0  0  0
  -25.7800   -7.0491  148.7034 C   0  0  0  0  0  0  0  0  0  0  0  0
  -27.1352   -7.1055  147.1272 C   0  0  0  0  0  0  0  0  0  0  0  0
  -27.9413   -8.3330  146.5316 C   0  0  0  0  0  0  0  0  0  0  0  0
  -27.2350   -6.6616  148.5941 C   0  0  0  0  0  0  0  0  0  0  0  0
  -25.7175   -7.4503  147.2693 N   0  0  0  0  0  0  0  0  0  0  0  0
  -29.4748   -8.3541  146.5139 C   0  0  0  0  0  0  0  0  0  0  0  0
  -29.9234   -9.7925  146.8549 C   0  0  0  0  0  0  0  0  0  0  0  0
  -30.1300   -7.0084  146.9580 C   0  0  0  0  0  0  0  0  0  0  0  0
  -30.7812   -6.7192  148.2852 C   0  0  0  0  0  0  0  0  0  0  0  0
  -30.9510  -10.2713  147.9120 C   0  0  0  0  0  0  0  0  0  0  0  0
  -31.5073   -5.3952  148.2859 C   0  0  0  0  0  0  0  0  0  0  0  0
  -28.7143   -9.1773  147.5275 C   0  0  0  0  0  0  0  0  0  0  0  0
  -31.6436   -7.0435  147.0715 C   0  0  0  0  0  0  0  0  0  0  0  0
  -30.7171  -12.6987  148.8815 C   0  0  0  0  0  0  0  0  0  0  0  0
  -32.3100   -5.7432  147.1330 N   0  0  0  0  0  0  0  0  0  0  0  0
  -30.8508  -13.0060  151.3281 C   0  0  0  0  0  0  0  0  0  0  0  0
  -30.3198  -11.1909  149.0249 C   0  0  0  0  0  0  0  0  0  0  0  0
  -30.3687  -13.4641  150.1549 C   0  0  0  0  0  0  0  0  0  0  0  0
  -29.6601  -14.8250  150.0743 C   0  0  0  0  0  0  0  0  0  0  0  0
  2  1  2  0
  3  2  1  0
  4  2  1  0
  5  4  1  0
  6  5  1  0
  8  7  1  0
  9  6  1  0
  9  7  1  0
 10  5  1  0
 10  6  1  0
 10  7  1  0
 11  8  1  0
 12 11  1  0
 13 11  1  0
 14 13  1  0
 15 12  1  0
 16 14  1  0
 17  8  1  0
 17 11  1  0
 17 12  1  0
 18 13  1  0
 18 14  1  0
 20 16  1  0
 20 18  1  0
 22 15  1  0
 22 19  1  0
 23 19  1  0
 23 21  2  0
 24 23  1  0
M  END
$$$$

     RDKit          3D

 24 28  0  0  0  0  0  0  0  0999 V2000
  -31.6098  -15.4434  149.1622 O   0  0  0  0  0  0  0  0  0  0  0  0
  -30.4584  -15.1162  148.4320 C   0  0  0  0  0  0  0  0  0  0  0  0
  -30.3850  -13.7025  148.3855 O   0  0  0  0  0  0  0  0  0  0  0  0
  -29.1595  -15.7234  149.1003 C   0  0  0  0  0  0  0  0  0  0  0  0
  -29.3585  -17.3550  149.1732 C   0  0  0  0  0  0  0  0  0  0  0  0
  -27.9580  -15.1106  148.2434 C   0  0  0  0  0  0  0  0  0  0  0  0
  -27.2662  -15.7139  147.0143 C   0  0  0  0  0  0  0  0  0  0  0  0
  -27.9695  -16.9724  146.5053 C   0  0  0  0  0  0  0  0  0  0  0  0
  -30.1049  -18.0476  150.4324 C   0  0  0  0  0  0  0  0  0  0  0  0
  -27.6428  -18.2264  147.3003 C   0  0  0  0  0  0  0  0  0  0  0  0
  -31.1177  -17.2490  151.2466 C   0  0  0  0  0  0  0  0  0  0  0  0
  -27.5095  -14.4069  146.2523 C   0  0  0  0  0  0  0  0  0  0  0  0
  -26.5262  -15.5918  148.3602 C   0  0  0  0  0  0  0  0  0  0  0  0
  -31.0226  -16.7444  152.5029 C   0  0  0  0  0  0  0  0  0  0  0  0
  -28.1675  -18.2709  148.7519 C   0  0  0  0  0  0  0  0  0  0  0  0
  -29.2621  -15.2644  153.5613 C   0  0  0  0  0  0  0  0  0  0  0  0
  -26.2283  -13.7304  145.7481 C   0  0  0  0  0  0  0  0  0  0  0  0
  -28.1172  -13.7721  147.5087 C   0  0  0  0  0  0  0  0  0  0  0  0
  -27.9265  -15.0330  152.8250 C   0  0  0  0  0  0  0  0  0  0  0  0
  -27.8593  -15.5396  151.3710 C   0  0  0  0  0  0  0  0  0  0  0  0
  -29.3061  -19.0660  151.2993 C   0  0  0  0  0  0  0  0  0  0  0  0
  -29.5698  -13.3033  147.3114 C   0  0  0  0  0  0  0  0  0  0  0  0
  -29.8195  -16.6920  153.4218 C   0  0  0  0  0  0  0  0  0  0  0  0
  -29.0052  -15.0226  150.4907 C   0  0  0  0  0  0  0  0  0  0  0  0
  2  1  1  0
  3  2  1  0
  4  2  1  0
  5  4  1  0
  6  4  1  0
  7  6  1  0
  8  7  1  0
  9  5  1  0
 10  8  1  0
 11  9  1  0
 12  7  1  0
 13  6  1  0
 13  7  1  0
 14 11  2  3
 15  5  1  0
 15 10  1  0
 17 12  1  0
 18  6  1  0
 18 12  1  0
 19 16  1  0
 20 19  1  0
 21  9  1  0
 22  3  1  0
 22 18  1  0
 23 14  1  0
 23 16  1  0
 24  4  1  0
 24 20  1  0
M  END
$$$$

     RDKit          3D

 24 29  0  0  0  0  0  0  0  0999 V2000
  -29.2600  -23.7462  139.1221 C   0  0  0  0  0  0  0  0  0  0  0  0
  -26.0671  -23.4072  138.4206 S   0  0  0  0  0  0  0  0  0  0  0  0
  -28.3100  -23.0163  140.0963 C   0  0  0  0  0  0  0  0  0  0  0  0
  -29.0304  -23.3495  137.7975 O   0  0  0  0  0  0  0  0  0  0  0  0
  -28.2437  -21.5662  139.8487 N   0  0  0  0  0  0  0  0  0  0  0  0
  -29.5441  -20.8822  139.9330 C   0  0  0  0  0  0  0  0  0  0  0  0
  -24.7800  -22.1992  138.9443 C   0  0  0  0  0  0  0  0  0  0  0  0
  -23.5817  -22.7427  139.7220 C   0  0  0  0  0  0  0  0  0  0  0  0
  -30.3567  -20.9951  141.2443 C   0  0  0  0  0  0  0  0  0  0  0  0
  -25.2693  -20.8104  139.3147 C   0  0  0  0  0  0  0  0  0  0  0  0
  -30.1773  -20.5457  138.5782 C   0  0  0  0  0  0  0  0  0  0  0  0
  -26.8857  -23.6153  140.0543 C   0  0  0  0  0  0  0  0  0  0  0  0
  -31.7155  -20.4215  138.4786 C   0  0  0  0  0  0  0  0  0  0  0  0
  -32.3267  -20.6300  137.0962 C   0  0  0  0  0  0  0  0  0  0  0  0
  -32.5038  -21.2606  139.3105 O   0  0  0  0  0  0  0  0  0  0  0  0
  -33.4290  -19.8604  137.7956 C   0  0  0  0  0  0  0  0  0  0  0  0
  -33.8003  -20.8776  138.8644 C   0  0  0  0  0  0  0  0  0  0  0  0
  -34.4975  -19.1461  136.9774 C   0  0  0  0  0  0  0  0  0  0  0  0
  -32.3952  -19.0560  138.5591 C   0  0  0  0  0  0  0  0  0  0  0  0
  -25.5805  -19.9861  138.0804 C   0  0  0  0  0  0  0  0  0  0  0  0
  -25.3505  -20.7912  136.8193 C   0  0  0  0  0  0  0  0  0  0  0  0
  -24.4571  -21.0117  138.0351 C   0  0  0  0  0  0  0  0  0  0  0  0
  -29.5208  -20.8045  142.3556 O   0  0  0  0  0  0  0  0  0  0  0  0
  -29.4659  -19.4587  139.3856 C   0  0  0  0  0  0  0  0  0  0  0  0
  3  1  1  0
  4  1  1  0
  5  3  1  0
  6  5  1  0
  7  2  1  0
  8  7  1  0
  9  6  1  0
 10  7  1  0
 11  6  1  0
 12  2  1  0
 12  3  1  0
 13 11  1  0
 14 13  1  0
 15 13  1  0
 16 14  1  0
 17 15  1  0
 17 16  1  0
 18 16  1  0
 19 13  1  0
 19 16  1  0
 20 10  1  0
 21 20  1  0
 22  7  1  0
 22 10  1  0
 22 20  1  0
 22 21  1  0
 23  9  1  0
 24  6  1  0
 24 11  1  0
M  END
$$$$

     RDKit          3D

 17 18  0  0  0  0  0  0  0  0999 V2000
  -24.0958  -19.0995  146.9490 O   0  0  0  0  0  0  0  0  0  0  0  0
  -23.6774  -20.4237  146.7415 C   0  0  0  0  0  0  0  0  0  0  0  0
  -22.5302  -20.4295  145.7258 C   0  0  0  0  0  0  0  0  0  0  0  0
  -22.1389  -21.8572  145.3101 C   0  0  0  0  0  0  0  0  0  0  0  0
  -24.8722  -21.2747  146.2612 C   0  0  0  0  0  0  0  0  0  0  0  0
  -23.3444  -22.6977  144.7982 C   0  0  0  0  0  0  0  0  0  0  0  0
  -24.4684  -22.7222  145.8957 C   0  0  0  0  0  0  0  0  0  0  0  0
  -23.8793  -22.1346  143.4466 C   0  0  0  0  0  0  0  0  0  0  0  0
  -22.4948  -24.0008  142.9633 C   0  0  0  0  0  0  0  0  0  0  0  0
  -24.1104  -23.6719  147.2566 C   0  0  0  0  0  0  0  0  0  0  0  0
  -22.8377  -22.5548  149.5548 O   0  0  0  0  0  0  0  0  0  0  0  0
  -24.6168  -22.7799  149.1522 Se  0  0  0  0  0  2  0  0  0  0  0  0
  -23.0323  -22.7605  142.3321 C   0  0  0  0  0  0  0  0  0  0  0  0
  -22.8604  -24.1110  144.4025 C   0  0  0  0  0  0  0  0  0  0  0  0
  -23.8679  -23.0531  141.0792 C   0  0  0  0  0  0  0  0  0  0  0  0
  -21.7098  -24.8876  142.3387 C   0  0  0  0  0  0  0  0  0  0  0  0
  -23.6286  -25.0731  147.1216 C   0  0  0  0  0  0  0  0  0  0  0  0
  2  1  1  0
  3  2  1  0
  4  3  1  0
  5  2  1  0
  6  4  1  0
  7  5  1  0
  7  6  1  0
  8  6  1  0
 10  7  1  0
 12 10  1  0
 12 11  1  0
 13  8  1  0
 13  9  1  0
 14  6  1  0
 14  9  1  0
 15 13  1  0
 16  9  2  0
 17 10  2  0
M  END
$$$$

     RDKit          3D

 24 30  0  0  0  0  0  0  0  0999 V2000
  -18.8603   -2.7338  136.3154 O   0  0  0  0  0  0  0  0  0  0  0  0
  -20.2096    0.1125  133.0674 C   0  0  0  0  0  0  0  0  0  0  0  0
  -21.1638    0.6282  134.1688 N   0  0  0  0  0  0  0  0  0  0  0  0
  -20.7509   -0.0885  131.6658 N   0  0  0  0  0  0  0  0  0  0  0  0
  -20.2966    2.1514  135.5630 C   0  0  0  0  0  0  0  0  0  0  0  0
  -19.8555    1.7540  130.0117 C   0  0  0  0  0  0  0  0  0  0  0  0
  -20.1775    3.2255  129.4526 C   0  0  0  0  0  0  0  0  0  0  0  0
  -21.0744    1.0026  130.6808 C   0  0  0  0  0  0  0  0  0  0  0  0
  -18.9388    2.7179  135.0873 C   0  0  0  0  0  0  0  0  0  0  0  0
  -21.7671    3.1966  133.4325 C   0  0  0  0  0  0  0  0  0  0  0  0
  -21.2496    4.6389  133.1410 C   0  0  0  0  0  0  0  0  0  0  0  0
  -21.3889    2.1013  134.5033 C   0  0  0  0  0  0  0  0  0  0  0  0
  -18.1289    3.3365  136.2352 C   0  0  0  0  0  0  0  0  0  0  0  0
  -21.9771    1.9734  131.3334 C   0  0  0  0  0  0  0  0  0  0  0  0
  -17.4950    2.3402  137.2165 C   0  0  0  0  0  0  0  0  0  0  0  0
  -18.4251    1.2911  137.7702 C   0  0  0  0  0  0  0  0  0  0  0  0
  -20.7039    4.3887  130.4176 C   0  0  0  0  0  0  0  0  0  0  0  0
  -20.4737    4.1157  131.9160 C   0  0  0  0  0  0  0  0  0  0  0  0
  -18.3938   -0.0395  137.0528 C   0  0  0  0  0  0  0  0  0  0  0  0
  -19.2603   -0.3825  135.7995 C   0  0  0  0  0  0  0  0  0  0  0  0
  -20.4536    0.6150  135.4945 C   0  0  0  0  0  0  0  0  0  0  0  0
  -19.8690   -1.7756  136.0903 C   0  0  0  0  0  0  0  0  0  0  0  0
  -21.0391    2.7753  132.2527 C   0  0  0  0  0  0  0  0  0  0  0  0
  -17.2878    0.9357  136.7389 C   0  0  0  0  0  0  0  0  0  0  0  0
  3  2  1  0
  4  2  1  0
  7  6  1  0
  8  4  1  0
  8  6  1  0
  9  5  1  0
 11 10  1  0
 12  3  1  0
 12  5  1  0
 12 10  1  0
 13  9  1  0
 14  8  1  0
 15 13  1  0
 16 15  1  0
 17  7  1  0
 18 11  1  0
 18 17  1  0
 19 16  1  0
 20 19  1  0
 21  3  1  0
 21  5  1  0
 21 20  1  0
 22  1  1  0
 22 20  1  0
 23 10  1  0
 23 14  1  0
 23 18  1  0
 24 15  1  0
 24 16  1  0
 24 19  1  0
M  END
$$$$

     RDKit          3D

 23 26  0  0  0  0  0  0  0  0999 V2000
  -25.0960  -13.1405  151.1078 C   0  0  0  0  0  0  0  0  0  0  0  0
  -24.9541  -11.9306  152.0572 C   0  0  0  0  0  0  0  0  0  0  0  0
  -27.9944  -15.5993  149.2737 C   0  0  0  0  0  0  0  0  0  0  0  0
  -26.3951  -13.3010  153.7654 C   0  0  0  0  0  0  0  0  0  0  0  0
  -24.0779  -13.4616  149.9834 C   0  0  0  0  0  0  0  0  0  0  0  0
  -25.7574  -17.0177  149.5822 C   0  0  0  0  0  0  0  0  0  0  0  0
  -26.5958  -18.2004  149.9044 N   0  0  0  0  0  0  0  0  0  0  0  0
  -26.8142  -16.6686  147.4190 N   0  0  0  0  0  0  0  0  0  0  0  0
  -28.2499  -15.2521  150.7163 C   0  0  0  0  0  0  0  0  0  0  0  0
  -25.7081  -14.6323  148.3592 C   0  0  0  0  0  0  0  0  0  0  0  0
  -25.1258  -12.3840  153.5393 C   0  0  0  0  0  0  0  0  0  0  0  0
  -22.6253  -15.3586  150.5515 C   0  0  0  0  0  0  0  0  0  0  0  0
  -21.3879  -15.6489  151.3994 C   0  0  0  0  0  0  0  0  0  0  0  0
  -26.5343  -15.9817  148.7071 C   0  0  0  0  0  0  0  0  0  0  0  0
  -23.6507  -16.4635  150.9449 C   0  0  0  0  0  0  0  0  0  0  0  0
  -22.9157  -13.9247  150.6808 O   0  0  0  0  0  0  0  0  0  0  0  0
  -24.4347  -14.5020  149.0136 O   0  0  0  0  0  0  0  0  0  0  0  0
  -25.2221  -16.4028  150.8790 C   0  0  0  0  0  0  0  0  0  0  0  0
  -20.6125  -17.0310  151.4531 C   0  0  0  0  0  0  0  0  0  0  0  0
  -22.8407  -15.7035  152.0054 C   0  0  0  0  0  0  0  0  0  0  0  0
  -19.2114  -16.5636  151.9599 C   0  0  0  0  0  0  0  0  0  0  0  0
  -19.0472  -15.1661  151.2774 C   0  0  0  0  0  0  0  0  0  0  0  0
  -20.3483  -14.5032  151.6884 C   0  0  0  0  0  0  0  0  0  0  0  0
  2  1  1  0
  5  1  1  0
  7  6  1  0
  9  3  1  0
 11  2  1  0
 11  4  1  0
 13 12  1  0
 14  3  1  0
 14  6  1  0
 14  8  1  0
 14 10  1  0
 15 12  1  0
 16  5  1  0
 16 12  1  0
 17  5  1  0
 17 10  1  0
 18  6  1  0
 18 15  1  0
 19 13  1  0
 20 12  1  0
 20 13  1  0
 20 15  1  0
 21 19  1  0
 22 21  1  0
 23 13  1  0
 23 22  1  0
M  END
$$$$

     RDKit          3D

 24 27  0  0  0  0  0  0  0  0999 V2000
  -16.4086   -3.9082  150.1049 O   0  0  0  0  0  0  0  0  0  0  0  0
  -17.7341   -3.4359  150.0969 C   0  0  0  0  0  0  0  0  0  0  0  0
  -18.2578   -3.3597  148.6234 C   0  0  0  0  0  0  0  0  0  0  0  0
  -18.6500   -4.4212  150.8924 C   0  0  0  0  0  0  0  0  0  0  0  0
  -17.9409   -5.0506  151.9320 O   0  0  0  0  0  0  0  0  0  0  0  0
  -19.9852   -3.8386  151.3350 C   0  0  0  0  0  0  0  0  0  0  0  0
  -20.2429   -2.3318  151.4645 C   0  0  0  0  0  0  0  0  0  0  0  0
  -19.4667   -1.8261  152.6902 C   0  0  0  0  0  0  0  0  0  0  0  0
  -20.4313   -1.4600  153.7977 C   0  0  0  0  0  0  0  0  0  0  0  0
  -20.2845   -1.8852  155.0483 C   0  0  0  0  0  0  0  0  0  0  0  0
  -21.1524   -4.7758  151.3100 C   0  0  0  0  0  0  0  0  0  0  0  0
  -19.1739   -2.7579  155.4299 C   0  0  0  0  0  0  0  0  0  0  0  0
  -18.3107   -3.2150  154.5256 C   0  0  0  0  0  0  0  0  0  0  0  0
  -18.4574   -2.9445  153.0505 C   0  0  0  0  0  0  0  0  0  0  0  0
  -18.9745   -4.2175  152.3830 C   0  0  0  0  0  0  0  0  0  0  0  0
  -17.7483   -4.5274  147.7242 C   0  0  0  0  0  0  0  0  0  0  0  0
  -16.3819   -4.2867  147.0353 C   0  0  0  0  0  0  0  0  0  0  0  0
  -16.5412   -3.5428  145.7235 C   0  0  0  0  0  0  0  0  0  0  0  0
  -15.6616   -2.6671  145.1942 C   0  0  0  0  0  0  0  0  0  0  0  0
  -15.5893   -5.8446  146.6918 Cl  0  0  0  0  0  0  0  0  0  0  0  0
  -21.8754   -4.9378  150.2006 C   0  0  0  0  0  0  0  0  0  0  0  0
  -18.0346   -1.9723  148.0042 C   0  0  0  0  0  0  0  0  0  0  0  0
  -14.3631   -2.2169  145.8207 C   0  0  0  0  0  0  0  0  0  0  0  0
  -14.3340   -0.6983  145.9510 C   0  0  0  0  0  0  0  0  0  0  0  0
  2  1  1  0
  3  2  1  0
  4  2  1  0
  5  4  1  0
  6  4  1  0
  7  6  1  0
  8  7  1  0
  9  8  1  0
 10  9  2  0
 11  6  1  0
 12 10  1  0
 13 12  2  0
 14  8  1  0
 14 13  1  0
 15  4  1  0
 15  5  1  0
 15  6  1  0
 15 14  1  0
 16  3  1  0
 17 16  1  0
 18 17  1  0
 19 18  2  3
 20 17  1  0
 21 11  2  0
 22  3  1  0
 23 19  1  0
 24 23  1  0
M  END
$$$$

     RDKit          3D

 24 31  0  0  0  0  0  0  0  0999 V2000
  -34.1301   -9.3156  140.1471 O   0  0  0  0  0  0  0  0  0  0  0  0
  -34.0728   -9.2826  141.5530 C   0  0  0  0  0  0  0  0  0  0  0  0
  -33.1635  -10.4100  142.0959 C   0  0  0  0  0  0  0  0  0  0  0  0
  -32.2916  -11.1844  141.1045 C   0  0  0  0  0  0  0  0  0  0  0  0
  -33.5909   -7.8769  142.0459 C   0  0  0  0  0  0  0  0  0  0  0  0
  -32.1043   -7.6903  142.0212 N   0  0  0  0  0  0  0  0  0  0  0  0
  -31.3607   -8.7645  141.3469 C   0  0  0  0  0  0  0  0  0  0  0  0
  -31.9629  -12.5403  141.5667 N   0  0  0  0  0  0  0  0  0  0  0  0
  -31.6669  -10.1194  141.9970 C   0  0  0  0  0  0  0  0  0  0  0  0
  -31.3192   -7.3146  143.5455 Cl  0  0  0  0  0  0  0  0  0  0  0  0
  -31.1212  -13.2533  140.5942 C   0  0  0  0  0  0  0  0  0  0  0  0
  -31.6294  -13.5291  139.1816 C   0  0  0  0  0  0  0  0  0  0  0  0
  -33.0460  -13.4932  141.3235 C   0  0  0  0  0  0  0  0  0  0  0  0
  -31.7500  -15.7043  140.6937 C   0  0  0  0  0  0  0  0  0  0  0  0
  -34.2998   -7.4218  143.3597 C   0  0  0  0  0  0  0  0  0  0  0  0
  -34.3591   -8.4864  144.4762 C   0  0  0  0  0  0  0  0  0  0  0  0
  -32.2346  -14.2944  140.3270 C   0  0  0  0  0  0  0  0  0  0  0  0
  -34.8739   -7.9514  145.7558 C   0  0  0  0  0  0  0  0  0  0  0  0
  -33.3649   -8.2933  145.6598 C   0  0  0  0  0  0  0  0  0  0  0  0
  -33.2178   -8.9834  147.0667 C   0  0  0  0  0  0  0  0  0  0  0  0
  -32.2889   -7.9494  147.7265 C   0  0  0  0  0  0  0  0  0  0  0  0
  -31.6518   -8.4078  148.9985 C   0  0  0  0  0  0  0  0  0  0  0  0
  -32.8284   -9.6947  145.7967 C   0  0  0  0  0  0  0  0  0  0  0  0
  -32.0238   -9.4256  147.9395 C   0  0  0  0  0  0  0  0  0  0  0  0
  2  1  1  0
  3  2  1  0
  4  3  1  0
  5  2  1  0
  6  5  1  0
  7  6  1  0
  8  4  1  0
  9  3  1  0
  9  4  1  0
  9  7  1  0
 10  6  1  0
 11  8  1  0
 12 11  1  0
 13  8  1  0
 15  5  1  0
 16 15  1  0
 17 11  1  0
 17 12  1  0
 17 13  1  0
 17 14  1  0
 18 16  1  0
 19 16  1  0
 19 18  1  0
 20 19  1  0
 21 20  1  0
 22 21  1  0
 23 19  1  0
 23 20  1  0
 24 20  1  0
 24 21  1  0
 24 22  1  0
M  END
$$$$

     RDKit          3D

 24 28  0  0  0  0  0  0  0  0999 V2000
  -21.6054   -2.7302  138.1884 N   0  0  0  0  0  0  0  0  0  0  0  0
  -19.5189   -0.3975  134.6938 C   0  0  0  0  0  0  0  0  0  0  0  0
  -18.3554   -0.9850  134.6100 N   0  0  0  0  0  0  0  0  0  0  0  0
  -17.2362   -0.9617  135.5658 C   0  0  0  0  0  0  0  0  0  0  0  0
  -19.8237    0.5567  135.7248 N   0  0  0  0  0  0  0  0  0  0  0  0
  -16.5674    0.2881  135.9554 N   0  0  0  0  0  0  0  0  0  0  0  0
  -16.9443    0.0024  137.3522 C   0  0  0  0  0  0  0  0  0  0  0  0
  -16.7203   -2.2045  136.2595 C   0  0  0  0  0  0  0  0  0  0  0  0
  -15.7737   -0.2865  138.1998 N   0  0  0  0  0  0  0  0  0  0  0  0
  -17.4623   -3.5239  136.1179 C   0  0  0  0  0  0  0  0  0  0  0  0
  -15.3862    0.8721  138.9126 N   0  0  0  0  0  0  0  0  0  0  0  0
  -21.7454   -1.7265  137.1404 C   0  0  0  0  0  0  0  0  0  0  0  0
  -16.6266   -4.7746  136.2657 C   0  0  0  0  0  0  0  0  0  0  0  0
  -20.9722   -0.9099  133.2468 I   0  0  0  0  0  0  0  0  0  0  0  0
  -22.0292    0.2237  138.7290 C   0  0  0  0  0  0  0  0  0  0  0  0
  -21.6260   -0.1380  140.1546 C   0  0  0  0  0  0  0  0  0  0  0  0
  -17.2457   -5.9642  136.2242 C   0  0  0  0  0  0  0  0  0  0  0  0
  -21.1705   -0.3720  137.5913 C   0  0  0  0  0  0  0  0  0  0  0  0
  -21.1146    0.6249  136.4083 C   0  0  0  0  0  0  0  0  0  0  0  0
  -15.1281   -4.7062  136.4267 C   0  0  0  0  0  0  0  0  0  0  0  0
  -17.7236   -1.2388  136.9479 C   0  0  0  0  0  0  0  0  0  0  0  0
  -22.7944   -0.1771  141.1459 C   0  0  0  0  0  0  0  0  0  0  0  0
  -21.2733    1.2356  139.5934 C   0  0  0  0  0  0  0  0  0  0  0  0
  -17.5673   -2.6798  137.3967 C   0  0  0  0  0  0  0  0  0  0  0  0
  3  2  2  3
  4  3  1  0
  5  2  1  0
  6  4  1  0
  7  6  1  0
  8  4  1  0
  9  7  1  0
 10  8  1  0
 11  9  1  0
 12  1  1  0
 13 10  1  0
 14  2  1  0
 16 15  1  0
 17 13  2  0
 18 12  1  0
 18 15  1  0
 19  5  1  0
 19 18  1  0
 20 13  1  0
 21  4  1  0
 21  7  1  0
 21  8  1  0
 22 16  1  0
 23 15  1  0
 23 16  1  0
 24  8  1  0
 24 10  1  0
 24 21  1  0
M  END
$$$$

     RDKit          3D

 24 33  0  0  0  0  0  0  0  0999 V2000
  -22.2345   -4.9165  149.5538 O   0  0  0  0  0  0  0  0  0  0  0  0
  -23.6088   -5.0725  149.1620 C   0  0  0  0  0  0  0  0  0  0  0  0
  -22.9245   -7.1505  149.3469 O   0  0  0  0  0  0  0  0  0  0  0  0
  -23.8833   -5.0776  147.6547 C   0  0  0  0  0  0  0  0  0  0  0  0
  -24.4571   -6.3878  145.9457 C   0  0  0  0  0  0  0  0  0  0  0  0
  -23.0440   -7.8002  146.8892 C   0  0  0  0  0  0  0  0  0  0  0  0
  -24.0551   -8.7885  147.7948 C   0  0  0  0  0  0  0  0  0  0  0  0
  -23.1730   -6.0996  146.7226 C   0  0  0  0  0  0  0  0  0  0  0  0
  -23.9005   -7.8367  145.6785 C   0  0  0  0  0  0  0  0  0  0  0  0
  -25.2152   -9.4795  148.5793 C   0  0  0  0  0  0  0  0  0  0  0  0
  -23.8242  -11.7251  149.2930 C   0  0  0  0  0  0  0  0  0  0  0  0
  -22.8583  -11.3786  148.0727 C   0  0  0  0  0  0  0  0  0  0  0  0
  -23.6560  -12.8726  146.4773 C   0  0  0  0  0  0  0  0  0  0  0  0
  -23.1434   -9.9740  148.3086 C   0  0  0  0  0  0  0  0  0  0  0  0
  -24.8640  -10.5429  145.8787 C   0  0  0  0  0  0  0  0  0  0  0  0
  -26.1710  -10.0375  146.4375 C   0  0  0  0  0  0  0  0  0  0  0  0
  -24.9563   -6.0860  147.6167 C   0  0  0  0  0  0  0  0  0  0  0  0
  -23.4595   -6.8183  144.6750 C   0  0  0  0  0  0  0  0  0  0  0  0
  -25.6846   -8.8962  147.3069 C   0  0  0  0  0  0  0  0  0  0  0  0
  -24.5395   -4.3199  150.1204 C   0  0  0  0  0  0  0  0  0  0  0  0
  -24.1482   -6.4978  149.1545 C   0  0  0  0  0  0  0  0  0  0  0  0
  -24.4678  -10.7842  148.3965 C   0  0  0  0  0  0  0  0  0  0  0  0
  -24.0219  -11.4559  147.0452 C   0  0  0  0  0  0  0  0  0  0  0  0
  -24.1447   -9.3243  145.0579 C   0  0  0  0  0  0  0  0  0  0  0  0
  2  1  1  0
  4  2  1  0
  7  6  1  0
  8  4  1  0
  8  5  1  0
  8  6  1  0
  9  5  1  0
  9  6  1  0
 10  7  1  0
 12 11  1  0
 14  7  1  0
 14 12  1  0
 16 15  1  0
 17  4  1  0
 17  5  1  0
 18  5  1  0
 18  9  1  0
 19  7  1  0
 19 10  1  0
 19 16  1  0
 20  2  1  0
 21  2  1  0
 21  3  1  0
 21 17  1  0
 22 10  1  0
 22 11  1  0
 22 14  1  0
 23 12  1  0
 23 13  1  0
 23 15  1  0
 23 22  1  0
 24  9  1  0
 24 15  1  0
M  END
$$$$

     RDKit          3D

 11 10  0  0  0  0  0  0  0  0999 V2000
  -21.9561   -9.6586  135.3239 N   0  0  0  0  0  0  0  0  0  0  0  0
  -22.3203   -9.5421  136.7586 C   0  0  0  0  0  0  0  0  0  0  0  0
  -22.8835  -10.7853  137.2964 N   0  0  0  0  0  0  0  0  0  0  0  0
  -23.0776   -8.2474  137.2165 C   0  0  0  0  0  0  0  0  0  0  0  0
  -22.5515   -7.0109  136.5304 C   0  0  0  0  0  0  0  0  0  0  0  0
  -22.3090  -10.2829  132.9618 C   0  0  0  0  0  0  0  0  0  0  0  0
  -22.9616   -9.6800  134.2313 C   0  0  0  0  0  0  0  0  0  0  0  0
  -24.2367  -10.4932  134.5358 C   0  0  0  0  0  0  0  0  0  0  0  0
  -23.0011   -6.6723  135.4410 O   0  0  0  0  0  0  0  0  0  0  0  0
  -20.9727   -9.6374  132.5842 C   0  0  0  0  0  0  0  0  0  0  0  0
  -24.5375   -8.3297  137.0850 N   0  0  0  0  0  0  0  0  0  0  0  0
  2  1  1  0
  3  2  1  0
  4  2  1  0
  5  4  1  0
  7  1  1  0
  7  6  1  0
  8  7  1  0
  9  5  2  0
 10  6  1  0
 11  4  1  0
M  END
$$$$

     RDKit          3D

 23 28  0  0  0  0  0  0  0  0999 V2000
  -29.0660   -6.0138  136.2023 C   0  0  0  0  0  0  0  0  0  0  0  0
  -27.9989   -7.1014  136.0641 C   0  0  0  0  0  0  0  0  0  0  0  0
  -29.3171   -5.4864  134.7816 C   0  0  0  0  0  0  0  0  0  0  0  0
  -27.5175   -7.3854  137.5229 C   0  0  0  0  0  0  0  0  0  0  0  0
  -28.7814   -8.4375  135.6048 C   0  0  0  0  0  0  0  0  0  0  0  0
  -28.1546   -4.9976  133.9160 C   0  0  0  0  0  0  0  0  0  0  0  0
  -28.9506   -9.7600  136.2567 N   0  0  0  0  0  0  0  0  0  0  0  0
  -30.4361   -5.5703  134.2875 O   0  0  0  0  0  0  0  0  0  0  0  0
  -30.2192  -10.5269  136.1177 C   0  0  0  0  0  0  0  0  0  0  0  0
  -27.7628   -6.0741  132.8625 C   0  0  0  0  0  0  0  0  0  0  0  0
  -27.4345   -8.3453  136.4042 C   0  0  0  0  0  0  0  0  0  0  0  0
  -30.0880  -11.8404  136.7346 N   0  0  0  0  0  0  0  0  0  0  0  0
  -32.2233  -11.3285  137.9590 C   0  0  0  0  0  0  0  0  0  0  0  0
  -32.6165  -10.8777  135.2718 B   0  0  0  0  0  0  0  0  0  0  0  0
  -31.0756  -10.5704  134.8569 C   0  0  0  0  0  0  0  0  0  0  0  0
  -27.9174   -5.0315  130.5230 C   0  0  0  0  0  0  0  0  0  0  0  0
  -33.1326  -11.4548  136.7229 C   0  0  0  0  0  0  0  0  0  0  0  0
  -28.5385   -6.0244  131.5233 C   0  0  0  0  0  0  0  0  0  0  0  0
  -28.3755   -3.5951  133.3684 C   0  0  0  0  0  0  0  0  0  0  0  0
  -30.9600  -12.1976  137.8460 C   0  0  0  0  0  0  0  0  0  0  0  0
  -30.1934   -9.3074  136.9121 C   0  0  0  0  0  0  0  0  0  0  0  0
  -30.2506   -6.6929  136.8170 C   0  0  0  0  0  0  0  0  0  0  0  0
  -30.1976   -8.0354  136.1247 C   0  0  0  0  0  0  0  0  0  0  0  0
  2  1  1  0
  3  1  1  0
  4  2  1  0
  5  2  1  0
  6  3  1  0
  7  5  1  0
  8  3  2  0
  9  7  1  0
 10  6  1  0
 11  2  1  0
 11  4  1  0
 11  5  1  0
 12  9  1  0
 15  9  1  0
 15 14  1  0
 17 13  1  0
 17 14  1  0
 18 10  1  0
 18 16  1  0
 19  6  1  0
 20 12  1  0
 20 13  1  0
 21  7  1  0
 21  9  1  0
 22  1  1  0
 23  5  1  0
 23 21  1  0
 23 22  1  0
M  END
$$$$

     RDKit          3D

 24 29  0  0  0  0  0  0  0  0999 V2000
  -24.6514  -16.7550  141.7278 C   0  0  0  0  0  0  0  0  0  0  0  0
  -23.7629  -17.3153  142.7096 O   0  0  0  0  0  0  0  0  0  0  0  0
  -24.3753  -17.4117  143.9753 C   0  0  0  0  0  0  0  0  0  0  0  0
  -23.1863  -17.0847  144.8447 C   0  0  0  0  0  0  0  0  0  0  0  0
  -24.1138  -18.1221  145.2992 C   0  0  0  0  0  0  0  0  0  0  0  0
  -23.9435  -16.9604  140.3939 C   0  0  0  0  0  0  0  0  0  0  0  0
  -25.0633  -15.2285  141.8277 C   0  0  0  0  0  0  0  0  0  0  0  0
  -25.2593  -14.4885  143.2122 C   0  0  0  0  0  0  0  0  0  0  0  0
  -27.3739  -15.8008  143.7524 C   0  0  0  0  0  0  0  0  0  0  0  0
  -24.9640  -12.9743  142.9996 C   0  0  0  0  0  0  0  0  0  0  0  0
  -25.0105  -17.9510  139.9326 C   0  0  0  0  0  0  0  0  0  0  0  0
  -25.1170  -17.6070  146.3391 C   0  0  0  0  0  0  0  0  0  0  0  0
  -24.7882  -18.9373  144.1879 C   0  0  0  0  0  0  0  0  0  0  0  0
  -24.8962  -12.0881  144.2647 C   0  0  0  0  0  0  0  0  0  0  0  0
  -23.4849  -11.9478  144.9298 C   0  0  0  0  0  0  0  0  0  0  0  0
  -24.2533  -20.3247  144.6692 C   0  0  0  0  0  0  0  0  0  0  0  0
  -25.7513  -17.7449  141.2488 C   0  0  0  0  0  0  0  0  0  0  0  0
  -23.6669  -11.1679  146.2595 C   0  0  0  0  0  0  0  0  0  0  0  0
  -22.8030  -13.3214  145.1214 C   0  0  0  0  0  0  0  0  0  0  0  0
  -24.7765  -16.6943  139.1439 C   0  0  0  0  0  0  0  0  0  0  0  0
  -26.7115  -14.6398  143.7130 C   0  0  0  0  0  0  0  0  0  0  0  0
  -23.7835  -19.8057  143.3666 C   0  0  0  0  0  0  0  0  0  0  0  0
  -22.6208  -10.0531  146.4882 C   0  0  0  0  0  0  0  0  0  0  0  0
  -22.6362  -11.2741  147.3865 C   0  0  0  0  0  0  0  0  0  0  0  0
  2  1  1  0
  3  2  1  0
  4  3  1  0
  5  3  1  0
  5  4  1  0
  6  1  1  0
  7  1  1  0
  8  7  1  0
 10  8  1  0
 11  6  1  0
 12  5  1  0
 13  3  1  0
 13  5  1  0
 14 10  1  0
 15 14  1  0
 16 13  1  0
 17  1  1  0
 17 11  1  0
 18 15  1  0
 19 15  1  0
 20  6  1  0
 20 11  1  0
 21  8  1  0
 21  9  2  0
 22 13  1  0
 22 16  1  0
 23 18  1  0
 24 18  1  0
 24 23  1  0
M  END
$$$$

     RDKit          3D

 24 29  0  0  0  0  0  0  0  0999 V2000
  -25.8841  -22.6267  140.7914 C   0  0  0  0  0  0  0  0  0  0  0  0
  -25.0265  -23.8920  140.9430 C   0  0  0  0  0  0  0  0  0  0  0  0
  -27.3408  -22.7914  141.2329 C   0  0  0  0  0  0  0  0  0  0  0  0
  -25.2697  -24.9458  139.7906 C   0  0  0  0  0  0  0  0  0  0  0  0
  -27.8145  -24.2910  141.4984 C   0  0  0  0  0  0  0  0  0  0  0  0
  -24.6709  -24.8119  138.4162 C   0  0  0  0  0  0  0  0  0  0  0  0
  -26.7506  -25.2255  142.0741 N   0  0  0  0  0  0  0  0  0  0  0  0
  -25.5091  -24.4689  142.3461 C   0  0  0  0  0  0  0  0  0  0  0  0
  -27.8133  -22.0812  139.9662 C   0  0  0  0  0  0  0  0  0  0  0  0
  -26.3567  -22.1188  139.4042 C   0  0  0  0  0  0  0  0  0  0  0  0
  -27.5311  -22.6585  138.6023 C   0  0  0  0  0  0  0  0  0  0  0  0
  -23.7995  -25.7088  137.8750 C   0  0  0  0  0  0  0  0  0  0  0  0
  -25.1340  -26.3424  140.4073 C   0  0  0  0  0  0  0  0  0  0  0  0
  -23.4816  -26.9621  138.6306 C   0  0  0  0  0  0  0  0  0  0  0  0
  -24.7565  -27.4027  139.3976 C   0  0  0  0  0  0  0  0  0  0  0  0
  -24.4697  -25.2601  143.1696 C   0  0  0  0  0  0  0  0  0  0  0  0
  -26.4533  -26.4864  141.2688 C   0  0  0  0  0  0  0  0  0  0  0  0
  -24.2080  -27.6798  143.9324 C   0  0  0  0  0  0  0  0  0  0  0  0
  -23.4137  -24.5901  143.6616 C   0  0  0  0  0  0  0  0  0  0  0  0
  -22.0141  -24.7952  143.1480 C   0  0  0  0  0  0  0  0  0  0  0  0
  -22.9169  -27.7488  144.7562 C   0  0  0  0  0  0  0  0  0  0  0  0
  -21.4506  -27.5385  143.6976 S   0  0  0  0  0  0  0  0  0  0  0  0
  -24.9820  -26.3525  144.1077 C   0  0  0  0  0  0  0  0  0  0  0  0
  -21.1741  -25.7538  144.0189 C   0  0  0  0  0  0  0  0  0  0  0  0
  2  1  1  0
  3  1  1  0
  4  2  1  0
  5  3  1  0
  6  4  1  0
  7  5  1  0
  8  2  1  0
  8  7  1  0
  9  3  1  0
 10  1  1  0
 10  9  1  0
 11  9  1  0
 11 10  1  0
 12  6  2  0
 13  4  1  0
 14 12  1  0
 15 13  1  0
 15 14  1  0
 16  8  1  0
 17  7  1  0
 17 13  1  0
 19 16  2  3
 20 19  1  0
 21 18  1  0
 22 21  1  0
 23 16  1  0
 23 18  1  0
 24 20  1  0
 24 22  1  0
M  END
$$$$

     RDKit          3D

 24 33  0  0  0  0  0  0  0  0999 V2000
  -28.0153   -4.0444  142.4639 C   0  0  0  0  0  0  0  0  0  0  0  0
  -29.0797   -5.0349  142.5053 N   0  0  0  0  0  2  0  0  0  0  0  0
  -28.6153   -6.0882  143.4099 C   0  0  0  0  0  0  0  0  0  0  0  0
  -27.1858   -5.9018  143.7303 N   0  0  0  0  0  0  0  0  0  0  0  0
  -29.3924   -6.0411  144.6544 N   0  0  0  0  0  0  0  0  0  0  0  0
  -26.7917   -4.6013  143.1597 C   0  0  0  0  0  0  0  0  0  0  0  0
  -26.2528   -5.8630  142.5650 C   0  0  0  0  0  0  0  0  0  0  0  0
  -27.3213   -3.8580  141.1277 C   0  0  0  0  0  0  0  0  0  0  0  0
  -27.4970   -5.1826  140.3655 C   0  0  0  0  0  0  0  0  0  0  0  0
  -26.8275   -6.3225  141.1513 C   0  0  0  0  0  0  0  0  0  0  0  0
  -28.3717   -2.9558  141.5126 N   0  0  0  0  0  2  0  0  0  0  0  0
  -24.8726   -6.4478  139.5126 C   0  0  0  0  0  0  0  0  0  0  0  0
  -30.7891   -6.4316  144.3949 C   0  0  0  0  0  0  0  0  0  0  0  0
  -26.2966   -5.9183  139.7349 C   0  0  0  0  0  0  0  0  0  0  0  0
  -31.5359   -6.8907  145.6383 C   0  0  0  0  0  0  0  0  0  0  0  0
  -31.1070   -7.9080  144.5896 C   0  0  0  0  0  0  0  0  0  0  0  0
  -23.7205   -6.2901  140.4931 C   0  0  0  0  0  0  0  0  0  0  0  0
  -23.9796   -4.7971  140.5692 C   0  0  0  0  0  0  0  0  0  0  0  0
  -22.8911   -3.8091  140.0758 C   0  0  0  0  0  0  0  0  0  0  0  0
  -21.4849   -4.2156  140.4201 C   0  0  0  0  0  0  0  0  0  0  0  0
  -20.6507   -4.7701  139.2933 C   0  0  0  0  0  0  0  0  0  0  0  0
  -19.4461   -3.9329  138.8620 C   0  0  0  0  0  0  0  0  0  0  0  0
  -21.9774   -4.1581  138.9191 C   0  0  0  0  0  0  0  0  0  0  0  0
  -25.1239   -4.9354  139.5614 C   0  0  0  0  0  0  0  0  0  0  0  0
  2  1  1  0
  3  2  1  0
  4  3  1  0
  5  3  1  0
  6  1  1  0
  6  4  1  0
  7  4  1  0
  7  6  1  0
  8  1  1  0
  9  8  1  0
 10  7  1  0
 10  9  1  0
 11  1  1  0
 11  8  1  0
 13  5  1  0
 14  9  1  0
 14 10  1  0
 14 12  1  0
 15 13  1  0
 16 13  1  0
 16 15  1  0
 17 12  1  0
 18 17  1  0
 19 18  1  0
 20 19  1  0
 21 20  1  0
 22 21  1  0
 23 19  1  0
 23 20  1  0
 23 21  1  0
 24 12  1  0
 24 14  1  0
 24 18  1  0
M  RAD  2   2   2  11   2
M  END
$$$$

     RDKit          3D

 24 32  0  0  0  0  0  0  0  0999 V2000
  -29.9292   -7.1810  150.8598 O   0  0  0  0  0  0  0  0  0  0  0  0
  -28.8009   -7.1384  149.9824 C   0  0  0  0  0  0  0  0  0  0  0  0
  -27.5703   -7.0377  150.7038 O   0  0  0  0  0  0  0  0  0  0  0  0
  -26.4467   -7.3638  149.8764 C   0  0  0  0  0  0  0  0  0  0  0  0
  -30.3696   -5.9106  151.3453 C   0  0  0  0  0  0  0  0  0  0  0  0
  -31.1594   -5.0685  150.2711 C   0  0  0  0  0  0  0  0  0  0  0  0
  -31.1494   -3.4762  150.1688 C   0  0  0  0  0  0  0  0  0  0  0  0
  -29.8113   -2.8564  150.1180 C   0  0  0  0  0  0  0  0  0  0  0  0
  -29.4296   -2.9316  151.6499 C   0  0  0  0  0  0  0  0  0  0  0  0
  -29.5356   -1.4699  151.8727 C   0  0  0  0  0  0  0  0  0  0  0  0
  -32.1280   -2.9038  149.1444 C   0  0  0  0  0  0  0  0  0  0  0  0
  -28.2757   -0.3917  150.6808 Se  0  0  0  0  0  2  0  0  0  0  0  0
  -30.6956   -2.3658  151.2210 C   0  0  0  0  0  0  0  0  0  0  0  0
  -26.6797   -1.5980  150.7103 C   0  0  0  0  0  0  0  0  0  0  0  0
  -27.2038   -2.9348  151.0182 C   0  0  0  0  0  0  0  0  0  0  0  0
  -26.4873   -2.7418  149.6600 C   0  0  0  0  0  0  0  0  0  0  0  0
  -24.9132   -3.1009  149.4815 C   0  0  0  0  0  0  0  0  0  0  0  0
  -26.2922   -4.0206  151.4098 C   0  0  0  0  0  0  0  0  0  0  0  0
  -23.7294   -4.0963  149.8075 C   0  0  0  0  0  0  0  0  0  0  0  0
  -28.5548   -3.4875  150.6034 C   0  0  0  0  0  0  0  0  0  0  0  0
  -23.7461   -5.4321  148.9545 C   0  0  0  0  0  0  0  0  0  0  0  0
  -25.9238   -4.0783  149.9526 C   0  0  0  0  0  0  0  0  0  0  0  0
  -23.8519   -6.7826  149.7307 C   0  0  0  0  0  0  0  0  0  0  0  0
  -25.0955   -7.0819  150.6190 C   0  0  0  0  0  0  0  0  0  0  0  0
  2  1  1  0
  3  2  1  0
  4  3  1  0
  5  1  1  0
  6  5  1  0
  7  6  1  0
  8  7  1  0
  9  8  1  0
 10  9  1  0
 11  7  1  0
 12 10  1  0
 13  7  1  0
 13  8  1  0
 13  9  1  0
 13 10  1  0
 14 12  1  0
 15 14  1  0
 16 14  1  0
 16 15  1  0
 17 16  1  0
 18 15  1  0
 19 17  1  0
 20  8  1  0
 20  9  1  0
 20 15  1  0
 21 19  1  0
 22 16  1  0
 22 17  1  0
 22 18  1  0
 23 21  1  0
 24  4  1  0
 24 23  1  0
M  END
$$$$

     RDKit          3D

 24 26  0  0  0  0  0  0  0  0999 V2000
  -23.4226  -24.3113  137.1340 O   0  0  0  0  0  0  0  0  0  0  0  0
  -22.3583  -23.7003  137.6420 C   0  0  0  0  0  0  0  0  0  0  0  0
  -21.4036  -22.5323  137.4053 B   0  0  0  0  0  0  0  0  0  0  0  0
  -22.1936  -23.4372  139.0062 N   0  0  0  0  0  0  0  0  0  0  0  0
  -22.0709  -24.2918  140.1175 C   0  0  0  0  0  0  0  0  0  0  0  0
  -21.9427  -23.8221  141.3911 N   0  0  0  0  0  2  0  0  0  0  0  0
  -21.5418  -25.4963  139.7493 N   0  0  0  0  0  0  0  0  0  0  0  0
  -20.8618  -22.7931  136.1545 O   0  0  0  0  0  0  0  0  0  0  0  0
  -20.4130  -25.8912  140.4868 C   0  0  0  0  0  0  0  0  0  0  0  0
  -21.9092  -21.1986  137.5576 O   0  0  0  0  0  0  0  0  0  0  0  0
  -19.1394  -25.3489  140.3732 C   0  0  0  0  0  0  0  0  0  0  0  0
  -20.5905  -27.0476  141.2733 C   0  0  0  0  0  0  0  0  0  0  0  0
  -18.1525  -25.8454  141.2174 C   0  0  0  0  0  0  0  0  0  0  0  0
  -20.6771  -28.3189  140.7027 C   0  0  0  0  0  0  0  0  0  0  0  0
  -19.5604  -28.9183  140.1386 C   0  0  0  0  0  0  0  0  0  0  0  0
  -19.2163  -28.6378  138.8332 C   0  0  0  0  0  0  0  0  0  0  0  0
  -19.2298  -27.3408  138.3713 C   0  0  0  0  0  0  0  0  0  0  0  0
  -18.3753  -26.9062  142.0889 C   0  0  0  0  0  0  0  0  0  0  0  0
  -18.1333  -28.9982  139.6085 N   0  0  0  0  0  0  0  0  0  0  0  0
  -18.2670  -28.5794  140.9225 C   0  0  0  0  0  0  0  0  0  0  0  0
  -18.6977  -28.1876  141.6880 C   0  0  0  0  0  0  0  0  0  0  0  0
  -21.8108  -22.5084  141.5784 C   0  0  0  0  0  0  0  0  0  0  0  0
  -21.4851  -26.5031  142.1371 C   0  0  0  0  0  0  0  0  0  0  0  0
  -22.7684  -23.1924  142.0400 O   0  0  0  0  0  1  0  0  0  0  0  0
  2  1  2  0
  3  2  1  0
  4  2  1  0
  5  4  2  3
  6  5  1  0
  7  5  1  0
  8  3  1  0
  9  7  1  0
 10  3  1  0
 11  9  2  3
 12  9  1  0
 13 11  1  0
 14 12  1  0
 15 14  1  0
 16 15  1  0
 17 16  1  0
 18 13  1  0
 19 15  1  0
 19 16  1  0
 20 15  1  0
 20 19  1  0
 21 18  1  0
 21 20  1  0
 22  6  1  0
 23 12  1  0
 24 22  1  0
M  RAD  2   6   2  24   2
M  END
$$$$

     RDKit          3D

 23 35  0  0  0  0  0  0  0  0999 V2000
  -27.8087   -9.4346  146.1710 C   0  0  0  0  0  0  0  0  0  0  0  0
  -27.9196  -10.9475  146.2143 C   0  0  0  0  0  0  0  0  0  0  0  0
  -28.3882   -8.6661  145.0101 C   0  0  0  0  0  0  0  0  0  0  0  0
  -29.5370  -10.7431  146.3219 C   0  0  0  0  0  0  0  0  0  0  0  0
  -28.3125   -9.3395  143.6019 C   0  0  0  0  0  0  0  0  0  0  0  0
  -28.9067  -11.8210  145.5722 C   0  0  0  0  0  0  0  0  0  0  0  0
  -29.2924   -9.2469  146.1254 C   0  0  0  0  0  0  0  0  0  0  0  0
  -29.7512   -8.3611  147.2930 C   0  0  0  0  0  0  0  0  0  0  0  0
  -27.0197  -10.1255  143.2556 C   0  0  0  0  0  0  0  0  0  0  0  0
  -24.8801   -9.4203  142.1237 C   0  0  0  0  0  0  0  0  0  0  0  0
  -28.7456  -11.6434  147.1867 C   0  0  0  0  0  0  0  0  0  0  0  0
  -25.5551   -9.5451  143.5267 C   0  0  0  0  0  0  0  0  0  0  0  0
  -24.8713  -10.6829  144.4650 C   0  0  0  0  0  0  0  0  0  0  0  0
  -25.5926   -8.1246  144.2288 C   0  0  0  0  0  0  0  0  0  0  0  0
  -25.4206   -6.8467  144.8160 C   0  0  0  0  0  0  0  0  0  0  0  0
  -24.2065   -7.5622  144.3970 N   0  0  0  0  0  0  0  0  0  0  0  0
  -23.5619  -11.2198  143.8689 C   0  0  0  0  0  0  0  0  0  0  0  0
  -23.5437  -10.8640  145.3233 C   0  0  0  0  0  0  0  0  0  0  0  0
  -24.7601  -10.2438  145.9222 C   0  0  0  0  0  0  0  0  0  0  0  0
  -25.3246   -5.8279  143.7492 C   0  0  0  0  0  0  0  0  0  0  0  0
  -25.3599   -6.5193  142.4632 C   0  0  0  0  0  0  0  0  0  0  0  0
  -26.3147   -6.9356  143.5800 C   0  0  0  0  0  0  0  0  0  0  0  0
  -24.0702   -6.5527  143.2973 C   0  0  0  0  0  0  0  0  0  0  0  0
  2  1  1  0
  3  1  1  0
  4  2  1  0
  5  3  1  0
  6  2  1  0
  6  4  1  0
  7  1  1  0
  7  3  1  0
  7  4  1  0
  8  7  1  0
  9  5  1  0
 11  2  1  0
 11  4  1  0
 11  6  1  0
 12  9  1  0
 12 10  1  0
 13 12  1  0
 14 12  1  0
 15 14  1  0
 16 14  1  0
 16 15  1  0
 17 13  1  0
 18 13  1  0
 18 17  1  0
 19 13  1  0
 19 18  1  0
 20 15  1  0
 21 20  1  0
 22 14  1  0
 22 15  1  0
 22 20  1  0
 22 21  1  0
 23 16  1  0
 23 20  1  0
 23 21  1  0
M  END
$$$$

     RDKit          3D

 24 32  0  0  0  0  0  0  0  0999 V2000
  -26.2499   -8.5653  139.0663 C   0  0  0  0  0  0  0  0  0  0  0  0
  -27.6836   -9.2407  139.2275 C   0  0  0  0  0  0  0  0  0  0  0  0
  -28.4980   -7.8995  139.4903 C   0  0  0  0  0  0  0  0  0  0  0  0
  -27.9574   -7.1351  140.7012 C   0  0  0  0  0  0  0  0  0  0  0  0
  -25.3930   -9.6910  139.6843 C   0  0  0  0  0  0  0  0  0  0  0  0
  -27.5670  -10.2182  140.4435 C   0  0  0  0  0  0  0  0  0  0  0  0
  -26.4522   -9.7300  138.4745 C   0  0  0  0  0  0  0  0  0  0  0  0
  -27.3908  -11.7548  140.0479 C   0  0  0  0  0  0  0  0  0  0  0  0
  -26.2373   -9.7028  141.0370 C   0  0  0  0  0  0  0  0  0  0  0  0
  -25.9152  -12.2262  139.7268 C   0  0  0  0  0  0  0  0  0  0  0  0
  -28.4671   -7.7062  142.0537 C   0  0  0  0  0  0  0  0  0  0  0  0
  -27.7361   -6.8429  143.0792 C   0  0  0  0  0  0  0  0  0  0  0  0
  -29.3430   -7.6530  140.7789 C   0  0  0  0  0  0  0  0  0  0  0  0
  -25.1059  -12.5782  140.9073 N   0  0  0  0  0  0  0  0  0  0  0  0
  -24.0208  -11.7310  140.3783 C   0  0  0  0  0  0  0  0  0  0  0  0
  -24.9116  -11.1263  139.3054 C   0  0  0  0  0  0  0  0  0  0  0  0
  -28.0649  -12.7125  141.0432 C   0  0  0  0  0  0  0  0  0  0  0  0
  -27.6189   -7.2859  144.5507 C   0  0  0  0  0  0  0  0  0  0  0  0
  -28.8539   -8.1555  144.9570 C   0  0  0  0  0  0  0  0  0  0  0  0
  -26.0009  -10.1473  142.5170 C   0  0  0  0  0  0  0  0  0  0  0  0
  -25.8392   -9.0172  143.6163 C   0  0  0  0  0  0  0  0  0  0  0  0
  -26.4307   -7.5374  143.5649 C   0  0  0  0  0  0  0  0  0  0  0  0
  -24.7335  -13.9975  140.9706 C   0  0  0  0  0  0  0  0  0  0  0  0
  -28.6209   -9.6396  145.2160 C   0  0  0  0  0  0  0  0  0  0  0  0
  2  1  1  0
  3  2  1  0
  4  3  1  0
  5  1  1  0
  6  2  1  0
  7  1  1  0
  7  2  1  0
  7  5  1  0
  8  6  1  0
  9  5  1  0
  9  6  1  0
 10  8  1  0
 11  4  1  0
 12 11  1  0
 13  3  1  0
 13  4  1  0
 13 11  1  0
 14 10  1  0
 15 14  1  0
 16  5  1  0
 16 10  1  0
 16 15  1  0
 17  8  1  0
 18 12  1  0
 19 18  1  0
 20  9  1  0
 21 20  1  0
 22 12  1  0
 22 18  1  0
 22 21  1  0
 23 14  1  0
 24 19  1  0
M  END
$$$$

     RDKit          3D

 23 30  0  0  0  0  0  0  0  0999 V2000
  -27.5984   -9.4485  140.7534 C   0  0  0  0  0  0  0  0  0  0  0  0
  -27.1508  -11.0859  142.8840 C   0  0  0  0  0  0  0  0  0  0  0  0
  -26.5799   -8.4493  141.3369 C   0  0  0  0  0  0  0  0  0  0  0  0
  -26.0554  -11.7630  142.0165 C   0  0  0  0  0  0  0  0  0  0  0  0
  -27.3229   -7.3536  142.0593 C   0  0  0  0  0  0  0  0  0  0  0  0
  -28.0999  -10.0980  142.1284 C   0  0  0  0  0  0  0  0  0  0  0  0
  -28.4031   -7.6314  142.8073 C   0  0  0  0  0  0  0  0  0  0  0  0
  -28.8399   -9.0620  143.0645 C   0  0  0  0  0  0  0  0  0  0  0  0
  -25.0419  -12.5505  142.8330 C   0  0  0  0  0  0  0  0  0  0  0  0
  -28.5924  -10.6440  140.8411 C   0  0  0  0  0  0  0  0  0  0  0  0
  -30.3824   -9.2081  143.2926 C   0  0  0  0  0  0  0  0  0  0  0  0
  -25.9920  -13.2925  141.8974 C   0  0  0  0  0  0  0  0  0  0  0  0
  -26.9291  -14.2096  142.6918 C   0  0  0  0  0  0  0  0  0  0  0  0
  -28.3591  -14.2833  142.3091 C   0  0  0  0  0  0  0  0  0  0  0  0
  -31.2743   -9.6397  142.0939 C   0  0  0  0  0  0  0  0  0  0  0  0
  -27.4175  -15.2094  141.8248 O   0  0  0  0  0  0  0  0  0  0  0  0
  -30.0971  -10.4623  140.5017 C   0  0  0  0  0  0  0  0  0  0  0  0
  -30.9349  -11.0629  141.6284 C   0  0  0  0  0  0  0  0  0  0  0  0
  -32.7870   -9.3243  142.2967 C   0  0  0  0  0  0  0  0  0  0  0  0
  -30.7385   -9.0935  140.7742 C   0  0  0  0  0  0  0  0  0  0  0  0
  -33.1865   -9.4801  143.7062 N   0  0  0  0  0  0  0  0  0  0  0  0
  -33.7112  -10.4046  142.6557 C   0  0  0  0  0  0  0  0  0  0  0  0
  -33.4488  -10.8999  143.9963 C   0  0  0  0  0  0  0  0  0  0  0  0
  3  1  1  0
  4  2  1  0
  5  3  1  0
  6  1  1  0
  6  2  1  0
  7  5  2  0
  8  6  1  0
  8  7  1  0
  9  4  1  0
 10  1  1  0
 10  6  1  0
 11  8  1  0
 12  4  1  0
 12  9  1  0
 13 12  1  0
 14 13  1  0
 15 11  1  0
 16 13  1  0
 16 14  1  0
 17 10  1  0
 18 15  1  0
 18 17  1  0
 19 15  1  0
 20 15  1  0
 20 17  1  0
 21 19  1  0
 22 19  1  0
 22 21  1  0
 23 21  1  0
 23 22  1  0
M  END
$$$$

     RDKit          3D

 24 25  0  0  0  0  0  0  0  0999 V2000
  -21.1610  -16.9886  136.6706 C   0  0  0  0  0  0  0  0  0  0  0  0
  -21.9572  -18.0450  135.8330 C   0  0  0  0  0  0  0  0  0  0  0  0
  -20.5339  -17.4294  138.0338 C   0  0  0  0  0  0  0  0  0  0  0  0
  -21.5735  -17.5528  139.1770 C   0  0  0  0  0  0  0  0  0  0  0  0
  -20.9651  -17.3175  140.5846 C   0  0  0  0  0  0  0  0  0  0  0  0
  -20.0522  -20.0286  137.7651 C   0  0  0  0  0  0  0  0  0  0  0  0
  -24.5976  -17.7659  135.8298 C   0  0  0  0  0  0  0  0  0  0  0  0
  -21.5839  -18.2157  141.6692 C   0  0  0  0  0  0  0  0  0  0  0  0
  -24.6970  -17.3632  137.3051 C   0  0  0  0  0  0  0  0  0  0  0  0
  -25.0228  -19.1963  135.5556 C   0  0  0  0  0  0  0  0  0  0  0  0
  -24.7307  -20.2374  136.3536 C   0  0  0  0  0  0  0  0  0  0  0  0
  -21.0105  -19.6440  141.6716 C   0  0  0  0  0  0  0  0  0  0  0  0
  -25.3680  -21.5738  136.0923 C   0  0  0  0  0  0  0  0  0  0  0  0
  -19.5908  -19.7135  142.2365 C   0  0  0  0  0  0  0  0  0  0  0  0
  -21.0460  -18.6131  134.7084 C   0  0  0  0  0  0  0  0  0  0  0  0
  -23.2396  -17.4159  135.1815 C   0  0  0  0  0  0  0  0  0  0  0  0
  -19.1309  -21.0834  138.4076 C   0  0  0  0  0  0  0  0  0  0  0  0
  -26.4500  -21.8895  137.1169 C   0  0  0  0  0  0  0  0  0  0  0  0
  -21.5501  -19.9522  134.1534 C   0  0  0  0  0  0  0  0  0  0  0  0
  -25.2478  -24.0982  136.6037 C   0  0  0  0  0  0  0  0  0  0  0  0
  -25.1350  -22.6660  137.1303 C   0  0  0  0  0  0  0  0  0  0  0  0
  -19.5015  -18.5981  137.9761 C   0  0  0  0  0  0  0  0  0  0  0  0
  -19.3783  -22.5012  137.9037 C   0  0  0  0  0  0  0  0  0  0  0  0
  -19.8011  -22.1184  139.3061 C   0  0  0  0  0  0  0  0  0  0  0  0
  2  1  1  0
  3  1  1  0
  4  3  1  0
  5  4  1  0
  8  5  1  0
  9  7  1  0
 10  7  1  0
 11 10  2  3
 12  8  1  0
 13 11  1  0
 14 12  1  0
 15  2  1  0
 16  2  1  0
 16  7  1  0
 17  6  1  0
 18 13  1  0
 19 15  1  0
 21 13  1  0
 21 18  1  0
 21 20  1  0
 22  3  1  0
 22  6  1  0
 23 17  1  0
 24 17  1  0
 24 23  1  0
M  END
$$$$

     RDKit          3D

 11 11  0  0  0  0  0  0  0  0999 V2000
  -19.2018    0.3814  141.7432 O   0  0  0  0  0  0  0  0  0  0  0  0
  -21.5164    0.7729  141.5584 C   0  0  0  0  0  0  0  0  0  0  0  0
  -22.4344    0.5832  142.3404 O   0  0  0  0  0  0  0  0  0  0  0  0
  -19.8777    2.6601  141.3565 C   0  0  0  0  0  0  0  0  0  0  0  0
  -20.8777    3.7798  141.6871 C   0  0  0  0  0  0  0  0  0  0  0  0
  -20.2030    1.3172  142.0423 C   0  0  0  0  0  0  0  0  0  0  0  0
  -20.8252    4.1555  143.1435 C   0  0  0  0  0  0  0  0  0  0  0  0
  -21.7996    3.8083  143.9947 C   0  0  0  0  0  0  0  0  0  0  0  0
  -21.7058    4.1587  145.4511 C   0  0  0  0  0  0  0  0  0  0  0  0
  -20.7455    3.2828  146.2416 C   0  0  0  0  0  0  0  0  0  0  0  0
  -22.2455    3.0977  146.3970 C   0  0  0  0  0  0  0  0  0  0  0  0
  3  2  2  0
  5  4  1  0
  6  1  1  0
  6  2  1  0
  6  4  1  0
  7  5  1  0
  8  7  2  3
  9  8  1  0
 10  9  1  0
 11  9  1  0
 11 10  1  0
M  END
$$$$

     RDKit          3D

 11 13  0  0  0  0  0  0  0  0999 V2000
  -31.0780   -7.8455  138.4853 O   0  0  0  0  0  0  0  0  0  0  0  0
  -31.4487   -9.1733  138.3298 C   0  0  0  0  0  0  0  0  0  0  0  0
  -31.0991  -10.0726  139.1582 O   0  0  0  0  0  0  0  0  0  0  0  0
  -32.5151   -9.1856  137.0494 C   0  0  0  0  0  0  0  0  0  0  0  0
  -33.6986   -9.9221  136.3391 C   0  0  0  0  0  0  0  0  0  0  0  0
  -32.1401   -7.8721  136.4479 C   0  0  0  0  0  0  0  0  0  0  0  0
  -32.1746   -7.0892  137.7922 C   0  0  0  0  0  0  0  0  0  0  0  0
  -33.5316   -7.2041  138.8458 C   0  0  0  0  0  0  0  0  0  0  0  0
  -33.8048   -9.6044  137.6588 N   0  0  0  0  0  0  0  0  0  0  0  0
  -34.9962   -8.2948  138.2788 P   0  0  0  0  0  0  0  0  0  0  0  0
  -32.0147   -5.6283  137.4808 C   0  0  0  0  0  0  0  0  0  0  0  0
  2  1  1  0
  3  2  2  0
  4  2  1  0
  5  4  1  0
  6  4  1  0
  7  1  1  0
  7  6  1  0
  8  7  1  0
  9  4  1  0
  9  5  1  0
 10  8  1  0
 10  9  1  0
 11  7  1  0
M  END
$$$$

     RDKit          3D

 24 29  0  0  0  0  0  0  0  0999 V2000
  -30.8666   -0.5505  137.7276 C   0  0  0  0  0  0  0  0  0  0  0  0
  -28.4622   -1.7176  137.2064 C   0  0  0  0  0  0  0  0  0  0  0  0
  -27.7286   -0.3882  136.9928 C   0  0  0  0  0  0  0  0  0  0  0  0
  -29.9894   -1.6528  137.0871 C   0  0  0  0  0  0  0  0  0  0  0  0
  -30.6059   -2.6330  136.3946 C   0  0  0  0  0  0  0  0  0  0  0  0
  -27.8645   -1.8025  138.6397 C   0  0  0  0  0  0  0  0  0  0  0  0
  -31.6599   -1.0031  139.0073 C   0  0  0  0  0  0  0  0  0  0  0  0
  -27.2056   -0.4310  138.4439 C   0  0  0  0  0  0  0  0  0  0  0  0
  -31.0010   -0.4441  140.3501 C   0  0  0  0  0  0  0  0  0  0  0  0
  -29.5145   -0.8987  140.5101 C   0  0  0  0  0  0  0  0  0  0  0  0
  -33.1887   -0.6384  138.8339 C   0  0  0  0  0  0  0  0  0  0  0  0
  -31.9177   -0.7515  141.5360 C   0  0  0  0  0  0  0  0  0  0  0  0
  -28.8954   -2.1024  139.7737 C   0  0  0  0  0  0  0  0  0  0  0  0
  -30.2410   -0.8353  142.8832 C   0  0  0  0  0  0  0  0  0  0  0  0
  -31.5627    1.3483  143.0421 C   0  0  0  0  0  0  0  0  0  0  0  0
  -32.4096   -0.7162  143.9685 O   0  0  0  0  0  0  0  0  0  0  0  0
  -33.5775    0.8308  139.1033 C   0  0  0  0  0  0  0  0  0  0  0  0
  -35.0819    1.1509  138.8466 C   0  0  0  0  0  0  0  0  0  0  0  0
  -31.5993   -0.1780  142.9323 C   0  0  0  0  0  0  0  0  0  0  0  0
  -30.5432   -1.4271  141.4916 C   0  0  0  0  0  0  0  0  0  0  0  0
  -35.3812    2.6675  138.5626 C   0  0  0  0  0  0  0  0  0  0  0  0
  -34.6727    3.7014  139.4161 C   0  0  0  0  0  0  0  0  0  0  0  0
  -34.8226    3.1852  137.3185 N   0  0  0  0  0  0  0  0  0  0  0  0
  -34.1192    4.1995  138.0999 C   0  0  0  0  0  0  0  0  0  0  0  0
  3  2  1  0
  4  1  1  0
  4  2  1  0
  5  4  2  0
  6  2  1  0
  7  1  1  0
  8  3  1  0
  8  6  1  0
  9  7  1  0
 10  9  1  0
 11  7  1  0
 12  9  1  0
 13  6  1  0
 13 10  1  0
 17 11  1  0
 18 17  1  0
 19 12  1  0
 19 14  1  0
 19 15  1  0
 19 16  1  0
 20  9  1  0
 20 10  1  0
 20 12  1  0
 20 14  1  0
 21 18  1  0
 22 21  1  0
 23 21  1  0
 24 22  1  0
 24 23  1  0
M  END
$$$$

     RDKit          3D

 23 28  0  0  0  0  0  0  0  0999 V2000
  -20.3657   -7.9340  147.1970 Cl  0  0  0  0  0  0  0  0  0  0  0  0
  -20.5443   -8.7038  144.6525 C   0  0  0  0  0  0  0  0  0  0  0  0
  -21.1029   -9.2076  146.0387 C   0  0  0  0  0  0  0  0  0  0  0  0
  -20.0177   -9.6176  143.4831 C   0  0  0  0  0  0  0  0  0  0  0  0
  -18.3187   -9.2935  141.4681 C   0  0  0  0  0  0  0  0  0  0  0  0
  -19.4556   -8.7315  142.3513 C   0  0  0  0  0  0  0  0  0  0  0  0
  -22.0965  -10.3426  145.5718 C   0  0  0  0  0  0  0  0  0  0  0  0
  -23.5889  -10.3152  146.0748 C   0  0  0  0  0  0  0  0  0  0  0  0
  -20.0987  -12.4217  145.9262 C   0  0  0  0  0  0  0  0  0  0  0  0
  -17.5288  -11.7454  141.8819 C   0  0  0  0  0  0  0  0  0  0  0  0
  -18.6881  -11.9451  145.4475 C   0  0  0  0  0  0  0  0  0  0  0  0
  -24.6150  -11.2636  145.3850 C   0  0  0  0  0  0  0  0  0  0  0  0
  -19.7332  -12.6544  144.5097 C   0  0  0  0  0  0  0  0  0  0  0  0
  -17.1460  -10.2404  141.8742 C   0  0  0  0  0  0  0  0  0  0  0  0
  -24.3063  -11.8647  144.0018 C   0  0  0  0  0  0  0  0  0  0  0  0
  -21.3011  -11.4955  146.3453 C   0  0  0  0  0  0  0  0  0  0  0  0
  -20.6659  -10.3601  147.1158 C   0  0  0  0  0  0  0  0  0  0  0  0
  -25.4502  -12.1538  143.3382 C   0  0  0  0  0  0  0  0  0  0  0  0
  -26.2607  -10.9499  142.9401 C   0  0  0  0  0  0  0  0  0  0  0  0
  -26.3373   -9.8225  144.0263 C   0  0  0  0  0  0  0  0  0  0  0  0
  -25.1307   -8.9579  144.3659 C   0  0  0  0  0  0  0  0  0  0  0  0
  -24.5107   -9.1423  145.7726 C   0  0  0  0  0  0  0  0  0  0  0  0
  -25.6029  -10.0976  145.3284 C   0  0  0  0  0  0  0  0  0  0  0  0
  3  1  1  0
  3  2  1  0
  4  2  1  0
  6  4  1  0
  6  5  1  0
  7  3  1  0
  8  7  1  0
 11  9  1  0
 12  8  1  0
 13  9  1  0
 13 11  1  0
 14  5  1  0
 14 10  1  0
 15 12  1  0
 16  7  1  0
 16  9  1  0
 17  3  1  0
 17 16  1  0
 18 15  2  0
 19 18  1  0
 20 19  1  0
 21 20  1  0
 22  8  1  0
 22 21  1  0
 23 12  1  0
 23 20  1  0
 23 21  1  0
 23 22  1  0
M  END
$$$$

     RDKit          3D

 24 26  0  0  0  0  0  0  0  0999 V2000
  -26.0329  -18.7333  145.7595 O   0  0  0  0  0  0  0  0  0  0  0  0
  -27.3903  -18.4104  145.7075 C   0  0  0  0  0  0  0  0  0  0  0  0
  -27.8816  -17.7569  144.4367 C   0  0  0  0  0  0  0  0  0  0  0  0
  -28.5472  -16.4195  144.7588 C   0  0  0  0  0  0  0  0  0  0  0  0
  -28.1730  -18.7042  146.7736 C   0  0  0  0  0  0  0  0  0  0  0  0
  -29.3510  -15.6548  143.7195 C   0  0  0  0  0  0  0  0  0  0  0  0
  -29.6632  -18.4558  146.9088 C   0  0  0  0  0  0  0  0  0  0  0  0
  -29.4455  -14.1349  143.9341 C   0  0  0  0  0  0  0  0  0  0  0  0
  -30.8510  -13.5890  143.6320 C   0  0  0  0  0  0  0  0  0  0  0  0
  -31.1769  -13.4911  142.1297 C   0  0  0  0  0  0  0  0  0  0  0  0
  -31.3041  -14.8156  141.4214 C   0  0  0  0  0  0  0  0  0  0  0  0
  -30.0088  -16.9782  147.2468 C   0  0  0  0  0  0  0  0  0  0  0  0
  -30.6525  -16.1740  146.0882 C   0  0  0  0  0  0  0  0  0  0  0  0
  -32.2087  -15.7675  141.6929 C   0  0  0  0  0  0  0  0  0  0  0  0
  -30.0735  -16.5611  144.7218 C   0  0  0  0  0  0  0  0  0  0  0  0
  -33.1847  -15.7170  142.7964 C   0  0  0  0  0  0  0  0  0  0  0  0
  -34.3019  -14.9773  142.8025 C   0  0  0  0  0  0  0  0  0  0  0  0
  -34.7493  -14.0727  141.6781 C   0  0  0  0  0  0  0  0  0  0  0  0
  -35.0081  -12.6404  142.1718 C   0  0  0  0  0  0  0  0  0  0  0  0
  -36.2866  -12.5171  143.0134 C   0  0  0  0  0  0  0  0  0  0  0  0
  -35.6355  -10.6525  144.6661 C   0  0  0  0  0  0  0  0  0  0  0  0
  -37.1313  -10.8893  144.8398 C   0  0  0  0  0  0  0  0  0  0  0  0
  -36.4861  -11.0634  143.4672 C   0  0  0  0  0  0  0  0  0  0  0  0
  -37.9335   -9.6048  145.0583 C   0  0  0  0  0  0  0  0  0  0  0  0
  2  1  1  0
  3  2  1  0
  4  3  1  0
  5  2  2  3
  6  4  1  0
  7  5  1  0
  8  6  1  0
  9  8  1  0
 10  9  1  0
 11 10  1  0
 12  7  1  0
 13 12  1  0
 14 11  2  3
 15  4  1  0
 15  6  1  0
 15 13  1  0
 16 14  1  0
 17 16  2  3
 18 17  1  0
 19 18  1  0
 20 19  1  0
 22 21  1  0
 23 20  1  0
 23 21  1  0
 23 22  1  0
 24 22  1  0
M  END
$$$$

     RDKit          3D

 24 29  0  0  0  0  0  0  0  0999 V2000
  -27.8029   -4.9023  146.9029 O   0  0  0  0  0  0  0  0  0  0  0  0
  -28.9508   -5.3071  147.6833 C   0  0  0  0  0  0  0  0  0  0  0  0
  -28.2526   -5.0301  149.6792 C   0  0  0  0  0  0  0  0  0  0  0  0
  -29.1740   -4.2282  148.7481 C   0  0  0  0  0  0  0  0  0  0  0  0
  -28.5913   -6.2455  148.8628 C   0  0  0  0  0  0  0  0  0  0  0  0
  -27.3183   -5.8298  145.9079 C   0  0  0  0  0  0  0  0  0  0  0  0
  -26.1411   -5.1240  145.1365 C   0  0  0  0  0  0  0  0  0  0  0  0
  -26.0925   -3.5680  144.8319 C   0  0  0  0  0  0  0  0  0  0  0  0
  -27.1413   -2.4931  145.1414 C   0  0  0  0  0  0  0  0  0  0  0  0
  -26.6022   -1.1165  144.8643 C   0  0  0  0  0  0  0  0  0  0  0  0
  -25.7818   -5.8787  143.9120 N   0  0  0  0  0  0  0  0  0  0  0  0
  -27.5073   -0.7738  143.6257 C   0  0  0  0  0  0  0  0  0  0  0  0
  -27.2792    0.1762  144.8819 C   0  0  0  0  0  0  0  0  0  0  0  0
  -26.3610    1.4925  144.7418 C   0  0  0  0  0  0  0  0  0  0  0  0
  -24.9374    0.7743  142.5936 C   0  0  0  0  0  0  0  0  0  0  0  0
  -24.5447   -0.6659  142.1233 C   0  0  0  0  0  0  0  0  0  0  0  0
  -24.9009    1.4192  144.0397 C   0  0  0  0  0  0  0  0  0  0  0  0
  -25.5867   -1.9101  142.0019 C   0  0  0  0  0  0  0  0  0  0  0  0
  -23.3821   -0.7006  141.1532 C   0  0  0  0  0  0  0  0  0  0  0  0
  -27.0078   -1.9860  142.8116 C   0  0  0  0  0  0  0  0  0  0  0  0
  -26.6655   -7.0945  146.5365 C   0  0  0  0  0  0  0  0  0  0  0  0
  -23.7649    0.8849  144.9808 C   0  0  0  0  0  0  0  0  0  0  0  0
  -23.2375   -1.0712  142.5136 O   0  0  0  0  0  0  0  0  0  0  0  0
  -27.1933   -3.1943  143.8059 C   0  0  0  0  0  0  0  0  0  0  0  0
  2  1  1  0
  4  2  1  0
  4  3  1  0
  5  2  1  0
  5  3  1  0
  6  1  1  0
  7  6  1  0
  8  7  1  0
  9  8  1  0
 10  9  1  0
 11  7  1  0
 12 10  1  0
 13 10  1  0
 13 12  1  0
 14 13  1  0
 16 15  1  0
 17 14  1  0
 17 15  1  0
 18 16  1  0
 19 16  1  0
 20 12  1  0
 20 18  1  0
 21  6  1  0
 22 17  1  0
 23 16  1  0
 23 19  1  0
 24  8  1  0
 24  9  1  0
 24 20  1  0
M  END
$$$$

     RDKit          3D

 24 25  0  0  0  0  0  0  0  0999 V2000
  -28.4327  -16.3798  131.2196 C   0  0  0  0  0  0  0  0  0  0  0  0
  -29.6740  -14.9322  130.3183 C   0  0  0  0  0  0  0  0  0  0  0  0
  -29.3848  -13.2258  131.0219 C   0  0  0  0  0  0  0  0  0  0  0  0
  -30.4141  -11.5893  131.4728 C   0  0  0  0  0  0  0  0  0  0  0  0
  -27.7715  -18.1719  131.7697 C   0  0  0  0  0  0  0  0  0  0  0  0
  -30.0607   -9.3685  132.8485 Se  0  0  0  0  0  2  0  0  0  0  0  0
  -29.5076  -13.4460  129.2946 C   0  0  0  0  0  0  0  0  0  0  0  0
  -31.0250   -7.3740  134.3135 C   0  0  0  0  0  0  0  0  0  0  0  0
  -31.2398   -5.3628  134.0906 C   0  0  0  0  0  0  0  0  0  0  0  0
  -28.5214  -19.4652  132.5501 C   0  0  0  0  0  0  0  0  0  0  0  0
  -27.5885  -20.3341  133.6747 C   0  0  0  0  0  0  0  0  0  0  0  0
  -26.6742    0.5584  134.0072 C   0  0  0  0  0  0  0  0  0  0  0  0
  -26.4272    3.5010  135.3903 C   0  0  0  0  0  0  0  0  0  0  0  0
  -28.3338  -21.0252  132.5456 C   0  0  0  0  0  0  0  0  0  0  0  0
  -25.4153    2.6786  136.9659 C   0  0  0  0  0  0  0  0  0  0  0  0
  -24.4514    2.3831  138.4214 C   0  0  0  0  0  0  0  0  0  0  0  0
  -27.7665   -0.9287  134.7613 C   0  0  0  0  0  0  0  0  0  0  0  0
  -23.1526    3.2908  140.3545 C   0  0  0  0  0  0  0  0  0  0  0  0
  -28.7518   -2.9129  136.0237 Se  0  0  0  0  0  2  0  0  0  0  0  0
  -20.7034    3.5622  141.0442 C   0  0  0  0  0  0  0  0  0  0  0  0
  -18.2113    3.7020  141.3649 C   0  0  0  0  0  0  0  0  0  0  0  0
  -26.4119    2.3621  133.0301 C   0  0  0  0  0  0  0  0  0  0  0  0
  -25.1921    1.1319  131.1969 C   0  0  0  0  0  0  0  0  0  0  0  0
  -29.2152   -4.9180  135.0983 C   0  0  0  0  0  0  0  0  0  0  0  0
  2  1  1  0
  3  2  1  0
  4  3  1  0
  5  1  1  0
  6  4  1  0
  7  2  1  0
  7  3  1  0
  8  6  1  0
  9  8  1  0
 10  5  1  0
 11 10  1  0
 14 10  1  0
 14 11  1  0
 15 13  1  0
 16 15  2  3
 17 12  1  0
 18 16  1  0
 19 17  1  0
 20 18  1  0
 21 20  1  0
 22 12  1  0
 22 13  1  0
 23 22  1  0
 24  9  1  0
 24 19  1  0
M  END
$$$$

     RDKit          3D

 24 27  0  0  0  0  0  0  0  0999 V2000
  -16.9115   -1.2247  136.3995 C   0  0  0  0  0  0  0  0  0  0  0  0
  -16.3930   -2.0828  137.5766 C   0  0  0  0  0  0  0  0  0  0  0  0
  -18.0146   -0.2006  136.7657 C   0  0  0  0  0  0  0  0  0  0  0  0
  -16.4738   -4.5282  138.4384 C   0  0  0  0  0  0  0  0  0  0  0  0
  -16.7542   -5.8339  137.6279 C   0  0  0  0  0  0  0  0  0  0  0  0
  -16.8056   -4.6662  139.9370 C   0  0  0  0  0  0  0  0  0  0  0  0
  -16.0180   -5.7767  136.3040 C   0  0  0  0  0  0  0  0  0  0  0  0
  -19.4830   -0.6897  136.6032 C   0  0  0  0  0  0  0  0  0  0  0  0
  -20.0270   -1.4116  137.8504 C   0  0  0  0  0  0  0  0  0  0  0  0
  -20.4986    0.4565  136.3381 C   0  0  0  0  0  0  0  0  0  0  0  0
  -16.5729   -5.6855  135.0833 C   0  0  0  0  0  0  0  0  0  0  0  0
  -18.0506   -5.6874  134.7688 C   0  0  0  0  0  0  0  0  0  0  0  0
  -18.7214   -7.0273  135.1077 C   0  0  0  0  0  0  0  0  0  0  0  0
  -17.2581   -3.3224  137.8333 C   0  0  0  0  0  0  0  0  0  0  0  0
  -16.1838   -7.3418  138.4970 S   0  0  0  0  0  0  0  0  0  0  0  0
  -20.2815    1.7497  137.1602 C   0  0  0  0  0  0  0  0  0  0  0  0
  -20.6107   -2.8359  137.6383 C   0  0  0  0  0  0  0  0  0  0  0  0
  -19.3950   -7.6525  133.8921 C   0  0  0  0  0  0  0  0  0  0  0  0
  -21.7977   -0.0881  136.8814 C   0  0  0  0  0  0  0  0  0  0  0  0
  -20.9740    1.5294  138.5046 C   0  0  0  0  0  0  0  0  0  0  0  0
  -21.6034    2.7062  138.9309 O   0  0  0  0  0  0  0  0  0  0  0  0
  -22.0428   -2.3350  137.9056 C   0  0  0  0  0  0  0  0  0  0  0  0
  -22.0179    0.4521  138.2575 C   0  0  0  0  0  0  0  0  0  0  0  0
  -21.4468   -0.9575  138.0791 C   0  0  0  0  0  0  0  0  0  0  0  0
  2  1  1  0
  3  1  1  0
  5  4  1  0
  6  4  1  0
  7  5  1  0
  8  3  1  0
  9  8  1  0
 10  8  1  0
 11  7  2  3
 12 11  1  0
 13 12  1  0
 14  2  1  0
 14  4  1  0
 15  5  1  0
 16 10  1  0
 17  9  1  0
 18 13  1  0
 19 10  1  0
 20 16  1  0
 21 20  1  0
 22 17  1  0
 23 19  1  0
 23 20  1  0
 24  9  1  0
 24 19  1  0
 24 22  1  0
 24 23  1  0
M  END
$$$$

     RDKit          3D

 16 21  0  0  0  0  0  0  0  0999 V2000
  -20.0502   -5.7393  137.5081 C   0  0  0  0  0  0  0  0  0  0  0  0
  -19.5800   -5.3981  135.2209 C   0  0  0  0  0  0  0  0  0  0  0  0
  -21.1116   -8.2141  137.2922 C   0  0  0  0  0  0  0  0  0  0  0  0
  -20.5632   -9.0197  138.4889 C   0  0  0  0  0  0  0  0  0  0  0  0
  -20.3961   -4.7786  136.3503 C   0  0  0  0  0  0  0  0  0  0  0  0
  -20.6283   -6.5041  135.3710 C   0  0  0  0  0  0  0  0  0  0  0  0
  -19.3135   -8.4008  139.1598 C   0  0  0  0  0  0  0  0  0  0  0  0
  -20.1870   -7.0862  136.7317 C   0  0  0  0  0  0  0  0  0  0  0  0
  -22.3699   -7.8780  138.1038 C   0  0  0  0  0  0  0  0  0  0  0  0
  -21.6525   -5.4442  135.7892 C   0  0  0  0  0  0  0  0  0  0  0  0
  -21.8498   -8.7168  139.2622 C   0  0  0  0  0  0  0  0  0  0  0  0
  -18.0963   -9.2117  139.0912 N   0  0  0  0  0  0  0  0  0  0  0  0
  -19.0536   -9.5686  140.1376 C   0  0  0  0  0  0  0  0  0  0  0  0
  -18.4115   -8.3212  140.2837 C   0  0  0  0  0  0  0  0  0  0  0  0
  -22.3598   -4.6877  134.6387 C   0  0  0  0  0  0  0  0  0  0  0  0
  -23.5556   -5.4839  134.1240 C   0  0  0  0  0  0  0  0  0  0  0  0
  4  3  1  0
  5  1  1  0
  5  2  1  0
  6  2  1  0
  7  4  1  0
  8  1  1  0
  8  3  1  0
  8  6  1  0
  9  3  1  0
 10  5  1  0
 10  6  1  0
 11  4  1  0
 11  9  1  0
 12  7  1  0
 13  7  1  0
 13 12  1  0
 14  7  1  0
 14 12  1  0
 14 13  1  0
 15 10  1  0
 16 15  1  0
M  END
$$$$

     RDKit          3D

 13 15  0  0  0  0  0  0  0  0999 V2000
  -23.7989    1.1136  135.3507 C   0  0  0  0  0  0  0  0  0  0  0  0
  -20.7376    1.3711  133.6280 I   0  0  0  0  0  0  0  0  0  0  0  0
  -24.6796    1.8388  136.1664 O   0  0  0  0  0  0  0  0  0  0  0  0
  -22.7181    1.0631  133.1909 O   0  0  0  0  0  0  0  0  0  0  0  0
  -23.5238    1.8573  134.0289 C   0  0  0  0  0  0  0  0  0  0  0  0
  -25.1440    0.0942  131.8782 C   0  0  0  0  0  0  0  0  0  0  0  0
  -24.7771    0.5242  130.4873 C   0  0  0  0  0  0  0  0  0  0  0  0
  -24.8161    2.2444  133.2769 C   0  0  0  0  0  0  0  0  0  0  0  0
  -25.7267    1.0506  132.9181 C   0  0  0  0  0  0  0  0  0  0  0  0
  -26.8475    1.4300  131.9601 C   0  0  0  0  0  0  0  0  0  0  0  0
  -26.2379    0.5981  130.8673 C   0  0  0  0  0  0  0  0  0  0  0  0
  -27.3950   -0.3827  130.8203 C   0  0  0  0  0  0  0  0  0  0  0  0
  -28.0641    0.4729  131.9144 C   0  0  0  0  0  0  0  0  0  0  0  0
  3  1  1  0
  4  2  1  0
  5  1  1  0
  5  4  1  0
  7  6  1  0
  8  5  1  0
  9  6  1  0
  9  8  1  0
 10  9  1  0
 11  6  1  0
 11  7  1  0
 11 10  1  0
 12 11  1  0
 13 10  1  0
 13 12  1  0
M  END
$$$$

     RDKit          3D

 22 24  0  0  0  0  0  0  0  0999 V2000
  -26.6479  -20.1271  140.2340 N   0  0  0  0  0  2  0  0  0  0  0  0
  -24.4270  -21.1886  139.8934 C   0  0  0  0  0  0  0  0  0  0  0  0
  -26.3355  -21.4530  138.2879 N   0  0  0  0  0  2  0  0  0  0  0  0
  -23.7234  -22.2117  138.9722 C   0  0  0  0  0  0  0  0  0  0  0  0
  -22.3604  -22.7819  139.4758 C   0  0  0  0  0  0  0  0  0  0  0  0
  -22.5413  -23.2428  140.8860 N   0  0  0  0  0  0  0  0  0  0  0  0
  -21.5925  -24.1858  141.5291 C   0  0  0  0  0  0  0  0  0  0  0  0
  -22.0821  -23.9622  138.4956 C   0  0  0  0  0  0  0  0  0  0  0  0
  -25.6792  -20.5321  139.2218 C   0  0  0  0  0  0  0  0  0  0  0  0
  -21.5185  -25.5692  140.8287 C   0  0  0  0  0  0  0  0  0  0  0  0
  -21.2797  -21.6738  139.3579 C   0  0  0  0  0  0  0  0  0  0  0  0
  -20.4147  -25.5717  139.7389 C   0  0  0  0  0  0  0  0  0  0  0  0
  -20.6834  -24.5823  138.6091 C   0  0  0  0  0  0  0  0  0  0  0  0
  -20.5650  -26.0896  138.2921 C   0  0  0  0  0  0  0  0  0  0  0  0
  -20.9463  -28.8181  135.8534 O   0  0  0  0  0  0  0  0  0  0  0  0
  -20.2593  -23.5959  141.6997 N   0  0  0  0  0  0  0  0  0  0  0  0
  -21.5111  -28.2535  134.8007 O   0  0  0  0  0  0  0  0  0  0  0  0
  -21.7849  -25.8933  135.3183 C   0  0  0  0  0  0  0  0  0  0  0  0
  -20.2587  -25.8062  135.2044 C   0  0  0  0  0  0  0  0  0  0  0  0
  -21.7846  -26.9254  137.8559 C   0  0  0  0  0  0  0  0  0  0  0  0
  -22.4820  -26.4697  136.5403 C   0  0  0  0  0  0  0  0  0  0  0  0
  -22.4591  -27.2806  135.2240 C   0  0  0  0  0  0  0  0  0  0  0  0
  4  2  1  0
  5  4  1  0
  6  5  1  0
  7  6  1  0
  8  5  1  0
  9  1  1  0
  9  2  1  0
  9  3  1  0
 10  7  1  0
 11  5  1  0
 12 10  1  0
 13  8  1  0
 13 12  1  0
 14 12  1  0
 14 13  1  0
 16  7  1  0
 17 15  1  0
 19 18  1  0
 20 14  1  0
 21 18  1  0
 21 20  1  0
 22 17  1  0
 22 18  1  0
 22 21  1  0
M  RAD  2   1   2   3   2
M  END
$$$$

     RDKit          3D

 24 26  0  0  0  0  0  0  0  0999 V2000
  -34.1395   -2.9163  133.6616 C   0  0  0  0  0  0  0  0  0  0  0  0
  -34.7677   -1.5836  135.6229 C   0  0  0  0  0  0  0  0  0  0  0  0
  -33.4908   -0.7394  137.9829 C   0  0  0  0  0  0  0  0  0  0  0  0
  -32.8868    0.6169  135.1979 C   0  0  0  0  0  0  0  0  0  0  0  0
  -30.5318    0.1464  138.6980 C   0  0  0  0  0  0  0  0  0  0  0  0
  -34.9810    0.4067  132.5682 C   0  0  0  0  0  0  0  0  0  0  0  0
  -29.5742   -1.0108  138.2946 N   0  0  0  0  0  0  0  0  0  0  0  0
  -29.9918   -1.9891  139.3735 C   0  0  0  0  0  0  0  0  0  0  0  0
  -30.2366   -2.7073  129.2963 C   0  0  0  0  0  0  0  0  0  0  0  0
  -34.9180    0.3647  130.7338 C   0  0  0  0  0  0  0  0  0  0  0  0
  -33.2046   -0.0332  133.6135 C   0  0  0  0  0  0  0  0  0  0  0  0
  -33.6036   -1.4758  136.9273 O   0  0  0  0  0  0  0  0  0  0  0  0
  -31.8230    0.2439  136.9968 N   0  0  0  0  0  0  0  0  0  0  0  0
  -27.2837   -1.4989  128.6477 C   0  0  0  0  0  0  0  0  0  0  0  0
  -31.7364   -2.5005  139.2634 C   0  0  0  0  0  0  0  0  0  0  0  0
  -32.6386   -3.7677  138.5757 C   0  0  0  0  0  0  0  0  0  0  0  0
  -32.2123   -2.4592  131.4078 C   0  0  0  0  0  0  0  0  0  0  0  0
  -28.0596   -0.2310  129.6902 C   0  0  0  0  0  0  0  0  0  0  0  0
  -27.7183    1.5305  129.9900 C   0  0  0  0  0  0  0  0  0  0  0  0
  -32.9958   -2.0058  140.4856 C   0  0  0  0  0  0  0  0  0  0  0  0
  -32.1060   -4.4353  136.5462 C   0  0  0  0  0  0  0  0  0  0  0  0
  -29.0143   -0.8278  139.8715 C   0  0  0  0  0  0  0  0  0  0  0  0
  -33.9974   -3.1071  139.9468 C   0  0  0  0  0  0  0  0  0  0  0  0
  -27.7833   -3.0645  128.7613 C   0  0  0  0  0  0  0  0  0  0  0  0
  2  1  1  0
  7  5  1  0
  8  7  1  0
 10  6  1  0
 11  4  1  0
 11  6  1  0
 12  2  1  0
 12  3  1  0
 13  3  1  0
 13  4  1  0
 13  5  1  0
 15  8  1  0
 16 15  1  0
 17  1  1  0
 17  9  1  0
 18 14  1  0
 19 18  1  0
 20 15  1  0
 21 16  1  0
 22  5  1  0
 22  7  1  0
 22  8  1  0
 23 16  1  0
 23 20  1  0
 24  9  1  0
 24 14  1  0
M  END
$$$$

     RDKit          3D

 11 11  0  0  0  0  0  0  0  0999 V2000
  -30.5790  -17.3878  145.7476 O   0  0  0  0  0  0  0  0  0  0  0  0
  -30.2856  -18.7108  146.1012 C   0  0  0  0  0  0  0  0  0  0  0  0
  -28.1358  -17.7088  146.7173 O   0  0  0  0  0  0  0  0  0  0  0  0
  -29.2101  -19.3975  145.2566 C   0  0  0  0  0  0  0  0  0  0  0  0
  -28.6554  -18.6017  144.0562 C   0  0  0  0  0  0  0  0  0  0  0  0
  -27.2581  -19.0911  143.6494 C   0  0  0  0  0  0  0  0  0  0  0  0
  -24.7537  -20.9704  143.3511 C   0  0  0  0  0  0  0  0  0  0  0  0
  -24.9145  -22.0647  144.4062 C   0  0  0  0  0  0  0  0  0  0  0  0
  -28.8796  -18.8942  146.6627 C   0  0  0  0  0  0  0  0  0  0  0  0
  -25.9460  -20.8912  142.3813 C   0  0  0  0  0  0  0  0  0  0  0  0
  -27.2832  -20.5029  143.0379 C   0  0  0  0  0  0  0  0  0  0  0  0
  2  1  1  0
  4  2  1  0
  5  4  1  0
  6  5  1  0
  8  7  1  0
  9  2  1  0
  9  3  1  0
  9  4  1  0
 10  7  1  0
 11  6  1  0
 11 10  1  0
M  END
$$$$

     RDKit          3D

 24 26  0  0  0  0  0  0  0  0999 V2000
  -25.7279  -25.0980  131.4290 N   0  0  0  0  0  0  0  0  0  0  0  0
  -25.7161  -26.5945  131.9073 C   0  0  0  0  0  0  0  0  0  0  0  0
  -28.1335  -27.8399  133.3982 N   0  0  0  0  0  0  0  0  0  0  0  0
  -24.2631  -27.2185  130.9602 C   0  0  0  0  0  0  0  0  0  0  0  0
  -24.4441  -25.1584  130.5836 C   0  0  0  0  0  0  0  0  0  0  0  0
  -23.3719  -25.8273  131.1140 C   0  0  0  0  0  0  0  0  0  0  0  0
  -28.2450  -29.3607  133.8886 C   0  0  0  0  0  0  0  0  0  0  0  0
  -26.5332  -23.7578  131.2097 C   0  0  0  0  0  0  0  0  0  0  0  0
  -26.4797  -24.6903  128.4199 Cl  0  0  0  0  0  0  0  0  0  0  0  0
  -26.4244  -28.8318  135.6680 C   0  0  0  0  0  0  0  0  0  0  0  0
  -25.3996  -22.5765  131.3739 C   0  0  0  0  0  0  0  0  0  0  0  0
  -27.8097  -29.7821  135.3946 C   0  0  0  0  0  0  0  0  0  0  0  0
  -24.3137  -22.3184  132.7637 C   0  0  0  0  0  0  0  0  0  0  0  0
  -26.6705  -23.5233  129.7169 N   0  0  0  0  0  0  0  0  0  0  0  0
  -22.9613  -22.7769  132.5501 C   0  0  0  0  0  0  0  0  0  0  0  0
  -25.4556  -22.5913  129.7829 C   0  0  0  0  0  0  0  0  0  0  0  0
  -27.3629  -27.5608  132.0753 C   0  0  0  0  0  0  0  0  0  0  0  0
  -25.2428  -27.9047  129.7647 C   0  0  0  0  0  0  0  0  0  0  0  0
  -24.5554  -21.9145  134.5397 C   0  0  0  0  0  0  0  0  0  0  0  0
  -23.1641  -21.6062  135.4460 N   0  0  0  0  0  0  0  0  0  0  0  0
  -22.9814  -21.7729  136.9544 C   0  0  0  0  0  0  0  0  0  0  0  0
  -24.1430  -20.9379  137.6928 C   0  0  0  0  0  0  0  0  0  0  0  0
  -25.2498  -21.7235  138.3132 C   0  0  0  0  0  0  0  0  0  0  0  0
  -24.0240  -21.2415  139.2087 C   0  0  0  0  0  0  0  0  0  0  0  0
  2  1  1  0
  4  2  1  0
  5  1  1  0
  6  4  1  0
  6  5  2  0
  7  3  1  0
  8  1  1  0
 11  8  1  0
 12  7  1  0
 12 10  1  0
 13 11  1  0
 14  8  1  0
 14  9  1  0
 15 13  2  0
 16 11  1  0
 16 14  1  0
 17  2  1  0
 17  3  1  0
 18  4  1  0
 19 13  1  0
 20 19  1  0
 21 20  1  0
 22 21  1  0
 23 22  1  0
 24 22  1  0
 24 23  1  0
M  END
$$$$

     RDKit          3D

 24 30  0  0  0  0  0  0  0  0999 V2000
  -24.2539  -13.9167  141.9436 O   0  0  0  0  0  0  0  0  0  0  0  0
  -25.4641  -14.0781  142.6321 C   0  0  0  0  0  0  0  0  0  0  0  0
  -26.5678  -14.5134  141.7060 C   0  0  0  0  0  0  0  0  0  0  0  0
  -26.6688  -16.0339  141.5332 C   0  0  0  0  0  0  0  0  0  0  0  0
  -27.0353  -17.5838  141.5760 C   0  0  0  0  0  0  0  0  0  0  0  0
  -26.6541  -17.9259  140.1875 N   0  0  0  0  0  0  0  0  0  0  0  0
  -25.9360  -15.5171  142.7492 C   0  0  0  0  0  0  0  0  0  0  0  0
  -25.2792  -18.4415  140.1918 C   0  0  0  0  0  0  0  0  0  0  0  0
  -28.3972  -18.3307  141.7776 C   0  0  0  0  0  0  0  0  0  0  0  0
  -29.5225  -18.7527  139.4070 C   0  0  0  0  0  0  0  0  0  0  0  0
  -29.2054  -17.0761  141.8936 C   0  0  0  0  0  0  0  0  0  0  0  0
  -28.8495  -15.9543  140.9911 N   0  0  0  0  0  0  0  0  0  0  0  0
  -29.8461  -13.8914  140.1979 C   0  0  0  0  0  0  0  0  0  0  0  0
  -24.7139  -18.6613  138.7976 C   0  0  0  0  0  0  0  0  0  0  0  0
  -31.0162  -18.4241  139.5578 C   0  0  0  0  0  0  0  0  0  0  0  0
  -28.9802  -13.9241  139.0927 O   0  0  0  0  0  0  0  0  0  0  0  0
  -29.2085  -14.5780  141.4170 C   0  0  0  0  0  0  0  0  0  0  0  0
  -29.3293  -19.7288  138.2395 C   0  0  0  0  0  0  0  0  0  0  0  0
  -28.9199  -19.3507  140.7138 C   0  0  0  0  0  0  0  0  0  0  0  0
  -24.2199  -17.4963  139.6405 C   0  0  0  0  0  0  0  0  0  0  0  0
  -27.9458  -16.3907  142.0407 C   0  0  0  0  0  0  0  0  0  0  0  0
  -27.9529  -13.8127  142.0695 C   0  0  0  0  0  0  0  0  0  0  0  0
  -27.9142  -12.2672  141.9008 C   0  0  0  0  0  0  0  0  0  0  0  0
  -27.3883  -11.7560  140.5499 C   0  0  0  0  0  0  0  0  0  0  0  0
  2  1  1  0
  3  2  1  0
  4  3  1  0
  5  4  1  0
  6  5  1  0
  7  2  1  0
  7  3  1  0
  7  4  1  0
  8  6  1  0
  9  5  1  0
 11  9  1  0
 12 11  1  0
 14  8  1  0
 15 10  1  0
 16 13  1  0
 17 12  1  0
 17 13  1  0
 18 10  1  0
 19  9  1  0
 19 10  1  0
 20  8  1  0
 20 14  1  0
 21  4  1  0
 21  5  1  0
 21 11  1  0
 21 12  1  0
 22  3  1  0
 22 17  1  0
 23 22  1  0
 24 23  1  0
M  END
$$$$

     RDKit          3D

 17 21  0  0  0  0  0  0  0  0999 V2000
  -29.9455  -17.9528  145.8795 C   0  0  0  0  0  0  0  0  0  0  0  0
  -29.7872  -20.0480  147.3537 C   0  0  0  0  0  0  0  0  0  0  0  0
  -30.2044  -21.4142  147.8937 C   0  0  0  0  0  0  0  0  0  0  0  0
  -28.9765  -17.1677  146.7932 C   0  0  0  0  0  0  0  0  0  0  0  0
  -28.3019  -17.6451  148.1386 C   0  0  0  0  0  0  0  0  0  0  0  0
  -29.1304  -18.4432  149.2088 C   0  0  0  0  0  0  0  0  0  0  0  0
  -30.1887  -19.4030  148.6627 C   0  0  0  0  0  0  0  0  0  0  0  0
  -30.4588  -16.8218  146.7891 C   0  0  0  0  0  0  0  0  0  0  0  0
  -30.3481  -20.7919  149.2842 C   0  0  0  0  0  0  0  0  0  0  0  0
  -27.6491  -16.3861  148.7915 C   0  0  0  0  0  0  0  0  0  0  0  0
  -31.9943  -19.4662  146.0773 C   0  0  0  0  0  0  0  0  0  0  0  0
  -30.4561  -19.4004  146.1359 C   0  0  0  0  0  0  0  0  0  0  0  0
  -26.9049  -17.3980  151.1061 C   0  0  0  0  0  0  0  0  0  0  0  0
  -27.0205  -16.3181  152.1627 C   0  0  0  0  0  0  0  0  0  0  0  0
  -26.5418  -16.5250  149.8701 C   0  0  0  0  0  0  0  0  0  0  0  0
  -26.0962  -17.3292  152.2794 O   0  0  0  0  0  0  0  0  0  0  0  0
  -25.8267  -17.8008  150.0617 C   0  0  0  0  0  0  0  0  0  0  0  0
  3  2  1  0
  4  1  1  0
  5  4  1  0
  6  5  1  0
  7  2  1  0
  7  6  1  0
  8  1  1  0
  8  4  1  0
  9  3  1  0
  9  7  1  0
 10  5  1  0
 12  1  1  0
 12  2  1  0
 12 11  1  0
 14 13  1  0
 15 10  1  0
 15 13  1  0
 16 13  1  0
 16 14  1  0
 17 13  1  0
 17 15  1  0
M  END
$$$$

     RDKit          3D

 24 27  0  0  0  0  0  0  0  0999 V2000
  -26.9616   -6.5227  149.1020 C   0  0  0  0  0  0  0  0  0  0  0  0
  -26.9209   -7.8549  149.2639 C   0  0  0  0  0  0  0  0  0  0  0  0
  -26.4683   -5.7927  147.8818 C   0  0  0  0  0  0  0  0  0  0  0  0
  -27.4100   -5.9614  146.6638 C   0  0  0  0  0  0  0  0  0  0  0  0
  -26.3894   -8.8279  148.2463 C   0  0  0  0  0  0  0  0  0  0  0  0
  -27.3091   -8.9446  147.0100 C   0  0  0  0  0  0  0  0  0  0  0  0
  -26.9648   -6.8419  145.4561 C   0  0  0  0  0  0  0  0  0  0  0  0
  -25.5694   -7.5100  145.4486 C   0  0  0  0  0  0  0  0  0  0  0  0
  -27.6876   -6.4913  144.1440 C   0  0  0  0  0  0  0  0  0  0  0  0
  -24.8431   -7.8570  144.1295 C   0  0  0  0  0  0  0  0  0  0  0  0
  -23.7678   -6.8291  143.6644 C   0  0  0  0  0  0  0  0  0  0  0  0
  -26.8352   -8.3681  145.6503 C   0  0  0  0  0  0  0  0  0  0  0  0
  -22.5835   -6.7381  144.6629 C   0  0  0  0  0  0  0  0  0  0  0  0
  -24.3795   -5.5074  143.2864 N   0  0  0  0  0  0  0  0  0  0  0  0
  -23.3923   -4.3769  143.4166 C   0  0  0  0  0  0  0  0  0  0  0  0
  -23.8658   -2.9371  142.9578 C   0  0  0  0  0  0  0  0  0  0  0  0
  -25.2027   -2.7845  142.2294 C   0  0  0  0  0  0  0  0  0  0  0  0
  -25.0341   -5.6594  141.9432 C   0  0  0  0  0  0  0  0  0  0  0  0
  -24.2031   -4.8002  140.5561 S   0  0  0  0  0  0  0  0  0  0  0  0
  -22.7446   -5.5825  145.6294 C   0  0  0  0  0  0  0  0  0  0  0  0
  -25.1343   -3.2444  140.7670 C   0  0  0  0  0  0  0  0  0  0  0  0
  -22.8741   -4.2405  144.8919 C   0  0  0  0  0  0  0  0  0  0  0  0
  -21.5580   -3.4760  144.9281 C   0  0  0  0  0  0  0  0  0  0  0  0
  -21.0905   -2.9112  146.0490 C   0  0  0  0  0  0  0  0  0  0  0  0
  2  1  2  3
  3  1  1  0
  4  3  1  0
  5  2  1  0
  6  5  1  0
  7  4  1  0
  8  7  1  0
  9  7  1  0
 10  8  1  0
 11 10  1  0
 12  6  1  0
 12  7  1  0
 12  8  1  0
 13 11  1  0
 14 11  1  0
 15 14  1  0
 16 15  1  0
 17 16  1  0
 18 14  1  0
 19 18  1  0
 20 13  1  0
 21 17  1  0
 21 19  1  0
 22 15  1  0
 22 20  1  0
 23 22  1  0
 24 23  2  0
M  END
$$$$

     RDKit          3D

 15 14  0  0  0  0  0  0  0  0999 V2000
  -30.6293    1.4538  133.4042 N   0  0  0  0  0  0  0  0  0  0  0  0
  -28.4242   -1.1180  133.0719 C   0  0  0  0  0  0  0  0  0  0  0  0
  -30.1855   -2.9661  132.6478 C   0  0  0  0  0  0  0  0  0  0  0  0
  -29.8255   -1.0520  130.8932 C   0  0  0  0  0  0  0  0  0  0  0  0
  -28.5891   -0.0943  135.3065 C   0  0  0  0  0  0  0  0  0  0  0  0
  -29.2215   -0.4182  134.1622 C   0  0  0  0  0  0  0  0  0  0  0  0
  -29.4820   -4.3362  132.8343 C   0  0  0  0  0  0  0  0  0  0  0  0
  -29.2170   -1.9279  132.0096 C   0  0  0  0  0  0  0  0  0  0  0  0
  -30.0701   -4.4758  135.6011 S   0  0  0  0  0  0  0  0  0  0  0  0
  -27.2929   -4.3730  138.4102 C   0  0  0  0  0  0  0  0  0  0  0  0
  -28.3870   -4.9210  136.1818 C   0  0  0  0  0  0  0  0  0  0  0  0
  -29.6266   -6.6710  133.8665 C   0  0  0  0  0  0  0  0  0  0  0  0
  -28.3928   -5.1573  137.7026 C   0  0  0  0  0  0  0  0  0  0  0  0
  -30.6299    0.0950  133.9522 C   0  0  0  0  0  0  0  0  0  0  0  0
  -30.1444   -5.2268  133.9058 C   0  0  0  0  0  0  0  0  0  0  0  0
  6  2  1  0
  6  5  2  0
  7  3  1  0
  8  2  1  0
  8  3  1  0
  8  4  1  0
 11  9  1  0
 13 10  1  0
 13 11  1  0
 14  1  1  0
 14  6  1  0
 15  7  1  0
 15  9  1  0
 15 12  1  0
M  END
$$$$

     RDKit          3D

 24 28  0  0  0  0  0  0  0  0999 V2000
  -31.1553   -5.5305  142.0026 S   0  0  0  0  0  5  0  0  0  0  0  0
  -31.3420   -6.3434  140.9670 C   0  0  0  0  0  0  0  0  0  0  0  0
  -31.7357   -5.0251  140.7476 O   0  0  0  0  0  0  0  0  0  0  0  0
  -27.7236   -6.2398  141.0628 C   0  0  0  0  0  0  0  0  0  0  0  0
  -27.3970   -6.1011  139.5373 C   0  0  0  0  0  0  0  0  0  0  0  0
  -41.3495  -17.6138  147.8783 O   0  0  0  0  0  0  0  0  0  0  0  0
  -28.5525   -7.7925  138.7130 C   0  0  0  0  0  0  0  0  0  0  0  0
  -33.3278   -5.0050  143.7683 C   0  0  0  0  0  0  0  0  0  0  0  0
  -27.1150   -6.7510  137.4873 C   0  0  0  0  0  0  0  0  0  0  0  0
  -27.0545   -7.4452  138.8539 C   0  0  0  0  0  0  0  0  0  0  0  0
  -29.5325   -6.4889  141.8533 As  0  0  0  0  0  3  0  0  0  0  0  0
  -32.4765   -7.0015  141.7808 C   0  0  0  0  0  0  0  0  0  0  0  0
  -32.1211   -5.9450  143.9682 C   0  0  0  0  0  0  0  0  0  0  0  0
  -32.2069   -7.2106  143.2207 N   0  0  0  0  0  2  0  0  0  0  0  0
  -33.0044   -3.5722  144.3056 C   0  0  0  0  0  0  0  0  0  0  0  0
  -34.6224   -5.7069  144.2773 C   0  0  0  0  0  0  0  0  0  0  0  0
  -28.3534   -6.3221  138.3262 C   0  0  0  0  0  0  0  0  0  0  0  0
  -31.9489   -2.8274  143.4549 C   0  0  0  0  0  0  0  0  0  0  0  0
  -30.8703   -2.3105  144.2276 O   0  0  0  0  0  0  0  0  0  0  0  0
  -29.9164   -3.3249  144.4572 C   0  0  0  0  0  0  0  0  0  0  0  0
  -34.7108   -5.8323  145.8022 C   0  0  0  0  0  0  0  0  0  0  0  0
  -35.7006   -4.9562  145.0484 C   0  0  0  0  0  0  0  0  0  0  0  0
  -28.6584   -2.7167  145.0983 C   0  0  0  0  0  0  0  0  0  0  0  0
  -27.6275   -3.8007  145.3793 C   0  0  0  0  0  0  0  0  0  0  0  0
  3  1  1  0
  3  2  1  0
  5  4  1  0
  6  1  1  0
  8  1  1  0
 10  5  1  0
 10  7  1  0
 10  9  1  0
 11  2  1  0
 11  4  1  0
 12  1  1  0
 12  2  1  0
 13  8  1  0
 14 12  1  0
 14 13  1  0
 15  8  1  0
 16  8  1  0
 17  5  1  0
 17  7  1  0
 17  9  1  0
 18 15  1  0
 19 18  1  0
 20 19  1  0
 21 16  1  0
 22 16  1  0
 22 21  1  0
 23 20  1  0
 24 23  1  0
M  RAD  2   1   2  14   2
M  END
$$$$

     RDKit          3D

 24 25  0  0  0  0  0  0  0  0999 V2000
  -25.0558  -15.2018  143.6424 C   0  0  0  0  0  0  0  0  0  0  0  0
  -24.2074  -15.6196  144.7916 N   0  0  0  0  0  0  0  0  0  0  0  0
  -25.5728  -16.3274  142.8282 N   0  0  0  0  0  0  0  0  0  0  0  0
  -24.1031  -14.5591  145.8619 C   0  0  0  0  0  0  0  0  0  0  0  0
  -25.4741  -14.2413  146.3743 N   0  0  0  0  0  0  0  0  0  0  0  0
  -23.2729  -15.0413  147.0142 N   0  0  0  0  0  0  0  0  0  0  0  0
  -22.1478  -15.8754  146.5699 C   0  0  0  0  0  0  0  0  0  0  0  0
  -25.9068  -12.8530  146.1704 C   0  0  0  0  0  0  0  0  0  0  0  0
  -21.7913  -15.5610  145.1872 N   0  0  0  0  0  0  0  0  0  0  0  0
  -25.3933  -11.9423  147.2001 N   0  0  0  0  0  0  0  0  0  0  0  0
  -27.0574  -16.2878  142.9372 C   0  0  0  0  0  0  0  0  0  0  0  0
  -25.6002  -10.5781  149.1841 C   0  0  0  0  0  0  0  0  0  0  0  0
  -29.9725  -15.8324  142.6649 C   0  0  0  0  0  0  0  0  0  0  0  0
  -28.8062  -15.7612  141.7117 N   0  0  0  0  0  0  0  0  0  0  0  0
  -22.8498  -16.0309  144.2851 C   0  0  0  0  0  0  0  0  0  0  0  0
  -27.1174  -17.2272  140.5644 C   0  0  0  0  0  0  0  0  0  0  0  0
  -22.7745  -13.8734  147.7841 C   0  0  0  0  0  0  0  0  0  0  0  0
  -25.9792  -11.6959  148.5068 C   0  0  0  0  0  0  0  0  0  0  0  0
  -26.9791  -12.6938  149.0628 C   0  0  0  0  0  0  0  0  0  0  0  0
  -27.9225  -16.9558  141.8493 C   0  0  0  0  0  0  0  0  0  0  0  0
  -27.7525  -14.9907  142.4405 C   0  0  0  0  0  0  0  0  0  0  0  0
  -31.1285  -16.8242  142.3590 C   0  0  0  0  0  0  0  0  0  0  0  0
  -27.6026  -12.3036  150.3973 C   0  0  0  0  0  0  0  0  0  0  0  0
  -31.0694  -18.1990  143.0554 C   0  0  0  0  0  0  0  0  0  0  0  0
  2  1  1  0
  3  1  1  0
  4  2  1  0
  5  4  1  0
  6  4  1  0
  7  6  1  0
  8  5  1  0
  9  7  1  0
 10  8  1  0
 11  3  1  0
 14 13  1  0
 15  2  1  0
 15  9  1  0
 17  6  1  0
 18 10  1  0
 18 12  2  0
 19 18  1  0
 20 11  1  0
 20 14  1  0
 20 16  1  0
 21 11  1  0
 21 14  1  0
 22 13  1  0
 23 19  1  0
 24 22  1  0
M  END
$$$$

     RDKit          3D

 24 26  0  0  0  0  0  0  0  0999 V2000
  -27.5890  -10.6537  150.6149 O   0  0  0  0  0  0  0  0  0  0  0  0
  -28.7006  -11.2161  149.9588 C   0  0  0  0  0  0  0  0  0  0  0  0
  -29.6575  -10.2101  149.6078 O   0  0  0  0  0  0  0  0  0  0  0  0
  -29.3012  -12.7161  147.7862 C   0  0  0  0  0  0  0  0  0  0  0  0
  -28.7863  -13.8544  147.1350 O   0  0  0  0  0  0  0  0  0  0  0  0
  -28.2610  -12.2712  148.8688 C   0  0  0  0  0  0  0  0  0  0  0  0
  -28.2728   -8.3063  148.7239 C   0  0  0  0  0  0  0  0  0  0  0  0
  -30.6609  -13.1044  148.3691 C   0  0  0  0  0  0  0  0  0  0  0  0
  -26.8941  -11.9463  148.2269 C   0  0  0  0  0  0  0  0  0  0  0  0
  -28.8181   -7.0047  149.3050 C   0  0  0  0  0  0  0  0  0  0  0  0
  -27.6978   -7.8771  147.3974 C   0  0  0  0  0  0  0  0  0  0  0  0
  -28.1788   -5.9321  148.6555 O   0  0  0  0  0  0  0  0  0  0  0  0
  -26.4454   -7.0288  147.4422 C   0  0  0  0  0  0  0  0  0  0  0  0
  -29.3358   -9.4109  148.4856 C   0  0  0  0  0  0  0  0  0  0  0  0
  -26.9045  -10.7625  147.5321 F   0  0  0  0  0  0  0  0  0  0  0  0
  -26.6487   -5.6773  146.8741 N   0  0  0  0  0  0  0  0  0  0  0  0
  -26.7147   -5.5583  145.3896 C   0  0  0  0  0  0  0  0  0  0  0  0
  -27.8210   -6.3990  147.3722 C   0  0  0  0  0  0  0  0  0  0  0  0
  -26.7807   -6.8295  144.5574 C   0  0  0  0  0  0  0  0  0  0  0  0
  -25.7057   -7.3198  144.0375 N   0  0  0  0  0  0  0  0  0  0  0  0
  -25.7812   -9.8098  143.9845 C   0  0  0  0  0  0  0  0  0  0  0  0
  -26.5891   -8.3981  141.9866 C   0  0  0  0  0  0  0  0  0  0  0  0
  -25.6301   -8.4974  143.1843 C   0  0  0  0  0  0  0  0  0  0  0  0
  -27.2081  -10.3041  144.2335 C   0  0  0  0  0  0  0  0  0  0  0  0
  2  1  1  0
  3  2  1  0
  5  4  1  0
  6  2  1  0
  6  4  1  0
  8  4  1  0
  9  6  1  0
 10  7  1  0
 11  7  1  0
 12 10  1  0
 13 11  1  0
 14  3  1  0
 14  7  1  0
 15  9  1  0
 16 13  1  0
 17 16  1  0
 18 11  1  0
 18 12  1  0
 18 13  1  0
 18 16  1  0
 19 17  1  0
 20 19  2  3
 23 20  1  0
 23 21  1  0
 23 22  1  0
 24 21  1  0
M  END
$$$$

     RDKit          3D

 24 27  0  0  0  0  0  0  0  0999 V2000
  -27.4820   -1.4939  139.9075 N   0  0  0  0  0  0  0  0  0  0  0  0
  -27.1740   -0.7381  141.1903 C   0  0  0  0  0  0  0  0  0  0  0  0
  -26.0370   -1.3231  142.0327 N   0  0  0  0  0  0  0  0  0  0  0  0
  -28.3724   -0.5699  142.0265 N   0  0  0  0  0  0  0  0  0  0  0  0
  -28.8086   -1.4003  139.2217 C   0  0  0  0  0  0  0  0  0  0  0  0
  -28.8755   -2.3780  138.0854 N   0  0  0  0  0  0  0  0  0  0  0  0
  -27.7347   -2.8617  140.2127 N   0  0  0  0  0  0  0  0  0  0  0  0
  -25.3557   -2.6268  141.8356 C   0  0  0  0  0  0  0  0  0  0  0  0
  -29.9276   -2.7027  136.9315 C   0  0  0  0  0  0  0  0  0  0  0  0
  -29.0548   -2.8456  139.5727 C   0  0  0  0  0  0  0  0  0  0  0  0
  -26.6706    0.7115  140.8215 C   0  0  0  0  0  0  0  0  0  0  0  0
  -30.8282   -3.5961  134.4458 C   0  0  0  0  0  0  0  0  0  0  0  0
  -30.8587   -3.5090  132.7616 C   0  0  0  0  0  0  0  0  0  0  0  0
  -24.3179   -2.7808  140.6327 C   0  0  0  0  0  0  0  0  0  0  0  0
  -24.1110   -1.6251  139.6401 C   0  0  0  0  0  0  0  0  0  0  0  0
  -31.3539   -4.8912  132.1002 C   0  0  0  0  0  0  0  0  0  0  0  0
  -22.6573   -1.6068  139.1349 C   0  0  0  0  0  0  0  0  0  0  0  0
  -22.0748   -0.3490  139.3142 O   0  0  0  0  0  0  0  0  0  0  0  0
  -28.7361   -5.2095  130.7831 Br  0  0  0  0  0  0  0  0  0  0  0  0
  -29.5898   -3.3809  135.4262 C   0  0  0  0  0  0  0  0  0  0  0  0
  -30.6790   -5.3322  130.7742 C   0  0  0  0  0  0  0  0  0  0  0  0
  -23.6524   -1.7544  138.0907 C   0  0  0  0  0  0  0  0  0  0  0  0
  -32.9908   -5.1007  131.9672 C   0  0  0  0  0  0  0  0  0  0  0  0
  -25.0904   -1.6902  138.5032 C   0  0  0  0  0  0  0  0  0  0  0  0
  2  1  1  0
  3  2  1  0
  4  2  1  0
  5  1  1  0
  6  5  1  0
  7  1  1  0
  8  3  1  0
  9  6  1  0
 10  5  1  0
 10  6  1  0
 10  7  1  0
 11  2  1  0
 13 12  1  0
 14  8  1  0
 15 14  1  0
 16 13  1  0
 17 15  1  0
 18 17  1  0
 20  9  1  0
 20 12  1  0
 21 16  1  0
 21 19  1  0
 22 15  1  0
 22 17  1  0
 23 16  1  0
 24 15  1  0
 24 22  1  0
M  END
$$$$

     RDKit          3D

 22 24  0  0  0  0  0  0  0  0999 V2000
  -29.9167  -13.5345  143.4058 O   0  0  0  0  0  0  0  0  0  0  0  0
  -29.7221  -12.3181  143.1425 C   0  0  0  0  0  0  0  0  0  0  0  0
  -29.9523  -11.8388  141.8177 N   0  0  0  0  0  0  0  0  0  0  0  0
  -32.5073   -8.6099  143.9076 Br  0  0  0  0  0  0  0  0  0  0  0  0
  -29.1980  -11.3989  144.2119 C   0  0  0  0  0  0  0  0  0  0  0  0
  -27.6719  -11.1955  144.2925 C   0  0  0  0  0  0  0  0  0  0  0  0
  -30.0376  -11.3221  145.4359 C   0  0  0  0  0  0  0  0  0  0  0  0
  -29.3987  -10.9569  146.7922 C   0  0  0  0  0  0  0  0  0  0  0  0
  -26.1518  -12.3547  143.0746 P   0  0  0  0  0  0  0  0  0  0  0  0
  -24.7593  -11.5420  143.7245 O   0  0  0  0  0  0  0  0  0  0  0  0
  -27.1318  -10.9229  143.0303 O   0  0  0  0  0  0  0  0  0  0  0  0
  -30.4492  -10.7935  147.9018 C   0  0  0  0  0  0  0  0  0  0  0  0
  -27.0204  -12.4015  144.5777 O   0  0  0  0  0  0  0  0  0  0  0  0
  -30.0828  -10.0581  144.4207 B   0  0  0  0  0  0  0  0  0  0  0  0
  -31.6885   -9.2962  149.5004 C   0  0  0  0  0  0  0  0  0  0  0  0
  -29.7885  -12.1241  148.9682 S   0  0  0  0  0  0  0  0  0  0  0  0
  -27.3826  -11.9304  147.7790 O   0  0  0  0  0  0  0  0  0  0  0  0
  -28.7364  -12.1553  147.4747 C   0  0  0  0  0  0  0  0  0  0  0  0
  -29.2123   -8.9496  149.2766 C   0  0  0  0  0  0  0  0  0  0  0  0
  -31.7105   -9.9363  150.6755 C   0  0  0  0  0  0  0  0  0  0  0  0
  -30.5065   -9.3896  148.5645 C   0  0  0  0  0  0  0  0  0  0  0  0
  -30.5809   -8.6213  143.9893 C   0  0  0  0  0  0  0  0  0  0  0  0
  2  1  2  0
  3  2  1  0
  5  2  1  0
  6  5  1  0
  7  5  1  0
  8  7  1  0
 10  9  1  0
 11  6  1  0
 11  9  1  0
 12  8  1  0
 13  6  1  0
 13  9  1  0
 14  5  1  0
 14  7  1  0
 16 12  1  0
 18  8  1  0
 18 16  1  0
 18 17  1  0
 20 15  2  0
 21 12  1  0
 21 15  1  0
 21 19  1  0
 22  4  1  0
 22 14  1  0
M  END
$$$$

     RDKit          3D

 10 11  0  0  0  0  0  0  0  0999 V2000
  -24.7624    1.3714  139.3376 N   0  0  0  0  0  0  0  0  0  0  0  0
  -24.3944    2.0776  138.0941 C   0  0  0  0  0  0  0  0  0  0  0  0
  -24.0462    1.1542  137.1020 O   0  0  0  0  0  0  0  0  0  0  0  0
  -23.5105    3.4458  140.0754 C   0  0  0  0  0  0  0  0  0  0  0  0
  -22.2498    1.2156  139.2436 C   0  0  0  0  0  0  0  0  0  0  0  0
  -21.3280    1.3444  140.4637 C   0  0  0  0  0  0  0  0  0  0  0  0
  -22.0517    1.0114  141.7805 C   0  0  0  0  0  0  0  0  0  0  0  0
  -23.4959    2.1367  139.2586 C   0  0  0  0  0  0  0  0  0  0  0  0
  -21.6879    1.9366  142.9384 C   0  0  0  0  0  0  0  0  0  0  0  0
  -21.1648    0.5132  142.9131 C   0  0  0  0  0  0  0  0  0  0  0  0
  2  1  1  0
  3  2  1  0
  6  5  1  0
  7  6  1  0
  8  1  1  0
  8  2  1  0
  8  4  1  0
  8  5  1  0
  9  7  1  0
 10  7  1  0
 10  9  1  0
M  END
$$$$

     RDKit          3D

 24 28  0  0  0  0  0  0  0  0999 V2000
  -25.2086    5.4032  135.1640 O   0  0  0  0  0  0  0  0  0  0  0  0
  -23.9071    5.9297  135.0610 C   0  0  0  0  0  0  0  0  0  0  0  0
  -23.8722    7.2548  135.5403 O   0  0  0  0  0  0  0  0  0  0  0  0
  -22.8132    5.0598  135.7478 C   0  0  0  0  0  0  0  0  0  0  0  0
  -22.9138    3.5324  135.8246 C   0  0  0  0  0  0  0  0  0  0  0  0
  -24.1530    2.8515  135.2244 C   0  0  0  0  0  0  0  0  0  0  0  0
  -24.1491    2.5560  133.7121 C   0  0  0  0  0  0  0  0  0  0  0  0
  -23.2213    4.3903  137.0538 C   0  0  0  0  0  0  0  0  0  0  0  0
  -22.9321    2.8567  132.7912 C   0  0  0  0  0  0  0  0  0  0  0  0
  -23.1726    3.3886  131.3838 C   0  0  0  0  0  0  0  0  0  0  0  0
  -23.5619    2.2381  130.4289 C   0  0  0  0  0  0  0  0  0  0  0  0
  -22.9999    2.4041  128.9889 C   0  0  0  0  0  0  0  0  0  0  0  0
  -21.4824    2.5447  128.8845 C   0  0  0  0  0  0  0  0  0  0  0  0
  -20.9999    3.4632  127.7610 C   0  0  0  0  0  0  0  0  0  0  0  0
  -21.6546    2.5311  133.1167 C   0  0  0  0  0  0  0  0  0  0  0  0
  -22.1211    1.2592  128.3903 C   0  0  0  0  0  0  0  0  0  0  0  0
  -21.7752    0.0205  129.2770 C   0  0  0  0  0  0  0  0  0  0  0  0
  -25.5643    2.5889  133.0924 C   0  0  0  0  0  0  0  0  0  0  0  0
  -23.9674    1.4169  134.7224 C   0  0  0  0  0  0  0  0  0  0  0  0
  -23.5598    1.4612  127.9074 C   0  0  0  0  0  0  0  0  0  0  0  0
  -22.8628   -1.0653  129.4105 C   0  0  0  0  0  0  0  0  0  0  0  0
  -24.5627    0.3367  128.2349 C   0  0  0  0  0  0  0  0  0  0  0  0
  -23.8743   -1.0250  128.2671 C   0  0  0  0  0  0  0  0  0  0  0  0
  -19.6854    2.9499  127.1789 C   0  0  0  0  0  0  0  0  0  0  0  0
  2  1  1  0
  3  2  1  0
  4  2  1  0
  5  4  1  0
  6  5  1  0
  7  6  1  0
  8  4  1  0
  8  5  1  0
  9  7  1  0
 10  9  1  0
 11 10  1  0
 12 11  1  0
 13 12  1  0
 14 13  1  0
 15  9  2  0
 16 12  1  0
 16 13  1  0
 17 16  1  0
 18  7  1  0
 19  6  1  0
 19  7  1  0
 20 12  1  0
 20 16  1  0
 21 17  1  0
 22 20  1  0
 23 21  1  0
 23 22  1  0
 24 14  1  0
M  END
$$$$

     RDKit          3D

 23 22  0  0  0  0  0  0  0  0999 V2000
  -20.7700   -6.0101  135.6917 C   0  0  0  0  0  0  0  0  0  0  0  0
  -22.6575   -4.8068  135.0023 C   0  0  0  0  0  0  0  0  0  0  0  0
  -22.5744   -3.6130  135.9895 C   0  0  0  0  0  0  0  0  0  0  0  0
  -20.5160   -7.4571  135.2466 C   0  0  0  0  0  0  0  0  0  0  0  0
  -23.9701   -4.5653  137.7953 C   0  0  0  0  0  0  0  0  0  0  0  0
  -20.4586   -8.4745  136.4054 C   0  0  0  0  0  0  0  0  0  0  0  0
  -20.0263   -7.5642  138.6387 C   0  0  0  0  0  0  0  0  0  0  0  0
  -24.7286   -2.3919  136.8349 C   0  0  0  0  0  0  0  0  0  0  0  0
  -19.2353   -5.2333  136.1747 Cl  0  0  0  0  0  0  0  0  0  0  0  0
  -21.3549   -5.2513  134.6440 O   0  0  0  0  0  0  0  0  0  0  0  0
  -18.9515   -6.9153  139.5244 C   0  0  0  0  0  0  0  0  0  0  0  0
  -25.1340   -1.7930  138.2035 C   0  0  0  0  0  0  0  0  0  0  0  0
  -16.7855   -8.2311  139.8257 C   0  0  0  0  0  0  0  0  0  0  0  0
  -18.1961   -7.9537  140.4064 C   0  0  0  0  0  0  0  0  0  0  0  0
  -23.9988   -1.5449  139.2535 C   0  0  0  0  0  0  0  0  0  0  0  0
  -22.7680   -0.8545  138.6368 C   0  0  0  0  0  0  0  0  0  0  0  0
  -24.5641   -0.6943  140.4231 C   0  0  0  0  0  0  0  0  0  0  0  0
  -23.7773   -3.5659  136.9143 C   0  0  0  0  0  0  0  0  0  0  0  0
  -18.1370   -7.4638  141.8688 C   0  0  0  0  0  0  0  0  0  0  0  0
  -16.0173   -9.3195  140.5786 C   0  0  0  0  0  0  0  0  0  0  0  0
  -19.4303   -8.1329  137.4115 N   0  0  0  0  0  0  0  0  0  0  0  0
  -23.8275   -0.9473  141.7456 C   0  0  0  0  0  0  0  0  0  0  0  0
  -24.5307    0.1328  143.0462 S   0  0  0  0  0  0  0  0  0  0  0  0
  3  2  1  0
  4  1  1  0
  6  4  1  0
  9  1  1  0
 10  1  1  0
 10  2  1  0
 11  7  1  0
 12  8  1  0
 14 11  1  0
 14 13  1  0
 15 12  1  0
 16 15  1  0
 17 15  1  0
 18  3  1  0
 18  5  2  0
 18  8  1  0
 19 14  1  0
 20 13  1  0
 21  6  1  0
 21  7  1  0
 22 17  1  0
 23 22  1  0
M  END
$$$$

     RDKit          3D

 24 27  0  0  0  0  0  0  0  0999 V2000
  -28.7235   -5.9088  146.6685 C   0  0  0  0  0  0  0  0  0  0  0  0
  -30.8939   -4.6577  146.6375 N   0  0  0  0  0  0  0  0  0  0  0  0
  -27.9590   -5.1168  147.6508 N   0  0  0  0  0  0  0  0  0  0  0  0
  -26.8984   -4.3517  146.9906 C   0  0  0  0  0  0  0  0  0  0  0  0
  -26.1839   -3.3816  147.8905 C   0  0  0  0  0  0  0  0  0  0  0  0
  -29.7348   -5.0729  145.8552 C   0  0  0  0  0  0  0  0  0  0  0  0
  -24.9388   -3.9063  148.5788 C   0  0  0  0  0  0  0  0  0  0  0  0
  -25.0453   -4.5145  149.9894 C   0  0  0  0  0  0  0  0  0  0  0  0
  -26.4528   -4.9673  150.4369 C   0  0  0  0  0  0  0  0  0  0  0  0
  -26.7243   -6.4018  150.9025 C   0  0  0  0  0  0  0  0  0  0  0  0
  -25.6198   -7.4879  150.8803 C   0  0  0  0  0  0  0  0  0  0  0  0
  -25.5094   -4.7271  147.4450 C   0  0  0  0  0  0  0  0  0  0  0  0
  -26.4957   -5.3075  151.9314 C   0  0  0  0  0  0  0  0  0  0  0  0
  -25.4489   -8.1025  149.4787 C   0  0  0  0  0  0  0  0  0  0  0  0
  -24.1994   -8.9667  149.4578 C   0  0  0  0  0  0  0  0  0  0  0  0
  -23.2981   -8.9940  148.4603 C   0  0  0  0  0  0  0  0  0  0  0  0
  -23.3235   -8.0727  147.2672 C   0  0  0  0  0  0  0  0  0  0  0  0
  -26.6699   -8.9758  149.0966 C   0  0  0  0  0  0  0  0  0  0  0  0
  -26.8685   -9.0489  147.5785 C   0  0  0  0  0  0  0  0  0  0  0  0
  -22.4367   -8.5902  146.1224 C   0  0  0  0  0  0  0  0  0  0  0  0
  -20.9477   -8.3331  146.3699 C   0  0  0  0  0  0  0  0  0  0  0  0
  -26.3501  -10.2890  146.8599 C   0  0  0  0  0  0  0  0  0  0  0  0
  -26.0609  -10.0831  145.5012 O   0  0  0  0  0  0  0  0  0  0  0  0
  -27.8299  -10.1403  147.1403 C   0  0  0  0  0  0  0  0  0  0  0  0
  3  1  1  0
  4  3  1  0
  5  4  1  0
  6  1  1  0
  6  2  1  0
  7  5  1  0
  8  7  1  0
  9  8  1  0
 10  9  1  0
 11 10  1  0
 12  4  1  0
 12  5  1  0
 12  7  1  0
 13  9  1  0
 13 10  1  0
 14 11  1  0
 15 14  1  0
 16 15  2  3
 17 16  1  0
 18 14  1  0
 19 18  1  0
 20 17  1  0
 21 20  1  0
 22 19  1  0
 23 22  1  0
 24 19  1  0
 24 22  1  0
M  END
$$$$

     RDKit          3D

 24 26  0  0  0  0  0  0  0  0999 V2000
  -30.4557  -17.3095  144.7844 O   0  0  0  0  0  0  0  0  0  0  0  0
  -30.6274  -16.1880  145.2961 C   0  0  0  0  0  0  0  0  0  0  0  0
  -31.0040  -17.0557  144.1995 O   0  0  0  0  0  0  0  0  0  0  0  0
  -31.6672  -15.7406  146.2768 C   0  0  0  0  0  0  0  0  0  0  0  0
  -33.4470  -18.5020  146.1004 Sb  0  0  0  0  0  3  0  0  0  0  0  0
  -29.1523  -15.0029  148.3298 C   0  0  0  0  0  0  0  0  0  0  0  0
  -34.1043  -20.3764  146.5579 N   0  0  0  0  0  0  0  0  0  0  0  0
  -28.5035  -14.5215  147.2005 O   0  0  0  0  0  0  0  0  0  0  0  0
  -32.3423  -17.5702  147.9975 N   0  0  0  0  0  0  0  0  0  0  0  0
  -35.4882  -20.1400  146.5274 C   0  0  0  0  0  0  0  0  0  0  0  0
  -29.9418  -16.3887  148.1012 C   0  0  0  0  0  0  0  0  0  0  0  0
  -35.8327  -18.4222  147.2937 C   0  0  0  0  0  0  0  0  0  0  0  0
  -35.8998  -18.5447  148.7295 C   0  0  0  0  0  0  0  0  0  0  0  0
  -36.9588  -19.5050  149.1957 C   0  0  0  0  0  0  0  0  0  0  0  0
  -35.4944  -19.9345  149.3586 C   0  0  0  0  0  0  0  0  0  0  0  0
  -35.6444  -16.7432  147.3735 C   0  0  0  0  0  0  0  0  0  0  0  0
  -35.8453  -17.2206  146.0944 C   0  0  0  0  0  0  0  0  0  0  0  0
  -33.4652  -21.4754  147.2728 C   0  0  0  0  0  0  0  0  0  0  0  0
  -36.4802  -14.6888  148.9952 C   0  0  0  0  0  0  0  0  0  0  0  0
  -36.8129  -13.4307  148.1895 C   0  0  0  0  0  0  0  0  0  0  0  0
  -31.5031  -16.3273  147.7384 C   0  0  0  0  0  0  0  0  0  0  0  0
  -36.4934  -18.1663  145.5848 C   0  0  0  0  0  0  0  0  0  0  0  0
  -36.8838  -15.9635  148.1661 C   0  0  0  0  0  0  0  0  0  0  0  0
  -32.6284  -21.9412  146.3008 O   0  0  0  0  0  0  0  0  0  0  0  0
  2  1  2  0
  3  2  1  0
  4  2  1  0
  7  5  1  0
  8  6  1  0
  9  5  1  0
 10  7  1  0
 11  6  1  0
 12 10  1  0
 13 12  1  0
 14 13  1  0
 15 13  1  0
 15 14  1  0
 16 12  1  0
 17 12  1  0
 17 16  1  0
 18  7  1  0
 20 19  1  0
 21  4  1  0
 21  9  1  0
 21 11  1  0
 22  5  1  0
 22 17  1  0
 23 16  1  0
 23 19  1  0
 24 18  1  0
M  END
$$$$

     RDKit          3D

 24 31  0  0  0  0  0  0  0  0999 V2000
  -31.7784   -8.4941  144.5994 O   0  0  0  0  0  0  0  0  0  0  0  0
  -32.2690  -11.7766  144.0914 C   0  0  0  0  0  0  0  0  0  0  0  0
  -32.4762  -12.8982  146.3815 C   0  0  0  0  0  0  0  0  0  0  0  0
  -34.5254  -10.8340  143.8538 C   0  0  0  0  0  0  0  0  0  0  0  0
  -33.2970  -14.1977  146.1584 C   0  0  0  0  0  0  0  0  0  0  0  0
  -33.3950  -14.8614  144.7989 C   0  0  0  0  0  0  0  0  0  0  0  0
  -34.9886  -11.0921  142.4184 C   0  0  0  0  0  0  0  0  0  0  0  0
  -33.7203  -11.9778  144.3383 N   0  0  0  0  0  0  0  0  0  0  0  0
  -35.9245   -9.9742  141.9391 C   0  0  0  0  0  0  0  0  0  0  0  0
  -35.2259   -8.6607  141.6614 C   0  0  0  0  0  0  0  0  0  0  0  0
  -35.5440   -8.0643  140.3449 C   0  0  0  0  0  0  0  0  0  0  0  0
  -34.0913  -16.2266  144.7982 C   0  0  0  0  0  0  0  0  0  0  0  0
  -34.1098  -16.9394  143.4374 C   0  0  0  0  0  0  0  0  0  0  0  0
  -35.7133   -9.5759  140.4962 C   0  0  0  0  0  0  0  0  0  0  0  0
  -33.0784  -16.7620  145.7930 C   0  0  0  0  0  0  0  0  0  0  0  0
  -36.8061   -7.2311  140.3212 C   0  0  0  0  0  0  0  0  0  0  0  0
  -36.0944   -7.4023  141.6461 C   0  0  0  0  0  0  0  0  0  0  0  0
  -31.5878   -9.3778  145.6701 C   0  0  0  0  0  0  0  0  0  0  0  0
  -30.1953   -9.8039  145.9270 C   0  0  0  0  0  0  0  0  0  0  0  0
  -32.8800  -16.8293  142.7703 O   0  0  0  0  0  0  0  0  0  0  0  0
  -32.7591  -10.2612  146.1421 C   0  0  0  0  0  0  0  0  0  0  0  0
  -32.7867  -11.6815  145.4706 C   0  0  0  0  0  0  0  0  0  0  0  0
  -32.4077  -15.3973  145.8570 C   0  0  0  0  0  0  0  0  0  0  0  0
  -30.8222   -8.8032  146.7051 O   0  0  0  0  0  0  0  0  0  0  0  0
  5  3  1  0
  6  5  1  0
  7  4  1  0
  8  2  1  0
  8  4  1  0
  9  7  1  0
 10  9  1  0
 11 10  1  0
 12  6  1  0
 13 12  1  0
 14  9  1  0
 14 10  1  0
 14 11  1  0
 15 12  1  0
 16 11  1  0
 17 10  1  0
 17 11  1  0
 17 16  1  0
 18  1  1  0
 19 18  1  0
 20 13  1  0
 21 18  1  0
 22  2  1  0
 22  3  1  0
 22  8  1  0
 22 21  1  0
 23  5  1  0
 23  6  1  0
 23 15  1  0
 24 18  1  0
 24 19  1  0
M  END
$$$$

     RDKit          3D

 23 27  0  0  0  0  0  0  0  0999 V2000
  -23.1582  -20.7167  143.1847 N   0  0  0  0  0  0  0  0  0  0  0  0
  -24.4307  -21.4282  143.0840 C   0  0  0  0  0  0  0  0  0  0  0  0
  -24.3701  -22.8899  143.1480 N   0  0  0  0  0  0  0  0  0  0  0  0
  -24.4806  -23.3212  144.5537 C   0  0  0  0  0  0  0  0  0  0  0  0
  -25.1603  -20.9890  141.7965 C   0  0  0  0  0  0  0  0  0  0  0  0
  -22.8435  -20.4403  144.6018 C   0  0  0  0  0  0  0  0  0  0  0  0
  -23.1400  -22.1430  142.8194 C   0  0  0  0  0  0  0  0  0  0  0  0
  -27.1514  -22.4089  142.2588 F   0  0  0  0  0  0  0  0  0  0  0  0
  -24.7816  -21.7582  140.7058 F   0  0  0  0  0  0  0  0  0  0  0  0
  -23.7759  -19.5558  145.1196 F   0  0  0  0  0  0  0  0  0  0  0  0
  -27.4120  -18.4749  142.1658 C   0  0  0  0  0  0  0  0  0  0  0  0
  -21.4123  -19.8613  144.7205 C   0  0  0  0  0  0  0  0  0  0  0  0
  -27.4474  -20.4936  140.8861 C   0  0  0  0  0  0  0  0  0  0  0  0
  -26.6869  -21.1326  141.9905 C   0  0  0  0  0  0  0  0  0  0  0  0
  -21.1184  -18.6580  143.7791 C   0  0  0  0  0  0  0  0  0  0  0  0
  -26.9479  -19.1470  143.3929 C   0  0  0  0  0  0  0  0  0  0  0  0
  -27.7058  -19.9924  142.3341 C   0  0  0  0  0  0  0  0  0  0  0  0
  -21.0493  -19.5773  146.1837 C   0  0  0  0  0  0  0  0  0  0  0  0
  -21.8428  -17.3341  144.0987 C   0  0  0  0  0  0  0  0  0  0  0  0
  -21.1018  -16.5206  145.1766 C   0  0  0  0  0  0  0  0  0  0  0  0
  -21.6617  -15.1126  145.3806 C   0  0  0  0  0  0  0  0  0  0  0  0
  -20.6273  -14.0488  145.7521 C   0  0  0  0  0  0  0  0  0  0  0  0
  -21.8940  -16.1798  146.4409 C   0  0  0  0  0  0  0  0  0  0  0  0
  2  1  1  0
  3  2  1  0
  4  3  1  0
  5  2  1  0
  6  1  1  0
  7  1  1  0
  7  2  1  0
  7  3  1  0
  9  5  1  0
 10  6  1  0
 12  6  1  0
 14  5  1  0
 14  8  1  0
 14 13  1  0
 15 12  1  0
 16 11  1  0
 17 11  1  0
 17 13  1  0
 17 14  1  0
 17 16  1  0
 18 12  1  0
 19 15  1  0
 20 19  1  0
 21 20  1  0
 22 21  1  0
 23 20  1  0
 23 21  1  0
M  END
$$$$

     RDKit          3D

 23 29  0  0  0  0  0  0  0  0999 V2000
  -25.7035   -0.4752  139.7537 O   0  0  0  0  0  0  0  0  0  0  0  0
  -25.2599    0.7899  140.1904 C   0  0  0  0  0  0  0  0  0  0  0  0
  -26.1073    1.9268  139.7436 N   0  0  0  0  0  0  0  0  0  0  0  0
  -23.7811    0.9337  139.7697 C   0  0  0  0  0  0  0  0  0  0  0  0
  -24.9384   -0.8099  138.6206 C   0  0  0  0  0  0  0  0  0  0  0  0
  -27.4646    1.7700  140.4152 C   0  0  0  0  0  0  0  0  0  0  0  0
  -27.9268    0.3981  140.9324 C   0  0  0  0  0  0  0  0  0  0  0  0
  -24.2725   -3.2379  139.4453 C   0  0  0  0  0  0  0  0  0  0  0  0
  -26.8560    2.0062  141.7876 C   0  0  0  0  0  0  0  0  0  0  0  0
  -26.9022    0.5220  142.0741 C   0  0  0  0  0  0  0  0  0  0  0  0
  -24.0136   -1.9553  141.5608 O   0  0  0  0  0  0  0  0  0  0  0  0
  -23.5518   -0.1950  138.7982 C   0  0  0  0  0  0  0  0  0  0  0  0
  -25.4842    4.9539  141.6272 C   0  0  0  0  0  0  0  0  0  0  0  0
  -24.9847   -2.3504  138.3852 C   0  0  0  0  0  0  0  0  0  0  0  0
  -24.5978   -2.7612  136.9372 C   0  0  0  0  0  0  0  0  0  0  0  0
  -24.7527    4.1904  142.7197 C   0  0  0  0  0  0  0  0  0  0  0  0
  -25.7460    2.4729  141.0375 C   0  0  0  0  0  0  0  0  0  0  0  0
  -23.1259   -2.5636  136.5570 C   0  0  0  0  0  0  0  0  0  0  0  0
  -24.4315   -2.4571  143.8604 C   0  0  0  0  0  0  0  0  0  0  0  0
  -24.1876   -1.5300  142.9319 C   0  0  0  0  0  0  0  0  0  0  0  0
  -25.5304    1.1516  141.6818 C   0  0  0  0  0  0  0  0  0  0  0  0
  -24.7767   -3.0543  140.8839 C   0  0  0  0  0  0  0  0  0  0  0  0
  -24.7836    3.6452  141.2951 C   0  0  0  0  0  0  0  0  0  0  0  0
  2  1  1  0
  3  2  1  0
  4  2  1  0
  5  1  1  0
  6  3  1  0
  7  6  1  0
  9  6  1  0
 10  7  1  0
 10  9  1  0
 12  4  1  0
 12  5  1  0
 14  5  1  0
 14  8  1  0
 15 14  1  0
 16 13  1  0
 17  3  1  0
 17  9  1  0
 18 15  1  0
 20 11  1  0
 20 19  2  0
 21  2  1  0
 21  9  1  0
 21 10  1  0
 21 17  1  0
 22  8  1  0
 22 11  1  0
 23 13  1  0
 23 16  1  0
 23 17  1  0
M  END
$$$$

     RDKit          3D

 14 14  0  0  0  0  0  0  0  0999 V2000
  -20.2347  -14.4823  137.2637 O   0  0  0  0  0  0  0  0  0  0  0  0
  -19.1556  -13.6470  137.6230 C   0  0  0  0  0  0  0  0  0  0  0  0
  -19.5397  -12.3014  137.5967 O   0  0  0  0  0  0  0  0  0  0  0  0
  -20.1857  -15.1375  138.5154 C   0  0  0  0  0  0  0  0  0  0  0  0
  -18.6874  -11.4021  144.5201 F   0  0  0  0  0  0  0  0  0  0  0  0
  -19.9562  -11.9445  143.1253 Mg  0  0  0  0  0  2  0  0  0  0  0  0
  -20.6325  -12.5158  140.2353 C   0  0  0  0  0  0  0  0  0  0  0  0
  -22.4364  -11.6523  141.5843 O   0  0  0  0  0  0  0  0  0  0  0  0
  -17.8613  -14.9581  139.1661 F   0  0  0  0  0  0  0  0  0  0  0  0
  -19.3609  -13.4024  140.2713 C   0  0  0  0  0  0  0  0  0  0  0  0
  -19.8210  -16.4903  138.3791 O   0  0  0  0  0  0  0  0  0  0  0  0
  -20.2727  -11.2064  139.9612 F   0  0  0  0  0  0  0  0  0  0  0  0
  -19.0494  -14.2582  139.0145 C   0  0  0  0  0  0  0  0  0  0  0  0
  -21.3545  -12.5436  141.5841 C   0  0  0  0  0  0  0  0  0  0  0  0
  2  1  1  0
  3  2  1  0
  4  1  1  0
  6  5  1  0
 10  7  1  0
 11  4  1  0
 12  7  1  0
 13  2  1  0
 13  4  1  0
 13  9  1  0
 13 10  1  0
 14  6  1  0
 14  7  1  0
 14  8  1  0
M  END
$$$$

     RDKit          3D

 23 28  0  0  0  0  0  0  0  0999 V2000
  -33.4251  -12.5809  147.0501 C   0  0  0  0  0  0  0  0  0  0  0  0
  -34.0785  -11.1788  146.8534 C   0  0  0  0  0  0  0  0  0  0  0  0
  -33.6995  -11.9474  145.6593 C   0  0  0  0  0  0  0  0  0  0  0  0
  -32.2186  -12.2408  147.9437 C   0  0  0  0  0  0  0  0  0  0  0  0
  -31.2345  -13.3798  148.0423 C   0  0  0  0  0  0  0  0  0  0  0  0
  -29.7288  -12.9571  147.9928 C   0  0  0  0  0  0  0  0  0  0  0  0
  -32.0115  -13.1311  146.7468 C   0  0  0  0  0  0  0  0  0  0  0  0
  -31.7898  -14.4464  149.0205 C   0  0  0  0  0  0  0  0  0  0  0  0
  -28.7147  -14.0309  147.4582 C   0  0  0  0  0  0  0  0  0  0  0  0
  -29.1398  -12.3113  149.3105 C   0  0  0  0  0  0  0  0  0  0  0  0
  -28.6511  -13.4216  150.2938 C   0  0  0  0  0  0  0  0  0  0  0  0
  -27.1270  -13.3472  150.6661 C   0  0  0  0  0  0  0  0  0  0  0  0
  -26.1472  -13.9912  149.5913 C   0  0  0  0  0  0  0  0  0  0  0  0
  -29.6402  -12.3606  150.7501 C   0  0  0  0  0  0  0  0  0  0  0  0
  -26.3840  -15.4822  149.1347 C   0  0  0  0  0  0  0  0  0  0  0  0
  -27.0723  -15.8520  147.7512 C   0  0  0  0  0  0  0  0  0  0  0  0
  -26.7517  -15.0089  146.4714 C   0  0  0  0  0  0  0  0  0  0  0  0
  -26.7756  -13.9317  152.0720 C   0  0  0  0  0  0  0  0  0  0  0  0
  -27.8739  -13.8787  153.1585 C   0  0  0  0  0  0  0  0  0  0  0  0
  -27.9734  -14.0820  146.1409 C   0  0  0  0  0  0  0  0  0  0  0  0
  -28.7084  -15.1786  153.2063 C   0  0  0  0  0  0  0  0  0  0  0  0
  -28.8775  -15.7640  147.9682 S   0  0  0  0  0  0  0  0  0  0  0  0
  -28.0418  -16.2386  154.0879 C   0  0  0  0  0  0  0  0  0  0  0  0
  2  1  1  0
  3  1  1  0
  3  2  1  0
  4  1  1  0
  5  4  1  0
  6  5  1  0
  7  1  1  0
  7  4  1  0
  7  5  1  0
  8  5  1  0
  9  6  1  0
 10  6  1  0
 11 10  1  0
 12 11  1  0
 13 12  1  0
 14 10  1  0
 14 11  1  0
 15 13  1  0
 16 15  1  0
 17 16  1  0
 18 12  1  0
 19 18  1  0
 20  9  1  0
 20 17  1  0
 21 19  1  0
 22  9  1  0
 22 16  1  0
 23 21  1  0
M  END
$$$$

     RDKit          3D

 24 27  0  0  0  0  0  0  0  0999 V2000
  -26.6810  -16.5672  146.9086 O   0  0  0  0  0  0  0  0  0  0  0  0
  -27.5955  -15.4901  146.9228 C   0  0  0  0  0  0  0  0  0  0  0  0
  -27.6228  -14.8412  145.6544 O   0  0  0  0  0  0  0  0  0  0  0  0
  -27.2854  -17.7031  146.3288 C   0  0  0  0  0  0  0  0  0  0  0  0
  -26.3253  -18.6807  146.1411 F   0  0  0  0  0  0  0  0  0  0  0  0
  -23.3419  -11.4938  146.9291 As  0  0  0  0  0  3  0  0  0  0  0  0
  -21.5806  -10.7191  147.3895 C   0  0  0  0  0  0  0  0  0  0  0  0
  -21.6604  -13.7643  146.1150 C   0  0  0  0  0  0  0  0  0  0  0  0
  -20.9332  -10.0358  146.1853 C   0  0  0  0  0  0  0  0  0  0  0  0
  -19.4349   -9.7677  146.4301 C   0  0  0  0  0  0  0  0  0  0  0  0
  -25.3011  -13.8385  145.9186 C   0  0  0  0  0  0  0  0  0  0  0  0
  -18.8080   -8.5149  145.8034 C   0  0  0  0  0  0  0  0  0  0  0  0
  -26.6030  -14.0105  145.1679 C   0  0  0  0  0  0  0  0  0  0  0  0
  -17.3051   -8.4240  145.4202 C   0  0  0  0  0  0  0  0  0  0  0  0
  -19.0417   -8.6142  147.3394 C   0  0  0  0  0  0  0  0  0  0  0  0
  -19.5842   -7.1987  145.7951 C   0  0  0  0  0  0  0  0  0  0  0  0
  -22.8259  -12.9089  145.6094 C   0  0  0  0  0  0  0  0  0  0  0  0
  -26.8477  -13.3018  144.0661 C   0  0  0  0  0  0  0  0  0  0  0  0
  -24.3630  -15.0334  145.8195 C   0  0  0  0  0  0  0  0  0  0  0  0
  -24.0205  -13.7467  145.0753 C   0  0  0  0  0  0  0  0  0  0  0  0
  -16.5053   -9.7392  145.4513 C   0  0  0  0  0  0  0  0  0  0  0  0
  -19.8275   -7.3081  147.2862 C   0  0  0  0  0  0  0  0  0  0  0  0
  -17.3764  -10.9627  145.1937 C   0  0  0  0  0  0  0  0  0  0  0  0
  -18.3850  -11.2528  146.6667 S   0  0  0  0  0  0  0  0  0  0  0  0
  2  1  1  0
  3  2  1  0
  4  1  1  0
  5  4  1  0
  7  6  1  0
  9  7  1  0
 10  9  1  0
 12 10  1  0
 13  3  1  0
 13 11  1  0
 14 12  1  0
 15 10  1  0
 15 12  1  0
 16 12  1  0
 17  6  1  0
 17  8  1  0
 18 13  2  0
 19 11  1  0
 20 11  1  0
 20 17  1  0
 20 19  1  0
 21 14  1  0
 22 15  1  0
 22 16  1  0
 23 21  1  0
 24 10  1  0
 24 23  1  0
M  END
$$$$

     RDKit          3D

 11 12  0  0  0  0  0  0  0  0999 V2000
  -22.2205  -11.7451  144.2236 O   0  0  0  0  0  0  0  0  0  0  0  0
  -21.5434  -12.0468  145.4159 C   0  0  0  0  0  0  0  0  0  0  0  0
  -22.4506  -12.5736  146.3501 O   0  0  0  0  0  0  0  0  0  0  0  0
  -20.4072  -13.0489  145.1570 C   0  0  0  0  0  0  0  0  0  0  0  0
  -19.3673  -12.4584  144.1953 C   0  0  0  0  0  0  0  0  0  0  0  0
  -19.5746  -12.7923  142.7218 C   0  0  0  0  0  0  0  0  0  0  0  0
  -19.1005  -11.7169  141.7397 C   0  0  0  0  0  0  0  0  0  0  0  0
  -20.2098  -10.6776  141.5460 C   0  0  0  0  0  0  0  0  0  0  0  0
  -18.4705  -13.4861  143.5120 C   0  0  0  0  0  0  0  0  0  0  0  0
  -21.2499  -11.0177  140.4897 C   0  0  0  0  0  0  0  0  0  0  0  0
  -20.1965   -9.9570  140.2069 C   0  0  0  0  0  0  0  0  0  0  0  0
  2  1  1  0
  3  2  1  0
  4  2  1  0
  5  4  1  0
  6  5  1  0
  7  6  1  0
  8  7  1  0
  9  5  1  0
  9  6  1  0
 10  8  1  0
 11  8  1  0
 11 10  1  0
M  END
$$$$

     RDKit          3D

 24 30  0  0  0  0  0  0  0  0999 V2000
  -26.4539    1.6117  143.1998 O   0  0  0  0  0  0  0  0  0  0  0  0
  -25.7317    0.6193  143.9170 C   0  0  0  0  0  0  0  0  0  0  0  0
  -24.4271    1.0832  144.1549 O   0  0  0  0  0  0  0  0  0  0  0  0
  -26.4445    0.3531  145.2743 C   0  0  0  0  0  0  0  0  0  0  0  0
  -25.4856   -1.7895  145.5027 C   0  0  0  0  0  0  0  0  0  0  0  0
  -27.9832    0.1154  145.1438 C   0  0  0  0  0  0  0  0  0  0  0  0
  -24.1720   -1.8514  145.0002 O   0  0  0  0  0  0  0  0  0  0  0  0
  -25.7650   -0.5592  146.1318 O   0  0  0  0  0  0  0  0  0  0  0  0
  -28.4240   -0.7616  143.9999 C   0  0  0  0  0  0  0  0  0  0  0  0
  -29.2718   -0.0834  142.8999 C   0  0  0  0  0  0  0  0  0  0  0  0
  -27.1115    1.1350  142.0297 C   0  0  0  0  0  0  0  0  0  0  0  0
  -29.1504   -1.6969  144.9855 C   0  0  0  0  0  0  0  0  0  0  0  0
  -26.6099    1.9793  140.8238 C   0  0  0  0  0  0  0  0  0  0  0  0
  -30.1022   -1.2742  146.1446 C   0  0  0  0  0  0  0  0  0  0  0  0
  -31.2860   -0.6711  145.3099 C   0  0  0  0  0  0  0  0  0  0  0  0
  -28.6088   -0.8780  146.1427 C   0  0  0  0  0  0  0  0  0  0  0  0
  -32.2062   -1.9235  145.3349 C   0  0  0  0  0  0  0  0  0  0  0  0
  -28.6458    1.1731  142.2475 C   0  0  0  0  0  0  0  0  0  0  0  0
  -26.4321    3.4677  141.1240 C   0  0  0  0  0  0  0  0  0  0  0  0
  -24.4312   -2.5571  146.1926 C   0  0  0  0  0  0  0  0  0  0  0  0
  -32.4963   -2.5108  143.9545 C   0  0  0  0  0  0  0  0  0  0  0  0
  -27.4965    3.0272  140.1396 C   0  0  0  0  0  0  0  0  0  0  0  0
  -32.8227   -0.6074  145.5819 C   0  0  0  0  0  0  0  0  0  0  0  0
  -30.7523    0.0286  146.5339 C   0  0  0  0  0  0  0  0  0  0  0  0
  2  1  1  0
  3  2  1  0
  4  2  1  0
  6  4  1  0
  7  5  1  0
  8  4  1  0
  8  5  1  0
  9  6  1  0
 10  9  1  0
 11  1  1  0
 12  9  1  0
 13 11  1  0
 14 12  1  0
 15 14  1  0
 16  6  1  0
 16 12  1  0
 16 14  1  0
 17 15  1  0
 18 10  1  0
 18 11  1  0
 19 13  1  0
 20  5  1  0
 20  7  1  0
 21 17  1  0
 22 13  1  0
 22 19  1  0
 23 15  1  0
 23 17  1  0
 24 14  1  0
 24 15  1  0
M  END
$$$$

     RDKit          3D

 24 27  0  0  0  0  0  0  0  0999 V2000
  -14.8705   -2.9859  139.1121 O   0  0  0  0  0  0  0  0  0  0  0  0
  -15.1277   -3.9854  139.8380 C   0  0  0  0  0  0  0  0  0  0  0  0
  -16.4303   -4.4980  139.9126 O   0  0  0  0  0  0  0  0  0  0  0  0
  -14.0516   -4.7061  140.6117 C   0  0  0  0  0  0  0  0  0  0  0  0
  -14.6517   -5.2591  141.9300 C   0  0  0  0  0  0  0  0  0  0  0  0
  -15.5351   -4.3413  142.8265 C   0  0  0  0  0  0  0  0  0  0  0  0
  -15.5738   -2.7923  143.0521 C   0  0  0  0  0  0  0  0  0  0  0  0
  -12.6719   -4.0085  140.7302 C   0  0  0  0  0  0  0  0  0  0  0  0
  -11.9581   -3.8239  139.3588 C   0  0  0  0  0  0  0  0  0  0  0  0
  -14.6930   -2.0475  142.1517 N   0  0  0  0  0  0  0  0  0  0  0  0
  -11.8518   -2.4602  139.0331 O   0  0  0  0  0  0  0  0  0  0  0  0
  -17.0467   -2.2614  143.0792 C   0  0  0  0  0  0  0  0  0  0  0  0
  -18.0191   -3.0515  142.1462 C   0  0  0  0  0  0  0  0  0  0  0  0
  -10.5790   -4.5323  139.2692 C   0  0  0  0  0  0  0  0  0  0  0  0
  -14.1829   -4.8905  143.3219 C   0  0  0  0  0  0  0  0  0  0  0  0
   -9.5585   -4.0785  140.3242 C   0  0  0  0  0  0  0  0  0  0  0  0
  -18.0238   -4.5800  142.5104 C   0  0  0  0  0  0  0  0  0  0  0  0
   -9.0298   -5.3565  140.9495 C   0  0  0  0  0  0  0  0  0  0  0  0
  -17.9011   -2.6677  140.6209 C   0  0  0  0  0  0  0  0  0  0  0  0
  -16.8019   -5.0525  143.3307 C   0  0  0  0  0  0  0  0  0  0  0  0
  -17.6038   -3.7647  139.5855 C   0  0  0  0  0  0  0  0  0  0  0  0
   -9.5347   -6.4692  140.0534 C   0  0  0  0  0  0  0  0  0  0  0  0
  -17.1783   -0.7291  142.9889 C   0  0  0  0  0  0  0  0  0  0  0  0
  -10.7492   -5.9807  139.4111 N   0  0  0  0  0  0  0  0  0  0  0  0
  2  1  2  0
  3  2  1  0
  4  2  1  0
  5  4  1  0
  6  5  1  0
  7  6  1  0
  8  4  1  0
  9  8  1  0
 10  7  1  0
 11  9  1  0
 12  7  1  0
 13 12  1  0
 14  9  1  0
 15  5  1  0
 15  6  1  0
 16 14  1  0
 17 13  1  0
 18 16  1  0
 19 13  1  0
 20  6  1  0
 20 17  1  0
 21  3  1  0
 21 19  1  0
 22 18  1  0
 23 12  1  0
 24 14  1  0
 24 22  1  0
M  END
$$$$

     RDKit          3D

 23 26  0  0  0  0  0  0  0  0999 V2000
  -25.2096    1.8137  133.2835 N   0  0  0  0  0  0  0  0  0  0  0  0
  -25.1075    1.7829  131.7880 C   0  0  0  0  0  0  0  0  0  0  0  0
  -26.3622    1.1900  131.2341 N   0  0  0  0  0  0  0  0  0  0  0  0
  -25.7352    3.0170  133.9468 C   0  0  0  0  0  0  0  0  0  0  0  0
  -24.8160    4.2426  133.7353 C   0  0  0  0  0  0  0  0  0  0  0  0
  -24.7414    3.0674  131.0811 N   0  0  0  0  0  0  0  0  0  0  0  0
  -24.0712    4.1553  131.7256 N   0  0  0  0  0  0  0  0  0  0  0  0
  -23.5224    3.8011  133.0405 C   0  0  0  0  0  0  0  0  0  0  0  0
  -26.0628    0.3241  130.0641 C   0  0  0  0  0  0  0  0  0  0  0  0
  -24.5680    6.4514  132.4769 C   0  0  0  0  0  0  0  0  0  0  0  0
  -29.8889    6.6852  132.7587 C   0  0  0  0  0  0  0  0  0  0  0  0
  -25.0847    4.9840  132.4126 C   0  0  0  0  0  0  0  0  0  0  0  0
  -24.9894   -0.1646  134.2670 C   0  0  0  0  0  0  0  0  0  0  0  0
  -25.9223    0.7375  133.7284 O   0  0  0  0  0  0  0  0  0  0  0  0
  -28.9531    5.7217  132.0363 C   0  0  0  0  0  0  0  0  0  0  0  0
  -26.9315   -0.9234  130.0408 C   0  0  0  0  0  0  0  0  0  0  0  0
  -20.9072   -1.8200  133.5169 O   0  0  0  0  0  1  0  0  0  0  0  0
  -21.7602   -1.6304  132.4319 C   0  0  0  0  0  0  0  0  0  0  0  0
  -25.5646   -3.1929  132.2456 S   0  0  0  0  0  3  0  0  0  0  0  0
  -27.5384    5.8021  132.6200 C   0  0  0  0  0  0  0  0  0  0  0  0
  -26.2653   -2.0250  130.8478 C   0  0  0  0  0  0  0  0  0  0  0  0
  -26.5343    4.9746  131.7938 C   0  0  0  0  0  0  0  0  0  0  0  0
  -26.7808    1.5768  129.8571 C   0  0  0  0  0  0  0  0  0  0  0  0
  2  1  1  0
  3  2  1  0
  4  1  1  0
  5  4  1  0
  6  2  1  0
  7  6  1  0
  8  5  1  0
  8  7  1  0
  9  3  1  0
 12  5  1  0
 12  7  1  0
 12 10  1  0
 14  1  1  0
 14 13  1  0
 15 11  1  0
 16  9  1  0
 18 17  1  0
 19 16  1  0
 19 18  1  0
 20 15  1  0
 21 16  1  0
 21 19  1  0
 22 12  1  0
 22 20  1  0
 23  3  1  0
 23  9  1  0
M  RAD  2  17   2  19   2
M  END
$$$$

     RDKit          3D

 24 32  0  0  0  0  0  0  0  0999 V2000
  -23.6888   -4.5496  140.4606 C   0  0  0  0  0  0  0  0  0  0  0  0
  -24.1509   -3.2554  141.1209 C   0  0  0  0  0  0  0  0  0  0  0  0
  -24.7078   -2.1935  140.1822 C   0  0  0  0  0  0  0  0  0  0  0  0
  -22.9052   -5.4252  141.4330 C   0  0  0  0  0  0  0  0  0  0  0  0
  -24.2044   -3.0418  142.6599 C   0  0  0  0  0  0  0  0  0  0  0  0
  -24.7568   -5.5011  139.9501 C   0  0  0  0  0  0  0  0  0  0  0  0
  -25.8117   -3.1455  139.7837 C   0  0  0  0  0  0  0  0  0  0  0  0
  -25.4596   -2.2849  143.1272 C   0  0  0  0  0  0  0  0  0  0  0  0
  -24.6864   -5.4827  138.4568 C   0  0  0  0  0  0  0  0  0  0  0  0
  -24.2829   -6.7836  139.1877 C   0  0  0  0  0  0  0  0  0  0  0  0
  -25.3737   -1.7795  144.5651 C   0  0  0  0  0  0  0  0  0  0  0  0
  -25.2165   -4.2456  140.6909 C   0  0  0  0  0  0  0  0  0  0  0  0
  -22.1590   -6.3268  140.6609 O   0  0  0  0  0  0  0  0  0  0  0  0
  -22.9036   -7.0909  138.5486 C   0  0  0  0  0  0  0  0  0  0  0  0
  -26.7007   -1.7660  145.3388 C   0  0  0  0  0  0  0  0  0  0  0  0
  -26.6421   -0.7064  146.4537 C   0  0  0  0  0  0  0  0  0  0  0  0
  -25.2883   -0.7939  143.4040 C   0  0  0  0  0  0  0  0  0  0  0  0
  -27.9660   -0.4762  147.2199 C   0  0  0  0  0  0  0  0  0  0  0  0
  -26.9726   -3.5354  146.0953 Br  0  0  0  0  0  0  0  0  0  0  0  0
  -28.8897    0.4580  146.5333 C   0  0  0  0  0  0  0  0  0  0  0  0
  -29.2807   -1.0427  146.5984 C   0  0  0  0  0  0  0  0  0  0  0  0
  -29.8248   -1.8398  147.8175 C   0  0  0  0  0  0  0  0  0  0  0  0
  -23.0259   -7.2437  140.0163 C   0  0  0  0  0  0  0  0  0  0  0  0
  -30.7427   -0.9270  147.1157 C   0  0  0  0  0  0  0  0  0  0  0  0
  2  1  1  0
  3  2  1  0
  4  1  1  0
  5  2  1  0
  6  1  1  0
  7  3  1  0
  8  5  1  0
  9  6  1  0
 10  6  1  0
 10  9  1  0
 11  8  1  0
 12  1  1  0
 12  2  1  0
 12  6  1  0
 12  7  1  0
 13  4  1  0
 14 10  1  0
 15 11  1  0
 16 15  1  0
 17  8  1  0
 17 11  1  0
 18 16  1  0
 19 15  1  0
 20 18  1  0
 21 18  1  0
 21 20  1  0
 22 21  1  0
 23 10  1  0
 23 13  1  0
 23 14  1  0
 24 21  1  0
 24 22  1  0
M  END
$$$$

     RDKit          3D

 24 29  0  0  0  0  0  0  0  0999 V2000
  -27.8411  -19.5339  148.6463 O   0  0  0  0  0  0  0  0  0  0  0  0
  -29.7557  -21.1528  147.8794 C   0  0  0  0  0  0  0  0  0  0  0  0
  -30.9209  -21.4324  147.6432 O   0  0  0  0  0  0  0  0  0  0  0  0
  -29.2652  -19.5543  148.2892 C   0  0  0  0  0  0  0  0  0  0  0  0
  -29.4343  -18.4412  147.0921 C   0  0  0  0  0  0  0  0  0  0  0  0
  -30.7578  -18.5973  146.3274 C   0  0  0  0  0  0  0  0  0  0  0  0
  -29.8765  -16.8642  144.6229 C   0  0  0  0  0  0  0  0  0  0  0  0
  -30.0368  -18.9307  149.5952 C   0  0  0  0  0  0  0  0  0  0  0  0
  -29.2078  -17.6490  143.4918 C   0  0  0  0  0  0  0  0  0  0  0  0
  -29.7359  -19.0438  143.1183 C   0  0  0  0  0  0  0  0  0  0  0  0
  -30.1644  -16.5091  143.1656 C   0  0  0  0  0  0  0  0  0  0  0  0
  -31.0900  -17.4266  145.3888 C   0  0  0  0  0  0  0  0  0  0  0  0
  -28.6387  -20.1024  142.9652 C   0  0  0  0  0  0  0  0  0  0  0  0
  -28.9569  -21.6082  143.0941 C   0  0  0  0  0  0  0  0  0  0  0  0
  -29.2659  -19.4660  141.7340 C   0  0  0  0  0  0  0  0  0  0  0  0
  -28.0365  -22.5023  142.2189 C   0  0  0  0  0  0  0  0  0  0  0  0
  -28.4693  -22.5739  140.7589 C   0  0  0  0  0  0  0  0  0  0  0  0
  -30.1401  -22.0633  143.9797 C   0  0  0  0  0  0  0  0  0  0  0  0
  -28.5019  -23.8293  141.6174 C   0  0  0  0  0  0  0  0  0  0  0  0
  -30.7269  -23.4621  143.8111 C   0  0  0  0  0  0  0  0  0  0  0  0
  -28.7477  -22.0303  144.5592 C   0  0  0  0  0  0  0  0  0  0  0  0
  -31.9199  -23.4900  142.8767 C   0  0  0  0  0  0  0  0  0  0  0  0
  -33.1640  -22.9230  143.5263 C   0  0  0  0  0  0  0  0  0  0  0  0
  -32.1210  -23.5925  144.3968 C   0  0  0  0  0  0  0  0  0  0  0  0
  3  2  2  0
  4  1  1  0
  4  2  1  0
  5  4  1  0
  6  5  1  0
  8  4  1  0
  9  7  1  0
 10  9  1  0
 11  7  1  0
 11  9  1  0
 12  6  1  0
 12  7  1  0
 13 10  1  0
 14 13  1  0
 15 10  1  0
 15 13  1  0
 16 14  1  0
 17 16  1  0
 18 14  1  0
 19 16  1  0
 19 17  1  0
 20 18  1  0
 21 14  1  0
 21 18  1  0
 22 20  1  0
 23 22  1  0
 24 20  1  0
 24 22  1  0
 24 23  1  0
M  END
$$$$

     RDKit          3D

 23 28  0  0  0  0  0  0  0  0999 V2000
  -25.0752   -3.5704  143.2505 C   0  0  0  0  0  0  0  0  0  0  0  0
  -25.1101   -4.5843  142.2153 N   0  0  0  0  0  0  0  0  0  0  0  0
  -26.0864   -5.6863  142.3037 C   0  0  0  0  0  0  0  0  0  0  0  0
  -25.9687   -3.5584  144.1488 O   0  0  0  0  0  0  0  0  0  0  0  0
  -23.9409   -2.5838  143.3460 C   0  0  0  0  0  0  0  0  0  0  0  0
  -27.5816   -5.2413  142.2710 C   0  0  0  0  0  0  0  0  0  0  0  0
  -28.1151   -6.0122  143.5143 C   0  0  0  0  0  0  0  0  0  0  0  0
  -26.8652   -5.8871  141.0580 C   0  0  0  0  0  0  0  0  0  0  0  0
  -24.2958   -1.1569  143.7152 C   0  0  0  0  0  0  0  0  0  0  0  0
  -29.6233   -5.9029  143.5758 C   0  0  0  0  0  0  0  0  0  0  0  0
  -30.2040   -5.4694  142.2341 C   0  0  0  0  0  0  0  0  0  0  0  0
  -23.8495   -1.5061  142.2675 C   0  0  0  0  0  0  0  0  0  0  0  0
  -30.2543   -3.9497  141.9146 C   0  0  0  0  0  0  0  0  0  0  0  0
  -30.1384   -3.6721  140.4055 C   0  0  0  0  0  0  0  0  0  0  0  0
  -25.5510   -0.4825  143.1511 C   0  0  0  0  0  0  0  0  0  0  0  0
  -28.8386   -6.1466  142.2541 C   0  0  0  0  0  0  0  0  0  0  0  0
  -31.8514   -3.0990  138.6143 C   0  0  0  0  0  0  0  0  0  0  0  0
  -25.0835   -0.7678  141.7380 C   0  0  0  0  0  0  0  0  0  0  0  0
  -26.0378   -1.6052  140.8822 C   0  0  0  0  0  0  0  0  0  0  0  0
  -31.3545   -4.1868  139.5779 C   0  0  0  0  0  0  0  0  0  0  0  0
  -23.9661   -4.7604  141.3056 C   0  0  0  0  0  0  0  0  0  0  0  0
  -30.9898   -5.4572  138.7884 C   0  0  0  0  0  0  0  0  0  0  0  0
  -22.6360   -5.5831  142.1569 Cl  0  0  0  0  0  0  0  0  0  0  0  0
  2  1  1  0
  3  2  1  0
  4  1  2  0
  5  1  1  0
  6  3  1  0
  7  6  1  0
  8  3  1  0
  8  6  1  0
  9  5  1  0
 10  7  1  0
 11 10  1  0
 12  5  1  0
 12  9  1  0
 13 11  1  0
 14 13  1  0
 15  9  1  0
 16  6  1  0
 16  7  1  0
 16 10  1  0
 16 11  1  0
 18 12  1  0
 18 15  1  0
 19 18  1  0
 20 14  1  0
 20 17  1  0
 21  2  1  0
 22 20  1  0
 23 21  1  0
M  END
$$$$

     RDKit          3D

 24 27  0  0  0  0  0  0  0  0999 V2000
  -24.8039   -4.8446  140.2072 N   0  0  0  0  0  0  0  0  0  0  0  0
  -24.8026   -3.6071  140.9326 C   0  0  0  0  0  0  0  0  0  0  0  0
  -25.8283   -2.8748  140.9322 O   0  0  0  0  0  0  0  0  0  0  0  0
  -23.6220   -3.2046  141.6427 N   0  0  0  0  0  0  0  0  0  0  0  0
  -25.8982   -5.2223  139.3070 C   0  0  0  0  0  0  0  0  0  0  0  0
  -23.4878   -1.9628  142.4160 C   0  0  0  0  0  0  0  0  0  0  0  0
  -23.7159   -0.7369  141.5067 C   0  0  0  0  0  0  0  0  0  0  0  0
  -24.4580   -1.9313  143.6130 C   0  0  0  0  0  0  0  0  0  0  0  0
  -25.0067   -2.8819  145.8777 C   0  0  0  0  0  0  0  0  0  0  0  0
  -25.5536   -6.4857  138.5220 C   0  0  0  0  0  0  0  0  0  0  0  0
  -25.4776   -7.7466  139.2713 C   0  0  0  0  0  0  0  0  0  0  0  0
  -26.7111   -7.4013  138.5209 N   0  0  0  0  0  0  0  0  0  0  0  0
  -25.6438   -4.0417  146.6537 C   0  0  0  0  0  0  0  0  0  0  0  0
  -25.6556   -5.4980  146.1492 C   0  0  0  0  0  0  0  0  0  0  0  0
  -27.1748   -5.5404  140.0654 C   0  0  0  0  0  0  0  0  0  0  0  0
  -22.8722    0.4896  141.8267 C   0  0  0  0  0  0  0  0  0  0  0  0
  -24.6196   -6.3584  146.8955 C   0  0  0  0  0  0  0  0  0  0  0  0
  -22.5361   -0.3716  140.6171 C   0  0  0  0  0  0  0  0  0  0  0  0
  -23.1803   -6.1903  146.3539 C   0  0  0  0  0  0  0  0  0  0  0  0
  -22.1525   -6.6276  147.4064 C   0  0  0  0  0  0  0  0  0  0  0  0
  -24.2413   -3.1146  144.5639 C   0  0  0  0  0  0  0  0  0  0  0  0
  -22.9704   -6.9981  145.0656 C   0  0  0  0  0  0  0  0  0  0  0  0
  -27.7311   -6.7915  139.3915 C   0  0  0  0  0  0  0  0  0  0  0  0
  -26.5105   -3.1198  145.8000 C   0  0  0  0  0  0  0  0  0  0  0  0
  2  1  1  0
  3  2  2  0
  4  2  1  0
  5  1  1  0
  6  4  1  0
  7  6  1  0
  8  6  1  0
 10  5  1  0
 11 10  1  0
 12 10  1  0
 12 11  1  0
 13  9  1  0
 14 13  1  0
 15  5  1  0
 16  7  1  0
 17 14  1  0
 18  7  1  0
 18 16  1  0
 19 17  1  0
 20 19  1  0
 21  8  1  0
 21  9  1  0
 22 19  1  0
 23 12  1  0
 23 15  1  0
 24  9  1  0
 24 13  1  0
M  END
$$$$

     RDKit          3D

 24 29  0  0  0  0  0  0  0  0999 V2000
  -22.8452    4.6103  149.9671 O   0  0  0  0  0  0  0  0  0  0  0  0
  -22.4464    3.6590  148.9644 C   0  0  0  0  0  0  0  0  0  0  0  0
  -22.4245    4.2935  147.5461 C   0  0  0  0  0  0  0  0  0  0  0  0
  -21.6136    5.3682  146.7346 C   0  0  0  0  0  0  0  0  0  0  0  0
  -22.0331    5.6743  145.2030 C   0  0  0  0  0  0  0  0  0  0  0  0
  -21.9778    7.1201  144.5911 C   0  0  0  0  0  0  0  0  0  0  0  0
  -23.8464    3.8368  147.0796 C   0  0  0  0  0  0  0  0  0  0  0  0
  -21.1550    3.9237  146.7369 N   0  0  0  0  0  0  0  0  0  0  0  0
  -23.2863    7.1623  143.8080 N   0  0  0  0  0  0  0  0  0  0  0  0
  -24.7111    7.1226  144.2973 C   0  0  0  0  0  0  0  0  0  0  0  0
  -25.3641    6.0720  145.2900 C   0  0  0  0  0  0  0  0  0  0  0  0
  -25.9245    6.1640  146.6901 C   0  0  0  0  0  0  0  0  0  0  0  0
  -20.6414    7.3233  143.6863 C   0  0  0  0  0  0  0  0  0  0  0  0
  -19.6022    6.1795  143.9927 C   0  0  0  0  0  0  0  0  0  0  0  0
  -23.1911    6.0836  142.4471 Cl  0  0  0  0  0  0  0  0  0  0  0  0
  -23.9206    2.6457  148.5024 S   0  0  0  0  0  0  0  0  0  0  0  0
  -25.3654    4.4640  146.7834 C   0  0  0  0  0  0  0  0  0  0  0  0
  -22.8397    4.0225  151.1993 C   0  0  0  0  0  0  0  0  0  0  0  0
  -25.8539    3.7533  145.3775 C   0  0  0  0  0  0  0  0  0  0  0  0
  -27.8602    4.4071  145.4612 C   0  0  0  0  0  0  0  0  0  0  0  0
  -26.5281    4.9999  144.7736 C   0  0  0  0  0  0  0  0  0  0  0  0
  -27.2671    3.0279  145.6372 C   0  0  0  0  0  0  0  0  0  0  0  0
  -24.9516    3.2165  144.1389 C   0  0  0  0  0  0  0  0  0  0  0  0
  -19.0999    7.4773  143.5081 C   0  0  0  0  0  0  0  0  0  0  0  0
  2  1  1  0
  3  2  1  0
  4  3  1  0
  5  4  1  0
  6  5  1  0
  7  3  1  0
  8  3  1  0
  8  4  1  0
  9  6  1  0
 10  9  1  0
 11 10  1  0
 12 11  1  0
 13  6  1  0
 14 13  1  0
 15  9  1  0
 16  2  1  0
 16  7  1  0
 17  7  1  0
 17 12  1  0
 18  1  1  0
 19 17  1  0
 21 11  1  0
 21 19  1  0
 21 20  1  0
 22 19  1  0
 22 20  1  0
 23 19  1  0
 24 13  1  0
 24 14  1  0
M  END
$$$$

     RDKit          3D

 24 26  0  0  0  0  0  0  0  0999 V2000
  -24.4310  -12.3586  136.4968 C   0  0  0  0  0  0  0  0  0  0  0  0
  -25.7800  -12.9458  136.9702 C   0  0  0  0  0  0  0  0  0  0  0  0
  -23.0035  -12.6823  134.4006 C   0  0  0  0  0  0  0  0  0  0  0  0
  -25.7639  -13.5048  138.4091 C   0  0  0  0  0  0  0  0  0  0  0  0
  -26.9818  -14.4702  138.5049 C   0  0  0  0  0  0  0  0  0  0  0  0
  -25.7503  -15.1894  135.5608 C   0  0  0  0  0  0  0  0  0  0  0  0
  -24.2349  -12.2272  133.5886 C   0  0  0  0  0  0  0  0  0  0  0  0
  -26.5611  -14.0171  136.1429 C   0  0  0  0  0  0  0  0  0  0  0  0
  -24.1459  -11.0659  136.7571 C   0  0  0  0  0  0  0  0  0  0  0  0
  -23.3087  -13.1410  135.8469 C   0  0  0  0  0  0  0  0  0  0  0  0
  -27.9781  -14.1502  139.5396 N   0  0  0  0  0  0  0  0  0  0  0  0
  -25.6981  -12.4061  139.4966 C   0  0  0  0  0  0  0  0  0  0  0  0
  -28.2921  -13.8038  138.1490 C   0  0  0  0  0  0  0  0  0  0  0  0
  -25.5793  -13.0090  140.8926 C   0  0  0  0  0  0  0  0  0  0  0  0
  -27.5616  -14.6550  137.1299 C   0  0  0  0  0  0  0  0  0  0  0  0
  -23.9716  -12.1714  132.0717 C   0  0  0  0  0  0  0  0  0  0  0  0
  -23.2114  -10.8915  131.6027 C   0  0  0  0  0  0  0  0  0  0  0  0
  -28.8858  -18.2051  138.3051 C   0  0  0  0  0  0  0  0  0  0  0  0
  -29.7819  -14.5381  137.8327 B   0  0  0  0  0  0  0  0  0  0  0  0
  -23.7553  -10.3826  130.2269 C   0  0  0  0  0  0  0  0  0  0  0  0
  -24.6446   -9.1456  130.3732 C   0  0  0  0  0  0  0  0  0  0  0  0
  -26.7148   -8.4212  131.0995 C   0  0  0  0  0  0  0  0  0  0  0  0
  -21.6941  -11.1484  131.5092 C   0  0  0  0  0  0  0  0  0  0  0  0
  -25.7460   -9.4389  131.2143 O   0  0  0  0  0  0  0  0  0  0  0  0
  2  1  1  0
  4  2  1  0
  5  4  1  0
  7  3  1  0
  8  2  1  0
  8  6  1  0
  9  1  2  0
 10  1  1  0
 10  3  1  0
 11  5  1  0
 12  4  1  0
 13  5  1  0
 13 11  1  0
 14 12  1  0
 15  5  1  0
 15  8  1  0
 15 13  1  0
 16  7  1  0
 17 16  1  0
 19 14  1  0
 19 18  2  0
 20 17  1  0
 21 20  1  0
 23 17  1  0
 24 21  1  0
 24 22  1  0
M  END
$$$$

     RDKit          3D

 24 28  0  0  0  0  0  0  0  0999 V2000
  -24.3617  -14.1350  140.8502 C   0  0  0  0  0  0  0  0  0  0  0  0
  -24.7279  -14.8042  142.1638 C   0  0  0  0  0  0  0  0  0  0  0  0
  -22.8978  -13.8161  140.4391 C   0  0  0  0  0  0  0  0  0  0  0  0
  -25.7498  -15.9244  142.0183 C   0  0  0  0  0  0  0  0  0  0  0  0
  -22.5794  -13.7003  138.9023 C   0  0  0  0  0  0  0  0  0  0  0  0
  -23.6507  -12.9095  138.0982 C   0  0  0  0  0  0  0  0  0  0  0  0
  -24.8931  -15.5653  140.8240 C   0  0  0  0  0  0  0  0  0  0  0  0
  -22.3600  -12.6719  141.3443 C   0  0  0  0  0  0  0  0  0  0  0  0
  -24.2063  -16.9470  140.8726 C   0  0  0  0  0  0  0  0  0  0  0  0
  -21.6155  -11.4968  140.7265 C   0  0  0  0  0  0  0  0  0  0  0  0
  -22.4149  -10.2491  140.4194 C   0  0  0  0  0  0  0  0  0  0  0  0
  -22.4920   -9.2987  141.6237 C   0  0  0  0  0  0  0  0  0  0  0  0
  -24.8050  -13.7533  137.5143 C   0  0  0  0  0  0  0  0  0  0  0  0
  -20.2739  -11.4548  140.6260 C   0  0  0  0  0  0  0  0  0  0  0  0
  -25.9639  -12.8937  136.9891 C   0  0  0  0  0  0  0  0  0  0  0  0
  -21.6870  -14.0354  141.3564 C   0  0  0  0  0  0  0  0  0  0  0  0
  -21.1990   -8.4769  141.7855 C   0  0  0  0  0  0  0  0  0  0  0  0
  -22.2641  -15.0681  138.2804 C   0  0  0  0  0  0  0  0  0  0  0  0
  -25.1597  -17.3365  142.0024 C   0  0  0  0  0  0  0  0  0  0  0  0
  -21.1214   -7.1089  141.1193 C   0  0  0  0  0  0  0  0  0  0  0  0
  -25.5598  -12.0086  135.8051 C   0  0  0  0  0  0  0  0  0  0  0  0
  -22.7302  -17.1034  141.2671 C   0  0  0  0  0  0  0  0  0  0  0  0
  -22.2558   -6.7534  140.3832 O   0  0  0  0  0  0  0  0  0  0  0  0
  -21.3679   -7.2079  142.6155 C   0  0  0  0  0  0  0  0  0  0  0  0
  2  1  1  0
  3  1  1  0
  4  2  1  0
  5  3  1  0
  6  5  1  0
  7  1  1  0
  7  2  1  0
  7  4  1  0
  8  3  1  0
  9  7  1  0
 10  8  1  0
 11 10  1  0
 12 11  1  0
 13  6  1  0
 14 10  2  0
 15 13  1  0
 16  3  1  0
 16  8  1  0
 17 12  1  0
 18  5  1  0
 19  4  1  0
 19  9  1  0
 20 17  1  0
 21 15  1  0
 22  9  1  0
 23 20  1  0
 24 17  1  0
 24 20  1  0
M  END
$$$$

     RDKit          3D

 11 15  0  0  0  0  0  0  0  0999 V2000
  -22.5219  -11.0347  141.9799 O   0  0  0  0  0  0  0  0  0  0  0  0
  -22.5228  -12.3775  142.3948 C   0  0  0  0  0  0  0  0  0  0  0  0
  -23.6180  -12.8348  143.4162 C   0  0  0  0  0  0  0  0  0  0  0  0
  -23.4651  -11.7343  144.3926 C   0  0  0  0  0  0  0  0  0  0  0  0
  -23.7089  -13.0718  141.8858 C   0  0  0  0  0  0  0  0  0  0  0  0
  -23.7027  -12.1196  145.7827 N   0  0  0  0  0  0  0  0  0  0  0  0
  -24.7658  -11.9168  143.6503 N   0  0  0  0  0  0  0  0  0  0  0  0
  -24.7777  -11.1397  145.8124 C   0  0  0  0  0  0  0  0  0  0  0  0
  -24.4273  -10.6732  144.3381 C   0  0  0  0  0  0  0  0  0  0  0  0
  -26.0934  -11.6279  145.8775 O   0  0  0  0  0  0  0  0  0  0  0  0
  -24.5684   -9.7435  145.5560 C   0  0  0  0  0  0  0  0  0  0  0  0
  2  1  1  0
  3  2  1  0
  4  3  1  0
  5  2  1  0
  5  3  1  0
  6  4  1  0
  7  3  1  0
  7  4  1  0
  8  6  1  0
  9  4  1  0
  9  7  1  0
  9  8  1  0
 10  8  1  0
 11  8  1  0
 11  9  1  0
M  END
$$$$

     RDKit          3D

 24 28  0  0  0  0  0  0  0  0999 V2000
  -27.8326   -8.3113  144.9590 C   0  0  0  0  0  0  0  0  0  0  0  0
  -27.0605   -7.3882  145.8270 N   0  0  0  0  0  0  0  0  0  0  0  0
  -26.1304   -8.0729  146.7005 N   0  0  0  0  0  0  0  0  0  0  0  0
  -25.7985   -9.5212  146.2973 C   0  0  0  0  0  0  0  0  0  0  0  0
  -25.8334  -10.6003  149.1870 Br  0  0  0  0  0  0  0  0  0  0  0  0
  -25.3634  -10.9844  147.1519 C   0  0  0  0  0  0  0  0  0  0  0  0
  -25.6476   -9.8091  144.8247 C   0  0  0  0  0  0  0  0  0  0  0  0
  -29.4037   -7.9088  144.0871 C   0  0  0  0  0  0  0  0  0  0  0  0
  -30.5596   -9.8435  141.6308 C   0  0  0  0  0  0  0  0  0  0  0  0
  -27.0541   -9.7274  145.4895 C   0  0  0  0  0  0  0  0  0  0  0  0
  -30.3910  -11.5044  142.3302 C   0  0  0  0  0  0  0  0  0  0  0  0
  -32.0103   -9.0091  140.9109 C   0  0  0  0  0  0  0  0  0  0  0  0
  -30.3638  -12.8283  143.2673 C   0  0  0  0  0  0  0  0  0  0  0  0
  -29.0218  -12.4626  143.8363 C   0  0  0  0  0  0  0  0  0  0  0  0
  -28.8861  -12.9400  145.6077 C   0  0  0  0  0  0  0  0  0  0  0  0
  -28.0187  -12.1743  146.8723 C   0  0  0  0  0  0  0  0  0  0  0  0
  -26.2165  -12.2586  146.6330 C   0  0  0  0  0  0  0  0  0  0  0  0
  -28.3348  -13.1567  148.2156 C   0  0  0  0  0  0  0  0  0  0  0  0
  -28.7679  -11.8356  142.2627 C   0  0  0  0  0  0  0  0  0  0  0  0
  -29.5974   -8.8143  142.5306 O   0  0  0  0  0  0  0  0  0  0  0  0
  -29.1275  -14.3098  146.0313 C   0  0  0  0  0  0  0  0  0  0  0  0
  -31.3705  -10.2407  144.7068 Br  0  0  0  0  0  0  0  0  0  0  0  0
  -27.9527  -15.1991  145.8432 O   0  0  0  0  0  0  0  0  0  0  0  0
  -29.5610  -13.9780  147.6224 C   0  0  0  0  0  0  0  0  0  0  0  0
  2  1  1  0
  3  2  1  0
  4  3  1  0
  6  4  1  0
  6  5  1  0
  7  4  1  0
  8  1  1  0
 10  1  1  0
 10  4  1  0
 10  7  1  0
 11  9  1  0
 12  9  1  0
 13 11  1  0
 14 13  1  0
 15 14  1  0
 16 15  1  0
 17  6  1  0
 17 16  1  0
 18 16  1  0
 19 11  1  0
 19 14  1  0
 20  8  1  0
 20  9  1  0
 21 15  1  0
 22 11  1  0
 23 21  1  0
 24 18  1  0
 24 21  1  0
M  END
$$$$

     RDKit          3D

 11 12  0  0  0  0  0  0  0  0999 V2000
  -27.0149   -6.7856  142.9506 C   0  0  0  0  0  0  0  0  0  0  0  0
  -26.7366   -7.5417  144.1145 O   0  0  0  0  0  0  0  0  0  0  0  0
  -27.5386   -8.7059  144.1273 C   0  0  0  0  0  0  0  0  0  0  0  0
  -27.0475   -9.6295  145.1264 N   0  0  0  0  0  0  0  0  0  0  0  0
  -28.3164   -9.4605  145.8662 C   0  0  0  0  0  0  0  0  0  0  0  0
  -26.3528   -5.4014  142.9661 C   0  0  0  0  0  0  0  0  0  0  0  0
  -26.1237   -7.1885  141.7763 C   0  0  0  0  0  0  0  0  0  0  0  0
  -28.8190   -9.9484  146.9912 C   0  0  0  0  0  0  0  0  0  0  0  0
  -25.5628   -5.0537  144.2346 C   0  0  0  0  0  0  0  0  0  0  0  0
  -28.7906   -8.5079  144.8160 C   0  0  0  0  0  0  0  0  0  0  0  0
  -25.4675   -5.8138  141.7914 C   0  0  0  0  0  0  0  0  0  0  0  0
  2  1  1  0
  3  2  1  0
  4  3  1  0
  5  4  1  0
  6  1  1  0
  7  1  1  0
  8  5  2  0
  9  6  1  0
 10  3  1  0
 10  5  1  0
 11  6  1  0
 11  7  1  0
M  END
$$$$

     RDKit          3D

 24 30  0  0  0  0  0  0  0  0999 V2000
  -19.8805   -5.6519  141.0026 C   0  0  0  0  0  0  0  0  0  0  0  0
  -20.7808   -6.7961  140.9214 C   0  0  0  0  0  0  0  0  0  0  0  0
  -21.3419   -5.4089  141.5079 C   0  0  0  0  0  0  0  0  0  0  0  0
  -21.1340   -7.0872  139.5834 O   0  0  0  0  0  0  0  0  0  0  0  0
  -20.3793   -7.9883  141.8584 C   0  0  0  0  0  0  0  0  0  0  0  0
  -23.1987   -8.1546  140.4262 C   0  0  0  0  0  0  0  0  0  0  0  0
  -22.8761   -8.2314  141.7902 C   0  0  0  0  0  0  0  0  0  0  0  0
  -22.7483   -5.6481  142.2699 C   0  0  0  0  0  0  0  0  0  0  0  0
  -21.9474   -8.2504  139.4820 C   0  0  0  0  0  0  0  0  0  0  0  0
  -21.5937   -8.9099  142.2229 C   0  0  0  0  0  0  0  0  0  0  0  0
  -24.0453   -5.1468  141.5804 C   0  0  0  0  0  0  0  0  0  0  0  0
  -23.8238   -4.8354  140.0819 C   0  0  0  0  0  0  0  0  0  0  0  0
  -22.9941   -7.0531  142.8002 C   0  0  0  0  0  0  0  0  0  0  0  0
  -25.4478   -5.2499  142.3140 C   0  0  0  0  0  0  0  0  0  0  0  0
  -26.0203   -4.3655  139.1570 C   0  0  0  0  0  0  0  0  0  0  0  0
  -24.6644   -3.7459  139.5696 C   0  0  0  0  0  0  0  0  0  0  0  0
  -24.0226   -3.6826  141.0102 C   0  0  0  0  0  0  0  0  0  0  0  0
  -22.0968   -8.5965  137.9959 C   0  0  0  0  0  0  0  0  0  0  0  0
  -26.1822   -5.8874  138.6916 C   0  0  0  0  0  0  0  0  0  0  0  0
  -26.0603   -6.5183  142.8942 C   0  0  0  0  0  0  0  0  0  0  0  0
  -24.6942   -7.8976  139.9285 C   0  0  0  0  0  0  0  0  0  0  0  0
  -25.1299   -8.3212  138.4968 C   0  0  0  0  0  0  0  0  0  0  0  0
  -24.9344   -6.8534  138.8134 C   0  0  0  0  0  0  0  0  0  0  0  0
  -27.5207   -6.4488  139.2506 C   0  0  0  0  0  0  0  0  0  0  0  0
  2  1  1  0
  3  1  1  0
  3  2  1  0
  4  2  1  0
  5  2  1  0
  7  6  2  0
  8  3  1  0
  9  4  1  0
  9  6  1  0
 10  5  1  0
 10  7  1  0
 11  8  1  0
 12 11  1  0
 13  7  1  0
 13  8  1  0
 14 11  1  0
 16 12  1  0
 16 15  1  0
 17 11  1  0
 17 12  1  0
 17 16  1  0
 18  9  1  0
 19 15  1  0
 20 14  1  0
 21  6  1  0
 22 21  1  0
 23 19  1  0
 23 21  1  0
 23 22  1  0
 24 19  1  0
M  END
$$$$

     RDKit          3D

 23 26  0  0  0  0  0  0  0  0999 V2000
  -23.1365  -13.7373  137.0919 N   0  0  0  0  0  0  0  0  0  0  0  0
  -23.9557  -13.0965  138.1234 C   0  0  0  0  0  0  0  0  0  0  0  0
  -23.2492  -12.1408  138.9814 N   0  0  0  0  0  2  0  0  0  0  0  0
  -25.7670  -12.0391  138.3902 C   0  0  0  0  0  0  0  0  0  0  0  0
  -23.8028  -11.0261  136.8005 N   0  0  0  0  0  2  0  0  0  0  0  0
  -24.5973  -11.2788  135.5996 C   0  0  0  0  0  0  0  0  0  0  0  0
  -26.1831  -11.5640  139.7241 N   0  0  0  0  0  0  0  0  0  0  0  0
  -24.2964  -11.6732  138.0383 C   0  0  0  0  0  0  0  0  0  0  0  0
  -24.6269  -10.0317  134.6704 C   0  0  0  0  0  0  0  0  0  0  0  0
  -24.7338  -10.4452  133.1553 C   0  0  0  0  0  0  0  0  0  0  0  0
  -25.5850   -8.9025  135.1528 C   0  0  0  0  0  0  0  0  0  0  0  0
  -25.8917   -9.8686  132.2989 C   0  0  0  0  0  0  0  0  0  0  0  0
  -26.9933   -9.3214  135.5896 C   0  0  0  0  0  0  0  0  0  0  0  0
  -25.9293  -10.5573  130.9147 C   0  0  0  0  0  0  0  0  0  0  0  0
  -27.3526  -10.9432  130.4572 C   0  0  0  0  0  0  0  0  0  0  0  0
  -28.1962  -11.7477  131.4432 C   0  0  0  0  0  0  0  0  0  0  0  0
  -25.4485   -9.2546  130.2553 C   0  0  0  0  0  0  0  0  0  0  0  0
  -27.6867  -12.4149  130.1710 C   0  0  0  0  0  0  0  0  0  0  0  0
  -25.5481   -8.5334  131.6059 C   0  0  0  0  0  0  0  0  0  0  0  0
  -26.6746  -13.5418  130.4765 C   0  0  0  0  0  0  0  0  0  0  0  0
  -25.3822  -13.5111  138.4552 C   0  0  0  0  0  0  0  0  0  0  0  0
  -27.4147  -14.8433  130.7727 C   0  0  0  0  0  0  0  0  0  0  0  0
  -26.6766   -7.5065  131.6345 C   0  0  0  0  0  0  0  0  0  0  0  0
  2  1  1  0
  3  2  1  0
  6  5  1  0
  7  4  1  0
  8  2  1  0
  8  3  1  0
  8  4  1  0
  8  5  1  0
  9  6  1  0
 10  9  1  0
 11  9  1  0
 12 10  1  0
 13 11  1  0
 14 12  1  0
 15 14  1  0
 16 15  1  0
 17 14  1  0
 18 15  1  0
 18 16  1  0
 19 12  1  0
 19 17  1  0
 20 18  1  0
 21  2  1  0
 21  4  1  0
 22 20  1  0
 23 19  1  0
M  RAD  2   3   2   5   2
M  END
$$$$

     RDKit          3D

 24 26  0  0  0  0  0  0  0  0999 V2000
  -20.5586    1.6645  143.5540 N   0  0  0  0  0  0  0  0  0  0  0  0
  -18.4924    0.9219  144.5825 C   0  0  0  0  0  0  0  0  0  0  0  0
  -18.7462    1.6213  145.8606 N   0  0  0  0  0  0  0  0  0  0  0  0
  -19.1460    1.5939  143.4414 N   0  0  0  0  0  0  0  0  0  0  0  0
  -21.2005    0.3656  143.3133 C   0  0  0  0  0  0  0  0  0  0  0  0
  -20.9255   -0.1357  141.8972 C   0  0  0  0  0  0  0  0  0  0  0  0
  -17.8040    1.3390  146.9788 C   0  0  0  0  0  0  0  0  0  0  0  0
  -15.6049    0.9704  145.9005 O   0  0  0  0  0  0  0  0  0  0  0  0
  -16.3001    3.2645  145.8063 C   0  0  0  0  0  0  0  0  0  0  0  0
  -17.4014    4.3283  145.7785 C   0  0  0  0  0  0  0  0  0  0  0  0
  -18.3357    2.1478  148.2300 C   0  0  0  0  0  0  0  0  0  0  0  0
  -16.3597    1.9204  146.6163 C   0  0  0  0  0  0  0  0  0  0  0  0
  -17.3237    5.2699  144.5992 C   0  0  0  0  0  0  0  0  0  0  0  0
  -17.4930    2.1579  149.4892 C   0  0  0  0  0  0  0  0  0  0  0  0
  -18.3949    5.8242  143.9903 C   0  0  0  0  0  0  0  0  0  0  0  0
  -19.8356    5.5386  144.3445 C   0  0  0  0  0  0  0  0  0  0  0  0
  -17.7186   -0.2239  147.2756 C   0  0  0  0  0  0  0  0  0  0  0  0
  -18.2791    1.9739  150.7480 C   0  0  0  0  0  0  0  0  0  0  0  0
  -19.0211   -1.0858  147.2311 C   0  0  0  0  0  0  0  0  0  0  0  0
  -19.6470   -1.3875  148.6058 C   0  0  0  0  0  0  0  0  0  0  0  0
  -18.8534    1.4200  149.4620 C   0  0  0  0  0  0  0  0  0  0  0  0
  -20.2714    6.2324  145.6390 C   0  0  0  0  0  0  0  0  0  0  0  0
  -16.2409    4.4761  146.7421 C   0  0  0  0  0  0  0  0  0  0  0  0
  -20.4908   -2.6554  148.5764 C   0  0  0  0  0  0  0  0  0  0  0  0
  3  2  1  0
  4  1  1  0
  4  2  1  0
  5  1  1  0
  6  5  1  0
  7  3  1  0
 10  9  1  0
 11  7  1  0
 12  7  1  0
 12  8  1  0
 12  9  1  0
 13 10  1  0
 14 11  1  0
 15 13  2  3
 16 15  1  0
 17  7  1  0
 18 14  1  0
 19 17  1  0
 20 19  1  0
 21 11  1  0
 21 14  1  0
 21 18  1  0
 22 16  1  0
 23  9  1  0
 23 10  1  0
 24 20  1  0
M  END
$$$$

     RDKit          3D

 23 22  0  0  0  0  0  0  0  0999 V2000
  -18.4488   -4.7667  145.2142 C   0  0  0  0  0  0  0  0  0  0  0  0
  -17.7402   -1.3027  144.7392 O   0  0  0  0  0  0  0  0  0  0  0  0
  -16.0555   -5.1789  145.0124 O   0  0  0  0  0  0  0  0  0  0  0  0
  -16.4604   -4.5603  147.5669 O   0  0  0  0  0  0  0  0  0  0  0  0
  -16.5842   -1.8359  146.7805 C   0  0  0  0  0  0  0  0  0  0  0  0
  -18.8500   -1.8233  147.7581 C   0  0  0  0  0  0  0  0  0  0  0  0
  -17.7955   -2.5536  147.3598 C   0  0  0  0  0  0  0  0  0  0  0  0
  -18.6008   -0.3563  144.1328 C   0  0  0  0  0  0  0  0  0  0  0  0
  -15.5457   -4.4790  143.8993 C   0  0  0  0  0  0  0  0  0  0  0  0
  -16.9319   -0.7283  145.7572 C   0  0  0  0  0  0  0  0  0  0  0  0
  -15.6015   -0.0811  145.1985 C   0  0  0  0  0  0  0  0  0  0  0  0
  -18.7308   -4.8528  146.7287 C   0  0  0  0  0  0  0  0  0  0  0  0
  -15.2768   -0.4603  143.7177 C   0  0  0  0  0  0  0  0  0  0  0  0
  -15.6185    1.4593  145.3890 C   0  0  0  0  0  0  0  0  0  0  0  0
  -17.3352   -5.7083  144.7256 C   0  0  0  0  0  0  0  0  0  0  0  0
  -17.7670   -4.0543  147.6407 C   0  0  0  0  0  0  0  0  0  0  0  0
  -19.9602   -0.3415  144.8232 C   0  0  0  0  0  0  0  0  0  0  0  0
  -12.7890    0.3324  143.5228 C   0  0  0  0  0  0  0  0  0  0  0  0
  -11.3541   -0.2107  143.4790 C   0  0  0  0  0  0  0  0  0  0  0  0
  -13.0030    1.3179  142.3633 C   0  0  0  0  0  0  0  0  0  0  0  0
  -13.7968   -0.8397  143.4711 C   0  0  0  0  0  0  0  0  0  0  0  0
  -15.4433    1.8307  146.8392 C   0  0  0  0  0  0  0  0  0  0  0  0
  -16.3867    2.4845  147.5225 C   0  0  0  0  0  0  0  0  0  0  0  0
  7  5  1  0
  7  6  2  0
  8  2  1  0
  9  3  1  0
 10  2  1  0
 10  5  1  0
 11 10  1  0
 12  1  1  0
 13 11  1  0
 14 11  1  0
 15  1  1  0
 15  3  1  0
 16  4  1  0
 16  7  1  0
 16 12  1  0
 17  8  1  0
 19 18  1  0
 20 18  1  0
 21 13  1  0
 21 18  1  0
 22 14  1  0
 23 22  2  0
M  END
$$$$

     RDKit          3D

 24 26  0  0  0  0  0  0  0  0999 V2000
  -31.2679  -16.3187  146.1980 O   0  0  0  0  0  1  0  0  0  0  0  0
  -32.1882  -15.5085  145.6418 C   0  0  0  0  0  0  0  0  0  0  0  0
  -33.0890  -14.9394  146.3406 O   0  0  0  0  0  0  0  0  0  0  0  0
  -32.6877  -16.5558  144.7063 C   0  0  0  0  0  0  0  0  0  0  0  0
  -30.2622  -15.6649  146.9159 C   0  0  0  0  0  0  0  0  0  0  0  0
  -32.1467  -17.8645  144.4794 C   0  0  0  0  0  0  0  0  0  0  0  0
  -31.0223  -15.8757  145.3047 Si  0  0  0  0  0  3  0  0  0  0  0  0
  -28.8760  -16.0064  146.3793 C   0  0  0  0  0  0  0  0  0  0  0  0
  -30.7918  -17.9911  144.0838 C   0  0  0  0  0  0  0  0  0  0  0  0
  -27.8110  -15.7464  147.3548 C   0  0  0  0  0  0  0  0  0  0  0  0
  -27.3987  -16.6310  148.2766 C   0  0  0  0  0  0  0  0  0  0  0  0
  -30.3804  -19.0225  143.2148 C   0  0  0  0  0  0  0  0  0  0  0  0
  -31.1224  -17.0215  144.7471 C   0  0  0  0  0  0  0  0  0  0  0  0
  -29.0297  -19.3146  142.9170 C   0  0  0  0  0  0  0  0  0  0  0  0
  -28.9569  -19.1662  142.8110 C   0  0  0  0  0  0  0  0  0  0  0  0
  -28.9142  -19.6184  141.5008 N   0  0  0  0  0  0  0  0  0  0  0  0
  -28.2929  -17.3868  149.0947 C   0  0  0  0  0  0  0  0  0  0  0  0
  -28.3785  -17.0513  150.4496 C   0  0  0  0  0  0  0  0  0  0  0  0
  -27.0648  -17.2104  148.4141 C   0  0  0  0  0  0  0  0  0  0  0  0
  -27.9995  -19.3934  141.8017 N   0  0  0  0  0  0  0  0  0  0  0  0
  -25.8874  -17.1739  147.6609 C   0  0  0  0  0  0  0  0  0  0  0  0
  -27.6119  -16.0299  150.9289 C   0  0  0  0  0  0  0  0  0  0  0  0
  -28.9223  -16.0670  146.3042 C   0  0  0  0  0  0  0  0  0  0  0  0
  -28.1660  -14.8405  151.2097 N   0  0  0  0  0  0  0  0  0  0  0  0
  2  1  1  0
  3  2  1  0
  4  2  1  0
  6  4  1  0
  7  2  1  0
  7  5  1  0
  8  5  1  0
  9  6  1  0
 10  8  1  0
 11 10  1  0
 12  9  1  0
 13  4  1  0
 13  6  1  0
 13  7  1  0
 13  9  1  0
 14 12  1  0
 15 14  1  0
 16 15  1  0
 18 17  1  0
 19 11  1  0
 19 17  1  0
 20 16  1  0
 21 19  1  0
 22 18  1  0
 23  8  2  0
 24 22  1  0
M  RAD  2   1   2   7   2
M  END
$$$$

     RDKit          3D

 24 25  0  0  0  0  0  0  0  0999 V2000
  -27.3103  -23.7773  143.4225 O   0  0  0  0  0  0  0  0  0  0  0  0
  -26.9496  -23.8213  142.2149 C   0  0  0  0  0  0  0  0  0  0  0  0
  -27.1842  -24.9765  141.4730 O   0  0  0  0  0  0  0  0  0  0  0  0
  -26.2833  -22.6284  141.5876 C   0  0  0  0  0  0  0  0  0  0  0  0
  -27.3167  -21.5878  141.1347 C   0  0  0  0  0  0  0  0  0  0  0  0
  -28.0915  -22.0366  139.8783 C   0  0  0  0  0  0  0  0  0  0  0  0
  -29.3216  -21.1509  139.6244 C   0  0  0  0  0  0  0  0  0  0  0  0
  -30.4540  -21.3188  140.6404 C   0  0  0  0  0  0  0  0  0  0  0  0
  -31.4040  -21.7308  139.5022 C   0  0  0  0  0  0  0  0  0  0  0  0
  -30.2380  -21.6756  138.5149 C   0  0  0  0  0  0  0  0  0  0  0  0
  -32.0856  -23.0693  139.5364 N   0  0  0  0  0  0  0  0  0  0  0  0
  -33.5693  -22.9282  139.6305 C   0  0  0  0  0  0  0  0  0  0  0  0
  -34.3466  -23.8275  138.7396 N   0  0  0  0  0  0  0  0  0  0  0  0
  -31.5050  -24.0704  140.4748 C   0  0  0  0  0  0  0  0  0  0  0  0
  -33.8800  -24.2849  137.3973 C   0  0  0  0  0  0  0  0  0  0  0  0
  -31.9066  -23.9078  141.9543 C   0  0  0  0  0  0  0  0  0  0  0  0
  -33.2151  -25.6842  137.5369 C   0  0  0  0  0  0  0  0  0  0  0  0
  -32.1943  -26.1456  136.4823 C   0  0  0  0  0  0  0  0  0  0  0  0
  -32.7853  -26.0957  135.1059 C   0  0  0  0  0  0  0  0  0  0  0  0
  -33.2585  -24.9881  134.5244 C   0  0  0  0  0  0  0  0  0  0  0  0
  -33.0311  -23.5686  134.9936 C   0  0  0  0  0  0  0  0  0  0  0  0
  -33.1265  -23.2187  136.5240 C   0  0  0  0  0  0  0  0  0  0  0  0
  -30.8108  -25.4853  136.6010 C   0  0  0  0  0  0  0  0  0  0  0  0
  -33.7743  -21.8162  136.6269 C   0  0  0  0  0  0  0  0  0  0  0  0
  2  1  2  0
  3  2  1  0
  4  2  1  0
  5  4  1  0
  6  5  1  0
  7  6  1  0
  8  7  1  0
  9  8  1  0
 10  7  1  0
 10  9  1  0
 11  9  1  0
 12 11  1  0
 13 12  1  0
 14 11  1  0
 15 13  1  0
 16 14  1  0
 17 15  1  0
 18 17  1  0
 19 18  1  0
 20 19  2  0
 21 20  1  0
 22 15  1  0
 22 21  1  0
 23 18  1  0
 24 22  1  0
M  END
$$$$

     RDKit          3D

 23 30  0  0  0  0  0  0  0  0999 V2000
  -27.5408  -10.0489  136.6063 O   0  0  0  0  0  0  0  0  0  0  0  0
  -26.7843  -11.1681  136.9936 C   0  0  0  0  0  0  0  0  0  0  0  0
  -26.1098  -11.8565  135.9817 O   0  0  0  0  0  0  0  0  0  0  0  0
  -26.3750  -11.3805  138.4544 C   0  0  0  0  0  0  0  0  0  0  0  0
  -27.4731  -11.5609  139.5547 C   0  0  0  0  0  0  0  0  0  0  0  0
  -28.9433  -11.3927  139.1007 C   0  0  0  0  0  0  0  0  0  0  0  0
  -26.2467   -9.7452  137.0497 C   0  0  0  0  0  0  0  0  0  0  0  0
  -29.6493  -10.4469  140.0901 C   0  0  0  0  0  0  0  0  0  0  0  0
  -29.1406   -8.9463  140.1705 C   0  0  0  0  0  0  0  0  0  0  0  0
  -27.9795   -8.5516  139.2385 C   0  0  0  0  0  0  0  0  0  0  0  0
  -30.4160   -9.3073  139.4325 C   0  0  0  0  0  0  0  0  0  0  0  0
  -26.7322   -9.3390  139.6407 C   0  0  0  0  0  0  0  0  0  0  0  0
  -31.7039   -8.8538  140.1416 C   0  0  0  0  0  0  0  0  0  0  0  0
  -25.8932   -9.9551  138.5215 C   0  0  0  0  0  0  0  0  0  0  0  0
  -27.2333  -10.4331  140.5716 C   0  0  0  0  0  0  0  0  0  0  0  0
  -28.6122  -10.0171  141.0773 C   0  0  0  0  0  0  0  0  0  0  0  0
  -26.1565  -10.7998  141.6517 C   0  0  0  0  0  0  0  0  0  0  0  0
  -26.6525  -10.8212  143.0993 C   0  0  0  0  0  0  0  0  0  0  0  0
  -31.7762   -9.2923  141.5359 N   0  0  0  0  0  0  0  0  0  0  0  0
  -27.7848   -6.5931  141.7902 C   0  0  0  0  0  0  0  0  0  0  0  0
  -26.7871   -7.8308  139.8869 C   0  0  0  0  0  0  0  0  0  0  0  0
  -26.8589   -7.4465  141.3408 C   0  0  0  0  0  0  0  0  0  0  0  0
  -27.8266   -6.1969  143.2326 C   0  0  0  0  0  0  0  0  0  0  0  0
  2  1  1  0
  3  2  1  0
  4  2  1  0
  5  4  1  0
  6  5  1  0
  7  1  1  0
  7  2  1  0
  8  6  1  0
  9  8  1  0
 10  9  1  0
 11  8  1  0
 11  9  1  0
 12 10  1  0
 13 11  1  0
 14  4  1  0
 14  7  1  0
 14 12  1  0
 15  5  1  0
 15 12  1  0
 16  8  1  0
 16  9  1  0
 16 15  1  0
 17 15  1  0
 18 17  1  0
 19 13  1  0
 21 10  1  0
 21 12  1  0
 22 20  2  3
 22 21  1  0
 23 20  1  0
M  END
$$$$

     RDKit          3D

 24 30  0  0  0  0  0  0  0  0999 V2000
  -31.5774  -11.9125  145.0094 C   0  0  0  0  0  0  0  0  0  0  0  0
  -32.2615  -11.8977  143.6524 C   0  0  0  0  0  0  0  0  0  0  0  0
  -32.0986  -10.5707  142.9358 C   0  0  0  0  0  0  0  0  0  0  0  0
  -30.7692  -10.5148  142.1523 C   0  0  0  0  0  0  0  0  0  0  0  0
  -32.3966  -12.5085  146.1704 C   0  0  0  0  0  0  0  0  0  0  0  0
  -31.8551  -13.8966  146.5386 C   0  0  0  0  0  0  0  0  0  0  0  0
  -32.0918  -10.5969  144.4581 C   0  0  0  0  0  0  0  0  0  0  0  0
  -30.8651   -9.4812  141.1085 N   0  0  0  0  0  0  0  0  0  0  0  0
  -29.5725   -9.3064  140.4211 C   0  0  0  0  0  0  0  0  0  0  0  0
  -32.8487  -14.7368  147.3538 C   0  0  0  0  0  0  0  0  0  0  0  0
  -29.6211  -10.2424  143.0342 N   0  0  0  0  0  0  0  0  0  0  0  0
  -29.1724   -7.8617  140.1941 C   0  0  0  0  0  0  0  0  0  0  0  0
  -33.2965  -14.0333  148.6426 C   0  0  0  0  0  0  0  0  0  0  0  0
  -33.8000  -14.9924  149.7153 C   0  0  0  0  0  0  0  0  0  0  0  0
  -34.9520  -14.4597  150.5724 C   0  0  0  0  0  0  0  0  0  0  0  0
  -30.2527   -6.8545  139.8282 C   0  0  0  0  0  0  0  0  0  0  0  0
  -29.6184   -8.7506  139.0079 C   0  0  0  0  0  0  0  0  0  0  0  0
  -36.2712  -14.6707  149.8248 C   0  0  0  0  0  0  0  0  0  0  0  0
  -32.4581  -14.2869  149.8920 C   0  0  0  0  0  0  0  0  0  0  0  0
  -28.3164  -10.3105  142.3324 C   0  0  0  0  0  0  0  0  0  0  0  0
  -28.4265  -10.2493  140.8018 C   0  0  0  0  0  0  0  0  0  0  0  0
  -30.6876   -7.7170  138.6662 C   0  0  0  0  0  0  0  0  0  0  0  0
  -37.5059  -14.8264  150.6971 C   0  0  0  0  0  0  0  0  0  0  0  0
  -36.9140  -16.0383  149.9961 C   0  0  0  0  0  0  0  0  0  0  0  0
  2  1  1  0
  3  2  1  0
  4  3  1  0
  5  1  1  0
  6  5  1  0
  7  1  1  0
  7  2  1  0
  7  3  1  0
  8  4  1  0
  9  8  1  0
 10  6  1  0
 11  4  1  0
 12  9  1  0
 13 10  1  0
 14 13  1  0
 15 14  1  0
 16 12  1  0
 17  9  1  0
 17 12  1  0
 18 15  1  0
 19 13  1  0
 19 14  1  0
 20 11  1  0
 21  9  1  0
 21 20  1  0
 22 16  1  0
 22 17  1  0
 23 18  1  0
 24 18  1  0
 24 23  1  0
M  END
$$$$

     RDKit          3D

 11 13  0  0  0  0  0  0  0  0999 V2000
  -22.3661   -6.4573  140.0456 O   0  0  0  0  0  0  0  0  0  0  0  0
  -22.5794   -7.2638  141.1742 C   0  0  0  0  0  0  0  0  0  0  0  0
  -21.6356   -6.7961  142.2918 C   0  0  0  0  0  0  0  0  0  0  0  0
  -21.7137   -7.7098  143.5263 C   0  0  0  0  0  0  0  0  0  0  0  0
  -24.0489   -7.1372  141.6121 C   0  0  0  0  0  0  0  0  0  0  0  0
  -20.4347   -7.8039  144.3448 C   0  0  0  0  0  0  0  0  0  0  0  0
  -20.8631   -8.9692  143.4659 C   0  0  0  0  0  0  0  0  0  0  0  0
  -25.0159   -7.9117  140.7398 C   0  0  0  0  0  0  0  0  0  0  0  0
  -25.0807   -9.3834  141.0832 C   0  0  0  0  0  0  0  0  0  0  0  0
  -25.7724   -8.1405  143.2026 C   0  0  0  0  0  0  0  0  0  0  0  0
  -24.6638   -8.4100  142.1679 C   0  0  0  0  0  0  0  0  0  0  0  0
  2  1  1  0
  3  2  1  0
  4  3  1  0
  5  2  1  0
  6  4  1  0
  7  4  1  0
  7  6  1  0
  8  5  1  0
  9  8  1  0
 11  5  1  0
 11  8  1  0
 11  9  1  0
 11 10  1  0
M  END
$$$$

     RDKit          3D

 23 29  0  0  0  0  0  0  0  0999 V2000
  -21.4958   -5.8568  143.7245 O   0  0  0  0  0  0  0  0  0  0  0  0
  -22.7458   -5.6479  144.3269 C   0  0  0  0  0  0  0  0  0  0  0  0
  -23.6871   -5.0517  143.3674 N   0  0  0  0  0  0  0  0  0  0  0  0
  -23.0262   -7.0640  144.5611 N   0  0  0  0  0  0  0  0  0  0  0  0
  -24.7898   -4.3763  144.0608 C   0  0  0  0  0  0  0  0  0  0  0  0
  -25.5557   -5.3337  144.8863 N   0  0  0  0  0  0  0  0  0  0  0  0
  -25.7477   -4.8252  146.2577 C   0  0  0  0  0  0  0  0  0  0  0  0
  -26.5642   -2.3789  143.3254 Cl  0  0  0  0  0  0  0  0  0  0  0  0
  -27.4876   -6.8796  144.2031 S   0  0  0  0  0  4  0  0  0  0  0  0
  -26.4634   -3.6193  146.2559 O   0  0  0  0  0  0  0  0  0  0  0  0
  -25.0351   -3.5520  140.8152 C   0  0  0  0  0  0  0  0  0  0  0  0
  -25.8781   -4.5132  141.6589 C   0  0  0  0  0  0  0  0  0  0  0  0
  -20.6615   -7.8783  144.8189 C   0  0  0  0  0  0  0  0  0  0  0  0
  -27.8024   -3.9779  146.0668 C   0  0  0  0  0  0  0  0  0  0  0  0
  -21.7298   -7.2286  143.9121 C   0  0  0  0  0  0  0  0  0  0  0  0
  -21.0346   -9.2909  145.2576 C   0  0  0  0  0  0  0  0  0  0  0  0
  -20.9953   -8.8289  146.7282 C   0  0  0  0  0  0  0  0  0  0  0  0
  -25.9910   -4.0760  143.1423 C   0  0  0  0  0  0  0  0  0  0  0  0
  -28.0344   -4.6840  144.7220 C   0  0  0  0  0  0  0  0  0  0  0  0
  -20.6288   -7.4251  146.2742 C   0  0  0  0  0  0  0  0  0  0  0  0
  -26.7252   -5.1209  144.0094 C   0  0  0  0  0  0  0  0  0  0  0  0
  -20.0967   -9.9472  146.2473 C   0  0  0  0  0  0  0  0  0  0  0  0
  -20.5300  -11.2006  146.6828 O   0  0  0  0  0  0  0  0  0  0  0  0
  2  1  1  0
  3  2  1  0
  4  2  1  0
  5  3  1  0
  6  5  1  0
  7  6  1  0
  9  3  1  0
  9  7  1  0
 10  7  1  0
 12 11  1  0
 14  9  1  0
 14 10  1  0
 15  1  1  0
 15  4  1  0
 15 13  1  0
 16 13  1  0
 17 16  1  0
 18  5  1  0
 18  8  1  0
 18 12  1  0
 19 14  1  0
 20 13  1  0
 20 17  1  0
 21  6  1  0
 21 18  1  0
 21 19  1  0
 22 16  1  0
 22 17  1  0
 23 22  1  0
M  END
$$$$

     RDKit          3D

 20 23  0  0  0  0  0  0  0  0999 V2000
  -20.2113   -1.0957  136.3494 C   0  0  0  0  0  0  0  0  0  0  0  0
  -18.0599   -2.3457  136.9996 C   0  0  0  0  0  0  0  0  0  0  0  0
  -17.3698   -1.7884  134.4417 C   0  0  0  0  0  0  0  0  0  0  0  0
  -19.5732   -2.4396  136.7440 C   0  0  0  0  0  0  0  0  0  0  0  0
  -17.2869   -3.5582  136.4702 C   0  0  0  0  0  0  0  0  0  0  0  0
  -18.0406   -2.8188  133.6340 N   0  0  0  0  0  0  0  0  0  0  0  0
  -16.9997   -2.1710  135.9066 C   0  0  0  0  0  0  0  0  0  0  0  0
  -17.1581   -3.8399  133.4320 O   0  0  0  0  0  0  0  0  0  0  0  0
  -20.5567   -1.0184  134.8494 C   0  0  0  0  0  0  0  0  0  0  0  0
  -19.5200   -0.3311  133.9383 C   0  0  0  0  0  0  0  0  0  0  0  0
  -17.6699   -4.6653  132.4080 C   0  0  0  0  0  0  0  0  0  0  0  0
  -17.3911   -7.1777  132.9005 C   0  0  0  0  0  0  0  0  0  0  0  0
  -17.9118   -8.4448  133.5692 C   0  0  0  0  0  0  0  0  0  0  0  0
  -18.2554   -5.9337  133.0430 C   0  0  0  0  0  0  0  0  0  0  0  0
  -18.7239   -7.0596  132.1272 C   0  0  0  0  0  0  0  0  0  0  0  0
  -18.0387   -0.3927  134.3526 C   0  0  0  0  0  0  0  0  0  0  0  0
  -18.5125   -7.0546  130.5975 C   0  0  0  0  0  0  0  0  0  0  0  0
  -19.7001   -6.6755  129.9604 O   0  0  0  0  0  0  0  0  0  0  0  0
  -17.0834   -9.6839  133.2244 C   0  0  0  0  0  0  0  0  0  0  0  0
  -19.2155   -8.3412  132.7912 C   0  0  0  0  0  0  0  0  0  0  0  0
  4  1  1  0
  4  2  1  0
  5  2  1  0
  6  3  1  0
  7  2  1  0
  7  3  1  0
  7  5  1  0
  8  6  1  0
  9  1  1  0
 10  9  1  0
 11  8  1  0
 13 12  1  0
 14 11  1  0
 14 12  1  0
 15 12  1  0
 15 14  1  0
 16  3  1  0
 16 10  1  0
 17 15  1  0
 18 17  1  0
 19 13  1  0
 20 13  1  0
 20 15  1  0
M  END
$$$$

     RDKit          3D

 22 22  0  0  0  0  0  0  0  0999 V2000
  -17.6545   -7.1925  146.8628 O   0  0  0  0  0  0  0  0  0  0  0  0
  -17.2189   -5.9938  147.2141 O   0  0  0  0  0  0  0  0  0  0  0  0
  -15.6298   -3.4245  144.0880 C   0  0  0  0  0  0  0  0  0  0  0  0
  -15.4304   -2.1585  142.5713 Al  0  0  0  0  0  3  0  0  0  0  0  0
  -16.3140   -2.0654  144.3681 C   0  0  0  0  0  0  0  0  0  0  0  0
  -15.6553   -0.9867  145.2957 C   0  0  0  0  0  0  0  0  0  0  0  0
  -16.6634   -0.3107  146.2998 C   0  0  0  0  0  0  0  0  0  0  0  0
  -17.5561    0.8240  145.6625 C   0  0  0  0  0  0  0  0  0  0  0  0
  -16.5587   -4.5939  143.7150 C   0  0  0  0  0  0  0  0  0  0  0  0
  -16.6678   -5.6410  144.8355 C   0  0  0  0  0  0  0  0  0  0  0  0
  -14.4058   -1.5127  146.0325 C   0  0  0  0  0  0  0  0  0  0  0  0
  -17.4864   -1.3599  147.1017 C   0  0  0  0  0  0  0  0  0  0  0  0
  -18.8527   -4.6815  145.9264 C   0  0  0  0  0  0  0  0  0  0  0  0
  -17.3770   -5.1204  146.1086 C   0  0  0  0  0  0  0  0  0  0  0  0
  -16.6368   -8.0948  147.2106 C   0  0  0  0  0  0  0  0  0  0  0  0
  -18.4776    0.3571  144.5039 C   0  0  0  0  0  0  0  0  0  0  0  0
  -19.7702   -5.7062  145.2562 C   0  0  0  0  0  0  0  0  0  0  0  0
  -19.5439    1.3913  144.1330 C   0  0  0  0  0  0  0  0  0  0  0  0
  -18.0907   -0.8249  148.4179 C   0  0  0  0  0  0  0  0  0  0  0  0
  -16.7040    2.0364  145.2319 C   0  0  0  0  0  0  0  0  0  0  0  0
  -20.3905   -1.9075  148.4460 C   0  0  0  0  0  0  0  0  0  0  0  0
  -19.0067   -1.8668  149.0922 C   0  0  0  0  0  0  0  0  0  0  0  0
  2  1  1  0
  4  3  1  0
  5  3  1  0
  5  4  1  0
  6  5  1  0
  7  6  1  0
  8  7  1  0
  9  3  1  0
 10  9  1  0
 11  6  1  0
 12  7  1  0
 14  2  1  0
 14 10  1  0
 14 13  1  0
 15  1  1  0
 16  8  1  0
 17 13  1  0
 18 16  1  0
 19 12  1  0
 20  8  1  0
 22 19  1  0
 22 21  1  0
M  END
$$$$

     RDKit          3D

 24 27  0  0  0  0  0  0  0  0999 V2000
  -23.3622   -5.7517  138.5624 O   0  0  0  0  0  0  0  0  0  0  0  0
  -21.0657   -6.5729  139.2688 C   0  0  0  0  0  0  0  0  0  0  0  0
  -19.8763   -7.3072  140.0714 C   0  0  0  0  0  0  0  0  0  0  0  0
  -18.3319   -7.4178  139.4103 C   0  0  0  0  0  0  0  0  0  0  0  0
  -16.7575   -8.7844  141.0700 C   0  0  0  0  0  0  0  0  0  0  0  0
  -22.5462   -6.8419  138.8385 C   0  0  0  0  0  0  0  0  0  0  0  0
  -17.6041   -5.4585  140.4897 C   0  0  0  0  0  0  0  0  0  0  0  0
  -17.1633   -7.1878  140.4640 C   0  0  0  0  0  0  0  0  0  0  0  0
  -15.6449   -9.0537  142.0947 C   0  0  0  0  0  0  0  0  0  0  0  0
  -17.2600   -4.0990  141.3787 C   0  0  0  0  0  0  0  0  0  0  0  0
  -17.9996   -4.1634  142.7348 C   0  0  0  0  0  0  0  0  0  0  0  0
  -18.5546   -3.1697  141.6032 C   0  0  0  0  0  0  0  0  0  0  0  0
  -18.2094   -1.7146  141.7613 C   0  0  0  0  0  0  0  0  0  0  0  0
  -19.1221   -4.6039  138.0083 C   0  0  0  0  0  0  0  0  0  0  0  0
  -19.8103   -5.3402  137.0313 N   0  0  0  0  0  0  0  0  0  0  0  0
  -17.0929   -1.3172  142.7585 C   0  0  0  0  0  0  0  0  0  0  0  0
  -18.7517   -4.9912  139.4832 N   0  0  0  0  0  0  0  0  0  0  0  0
  -20.6680   -8.2710  136.7322 C   0  0  0  0  0  0  0  0  0  0  0  0
  -19.4524   -2.2078  142.3878 C   0  0  0  0  0  0  0  0  0  0  0  0
  -18.6047   -1.2590  143.1968 C   0  0  0  0  0  0  0  0  0  0  0  0
  -20.4303  -10.1461  138.6583 C   0  0  0  0  0  0  0  0  0  0  0  0
  -21.4993   -6.4424  135.1055 C   0  0  0  0  0  0  0  0  0  0  0  0
  -20.5390   -6.5687  136.3170 C   0  0  0  0  0  0  0  0  0  0  0  0
  -19.7564   -9.4265  137.4302 C   0  0  0  0  0  0  0  0  0  0  0  0
  3  2  1  0
  4  3  1  0
  6  1  1  0
  6  2  1  0
  8  4  1  0
  8  5  1  0
  8  7  1  0
  9  5  1  0
 10  7  1  0
 11 10  1  0
 12 10  1  0
 12 11  1  0
 13 12  1  0
 15 14  2  3
 16 13  1  0
 17  7  1  0
 17 14  1  0
 19 12  1  0
 19 13  1  0
 20 13  1  0
 20 16  1  0
 20 19  1  0
 23 15  1  0
 23 18  1  0
 23 22  1  0
 24 18  1  0
 24 21  1  0
M  END
$$$$

     RDKit          3D

 23 27  0  0  0  0  0  0  0  0999 V2000
  -25.4563  -21.0683  134.3123 N   0  0  0  0  0  0  0  0  0  0  0  0
  -24.5260  -19.9436  134.4033 C   0  0  0  0  0  0  0  0  0  0  0  0
  -23.4444  -20.7030  133.9638 O   0  0  0  0  0  0  0  0  0  0  0  0
  -22.7901  -19.6985  136.4359 C   0  0  0  0  0  0  0  0  0  0  0  0
  -24.1709  -21.4174  134.9169 C   0  0  0  0  0  0  0  0  0  0  0  0
  -22.3817  -18.3966  135.8698 N   0  0  0  0  0  0  0  0  0  0  0  0
  -23.9375  -16.8646  137.2556 C   0  0  0  0  0  0  0  0  0  0  0  0
  -26.3942  -17.1384  136.3323 C   0  0  0  0  0  0  0  0  0  0  0  0
  -21.6359  -20.6959  136.3173 C   0  0  0  0  0  0  0  0  0  0  0  0
  -24.1650  -20.2119  135.8778 C   0  0  0  0  0  0  0  0  0  0  0  0
  -27.4657  -16.1865  135.7858 C   0  0  0  0  0  0  0  0  0  0  0  0
  -22.5004  -17.2264  136.7628 C   0  0  0  0  0  0  0  0  0  0  0  0
  -28.8412  -16.8242  135.8104 C   0  0  0  0  0  0  0  0  0  0  0  0
  -29.6850  -16.3592  134.6397 C   0  0  0  0  0  0  0  0  0  0  0  0
  -30.5329  -17.4001  133.8711 C   0  0  0  0  0  0  0  0  0  0  0  0
  -28.1692  -16.4944  134.4796 C   0  0  0  0  0  0  0  0  0  0  0  0
  -31.9279  -17.8073  136.1083 C   0  0  0  0  0  0  0  0  0  0  0  0
  -31.3636  -19.1179  136.6484 C   0  0  0  0  0  0  0  0  0  0  0  0
  -31.0138  -19.5550  135.2332 C   0  0  0  0  0  0  0  0  0  0  0  0
  -24.4270  -17.8097  138.3223 C   0  0  0  0  0  0  0  0  0  0  0  0
  -23.8387  -17.9225  139.3879 O   0  0  0  0  0  0  0  0  0  0  0  0
  -24.9586  -16.5987  136.1061 C   0  0  0  0  0  0  0  0  0  0  0  0
  -31.5671  -18.2396  134.6843 C   0  0  0  0  0  0  0  0  0  0  0  0
  2  1  1  0
  3  2  1  0
  5  1  1  0
  5  3  1  0
  6  4  1  0
  9  4  1  0
 10  2  1  0
 10  4  1  0
 10  5  1  0
 11  8  1  0
 12  6  1  0
 12  7  1  0
 13 11  1  0
 14 13  1  0
 15 14  1  0
 16 11  1  0
 16 13  1  0
 16 14  1  0
 18 17  1  0
 19 18  1  0
 20  7  1  0
 21 20  2  0
 22  7  1  0
 22  8  1  0
 23 15  1  0
 23 17  1  0
 23 19  1  0
M  END
$$$$

     RDKit          3D

 23 23  0  0  0  0  0  0  0  0999 V2000
  -28.8541   -2.8643  145.7500 O   0  0  0  0  0  0  0  0  0  0  0  0
  -27.6482   -3.1016  145.2430 O   0  0  0  0  0  0  0  0  0  0  0  0
  -29.3244   -3.5257  148.1340 C   0  0  0  0  0  0  0  0  0  0  0  0
  -30.6121   -4.4129  147.8237 C   0  0  0  0  0  0  0  0  0  0  0  0
  -31.4421   -3.8576  146.6412 C   0  0  0  0  0  0  0  0  0  0  0  0
  -31.4851   -4.5212  149.1177 C   0  0  0  0  0  0  0  0  0  0  0  0
  -30.2451   -5.8760  147.5169 C   0  0  0  0  0  0  0  0  0  0  0  0
  -31.1746   -6.9358  147.4277 C   0  0  0  0  0  0  0  0  0  0  0  0
  -29.2082   -1.0098  147.2826 C   0  0  0  0  0  0  0  0  0  0  0  0
  -28.8671   -0.3578  148.6713 C   0  0  0  0  0  0  0  0  0  0  0  0
  -28.6990   -2.4990  147.1215 C   0  0  0  0  0  0  0  0  0  0  0  0
  -30.7628    3.1669  148.8817 C   0  0  0  0  0  0  0  0  0  0  0  0
  -31.7560    0.9874  148.7116 N   0  0  0  0  0  0  0  0  0  0  0  0
  -32.0379   -0.4729  148.7931 C   0  0  0  0  0  0  0  0  0  0  0  0
  -30.5477    1.6632  149.3436 C   0  0  0  0  0  0  0  0  0  0  0  0
  -29.1768    1.1660  148.7108 C   0  0  0  0  0  0  0  0  0  0  0  0
  -31.9920   -1.1840  150.1187 C   0  0  0  0  0  0  0  0  0  0  0  0
  -32.1523   -0.9059  151.6079 C   0  0  0  0  0  0  0  0  0  0  0  0
  -31.7474    2.4378  151.5376 C   0  0  0  0  0  0  0  0  0  0  0  0
  -33.3525   -0.8464  149.4741 C   0  0  0  0  0  0  0  0  0  0  0  0
  -30.4941    1.7487  150.9191 C   0  0  0  0  0  0  0  0  0  0  0  0
  -30.9875   -1.5433  152.3957 C   0  0  0  0  0  0  0  0  0  0  0  0
  -31.0621   -1.2551  153.9015 C   0  0  0  0  0  0  0  0  0  0  0  0
  2  1  1  0
  4  3  1  0
  5  4  1  0
  6  4  1  0
  7  4  1  0
  8  7  2  0
 10  9  1  0
 11  1  1  0
 11  3  1  0
 11  9  1  0
 14 13  1  0
 15 12  1  0
 15 13  1  0
 16 10  1  0
 16 15  1  0
 17 14  1  0
 18 17  1  0
 20 14  1  0
 20 17  1  0
 21 15  1  0
 21 19  1  0
 22 18  1  0
 23 22  1  0
M  END
$$$$

     RDKit          3D

 24 30  0  0  0  0  0  0  0  0999 V2000
  -28.7368  -17.2926  141.6608 C   0  0  0  0  0  0  0  0  0  0  0  0
  -30.4896  -17.7436  140.4658 C   0  0  0  0  0  0  0  0  0  0  0  0
  -29.2663  -15.6114  139.6455 C   0  0  0  0  0  0  0  0  0  0  0  0
  -30.0325  -18.0685  141.8904 C   0  0  0  0  0  0  0  0  0  0  0  0
  -29.7807  -15.4675  138.1812 C   0  0  0  0  0  0  0  0  0  0  0  0
  -29.1497  -16.4451  137.1498 C   0  0  0  0  0  0  0  0  0  0  0  0
  -29.1575  -17.0617  140.1967 C   0  0  0  0  0  0  0  0  0  0  0  0
  -30.3839  -17.1654  143.0860 C   0  0  0  0  0  0  0  0  0  0  0  0
  -30.1970  -17.1258  136.2301 C   0  0  0  0  0  0  0  0  0  0  0  0
  -30.2881  -18.6605  136.2872 C   0  0  0  0  0  0  0  0  0  0  0  0
  -31.6723  -16.3358  143.0035 C   0  0  0  0  0  0  0  0  0  0  0  0
  -30.6974  -19.4528  135.0475 C   0  0  0  0  0  0  0  0  0  0  0  0
  -32.9359  -17.2027  142.9556 C   0  0  0  0  0  0  0  0  0  0  0  0
  -29.8299  -20.6951  135.1257 C   0  0  0  0  0  0  0  0  0  0  0  0
  -29.0941  -16.3383  142.8262 C   0  0  0  0  0  0  0  0  0  0  0  0
  -31.3717  -17.8256  136.9395 C   0  0  0  0  0  0  0  0  0  0  0  0
  -28.9833  -20.5468  136.4129 C   0  0  0  0  0  0  0  0  0  0  0  0
  -29.3576  -19.3484  137.1891 N   0  0  0  0  0  0  0  0  0  0  0  0
  -28.8876  -21.7996  137.2589 C   0  0  0  0  0  0  0  0  0  0  0  0
  -27.9263  -16.3216  143.8676 C   0  0  0  0  0  0  0  0  0  0  0  0
  -28.0263  -16.4372  145.3523 C   0  0  0  0  0  0  0  0  0  0  0  0
  -29.3773  -16.4601  145.9318 N   0  0  0  0  0  0  0  0  0  0  0  0
  -27.6522  -17.7137  144.5351 C   0  0  0  0  0  0  0  0  0  0  0  0
  -29.8295  -20.6771  137.6501 C   0  0  0  0  0  0  0  0  0  0  0  0
  4  1  1  0
  4  2  1  0
  5  3  1  0
  6  5  1  0
  7  1  1  0
  7  2  1  0
  7  3  1  0
  8  4  1  0
  9  6  1  0
 10  9  1  0
 11  8  1  0
 12 10  1  0
 13 11  1  0
 14 12  1  0
 15  1  1  0
 15  8  1  0
 16  9  1  0
 16 10  1  0
 17 14  1  0
 18 10  1  0
 18 17  1  0
 19 17  1  0
 20 15  1  0
 21 20  1  0
 22 21  1  0
 23 20  1  0
 23 21  1  0
 24 17  1  0
 24 18  1  0
 24 19  1  0
M  END
$$$$

     RDKit          3D

 22 23  0  0  0  0  0  0  0  0999 V2000
  -37.0565   -8.3770  144.1624 Br  0  0  0  0  0  0  0  0  0  0  0  0
  -37.2284  -10.9143  142.6318 C   0  0  0  0  0  0  0  0  0  0  0  0
  -37.4244  -10.8408  141.1077 C   0  0  0  0  0  0  0  0  0  0  0  0
  -38.5348  -11.6260  140.5043 C   0  0  0  0  0  0  0  0  0  0  0  0
  -37.9901   -9.8142  143.3151 C   0  0  0  0  0  0  0  0  0  0  0  0
  -36.8872   -9.6235  140.3222 C   0  0  0  0  0  0  0  0  0  0  0  0
  -35.6367   -9.9152  139.4787 C   0  0  0  0  0  0  0  0  0  0  0  0
  -37.2008  -12.0823  140.4721 O   0  0  0  0  0  0  0  0  0  0  0  0
  -34.4923  -10.5113  140.3198 C   0  0  0  0  0  0  0  0  0  0  0  0
  -31.7550  -12.8094  136.5078 N   0  0  0  0  0  0  0  0  0  0  0  0
  -34.0065   -8.2145  141.0472 O   0  0  0  0  0  0  0  0  0  0  0  0
  -33.0903  -10.1409  139.8373 C   0  0  0  0  0  0  0  0  0  0  0  0
  -39.2098   -9.8346  143.3423 O   0  0  0  0  0  0  0  0  0  0  0  0
  -32.0265  -11.2333  140.0070 C   0  0  0  0  0  0  0  0  0  0  0  0
  -33.8428  -14.1749  136.5051 C   0  0  0  0  0  0  0  0  0  0  0  0
  -32.1065  -12.2953  138.8933 C   0  0  0  0  0  0  0  0  0  0  0  0
  -30.4097  -10.4788  140.0515 Cl  0  0  0  0  0  0  0  0  0  0  0  0
  -32.9276  -13.2185  135.7150 C   0  0  0  0  0  0  0  0  0  0  0  0
  -32.0440  -11.7261  137.4657 C   0  0  0  0  0  0  0  0  0  0  0  0
  -35.1477  -13.5085  136.9372 C   0  0  0  0  0  0  0  0  0  0  0  0
  -33.6240   -9.5605  141.1435 C   0  0  0  0  0  0  0  0  0  0  0  0
  -32.9418   -7.3522  142.0637 Cl  0  0  0  0  0  0  0  0  0  0  0  0
  3  2  1  0
  4  3  1  0
  5  1  1  0
  5  2  1  0
  6  3  1  0
  7  6  1  0
  8  3  1  0
  8  4  1  0
  9  7  1  0
 12  9  1  0
 13  5  2  0
 14 12  1  0
 16 14  1  0
 17 14  1  0
 18 10  1  0
 18 15  1  0
 19 10  1  0
 19 16  1  0
 20 15  1  0
 21  9  1  0
 21 11  1  0
 21 12  1  0
 22 11  1  0
M  END
$$$$

     RDKit          3D

 23 27  0  0  0  0  0  0  0  0999 V2000
  -16.3771   -4.9498  141.6933 C   0  0  0  0  0  0  0  0  0  0  0  0
  -16.5581   -6.0656  142.7177 C   0  0  0  0  0  0  0  0  0  0  0  0
  -15.3812   -7.0427  142.8232 C   0  0  0  0  0  0  0  0  0  0  0  0
  -15.8719   -8.4124  143.3060 C   0  0  0  0  0  0  0  0  0  0  0  0
  -17.0802   -3.6214  142.0163 C   0  0  0  0  0  0  0  0  0  0  0  0
  -14.6973   -9.3769  143.5840 C   0  0  0  0  0  0  0  0  0  0  0  0
  -16.0951   -2.5879  142.5915 C   0  0  0  0  0  0  0  0  0  0  0  0
  -15.5070   -1.6451  141.5302 C   0  0  0  0  0  0  0  0  0  0  0  0
  -14.5439   -2.3673  140.5781 C   0  0  0  0  0  0  0  0  0  0  0  0
  -14.1673   -1.5316  139.3769 C   0  0  0  0  0  0  0  0  0  0  0  0
  -17.3314   -6.1047  141.4053 C   0  0  0  0  0  0  0  0  0  0  0  0
  -13.9037   -9.3048  144.9036 C   0  0  0  0  0  0  0  0  0  0  0  0
  -14.8126   -0.6438  138.3351 C   0  0  0  0  0  0  0  0  0  0  0  0
  -14.8878   -1.1547  137.0842 C   0  0  0  0  0  0  0  0  0  0  0  0
  -14.5645   -2.6064  136.8896 C   0  0  0  0  0  0  0  0  0  0  0  0
  -14.5489   -3.4100  137.9779 C   0  0  0  0  0  0  0  0  0  0  0  0
  -15.0955   -2.8021  139.2476 C   0  0  0  0  0  0  0  0  0  0  0  0
  -14.2547   -8.2317  145.9398 C   0  0  0  0  0  0  0  0  0  0  0  0
  -13.9298   -9.9496  142.3633 C   0  0  0  0  0  0  0  0  0  0  0  0
  -14.3165  -11.4081  142.0980 C   0  0  0  0  0  0  0  0  0  0  0  0
  -14.0909  -12.2415  143.3269 C   0  0  0  0  0  0  0  0  0  0  0  0
  -14.4030  -11.7690  144.5423 C   0  0  0  0  0  0  0  0  0  0  0  0
  -14.9697  -10.3836  144.7234 C   0  0  0  0  0  0  0  0  0  0  0  0
  2  1  1  0
  3  2  1  0
  4  3  1  0
  5  1  1  0
  6  4  1  0
  7  5  1  0
  8  7  1  0
  9  8  1  0
 10  9  1  0
 11  1  1  0
 11  2  1  0
 12  6  1  0
 13 10  1  0
 14 13  2  0
 15 14  1  0
 16 15  2  0
 17  9  1  0
 17 10  1  0
 17 16  1  0
 18 12  1  0
 19  6  1  0
 20 19  1  0
 21 20  1  0
 22 21  2  0
 23  6  1  0
 23 12  1  0
 23 22  1  0
M  END
$$$$

     RDKit          3D

 24 26  0  0  0  0  0  0  0  0999 V2000
  -22.6949   -0.6384  137.9282 O   0  0  0  0  0  0  0  0  0  0  0  0
  -22.8605   -2.0360  137.9990 C   0  0  0  0  0  0  0  0  0  0  0  0
  -23.2535   -2.5347  136.6095 C   0  0  0  0  0  0  0  0  0  0  0  0
  -24.2750   -2.5724  137.7267 C   0  0  0  0  0  0  0  0  0  0  0  0
  -25.5016   -1.6337  137.6348 C   0  0  0  0  0  0  0  0  0  0  0  0
  -25.8922   -1.4229  138.9644 F   0  0  0  0  0  0  0  0  0  0  0  0
  -21.8020   -0.1089  138.8714 C   0  0  0  0  0  0  0  0  0  0  0  0
  -25.3299   -0.2588  137.0047 C   0  0  0  0  0  0  0  0  0  0  0  0
  -25.9364    0.1814  135.8969 C   0  0  0  0  0  0  0  0  0  0  0  0
  -26.7080   -0.6383  134.8938 C   0  0  0  0  0  0  0  0  0  0  0  0
  -25.7286   -1.1120  133.8087 C   0  0  0  0  0  0  0  0  0  0  0  0
  -25.4653   -2.5998  133.7170 C   0  0  0  0  0  0  0  0  0  0  0  0
  -26.3636   -1.9492  132.6892 C   0  0  0  0  0  0  0  0  0  0  0  0
  -22.6756    0.6668  139.8513 C   0  0  0  0  0  0  0  0  0  0  0  0
  -21.8065   -0.4741  140.3672 C   0  0  0  0  0  0  0  0  0  0  0  0
  -20.5370   -0.0097  141.0836 C   0  0  0  0  0  0  0  0  0  0  0  0
  -20.3781   -0.6779  142.4918 C   0  0  0  0  0  0  0  0  0  0  0  0
  -19.0064   -0.6824  145.4333 N   0  0  0  0  0  0  0  0  0  0  0  0
  -18.8880   -0.9835  146.8645 C   0  0  0  0  0  0  0  0  0  0  0  0
  -19.2564   -2.3288  147.0801 O   0  0  0  0  0  0  0  0  0  0  0  0
  -19.4011    1.5094  143.5919 C   0  0  0  0  0  0  0  0  0  0  0  0
  -17.9709    1.1075  143.1784 C   0  0  0  0  0  0  0  0  0  0  0  0
  -20.4361    0.3435  143.6710 C   0  0  0  0  0  0  0  0  0  0  0  0
  -20.3889   -0.3621  145.0380 C   0  0  0  0  0  0  0  0  0  0  0  0
  2  1  1  0
  3  2  1  0
  4  2  1  0
  4  3  1  0
  5  4  1  0
  6  5  1  0
  7  1  1  0
  8  5  1  0
  9  8  2  3
 10  9  1  0
 11 10  1  0
 12 11  1  0
 13 11  1  0
 13 12  1  0
 14  7  1  0
 15  7  1  0
 15 14  1  0
 16 15  1  0
 17 16  1  0
 19 18  1  0
 20 19  1  0
 22 21  1  0
 23 17  1  0
 23 21  1  0
 24 18  1  0
 24 23  1  0
M  END
$$$$

     RDKit          3D

 11 12  0  0  0  0  0  0  0  0999 V2000
  -24.2629  -25.4598  136.4647 O   0  0  0  0  0  0  0  0  0  0  0  0
  -23.0582  -25.8446  137.0872 C   0  0  0  0  0  0  0  0  0  0  0  0
  -21.9640  -25.4527  134.9514 O   0  0  0  0  0  0  0  0  0  0  0  0
  -24.7975  -23.7475  138.1740 C   0  0  0  0  0  0  0  0  0  0  0  0
  -23.6240  -25.0541  140.0603 C   0  0  0  0  0  0  0  0  0  0  0  0
  -22.2719  -25.5325  140.5124 C   0  0  0  0  0  0  0  0  0  0  0  0
  -23.5011  -24.0024  138.9418 C   0  0  0  0  0  0  0  0  0  0  0  0
  -22.8049  -24.4427  137.6378 C   0  0  0  0  0  0  0  0  0  0  0  0
  -24.0754  -24.1259  136.8837 C   0  0  0  0  0  0  0  0  0  0  0  0
  -22.0145  -26.3115  136.0613 C   0  0  0  0  0  0  0  0  0  0  0  0
  -21.4539  -24.7518  141.1224 N   0  0  0  0  0  0  0  0  0  0  0  0
  2  1  1  0
  6  5  1  0
  7  4  1  0
  7  5  1  0
  8  2  1  0
  8  7  1  0
  9  1  1  0
  9  4  1  0
  9  8  1  0
 10  2  1  0
 10  3  1  0
 11  6  2  0
M  END
$$$$

     RDKit          3D

 24 28  0  0  0  0  0  0  0  0999 V2000
  -32.2767  -13.0713  146.8175 N   0  0  0  0  0  0  0  0  0  0  0  0
  -32.9416  -12.4896  148.0128 C   0  0  0  0  0  0  0  0  0  0  0  0
  -32.3579  -12.3646  145.5100 C   0  0  0  0  0  0  0  0  0  0  0  0
  -33.2575  -13.4858  145.7801 C   0  0  0  0  0  0  0  0  0  0  0  0
  -33.0067  -10.9792  145.4324 C   0  0  0  0  0  0  0  0  0  0  0  0
  -33.1751  -13.5802  149.0043 N   0  0  0  0  0  0  0  0  0  0  0  0
  -32.1768  -14.0244  149.9647 C   0  0  0  0  0  0  0  0  0  0  0  0
  -30.8830  -14.2875  149.6895 C   0  0  0  0  0  0  0  0  0  0  0  0
  -30.3797  -14.3354  148.3074 C   0  0  0  0  0  0  0  0  0  0  0  0
  -32.1074  -11.3534  148.6230 C   0  0  0  0  0  0  0  0  0  0  0  0
  -29.1527  -14.3927  147.7340 C   0  0  0  0  0  0  0  0  0  0  0  0
  -27.7121  -13.9903  148.1190 C   0  0  0  0  0  0  0  0  0  0  0  0
  -27.2480  -12.8970  149.1060 C   0  0  0  0  0  0  0  0  0  0  0  0
  -27.4849  -11.4484  149.4154 C   0  0  0  0  0  0  0  0  0  0  0  0
  -26.9442  -13.9247  146.7623 C   0  0  0  0  0  0  0  0  0  0  0  0
  -26.5712  -13.8863  150.0170 C   0  0  0  0  0  0  0  0  0  0  0  0
  -28.1964  -12.4797  150.2640 C   0  0  0  0  0  0  0  0  0  0  0  0
  -27.4549  -13.4509  151.1740 C   0  0  0  0  0  0  0  0  0  0  0  0
  -26.8282  -12.5218  146.1448 C   0  0  0  0  0  0  0  0  0  0  0  0
  -26.9806  -12.4333  144.6302 C   0  0  0  0  0  0  0  0  0  0  0  0
  -25.5799  -13.2497  146.6464 C   0  0  0  0  0  0  0  0  0  0  0  0
  -34.4468  -14.3338  148.9586 C   0  0  0  0  0  0  0  0  0  0  0  0
  -27.0637  -15.0088  149.0850 C   0  0  0  0  0  0  0  0  0  0  0  0
  -35.6831  -13.4206  149.0453 C   0  0  0  0  0  0  0  0  0  0  0  0
  2  1  1  0
  3  1  1  0
  4  1  1  0
  4  3  1  0
  5  3  1  0
  6  2  1  0
  7  6  1  0
  8  7  2  3
  9  8  1  0
 10  2  1  0
 11  9  2  3
 12 11  1  0
 13 12  1  0
 14 13  1  0
 15 12  1  0
 16 13  1  0
 17 13  1  0
 17 14  1  0
 18 16  1  0
 18 17  1  0
 19 15  1  0
 20 19  1  0
 21 15  1  0
 21 19  1  0
 22  6  1  0
 23 12  1  0
 23 16  1  0
 24 22  1  0
M  END
$$$$

     RDKit          3D

 24 28  0  0  0  0  0  0  0  0999 V2000
  -28.3589   -8.4171  135.8685 O   0  0  0  0  0  0  0  0  0  0  0  0
  -27.3101   -8.0944  134.9970 C   0  0  0  0  0  0  0  0  0  0  0  0
  -26.5410   -9.3159  134.4456 C   0  0  0  0  0  0  0  0  0  0  0  0
  -26.7545  -10.7668  134.9904 C   0  0  0  0  0  0  0  0  0  0  0  0
  -27.6408   -8.6579  133.6226 C   0  0  0  0  0  0  0  0  0  0  0  0
  -27.1373  -11.9833  134.0694 C   0  0  0  0  0  0  0  0  0  0  0  0
  -26.7665  -11.8488  132.5844 C   0  0  0  0  0  0  0  0  0  0  0  0
  -28.2234  -12.0376  132.9786 C   0  0  0  0  0  0  0  0  0  0  0  0
  -29.0139  -10.8353  132.6788 N   0  0  0  0  0  0  0  0  0  0  0  0
  -28.7257   -8.1522  134.5458 C   0  0  0  0  0  0  0  0  0  0  0  0
  -26.9996  -10.9712  136.5362 C   0  0  0  0  0  0  0  0  0  0  0  0
  -29.3314  -12.1866  136.2496 C   0  0  0  0  0  0  0  0  0  0  0  0
  -28.3939  -11.4227  137.1846 C   0  0  0  0  0  0  0  0  0  0  0  0
  -29.1267  -10.3949  138.1024 C   0  0  0  0  0  0  0  0  0  0  0  0
  -30.1621   -9.6741  137.6288 C   0  0  0  0  0  0  0  0  0  0  0  0
  -28.9783  -10.4720  139.6539 C   0  0  0  0  0  0  0  0  0  0  0  0
  -27.4827  -10.3400  140.0578 C   0  0  0  0  0  0  0  0  0  0  0  0
  -27.1197  -10.7708  141.5026 C   0  0  0  0  0  0  0  0  0  0  0  0
  -25.6603  -11.2677  141.5930 C   0  0  0  0  0  0  0  0  0  0  0  0
  -25.6825  -12.9568  143.5004 C   0  0  0  0  0  0  0  0  0  0  0  0
  -24.3117  -13.6746  143.4753 C   0  0  0  0  0  0  0  0  0  0  0  0
  -26.1448  -12.6487  142.0703 C   0  0  0  0  0  0  0  0  0  0  0  0
  -27.6026  -12.1711  141.9359 C   0  0  0  0  0  0  0  0  0  0  0  0
  -24.1584  -14.6966  144.5753 C   0  0  0  0  0  0  0  0  0  0  0  0
  2  1  1  0
  3  2  1  0
  4  3  1  0
  5  2  1  0
  5  3  1  0
  6  4  1  0
  7  6  1  0
  8  6  1  0
  8  7  1  0
  9  8  1  0
 10  1  1  0
 10  2  1  0
 10  5  1  0
 11  4  1  0
 13 11  1  0
 13 12  1  0
 14 13  1  0
 15 14  2  0
 16 14  1  0
 17 16  1  0
 18 17  1  0
 19 18  1  0
 21 20  1  0
 22 19  1  0
 22 20  1  0
 23 18  1  0
 23 22  1  0
 24 21  1  0
M  END
$$$$

     RDKit          3D

 24 27  0  0  0  0  0  0  0  0999 V2000
  -25.3026  -14.6471  138.6175 O   0  0  0  0  0  0  0  0  0  0  0  0
  -24.0845  -14.5083  138.9179 C   0  0  0  0  0  0  0  0  0  0  0  0
  -23.6774  -13.4121  139.6839 O   0  0  0  0  0  0  0  0  0  0  0  0
  -23.0688  -15.5475  138.5295 C   0  0  0  0  0  0  0  0  0  0  0  0
  -23.0734  -16.0100  137.0451 C   0  0  0  0  0  0  0  0  0  0  0  0
  -23.8497  -15.1193  136.0659 C   0  0  0  0  0  0  0  0  0  0  0  0
  -23.4483  -13.8364  135.9466 C   0  0  0  0  0  0  0  0  0  0  0  0
  -24.1621  -12.7709  135.1349 C   0  0  0  0  0  0  0  0  0  0  0  0
  -24.9650  -15.7285  135.2062 C   0  0  0  0  0  0  0  0  0  0  0  0
  -23.5134  -11.3908  135.2985 C   0  0  0  0  0  0  0  0  0  0  0  0
  -24.5569  -17.0170  134.4867 C   0  0  0  0  0  0  0  0  0  0  0  0
  -26.5231  -18.5629  134.2604 C   0  0  0  0  0  0  0  0  0  0  0  0
  -25.6389  -17.7848  135.2460 C   0  0  0  0  0  0  0  0  0  0  0  0
  -23.2098  -10.7601  134.0023 N   0  0  0  0  0  0  0  0  0  0  0  0
  -24.7818  -10.8457  135.9539 C   0  0  0  0  0  0  0  0  0  0  0  0
  -25.4322  -12.2197  135.8159 C   0  0  0  0  0  0  0  0  0  0  0  0
  -26.0677  -16.4838  135.9767 C   0  0  0  0  0  0  0  0  0  0  0  0
  -27.4163  -15.7133  135.8420 C   0  0  0  0  0  0  0  0  0  0  0  0
  -28.8328  -16.2324  136.0826 C   0  0  0  0  0  0  0  0  0  0  0  0
  -29.0145  -17.6863  136.5909 C   0  0  0  0  0  0  0  0  0  0  0  0
  -28.1570  -18.0618  137.8044 C   0  0  0  0  0  0  0  0  0  0  0  0
  -29.7385  -16.0192  134.8784 C   0  0  0  0  0  0  0  0  0  0  0  0
  -28.7602  -19.2429  138.5614 C   0  0  0  0  0  0  0  0  0  0  0  0
  -28.2403  -16.0774  134.6294 C   0  0  0  0  0  0  0  0  0  0  0  0
  2  1  2  0
  3  2  1  0
  4  2  1  0
  5  4  1  0
  6  5  1  0
  7  6  2  3
  8  7  1  0
  9  6  1  0
 10  8  1  0
 11  9  1  0
 13 11  1  0
 13 12  1  0
 14 10  1  0
 15 10  1  0
 16  8  1  0
 16 15  1  0
 17  9  1  0
 17 13  1  0
 18 17  1  0
 19 18  1  0
 20 19  1  0
 21 20  1  0
 22 19  1  0
 23 21  1  0
 24 18  1  0
 24 19  1  0
 24 22  1  0
M  END
$$$$

     RDKit          3D

 24 29  0  0  0  0  0  0  0  0999 V2000
  -18.8302   -5.2614  140.4628 C   0  0  0  0  0  0  0  0  0  0  0  0
  -19.1992   -3.8201  140.7188 C   0  0  0  0  0  0  0  0  0  0  0  0
  -20.6344   -3.7052  141.2413 C   0  0  0  0  0  0  0  0  0  0  0  0
  -21.7307   -3.1697  140.3081 C   0  0  0  0  0  0  0  0  0  0  0  0
  -19.6123   -5.7396  139.2358 C   0  0  0  0  0  0  0  0  0  0  0  0
  -21.4279   -2.6642  138.8823 C   0  0  0  0  0  0  0  0  0  0  0  0
  -21.1406   -5.7475  139.5830 C   0  0  0  0  0  0  0  0  0  0  0  0
  -18.1144   -3.3944  141.6744 C   0  0  0  0  0  0  0  0  0  0  0  0
  -17.3768   -5.2519  140.2942 N   0  0  0  0  0  0  0  0  0  0  0  0
  -19.1239   -7.1264  138.7886 C   0  0  0  0  0  0  0  0  0  0  0  0
  -20.9961   -1.5068  137.8643 C   0  0  0  0  0  0  0  0  0  0  0  0
  -21.6529   -4.6766  140.6045 C   0  0  0  0  0  0  0  0  0  0  0  0
  -19.4904   -1.1526  137.6209 C   0  0  0  0  0  0  0  0  0  0  0  0
  -21.1397   -1.2274  139.3039 C   0  0  0  0  0  0  0  0  0  0  0  0
  -22.0231   -5.7914  138.3259 C   0  0  0  0  0  0  0  0  0  0  0  0
  -16.8953   -4.1849  141.1897 C   0  0  0  0  0  0  0  0  0  0  0  0
  -20.0942   -2.2853  136.8727 C   0  0  0  0  0  0  0  0  0  0  0  0
  -20.4616   -1.9775  135.4095 C   0  0  0  0  0  0  0  0  0  0  0  0
  -19.5545   -1.1901  133.1997 C   0  0  0  0  0  0  0  0  0  0  0  0
  -19.4545    0.3109  133.4234 C   0  0  0  0  0  0  0  0  0  0  0  0
  -19.2342   -1.9914  134.4730 C   0  0  0  0  0  0  0  0  0  0  0  0
  -21.4604    1.8634  133.5807 C   0  0  0  0  0  0  0  0  0  0  0  0
  -18.3991   -0.4086  132.5726 C   0  0  0  0  0  0  0  0  0  0  0  0
  -20.4575    1.1819  132.6285 C   0  0  0  0  0  0  0  0  0  0  0  0
  2  1  1  0
  3  2  1  0
  4  3  1  0
  5  1  1  0
  6  4  1  0
  7  5  1  0
  8  2  1  0
  9  1  1  0
 10  5  1  0
 11  6  1  0
 12  3  1  0
 12  4  1  0
 12  7  1  0
 13 11  1  0
 14  6  1  0
 14 11  1  0
 15  7  1  0
 16  8  1  0
 16  9  1  0
 17 11  1  0
 17 13  1  0
 18 17  1  0
 20 19  1  0
 21 18  1  0
 21 19  1  0
 23 19  1  0
 23 20  1  0
 24 20  1  0
 24 22  1  0
M  END
$$$$

     RDKit          3D

 24 30  0  0  0  0  0  0  0  0999 V2000
  -26.6716  -14.0694  138.8148 O   0  0  0  0  0  0  0  0  0  0  0  0
  -27.0525  -13.0632  139.7210 C   0  0  0  0  0  0  0  0  0  0  0  0
  -27.9325  -13.6373  140.8605 C   0  0  0  0  0  0  0  0  0  0  0  0
  -29.1228  -14.4242  140.2673 C   0  0  0  0  0  0  0  0  0  0  0  0
  -25.8004  -12.3159  140.2563 C   0  0  0  0  0  0  0  0  0  0  0  0
  -28.4496  -12.4829  141.7577 C   0  0  0  0  0  0  0  0  0  0  0  0
  -30.0549  -15.3096  141.0843 C   0  0  0  0  0  0  0  0  0  0  0  0
  -25.4006  -12.8117  142.7728 C   0  0  0  0  0  0  0  0  0  0  0  0
  -29.8712  -15.3999  142.6664 C   0  0  0  0  0  0  0  0  0  0  0  0
  -29.4952  -16.6802  143.5340 C   0  0  0  0  0  0  0  0  0  0  0  0
  -27.4032  -11.3757  142.0262 C   0  0  0  0  0  0  0  0  0  0  0  0
  -30.9233  -16.3569  143.2083 C   0  0  0  0  0  0  0  0  0  0  0  0
  -30.3622  -16.5724  140.2991 C   0  0  0  0  0  0  0  0  0  0  0  0
  -24.3577  -11.7739  143.1879 C   0  0  0  0  0  0  0  0  0  0  0  0
  -30.5858  -17.8212  141.1379 C   0  0  0  0  0  0  0  0  0  0  0  0
  -31.5046  -17.4713  142.3162 C   0  0  0  0  0  0  0  0  0  0  0  0
  -22.9066  -12.2357  142.9394 C   0  0  0  0  0  0  0  0  0  0  0  0
  -25.9609  -11.8338  141.7237 C   0  0  0  0  0  0  0  0  0  0  0  0
  -24.9006  -10.8011  142.1369 C   0  0  0  0  0  0  0  0  0  0  0  0
  -21.8008  -10.6262  144.6502 C   0  0  0  0  0  0  0  0  0  0  0  0
  -28.4532  -15.6943  143.1240 C   0  0  0  0  0  0  0  0  0  0  0  0
  -21.3853  -11.7092  145.6452 C   0  0  0  0  0  0  0  0  0  0  0  0
  -28.9587  -15.9566  140.2233 C   0  0  0  0  0  0  0  0  0  0  0  0
  -21.8631  -11.1324  143.1976 C   0  0  0  0  0  0  0  0  0  0  0  0
  2  1  1  0
  3  2  1  0
  4  3  1  0
  5  2  1  0
  6  3  1  0
  7  4  1  0
  9  7  1  0
 10  9  1  0
 11  6  1  0
 12  9  1  0
 12 10  1  0
 13  7  1  0
 14  8  1  0
 15 13  1  0
 16 12  1  0
 16 15  1  0
 17 14  1  0
 18  5  1  0
 18  8  1  0
 18 11  1  0
 19 14  1  0
 19 18  1  0
 21  9  1  0
 21 10  1  0
 22 20  1  0
 23  4  1  0
 23  7  1  0
 23 13  1  0
 24 17  1  0
 24 20  1  0
M  END
$$$$

     RDKit          3D

 23 26  0  0  0  0  0  0  0  0999 V2000
  -23.5776  -15.0637  141.9995 C   0  0  0  0  0  0  0  0  0  0  0  0
  -23.5690  -13.5981  141.8210 N   0  0  0  0  0  0  0  0  0  0  0  0
  -24.8659  -13.1016  142.3248 C   0  0  0  0  0  0  0  0  0  0  0  0
  -24.7278  -12.2982  143.5673 N   0  0  0  0  0  0  0  0  0  0  0  0
  -22.3556  -15.4662  142.5526 O   0  0  0  0  0  0  0  0  0  0  0  0
  -25.2334  -16.8451  142.9655 C   0  0  0  0  0  0  0  0  0  0  0  0
  -26.3465  -17.1577  141.9615 C   0  0  0  0  0  0  0  0  0  0  0  0
  -23.4436  -12.4258  144.2845 C   0  0  0  0  0  0  0  0  0  0  0  0
  -24.7325  -15.3840  142.9495 C   0  0  0  0  0  0  0  0  0  0  0  0
  -25.7417  -14.3385  142.5237 C   0  0  0  0  0  0  0  0  0  0  0  0
  -23.5838  -11.9617  145.7557 C   0  0  0  0  0  0  0  0  0  0  0  0
  -27.5781  -16.3691  142.1666 N   0  0  0  0  0  0  0  0  0  0  0  0
  -23.4723  -10.4296  145.8919 C   0  0  0  0  0  0  0  0  0  0  0  0
  -24.8812  -12.4772  146.3928 C   0  0  0  0  0  0  0  0  0  0  0  0
  -26.9474  -14.2573  143.4748 C   0  0  0  0  0  0  0  0  0  0  0  0
  -28.6498  -16.3663  141.2343 C   0  0  0  0  0  0  0  0  0  0  0  0
  -28.7139  -17.0699  140.0272 C   0  0  0  0  0  0  0  0  0  0  0  0
  -29.8614  -16.9069  139.2337 C   0  0  0  0  0  0  0  0  0  0  0  0
  -29.6757  -15.5687  141.6582 C   0  0  0  0  0  0  0  0  0  0  0  0
  -30.9267  -16.0927  139.6668 C   0  0  0  0  0  0  0  0  0  0  0  0
  -30.8406  -15.4261  140.9077 C   0  0  0  0  0  0  0  0  0  0  0  0
  -29.3846  -15.0017  143.0071 C   0  0  0  0  0  0  0  0  0  0  0  0
  -27.9314  -15.4733  143.2983 C   0  0  0  0  0  0  0  0  0  0  0  0
  2  1  1  0
  3  2  1  0
  4  3  1  0
  5  1  1  0
  7  6  1  0
  8  4  1  0
  9  1  1  0
  9  6  1  0
 10  3  1  0
 10  9  1  0
 11  8  1  0
 12  7  1  0
 13 11  1  0
 14 11  1  0
 15 10  1  0
 16 12  1  0
 17 16  4  0
 18 17  4  0
 19 16  4  0
 20 18  4  0
 21 19  4  0
 21 20  4  0
 22 19  1  0
 23 12  1  0
 23 15  1  0
 23 22  1  0
M  END
$$$$

     RDKit          3D

 24 26  0  0  0  0  0  0  0  0999 V2000
  -20.8212   -3.0128  141.8154 C   0  0  0  0  0  0  0  0  0  0  0  0
  -19.8873   -3.0405  140.5151 C   0  0  0  0  0  0  0  0  0  0  0  0
  -19.6001   -4.4562  139.8622 C   0  0  0  0  0  0  0  0  0  0  0  0
  -23.2569   -1.1837  141.0905 C   0  0  0  0  0  0  0  0  0  0  0  0
  -22.6525    0.1521  141.2813 C   0  0  0  0  0  0  0  0  0  0  0  0
  -22.1367   -2.8672  139.9732 N   0  0  0  0  0  0  0  0  0  0  0  0
  -19.0980   -5.5798  140.8353 C   0  0  0  0  0  0  0  0  0  0  0  0
  -22.3369   -2.5223  141.3561 C   0  0  0  0  0  0  0  0  0  0  0  0
  -24.3029   -1.3110  139.8087 C   0  0  0  0  0  0  0  0  0  0  0  0
  -20.8837   -2.2584  139.6666 C   0  0  0  0  0  0  0  0  0  0  0  0
  -19.9265   -6.9129  140.7469 C   0  0  0  0  0  0  0  0  0  0  0  0
  -19.7551   -7.9576  139.5685 C   0  0  0  0  0  0  0  0  0  0  0  0
  -19.0254   -7.4834  138.3265 C   0  0  0  0  0  0  0  0  0  0  0  0
  -17.3716   -8.3154  136.3559 C   0  0  0  0  0  0  0  0  0  0  0  0
  -17.0902   -9.6048  135.5078 C   0  0  0  0  0  0  0  0  0  0  0  0
  -15.6576  -10.1568  135.8073 C   0  0  0  0  0  0  0  0  0  0  0  0
  -15.9340   -8.7749  135.9742 C   0  0  0  0  0  0  0  0  0  0  0  0
  -20.7156   -1.7726  138.2756 C   0  0  0  0  0  0  0  0  0  0  0  0
  -18.9681   -0.1190  137.0885 C   0  0  0  0  0  0  0  0  0  0  0  0
  -19.3641   -1.1234  138.2253 C   0  0  0  0  0  0  0  0  0  0  0  0
  -23.3033   -2.3747  141.5064 Se  0  0  0  0  0  2  0  0  0  0  0  0
  -18.3289   -8.7262  137.5817 C   0  0  0  0  0  0  0  0  0  0  0  0
  -21.2203   -8.2933  139.1286 C   0  0  0  0  0  0  0  0  0  0  0  0
  -22.1588   -8.7617  139.8973 C   0  0  0  0  0  0  0  0  0  0  0  0
  2  1  1  0
  3  2  1  0
  5  4  1  0
  7  3  1  0
  8  1  1  0
  8  4  1  0
  8  6  1  0
  9  4  1  0
 10  2  1  0
 10  6  1  0
 11  7  1  0
 12 11  1  0
 13 12  1  0
 15 14  1  0
 16 15  1  0
 17 14  1  0
 17 15  1  0
 17 16  1  0
 18 10  1  0
 20 18  1  0
 20 19  1  0
 21 20  2  0
 22 13  1  0
 22 14  1  0
 23 12  1  0
 24 23  2  0
M  END
$$$$

     RDKit          3D

 24 28  0  0  0  0  0  0  0  0999 V2000
  -32.3782   -9.7871  144.2258 C   0  0  0  0  0  0  0  0  0  0  0  0
  -30.9083  -10.3120  144.3406 C   0  0  0  0  0  0  0  0  0  0  0  0
  -32.8945   -8.2817  144.2252 C   0  0  0  0  0  0  0  0  0  0  0  0
  -29.7036   -9.4304  143.8946 C   0  0  0  0  0  0  0  0  0  0  0  0
  -30.5851  -11.0606  145.6465 C   0  0  0  0  0  0  0  0  0  0  0  0
  -30.0489   -8.3671  142.8576 C   0  0  0  0  0  0  0  0  0  0  0  0
  -28.3282   -5.4185  141.3901 C   0  0  0  0  0  0  0  0  0  0  0  0
  -27.2614   -6.2864  140.5648 C   0  0  0  0  0  0  0  0  0  0  0  0
  -31.7000  -10.0174  145.6288 C   0  0  0  0  0  0  0  0  0  0  0  0
  -29.4237   -6.9248  143.1769 C   0  0  0  0  0  0  0  0  0  0  0  0
  -29.6799   -6.1502  144.5029 C   0  0  0  0  0  0  0  0  0  0  0  0
  -27.6451   -7.7948  140.5750 C   0  0  0  0  0  0  0  0  0  0  0  0
  -26.7207   -8.7083  139.8830 C   0  0  0  0  0  0  0  0  0  0  0  0
  -26.5830   -8.7846  138.5701 C   0  0  0  0  0  0  0  0  0  0  0  0
  -33.5725   -7.7467  142.8291 C   0  0  0  0  0  0  0  0  0  0  0  0
  -34.7834   -6.8409  142.2144 C   0  0  0  0  0  0  0  0  0  0  0  0
  -29.6290   -5.9931  141.9826 C   0  0  0  0  0  0  0  0  0  0  0  0
  -29.9099   -7.0014  145.5859 F   0  0  0  0  0  0  0  0  0  0  0  0
  -26.8556   -7.7135  137.5024 C   0  0  0  0  0  0  0  0  0  0  0  0
  -27.6433   -6.4417  137.9843 C   0  0  0  0  0  0  0  0  0  0  0  0
  -34.5682   -5.3943  142.9629 C   0  0  0  0  0  0  0  0  0  0  0  0
  -26.9490   -5.6632  139.1411 C   0  0  0  0  0  0  0  0  0  0  0  0
  -33.1782   -4.8523  143.4198 C   0  0  0  0  0  0  0  0  0  0  0  0
  -34.5392   -6.7602  143.6459 C   0  0  0  0  0  0  0  0  0  0  0  0
  2  1  1  0
  3  1  1  0
  4  2  1  0
  5  2  1  0
  6  4  1  0
  8  7  1  0
  9  1  1  0
  9  2  1  0
  9  5  1  0
 10  6  1  0
 11 10  1  0
 12  8  1  0
 13 12  1  0
 14 13  2  0
 15  3  1  0
 16 15  1  0
 17  7  1  0
 17 10  1  0
 18 11  1  0
 19 14  1  0
 20 19  1  0
 21 16  1  0
 22  8  1  0
 22 20  1  0
 23 21  1  0
 24 15  1  0
 24 16  1  0
 24 21  1  0
M  END
$$$$

     RDKit          3D

 15 14  0  0  0  0  0  0  0  0999 V2000
  -32.1161   -7.8148  146.5670 F   0  0  0  0  0  0  0  0  0  0  0  0
  -30.0578   -6.3770  145.5189 C   0  0  0  0  0  0  0  0  0  0  0  0
  -29.9102   -7.6116  148.3532 F   0  0  0  0  0  0  0  0  0  0  0  0
  -31.1481   -7.0570  148.6252 C   0  0  0  0  0  0  0  0  0  0  0  0
  -31.9609   -8.0715  149.4363 C   0  0  0  0  0  0  0  0  0  0  0  0
  -31.8721   -6.6693  147.3112 C   0  0  0  0  0  0  0  0  0  0  0  0
  -31.9400   -4.6645  145.6248 C   0  0  0  0  0  0  0  0  0  0  0  0
  -31.2866   -8.3881  150.6020 F   0  0  0  0  0  0  0  0  0  0  0  0
  -30.9628   -5.9241  149.4013 F   0  0  0  0  0  0  0  0  0  0  0  0
  -33.0222   -5.3508  145.0949 F   0  0  0  0  0  0  0  0  0  0  0  0
  -31.2129   -4.1387  144.5659 F   0  0  0  0  0  0  0  0  0  0  0  0
  -33.1043   -6.1389  147.6556 F   0  0  0  0  0  0  0  0  0  0  0  0
  -31.0456   -5.6437  146.4532 C   0  0  0  0  0  0  0  0  0  0  0  0
  -32.4331   -3.4747  146.4778 C   0  0  0  0  0  0  0  0  0  0  0  0
  -33.3462   -2.5394  145.6854 C   0  0  0  0  0  0  0  0  0  0  0  0
  4  3  1  0
  5  4  1  0
  6  1  1  0
  6  4  1  0
  8  5  1  0
  9  4  1  0
 10  7  1  0
 11  7  1  0
 12  6  1  0
 13  2  1  0
 13  6  1  0
 13  7  1  0
 14  7  1  0
 15 14  1  0
M  END
$$$$

     RDKit          3D

 24 31  0  0  0  0  0  0  0  0999 V2000
  -29.5204  -23.7409  137.3860 O   0  0  0  0  0  0  0  0  0  0  0  0
  -28.3166  -23.2997  136.7823 C   0  0  0  0  0  0  0  0  0  0  0  0
  -28.1558  -21.7741  136.8932 C   0  0  0  0  0  0  0  0  0  0  0  0
  -26.7753  -23.2830  134.7300 C   0  0  0  0  0  0  0  0  0  0  0  0
  -25.8258  -22.7206  135.6052 O   0  0  0  0  0  0  0  0  0  0  0  0
  -28.8351  -20.6516  136.0970 C   0  0  0  0  0  0  0  0  0  0  0  0
  -30.3015  -20.8103  136.5689 C   0  0  0  0  0  0  0  0  0  0  0  0
  -28.2269  -23.2217  135.2757 C   0  0  0  0  0  0  0  0  0  0  0  0
  -28.0664  -21.7341  135.3464 C   0  0  0  0  0  0  0  0  0  0  0  0
  -26.6268  -21.7985  134.9095 C   0  0  0  0  0  0  0  0  0  0  0  0
  -29.0411  -26.0320  136.9990 C   0  0  0  0  0  0  0  0  0  0  0  0
  -29.2399  -27.2339  136.0491 C   0  0  0  0  0  0  0  0  0  0  0  0
  -30.0012  -24.9048  136.8186 N   0  0  0  0  0  0  0  0  0  0  0  0
  -31.2350  -25.1978  137.6035 C   0  0  0  0  0  0  0  0  0  0  0  0
  -32.5115  -24.6052  136.9615 C   0  0  0  0  0  0  0  0  0  0  0  0
  -30.5191  -27.4819  135.2634 C   0  0  0  0  0  0  0  0  0  0  0  0
  -33.4667  -23.8006  137.8946 C   0  0  0  0  0  0  0  0  0  0  0  0
  -31.5414  -26.5631  135.1382 F   0  0  0  0  0  0  0  0  0  0  0  0
  -29.2861  -26.8695  134.5786 C   0  0  0  0  0  0  0  0  0  0  0  0
  -33.7111  -24.3721  139.3106 C   0  0  0  0  0  0  0  0  0  0  0  0
  -29.2107  -27.9703  133.6106 N   0  0  0  0  0  0  0  0  0  0  0  0
  -31.1814  -19.7851  135.8748 C   0  0  0  0  0  0  0  0  0  0  0  0
  -30.0550  -20.4656  135.1423 C   0  0  0  0  0  0  0  0  0  0  0  0
  -30.4268  -28.5430  134.1971 C   0  0  0  0  0  0  0  0  0  0  0  0
  2  1  1  0
  3  2  1  0
  5  4  1  0
  6  3  1  0
  7  6  1  0
  8  2  1  0
  8  4  1  0
  9  3  1  0
  9  6  1  0
  9  8  1  0
 10  4  1  0
 10  5  1  0
 10  9  1  0
 12 11  1  0
 13  1  1  0
 13 11  1  0
 14 13  1  0
 15 14  1  0
 16 12  1  0
 17 15  1  0
 18 16  1  0
 19 12  1  0
 19 16  1  0
 20 17  1  0
 21 19  1  0
 22  7  1  0
 23  6  1  0
 23  7  1  0
 23 22  1  0
 24 16  1  0
 24 21  1  0
M  END
$$$$

     RDKit          3D

  9  9  0  0  0  0  0  0  0  0999 V2000
  -28.6752   -0.7674  131.7666 O   0  0  0  0  0  0  0  0  0  0  0  0
  -26.4436   -2.2215  132.1213 P   0  0  0  0  0  0  0  0  0  0  0  0
  -27.1575    0.1242  133.2182 O   0  0  0  0  0  0  0  0  0  0  0  0
  -26.5530   -0.1537  134.3921 O   0  0  0  0  0  0  0  0  0  0  0  0
  -27.0836   -4.1264  133.2009 Br  0  0  0  0  0  0  0  0  0  0  0  0
  -25.4899   -1.0585  134.4711 C   0  0  0  0  0  0  0  0  0  0  0  0
  -25.0097   -1.7510  133.2274 C   0  0  0  0  0  0  0  0  0  0  0  0
  -24.9097   -1.2778  135.6471 C   0  0  0  0  0  0  0  0  0  0  0  0
  -27.7651   -1.0672  132.7847 C   0  0  0  0  0  0  0  0  0  0  0  0
  4  3  1  0
  5  2  1  0
  6  4  1  0
  7  2  1  0
  7  6  1  0
  8  6  2  0
  9  1  1  0
  9  2  1  0
  9  3  1  0
M  END
$$$$

     RDKit          3D

 24 26  0  0  0  0  0  0  0  0999 V2000
  -23.6054  -18.4771  143.4718 O   0  0  0  0  0  0  0  0  0  0  0  0
  -24.9665  -18.1323  143.5448 C   0  0  0  0  0  0  0  0  0  0  0  0
  -25.8541  -19.0544  144.1269 O   0  0  0  0  0  0  0  0  0  0  0  0
  -25.3288  -16.6842  143.7769 C   0  0  0  0  0  0  0  0  0  0  0  0
  -24.0841  -15.7658  143.8158 C   0  0  0  0  0  0  0  0  0  0  0  0
  -26.3634  -16.1896  142.7815 C   0  0  0  0  0  0  0  0  0  0  0  0
  -26.0509  -15.0262  142.0679 O   0  0  0  0  0  0  0  0  0  0  0  0
  -25.4824  -17.3422  142.3598 C   0  0  0  0  0  0  0  0  0  0  0  0
  -23.1502  -15.7689  145.0373 C   0  0  0  0  0  0  0  0  0  0  0  0
  -23.3884  -16.8456  146.1172 C   0  0  0  0  0  0  0  0  0  0  0  0
  -24.1317  -14.6029  144.8224 C   0  0  0  0  0  0  0  0  0  0  0  0
  -22.8463  -16.3810  147.4793 C   0  0  0  0  0  0  0  0  0  0  0  0
  -25.2777  -14.4374  145.8595 C   0  0  0  0  0  0  0  0  0  0  0  0
  -23.3309  -17.2289  148.6800 C   0  0  0  0  0  0  0  0  0  0  0  0
  -24.8055  -16.9638  149.0175 C   0  0  0  0  0  0  0  0  0  0  0  0
  -26.4789  -13.7037  145.2893 C   0  0  0  0  0  0  0  0  0  0  0  0
  -26.4076  -12.3911  144.9207 C   0  0  0  0  0  0  0  0  0  0  0  0
  -27.7910  -14.4620  145.2494 C   0  0  0  0  0  0  0  0  0  0  0  0
  -23.0698  -18.7323  148.4895 C   0  0  0  0  0  0  0  0  0  0  0  0
  -25.2594  -11.6235  145.1699 O   0  0  0  0  0  0  0  0  0  0  0  0
  -27.5878  -11.6595  144.2935 C   0  0  0  0  0  0  0  0  0  0  0  0
  -27.1008  -10.5883  143.3018 C   0  0  0  0  0  0  0  0  0  0  0  0
  -28.4742  -11.0282  145.3947 C   0  0  0  0  0  0  0  0  0  0  0  0
  -29.9132  -10.8093  144.9236 C   0  0  0  0  0  0  0  0  0  0  0  0
  2  1  1  0
  3  2  1  0
  4  2  1  0
  5  4  1  0
  6  4  1  0
  7  6  1  0
  8  2  1  0
  8  4  1  0
  8  6  1  0
  9  5  1  0
 10  9  1  0
 11  5  1  0
 11  9  1  0
 12 10  1  0
 13 11  1  0
 14 12  1  0
 15 14  1  0
 16 13  1  0
 17 16  2  3
 18 16  1  0
 19 14  1  0
 20 17  1  0
 21 17  1  0
 22 21  1  0
 23 21  1  0
 24 23  1  0
M  END
$$$$

     RDKit          3D

 23 27  0  0  0  0  0  0  0  0999 V2000
  -31.6125   -8.2222  135.5513 C   0  0  0  0  0  0  0  0  0  0  0  0
  -30.2427   -9.2686  137.4013 C   0  0  0  0  0  0  0  0  0  0  0  0
  -32.7487   -7.9174  136.3204 O   0  0  0  0  0  0  0  0  0  0  0  0
  -29.2112   -9.7249  138.3662 C   0  0  0  0  0  0  0  0  0  0  0  0
  -26.6978   -9.9171  138.5038 N   0  0  0  0  0  0  0  0  0  0  0  0
  -30.3287   -8.0725  136.4075 C   0  0  0  0  0  0  0  0  0  0  0  0
  -28.9747   -7.8702  135.6654 C   0  0  0  0  0  0  0  0  0  0  0  0
  -26.5203   -9.9792  137.0447 C   0  0  0  0  0  0  0  0  0  0  0  0
  -29.0638   -6.7604  134.6283 C   0  0  0  0  0  0  0  0  0  0  0  0
  -30.4237   -9.0165  138.8641 N   0  0  0  0  0  0  0  0  0  0  0  0
  -30.1945   -7.6720  139.4884 C   0  0  0  0  0  0  0  0  0  0  0  0
  -25.8191   -8.8514  136.6028 O   0  0  0  0  0  0  0  0  0  0  0  0
  -27.8943   -9.1787  138.9631 C   0  0  0  0  0  0  0  0  0  0  0  0
  -28.9362   -6.8137  139.0545 C   0  0  0  0  0  0  0  0  0  0  0  0
  -29.2895   -7.2826  133.2209 C   0  0  0  0  0  0  0  0  0  0  0  0
  -31.5324   -6.9041  139.4846 C   0  0  0  0  0  0  0  0  0  0  0  0
  -28.5119   -8.1263  134.2216 C   0  0  0  0  0  0  0  0  0  0  0  0
  -28.7459   -5.5355  139.9480 C   0  0  0  0  0  0  0  0  0  0  0  0
  -27.9920   -5.8677  134.7026 O   0  0  0  0  0  0  0  0  0  0  0  0
  -27.3927   -4.9742  139.8129 N   0  0  0  0  0  0  0  0  0  0  0  0
  -29.9173   -4.2502  139.4811 Cl  0  0  0  0  0  0  0  0  0  0  0  0
  -29.4084   -8.7959  133.2007 C   0  0  0  0  0  0  0  0  0  0  0  0
  -27.6528   -7.6705  139.0211 C   0  0  0  0  0  0  0  0  0  0  0  0
  3  1  1  0
  4  2  1  0
  6  1  1  0
  6  2  1  0
  7  6  1  0
  8  5  1  0
  9  7  1  0
 10  2  1  0
 10  4  1  0
 11 10  1  0
 12  8  1  0
 13  4  1  0
 13  5  1  0
 14 11  1  0
 15  9  1  0
 16 11  1  0
 17  7  1  0
 17  9  1  0
 17 15  1  0
 18 14  1  0
 19  9  1  0
 20 18  1  0
 21 18  1  0
 22 15  1  0
 22 17  1  0
 23 13  1  0
 23 14  1  0
M  END
$$$$

     RDKit          3D

 23 26  0  0  0  0  0  0  0  0999 V2000
  -25.5380  -10.8542  133.3455 O   0  0  0  0  0  0  0  0  0  0  0  0
  -24.1876   -9.1250  133.4319 C   0  0  0  0  0  0  0  0  0  0  0  0
  -24.7474  -10.1904  134.1606 O   0  0  0  0  0  0  0  0  0  0  0  0
  -25.9159   -7.7464  134.7422 C   0  0  0  0  0  0  0  0  0  0  0  0
  -24.4360   -6.4810  133.1330 C   0  0  0  0  0  0  0  0  0  0  0  0
  -16.9787   -5.0370  132.8753 C   0  0  0  0  0  0  0  0  0  0  0  0
  -25.1329   -7.8732  133.3996 C   0  0  0  0  0  0  0  0  0  0  0  0
  -16.2464   -6.3945  132.9953 C   0  0  0  0  0  0  0  0  0  0  0  0
  -23.0486   -6.4406  133.6229 N   0  0  0  0  0  0  0  0  0  0  0  0
  -22.0686   -6.8394  132.5799 C   0  0  0  0  0  0  0  0  0  0  0  0
  -23.3438   -6.2642  132.1508 C   0  0  0  0  0  0  0  0  0  0  0  0
  -18.1971   -4.6672  133.7583 C   0  0  0  0  0  0  0  0  0  0  0  0
  -19.7458   -6.7518  133.6624 C   0  0  0  0  0  0  0  0  0  0  0  0
  -15.1519   -6.4485  131.8859 C   0  0  0  0  0  0  0  0  0  0  0  0
  -17.7350   -3.4691  134.6086 C   0  0  0  0  0  0  0  0  0  0  0  0
  -20.7860   -6.0228  132.7691 C   0  0  0  0  0  0  0  0  0  0  0  0
  -15.9212   -3.9753  133.1905 C   0  0  0  0  0  0  0  0  0  0  0  0
  -26.4656   -8.1364  132.0032 Br  0  0  0  0  0  0  0  0  0  0  0  0
  -18.8864   -5.7969  134.5459 C   0  0  0  0  0  0  0  0  0  0  0  0
  -15.0623   -3.7972  131.9382 C   0  0  0  0  0  0  0  0  0  0  0  0
  -23.2636   -4.7888  131.6998 C   0  0  0  0  0  0  0  0  0  0  0  0
  -16.6917   -2.7878  133.7281 C   0  0  0  0  0  0  0  0  0  0  0  0
  -14.3213   -5.1295  131.6604 C   0  0  0  0  0  0  0  0  0  0  0  0
  3  1  1  0
  3  2  1  0
  7  2  1  0
  7  4  1  0
  7  5  1  0
  8  6  1  0
  9  5  1  0
 10  9  1  0
 11  5  1  0
 11  9  1  0
 11 10  1  0
 12  6  1  0
 14  8  1  0
 15 12  1  0
 16 10  1  0
 16 13  1  0
 17  6  1  0
 18  7  1  0
 19 12  1  0
 19 13  1  0
 20 17  1  0
 21 11  1  0
 22 15  1  0
 22 17  1  0
 23 14  1  0
 23 20  1  0
M  END
$$$$

     RDKit          3D

 24 30  0  0  0  0  0  0  0  0999 V2000
  -35.8160   -5.5941  148.3580 O   0  0  0  0  0  0  0  0  0  0  0  0
  -35.6566   -7.9361  147.1619 C   0  0  0  0  0  0  0  0  0  0  0  0
  -34.8294   -7.6821  145.9007 O   0  0  0  0  0  0  0  0  0  0  0  0
  -35.0077   -4.7264  147.4449 C   0  0  0  0  0  0  0  0  0  0  0  0
  -34.0228   -5.8811  147.2915 C   0  0  0  0  0  0  0  0  0  0  0  0
  -34.9561   -6.7808  148.1477 C   0  0  0  0  0  0  0  0  0  0  0  0
  -27.8027   -6.6878  151.3070 O   0  0  0  0  0  0  0  0  0  0  0  0
  -26.9975   -5.6763  150.5774 C   0  0  0  0  0  0  0  0  0  0  0  0
  -25.8094   -6.3295  149.7914 C   0  0  0  0  0  0  0  0  0  0  0  0
  -24.6984   -6.8572  150.6181 C   0  0  0  0  0  0  0  0  0  0  0  0
  -25.6967   -8.0141  147.3696 C   0  0  0  0  0  0  0  0  0  0  0  0
  -25.7688   -7.8770  149.9564 C   0  0  0  0  0  0  0  0  0  0  0  0
  -25.6539   -8.6665  146.0597 O   0  0  0  0  0  0  0  0  0  0  0  0
  -25.6001   -5.7158  151.1388 C   0  0  0  0  0  0  0  0  0  0  0  0
  -24.6984   -7.0686  147.5019 O   0  0  0  0  0  0  0  0  0  0  0  0
  -24.1950   -9.7608  148.8599 C   0  0  0  0  0  0  0  0  0  0  0  0
  -25.4548   -8.8309  148.7053 C   0  0  0  0  0  0  0  0  0  0  0  0
  -33.6087   -6.7288  146.0502 C   0  0  0  0  0  0  0  0  0  0  0  0
  -28.9493   -6.3947  152.1318 C   0  0  0  0  0  0  0  0  0  0  0  0
  -29.3957   -5.0286  152.7889 C   0  0  0  0  0  0  0  0  0  0  0  0
  -30.0683   -5.9560  150.6903 C   0  0  0  0  0  0  0  0  0  0  0  0
  -30.3580   -4.6821  151.5806 C   0  0  0  0  0  0  0  0  0  0  0  0
  -31.5004   -6.0906  149.0733 C   0  0  0  0  0  0  0  0  0  0  0  0
  -32.4582   -5.7448  147.2467 C   0  0  0  0  0  0  0  0  0  0  0  0
  3  2  1  0
  4  1  1  0
  5  4  1  0
  6  1  1  0
  6  2  1  0
  6  5  1  0
  8  7  1  0
  9  8  1  0
 10  9  1  0
 12  9  1  0
 12 10  1  0
 13 11  1  0
 14  8  1  0
 14  9  1  0
 14 10  1  0
 15 11  1  0
 17 11  1  0
 17 12  1  0
 17 16  1  0
 18  3  1  0
 18  5  1  0
 19  7  1  0
 20 19  1  0
 21 19  1  0
 22 20  1  0
 22 21  1  0
 23 21  1  0
 24  5  1  0
 24 18  1  0
 24 23  1  0
M  END
$$$$

     RDKit          3D

 24 27  0  0  0  0  0  0  0  0999 V2000
  -25.9018  -11.1408  143.9073 N   0  0  0  0  0  0  0  0  0  0  0  0
  -24.7256  -10.2519  143.8189 C   0  0  0  0  0  0  0  0  0  0  0  0
  -24.9534   -9.0167  144.5672 N   0  0  0  0  0  0  0  0  0  0  0  0
  -24.6443  -11.4771  144.6213 C   0  0  0  0  0  0  0  0  0  0  0  0
  -26.3418   -9.0329  145.0209 C   0  0  0  0  0  0  0  0  0  0  0  0
  -26.8500  -10.4582  144.7850 C   0  0  0  0  0  0  0  0  0  0  0  0
  -27.1782   -7.9617  144.2522 C   0  0  0  0  0  0  0  0  0  0  0  0
  -28.6026   -7.7893  144.8329 C   0  0  0  0  0  0  0  0  0  0  0  0
  -26.4481   -6.5978  144.0874 C   0  0  0  0  0  0  0  0  0  0  0  0
  -23.9231  -12.6573  143.9654 C   0  0  0  0  0  0  0  0  0  0  0  0
  -22.4815  -12.7666  144.5182 C   0  0  0  0  0  0  0  0  0  0  0  0
  -26.0441   -5.8902  145.3930 C   0  0  0  0  0  0  0  0  0  0  0  0
  -27.1964   -5.2171  146.0039 N   0  0  0  0  0  0  0  0  0  0  0  0
  -26.8205   -4.6322  147.2915 C   0  0  0  0  0  0  0  0  0  0  0  0
  -22.2445  -13.2158  145.9675 C   0  0  0  0  0  0  0  0  0  0  0  0
  -23.3470  -14.1297  146.4683 C   0  0  0  0  0  0  0  0  0  0  0  0
  -23.7293  -15.2831  145.8712 C   0  0  0  0  0  0  0  0  0  0  0  0
  -21.0193  -14.0160  145.5003 C   0  0  0  0  0  0  0  0  0  0  0  0
  -19.7000  -13.2562  145.6997 C   0  0  0  0  0  0  0  0  0  0  0  0
  -28.5707   -7.6277  146.2243 O   0  0  0  0  0  0  0  0  0  0  0  0
  -22.9892  -16.0270  144.7655 C   0  0  0  0  0  0  0  0  0  0  0  0
  -22.3211  -15.1999  143.6175 C   0  0  0  0  0  0  0  0  0  0  0  0
  -21.3622  -16.1077  142.8369 C   0  0  0  0  0  0  0  0  0  0  0  0
  -21.5585  -13.9089  144.0577 C   0  0  0  0  0  0  0  0  0  0  0  0
  2  1  1  0
  3  2  1  0
  4  1  1  0
  4  2  1  0
  5  3  1  0
  6  1  1  0
  6  5  1  0
  7  5  1  0
  8  7  1  0
  9  7  1  0
 10  4  1  0
 11 10  1  0
 12  9  1  0
 13 12  1  0
 14 13  1  0
 15 11  1  0
 16 15  1  0
 17 16  2  0
 18 15  1  0
 19 18  1  0
 20  8  1  0
 21 17  1  0
 22 21  1  0
 23 22  1  0
 24 11  1  0
 24 18  1  0
 24 22  1  0
M  END
$$$$

     RDKit          3D

 24 28  0  0  0  0  0  0  0  0999 V2000
  -24.7954  -13.9870  138.3065 C   0  0  0  0  0  0  0  0  0  0  0  0
  -25.1239  -15.2249  138.0475 N   0  0  0  0  0  0  0  0  0  0  0  0
  -24.1440  -13.1686  137.3703 O   0  0  0  0  0  0  0  0  0  0  0  0
  -25.0538  -16.0621  136.8383 C   0  0  0  0  0  0  0  0  0  0  0  0
  -25.1676  -13.4359  139.5915 N   0  0  0  0  0  0  0  0  0  0  0  0
  -24.2422  -15.4124  135.6993 C   0  0  0  0  0  0  0  0  0  0  0  0
  -24.4669  -17.4710  137.2154 C   0  0  0  0  0  0  0  0  0  0  0  0
  -22.8662  -14.9323  136.1610 C   0  0  0  0  0  0  0  0  0  0  0  0
  -25.1584  -12.0198  139.8496 C   0  0  0  0  0  0  0  0  0  0  0  0
  -24.7574  -11.1959  138.9856 O   0  0  0  0  0  0  0  0  0  0  0  0
  -22.9326  -13.4824  136.6654 C   0  0  0  0  0  0  0  0  0  0  0  0
  -25.7291  -14.3203  140.6160 C   0  0  0  0  0  0  0  0  0  0  0  0
  -24.6495  -18.4215  136.0424 C   0  0  0  0  0  0  0  0  0  0  0  0
  -21.6562  -13.0486  137.4306 C   0  0  0  0  0  0  0  0  0  0  0  0
  -25.0208  -17.9680  138.5571 C   0  0  0  0  0  0  0  0  0  0  0  0
  -26.5363  -17.8666  138.7898 C   0  0  0  0  0  0  0  0  0  0  0  0
  -21.5336  -14.7635  139.3608 C   0  0  0  0  0  0  0  0  0  0  0  0
  -21.2204  -14.9217  140.8619 C   0  0  0  0  0  0  0  0  0  0  0  0
  -19.7217  -15.1450  141.1343 C   0  0  0  0  0  0  0  0  0  0  0  0
  -26.8024  -18.5940  137.4886 C   0  0  0  0  0  0  0  0  0  0  0  0
  -25.3022  -18.8020  137.3357 C   0  0  0  0  0  0  0  0  0  0  0  0
  -19.0576  -14.1778  142.0117 C   0  0  0  0  0  0  0  0  0  0  0  0
  -21.6353  -13.2835  138.9538 C   0  0  0  0  0  0  0  0  0  0  0  0
  -18.8659  -14.0928  140.5512 N   0  0  0  0  0  0  0  0  0  0  0  0
  2  1  2  0
  3  1  1  0
  4  2  1  0
  5  1  1  0
  6  4  1  0
  7  4  1  0
  8  6  1  0
  9  5  1  0
 10  9  2  0
 11  3  1  0
 11  8  1  0
 12  5  1  0
 13  7  1  0
 14 11  1  0
 15  7  1  0
 16 15  1  0
 18 17  1  0
 19 18  1  0
 20 16  1  0
 21  7  1  0
 21 13  1  0
 21 15  1  0
 21 20  1  0
 22 19  1  0
 23 14  1  0
 23 17  1  0
 24 19  1  0
 24 22  1  0
M  END
$$$$

     RDKit          3D

 24 27  0  0  0  0  0  0  0  0999 V2000
  -29.2505  -10.3560  148.8729 O   0  0  0  0  0  0  0  0  0  0  0  0
  -28.6967  -11.4932  148.9041 C   0  0  0  0  0  0  0  0  0  0  0  0
  -27.6313  -11.6671  149.7861 O   0  0  0  0  0  0  0  0  0  0  0  0
  -29.2472  -12.6514  148.1158 C   0  0  0  0  0  0  0  0  0  0  0  0
  -28.2007  -13.5028  147.3465 C   0  0  0  0  0  0  0  0  0  0  0  0
  -30.4396  -12.2884  147.2745 C   0  0  0  0  0  0  0  0  0  0  0  0
  -27.9048  -13.2357  145.8327 C   0  0  0  0  0  0  0  0  0  0  0  0
  -30.3719  -11.5389  146.1651 C   0  0  0  0  0  0  0  0  0  0  0  0
  -29.1220  -10.8274  145.6905 C   0  0  0  0  0  0  0  0  0  0  0  0
  -29.8623  -14.2405  144.2826 C   0  0  0  0  0  0  0  0  0  0  0  0
  -30.0909  -13.4355  142.9156 C   0  0  0  0  0  0  0  0  0  0  0  0
  -29.4398   -9.7665  144.6038 C   0  0  0  0  0  0  0  0  0  0  0  0
  -28.8808  -12.9667  142.0212 C   0  0  0  0  0  0  0  0  0  0  0  0
  -28.3950   -8.8161  144.5432 O   0  0  0  0  0  0  0  0  0  0  0  0
  -29.6037  -10.3851  143.2644 N   0  0  0  0  0  0  0  0  0  0  0  0
  -31.2427  -12.3387  143.0472 C   0  0  0  0  0  0  0  0  0  0  0  0
  -30.9836  -10.8141  142.9806 C   0  0  0  0  0  0  0  0  0  0  0  0
  -27.9741  -11.7787  145.2677 C   0  0  0  0  0  0  0  0  0  0  0  0
  -31.8340  -14.7421  141.3356 C   0  0  0  0  0  0  0  0  0  0  0  0
  -28.4237  -14.3487  144.8665 C   0  0  0  0  0  0  0  0  0  0  0  0
  -30.7518  -15.8257  141.3549 C   0  0  0  0  0  0  0  0  0  0  0  0
  -32.8719  -15.0264  142.4525 C   0  0  0  0  0  0  0  0  0  0  0  0
  -30.3804  -14.3871  141.7215 C   0  0  0  0  0  0  0  0  0  0  0  0
  -29.3108  -13.8277  140.8206 C   0  0  0  0  0  0  0  0  0  0  0  0
  2  1  2  0
  3  2  1  0
  4  2  1  0
  5  4  1  0
  6  4  1  0
  7  5  1  0
  8  6  2  0
  9  8  1  0
 11 10  1  0
 12  9  1  0
 13 11  1  0
 14 12  1  0
 15 12  1  0
 16 11  1  0
 17 15  1  0
 17 16  1  0
 18  7  1  0
 18  9  1  0
 20  7  1  0
 20 10  1  0
 21 19  1  0
 22 19  1  0
 23 11  1  0
 23 19  1  0
 23 21  1  0
 24 13  1  0
 24 23  1  0
M  END
$$$$

     RDKit          3D

 24 26  0  0  0  0  0  0  0  0999 V2000
  -22.0308  -12.0453  148.3970 O   0  0  0  0  0  0  0  0  0  0  0  0
  -20.1801  -11.3245  149.1286 C   0  0  0  0  0  0  0  0  0  0  0  0
  -19.0599  -11.2943  148.2708 O   0  0  0  0  0  0  0  0  0  0  0  0
  -21.4233  -10.7776  148.4607 C   0  0  0  0  0  0  0  0  0  0  0  0
  -20.9117  -12.6365  149.0219 C   0  0  0  0  0  0  0  0  0  0  0  0
  -18.8961   -8.7839  148.9048 C   0  0  0  0  0  0  0  0  0  0  0  0
  -18.2773  -10.1220  148.4580 C   0  0  0  0  0  0  0  0  0  0  0  0
  -17.1511   -9.9763  147.4259 C   0  0  0  0  0  0  0  0  0  0  0  0
  -17.0581  -11.0106  146.2548 C   0  0  0  0  0  0  0  0  0  0  0  0
  -16.7256  -12.4569  146.6848 C   0  0  0  0  0  0  0  0  0  0  0  0
  -16.1304  -10.4795  145.0940 C   0  0  0  0  0  0  0  0  0  0  0  0
  -16.3154  -13.2901  145.4819 C   0  0  0  0  0  0  0  0  0  0  0  0
  -13.5025  -10.6761  145.4502 C   0  0  0  0  0  0  0  0  0  0  0  0
  -14.9155  -12.8342  145.0266 C   0  0  0  0  0  0  0  0  0  0  0  0
  -13.6684   -9.8868  146.7706 C   0  0  0  0  0  0  0  0  0  0  0  0
  -16.8321  -10.4061  148.8753 C   0  0  0  0  0  0  0  0  0  0  0  0
  -14.3919  -13.6563  143.8212 C   0  0  0  0  0  0  0  0  0  0  0  0
  -14.8078  -11.2760  144.8104 C   0  0  0  0  0  0  0  0  0  0  0  0
  -15.3627  -13.7515  142.6389 C   0  0  0  0  0  0  0  0  0  0  0  0
  -12.7719  -10.3874  147.9062 C   0  0  0  0  0  0  0  0  0  0  0  0
  -13.1277   -9.7077  149.2043 C   0  0  0  0  0  0  0  0  0  0  0  0
  -12.9871   -8.3782  149.3505 C   0  0  0  0  0  0  0  0  0  0  0  0
  -13.3356   -7.7005  150.6511 C   0  0  0  0  0  0  0  0  0  0  0  0
  -13.4517   -6.1793  150.4756 C   0  0  0  0  0  0  0  0  0  0  0  0
  3  2  1  0
  4  1  1  0
  4  2  1  0
  5  1  1  0
  5  2  1  0
  7  3  1  0
  7  6  1  0
  8  7  1  0
  9  8  1  0
 10  9  1  0
 11  9  1  0
 12 10  1  0
 14 12  1  0
 15 13  1  0
 16  7  1  0
 16  8  1  0
 17 14  1  0
 18 11  1  0
 18 13  1  0
 18 14  1  0
 19 17  1  0
 20 15  1  0
 21 20  1  0
 22 21  2  3
 23 22  1  0
 24 23  1  0
M  END
$$$$

     RDKit          3D

 24 27  0  0  0  0  0  0  0  0999 V2000
  -30.4757   -7.6735  152.6121 C   0  0  0  0  0  0  0  0  0  0  0  0
  -29.2827   -8.6651  152.9349 C   0  0  0  0  0  0  0  0  0  0  0  0
  -29.6404   -9.7712  153.9857 C   0  0  0  0  0  0  0  0  0  0  0  0
  -28.4190  -10.1832  154.7317 N   0  0  0  0  0  0  0  0  0  0  0  0
  -27.5223  -13.6741  154.6453 C   0  0  0  0  0  0  0  0  0  0  0  0
  -27.2654  -12.2833  155.3076 C   0  0  0  0  0  0  0  0  0  0  0  0
  -28.1538   -7.9407  153.3705 O   0  0  0  0  0  0  0  0  0  0  0  0
  -28.5902  -11.4933  155.3515 C   0  0  0  0  0  0  0  0  0  0  0  0
  -26.0316  -11.6272  154.5627 C   0  0  0  0  0  0  0  0  0  0  0  0
  -29.2952   -5.6494  151.4160 C   0  0  0  0  0  0  0  0  0  0  0  0
  -28.6554   -5.9494  150.0474 C   0  0  0  0  0  0  0  0  0  0  0  0
  -30.2472   -6.8934  151.2454 C   0  0  0  0  0  0  0  0  0  0  0  0
  -29.2241   -7.3749  150.2094 C   0  0  0  0  0  0  0  0  0  0  0  0
  -29.3334   -5.1105  148.9009 C   0  0  0  0  0  0  0  0  0  0  0  0
  -30.5629   -4.1498  149.2807 C   0  0  0  0  0  0  0  0  0  0  0  0
  -31.5744   -5.3289  149.6548 C   0  0  0  0  0  0  0  0  0  0  0  0
  -31.4646   -6.4317  150.4769 C   0  0  0  0  0  0  0  0  0  0  0  0
  -31.2775   -3.2735  148.2175 C   0  0  0  0  0  0  0  0  0  0  0  0
  -29.0090   -3.6900  149.2023 C   0  0  0  0  0  0  0  0  0  0  0  0
  -31.4474   -4.0461  146.9056 C   0  0  0  0  0  0  0  0  0  0  0  0
  -31.1284   -6.0104  145.4225 C   0  0  0  0  0  0  0  0  0  0  0  0
  -30.3745   -5.0542  146.3811 C   0  0  0  0  0  0  0  0  0  0  0  0
  -28.3115   -2.9435  148.0446 C   0  0  0  0  0  0  0  0  0  0  0  0
  -29.6561   -5.8161  147.5021 C   0  0  0  0  0  0  0  0  0  0  0  0
  2  1  1  0
  3  2  1  0
  4  3  1  0
  6  5  1  0
  7  2  1  0
  8  4  1  0
  8  6  1  0
  9  6  1  0
 11 10  1  0
 12  1  1  0
 12 10  1  0
 13 11  1  0
 13 12  1  0
 14 11  1  0
 15 14  1  0
 16 15  1  0
 17 12  1  0
 17 16  2  0
 18 15  1  0
 19 14  1  0
 19 15  1  0
 20 18  1  0
 22 20  1  0
 22 21  1  0
 23 19  1  0
 24 14  1  0
 24 22  1  0
M  END
$$$$

     RDKit          3D

 18 21  0  0  0  0  0  0  0  0999 V2000
  -17.2630    0.7426  142.2227 C   0  0  0  0  0  0  0  0  0  0  0  0
  -17.4653    2.1967  142.5036 C   0  0  0  0  0  0  0  0  0  0  0  0
  -17.2219   -0.1319  143.4690 C   0  0  0  0  0  0  0  0  0  0  0  0
  -18.6574    2.4980  142.2164 O   0  0  0  0  0  0  0  0  0  0  0  0
  -17.6938   -1.5882  143.2897 C   0  0  0  0  0  0  0  0  0  0  0  0
  -19.1721   -1.7946  143.6752 C   0  0  0  0  0  0  0  0  0  0  0  0
  -18.6246    3.0285  142.7745 O   0  0  0  0  0  0  0  0  0  0  0  0
  -20.1141   -0.9909  142.7101 C   0  0  0  0  0  0  0  0  0  0  0  0
  -20.3068   -1.5331  141.2849 C   0  0  0  0  0  0  0  0  0  0  0  0
  -21.2169   -4.0346  141.7335 C   0  0  0  0  0  0  0  0  0  0  0  0
  -15.9333    0.2034  142.7249 C   0  0  0  0  0  0  0  0  0  0  0  0
  -21.0772   -2.7140  141.8268 C   0  0  0  0  0  0  0  0  0  0  0  0
  -21.6501   -0.8019  141.1249 C   0  0  0  0  0  0  0  0  0  0  0  0
  -21.5677   -1.4622  142.5134 C   0  0  0  0  0  0  0  0  0  0  0  0
  -21.6338    0.7403  141.0496 C   0  0  0  0  0  0  0  0  0  0  0  0
  -19.3767   -1.5112  145.1831 C   0  0  0  0  0  0  0  0  0  0  0  0
  -19.9480   -0.2226  145.6513 C   0  0  0  0  0  0  0  0  0  0  0  0
  -20.7357   -1.3870  145.5267 O   0  0  0  0  0  0  0  0  0  0  0  0
  2  1  1  0
  3  1  1  0
  4  2  2  0
  5  3  1  0
  6  5  1  0
  7  2  1  0
  8  6  1  0
  9  8  1  0
 11  1  1  0
 11  3  1  0
 12  9  1  0
 12 10  2  0
 13  9  1  0
 14  8  1  0
 14 12  1  0
 14 13  1  0
 15 13  1  0
 16  6  1  0
 17 16  1  0
 18 16  1  0
 18 17  1  0
M  END
$$$$

     RDKit          3D

 11 11  0  0  0  0  0  0  0  0999 V2000
  -22.1830  -10.0050  148.9123 N   0  0  0  0  0  0  0  0  0  0  0  0
  -22.1787  -11.5444  148.6094 C   0  0  0  0  0  0  0  0  0  0  0  0
  -20.3737  -12.1840  148.1231 As  0  0  0  0  0  3  0  0  0  0  0  0
  -18.7146  -11.2367  148.8615 C   0  0  0  0  0  0  0  0  0  0  0  0
  -21.9726   -9.2657  150.2388 C   0  0  0  0  0  0  0  0  0  0  0  0
  -18.8301   -9.8538  148.3707 C   0  0  0  0  0  0  0  0  0  0  0  0
  -19.6737  -11.7972  149.7694 C   0  0  0  0  0  0  0  0  0  0  0  0
  -22.7842  -12.5556  149.6748 C   0  0  0  0  0  0  0  0  0  0  0  0
  -22.1216   -9.0224  147.7746 C   0  0  0  0  0  0  0  0  0  0  0  0
  -17.8788   -9.2609  147.8129 O   0  0  0  0  0  0  0  0  0  0  0  0
  -22.9240  -11.7969  147.1804 C   0  0  0  0  0  0  0  0  0  0  0  0
  2  1  1  0
  3  2  1  0
  4  3  1  0
  5  1  1  0
  6  4  1  0
  7  3  1  0
  7  4  1  0
  8  2  1  0
  9  1  1  0
 10  6  2  0
 11  2  1  0
M  END
$$$$

     RDKit          3D

 23 27  0  0  0  0  0  0  0  0999 V2000
  -25.5642   -0.7515  137.2268 O   0  0  0  0  0  0  0  0  0  0  0  0
  -25.7180    1.1608  139.4173 C   0  0  0  0  0  0  0  0  0  0  0  0
  -24.2301    2.2991  140.3372 N   0  0  0  0  0  0  0  0  0  0  0  0
  -25.8789    1.4530  141.8977 C   0  0  0  0  0  0  0  0  0  0  0  0
  -24.7172    0.8220  142.5558 N   0  0  0  0  0  0  0  0  0  0  0  0
  -25.1704   -0.2734  139.5736 C   0  0  0  0  0  0  0  0  0  0  0  0
  -25.6077    2.0726  140.5741 N   0  0  0  0  0  0  0  0  0  0  0  0
  -23.8427    0.1460  139.3464 O   0  0  0  0  0  0  0  0  0  0  0  0
  -27.0358   -1.9180  138.7240 C   0  0  0  0  0  0  0  0  0  0  0  0
  -24.2805    1.4682  139.1349 C   0  0  0  0  0  0  0  0  0  0  0  0
  -25.6075   -1.3182  138.5115 C   0  0  0  0  0  0  0  0  0  0  0  0
  -27.0542   -2.7950  139.8898 C   0  0  0  0  0  0  0  0  0  0  0  0
  -27.9988   -3.2684  140.9812 C   0  0  0  0  0  0  0  0  0  0  0  0
  -27.3391   -4.0829  142.1273 C   0  0  0  0  0  0  0  0  0  0  0  0
  -27.2035   -5.5833  141.7439 C   0  0  0  0  0  0  0  0  0  0  0  0
  -26.8221   -5.7212  140.4215 F   0  0  0  0  0  0  0  0  0  0  0  0
  -27.2822   -3.4329  138.5262 C   0  0  0  0  0  0  0  0  0  0  0  0
  -26.1192   -4.2425  137.9341 C   0  0  0  0  0  0  0  0  0  0  0  0
  -28.1724   -3.9384  143.4157 C   0  0  0  0  0  0  0  0  0  0  0  0
  -26.1585   -6.3109  142.6009 C   0  0  0  0  0  0  0  0  0  0  0  0
  -27.8392   -1.3590  139.9056 C   0  0  0  0  0  0  0  0  0  0  0  0
  -29.2141   -1.1190  139.1860 C   0  0  0  0  0  0  0  0  0  0  0  0
  -28.2425   -1.8300  141.3194 C   0  0  0  0  0  0  0  0  0  0  0  0
  5  4  1  0
  6  2  1  0
  7  2  1  0
  7  3  1  0
  7  4  1  0
  8  6  1  0
 10  2  1  0
 10  3  1  0
 10  8  1  0
 11  1  1  0
 11  6  1  0
 11  9  1  0
 12  9  1  0
 13 12  1  0
 14 13  1  0
 15 14  1  0
 16 15  1  0
 17  9  1  0
 17 12  1  0
 18 17  1  0
 19 14  1  0
 20 15  1  0
 21  9  1  0
 21 12  1  0
 22 21  1  0
 23 13  1  0
 23 21  1  0
M  END
$$$$

     RDKit          3D

 24 25  0  0  0  0  0  0  0  0999 V2000
  -24.4482  -11.1873  145.9189 C   0  0  0  0  0  0  0  0  0  0  0  0
  -23.9198  -11.7627  144.4940 C   0  0  0  0  0  0  0  0  0  0  0  0
  -23.2652  -12.8747  147.2653 N   0  0  0  0  0  0  0  0  0  0  0  0
  -22.7189  -11.8683  148.2536 C   0  0  0  0  0  0  0  0  0  0  0  0
  -22.4780  -11.4434  143.8466 C   0  0  0  0  0  0  0  0  0  0  0  0
  -24.5761  -12.3142  146.9663 C   0  0  0  0  0  0  0  0  0  0  0  0
  -22.4792  -10.5201  142.6092 C   0  0  0  0  0  0  0  0  0  0  0  0
  -22.0669   -9.9525  143.9179 C   0  0  0  0  0  0  0  0  0  0  0  0
  -21.3809  -11.4984  147.7370 C   0  0  0  0  0  0  0  0  0  0  0  0
  -22.9614  -13.2091  148.7109 C   0  0  0  0  0  0  0  0  0  0  0  0
  -20.3807  -11.5127  148.6159 C   0  0  0  0  0  0  0  0  0  0  0  0
  -21.4553  -12.7599  143.5766 C   0  0  0  0  0  0  0  0  0  0  0  0
  -20.2307  -10.3866  149.6575 C   0  0  0  0  0  0  0  0  0  0  0  0
  -21.5319   -9.9675  150.3903 C   0  0  0  0  0  0  0  0  0  0  0  0
  -23.8162   -9.8496  146.3995 C   0  0  0  0  0  0  0  0  0  0  0  0
  -20.6366  -13.0722  142.2007 C   0  0  0  0  0  0  0  0  0  0  0  0
  -21.3107   -9.0671  151.6732 C   0  0  0  0  0  0  0  0  0  0  0  0
  -19.9527   -8.4258  151.8151 C   0  0  0  0  0  0  0  0  0  0  0  0
  -20.3904  -14.5942  141.6169 C   0  0  0  0  0  0  0  0  0  0  0  0
  -19.6992  -16.0238  143.7114 C   0  0  0  0  0  0  0  0  0  0  0  0
  -19.0550   -8.9496  152.6786 C   0  0  0  0  0  0  0  0  0  0  0  0
  -19.3459  -15.5311  142.2875 C   0  0  0  0  0  0  0  0  0  0  0  0
  -17.7265   -8.3188  152.8226 C   0  0  0  0  0  0  0  0  0  0  0  0
  -16.8387   -8.7487  153.7295 C   0  0  0  0  0  0  0  0  0  0  0  0
  2  1  1  0
  4  3  1  0
  5  2  1  0
  6  1  1  0
  6  3  1  0
  7  5  1  0
  8  5  1  0
  8  7  1  0
  9  4  1  0
 10  3  1  0
 10  4  1  0
 11  9  2  3
 12  5  1  0
 13 11  1  0
 14 13  1  0
 15  1  1  0
 16 12  1  0
 17 14  1  0
 18 17  1  0
 19 16  1  0
 21 18  2  3
 22 19  1  0
 22 20  1  0
 23 21  1  0
 24 23  2  0
M  END
$$$$

     RDKit          3D

 24 25  0  0  0  0  0  0  0  0999 V2000
  -23.2065    2.8353  139.4502 N   0  0  0  0  0  0  0  0  0  0  0  0
  -22.1698    2.5850  140.4595 C   0  0  0  0  0  0  0  0  0  0  0  0
  -22.9591    3.8251  138.4343 C   0  0  0  0  0  0  0  0  0  0  0  0
  -22.0492    3.7369  141.4835 C   0  0  0  0  0  0  0  0  0  0  0  0
  -24.4974    4.5765  141.7487 C   0  0  0  0  0  0  0  0  0  0  0  0
  -25.0580    5.8976  142.3716 C   0  0  0  0  0  0  0  0  0  0  0  0
  -23.2584    3.9391  142.4478 C   0  0  0  0  0  0  0  0  0  0  0  0
  -23.9868    7.0387  142.3063 C   0  0  0  0  0  0  0  0  0  0  0  0
  -24.0507    8.1731  143.3404 C   0  0  0  0  0  0  0  0  0  0  0  0
  -25.9547    5.6765  143.6630 C   0  0  0  0  0  0  0  0  0  0  0  0
  -27.1820    6.6598  143.8623 C   0  0  0  0  0  0  0  0  0  0  0  0
  -23.7980    4.0313  137.5141 O   0  0  0  0  0  0  0  0  0  0  0  0
  -25.1611    5.4334  144.9904 C   0  0  0  0  0  0  0  0  0  0  0  0
  -23.3324    7.8251  144.6584 C   0  0  0  0  0  0  0  0  0  0  0  0
  -25.1034    6.6051  145.9448 C   0  0  0  0  0  0  0  0  0  0  0  0
  -24.2908    1.8763  139.2612 C   0  0  0  0  0  0  0  0  0  0  0  0
  -24.2963    7.6640  145.7967 C   0  0  0  0  0  0  0  0  0  0  0  0
  -20.5534    3.4819  142.4364 Cl  0  0  0  0  0  0  0  0  0  0  0  0
  -27.8972    7.0751  142.5522 C   0  0  0  0  0  0  0  0  0  0  0  0
  -29.1923    7.8214  142.7869 C   0  0  0  0  0  0  0  0  0  0  0  0
  -29.8746    7.7506  143.9396 C   0  0  0  0  0  0  0  0  0  0  0  0
  -29.3233    7.0658  145.1603 C   0  0  0  0  0  0  0  0  0  0  0  0
  -28.2393    6.0395  144.8092 C   0  0  0  0  0  0  0  0  0  0  0  0
  -23.6406    2.6622  143.2214 C   0  0  0  0  0  0  0  0  0  0  0  0
  2  1  1  0
  3  1  1  0
  4  2  1  0
  6  5  1  0
  7  4  1  0
  7  5  1  0
  8  6  1  0
  9  8  1  0
 10  6  1  0
 11 10  1  0
 12  3  2  0
 13 10  1  0
 14  9  1  0
 15 13  1  0
 16  1  1  0
 17 14  1  0
 17 15  2  3
 18  4  1  0
 19 11  1  0
 20 19  1  0
 21 20  2  0
 22 21  1  0
 23 11  1  0
 23 22  1  0
 24  7  1  0
M  END
$$$$

     RDKit          3D

 24 31  0  0  0  0  0  0  0  0999 V2000
  -23.5123  -21.6277  139.2761 C   0  0  0  0  0  0  0  0  0  0  0  0
  -23.5992  -21.8144  140.8140 C   0  0  0  0  0  0  0  0  0  0  0  0
  -23.2598  -23.2162  141.2307 C   0  0  0  0  0  0  0  0  0  0  0  0
  -23.4303  -23.6265  142.7775 C   0  0  0  0  0  0  0  0  0  0  0  0
  -24.7860  -24.4692  143.0717 C   0  0  0  0  0  0  0  0  0  0  0  0
  -23.6472  -20.1381  138.9166 C   0  0  0  0  0  0  0  0  0  0  0  0
  -25.8620  -23.7399  143.8971 C   0  0  0  0  0  0  0  0  0  0  0  0
  -23.1758  -22.4603  143.8014 C   0  0  0  0  0  0  0  0  0  0  0  0
  -24.1182  -21.2321  143.8306 C   0  0  0  0  0  0  0  0  0  0  0  0
  -27.2639  -23.7321  143.3541 N   0  0  0  0  0  0  0  0  0  0  0  0
  -27.4303  -22.3329  142.8278 C   0  0  0  0  0  0  0  0  0  0  0  0
  -22.3252  -19.6438  138.3415 C   0  0  0  0  0  0  0  0  0  0  0  0
  -28.7108  -23.1317  141.3471 C   0  0  0  0  0  0  0  0  0  0  0  0
  -22.0052  -18.1884  138.5781 C   0  0  0  0  0  0  0  0  0  0  0  0
  -28.8783  -23.0159  139.8133 C   0  0  0  0  0  0  0  0  0  0  0  0
  -22.5935  -18.6203  137.2301 C   0  0  0  0  0  0  0  0  0  0  0  0
  -23.5173  -19.8062  137.4455 C   0  0  0  0  0  0  0  0  0  0  0  0
  -29.4914  -21.6564  139.6034 C   0  0  0  0  0  0  0  0  0  0  0  0
  -29.2130  -20.8696  140.8910 C   0  0  0  0  0  0  0  0  0  0  0  0
  -25.2488  -25.0487  144.4261 C   0  0  0  0  0  0  0  0  0  0  0  0
  -30.1523  -19.9335  141.3449 O   0  0  0  0  0  0  0  0  0  0  0  0
  -27.3131  -23.5058  141.9148 C   0  0  0  0  0  0  0  0  0  0  0  0
  -27.8553  -20.6529  141.3173 C   0  0  0  0  0  0  0  0  0  0  0  0
  -28.6889  -21.8037  142.0500 C   0  0  0  0  0  0  0  0  0  0  0  0
  2  1  1  0
  3  2  1  0
  4  3  1  0
  5  4  1  0
  6  1  1  0
  7  5  1  0
  8  4  1  0
  9  8  1  0
 10  7  1  0
 11 10  1  0
 12  6  1  0
 14 12  1  0
 15 13  1  0
 16 12  1  0
 16 14  1  0
 17  6  1  0
 17 12  1  0
 17 16  1  0
 18 15  1  0
 19 18  1  0
 20  5  1  0
 20  7  1  0
 21 19  1  0
 22 10  1  0
 22 11  1  0
 22 13  1  0
 23 19  1  0
 24 11  1  0
 24 13  1  0
 24 19  1  0
 24 23  1  0
M  END
$$$$

     RDKit          3D

 15 18  0  0  0  0  0  0  0  0999 V2000
  -27.3932    4.2208  140.4825 O   0  0  0  0  0  0  0  0  0  0  0  0
  -27.9445    4.3985  139.4071 C   0  0  0  0  0  0  0  0  0  0  0  0
  -27.1235    4.9742  138.2698 C   0  0  0  0  0  0  0  0  0  0  0  0
  -26.9168    6.5033  138.1780 C   0  0  0  0  0  0  0  0  0  0  0  0
  -29.2702    7.0111  137.7635 C   0  0  0  0  0  0  0  0  0  0  0  0
  -27.7847    4.9891  136.8942 C   0  0  0  0  0  0  0  0  0  0  0  0
  -28.6968    6.2027  136.5778 C   0  0  0  0  0  0  0  0  0  0  0  0
  -28.1147    7.3319  138.7135 C   0  0  0  0  0  0  0  0  0  0  0  0
  -28.3983    7.4914  140.2235 C   0  0  0  0  0  0  0  0  0  0  0  0
  -29.3812    3.9707  139.2705 C   0  0  0  0  0  0  0  0  0  0  0  0
  -28.7470    8.4429  137.8580 C   0  0  0  0  0  0  0  0  0  0  0  0
  -27.2208    6.3842  136.6992 C   0  0  0  0  0  0  0  0  0  0  0  0
  -27.5392    8.6188  140.8398 C   0  0  0  0  0  0  0  0  0  0  0  0
  -26.6025    8.1298  141.9556 C   0  0  0  0  0  0  0  0  0  0  0  0
  -25.4318    7.3107  141.4155 C   0  0  0  0  0  0  0  0  0  0  0  0
  2  1  2  0
  3  2  1  0
  4  3  1  0
  6  3  1  0
  7  5  1  0
  7  6  1  0
  8  4  1  0
  8  5  1  0
  9  8  1  0
 10  2  1  0
 11  5  1  0
 11  8  1  0
 12  4  1  0
 12  6  1  0
 12  7  1  0
 13  9  1  0
 14 13  1  0
 15 14  1  0
M  END
$$$$

     RDKit          3D

 24 28  0  0  0  0  0  0  0  0999 V2000
  -19.5031   -5.9244  141.8405 C   0  0  0  0  0  0  0  0  0  0  0  0
  -20.2807   -4.4317  143.0028 C   0  0  0  0  0  0  0  0  0  0  0  0
  -22.0814   -6.4102  142.6419 C   0  0  0  0  0  0  0  0  0  0  0  0
  -20.5419   -5.8979  143.0558 C   0  0  0  0  0  0  0  0  0  0  0  0
  -20.4237   -4.6716  141.4615 C   0  0  0  0  0  0  0  0  0  0  0  0
  -20.8490   -5.3916  140.1069 C   0  0  0  0  0  0  0  0  0  0  0  0
  -20.5521   -6.9711  139.5599 C   0  0  0  0  0  0  0  0  0  0  0  0
  -20.9615   -7.4245  138.0250 C   0  0  0  0  0  0  0  0  0  0  0  0
  -19.8488   -8.4160  137.4139 C   0  0  0  0  0  0  0  0  0  0  0  0
  -19.4798   -5.1077  140.6262 N   0  0  0  0  0  0  0  0  0  0  0  0
  -21.1364   -6.2095  137.1942 N   0  0  0  0  0  0  0  0  0  0  0  0
  -23.5212   -8.8502  136.8158 O   0  0  0  0  0  0  0  0  0  0  0  0
  -22.4848   -8.5699  137.9546 P   0  0  0  0  0  0  0  0  0  0  0  0
  -23.4211   -6.2301  143.6323 C   0  0  0  0  0  0  0  0  0  0  0  0
  -23.0744   -5.1742  142.5788 C   0  0  0  0  0  0  0  0  0  0  0  0
  -20.0169   -8.1783  140.5132 C   0  0  0  0  0  0  0  0  0  0  0  0
  -23.9736   -5.2059  141.1941 C   0  0  0  0  0  0  0  0  0  0  0  0
  -24.8137   -6.9849  143.5625 C   0  0  0  0  0  0  0  0  0  0  0  0
  -26.5156   -4.9722  140.7857 C   0  0  0  0  0  0  0  0  0  0  0  0
  -29.1311   -5.1262  140.8072 C   0  0  0  0  0  0  0  0  0  0  0  0
  -27.6758   -6.6204  139.1302 C   0  0  0  0  0  0  0  0  0  0  0  0
  -25.6088   -6.8281  142.2991 C   0  0  0  0  0  0  0  0  0  0  0  0
  -27.7910   -5.8562  140.4896 C   0  0  0  0  0  0  0  0  0  0  0  0
  -25.3829   -5.4310  141.7146 C   0  0  0  0  0  0  0  0  0  0  0  0
  4  1  1  0
  4  2  1  0
  4  3  1  0
  5  1  1  0
  5  2  1  0
  6  5  1  0
  7  6  1  0
  8  7  1  0
  9  8  1  0
 10  1  1  0
 10  5  1  0
 10  6  1  0
 11  8  1  0
 13  8  1  0
 13 12  2  0
 14  3  1  0
 15  3  1  0
 15 14  1  0
 16  7  1  0
 17 15  1  0
 18 14  1  0
 22 18  1  0
 23 19  1  0
 23 20  1  0
 23 21  1  0
 24 17  1  0
 24 19  1  0
 24 22  1  0
M  END
$$$$

     RDKit          3D

 24 27  0  0  0  0  0  0  0  0999 V2000
  -21.5532   -3.7335  134.0293 N   0  0  0  0  0  2  0  0  0  0  0  0
  -20.9608   -2.4466  134.3449 C   0  0  0  0  0  0  0  0  0  0  0  0
  -20.4448   -1.8251  133.1177 N   0  0  0  0  0  0  0  0  0  0  0  0
  -21.9800   -1.6084  134.9490 N   0  0  0  0  0  2  0  0  0  0  0  0
  -21.1300    0.6163  133.1101 C   0  0  0  0  0  0  0  0  0  0  0  0
  -20.0510    0.4719  132.0383 C   0  0  0  0  0  0  0  0  0  0  0  0
  -23.5333    1.5915  131.5868 C   0  0  0  0  0  0  0  0  0  0  0  0
  -19.1803    3.0135  132.1976 P   0  0  0  0  0  0  0  0  0  0  0  0
  -19.3478    2.8622  133.9289 O   0  0  0  0  0  0  0  0  0  0  0  0
  -24.1038    2.4132  132.7883 C   0  0  0  0  0  0  0  0  0  0  0  0
  -23.2282    3.5729  133.3189 C   0  0  0  0  0  0  0  0  0  0  0  0
  -20.8916    3.1171  131.8402 O   0  0  0  0  0  0  0  0  0  0  0  0
  -18.9132    1.2977  131.8780 O   0  0  0  0  0  0  0  0  0  0  0  0
  -22.7829    4.5929  132.2329 C   0  0  0  0  0  0  0  0  0  0  0  0
  -18.8210   -0.0374  134.7236 P   0  0  0  0  0  0  0  0  0  0  0  0
  -17.9246    1.9954  134.4565 P   0  0  0  0  0  0  0  0  0  0  0  0
  -21.0977    0.0870  130.5416 P   0  0  0  0  0  0  0  0  0  0  0  0
  -20.7823   -1.6124  130.4710 O   0  0  0  0  0  0  0  0  0  0  0  0
  -21.2962    4.4782  131.8497 C   0  0  0  0  0  0  0  0  0  0  0  0
  -22.6215    0.0344  132.1418 P   0  0  0  0  0  0  0  0  0  0  0  0
  -20.0067    0.4078  135.9068 O   0  0  0  0  0  0  0  0  0  0  0  0
  -18.0311    2.4924  136.1175 O   0  0  0  0  0  0  0  0  0  0  0  0
  -24.6870    1.1310  130.6933 C   0  0  0  0  0  0  0  0  0  0  0  0
  -20.0263   -0.4174  133.2971 C   0  0  0  0  0  0  0  0  0  0  0  0
  2  1  1  0
  3  2  1  0
  4  2  1  0
  6  5  1  0
  9  8  1  0
 10  7  1  0
 11 10  1  0
 12  8  1  0
 13  6  1  0
 13  8  1  0
 14 11  1  0
 16  9  1  0
 16 15  1  0
 17  6  1  0
 18 17  1  0
 19 12  1  0
 19 14  1  0
 20  5  1  0
 20  7  1  0
 20 17  1  0
 21 15  1  0
 22 16  1  0
 23  7  1  0
 24  3  1  0
 24  5  1  0
 24  6  1  0
 24 15  1  0
M  RAD  2   1   2   4   2
M  END
$$$$

     RDKit          3D

 24 28  0  0  0  0  0  0  0  0999 V2000
  -30.0521   -7.4688  144.5930 O   0  0  0  0  0  0  0  0  0  0  0  0
  -30.9676   -7.7540  145.6441 C   0  0  0  0  0  0  0  0  0  0  0  0
  -31.8212   -8.7869  145.3296 O   0  0  0  0  0  0  0  0  0  0  0  0
  -30.6632   -7.5997  143.3093 C   0  0  0  0  0  0  0  0  0  0  0  0
  -29.7113   -7.4349  142.2911 F   0  0  0  0  0  0  0  0  0  0  0  0
  -31.3759  -10.0655  145.7917 C   0  0  0  0  0  0  0  0  0  0  0  0
  -29.2831  -11.3914  145.9377 N   0  0  0  0  0  0  0  0  0  0  0  0
  -28.3373  -10.6245  146.8095 C   0  0  0  0  0  0  0  0  0  0  0  0
  -32.5945  -11.0824  146.2426 C   0  0  0  0  0  0  0  0  0  0  0  0
  -28.9127  -12.5792  148.5060 C   0  0  0  0  0  0  0  0  0  0  0  0
  -34.9106   -9.3537  146.7755 C   0  0  0  0  0  0  0  0  0  0  0  0
  -30.1452  -10.6539  145.0934 N   0  0  0  0  0  0  0  0  0  0  0  0
  -35.9823   -9.3194  145.6635 C   0  0  0  0  0  0  0  0  0  0  0  0
  -34.0778  -10.7041  146.8231 C   0  0  0  0  0  0  0  0  0  0  0  0
  -28.9844  -14.0805  148.2011 C   0  0  0  0  0  0  0  0  0  0  0  0
  -35.7947  -10.3601  144.4916 C   0  0  0  0  0  0  0  0  0  0  0  0
  -31.5370  -10.4289  147.5619 Si  0  0  0  0  0  4  0  0  0  0  0  0
  -30.0690  -14.3801  147.0716 C   0  0  0  0  0  0  0  0  0  0  0  0
  -34.9092   -8.2243  145.6604 C   0  0  0  0  0  0  0  0  0  0  0  0
  -31.1157  -13.4035  146.3304 C   0  0  0  0  0  0  0  0  0  0  0  0
  -27.9078  -11.5776  148.0350 C   0  0  0  0  0  0  0  0  0  0  0  0
  -32.1069  -12.3265  147.0271 C   0  0  0  0  0  0  0  0  0  0  0  0
  -34.4296  -10.7461  143.8596 C   0  0  0  0  0  0  0  0  0  0  0  0
  -35.4066   -9.9654  143.0593 C   0  0  0  0  0  0  0  0  0  0  0  0
  2  1  1  0
  3  2  1  0
  4  1  1  0
  5  4  1  0
  6  3  1  0
  8  7  1  0
  9  6  1  0
 12  6  1  0
 12  7  1  0
 13 11  1  0
 14  9  1  0
 14 11  1  0
 15 10  1  0
 16 13  1  0
 17  6  1  0
 17  9  1  0
 18 15  1  0
 19 11  1  0
 19 13  1  0
 20 18  1  0
 21  8  1  0
 21 10  1  0
 22  9  1  0
 22 17  1  0
 22 20  1  0
 23 16  1  0
 24 16  1  0
 24 23  1  0
M  END
$$$$

     RDKit          3D

 23 27  0  0  0  0  0  0  0  0999 V2000
  -15.7349   -9.5660  144.6574 C   0  0  0  0  0  0  0  0  0  0  0  0
  -15.8922  -10.8878  146.9415 C   0  0  0  0  0  0  0  0  0  0  0  0
  -15.3638  -11.0852  148.4118 C   0  0  0  0  0  0  0  0  0  0  0  0
  -14.3206  -12.1798  148.8002 C   0  0  0  0  0  0  0  0  0  0  0  0
  -15.3904  -10.2167  143.2705 C   0  0  0  0  0  0  0  0  0  0  0  0
  -13.8884   -9.2088  146.4463 C   0  0  0  0  0  0  0  0  0  0  0  0
  -14.9516  -10.1915  145.8680 C   0  0  0  0  0  0  0  0  0  0  0  0
  -13.1882  -12.3791  147.7482 C   0  0  0  0  0  0  0  0  0  0  0  0
  -12.6540  -13.8027  147.4728 C   0  0  0  0  0  0  0  0  0  0  0  0
  -15.1425   -9.2615  142.0573 C   0  0  0  0  0  0  0  0  0  0  0  0
  -16.4095   -8.7084  141.2921 C   0  0  0  0  0  0  0  0  0  0  0  0
  -14.2516   -8.1496  142.4755 N   0  0  0  0  0  0  0  0  0  0  0  0
  -17.5818   -7.9194  141.9460 C   0  0  0  0  0  0  0  0  0  0  0  0
  -13.3562  -14.9485  148.2129 C   0  0  0  0  0  0  0  0  0  0  0  0
  -14.8176  -14.6397  148.3681 C   0  0  0  0  0  0  0  0  0  0  0  0
  -14.9420  -13.4947  149.3537 C   0  0  0  0  0  0  0  0  0  0  0  0
  -17.7437   -7.7461  143.4330 C   0  0  0  0  0  0  0  0  0  0  0  0
  -19.0878   -8.2467  143.9286 C   0  0  0  0  0  0  0  0  0  0  0  0
  -18.5649   -8.8255  142.6559 C   0  0  0  0  0  0  0  0  0  0  0  0
  -14.3880  -10.1138  140.9854 C   0  0  0  0  0  0  0  0  0  0  0  0
  -11.2626  -13.8980  147.7829 O   0  0  0  0  0  0  0  0  0  0  0  0
  -13.9115  -14.6040  149.5911 C   0  0  0  0  0  0  0  0  0  0  0  0
  -10.4766  -13.4089  146.7094 C   0  0  0  0  0  0  0  0  0  0  0  0
  3  2  1  0
  4  3  1  0
  5  1  1  0
  7  1  1  0
  7  2  1  0
  7  6  1  0
  8  4  1  0
  9  8  1  0
 10  5  1  0
 11 10  1  0
 12 10  1  0
 13 11  1  0
 14  9  1  0
 15 14  1  0
 16  4  1  0
 16 15  1  0
 17 13  1  0
 18 17  1  0
 19 13  1  0
 19 17  1  0
 19 18  1  0
 20 10  1  0
 21  9  1  0
 22 14  1  0
 22 15  1  0
 22 16  1  0
 23 21  1  0
M  END
$$$$

     RDKit          3D

 24 27  0  0  0  0  0  0  0  0999 V2000
  -27.3156  -25.9807  133.4508 O   0  0  0  0  0  0  0  0  0  0  0  0
  -27.4592  -26.4371  134.7805 C   0  0  0  0  0  0  0  0  0  0  0  0
  -26.8918  -27.7409  134.7975 O   0  0  0  0  0  0  0  0  0  0  0  0
  -26.3426  -25.0977  134.3983 C   0  0  0  0  0  0  0  0  0  0  0  0
  -26.1685  -25.0577  135.3779 C   0  0  0  0  0  0  0  0  0  0  0  0
  -25.1509  -25.0979  133.8466 C   0  0  0  0  0  0  0  0  0  0  0  0
  -24.5697  -23.4027  132.9826 C   0  0  0  0  0  0  0  0  0  0  0  0
  -26.1845  -19.8336  133.5912 C   0  0  0  0  0  0  0  0  0  0  0  0
  -28.5075  -15.7871  133.2507 C   0  0  0  0  0  0  0  0  0  0  0  0
  -29.8995  -18.0363  132.2174 C   0  0  0  0  0  0  0  0  0  0  0  0
  -24.9381  -23.7875  135.8606 C   0  0  0  0  0  0  0  0  0  0  0  0
  -29.2721  -19.4707  132.0071 C   0  0  0  0  0  0  0  0  0  0  0  0
  -25.2131  -26.2967  135.9295 C   0  0  0  0  0  0  0  0  0  0  0  0
  -27.3619  -23.7061  135.4096 C   0  0  0  0  0  0  0  0  0  0  0  0
  -28.9793  -17.3955  133.3360 C   0  0  0  0  0  0  0  0  0  0  0  0
  -23.9766  -28.2006  133.6482 C   0  0  0  0  0  0  0  0  0  0  0  0
  -29.0772  -19.8409  133.5506 C   0  0  0  0  0  0  0  0  0  0  0  0
  -24.8487  -21.4535  132.9905 C   0  0  0  0  0  0  0  0  0  0  0  0
  -24.4675  -26.7748  134.3530 C   0  0  0  0  0  0  0  0  0  0  0  0
  -28.0292  -18.8637  134.0018 C   0  0  0  0  0  0  0  0  0  0  0  0
  -23.4342  -24.2057  136.5973 C   0  0  0  0  0  0  0  0  0  0  0  0
  -22.5164  -25.5211  136.2968 C   0  0  0  0  0  0  0  0  0  0  0  0
  -22.5465  -26.7680  137.2143 C   0  0  0  0  0  0  0  0  0  0  0  0
  -23.4103  -23.5275  135.3034 C   0  0  0  0  0  0  0  0  0  0  0  0
  2  1  1  0
  3  2  1  0
  4  1  1  0
  4  2  1  0
  5  4  1  0
  6  5  1  0
  7  6  1  0
 11  4  1  0
 12 10  1  0
 13  5  1  0
 14  5  1  0
 15  9  1  0
 15 10  1  0
 17 12  1  0
 18  7  1  0
 18  8  1  0
 19  6  1  0
 19 13  1  0
 19 16  2  0
 20  8  1  0
 20 15  1  0
 20 17  1  0
 21 11  1  0
 22 21  1  0
 23 22  1  0
 24 11  1  0
 24 21  1  0
M  END
$$$$

     RDKit          3D

 11 12  0  0  0  0  0  0  0  0999 V2000
  -27.0310  -10.8491  138.1147 O   0  0  0  0  0  0  0  0  0  0  0  0
  -26.4919  -11.2124  137.0374 C   0  0  0  0  0  0  0  0  0  0  0  0
  -27.2953  -11.5027  135.8973 N   0  0  0  0  0  0  0  0  0  0  0  0
  -28.7272  -11.5324  135.5419 C   0  0  0  0  0  0  0  0  0  0  0  0
  -29.3894  -10.1468  135.6686 C   0  0  0  0  0  0  0  0  0  0  0  0
  -28.5286  -11.9988  134.1295 C   0  0  0  0  0  0  0  0  0  0  0  0
  -27.0830  -11.9648  134.5131 C   0  0  0  0  0  0  0  0  0  0  0  0
  -28.6320   -9.1185  134.9438 N   0  0  0  0  0  0  0  0  0  0  0  0
  -29.4117   -7.8831  134.8958 C   0  0  0  0  0  0  0  0  0  0  0  0
  -30.2465   -7.7391  133.6355 C   0  0  0  0  0  0  0  0  0  0  0  0
  -28.9591   -6.9453  133.7908 C   0  0  0  0  0  0  0  0  0  0  0  0
  2  1  2  0
  3  2  1  0
  4  3  1  0
  5  4  1  0
  6  4  1  0
  7  3  1  0
  7  6  1  0
  8  5  1  0
  9  8  1  0
 10  9  1  0
 11  9  1  0
 11 10  1  0
M  END
$$$$

     RDKit          3D

 24 28  0  0  0  0  0  0  0  0999 V2000
  -21.3510  -22.2790  149.6824 O   0  0  0  0  0  0  0  0  0  0  0  0
  -20.5440  -21.1290  149.5868 C   0  0  0  0  0  0  0  0  0  0  0  0
  -20.0071  -21.0061  148.2973 O   0  0  0  0  0  0  0  0  0  0  0  0
  -22.0225  -21.0345  149.7128 C   0  0  0  0  0  0  0  0  0  0  0  0
  -22.8996  -20.8288  148.4539 C   0  0  0  0  0  0  0  0  0  0  0  0
  -23.3106  -19.3299  148.2725 C   0  0  0  0  0  0  0  0  0  0  0  0
  -24.0583  -21.6144  148.5940 O   0  0  0  0  0  0  0  0  0  0  0  0
  -23.8912  -18.7304  149.5836 C   0  0  0  0  0  0  0  0  0  0  0  0
  -24.6990  -17.4360  149.3304 C   0  0  0  0  0  0  0  0  0  0  0  0
  -25.1532  -16.5125  150.4494 C   0  0  0  0  0  0  0  0  0  0  0  0
  -25.2064  -17.2478  151.8161 C   0  0  0  0  0  0  0  0  0  0  0  0
  -23.9330  -17.7590  152.5480 C   0  0  0  0  0  0  0  0  0  0  0  0
  -23.5302  -16.8373  153.7091 C   0  0  0  0  0  0  0  0  0  0  0  0
  -22.5780  -17.0479  152.5438 C   0  0  0  0  0  0  0  0  0  0  0  0
  -22.1457  -18.4667  147.7327 C   0  0  0  0  0  0  0  0  0  0  0  0
  -23.9011  -16.1826  149.5979 C   0  0  0  0  0  0  0  0  0  0  0  0
  -21.6594  -18.9475  146.3521 C   0  0  0  0  0  0  0  0  0  0  0  0
  -24.1197  -15.3697  148.4839 O   0  0  0  0  0  0  0  0  0  0  0  0
  -24.3235  -15.4138  150.6821 O   0  0  0  0  0  0  0  0  0  0  0  0
  -22.5302  -18.5177  145.1738 C   0  0  0  0  0  0  0  0  0  0  0  0
  -22.2533  -19.0151  142.6599 C   0  0  0  0  0  0  0  0  0  0  0  0
  -21.1718  -17.8616  145.4036 C   0  0  0  0  0  0  0  0  0  0  0  0
  -21.0155  -19.7110  142.0943 C   0  0  0  0  0  0  0  0  0  0  0  0
  -22.6413  -19.5702  144.0544 C   0  0  0  0  0  0  0  0  0  0  0  0
  2  1  1  0
  3  2  1  0
  4  1  1  0
  4  2  1  0
  5  4  1  0
  6  5  1  0
  7  5  1  0
  8  6  1  0
  9  8  1  0
 10  9  1  0
 11 10  1  0
 12 11  1  0
 13 12  1  0
 14 12  1  0
 14 13  1  0
 15  6  1  0
 16  9  1  0
 16 10  1  0
 17 15  1  0
 18 16  1  0
 19 10  1  0
 19 16  1  0
 20 17  1  0
 22 17  1  0
 22 20  1  0
 23 21  1  0
 24 20  1  0
 24 21  1  0
M  END
$$$$

     RDKit          3D

 24 27  0  0  0  0  0  0  0  0999 V2000
  -26.7142    0.3522  136.8613 F   0  0  0  0  0  0  0  0  0  0  0  0
  -27.5164    1.2858  137.4928 C   0  0  0  0  0  0  0  0  0  0  0  0
  -27.2008    2.6290  137.3774 F   0  0  0  0  0  0  0  0  0  0  0  0
  -28.9803    0.9081  137.6710 C   0  0  0  0  0  0  0  0  0  0  0  0
  -29.9592    2.0914  137.6266 C   0  0  0  0  0  0  0  0  0  0  0  0
  -31.4142    1.6066  137.5558 C   0  0  0  0  0  0  0  0  0  0  0  0
  -31.8474    0.5908  138.5911 C   0  0  0  0  0  0  0  0  0  0  0  0
  -28.0199    0.8684  138.8593 C   0  0  0  0  0  0  0  0  0  0  0  0
  -32.3645    1.1409  139.8559 N   0  0  0  0  0  0  0  0  0  0  0  0
  -31.2784    1.4243  140.8187 C   0  0  0  0  0  0  0  0  0  0  0  0
  -30.7258    0.1412  141.3116 N   0  0  0  0  0  0  0  0  0  0  0  0
  -32.6857    1.4367  142.8681 N   0  0  0  0  0  0  0  0  0  0  0  0
  -32.6249    3.5005  141.5112 C   0  0  0  0  0  0  0  0  0  0  0  0
  -32.8738   -0.3913  138.0072 C   0  0  0  0  0  0  0  0  0  0  0  0
  -30.5723    5.5857  138.4363 N   0  0  0  0  0  0  0  0  0  0  0  0
  -28.8730   -1.0194  142.4820 C   0  0  0  0  0  0  0  0  0  0  0  0
  -31.5447    5.6932  137.3601 C   0  0  0  0  0  0  0  0  0  0  0  0
  -31.1866    4.8623  136.2820 O   0  0  0  0  0  0  0  0  0  0  0  0
  -31.8492    2.2660  141.9947 C   0  0  0  0  0  0  0  0  0  0  0  0
  -32.3223    2.0350  138.6843 C   0  0  0  0  0  0  0  0  0  0  0  0
  -29.7840   -1.9770  143.2469 C   0  0  0  0  0  0  0  0  0  0  0  0
  -31.5411    4.5559  139.9616 Mg  0  0  0  0  0  2  0  0  0  0  0  0
  -31.0198    6.2489  136.0944 C   0  0  0  0  0  0  0  0  0  0  0  0
  -29.5609    0.3215  142.1948 C   0  0  0  0  0  0  0  0  0  0  0  0
  2  1  1  0
  3  2  1  0
  4  2  1  0
  5  4  1  0
  6  5  1  0
  7  6  1  0
  8  2  1  0
  8  4  1  0
  9  7  1  0
 10  9  1  0
 11 10  1  0
 14  7  1  0
 17 15  1  0
 18 17  1  0
 19 10  1  0
 19 12  1  0
 19 13  1  0
 20  6  1  0
 20  7  1  0
 20  9  1  0
 21 16  1  0
 22 13  1  0
 22 15  1  0
 23 17  1  0
 23 18  1  0
 24 11  1  0
 24 16  1  0
M  END
$$$$

     RDKit          3D

 24 30  0  0  0  0  0  0  0  0999 V2000
  -25.0857   -3.5626  132.5962 C   0  0  0  0  0  0  0  0  0  0  0  0
  -24.9332   -4.9279  131.8729 C   0  0  0  0  0  0  0  0  0  0  0  0
  -25.7501   -3.8454  131.2484 C   0  0  0  0  0  0  0  0  0  0  0  0
  -24.9746   -3.2622  129.9354 C   0  0  0  0  0  0  0  0  0  0  0  0
  -24.4536   -4.2562  128.8404 C   0  0  0  0  0  0  0  0  0  0  0  0
  -22.0563   -3.5797  127.9262 C   0  0  0  0  0  0  0  0  0  0  0  0
  -20.9354   -2.5179  127.9744 C   0  0  0  0  0  0  0  0  0  0  0  0
  -20.6560   -1.3924  128.9843 C   0  0  0  0  0  0  0  0  0  0  0  0
  -23.1563   -1.3486  129.6715 C   0  0  0  0  0  0  0  0  0  0  0  0
  -21.6996   -0.9918  130.0283 C   0  0  0  0  0  0  0  0  0  0  0  0
  -22.9834   -3.8729  129.1339 C   0  0  0  0  0  0  0  0  0  0  0  0
  -23.4778   -2.7830  130.0975 C   0  0  0  0  0  0  0  0  0  0  0  0
  -26.3483   -5.2927  131.3926 C   0  0  0  0  0  0  0  0  0  0  0  0
  -19.8514   -2.7119  129.0575 C   0  0  0  0  0  0  0  0  0  0  0  0
  -27.2269   -5.5537  132.6438 C   0  0  0  0  0  0  0  0  0  0  0  0
  -27.2905   -2.6025  133.6085 C   0  0  0  0  0  0  0  0  0  0  0  0
  -18.3836   -2.5685  128.5252 C   0  0  0  0  0  0  0  0  0  0  0  0
  -20.0390   -3.5311  130.3632 C   0  0  0  0  0  0  0  0  0  0  0  0
  -26.6226   -5.0276  133.9719 C   0  0  0  0  0  0  0  0  0  0  0  0
  -27.0628   -5.7289  130.0939 C   0  0  0  0  0  0  0  0  0  0  0  0
  -17.4390   -3.7573  128.7346 C   0  0  0  0  0  0  0  0  0  0  0  0
  -25.0191   -3.8915  127.4526 C   0  0  0  0  0  0  0  0  0  0  0  0
  -18.0322   -3.5260  127.3609 C   0  0  0  0  0  0  0  0  0  0  0  0
  -26.1089   -3.5863  133.7771 C   0  0  0  0  0  0  0  0  0  0  0  0
  2  1  1  0
  3  1  1  0
  3  2  1  0
  4  3  1  0
  5  4  1  0
  7  6  1  0
  8  7  1  0
 10  8  1  0
 10  9  1  0
 11  5  1  0
 11  6  1  0
 12  4  1  0
 12  9  1  0
 12 11  1  0
 13  2  1  0
 13  3  1  0
 14  7  1  0
 14  8  1  0
 15 13  1  0
 17 14  1  0
 18 14  1  0
 19 15  1  0
 20 13  1  0
 21 17  1  0
 22  5  1  0
 23 17  1  0
 23 21  1  0
 24  1  1  0
 24 16  1  0
 24 19  1  0
M  END
$$$$

     RDKit          3D

 24 29  0  0  0  0  0  0  0  0999 V2000
  -23.0267    0.9075  132.5359 C   0  0  0  0  0  0  0  0  0  0  0  0
  -22.2633    2.0500  133.1495 C   0  0  0  0  0  0  0  0  0  0  0  0
  -23.4040    1.0078  131.0463 C   0  0  0  0  0  0  0  0  0  0  0  0
  -22.7757    3.2992  133.2544 C   0  0  0  0  0  0  0  0  0  0  0  0
  -22.6981    1.9143  130.0205 C   0  0  0  0  0  0  0  0  0  0  0  0
  -21.9207    4.3726  133.9064 C   0  0  0  0  0  0  0  0  0  0  0  0
  -22.5861    3.4237  130.3805 C   0  0  0  0  0  0  0  0  0  0  0  0
  -22.5285    3.4476  136.2417 C   0  0  0  0  0  0  0  0  0  0  0  0
  -23.8251    4.0625  131.0467 C   0  0  0  0  0  0  0  0  0  0  0  0
  -24.0742    3.6623  132.5272 C   0  0  0  0  0  0  0  0  0  0  0  0
  -24.8785    4.7434  133.2622 C   0  0  0  0  0  0  0  0  0  0  0  0
  -23.0083    3.7967  137.6335 C   0  0  0  0  0  0  0  0  0  0  0  0
  -21.3342    1.2422  129.7955 C   0  0  0  0  0  0  0  0  0  0  0  0
  -23.3129    2.8606  138.7954 C   0  0  0  0  0  0  0  0  0  0  0  0
  -21.0210    0.5336  131.0314 N   0  0  0  0  0  0  0  0  0  0  0  0
  -22.3114    0.0459  131.5155 C   0  0  0  0  0  0  0  0  0  0  0  0
  -22.3659    4.6608  135.3495 C   0  0  0  0  0  0  0  0  0  0  0  0
  -21.3112    4.4107  136.4261 C   0  0  0  0  0  0  0  0  0  0  0  0
  -20.3181    2.1666  129.4954 O   0  0  0  0  0  0  0  0  0  0  0  0
  -23.0426    3.6308  140.1401 C   0  0  0  0  0  0  0  0  0  0  0  0
  -22.8776    5.1979  139.9845 C   0  0  0  0  0  0  0  0  0  0  0  0
  -22.4575    5.8285  141.3155 C   0  0  0  0  0  0  0  0  0  0  0  0
  -21.9131    5.6393  138.8127 C   0  0  0  0  0  0  0  0  0  0  0  0
  -21.6753    4.4389  137.9076 C   0  0  0  0  0  0  0  0  0  0  0  0
  2  1  1  0
  3  1  1  0
  4  2  2  3
  5  3  1  0
  6  4  1  0
  7  5  1  0
  9  7  1  0
 10  4  1  0
 10  9  1  0
 11 10  1  0
 12  8  1  0
 13  5  1  0
 14 12  1  0
 15 13  1  0
 16  1  1  0
 16  3  1  0
 16 15  1  0
 17  6  1  0
 17  8  1  0
 18  8  1  0
 18 17  1  0
 19 13  1  0
 20 14  1  0
 21 20  1  0
 22 21  1  0
 23 21  1  0
 24 12  1  0
 24 18  1  0
 24 23  1  0
M  END
$$$$

     RDKit          3D

 24 25  0  0  0  0  0  0  0  0999 V2000
  -25.2570  -16.4125  145.0055 C   0  0  0  0  0  0  0  0  0  0  0  0
  -25.8612  -16.3965  142.4552 C   0  0  0  0  0  0  0  0  0  0  0  0
  -25.4739  -17.2737  141.2343 C   0  0  0  0  0  0  0  0  0  0  0  0
  -24.9420  -14.9294  144.9470 C   0  0  0  0  0  0  0  0  0  0  0  0
  -26.6272  -15.7124  139.5036 C   0  0  0  0  0  0  0  0  0  0  0  0
  -28.5952  -15.7759  137.8814 C   0  0  0  0  0  0  0  0  0  0  0  0
  -29.7279  -16.7327  138.3165 C   0  0  0  0  0  0  0  0  0  0  0  0
  -26.4518  -18.4612  141.0191 C   0  0  0  0  0  0  0  0  0  0  0  0
  -25.6916  -17.1444  143.8061 C   0  0  0  0  0  0  0  0  0  0  0  0
  -24.2911  -17.2538  144.2624 N   0  0  0  0  0  0  0  0  0  0  0  0
  -29.5521  -18.2578  138.4265 C   0  0  0  0  0  0  0  0  0  0  0  0
  -30.4607  -19.0146  139.4365 C   0  0  0  0  0  0  0  0  0  0  0  0
  -27.1422  -16.2276  138.1519 C   0  0  0  0  0  0  0  0  0  0  0  0
  -25.8776  -13.9654  144.9197 C   0  0  0  0  0  0  0  0  0  0  0  0
  -27.3591  -14.2137  144.7830 C   0  0  0  0  0  0  0  0  0  0  0  0
  -30.1645  -17.6617  137.1702 C   0  0  0  0  0  0  0  0  0  0  0  0
  -28.0593  -13.9076  146.0711 C   0  0  0  0  0  0  0  0  0  0  0  0
  -30.7120  -20.5070  139.0484 C   0  0  0  0  0  0  0  0  0  0  0  0
  -29.4057  -21.2815  138.8084 C   0  0  0  0  0  0  0  0  0  0  0  0
  -31.6793  -20.6953  137.8678 C   0  0  0  0  0  0  0  0  0  0  0  0
  -25.3121  -16.4009  139.9558 C   0  0  0  0  0  0  0  0  0  0  0  0
  -31.7695  -18.3088  139.8294 C   0  0  0  0  0  0  0  0  0  0  0  0
  -25.9006  -19.5243  140.0639 C   0  0  0  0  0  0  0  0  0  0  0  0
  -28.1734  -12.6515  146.5231 C   0  0  0  0  0  0  0  0  0  0  0  0
  3  2  1  0
  4  1  1  0
  7  6  1  0
  8  3  1  0
  9  1  1  0
  9  2  1  0
 10  1  1  0
 10  9  1  0
 11  7  1  0
 12 11  1  0
 13  5  1  0
 13  6  1  0
 14  4  2  3
 15 14  1  0
 16  7  1  0
 16 11  1  0
 17 15  1  0
 18 12  1  0
 19 18  1  0
 20 18  1  0
 21  3  1  0
 21  5  1  0
 22 12  1  0
 23  8  1  0
 24 17  2  0
M  END
$$$$

     RDKit          3D

 16 18  0  0  0  0  0  0  0  0999 V2000
  -30.1525   -7.2644  142.5403 C   0  0  0  0  0  0  0  0  0  0  0  0
  -28.7254   -6.8353  142.1404 C   0  0  0  0  0  0  0  0  0  0  0  0
  -28.4218   -5.5970  142.7184 O   0  0  0  0  0  0  0  0  0  0  0  0
  -28.4971   -6.8655  140.6487 C   0  0  0  0  0  0  0  0  0  0  0  0
  -30.1053   -8.2291  143.7323 C   0  0  0  0  0  0  0  0  0  0  0  0
  -29.4009   -9.5670  143.4262 C   0  0  0  0  0  0  0  0  0  0  0  0
  -27.0424   -7.2033  140.2785 C   0  0  0  0  0  0  0  0  0  0  0  0
  -28.7280   -5.5343  141.3458 C   0  0  0  0  0  0  0  0  0  0  0  0
  -30.3179  -10.5919  142.7252 C   0  0  0  0  0  0  0  0  0  0  0  0
  -30.4032  -10.4653  141.2037 C   0  0  0  0  0  0  0  0  0  0  0  0
  -29.6556  -11.9601  142.5621 C   0  0  0  0  0  0  0  0  0  0  0  0
  -29.7267  -11.8177  141.0499 C   0  0  0  0  0  0  0  0  0  0  0  0
  -26.9213   -8.6692  139.8352 C   0  0  0  0  0  0  0  0  0  0  0  0
  -25.4556   -9.1301  139.7715 C   0  0  0  0  0  0  0  0  0  0  0  0
  -24.9674   -9.6405  141.1273 C   0  0  0  0  0  0  0  0  0  0  0  0
  -23.1079  -10.1703  141.0124 Br  0  0  0  0  0  0  0  0  0  0  0  0
  2  1  1  0
  3  2  1  0
  4  2  1  0
  5  1  1  0
  6  5  1  0
  7  4  1  0
  8  2  1  0
  8  3  1  0
  8  4  1  0
  9  6  1  0
 10  9  1  0
 11  9  1  0
 12 10  1  0
 12 11  1  0
 13  7  1  0
 14 13  1  0
 15 14  1  0
 16 15  1  0
M  END
$$$$

     RDKit          3D

 17 19  0  0  0  0  0  0  0  0999 V2000
  -18.6940    5.3659  141.8891 O   0  0  0  0  0  0  0  0  0  0  0  0
  -20.7231    2.4366  139.7067 O   0  0  0  0  0  0  0  0  0  0  0  0
  -18.2545    4.2254  139.3645 O   0  0  0  0  0  0  0  0  0  0  0  0
  -20.0029    1.8564  140.7701 C   0  0  0  0  0  0  0  0  0  0  0  0
  -19.8702   -0.3674  141.8084 N   0  0  0  0  0  0  0  0  0  0  0  0
  -20.6492    5.0526  144.9339 C   0  0  0  0  0  0  0  0  0  0  0  0
  -20.6534   -0.5424  140.5728 C   0  0  0  0  0  0  0  0  0  0  0  0
  -19.2245    4.7344  142.9646 N   0  0  0  0  0  0  0  0  0  0  0  0
  -20.6936    0.3788  142.7784 C   0  0  0  0  0  0  0  0  0  0  0  0
  -19.7926    5.7431  143.8679 C   0  0  0  0  0  0  0  0  0  0  0  0
  -20.8210    0.6880  141.3432 C   0  0  0  0  0  0  0  0  0  0  0  0
  -18.6955    6.6032  144.5160 C   0  0  0  0  0  0  0  0  0  0  0  0
  -19.8985    1.3221  143.7058 C   0  0  0  0  0  0  0  0  0  0  0  0
  -18.3831    1.1133  143.6963 C   0  0  0  0  0  0  0  0  0  0  0  0
  -20.5894    3.2173  140.8677 C   0  0  0  0  0  0  0  0  0  0  0  0
  -19.4590    4.6814  140.5001 Si  0  0  0  0  0  4  0  0  0  0  0  0
  -19.8804    4.1974  145.7059 F   0  0  0  0  0  0  0  0  0  0  0  0
  4  2  1  0
  7  5  1  0
  8  1  1  0
  9  5  1  0
 10  6  1  0
 10  8  1  0
 11  4  1  0
 11  5  1  0
 11  7  1  0
 11  9  1  0
 12 10  1  0
 13  9  1  0
 14 13  1  0
 15  2  1  0
 15  4  1  0
 16  1  1  0
 16  3  1  0
 16 15  1  0
 17  6  1  0
M  END
$$$$

     RDKit          3D

 20 25  0  0  0  0  0  0  0  0999 V2000
  -24.9689  -14.2675  147.4743 Cl  0  0  0  0  0  0  0  0  0  0  0  0
  -25.7734  -14.6677  144.1660 C   0  0  0  0  0  0  0  0  0  0  0  0
  -27.4557  -14.6070  143.8368 C   0  0  0  0  0  0  0  0  0  0  0  0
  -28.5543  -15.3009  144.9561 C   0  0  0  0  0  0  0  0  0  0  0  0
  -29.0850  -16.8048  144.5493 C   0  0  0  0  0  0  0  0  0  0  0  0
  -30.0562  -18.7303  144.2586 C   0  0  0  0  0  0  0  0  0  0  0  0
  -26.9386  -14.6987  145.2524 C   0  0  0  0  0  0  0  0  0  0  0  0
  -30.4567  -17.0306  143.8504 C   0  0  0  0  0  0  0  0  0  0  0  0
  -29.3896  -18.1133  145.5826 C   0  0  0  0  0  0  0  0  0  0  0  0
  -30.6608  -18.1497  146.5884 C   0  0  0  0  0  0  0  0  0  0  0  0
  -20.5391  -11.8684  142.6655 C   0  0  0  0  0  0  0  0  0  0  0  0
  -20.0706  -10.6057  141.4612 C   0  0  0  0  0  0  0  0  0  0  0  0
  -22.3203  -12.8362  145.0115 C   0  0  0  0  0  0  0  0  0  0  0  0
  -22.1841  -11.1809  143.4196 C   0  0  0  0  0  0  0  0  0  0  0  0
  -21.7580  -10.6113  141.8414 C   0  0  0  0  0  0  0  0  0  0  0  0
  -23.0095  -10.3716  140.9252 C   0  0  0  0  0  0  0  0  0  0  0  0
  -18.5453  -11.2396  140.3729 C   0  0  0  0  0  0  0  0  0  0  0  0
  -24.4340  -10.7516  141.7017 C   0  0  0  0  0  0  0  0  0  0  0  0
  -24.0045  -13.4530  143.1588 C   0  0  0  0  0  0  0  0  0  0  0  0
  -22.2787   -9.2789  141.6416 N   0  0  0  0  0  0  0  0  0  0  0  0
  3  2  1  0
  4  3  1  0
  5  4  1  0
  7  2  1  0
  7  3  1  0
  7  4  1  0
  8  5  1  0
  8  6  1  0
  9  5  1  0
  9  6  1  0
 10  9  1  0
 12 11  1  0
 13  1  1  0
 13 11  1  0
 14 11  1  0
 15 12  1  0
 15 14  1  0
 16 15  1  0
 17 11  1  0
 17 12  1  0
 18 16  1  0
 19  2  1  0
 19 14  1  0
 20 15  1  0
 20 16  1  0
M  END
$$$$

     RDKit          3D

 24 28  0  0  0  0  0  0  0  0999 V2000
  -14.1100   -1.4843  145.0785 C   0  0  0  0  0  0  0  0  0  0  0  0
  -14.6791   -2.1719  143.6965 C   0  0  0  0  0  0  0  0  0  0  0  0
  -15.1974   -1.4014  146.1923 C   0  0  0  0  0  0  0  0  0  0  0  0
  -15.2789   -2.2879  147.5899 C   0  0  0  0  0  0  0  0  0  0  0  0
  -14.0001    0.0121  145.1684 C   0  0  0  0  0  0  0  0  0  0  0  0
  -16.5261   -1.9824  148.6087 C   0  0  0  0  0  0  0  0  0  0  0  0
  -16.1654   -0.1482  146.1435 C   0  0  0  0  0  0  0  0  0  0  0  0
  -15.1269   -1.6133  148.9563 C   0  0  0  0  0  0  0  0  0  0  0  0
  -14.6679   -1.7858  142.0416 C   0  0  0  0  0  0  0  0  0  0  0  0
  -13.4059    0.7750  146.3076 C   0  0  0  0  0  0  0  0  0  0  0  0
  -16.1341   -1.2239  141.5994 C   0  0  0  0  0  0  0  0  0  0  0  0
  -14.7519   -0.0490  146.5631 C   0  0  0  0  0  0  0  0  0  0  0  0
  -16.4596   -1.8930  140.1210 C   0  0  0  0  0  0  0  0  0  0  0  0
  -17.2995   -3.3028  140.2071 C   0  0  0  0  0  0  0  0  0  0  0  0
  -16.9624   -4.2743  141.3952 C   0  0  0  0  0  0  0  0  0  0  0  0
  -16.1890   -5.1902  140.3537 C   0  0  0  0  0  0  0  0  0  0  0  0
  -16.3020    0.2986  142.1804 C   0  0  0  0  0  0  0  0  0  0  0  0
  -16.5639   -1.3316  138.6106 C   0  0  0  0  0  0  0  0  0  0  0  0
  -16.8261   -4.4577  139.2098 C   0  0  0  0  0  0  0  0  0  0  0  0
  -17.4948    1.2476  141.7060 C   0  0  0  0  0  0  0  0  0  0  0  0
  -17.9246    0.9695  140.2976 C   0  0  0  0  0  0  0  0  0  0  0  0
  -14.9764    0.9830  141.7693 C   0  0  0  0  0  0  0  0  0  0  0  0
  -17.4227    2.7840  142.0084 C   0  0  0  0  0  0  0  0  0  0  0  0
  -18.1468   -5.1822  138.7721 C   0  0  0  0  0  0  0  0  0  0  0  0
  2  1  1  0
  3  1  1  0
  4  3  1  0
  5  1  1  0
  6  4  1  0
  7  3  1  0
  8  4  1  0
  8  6  1  0
  9  2  1  0
 10  5  1  0
 11  9  1  0
 12  3  1  0
 12  5  1  0
 12  7  1  0
 12 10  1  0
 13 11  1  0
 14 13  1  0
 15 14  1  0
 16 15  1  0
 17 11  1  0
 18 13  1  0
 19 14  1  0
 19 16  1  0
 20 17  1  0
 21 20  1  0
 22 17  1  0
 23 20  1  0
 24 19  1  0
M  END
$$$$

     RDKit          3D

 24 25  0  0  0  0  0  0  0  0999 V2000
  -32.8166   -9.0429  144.1811 O   0  0  0  0  0  0  0  0  0  0  0  0
  -32.6059  -10.1148  144.8378 C   0  0  0  0  0  0  0  0  0  0  0  0
  -33.7462  -10.9002  145.2547 N   0  0  0  0  0  0  0  0  0  0  0  0
  -34.5604  -12.1459  145.4436 C   0  0  0  0  0  0  0  0  0  0  0  0
  -31.2792  -10.2705  145.3944 N   0  0  0  0  0  0  0  0  0  0  0  0
  -35.2259  -12.5081  144.2374 O   0  0  0  0  0  0  0  0  0  0  0  0
  -30.7493  -11.0423  146.3126 C   0  0  0  0  0  0  0  0  0  0  0  0
  -31.4436  -12.3062  146.9264 C   0  0  0  0  0  0  0  0  0  0  0  0
  -35.0698  -10.9578  145.9707 C   0  0  0  0  0  0  0  0  0  0  0  0
  -34.8674  -10.4950  147.4746 C   0  0  0  0  0  0  0  0  0  0  0  0
  -29.3743  -10.8686  146.5843 O   0  0  0  0  0  0  0  0  0  0  0  0
  -28.3562  -11.4506  145.7074 C   0  0  0  0  0  0  0  0  0  0  0  0
  -27.3855  -12.5074  146.3384 C   0  0  0  0  0  0  0  0  0  0  0  0
  -33.4805   -9.8755  147.8899 C   0  0  0  0  0  0  0  0  0  0  0  0
  -32.4324  -12.1083  148.1409 C   0  0  0  0  0  0  0  0  0  0  0  0
  -26.5601  -13.3891  145.3182 C   0  0  0  0  0  0  0  0  0  0  0  0
  -32.5490  -10.7206  148.6343 N   0  0  0  0  0  0  0  0  0  0  0  0
  -30.3600  -13.3483  147.2906 C   0  0  0  0  0  0  0  0  0  0  0  0
  -25.2162  -13.8743  145.9422 C   0  0  0  0  0  0  0  0  0  0  0  0
  -25.2461  -14.5887  147.3342 C   0  0  0  0  0  0  0  0  0  0  0  0
  -25.8778  -16.0194  147.4081 C   0  0  0  0  0  0  0  0  0  0  0  0
  -27.3315  -14.5924  144.7129 C   0  0  0  0  0  0  0  0  0  0  0  0
  -28.1648  -16.5171  148.3284 C   0  0  0  0  0  0  0  0  0  0  0  0
  -26.9319  -16.0149  148.5044 C   0  0  0  0  0  0  0  0  0  0  0  0
  2  1  2  0
  3  2  1  0
  4  3  1  0
  5  2  1  0
  6  4  1  0
  7  5  2  3
  8  7  1  0
  9  3  1  0
  9  4  1  0
 10  9  1  0
 11  7  1  0
 12 11  1  0
 13 12  1  0
 14 10  1  0
 15  8  1  0
 16 13  1  0
 17 14  1  0
 17 15  1  0
 18  8  1  0
 19 16  1  0
 20 19  1  0
 21 20  1  0
 22 16  1  0
 24 21  1  0
 24 23  2  0
M  END
$$$$

     RDKit          3D

 11 11  0  0  0  0  0  0  0  0999 V2000
  -23.0261  -19.8077  134.3800 O   0  0  0  0  0  0  0  0  0  0  0  0
  -21.6918  -19.3896  134.3060 C   0  0  0  0  0  0  0  0  0  0  0  0
  -20.8516  -20.0734  133.4209 O   0  0  0  0  0  0  0  0  0  0  0  0
  -21.0521  -18.7037  135.5071 C   0  0  0  0  0  0  0  0  0  0  0  0
  -21.9406  -18.6145  136.7659 C   0  0  0  0  0  0  0  0  0  0  0  0
  -21.5095  -17.8831  134.2959 C   0  0  0  0  0  0  0  0  0  0  0  0
  -21.4157  -17.6202  137.8437 C   0  0  0  0  0  0  0  0  0  0  0  0
  -22.4100  -17.6416  139.0270 C   0  0  0  0  0  0  0  0  0  0  0  0
  -21.3386  -16.1878  137.2488 C   0  0  0  0  0  0  0  0  0  0  0  0
  -20.0269  -18.0665  138.3556 C   0  0  0  0  0  0  0  0  0  0  0  0
  -20.8185  -14.9500  138.4322 Cl  0  0  0  0  0  0  0  0  0  0  0  0
  2  1  1  0
  3  2  1  0
  4  2  1  0
  5  4  1  0
  6  2  1  0
  6  4  1  0
  7  5  1  0
  8  7  1  0
  9  7  1  0
 10  7  1  0
 11  9  1  0
M  END
$$$$

     RDKit          3D

 10 12  0  0  0  0  0  0  0  0999 V2000
  -34.2211  -17.7563  145.9256 F   0  0  0  0  0  0  0  0  0  0  0  0
  -28.0398  -16.6042  144.4408 C   0  0  0  0  0  0  0  0  0  0  0  0
  -29.2553  -16.7145  143.5449 C   0  0  0  0  0  0  0  0  0  0  0  0
  -30.3507  -18.1017  144.0090 S   0  0  0  0  0  0  0  0  0  0  0  0
  -27.8813  -17.2447  143.0797 C   0  0  0  0  0  0  0  0  0  0  0  0
  -31.8696  -16.6880  144.9318 As  0  0  0  0  0  3  0  0  0  0  0  0
  -32.8996  -18.1298  145.7582 C   0  0  0  0  0  0  0  0  0  0  0  0
  -32.1211  -18.0361  147.0552 C   0  0  0  0  0  0  0  0  0  0  0  0
  -28.8894  -16.7280  142.0768 C   0  0  0  0  0  0  0  0  0  0  0  0
  -31.2197  -16.9340  146.7184 N   0  0  0  0  0  0  0  0  0  0  0  0
  3  2  1  0
  4  3  1  0
  5  2  1  0
  5  3  1  0
  6  4  1  0
  7  1  1  0
  7  6  1  0
  8  7  1  0
  9  3  1  0
  9  5  1  0
 10  6  1  0
 10  8  1  0
M  END
$$$$

     RDKit          3D

 24 25  0  0  0  0  0  0  0  0999 V2000
  -30.1985  -27.2141  140.1356 O   0  0  0  0  0  0  0  0  0  0  0  0
  -29.7956  -26.8878  138.9850 C   0  0  0  0  0  0  0  0  0  0  0  0
  -30.9137  -27.0547  139.8791 O   0  0  0  0  0  0  0  0  0  0  0  0
  -32.3283  -26.7249  139.4191 C   0  0  0  0  0  0  0  0  0  0  0  0
  -29.2014  -25.5509  138.6922 C   0  0  0  0  0  0  0  0  0  0  0  0
  -28.7254  -25.3976  137.2200 C   0  0  0  0  0  0  0  0  0  0  0  0
  -27.4143  -26.1830  136.8416 C   0  0  0  0  0  0  0  0  0  0  0  0
  -29.9329  -25.5027  136.2322 C   0  0  0  0  0  0  0  0  0  0  0  0
  -26.2199  -25.8773  137.7919 C   0  0  0  0  0  0  0  0  0  0  0  0
  -25.9159  -24.3729  137.9641 C   0  0  0  0  0  0  0  0  0  0  0  0
  -29.7092  -26.2556  134.9129 C   0  0  0  0  0  0  0  0  0  0  0  0
  -29.5613  -27.7679  135.1125 C   0  0  0  0  0  0  0  0  0  0  0  0
  -24.4825  -24.0893  138.4330 C   0  0  0  0  0  0  0  0  0  0  0  0
  -28.1121  -28.1806  135.3593 C   0  0  0  0  0  0  0  0  0  0  0  0
  -27.5871  -27.7236  136.7221 C   0  0  0  0  0  0  0  0  0  0  0  0
  -24.0965  -24.8952  139.6411 C   0  0  0  0  0  0  0  0  0  0  0  0
  -23.0213  -25.7024  139.7829 C   0  0  0  0  0  0  0  0  0  0  0  0
  -22.2915  -26.9222  137.5648 C   0  0  0  0  0  0  0  0  0  0  0  0
  -22.5088  -26.2317  136.2056 C   0  0  0  0  0  0  0  0  0  0  0  0
  -21.3338  -25.3616  135.7449 C   0  0  0  0  0  0  0  0  0  0  0  0
  -21.3692  -23.9308  136.3071 C   0  0  0  0  0  0  0  0  0  0  0  0
  -21.1128  -23.7621  137.8246 C   0  0  0  0  0  0  0  0  0  0  0  0
  -20.7754  -25.0278  138.6187 C   0  0  0  0  0  0  0  0  0  0  0  0
  -21.9017  -26.0716  138.8021 C   0  0  0  0  0  0  0  0  0  0  0  0
  2  1  2  0
  3  2  1  0
  4  3  1  0
  5  2  1  0
  6  5  1  0
  7  6  1  0
  8  6  1  0
  9  7  1  0
 10  9  1  0
 11  8  1  0
 12 11  1  0
 13 10  1  0
 14 12  1  0
 15  7  1  0
 15 14  1  0
 16 13  1  0
 17 16  2  3
 19 18  1  0
 20 19  1  0
 21 20  1  0
 22 21  1  0
 23 22  1  0
 24 17  1  0
 24 18  1  0
 24 23  1  0
M  END
$$$$

     RDKit          3D

 24 28  0  0  0  0  0  0  0  0999 V2000
  -36.8808  -14.6570  143.6618 O   0  0  0  0  0  0  0  0  0  0  0  0
  -37.1369  -16.4567  145.0024 C   0  0  0  0  0  0  0  0  0  0  0  0
  -37.8149  -15.4632  144.1941 O   0  0  0  0  0  0  0  0  0  0  0  0
  -37.0531  -17.8331  144.3740 C   0  0  0  0  0  0  0  0  0  0  0  0
  -32.7965  -15.8452  144.6329 C   0  0  0  0  0  0  0  0  0  0  0  0
  -38.0921  -17.1472  145.8869 C   0  0  0  0  0  0  0  0  0  0  0  0
  -34.0431  -15.1918  144.2596 C   0  0  0  0  0  0  0  0  0  0  0  0
  -34.1995  -13.8517  145.2448 C   0  0  0  0  0  0  0  0  0  0  0  0
  -35.2622  -13.0651  144.5765 C   0  0  0  0  0  0  0  0  0  0  0  0
  -33.0419  -12.8039  145.1497 O   0  0  0  0  0  0  0  0  0  0  0  0
  -32.1395  -14.7262  144.0358 O   0  0  0  0  0  0  0  0  0  0  0  0
  -36.6746  -13.5821  144.6122 C   0  0  0  0  0  0  0  0  0  0  0  0
  -33.4020  -14.3885  143.2667 C   0  0  0  0  0  0  0  0  0  0  0  0
  -34.3627  -13.0184  143.3860 C   0  0  0  0  0  0  0  0  0  0  0  0
  -33.3596  -12.0937  143.9731 C   0  0  0  0  0  0  0  0  0  0  0  0
  -37.8200  -18.5777  145.4541 C   0  0  0  0  0  0  0  0  0  0  0  0
  -32.3275  -11.9728  143.0848 O   0  0  0  0  0  0  0  0  0  0  0  0
  -37.4024  -19.6757  146.6137 P   0  0  0  0  0  0  0  0  0  0  0  0
  -35.6582  -18.3665  143.8381 C   0  0  0  0  0  0  0  0  0  0  0  0
  -35.1736  -17.8790  142.3370 B   0  0  0  0  0  0  0  0  0  0  0  0
  -35.1611  -19.7642  144.1802 C   0  0  0  0  0  0  0  0  0  0  0  0
  -33.8626  -20.5535  144.0999 C   0  0  0  0  0  0  0  0  0  0  0  0
  -34.7054  -18.5721  144.8702 O   0  0  0  0  0  0  0  0  0  0  0  0
  -32.7474  -20.0692  143.1204 C   0  0  0  0  0  0  0  0  0  0  0  0
  3  1  1  0
  3  2  1  0
  4  2  1  0
  6  2  1  0
  7  5  1  0
  8  7  1  0
  9  8  1  0
 10  8  1  0
 11  5  1  0
 12  1  1  0
 12  9  1  0
 13  7  1  0
 13 11  1  0
 14  9  1  0
 14 13  1  0
 15 10  1  0
 15 14  1  0
 16  4  1  0
 16  6  1  0
 17 15  1  0
 18 16  2  0
 19  4  1  0
 20 19  1  0
 21 19  1  0
 22 21  1  0
 23 19  1  0
 23 21  1  0
 24 22  1  0
M  END
$$$$

     RDKit          3D

 23 29  0  0  0  0  0  0  0  0999 V2000
  -26.6815  -18.0044  138.4348 C   0  0  0  0  0  0  0  0  0  0  0  0
  -26.0253  -20.6717  138.2473 C   0  0  0  0  0  0  0  0  0  0  0  0
  -24.9579  -21.5597  138.9299 C   0  0  0  0  0  0  0  0  0  0  0  0
  -25.4456  -17.2189  138.9752 C   0  0  0  0  0  0  0  0  0  0  0  0
  -23.5941  -21.3109  138.4159 N   0  0  0  0  0  0  0  0  0  0  0  0
  -24.5581  -18.4822  138.8654 C   0  0  0  0  0  0  0  0  0  0  0  0
  -25.7515  -19.1820  138.2928 C   0  0  0  0  0  0  0  0  0  0  0  0
  -22.4834  -21.0436  139.3589 C   0  0  0  0  0  0  0  0  0  0  0  0
  -21.9954  -22.3328  140.0368 C   0  0  0  0  0  0  0  0  0  0  0  0
  -21.3240  -20.2177  138.7506 C   0  0  0  0  0  0  0  0  0  0  0  0
  -22.5920  -21.2272  140.8879 C   0  0  0  0  0  0  0  0  0  0  0  0
  -25.0077  -16.0682  138.0336 C   0  0  0  0  0  0  0  0  0  0  0  0
  -23.5088  -15.7320  138.0297 C   0  0  0  0  0  0  0  0  0  0  0  0
  -21.5847  -15.6770  139.3067 C   0  0  0  0  0  0  0  0  0  0  0  0
  -21.0332  -17.0631  138.9005 C   0  0  0  0  0  0  0  0  0  0  0  0
  -21.5408  -18.1864  139.8140 C   0  0  0  0  0  0  0  0  0  0  0  0
  -20.7326  -19.3327  139.6820 O   0  0  0  0  0  0  0  0  0  0  0  0
  -22.9749  -17.2268  139.2650 S   0  0  0  0  0  4  0  0  0  0  0  0
  -20.9810  -14.5753  138.4337 C   0  0  0  0  0  0  0  0  0  0  0  0
  -23.0014  -15.6131  139.3366 O   0  0  0  0  0  0  0  0  0  0  0  0
  -27.0426  -19.8085  135.8439 Cl  0  0  0  0  0  0  0  0  0  0  0  0
  -25.6427  -19.9061  136.9542 C   0  0  0  0  0  0  0  0  0  0  0  0
  -25.6612  -16.7376  140.4212 C   0  0  0  0  0  0  0  0  0  0  0  0
  3  2  1  0
  4  1  1  0
  5  3  1  0
  6  4  1  0
  7  1  1  0
  7  2  1  0
  7  6  1  0
  8  5  1  0
  9  8  1  0
 10  8  1  0
 11  8  1  0
 11  9  1  0
 12  4  1  0
 13 12  1  0
 15 14  1  0
 16 15  1  0
 17 10  1  0
 17 16  1  0
 18 12  1  0
 18 13  1  0
 18 16  1  0
 19 14  1  0
 19 18  1  0
 20 13  1  0
 20 14  1  0
 22  2  1  0
 22  7  1  0
 22 21  1  0
 23  4  1  0
M  END
$$$$

     RDKit          3D

 24 25  0  0  0  0  0  0  0  0999 V2000
  -24.1458   -1.2788  137.8686 O   0  0  0  0  0  0  0  0  0  0  0  0
  -23.9027   -0.7895  139.1665 C   0  0  0  0  0  0  0  0  0  0  0  0
  -25.0860   -0.7093  139.9154 O   0  0  0  0  0  0  0  0  0  0  0  0
  -23.6036   -0.1145  137.2941 C   0  0  0  0  0  0  0  0  0  0  0  0
  -23.4013    0.5602  138.6502 C   0  0  0  0  0  0  0  0  0  0  0  0
  -21.8903    0.8508  138.9240 C   0  0  0  0  0  0  0  0  0  0  0  0
  -24.3270    1.8027  138.8480 C   0  0  0  0  0  0  0  0  0  0  0  0
  -25.8276    1.6540  138.4721 C   0  0  0  0  0  0  0  0  0  0  0  0
  -21.5100    1.5086  140.2961 C   0  0  0  0  0  0  0  0  0  0  0  0
  -21.0374    2.9952  140.2956 C   0  0  0  0  0  0  0  0  0  0  0  0
  -20.6645    0.6710  141.2938 C   0  0  0  0  0  0  0  0  0  0  0  0
  -22.1783    4.0151  140.4184 C   0  0  0  0  0  0  0  0  0  0  0  0
  -21.6318    5.4281  140.6863 C   0  0  0  0  0  0  0  0  0  0  0  0
  -22.1332    0.9641  141.5851 C   0  0  0  0  0  0  0  0  0  0  0  0
  -26.2588    2.6574  137.3935 C   0  0  0  0  0  0  0  0  0  0  0  0
  -22.7478    6.4464  140.9517 C   0  0  0  0  0  0  0  0  0  0  0  0
  -23.5070    6.8526  139.6706 C   0  0  0  0  0  0  0  0  0  0  0  0
  -27.6155    2.4796  137.0788 O   0  0  0  0  0  0  0  0  0  0  0  0
  -24.9884    7.2484  139.8873 C   0  0  0  0  0  0  0  0  0  0  0  0
  -25.9225    6.0341  140.1113 C   0  0  0  0  0  0  0  0  0  0  0  0
  -26.0017    5.6574  141.4611 O   0  0  0  0  0  0  0  0  0  0  0  0
  -25.1649    8.3384  140.9544 C   0  0  0  0  0  0  0  0  0  0  0  0
  -20.3662   -0.8249  141.1094 C   0  0  0  0  0  0  0  0  0  0  0  0
  -18.9926   -1.0146  140.4746 C   0  0  0  0  0  0  0  0  0  0  0  0
  2  1  1  0
  3  2  1  0
  4  1  1  0
  5  2  1  0
  5  4  1  0
  6  5  1  0
  7  5  1  0
  8  7  1  0
  9  6  1  0
 10  9  1  0
 11  9  1  0
 12 10  1  0
 13 12  1  0
 14  9  1  0
 14 11  1  0
 15  8  1  0
 16 13  1  0
 17 16  1  0
 18 15  1  0
 19 17  1  0
 20 19  1  0
 21 20  1  0
 22 19  1  0
 23 11  1  0
 24 23  1  0
M  END
$$$$

     RDKit          3D

 24 25  0  0  0  0  0  0  0  0999 V2000
  -20.2973   -4.8036  138.4434 C   0  0  0  0  0  0  0  0  0  0  0  0
  -19.9259   -5.9436  138.8253 O   0  0  0  0  0  0  0  0  0  0  0  0
  -21.6469   -4.4725  138.4661 O   0  0  0  0  0  0  0  0  0  0  0  0
  -19.2959   -3.8205  137.9170 C   0  0  0  0  0  0  0  0  0  0  0  0
  -18.7034   -5.1826  135.7760 C   0  0  0  0  0  0  0  0  0  0  0  0
  -18.5105   -2.5969  135.7790 C   0  0  0  0  0  0  0  0  0  0  0  0
  -17.2503   -2.1366  136.5498 C   0  0  0  0  0  0  0  0  0  0  0  0
  -17.2482   -5.5025  136.0522 C   0  0  0  0  0  0  0  0  0  0  0  0
  -16.2935   -5.0624  135.2033 C   0  0  0  0  0  0  0  0  0  0  0  0
  -16.8850   -6.2905  137.3000 C   0  0  0  0  0  0  0  0  0  0  0  0
  -14.8321   -5.3538  135.4119 C   0  0  0  0  0  0  0  0  0  0  0  0
  -19.2226   -3.8439  136.3684 C   0  0  0  0  0  0  0  0  0  0  0  0
  -16.4333   -1.2454  135.7305 N   0  0  0  0  0  0  0  0  0  0  0  0
  -14.4794   -6.8244  135.1412 C   0  0  0  0  0  0  0  0  0  0  0  0
  -15.9557   -7.5110  137.1195 C   0  0  0  0  0  0  0  0  0  0  0  0
  -15.0728   -7.9775  138.3074 C   0  0  0  0  0  0  0  0  0  0  0  0
  -14.3430   -6.8442  138.9925 C   0  0  0  0  0  0  0  0  0  0  0  0
  -15.4912   -7.8472  135.6805 C   0  0  0  0  0  0  0  0  0  0  0  0
  -12.9673   -6.5021  138.5266 C   0  0  0  0  0  0  0  0  0  0  0  0
  -12.1763   -5.5267  139.0030 C   0  0  0  0  0  0  0  0  0  0  0  0
  -12.6067   -4.5257  139.9976 C   0  0  0  0  0  0  0  0  0  0  0  0
  -14.8972   -6.2392  140.0507 C   0  0  0  0  0  0  0  0  0  0  0  0
  -17.4555   -7.7035  137.3708 C   0  0  0  0  0  0  0  0  0  0  0  0
  -11.8619   -3.7419  140.8384 C   0  0  0  0  0  0  0  0  0  0  0  0
  2  1  2  0
  3  1  1  0
  4  1  1  0
  7  6  1  0
  8  5  1  0
  9  8  2  0
 10  8  1  0
 11  9  1  0
 12  4  1  0
 12  5  1  0
 12  6  1  0
 13  7  1  0
 14 11  1  0
 15 10  1  0
 16 15  1  0
 17 16  1  0
 18 14  1  0
 18 15  1  0
 19 17  1  0
 20 19  2  3
 21 20  1  0
 22 17  2  0
 23 10  1  0
 23 15  1  0
 24 21  2  0
M  END
$$$$

     RDKit          3D

 24 31  0  0  0  0  0  0  0  0999 V2000
  -27.0764  -14.1667  144.1819 C   0  0  0  0  0  0  0  0  0  0  0  0
  -27.1258  -15.5880  144.8263 C   0  0  0  0  0  0  0  0  0  0  0  0
  -26.8476  -16.7359  143.7540 C   0  0  0  0  0  0  0  0  0  0  0  0
  -28.1934  -13.8583  143.1394 C   0  0  0  0  0  0  0  0  0  0  0  0
  -25.9064  -17.9267  144.1585 C   0  0  0  0  0  0  0  0  0  0  0  0
  -26.2877  -15.5961  146.1437 C   0  0  0  0  0  0  0  0  0  0  0  0
  -27.7961  -13.6394  141.6587 C   0  0  0  0  0  0  0  0  0  0  0  0
  -24.3796  -17.8860  143.7761 C   0  0  0  0  0  0  0  0  0  0  0  0
  -28.2448  -14.7930  140.7337 C   0  0  0  0  0  0  0  0  0  0  0  0
  -29.6673  -14.0399  143.5332 C   0  0  0  0  0  0  0  0  0  0  0  0
  -29.0581  -12.6517  143.5316 C   0  0  0  0  0  0  0  0  0  0  0  0
  -27.8043  -14.6711  139.2943 C   0  0  0  0  0  0  0  0  0  0  0  0
  -28.3683  -12.2916  141.2002 C   0  0  0  0  0  0  0  0  0  0  0  0
  -29.8772  -12.1654  141.0262 C   0  0  0  0  0  0  0  0  0  0  0  0
  -23.3827  -17.1666  144.7157 C   0  0  0  0  0  0  0  0  0  0  0  0
  -24.7955  -15.4193  145.8621 C   0  0  0  0  0  0  0  0  0  0  0  0
  -24.0915  -16.7610  146.0082 C   0  0  0  0  0  0  0  0  0  0  0  0
  -27.0859  -15.8678  138.7483 C   0  0  0  0  0  0  0  0  0  0  0  0
  -28.2008  -17.3364  143.3112 C   0  0  0  0  0  0  0  0  0  0  0  0
  -27.1299  -15.7030  140.2513 C   0  0  0  0  0  0  0  0  0  0  0  0
  -23.6966  -15.6001  146.8968 C   0  0  0  0  0  0  0  0  0  0  0  0
  -30.3021  -11.0290  140.0981 C   0  0  0  0  0  0  0  0  0  0  0  0
  -29.2103  -11.7153  142.3278 C   0  0  0  0  0  0  0  0  0  0  0  0
  -23.7365  -16.5814  143.3411 C   0  0  0  0  0  0  0  0  0  0  0  0
  2  1  1  0
  3  2  1  0
  4  1  1  0
  5  3  1  0
  6  2  1  0
  7  4  1  0
  8  5  1  0
  9  7  1  0
 10  4  1  0
 11  4  1  0
 11 10  1  0
 12  9  1  0
 13  7  1  0
 14 13  1  0
 15  8  1  0
 16  6  1  0
 17 15  1  0
 17 16  1  0
 18 12  1  0
 19  3  1  0
 20  9  1  0
 20 12  1  0
 20 18  1  0
 21 16  1  0
 21 17  1  0
 22 14  1  0
 23 11  1  0
 23 13  1  0
 23 14  1  0
 24  8  1  0
 24 15  1  0
M  END
$$$$

     RDKit          3D

 24 29  0  0  0  0  0  0  0  0999 V2000
  -21.0872    2.3523  143.3607 C   0  0  0  0  0  0  0  0  0  0  0  0
  -20.1606    3.2991  142.5722 C   0  0  0  0  0  0  0  0  0  0  0  0
  -20.5059    3.9267  141.1479 C   0  0  0  0  0  0  0  0  0  0  0  0
  -21.6916    4.7151  140.4951 C   0  0  0  0  0  0  0  0  0  0  0  0
  -21.3475    5.4877  139.2833 N   0  0  0  0  0  0  0  0  0  0  0  0
  -21.7633    3.1834  140.5227 C   0  0  0  0  0  0  0  0  0  0  0  0
  -20.5129    5.4510  138.2536 C   0  0  0  0  0  0  0  0  0  0  0  0
  -19.5520    0.1832  142.6220 C   0  0  0  0  0  0  0  0  0  0  0  0
  -19.9746    0.2136  141.1266 C   0  0  0  0  0  0  0  0  0  0  0  0
  -19.5275    4.4235  138.0520 N   0  0  0  0  0  0  0  0  0  0  0  0
  -20.4583    6.6363  137.3627 N   0  0  0  0  0  0  0  0  0  0  0  0
  -20.6751    0.8323  143.4757 C   0  0  0  0  0  0  0  0  0  0  0  0
  -20.3654    0.5363  144.8346 O   0  0  0  0  0  0  0  0  0  0  0  0
  -19.8356    3.0978  137.4778 C   0  0  0  0  0  0  0  0  0  0  0  0
  -18.6417    0.8184  141.5055 C   0  0  0  0  0  0  0  0  0  0  0  0
  -22.7684    1.5129  138.6983 C   0  0  0  0  0  0  0  0  0  0  0  0
  -22.8907    0.1764  139.4967 C   0  0  0  0  0  0  0  0  0  0  0  0
  -21.2568   -1.7194  140.1456 C   0  0  0  0  0  0  0  0  0  0  0  0
  -19.3806    4.2967  143.4828 C   0  0  0  0  0  0  0  0  0  0  0  0
  -19.8646   -1.0800  140.3407 C   0  0  0  0  0  0  0  0  0  0  0  0
  -20.3012    2.1775  138.5657 C   0  0  0  0  0  0  0  0  0  0  0  0
  -22.0004   -0.9894  139.0170 C   0  0  0  0  0  0  0  0  0  0  0  0
  -21.6786    2.5662  139.0378 C   0  0  0  0  0  0  0  0  0  0  0  0
  -20.5570    4.6861  142.5191 C   0  0  0  0  0  0  0  0  0  0  0  0
  2  1  1  0
  3  2  1  0
  4  3  1  0
  5  4  1  0
  6  3  1  0
  6  4  1  0
  7  5  2  3
  9  8  1  0
 10  7  1  0
 11  7  1  0
 12  1  1  0
 12  8  1  0
 13 12  1  0
 14 10  1  0
 15  8  1  0
 15  9  1  0
 17 16  1  0
 19  2  1  0
 20  9  1  0
 20 18  1  0
 21 14  1  0
 22 17  1  0
 22 18  1  0
 23  6  1  0
 23 16  1  0
 23 21  1  0
 24  2  1  0
 24  3  1  0
 24 19  1  0
M  END
$$$$

     RDKit          3D

 19 19  0  0  0  0  0  0  0  0999 V2000
  -23.5283  -22.5763  145.9898 C   0  0  0  0  0  0  0  0  0  0  0  0
  -25.3419  -24.2791  145.3396 C   0  0  0  0  0  0  0  0  0  0  0  0
  -26.5396  -24.0719  146.2860 C   0  0  0  0  0  0  0  0  0  0  0  0
  -26.7368  -25.2532  147.2427 C   0  0  0  0  0  0  0  0  0  0  0  0
  -28.0451  -25.0004  148.2094 C   0  0  0  0  0  0  0  0  0  0  0  0
  -23.9691  -24.0484  146.0060 C   0  0  0  0  0  0  0  0  0  0  0  0
  -24.3197  -21.7981  146.8453 O   0  0  0  0  0  0  0  0  0  0  0  0
  -27.9929  -24.5201  149.6144 C   0  0  0  0  0  0  0  0  0  0  0  0
  -29.2242  -24.3766  150.4116 C   0  0  0  0  0  0  0  0  0  0  0  0
  -30.3448  -25.1109  150.2884 C   0  0  0  0  0  0  0  0  0  0  0  0
  -29.4541  -25.3120  147.4425 C   0  0  0  0  0  0  0  0  0  0  0  0
  -30.1381  -26.4570  148.1444 C   0  0  0  0  0  0  0  0  0  0  0  0
  -30.4163  -27.8041  147.4654 C   0  0  0  0  0  0  0  0  0  0  0  0
  -30.5382  -26.3078  149.4286 C   0  0  0  0  0  0  0  0  0  0  0  0
  -30.3573  -27.8260  145.9124 C   0  0  0  0  0  0  0  0  0  0  0  0
  -28.9705  -27.8386  145.3062 C   0  0  0  0  0  0  0  0  0  0  0  0
  -29.6193  -29.6571  149.1772 C   0  0  0  0  0  0  0  0  0  0  0  0
  -28.2179  -28.9427  145.2597 C   0  0  0  0  0  0  0  0  0  0  0  0
  -29.5206  -28.8789  148.0521 C   0  0  0  0  0  0  0  0  0  0  0  0
  3  2  1  0
  4  3  1  0
  5  4  1  0
  6  1  1  0
  6  2  1  0
  7  1  1  0
  8  5  2  0
  9  8  1  0
 10  9  2  0
 11  5  1  0
 12 11  1  0
 13 12  1  0
 14 10  1  0
 14 12  2  0
 15 13  1  0
 16 15  1  0
 18 16  2  0
 19 13  1  0
 19 17  2  0
M  END
$$$$

     RDKit          3D

 24 27  0  0  0  0  0  0  0  0999 V2000
  -27.4314    0.2996  141.2178 O   0  0  0  0  0  0  0  0  0  0  0  0
  -26.5100   -0.2280  142.1684 C   0  0  0  0  0  0  0  0  0  0  0  0
  -25.4185   -0.8071  141.9838 O   0  0  0  0  0  0  0  0  0  0  0  0
  -26.8043   -1.4570  142.9967 C   0  0  0  0  0  0  0  0  0  0  0  0
  -26.1390   -1.4081  144.4083 C   0  0  0  0  0  0  0  0  0  0  0  0
  -24.5310   -1.3305  144.6892 C   0  0  0  0  0  0  0  0  0  0  0  0
  -28.4262   -3.3714  142.0724 C   0  0  0  0  0  0  0  0  0  0  0  0
  -25.9990   -3.2016  141.0588 C   0  0  0  0  0  0  0  0  0  0  0  0
  -25.8185   -4.6311  140.4097 C   0  0  0  0  0  0  0  0  0  0  0  0
  -26.9468   -2.9198  142.3636 C   0  0  0  0  0  0  0  0  0  0  0  0
  -29.1864   -2.3895  141.1856 C   0  0  0  0  0  0  0  0  0  0  0  0
  -26.3036   -5.9147  141.0204 C   0  0  0  0  0  0  0  0  0  0  0  0
  -23.8609   -2.4247  145.6020 C   0  0  0  0  0  0  0  0  0  0  0  0
  -27.1145   -1.6555  145.5807 C   0  0  0  0  0  0  0  0  0  0  0  0
  -27.4642   -6.5722  140.3024 C   0  0  0  0  0  0  0  0  0  0  0  0
  -27.0339   -5.2428  139.7331 C   0  0  0  0  0  0  0  0  0  0  0  0
  -28.6598    0.8746  141.6549 C   0  0  0  0  0  0  0  0  0  0  0  0
  -24.0982   -3.8902  145.1603 C   0  0  0  0  0  0  0  0  0  0  0  0
  -23.9823   -2.1976  146.9696 O   0  0  0  0  0  0  0  0  0  0  0  0
  -26.8029   -0.2310  145.1522 C   0  0  0  0  0  0  0  0  0  0  0  0
  -29.8895    0.0456  141.2800 C   0  0  0  0  0  0  0  0  0  0  0  0
  -30.0409   -1.3352  141.9396 C   0  0  0  0  0  0  0  0  0  0  0  0
  -22.8721   -4.7944  145.3906 C   0  0  0  0  0  0  0  0  0  0  0  0
  -25.3119   -4.5933  145.8607 C   0  0  0  0  0  0  0  0  0  0  0  0
  2  1  1  0
  3  2  2  0
  4  2  1  0
  5  4  1  0
  6  5  1  0
  9  8  1  0
 10  4  1  0
 10  7  1  0
 10  8  1  0
 11  7  1  0
 12  9  1  0
 13  6  1  0
 14  5  1  0
 15 12  1  0
 16  9  1  0
 16 12  1  0
 16 15  1  0
 17  1  1  0
 18 13  1  0
 19 13  1  0
 20  5  1  0
 20 14  1  0
 21 17  1  0
 22 11  1  0
 22 21  1  0
 23 18  1  0
 24 18  1  0
M  END
$$$$

     RDKit          3D

 14 15  0  0  0  0  0  0  0  0999 V2000
  -28.8063   -5.9273  142.7215 C   0  0  0  0  0  0  0  0  0  0  0  0
  -29.2254   -5.2652  144.0448 C   0  0  0  0  0  0  0  0  0  0  0  0
  -29.2010   -3.7410  144.1946 C   0  0  0  0  0  0  0  0  0  0  0  0
  -28.7118   -2.8738  143.0186 C   0  0  0  0  0  0  0  0  0  0  0  0
  -27.3146   -6.2401  142.7296 C   0  0  0  0  0  0  0  0  0  0  0  0
  -28.9381   -1.3855  143.3010 C   0  0  0  0  0  0  0  0  0  0  0  0
  -30.5239   -4.4681  143.9692 C   0  0  0  0  0  0  0  0  0  0  0  0
  -30.4341   -1.0397  143.2990 C   0  0  0  0  0  0  0  0  0  0  0  0
  -30.7638    0.3050  143.9320 C   0  0  0  0  0  0  0  0  0  0  0  0
  -31.9160    0.9614  143.3223 N   0  0  0  0  0  0  0  0  0  0  0  0
  -31.8116    1.6389  142.0650 C   0  0  0  0  0  0  0  0  0  0  0  0
  -31.1103   -0.9834  144.6653 C   0  0  0  0  0  0  0  0  0  0  0  0
  -30.7173    1.6540  141.4387 O   0  0  0  0  0  0  0  0  0  0  0  0
  -32.9965    2.3534  141.5023 C   0  0  0  0  0  0  0  0  0  0  0  0
  2  1  1  0
  3  2  1  0
  4  3  1  0
  5  1  1  0
  6  4  1  0
  7  2  1  0
  7  3  1  0
  8  6  1  0
  9  8  1  0
 10  9  1  0
 11 10  1  0
 12  8  1  0
 12  9  1  0
 13 11  2  0
 14 11  1  0
M  END
$$$$

     RDKit          3D

 11 12  0  0  0  0  0  0  0  0999 V2000
  -32.4443   -9.2209  136.4268 O   0  0  0  0  0  0  0  0  0  0  0  0
  -30.6626   -8.4513  135.5722 C   0  0  0  0  0  0  0  0  0  0  0  0
  -29.3750   -8.4872  136.1740 O   0  0  0  0  0  0  0  0  0  0  0  0
  -31.7886   -7.9742  136.4673 C   0  0  0  0  0  0  0  0  0  0  0  0
  -32.5584   -6.9868  135.8764 F   0  0  0  0  0  0  0  0  0  0  0  0
  -31.4118   -7.6358  137.7565 F   0  0  0  0  0  0  0  0  0  0  0  0
  -29.4192   -9.2344  137.2660 O   0  0  0  0  0  0  0  0  0  0  0  0
  -28.0649  -10.7222  138.3906 O   0  0  0  0  0  0  0  0  0  0  0  0
  -31.4559   -9.7475  135.5679 C   0  0  0  0  0  0  0  0  0  0  0  0
  -27.1529   -9.7393  137.9582 C   0  0  0  0  0  0  0  0  0  0  0  0
  -28.3342  -10.1100  137.1527 C   0  0  0  0  0  0  0  0  0  0  0  0
  3  2  1  0
  4  1  1  0
  4  2  1  0
  5  4  1  0
  6  4  1  0
  7  3  1  0
  9  1  1  0
  9  2  1  0
 10  8  1  0
 11  7  1  0
 11  8  1  0
 11 10  1  0
M  END
$$$$

     RDKit          3D

 24 28  0  0  0  0  0  0  0  0999 V2000
  -24.1078  -14.5143  155.9119 N   0  0  0  0  0  0  0  0  0  0  0  0
  -24.0790  -14.3924  157.3608 C   0  0  0  0  0  0  0  0  0  0  0  0
  -22.8903  -14.7134  158.0133 O   0  0  0  0  0  0  0  0  0  0  0  0
  -24.9467  -15.6771  155.5153 C   0  0  0  0  0  0  0  0  0  0  0  0
  -25.4093  -14.5187  158.1072 C   0  0  0  0  0  0  0  0  0  0  0  0
  -26.3721  -15.4980  154.9759 C   0  0  0  0  0  0  0  0  0  0  0  0
  -26.1674  -15.8973  156.4261 C   0  0  0  0  0  0  0  0  0  0  0  0
  -26.5109  -14.8355  157.2868 O   0  0  0  0  0  0  0  0  0  0  0  0
  -24.5341  -13.1876  155.4502 C   0  0  0  0  0  0  0  0  0  0  0  0
  -24.7999  -13.1388  157.7711 C   0  0  0  0  0  0  0  0  0  0  0  0
  -25.2991  -12.5418  156.5259 N   0  0  0  0  0  0  0  0  0  0  0  0
  -24.2715  -12.1256  158.8456 C   0  0  0  0  0  0  0  0  0  0  0  0
  -22.9957  -11.6491  158.4924 O   0  0  0  0  0  0  0  0  0  0  0  0
  -23.9345  -13.7410  160.9478 C   0  0  0  0  0  0  0  0  0  0  0  0
  -25.3462  -14.0204  161.4754 C   0  0  0  0  0  0  0  0  0  0  0  0
  -22.5102  -11.7531  159.8225 C   0  0  0  0  0  0  0  0  0  0  0  0
  -23.8592  -12.3441  160.3051 C   0  0  0  0  0  0  0  0  0  0  0  0
  -22.2612  -10.2914  160.3159 C   0  0  0  0  0  0  0  0  0  0  0  0
  -21.6341  -10.0989  161.7128 C   0  0  0  0  0  0  0  0  0  0  0  0
  -22.6188  -10.2468  162.8784 C   0  0  0  0  0  0  0  0  0  0  0  0
  -21.1936  -12.6011  159.7710 C   0  0  0  0  0  0  0  0  0  0  0  0
  -22.9229  -11.6040  163.0880 O   0  0  0  0  0  0  0  0  0  0  0  0
  -23.7175  -11.7430  164.2450 C   0  0  0  0  0  0  0  0  0  0  0  0
  -20.8130  -13.4273  161.0045 C   0  0  0  0  0  0  0  0  0  0  0  0
  2  1  1  0
  3  2  1  0
  4  1  1  0
  5  2  1  0
  6  4  1  0
  7  4  1  0
  7  6  1  0
  8  5  1  0
  8  7  1  0
  9  1  1  0
 10  2  1  0
 10  5  1  0
 11  9  1  0
 11 10  1  0
 12 10  1  0
 13 12  1  0
 15 14  1  0
 16 13  1  0
 17 12  1  0
 17 14  1  0
 17 16  1  0
 18 16  1  0
 19 18  1  0
 20 19  1  0
 21 16  1  0
 22 20  1  0
 23 22  1  0
 24 21  1  0
M  END
$$$$

     RDKit          3D

 22 24  0  0  0  0  0  0  0  0999 V2000
  -18.6560  -23.4198  134.2610 C   0  0  0  0  0  0  0  0  0  0  0  0
  -16.4896  -24.3594  133.5794 C   0  0  0  0  0  0  0  0  0  0  0  0
  -15.6081  -23.8097  135.4777 C   0  0  0  0  0  0  0  0  0  0  0  0
  -15.8310  -22.5565  136.3600 C   0  0  0  0  0  0  0  0  0  0  0  0
  -17.7436  -23.6393  133.0571 C   0  0  0  0  0  0  0  0  0  0  0  0
  -15.9758  -22.8902  137.8617 C   0  0  0  0  0  0  0  0  0  0  0  0
  -18.1901  -23.6939  137.4915 C   0  0  0  0  0  0  0  0  0  0  0  0
  -15.3659  -23.4237  134.0204 C   0  0  0  0  0  0  0  0  0  0  0  0
  -16.5023  -18.0526  139.0853 C   0  0  0  0  0  0  0  0  0  0  0  0
  -16.7540  -24.7726  135.0294 C   0  0  0  0  0  0  0  0  0  0  0  0
  -18.8123  -24.4117  136.6133 C   0  0  0  0  0  0  0  0  0  0  0  0
  -15.4718  -18.0992  140.2415 C   0  0  0  0  0  0  0  0  0  0  0  0
  -18.2743  -24.5387  135.2127 C   0  0  0  0  0  0  0  0  0  0  0  0
  -17.4200  -22.9806  138.2595 C   0  0  0  0  0  0  0  0  0  0  0  0
  -18.2218  -20.6608  138.8224 C   0  0  0  0  0  0  0  0  0  0  0  0
  -17.9911  -22.0916  139.3326 C   0  0  0  0  0  0  0  0  0  0  0  0
  -17.9565  -18.3992  139.5223 C   0  0  0  0  0  0  0  0  0  0  0  0
  -19.0641  -17.8510  138.5686 C   0  0  0  0  0  0  0  0  0  0  0  0
  -14.9535  -19.5134  140.5609 C   0  0  0  0  0  0  0  0  0  0  0  0
  -18.1253  -19.7576  139.9140 O   0  0  0  0  0  0  0  0  0  0  0  0
  -18.8100  -18.0227  137.0645 C   0  0  0  0  0  0  0  0  0  0  0  0
  -13.8662  -19.9692  139.5833 C   0  0  0  0  0  0  0  0  0  0  0  0
  4  3  1  0
  5  1  1  0
  5  2  1  0
  6  4  1  0
  8  2  1  0
  8  3  1  0
 10  2  1  0
 10  3  1  0
 11  7  2  0
 12  9  1  0
 13  1  1  0
 13 10  1  0
 13 11  1  0
 14  6  1  0
 14  7  2  0
 16 14  1  0
 16 15  1  0
 17  9  1  0
 18 17  1  0
 19 12  1  0
 20 15  1  0
 20 17  1  0
 21 18  1  0
 22 19  1  0
M  END
$$$$

     RDKit          3D

 24 26  0  0  0  0  0  0  0  0999 V2000
  -18.8326   -7.1607  139.3317 C   0  0  0  0  0  0  0  0  0  0  0  0
  -19.4481   -5.8805  138.7797 C   0  0  0  0  0  0  0  0  0  0  0  0
  -19.7928   -8.2475  139.8889 C   0  0  0  0  0  0  0  0  0  0  0  0
  -20.8037   -5.6983  139.0668 O   0  0  0  0  0  0  0  0  0  0  0  0
  -17.7279   -7.6284  138.4989 N   0  0  0  0  0  0  0  0  0  0  0  0
  -20.4429   -7.9201  141.2536 C   0  0  0  0  0  0  0  0  0  0  0  0
  -21.9766   -7.9523  141.4161 C   0  0  0  0  0  0  0  0  0  0  0  0
  -23.6407   -7.0865  139.8592 C   0  0  0  0  0  0  0  0  0  0  0  0
  -25.1114   -7.3582  140.2578 C   0  0  0  0  0  0  0  0  0  0  0  0
  -25.6767   -8.5063  139.5277 N   0  0  0  0  0  0  0  0  0  0  0  0
  -22.7376   -8.2093  140.1848 N   0  0  0  0  0  0  0  0  0  0  0  0
  -21.1418   -9.1485  141.8555 C   0  0  0  0  0  0  0  0  0  0  0  0
  -23.5779   -6.8437  138.4981 F   0  0  0  0  0  0  0  0  0  0  0  0
  -27.1470   -8.4022  139.4772 C   0  0  0  0  0  0  0  0  0  0  0  0
  -20.9381   -8.3986  144.2759 C   0  0  0  0  0  0  0  0  0  0  0  0
  -20.9816   -9.3679  143.3483 C   0  0  0  0  0  0  0  0  0  0  0  0
  -27.7780   -9.0464  138.2310 C   0  0  0  0  0  0  0  0  0  0  0  0
  -18.5826   -5.8227  140.0292 C   0  0  0  0  0  0  0  0  0  0  0  0
  -29.2514   -9.5538  138.2438 C   0  0  0  0  0  0  0  0  0  0  0  0
  -27.6696   -7.5228  138.3480 C   0  0  0  0  0  0  0  0  0  0  0  0
  -29.9115   -9.6065  139.6351 C   0  0  0  0  0  0  0  0  0  0  0  0
  -29.3839  -10.9032  137.4926 C   0  0  0  0  0  0  0  0  0  0  0  0
  -28.9239  -12.1631  138.2574 C   0  0  0  0  0  0  0  0  0  0  0  0
  -27.4325  -12.1704  138.5866 C   0  0  0  0  0  0  0  0  0  0  0  0
  2  1  1  0
  3  1  1  0
  4  2  1  0
  5  1  1  0
  6  3  1  0
  7  6  1  0
  9  8  1  0
 10  9  1  0
 11  7  1  0
 11  8  1  0
 12  6  1  0
 12  7  1  0
 13  8  1  0
 14 10  1  0
 16 12  1  0
 16 15  2  0
 17 14  1  0
 18  1  1  0
 18  2  1  0
 19 17  1  0
 20 14  1  0
 20 17  1  0
 21 19  1  0
 22 19  1  0
 23 22  1  0
 24 23  1  0
M  END
$$$$

     RDKit          3D

 24 29  0  0  0  0  0  0  0  0999 V2000
  -28.8684  -11.1497  144.7694 O   0  0  0  0  0  0  0  0  0  0  0  0
  -28.0977   -9.9998  145.0369 C   0  0  0  0  0  0  0  0  0  0  0  0
  -28.8252   -8.8142  144.8078 O   0  0  0  0  0  0  0  0  0  0  0  0
  -27.4201  -10.0073  146.4590 C   0  0  0  0  0  0  0  0  0  0  0  0
  -28.0259  -10.9827  147.5345 C   0  0  0  0  0  0  0  0  0  0  0  0
  -25.9219  -10.2387  146.3235 C   0  0  0  0  0  0  0  0  0  0  0  0
  -24.9978   -9.8884  147.2342 C   0  0  0  0  0  0  0  0  0  0  0  0
  -25.3131   -9.3418  148.6031 C   0  0  0  0  0  0  0  0  0  0  0  0
  -29.5004  -10.7171  147.8731 C   0  0  0  0  0  0  0  0  0  0  0  0
  -30.0824   -9.3294  147.8929 C   0  0  0  0  0  0  0  0  0  0  0  0
  -29.5996   -8.4210  148.7602 C   0  0  0  0  0  0  0  0  0  0  0  0
  -30.0034   -6.9692  148.8955 C   0  0  0  0  0  0  0  0  0  0  0  0
  -30.8196   -4.9861  147.4924 C   0  0  0  0  0  0  0  0  0  0  0  0
  -27.9324  -12.4794  147.1537 C   0  0  0  0  0  0  0  0  0  0  0  0
  -30.2488   -4.9538  146.0567 C   0  0  0  0  0  0  0  0  0  0  0  0
  -28.8256   -5.4655  145.8396 C   0  0  0  0  0  0  0  0  0  0  0  0
  -29.0963   -3.9716  145.8573 C   0  0  0  0  0  0  0  0  0  0  0  0
  -25.1108  -10.3676  149.7094 C   0  0  0  0  0  0  0  0  0  0  0  0
  -24.1260   -9.2268  149.5472 C   0  0  0  0  0  0  0  0  0  0  0  0
  -29.3701  -12.9961  147.0305 C   0  0  0  0  0  0  0  0  0  0  0  0
  -30.1177  -13.0438  148.3515 C   0  0  0  0  0  0  0  0  0  0  0  0
  -30.1551  -11.6368  148.8988 C   0  0  0  0  0  0  0  0  0  0  0  0
  -31.1328   -6.4172  147.9955 C   0  0  0  0  0  0  0  0  0  0  0  0
  -30.3348  -11.8806  147.4107 C   0  0  0  0  0  0  0  0  0  0  0  0
  2  1  1  0
  3  2  1  0
  4  2  1  0
  5  4  1  0
  6  4  1  0
  7  6  2  3
  8  7  1  0
  9  5  1  0
 10  9  1  0
 11 10  2  3
 12 11  1  0
 14  5  1  0
 15 13  1  0
 16 15  1  0
 17 15  1  0
 17 16  1  0
 18  8  1  0
 19  8  1  0
 19 18  1  0
 20 14  1  0
 21 20  1  0
 22  9  1  0
 22 21  1  0
 23 12  1  0
 23 13  1  0
 24  9  1  0
 24 20  1  0
 24 21  1  0
 24 22  1  0
M  END
$$$$

     RDKit          3D

 24 25  0  0  0  0  0  0  0  0999 V2000
  -33.2148  -18.4246  147.4693 O   0  0  0  0  0  0  0  0  0  0  0  0
  -32.0163  -18.1239  147.7260 C   0  0  0  0  0  0  0  0  0  0  0  0
  -31.1730  -19.0890  148.2791 O   0  0  0  0  0  0  0  0  0  0  0  0
  -31.4728  -16.7438  147.3940 C   0  0  0  0  0  0  0  0  0  0  0  0
  -32.9768  -15.5270  149.0822 O   0  0  0  0  0  0  0  0  0  0  0  0
  -31.9796  -16.7339  144.9085 C   0  0  0  0  0  0  0  0  0  0  0  0
  -31.6849  -16.7501  143.5543 O   0  0  0  0  0  0  0  0  0  0  0  0
  -31.0911  -16.7196  145.8949 N   0  0  0  0  0  0  0  0  0  0  0  0
  -32.4503  -15.5721  147.7558 C   0  0  0  0  0  0  0  0  0  0  0  0
  -31.9622  -14.1624  147.2779 C   0  0  0  0  0  0  0  0  0  0  0  0
  -30.6476  -13.6590  147.9366 C   0  0  0  0  0  0  0  0  0  0  0  0
  -33.1162  -13.1236  147.2769 C   0  0  0  0  0  0  0  0  0  0  0  0
  -30.7279  -12.9055  149.2856 C   0  0  0  0  0  0  0  0  0  0  0  0
  -31.4428  -13.6110  150.4448 C   0  0  0  0  0  0  0  0  0  0  0  0
  -31.0574  -15.0864  150.5929 C   0  0  0  0  0  0  0  0  0  0  0  0
  -32.7404  -11.7905  146.6054 C   0  0  0  0  0  0  0  0  0  0  0  0
  -32.1680  -16.0388  150.1358 C   0  0  0  0  0  0  0  0  0  0  0  0
  -33.9031  -10.7899  146.6591 C   0  0  0  0  0  0  0  0  0  0  0  0
  -33.6006   -9.4807  145.8782 C   0  0  0  0  0  0  0  0  0  0  0  0
  -34.2052   -8.2527  146.6245 C   0  0  0  0  0  0  0  0  0  0  0  0
  -35.7041   -8.3350  146.9141 C   0  0  0  0  0  0  0  0  0  0  0  0
  -35.1801   -7.2873  145.9496 C   0  0  0  0  0  0  0  0  0  0  0  0
  -33.9830   -9.6289  144.3828 C   0  0  0  0  0  0  0  0  0  0  0  0
  -33.2635   -8.6140  143.4903 C   0  0  0  0  0  0  0  0  0  0  0  0
  2  1  2  0
  3  2  1  0
  4  2  1  0
  7  6  1  0
  8  4  1  0
  8  6  2  3
  9  4  1  0
  9  5  1  0
 10  9  1  0
 11 10  1  0
 12 10  1  0
 13 11  1  0
 14 13  1  0
 15 14  1  0
 16 12  1  0
 17  5  1  0
 17 15  1  0
 18 16  1  0
 19 18  1  0
 20 19  1  0
 21 20  1  0
 22 20  1  0
 22 21  1  0
 23 19  1  0
 24 23  1  0
M  END
$$$$

     RDKit          3D

 24 29  0  0  0  0  0  0  0  0999 V2000
  -24.5382   -5.8880  149.4781 C   0  0  0  0  0  0  0  0  0  0  0  0
  -23.8144   -6.4486  148.2043 C   0  0  0  0  0  0  0  0  0  0  0  0
  -22.4665   -7.1462  148.6110 C   0  0  0  0  0  0  0  0  0  0  0  0
  -24.5520   -4.3666  149.6270 C   0  0  0  0  0  0  0  0  0  0  0  0
  -21.4428   -8.2357  148.2003 C   0  0  0  0  0  0  0  0  0  0  0  0
  -25.8615   -5.1268  149.4543 C   0  0  0  0  0  0  0  0  0  0  0  0
  -24.8467   -7.2299  147.3597 C   0  0  0  0  0  0  0  0  0  0  0  0
  -24.1213   -6.0346  146.7552 C   0  0  0  0  0  0  0  0  0  0  0  0
  -25.3929   -4.2871  145.3142 C   0  0  0  0  0  0  0  0  0  0  0  0
  -21.4638   -9.3464  147.1128 C   0  0  0  0  0  0  0  0  0  0  0  0
  -26.6695   -5.3466  150.7459 C   0  0  0  0  0  0  0  0  0  0  0  0
  -28.1789   -5.4519  150.6319 C   0  0  0  0  0  0  0  0  0  0  0  0
  -28.6779   -6.8232  150.2554 C   0  0  0  0  0  0  0  0  0  0  0  0
  -27.2722   -6.7239  150.7540 C   0  0  0  0  0  0  0  0  0  0  0  0
  -20.2129  -10.2785  147.0876 C   0  0  0  0  0  0  0  0  0  0  0  0
  -24.8019   -4.7900  144.3153 O   0  0  0  0  0  0  0  0  0  0  0  0
  -21.2633   -6.8097  147.7117 C   0  0  0  0  0  0  0  0  0  0  0  0
  -24.9685   -4.8077  146.5933 O   0  0  0  0  0  0  0  0  0  0  0  0
  -22.7818  -10.1212  147.2006 C   0  0  0  0  0  0  0  0  0  0  0  0
  -22.4109   -9.3894  145.9183 C   0  0  0  0  0  0  0  0  0  0  0  0
  -19.4579  -10.3272  145.7267 C   0  0  0  0  0  0  0  0  0  0  0  0
  -17.9274  -10.1862  145.9498 C   0  0  0  0  0  0  0  0  0  0  0  0
  -17.5858   -8.8345  146.1277 O   0  0  0  0  0  0  0  0  0  0  0  0
  -19.7807  -11.6343  144.9685 C   0  0  0  0  0  0  0  0  0  0  0  0
  2  1  1  0
  3  2  1  0
  4  1  1  0
  5  3  1  0
  6  1  1  0
  6  4  1  0
  7  2  1  0
  8  2  1  0
  8  7  1  0
 10  5  1  0
 11  6  1  0
 12 11  1  0
 13 12  1  0
 14 11  1  0
 14 12  1  0
 14 13  1  0
 15 10  1  0
 16  9  2  0
 17  3  1  0
 17  5  1  0
 18  8  1  0
 18  9  1  0
 19 10  1  0
 20 10  1  0
 20 19  1  0
 21 15  1  0
 22 21  1  0
 23 22  1  0
 24 21  1  0
M  END
$$$$

     RDKit          3D

 24 26  0  0  0  0  0  0  0  0999 V2000
  -28.4534  -18.8755  144.1832 O   0  0  0  0  0  0  0  0  0  0  0  0
  -29.1718  -18.4055  145.1044 C   0  0  0  0  0  0  0  0  0  0  0  0
  -29.4864  -19.2345  146.1845 O   0  0  0  0  0  0  0  0  0  0  0  0
  -29.6538  -16.9749  144.9578 C   0  0  0  0  0  0  0  0  0  0  0  0
  -28.6085  -15.9638  145.3885 C   0  0  0  0  0  0  0  0  0  0  0  0
  -28.6455  -14.6780  144.5469 C   0  0  0  0  0  0  0  0  0  0  0  0
  -31.0238  -16.6893  145.5406 C   0  0  0  0  0  0  0  0  0  0  0  0
  -27.9585  -13.4687  145.2247 C   0  0  0  0  0  0  0  0  0  0  0  0
  -29.7989  -16.2061  146.2939 C   0  0  0  0  0  0  0  0  0  0  0  0
  -28.7838  -12.9960  146.4503 C   0  0  0  0  0  0  0  0  0  0  0  0
  -28.5695  -11.5186  146.7889 C   0  0  0  0  0  0  0  0  0  0  0  0
  -26.4930  -13.7925  145.6254 C   0  0  0  0  0  0  0  0  0  0  0  0
  -25.5182  -12.5825  145.7296 C   0  0  0  0  0  0  0  0  0  0  0  0
  -26.1698  -11.2014  145.9809 C   0  0  0  0  0  0  0  0  0  0  0  0
  -25.0756  -12.3609  143.1447 C   0  0  0  0  0  0  0  0  0  0  0  0
  -27.1259  -11.1908  147.1847 C   0  0  0  0  0  0  0  0  0  0  0  0
  -25.1874  -13.6933  142.3743 C   0  0  0  0  0  0  0  0  0  0  0  0
  -24.4896  -12.5257  144.5691 C   0  0  0  0  0  0  0  0  0  0  0  0
  -25.2661  -13.5046  140.8513 C   0  0  0  0  0  0  0  0  0  0  0  0
  -26.4396  -12.6103  140.4151 C   0  0  0  0  0  0  0  0  0  0  0  0
  -28.1070  -13.2140  138.4850 C   0  0  0  0  0  0  0  0  0  0  0  0
  -25.8042  -12.4391  138.0210 C   0  0  0  0  0  0  0  0  0  0  0  0
  -26.7383  -12.7515  138.9357 C   0  0  0  0  0  0  0  0  0  0  0  0
  -28.9126  -12.0523  137.9088 C   0  0  0  0  0  0  0  0  0  0  0  0
  2  1  2  0
  3  2  1  0
  4  2  1  0
  5  4  1  0
  6  5  1  0
  7  4  1  0
  8  6  1  0
  9  4  1  0
  9  5  1  0
  9  7  1  0
 10  8  1  0
 11 10  1  0
 12  8  1  0
 13 12  1  0
 14 13  1  0
 16 11  1  0
 16 14  1  0
 17 15  1  0
 18 13  1  0
 18 15  1  0
 19 17  1  0
 20 19  1  0
 23 20  1  0
 23 21  1  0
 23 22  2  0
 24 21  1  0
M  END
$$$$

     RDKit          3D

 24 28  0  0  0  0  0  0  0  0999 V2000
  -25.8089   -8.8053  150.1711 O   0  0  0  0  0  0  0  0  0  0  0  0
  -27.3391  -10.2256  149.0497 C   0  0  0  0  0  0  0  0  0  0  0  0
  -28.2415   -9.6903  148.2017 C   0  0  0  0  0  0  0  0  0  0  0  0
  -27.7727   -7.2361  147.9374 C   0  0  0  0  0  0  0  0  0  0  0  0
  -27.7849   -4.6719  147.6212 C   0  0  0  0  0  0  0  0  0  0  0  0
  -25.9076   -9.7863  149.1774 C   0  0  0  0  0  0  0  0  0  0  0  0
  -27.0114   -4.5788  148.9576 C   0  0  0  0  0  0  0  0  0  0  0  0
  -26.8286   -3.1126  149.3979 C   0  0  0  0  0  0  0  0  0  0  0  0
  -27.0005   -2.9219  150.9321 C   0  0  0  0  0  0  0  0  0  0  0  0
  -27.4679   -1.5337  151.4055 C   0  0  0  0  0  0  0  0  0  0  0  0
  -28.8198   -0.9456  151.0087 C   0  0  0  0  0  0  0  0  0  0  0  0
  -27.7645   -6.0614  146.9421 C   0  0  0  0  0  0  0  0  0  0  0  0
  -27.9707   -8.5793  147.2206 C   0  0  0  0  0  0  0  0  0  0  0  0
  -26.1315   -0.8889  151.0408 C   0  0  0  0  0  0  0  0  0  0  0  0
  -29.0965    0.3692  151.5900 C   0  0  0  0  0  0  0  0  0  0  0  0
  -26.9450   -1.8299  152.8148 C   0  0  0  0  0  0  0  0  0  0  0  0
  -29.7592   -0.8471  152.1357 N   0  0  0  0  0  0  0  0  0  0  0  0
  -25.8860   -2.2306  151.7560 C   0  0  0  0  0  0  0  0  0  0  0  0
  -30.5262    0.4003  151.9580 C   0  0  0  0  0  0  0  0  0  0  0  0
  -30.0568    1.1759  150.7354 C   0  0  0  0  0  0  0  0  0  0  0  0
  -30.8693    3.4966  150.0955 C   0  0  0  0  0  0  0  0  0  0  0  0
  -30.5965    3.4590  148.5869 C   0  0  0  0  0  0  0  0  0  0  0  0
  -29.8490    2.6874  150.9029 C   0  0  0  0  0  0  0  0  0  0  0  0
  -31.6037    4.3147  147.8180 C   0  0  0  0  0  0  0  0  0  0  0  0
  3  2  2  3
  6  1  1  0
  6  2  1  0
  7  5  1  0
  8  7  1  0
  9  8  1  0
 10  9  1  0
 11 10  1  0
 12  4  1  0
 12  5  1  0
 13  3  1  0
 13  4  1  0
 14 10  1  0
 15 11  1  0
 16 10  1  0
 17 11  1  0
 17 15  1  0
 18  9  1  0
 18 14  1  0
 18 16  1  0
 19 15  1  0
 19 17  1  0
 20 15  1  0
 20 19  1  0
 22 21  1  0
 23 20  1  0
 23 21  1  0
 24 22  1  0
M  END
$$$$

     RDKit          3D

 24 30  0  0  0  0  0  0  0  0999 V2000
  -28.4556    0.8200  135.3183 C   0  0  0  0  0  0  0  0  0  0  0  0
  -27.2314    0.4946  137.5909 C   0  0  0  0  0  0  0  0  0  0  0  0
  -28.3411    1.2219  138.2888 C   0  0  0  0  0  0  0  0  0  0  0  0
  -26.6049   -0.9933  135.6876 C   0  0  0  0  0  0  0  0  0  0  0  0
  -28.2152    1.4844  139.8007 C   0  0  0  0  0  0  0  0  0  0  0  0
  -27.0894   -1.7345  134.5107 C   0  0  0  0  0  0  0  0  0  0  0  0
  -27.1562    0.4073  136.0443 C   0  0  0  0  0  0  0  0  0  0  0  0
  -26.1833   -2.8687  133.9928 C   0  0  0  0  0  0  0  0  0  0  0  0
  -25.7080    1.8242  140.3594 C   0  0  0  0  0  0  0  0  0  0  0  0
  -27.6410   -2.0394  135.8536 N   0  0  0  0  0  0  0  0  0  0  0  0
  -27.0944    2.4750  140.1724 C   0  0  0  0  0  0  0  0  0  0  0  0
  -25.9055   -3.0444  132.5694 C   0  0  0  0  0  0  0  0  0  0  0  0
  -28.3678   -0.1766  138.0717 O   0  0  0  0  0  0  0  0  0  0  0  0
  -25.6256    0.7017  141.3317 C   0  0  0  0  0  0  0  0  0  0  0  0
  -25.0669    2.0861  141.7628 C   0  0  0  0  0  0  0  0  0  0  0  0
  -24.8700   -2.3435  131.7066 C   0  0  0  0  0  0  0  0  0  0  0  0
  -27.2980   -4.0826  133.0819 S   0  0  0  0  0  0  0  0  0  0  0  0
  -25.4000   -3.8079  129.6463 C   0  0  0  0  0  0  0  0  0  0  0  0
  -23.7787    2.8511  141.3517 C   0  0  0  0  0  0  0  0  0  0  0  0
  -27.1448   -2.1707  130.4074 C   0  0  0  0  0  0  0  0  0  0  0  0
  -23.6430    1.6630  142.2223 C   0  0  0  0  0  0  0  0  0  0  0  0
  -26.3240   -2.6777  129.2174 C   0  0  0  0  0  0  0  0  0  0  0  0
  -24.3303   -3.2704  130.6002 C   0  0  0  0  0  0  0  0  0  0  0  0
  -26.3155   -1.8507  131.6727 C   0  0  0  0  0  0  0  0  0  0  0  0
  3  2  1  0
  5  3  1  0
  6  4  1  0
  7  1  1  0
  7  2  1  0
  7  4  1  0
  8  6  1  0
 10  4  1  0
 10  6  1  0
 11  5  1  0
 11  9  1  0
 12  8  1  0
 13  2  1  0
 13  3  1  0
 14  9  1  0
 15  9  1  0
 15 14  1  0
 16 12  1  0
 17  8  1  0
 17 12  1  0
 19 15  1  0
 21 15  1  0
 21 19  1  0
 22 18  1  0
 22 20  1  0
 23 16  1  0
 23 18  1  0
 24 12  1  0
 24 16  1  0
 24 20  1  0
M  END
$$$$

     RDKit          3D

 24 26  0  0  0  0  0  0  0  0999 V2000
  -22.9201   -2.9928  136.5347 N   0  0  0  0  0  0  0  0  0  0  0  0
  -24.3779   -2.9041  137.2635 C   0  0  0  0  0  0  0  0  0  0  0  0
  -22.2031   -4.2022  135.8306 C   0  0  0  0  0  0  0  0  0  0  0  0
  -20.4318   -4.1417  135.4785 C   0  0  0  0  0  0  0  0  0  0  0  0
  -23.9430   -4.0815  138.3526 C   0  0  0  0  0  0  0  0  0  0  0  0
  -25.6058   -1.5915  137.0942 C   0  0  0  0  0  0  0  0  0  0  0  0
  -22.6889   -2.5250  139.6092 N   0  0  0  0  0  0  0  0  0  0  0  0
  -19.0576   -5.1027  135.9595 C   0  0  0  0  0  0  0  0  0  0  0  0
  -17.3375   -5.2633  135.5638 C   0  0  0  0  0  0  0  0  0  0  0  0
  -23.2083   -3.8631  139.6011 N   0  0  0  0  0  0  0  0  0  0  0  0
  -16.9707   -5.7369  134.1458 C   0  0  0  0  0  0  0  0  0  0  0  0
  -22.6764   -5.6398  136.2255 C   0  0  0  0  0  0  0  0  0  0  0  0
  -23.6233   -1.4148  139.4580 C   0  0  0  0  0  0  0  0  0  0  0  0
  -19.5695   -5.9821  137.1987 C   0  0  0  0  0  0  0  0  0  0  0  0
  -15.9484   -4.1320  135.7693 C   0  0  0  0  0  0  0  0  0  0  0  0
  -17.0496   -6.5524  136.2230 C   0  0  0  0  0  0  0  0  0  0  0  0
  -14.5413   -4.3270  134.6730 C   0  0  0  0  0  0  0  0  0  0  0  0
  -19.4507   -6.1471  138.7883 C   0  0  0  0  0  0  0  0  0  0  0  0
  -12.9157   -4.1575  135.1311 C   0  0  0  0  0  0  0  0  0  0  0  0
  -25.6197   -2.7722  139.5790 C   0  0  0  0  0  0  0  0  0  0  0  0
  -20.0246   -4.8352  138.1953 C   0  0  0  0  0  0  0  0  0  0  0  0
  -25.2289   -3.6396  138.2993 C   0  0  0  0  0  0  0  0  0  0  0  0
  -12.8881   -3.4960  136.4777 C   0  0  0  0  0  0  0  0  0  0  0  0
  -24.8154   -1.7384  139.7559 C   0  0  0  0  0  0  0  0  0  0  0  0
  2  1  1  0
  3  1  1  0
  4  3  1  0
  5  2  1  0
  6  2  1  0
  8  4  1  0
  9  8  1  0
 10  5  1  0
 10  7  1  0
 11  9  1  0
 12  3  1  0
 13  7  1  0
 14  8  1  0
 15  9  1  0
 16  9  1  0
 17 15  1  0
 18 14  1  0
 19 17  1  0
 21 14  1  0
 21 18  1  0
 22  2  1  0
 22  5  1  0
 22 20  1  0
 23 19  1  0
 24 13  2  0
 24 20  2  0
M  END
$$$$

     RDKit          3D

 11 13  0  0  0  0  0  0  0  0999 V2000
  -25.4451   -9.1973  139.1465 N   0  0  0  0  0  0  0  0  0  0  0  0
  -25.8433   -8.6292  137.8427 C   0  0  0  0  0  0  0  0  0  0  0  0
  -24.7516   -7.8882  137.1931 N   0  0  0  0  0  0  0  0  0  0  0  0
  -26.3256   -7.9829  139.0561 C   0  0  0  0  0  0  0  0  0  0  0  0
  -26.5434   -8.9659  140.1058 C   0  0  0  0  0  0  0  0  0  0  0  0
  -23.6404   -8.8190  136.8650 C   0  0  0  0  0  0  0  0  0  0  0  0
  -21.8802   -7.9194  136.9509 As  0  0  0  0  0  3  0  0  0  0  0  0
  -24.5358   -8.3699  135.7952 C   0  0  0  0  0  0  0  0  0  0  0  0
  -23.9983   -5.1157  136.1450 O   0  0  0  0  0  0  0  0  0  0  0  0
  -22.1712   -6.0163  137.4316 C   0  0  0  0  0  0  0  0  0  0  0  0
  -22.5961   -5.2005  136.2047 C   0  0  0  0  0  0  0  0  0  0  0  0
  2  1  1  0
  3  2  1  0
  4  1  1  0
  4  2  1  0
  5  1  1  0
  5  4  1  0
  6  3  1  0
  7  6  1  0
  8  3  1  0
  8  6  1  0
 10  7  1  0
 11  9  1  0
 11 10  1  0
M  END
$$$$

     RDKit          3D

 18 22  0  0  0  0  0  0  0  0999 V2000
  -23.6906  -17.2757  137.1370 O   0  0  0  0  0  0  0  0  0  0  0  0
  -22.8120  -16.2481  137.4961 C   0  0  0  0  0  0  0  0  0  0  0  0
  -21.8800  -15.7371  136.3850 C   0  0  0  0  0  0  0  0  0  0  0  0
  -21.0092  -14.4988  136.6347 C   0  0  0  0  0  0  0  0  0  0  0  0
  -22.0186  -16.2719  134.9561 C   0  0  0  0  0  0  0  0  0  0  0  0
  -19.6884  -14.8922  137.2665 C   0  0  0  0  0  0  0  0  0  0  0  0
  -22.0793  -17.8326  134.9604 C   0  0  0  0  0  0  0  0  0  0  0  0
  -23.1000  -15.3361  135.6166 C   0  0  0  0  0  0  0  0  0  0  0  0
  -19.6660  -15.2761  138.5566 C   0  0  0  0  0  0  0  0  0  0  0  0
  -23.2119  -15.7365  134.1765 C   0  0  0  0  0  0  0  0  0  0  0  0
  -18.3775  -14.7670  136.4947 C   0  0  0  0  0  0  0  0  0  0  0  0
  -24.0225  -15.9989  136.6390 C   0  0  0  0  0  0  0  0  0  0  0  0
  -21.2173  -18.4870  133.8565 C   0  0  0  0  0  0  0  0  0  0  0  0
  -21.9138  -18.5963  132.5035 C   0  0  0  0  0  0  0  0  0  0  0  0
  -18.3716  -17.1188  135.5163 C   0  0  0  0  0  0  0  0  0  0  0  0
  -18.3724  -15.6206  135.2094 C   0  0  0  0  0  0  0  0  0  0  0  0
  -18.0794  -13.2974  136.1745 C   0  0  0  0  0  0  0  0  0  0  0  0
  -20.7269  -17.6654  132.6641 C   0  0  0  0  0  0  0  0  0  0  0  0
  2  1  1  0
  3  2  1  0
  4  3  1  0
  5  3  1  0
  6  4  1  0
  7  5  1  0
  8  3  1  0
  8  5  1  0
  9  6  2  0
 10  5  1  0
 10  8  1  0
 11  6  1  0
 12  1  1  0
 12  2  1  0
 12  8  1  0
 13  7  1  0
 14 13  1  0
 16 11  1  0
 16 15  1  0
 17 11  1  0
 18 13  1  0
 18 14  1  0
M  END
$$$$

     RDKit          3D

 23 27  0  0  0  0  0  0  0  0999 V2000
  -19.2802   -9.9047  142.9351 O   0  0  0  0  0  0  0  0  0  0  0  0
  -17.1241  -11.1212  143.4373 C   0  0  0  0  0  0  0  0  0  0  0  0
  -18.6141  -10.8473  143.7184 C   0  0  0  0  0  0  0  0  0  0  0  0
  -19.4785  -11.9962  144.2219 C   0  0  0  0  0  0  0  0  0  0  0  0
  -19.0666  -10.8815  145.1738 C   0  0  0  0  0  0  0  0  0  0  0  0
  -16.2433   -9.8817  143.6976 C   0  0  0  0  0  0  0  0  0  0  0  0
  -16.2252   -8.9076  142.4857 C   0  0  0  0  0  0  0  0  0  0  0  0
  -16.0096   -7.4048  142.8450 C   0  0  0  0  0  0  0  0  0  0  0  0
  -17.3688   -6.7812  143.3091 C   0  0  0  0  0  0  0  0  0  0  0  0
  -17.3716   -5.7689  144.4434 C   0  0  0  0  0  0  0  0  0  0  0  0
  -17.7496   -7.2621  144.6987 C   0  0  0  0  0  0  0  0  0  0  0  0
  -15.2866   -6.7492  141.6197 C   0  0  0  0  0  0  0  0  0  0  0  0
  -18.1561   -6.1765  145.6718 C   0  0  0  0  0  0  0  0  0  0  0  0
  -16.1977   -6.5016  140.4105 C   0  0  0  0  0  0  0  0  0  0  0  0
  -15.3554   -5.3585  140.9622 C   0  0  0  0  0  0  0  0  0  0  0  0
  -16.0237   -4.1035  141.5840 C   0  0  0  0  0  0  0  0  0  0  0  0
  -17.4192   -6.2263  147.0387 C   0  0  0  0  0  0  0  0  0  0  0  0
  -18.0328   -2.5602  141.7182 C   0  0  0  0  0  0  0  0  0  0  0  0
  -15.7782   -4.0254  142.9583 O   0  0  0  0  0  0  0  0  0  0  0  0
  -17.8117   -7.4262  147.9062 C   0  0  0  0  0  0  0  0  0  0  0  0
  -17.5192   -3.9225  141.2601 C   0  0  0  0  0  0  0  0  0  0  0  0
  -15.9513   -6.6963  147.0766 C   0  0  0  0  0  0  0  0  0  0  0  0
  -16.3502   -7.8771  147.9499 C   0  0  0  0  0  0  0  0  0  0  0  0
  3  1  1  0
  3  2  1  0
  4  3  1  0
  5  3  1  0
  5  4  1  0
  6  2  1  0
  7  6  1  0
  8  7  1  0
  9  8  1  0
 10  9  1  0
 11  9  1  0
 11 10  1  0
 12  8  1  0
 13 10  1  0
 13 11  1  0
 14 12  1  0
 15 12  1  0
 15 14  1  0
 16 15  1  0
 17 13  1  0
 19 16  1  0
 20 17  1  0
 21 16  1  0
 21 18  1  0
 22 17  1  0
 23 20  1  0
 23 22  1  0
M  END
$$$$

     RDKit          3D

 22 26  0  0  0  0  0  0  0  0999 V2000
  -27.9208  -12.1089  149.3167 As  0  0  0  0  0  3  0  0  0  0  0  0
  -27.5745  -13.3846  146.4841 C   0  0  0  0  0  0  0  0  0  0  0  0
  -28.6933  -12.8365  147.5790 C   0  0  0  0  0  0  0  0  0  0  0  0
  -26.1633  -12.7204  146.4855 C   0  0  0  0  0  0  0  0  0  0  0  0
  -25.6073  -11.2295  146.8756 C   0  0  0  0  0  0  0  0  0  0  0  0
  -27.0778  -12.5402  145.3993 O   0  0  0  0  0  0  0  0  0  0  0  0
  -29.2116  -11.4182  147.8011 C   0  0  0  0  0  0  0  0  0  0  0  0
  -28.7253  -10.1855  146.9913 C   0  0  0  0  0  0  0  0  0  0  0  0
  -28.0158  -10.4102  151.9033 C   0  0  0  0  0  0  0  0  0  0  0  0
  -28.7730  -10.8021  150.5444 C   0  0  0  0  0  0  0  0  0  0  0  0
  -29.0800   -9.9728  152.8803 C   0  0  0  0  0  0  0  0  0  0  0  0
  -28.9132   -8.5854  152.4594 C   0  0  0  0  0  0  0  0  0  0  0  0
  -27.5277   -8.8981  151.9648 C   0  0  0  0  0  0  0  0  0  0  0  0
  -25.4162  -10.6593  148.3466 C   0  0  0  0  0  0  0  0  0  0  0  0
  -24.7040   -9.7535  149.4418 C   0  0  0  0  0  0  0  0  0  0  0  0
  -24.9137  -10.7824  150.6011 C   0  0  0  0  0  0  0  0  0  0  0  0
  -24.0565  -10.9108  151.6512 C   0  0  0  0  0  0  0  0  0  0  0  0
  -25.8883   -9.2084  148.4570 C   0  0  0  0  0  0  0  0  0  0  0  0
  -22.8605   -9.9606  151.8614 C   0  0  0  0  0  0  0  0  0  0  0  0
  -24.2533  -11.2296  147.5237 C   0  0  0  0  0  0  0  0  0  0  0  0
  -25.5388   -7.7286  147.8422 C   0  0  0  0  0  0  0  0  0  0  0  0
  -26.6003   -6.5695  148.0502 C   0  0  0  0  0  0  0  0  0  0  0  0
  3  1  1  0
  3  2  1  0
  4  2  1  0
  5  4  1  0
  6  2  1  0
  6  4  1  0
  7  1  1  0
  7  3  1  0
  8  7  1  0
 10  1  1  0
 10  9  1  0
 11  9  1  0
 12 11  1  0
 13  9  1  0
 13 12  1  0
 14  5  1  0
 15 14  1  0
 16 15  1  0
 17 16  2  3
 18 14  1  0
 18 15  1  0
 19 17  1  0
 20  5  1  0
 20 14  1  0
 21 18  1  0
 22 21  1  0
M  END
$$$$

     RDKit          3D

 12 11  0  0  0  0  0  0  0  0999 V2000
  -30.0582  -18.8821  148.5136 C   0  0  0  0  0  0  0  0  0  0  0  0
  -32.5148  -19.2816  146.3819 C   0  0  0  0  0  0  0  0  0  0  0  0
  -28.2632  -24.3556  146.1534 O   0  0  0  0  0  0  0  0  0  0  0  0
  -33.4410  -20.7932  146.6394 Cl  0  0  0  0  0  0  0  0  0  0  0  0
  -29.7306  -19.4533  150.1739 Cl  0  0  0  0  0  0  0  0  0  0  0  0
  -29.3075  -22.2957  146.8297 C   0  0  0  0  0  0  0  0  0  0  0  0
  -30.3573  -18.4333  145.7811 F   0  0  0  0  0  0  0  0  0  0  0  0
  -32.9995  -18.6220  145.2423 O   0  0  0  0  0  0  0  0  0  0  0  0
  -29.0397  -20.8456  147.2664 C   0  0  0  0  0  0  0  0  0  0  0  0
  -31.0059  -19.5708  146.2379 C   0  0  0  0  0  0  0  0  0  0  0  0
  -30.3471  -20.0637  147.5600 C   0  0  0  0  0  0  0  0  0  0  0  0
  -27.9975  -23.0459  146.5770 C   0  0  0  0  0  0  0  0  0  0  0  0
  4  2  1  0
  5  1  1  0
  8  2  1  0
  9  6  1  0
 10  2  1  0
 10  7  1  0
 11  1  1  0
 11  9  1  0
 11 10  1  0
 12  3  1  0
 12  6  1  0
M  END
$$$$

     RDKit          3D

 23 28  0  0  0  0  0  0  0  0999 V2000
  -26.6715  -17.8782  137.5264 O   0  0  0  0  0  0  0  0  0  0  0  0
  -25.5111  -17.6189  138.3412 C   0  0  0  0  0  0  0  0  0  0  0  0
  -24.2799  -17.4682  137.5276 N   0  0  0  0  0  0  0  0  0  0  0  0
  -23.8277  -18.7231  136.9588 C   0  0  0  0  0  0  0  0  0  0  0  0
  -26.3346  -17.5820  136.2354 N   0  0  0  0  0  0  0  0  0  0  0  0
  -26.0016  -18.8973  135.6184 C   0  0  0  0  0  0  0  0  0  0  0  0
  -27.1867  -18.1500  135.1881 C   0  0  0  0  0  0  0  0  0  0  0  0
  -27.0188  -17.4445  133.8461 C   0  0  0  0  0  0  0  0  0  0  0  0
  -25.1129  -15.2709  135.8227 S   0  0  0  0  0  4  0  0  0  0  0  0
  -26.7393  -12.3239  138.3652 C   0  0  0  0  0  0  0  0  0  0  0  0
  -26.9953  -14.5391  137.9760 O   0  0  0  0  0  0  0  0  0  0  0  0
  -23.1153  -17.3275  138.2309 O   0  0  0  0  0  0  0  0  0  0  0  0
  -24.1976  -18.7376  135.1174 P   0  0  0  0  0  0  0  0  0  0  0  0
  -27.6939  -16.0730  133.8256 C   0  0  0  0  0  0  0  0  0  0  0  0
  -26.6757  -14.9765  134.0834 C   0  0  0  0  0  0  0  0  0  0  0  0
  -24.8700  -13.7491  137.7688 C   0  0  0  0  0  0  0  0  0  0  0  0
  -24.0385  -13.5823  136.5494 C   0  0  0  0  0  0  0  0  0  0  0  0
  -26.8072  -11.0699  137.5070 C   0  0  0  0  0  0  0  0  0  0  0  0
  -22.4910  -18.3846  137.5264 C   0  0  0  0  0  0  0  0  0  0  0  0
  -26.2941  -13.4597  137.5526 N   0  0  0  0  0  0  0  0  0  0  0  0
  -24.0580  -12.6122  137.5717 O   0  0  0  0  0  0  0  0  0  0  0  0
  -22.6804  -14.2836  136.5158 C   0  0  0  0  0  0  0  0  0  0  0  0
  -22.6460  -15.2347  135.4100 N   0  0  0  0  0  0  0  0  0  0  0  0
  2  1  1  0
  3  2  1  0
  4  3  1  0
  5  1  1  0
  6  5  1  0
  7  5  1  0
  7  6  1  0
  8  7  1  0
  9  8  1  0
 10  9  1  0
 12  3  1  0
 13  4  1  0
 13  6  1  0
 14  8  1  0
 15  9  1  0
 15 14  1  0
 17 16  1  0
 18  9  1  0
 18 10  1  0
 19  4  1  0
 19 12  1  0
 20 10  1  0
 20 11  1  0
 20 16  1  0
 21 16  1  0
 21 17  1  0
 22 17  1  0
 23 22  1  0
M  END
$$$$

     RDKit          3D

 24 27  0  0  0  0  0  0  0  0999 V2000
  -24.4592  -19.0784  139.5830 O   0  0  0  0  0  0  0  0  0  0  0  0
  -24.7946  -18.3396  140.5520 C   0  0  0  0  0  0  0  0  0  0  0  0
  -26.0318  -17.7043  140.4681 O   0  0  0  0  0  0  0  0  0  0  0  0
  -23.9584  -18.3518  141.8446 C   0  0  0  0  0  0  0  0  0  0  0  0
  -24.1164  -17.3539  143.0205 C   0  0  0  0  0  0  0  0  0  0  0  0
  -24.6331  -15.9806  142.5840 C   0  0  0  0  0  0  0  0  0  0  0  0
  -23.5096  -14.9404  142.7119 C   0  0  0  0  0  0  0  0  0  0  0  0
  -22.2045  -15.2945  141.9382 C   0  0  0  0  0  0  0  0  0  0  0  0
  -22.4680  -18.8561  141.7285 C   0  0  0  0  0  0  0  0  0  0  0  0
  -21.4188  -16.4718  142.5210 C   0  0  0  0  0  0  0  0  0  0  0  0
  -22.1920  -20.2706  142.3465 C   0  0  0  0  0  0  0  0  0  0  0  0
  -20.7384  -16.3484  143.7085 C   0  0  0  0  0  0  0  0  0  0  0  0
  -21.3486  -17.7298  141.6361 C   0  0  0  0  0  0  0  0  0  0  0  0
  -23.2378  -19.7926  144.7214 C   0  0  0  0  0  0  0  0  0  0  0  0
  -21.0024  -20.9953  141.6813 C   0  0  0  0  0  0  0  0  0  0  0  0
  -20.0243  -17.5073  144.3607 C   0  0  0  0  0  0  0  0  0  0  0  0
  -18.5549  -17.2177  144.7746 C   0  0  0  0  0  0  0  0  0  0  0  0
  -17.4783  -18.1708  144.2516 C   0  0  0  0  0  0  0  0  0  0  0  0
  -24.6198  -19.7520  144.0367 C   0  0  0  0  0  0  0  0  0  0  0  0
  -17.9880  -15.5559  145.1559 Cl  0  0  0  0  0  0  0  0  0  0  0  0
  -17.9434  -18.2770  145.6874 C   0  0  0  0  0  0  0  0  0  0  0  0
  -24.9329  -18.6329  143.0139 C   0  0  0  0  0  0  0  0  0  0  0  0
  -20.7708  -15.1346  144.4907 N   0  0  0  0  0  0  0  0  0  0  0  0
  -22.0978  -20.4101  143.8862 C   0  0  0  0  0  0  0  0  0  0  0  0
  2  1  2  0
  3  2  1  0
  4  2  1  0
  5  4  1  0
  6  5  1  0
  7  6  1  0
  8  7  1  0
  9  4  1  0
 10  8  1  0
 11  9  1  0
 12 10  2  3
 13  9  1  0
 13 10  1  0
 15 11  1  0
 16 12  1  0
 17 16  1  0
 18 17  1  0
 19 14  1  0
 20 17  1  0
 21 17  1  0
 21 18  1  0
 22  4  1  0
 22  5  1  0
 22 19  1  0
 23 12  1  0
 24 11  1  0
 24 14  1  0
M  END
$$$$

     RDKit          3D

 17 18  0  0  0  0  0  0  0  0999 V2000
  -28.4995   -6.0214  144.0657 C   0  0  0  0  0  0  0  0  0  0  0  0
  -30.6558   -7.2726  143.4036 C   0  0  0  0  0  0  0  0  0  0  0  0
  -28.7113   -5.7811  145.5723 C   0  0  0  0  0  0  0  0  0  0  0  0
  -30.1205   -8.4108  142.5103 C   0  0  0  0  0  0  0  0  0  0  0  0
  -30.6455  -11.9953  143.8410 C   0  0  0  0  0  0  0  0  0  0  0  0
  -30.8931   -9.7486  142.5672 C   0  0  0  0  0  0  0  0  0  0  0  0
  -29.8208   -5.9842  143.2756 C   0  0  0  0  0  0  0  0  0  0  0  0
  -27.3928   -5.8990  146.3526 C   0  0  0  0  0  0  0  0  0  0  0  0
  -32.1186   -9.9266  143.4681 C   0  0  0  0  0  0  0  0  0  0  0  0
  -26.9437   -7.2312  146.3416 O   0  0  0  0  0  0  0  0  0  0  0  0
  -27.5406   -5.3177  147.7829 C   0  0  0  0  0  0  0  0  0  0  0  0
  -26.8802   -6.0805  148.9334 C   0  0  0  0  0  0  0  0  0  0  0  0
  -30.7666  -10.4725  143.9082 C   0  0  0  0  0  0  0  0  0  0  0  0
  -28.4022   -5.9807  148.8653 C   0  0  0  0  0  0  0  0  0  0  0  0
  -29.1434   -7.3065  148.5936 C   0  0  0  0  0  0  0  0  0  0  0  0
  -30.4553   -7.3952  150.7822 C   0  0  0  0  0  0  0  0  0  0  0  0
  -29.4201   -8.0832  149.8906 C   0  0  0  0  0  0  0  0  0  0  0  0
  3  1  1  0
  4  2  1  0
  6  4  1  0
  7  1  1  0
  7  2  1  0
  8  3  1  0
  9  6  1  0
 10  8  1  0
 11  8  1  0
 12 11  1  0
 13  5  1  0
 13  6  1  0
 13  9  1  0
 14 11  1  0
 14 12  1  0
 15 14  1  0
 17 15  1  0
 17 16  1  0
M  END
$$$$

     RDKit          3D

 24 28  0  0  0  0  0  0  0  0999 V2000
  -25.2249  -12.5673  140.6981 N   0  0  0  0  0  0  0  0  0  0  0  0
  -26.2639  -13.1546  139.6857 C   0  0  0  0  0  0  0  0  0  0  0  0
  -27.1622  -14.2821  139.8583 N   0  0  0  0  0  0  0  0  0  0  0  0
  -27.1210  -10.4931  138.9319 As  0  0  0  0  0  3  0  0  0  0  0  0
  -27.9857  -14.4931  141.0077 C   0  0  0  0  0  0  0  0  0  0  0  0
  -26.8896  -12.3801  138.9476 N   0  0  0  0  0  0  0  0  0  0  0  0
  -23.9186  -13.1517  141.3175 C   0  0  0  0  0  0  0  0  0  0  0  0
  -27.0565  -14.9935  142.0297 N   0  0  0  0  0  0  0  0  0  0  0  0
  -28.4764  -13.1110  141.4239 N   0  0  0  0  0  0  0  0  0  0  0  0
  -22.8039  -12.1294  141.6208 C   0  0  0  0  0  0  0  0  0  0  0  0
  -25.0115  -16.5733  140.8035 C   0  0  0  0  0  0  0  0  0  0  0  0
  -23.9080  -17.5299  141.4224 C   0  0  0  0  0  0  0  0  0  0  0  0
  -23.0995  -11.0631  140.6210 C   0  0  0  0  0  0  0  0  0  0  0  0
  -25.8032  -10.2774  137.5892 O   0  0  0  0  0  0  0  0  0  0  0  0
  -26.3519  -16.3614  141.7247 C   0  0  0  0  0  0  0  0  0  0  0  0
  -22.5396  -13.0426  140.4677 C   0  0  0  0  0  0  0  0  0  0  0  0
  -24.6030  -11.2997  140.2011 C   0  0  0  0  0  0  0  0  0  0  0  0
  -22.3866  -17.4490  140.8451 C   0  0  0  0  0  0  0  0  0  0  0  0
  -24.0964  -11.7682  138.8451 C   0  0  0  0  0  0  0  0  0  0  0  0
  -22.6524  -11.8631  139.3786 C   0  0  0  0  0  0  0  0  0  0  0  0
  -21.6782  -18.8143  141.2045 C   0  0  0  0  0  0  0  0  0  0  0  0
  -24.7455  -11.2237  137.5943 N   0  0  0  0  0  0  0  0  0  0  0  0
  -28.8143  -12.8331  142.8776 C   0  0  0  0  0  0  0  0  0  0  0  0
  -29.3254  -12.3193  140.3629 C   0  0  0  0  0  0  0  0  0  0  0  0
  2  1  1  0
  3  2  1  0
  5  3  1  0
  6  2  2  3
  6  4  1  0
  7  1  1  0
  8  5  1  0
  9  5  1  0
 10  7  1  0
 12 11  1  0
 13 10  1  0
 14  4  1  0
 15  8  1  0
 15 11  1  0
 16  7  1  0
 16 10  1  0
 17  1  1  0
 17 13  1  0
 18 12  1  0
 19 17  1  0
 20 13  1  0
 20 16  1  0
 20 19  1  0
 21 18  1  0
 22 14  1  0
 22 19  1  0
 23  9  1  0
 24  9  1  0
M  END
$$$$

     RDKit          3D

 24 29  0  0  0  0  0  0  0  0999 V2000
  -21.2786  -11.7811  147.3159 C   0  0  0  0  0  0  0  0  0  0  0  0
  -21.1036  -11.0969  145.9660 C   0  0  0  0  0  0  0  0  0  0  0  0
  -22.7526  -11.5787  147.7565 C   0  0  0  0  0  0  0  0  0  0  0  0
  -23.8659  -11.7288  146.6695 C   0  0  0  0  0  0  0  0  0  0  0  0
  -23.7905  -10.7203  145.4866 C   0  0  0  0  0  0  0  0  0  0  0  0
  -21.5873  -11.9225  144.7639 C   0  0  0  0  0  0  0  0  0  0  0  0
  -19.8856  -10.2379  145.6466 C   0  0  0  0  0  0  0  0  0  0  0  0
  -21.7888  -13.4621  144.8796 C   0  0  0  0  0  0  0  0  0  0  0  0
  -18.7310  -10.3633  146.6027 C   0  0  0  0  0  0  0  0  0  0  0  0
  -18.2238   -9.2763  147.1604 C   0  0  0  0  0  0  0  0  0  0  0  0
  -19.5612  -10.4039  144.1579 C   0  0  0  0  0  0  0  0  0  0  0  0
  -20.7869  -14.3331  144.1165 C   0  0  0  0  0  0  0  0  0  0  0  0
  -17.3333   -8.6430  148.0087 C   0  0  0  0  0  0  0  0  0  0  0  0
  -18.0987  -10.5997  143.7162 C   0  0  0  0  0  0  0  0  0  0  0  0
  -22.1869  -14.1400  143.5682 C   0  0  0  0  0  0  0  0  0  0  0  0
  -17.3631   -9.2494  143.5548 C   0  0  0  0  0  0  0  0  0  0  0  0
  -22.8255  -11.1066  144.3172 C   0  0  0  0  0  0  0  0  0  0  0  0
  -18.1822   -7.7567  147.3485 N   0  0  0  0  0  0  0  0  0  0  0  0
  -17.7721   -8.5519  142.2322 C   0  0  0  0  0  0  0  0  0  0  0  0
  -20.0883  -11.5792  144.9701 C   0  0  0  0  0  0  0  0  0  0  0  0
  -17.4886   -7.0397  142.2140 C   0  0  0  0  0  0  0  0  0  0  0  0
  -23.1100  -15.3500  143.7128 C   0  0  0  0  0  0  0  0  0  0  0  0
  -15.8439   -9.4839  143.6051 C   0  0  0  0  0  0  0  0  0  0  0  0
  -18.5079   -6.2443  143.0311 C   0  0  0  0  0  0  0  0  0  0  0  0
  2  1  1  0
  3  1  1  0
  4  3  1  0
  5  4  1  0
  6  2  1  0
  7  2  1  0
  8  6  1  0
  9  7  1  0
 10  9  2  3
 11  7  1  0
 12  8  1  0
 13 10  1  0
 14 11  1  0
 15  8  1  0
 15 12  1  0
 16 14  1  0
 17  5  1  0
 17  6  1  0
 18 10  1  0
 18 13  1  0
 19 16  1  0
 20  2  1  0
 20  6  1  0
 20  7  1  0
 20 11  1  0
 21 19  1  0
 22 15  1  0
 23 16  1  0
 24 21  1  0
M  END
$$$$

     RDKit          3D

 24 28  0  0  0  0  0  0  0  0999 V2000
  -24.9419   -6.1745  142.2477 O   0  0  0  0  0  0  0  0  0  0  0  0
  -24.6950   -4.8162  141.9201 C   0  0  0  0  0  0  0  0  0  0  0  0
  -24.9554   -3.9222  143.2011 C   0  0  0  0  0  0  0  0  0  0  0  0
  -25.6769   -2.5439  143.0632 C   0  0  0  0  0  0  0  0  0  0  0  0
  -23.1926   -4.5326  141.5451 C   0  0  0  0  0  0  0  0  0  0  0  0
  -23.6075   -3.5723  143.6918 N   0  0  0  0  0  0  0  0  0  0  0  0
  -22.2806   -5.7707  141.6983 C   0  0  0  0  0  0  0  0  0  0  0  0
  -23.1980   -3.8513  145.0875 C   0  0  0  0  0  0  0  0  0  0  0  0
  -22.8881   -7.0644  141.1464 C   0  0  0  0  0  0  0  0  0  0  0  0
  -22.7132   -3.4660  142.5397 C   0  0  0  0  0  0  0  0  0  0  0  0
  -21.9881   -4.8102  145.2765 C   0  0  0  0  0  0  0  0  0  0  0  0
  -24.4375   -7.1097  141.2843 C   0  0  0  0  0  0  0  0  0  0  0  0
  -20.9291   -4.3021  146.2784 C   0  0  0  0  0  0  0  0  0  0  0  0
  -22.2809   -6.3080  145.5041 C   0  0  0  0  0  0  0  0  0  0  0  0
  -20.5880   -4.4315  144.7838 C   0  0  0  0  0  0  0  0  0  0  0  0
  -26.6333   -2.2008  141.8637 C   0  0  0  0  0  0  0  0  0  0  0  0
  -26.9802   -0.6480  141.7879 C   0  0  0  0  0  0  0  0  0  0  0  0
  -25.7640    0.2745  142.0064 C   0  0  0  0  0  0  0  0  0  0  0  0
  -25.9686    1.8059  141.8714 C   0  0  0  0  0  0  0  0  0  0  0  0
  -25.6916    2.3387  140.4831 C   0  0  0  0  0  0  0  0  0  0  0  0
  -24.6070    2.4600  141.5074 C   0  0  0  0  0  0  0  0  0  0  0  0
  -25.1863    2.5902  142.9123 C   0  0  0  0  0  0  0  0  0  0  0  0
  -24.9965   -8.4591  141.6603 C   0  0  0  0  0  0  0  0  0  0  0  0
  -25.0613   -8.7980  142.9606 C   0  0  0  0  0  0  0  0  0  0  0  0
  2  1  1  0
  3  2  1  0
  4  3  1  0
  5  2  1  0
  6  3  1  0
  7  5  1  0
  8  6  1  0
  9  7  1  0
 10  5  1  0
 10  6  1  0
 11  8  1  0
 12  1  1  0
 12  9  1  0
 13 11  1  0
 14 11  1  0
 15 11  1  0
 15 13  1  0
 16  4  1  0
 17 16  1  0
 18 17  1  0
 19 18  1  0
 20 19  1  0
 21 19  1  0
 21 20  1  0
 22 19  1  0
 22 21  1  0
 23 12  1  0
 24 23  2  0
M  END
$$$$

     RDKit          3D

 11 10  0  0  0  0  0  0  0  0999 V2000
  -22.3303  -22.1942  136.0114 O   0  0  0  0  0  0  0  0  0  0  0  0
  -22.1502  -23.5882  136.4111 C   0  0  0  0  0  0  0  0  0  0  0  0
  -22.4289  -22.7489  135.5187 O   0  0  0  0  0  0  0  0  0  0  0  0
  -22.1421  -20.9991  136.9959 C   0  0  0  0  0  0  0  0  0  0  0  0
  -20.6662  -20.5519  137.0863 C   0  0  0  0  0  0  0  0  0  0  0  0
  -22.7636  -21.2962  138.3667 C   0  0  0  0  0  0  0  0  0  0  0  0
  -18.8824  -22.2505  136.3087 C   0  0  0  0  0  0  0  0  0  0  0  0
  -17.9727  -21.2596  135.6243 C   0  0  0  0  0  0  0  0  0  0  0  0
  -19.6629  -21.6647  137.5106 C   0  0  0  0  0  0  0  0  0  0  0  0
  -18.7098  -21.1707  138.6117 C   0  0  0  0  0  0  0  0  0  0  0  0
  -17.2102  -21.6320  134.5938 C   0  0  0  0  0  0  0  0  0  0  0  0
  2  1  1  0
  3  2  2  0
  4  1  1  0
  5  4  1  0
  6  4  1  0
  8  7  1  0
  9  5  1  0
  9  7  1  0
 10  9  1  0
 11  8  2  0
M  END
$$$$

     RDKit          3D

 24 28  0  0  0  0  0  0  0  0999 V2000
  -23.3620   -5.6347  141.8380 Cl  0  0  0  0  0  0  0  0  0  0  0  0
  -25.3828   -5.4636  143.7172 C   0  0  0  0  0  0  0  0  0  0  0  0
  -25.5402   -3.9741  144.0014 C   0  0  0  0  0  0  0  0  0  0  0  0
  -25.8464   -3.5996  145.4600 C   0  0  0  0  0  0  0  0  0  0  0  0
  -24.0440   -3.7905  143.8382 C   0  0  0  0  0  0  0  0  0  0  0  0
  -25.2815   -4.4183  146.6332 C   0  0  0  0  0  0  0  0  0  0  0  0
  -26.9671   -2.6659  145.6431 N   0  0  0  0  0  0  0  0  0  0  0  0
  -24.5898   -3.1242  146.1851 C   0  0  0  0  0  0  0  0  0  0  0  0
  -23.4553   -3.1848  145.1455 C   0  0  0  0  0  0  0  0  0  0  0  0
  -23.8808   -5.2878  143.5387 C   0  0  0  0  0  0  0  0  0  0  0  0
  -20.2437   -5.1487  144.0489 C   0  0  0  0  0  0  0  0  0  0  0  0
  -19.9289   -4.0841  144.9955 C   0  0  0  0  0  0  0  0  0  0  0  0
  -22.2223   -3.9312  145.7374 C   0  0  0  0  0  0  0  0  0  0  0  0
  -21.3463   -4.2625  144.5565 N   0  0  0  0  0  0  0  0  0  0  0  0
  -20.2846   -6.6438  144.4569 C   0  0  0  0  0  0  0  0  0  0  0  0
  -23.0037   -1.7211  144.8139 C   0  0  0  0  0  0  0  0  0  0  0  0
  -19.1061   -3.3537  143.9255 C   0  0  0  0  0  0  0  0  0  0  0  0
  -20.3154   -3.9792  141.7218 C   0  0  0  0  0  0  0  0  0  0  0  0
  -19.1144   -7.1641  145.2644 C   0  0  0  0  0  0  0  0  0  0  0  0
  -18.1360   -5.2476  142.4865 C   0  0  0  0  0  0  0  0  0  0  0  0
  -19.4273   -4.4634  142.9135 C   0  0  0  0  0  0  0  0  0  0  0  0
  -17.3190   -4.5340  141.3808 C   0  0  0  0  0  0  0  0  0  0  0  0
  -15.9562   -5.0750  141.2901 N   0  0  0  0  0  0  0  0  0  0  0  0
  -14.9534   -4.2323  141.9229 C   0  0  0  0  0  0  0  0  0  0  0  0
  3  2  1  0
  4  3  1  0
  5  3  1  0
  6  4  1  0
  7  4  1  0
  8  4  1  0
  8  6  1  0
  9  5  1  0
  9  8  1  0
 10  1  1  0
 10  2  1  0
 10  5  1  0
 12 11  1  0
 13  9  1  0
 14 11  1  0
 14 12  1  0
 14 13  1  0
 15 11  1  0
 16  9  1  0
 17 12  1  0
 19 15  1  0
 21 11  1  0
 21 17  1  0
 21 18  1  0
 21 20  1  0
 22 20  1  0
 23 22  1  0
 24 23  1  0
M  END
$$$$

     RDKit          3D

 23 26  0  0  0  0  0  0  0  0999 V2000
  -29.8175  -10.6527  143.8473 C   0  0  0  0  0  0  0  0  0  0  0  0
  -30.4441  -17.8411  146.1114 C   0  0  0  0  0  0  0  0  0  0  0  0
  -30.9288  -14.9195  143.1567 O   0  0  0  0  0  0  0  0  0  0  0  0
  -28.2725  -15.8088  144.3466 C   0  0  0  0  0  0  0  0  0  0  0  0
  -31.7057  -14.5351  145.3476 O   0  0  0  0  0  0  0  0  0  0  0  0
  -30.5762  -14.5329  144.5061 C   0  0  0  0  0  0  0  0  0  0  0  0
  -30.2716   -8.2408  143.2799 C   0  0  0  0  0  0  0  0  0  0  0  0
  -28.5151  -17.2433  144.5170 C   0  0  0  0  0  0  0  0  0  0  0  0
  -32.1368  -12.0994  143.4153 C   0  0  0  0  0  0  0  0  0  0  0  0
  -29.6580  -17.7737  143.6414 C   0  0  0  0  0  0  0  0  0  0  0  0
  -30.0253  -13.1080  144.5594 C   0  0  0  0  0  0  0  0  0  0  0  0
  -30.0703   -8.4943  146.0852 C   0  0  0  0  0  0  0  0  0  0  0  0
  -32.7039  -11.3277  142.2244 C   0  0  0  0  0  0  0  0  0  0  0  0
  -31.3105   -9.2791  146.5518 C   0  0  0  0  0  0  0  0  0  0  0  0
  -33.2095  -12.0617  141.2130 C   0  0  0  0  0  0  0  0  0  0  0  0
  -30.5415  -12.0755  143.5492 C   0  0  0  0  0  0  0  0  0  0  0  0
  -29.9652  -16.9997  144.9638 C   0  0  0  0  0  0  0  0  0  0  0  0
  -29.5997  -15.5044  145.0934 C   0  0  0  0  0  0  0  0  0  0  0  0
  -30.3865   -9.2878  144.5513 C   0  0  0  0  0  0  0  0  0  0  0  0
  -30.7206   -5.9106  146.9150 N   0  0  0  0  0  0  0  0  0  0  0  0
  -31.8789   -8.1382  147.2962 C   0  0  0  0  0  0  0  0  0  0  0  0
  -30.5429   -7.3522  147.2225 C   0  0  0  0  0  0  0  0  0  0  0  0
  -31.7140   -9.7453  145.1261 C   0  0  0  0  0  0  0  0  0  0  0  0
  6  3  1  0
  6  5  1  0
  8  4  1  0
 10  8  1  0
 11  6  1  0
 13  9  1  0
 14 12  1  0
 15 13  2  0
 16  1  1  0
 16  9  1  0
 16 11  1  0
 17  2  1  0
 17  8  1  0
 17 10  1  0
 18  4  1  0
 18  6  1  0
 18 17  1  0
 19  1  1  0
 19  7  1  0
 19 12  1  0
 21 14  1  0
 22 12  1  0
 22 20  1  0
 22 21  1  0
 23 14  1  0
 23 19  1  0
M  END
$$$$

     RDKit          3D

 24 29  0  0  0  0  0  0  0  0999 V2000
  -26.0613  -15.1337  139.8581 N   0  0  0  0  0  0  0  0  0  0  0  0
  -24.6655  -15.0856  139.4533 C   0  0  0  0  0  0  0  0  0  0  0  0
  -24.4293  -14.8837  138.0206 N   0  0  0  0  0  0  0  0  0  0  0  0
  -23.9813  -14.0436  140.2302 N   0  0  0  0  0  0  0  0  0  0  0  0
  -26.4890  -16.5323  139.8434 C   0  0  0  0  0  0  0  0  0  0  0  0
  -25.7535  -14.5784  138.5415 C   0  0  0  0  0  0  0  0  0  0  0  0
  -23.7004  -14.5328  141.6012 C   0  0  0  0  0  0  0  0  0  0  0  0
  -22.6980  -15.7084  141.6230 C   0  0  0  0  0  0  0  0  0  0  0  0
  -23.1777  -13.3803  142.4799 C   0  0  0  0  0  0  0  0  0  0  0  0
  -27.3757  -16.5900  141.0567 C   0  0  0  0  0  0  0  0  0  0  0  0
  -28.7838  -15.9883  140.7536 C   0  0  0  0  0  0  0  0  0  0  0  0
  -29.8832  -16.8019  141.5829 C   0  0  0  0  0  0  0  0  0  0  0  0
  -28.9427  -14.6490  139.9383 C   0  0  0  0  0  0  0  0  0  0  0  0
  -30.0368  -13.9858  139.5759 C   0  0  0  0  0  0  0  0  0  0  0  0
  -29.8664  -13.3122  143.2460 C   0  0  0  0  0  0  0  0  0  0  0  0
  -29.9834  -13.0814  138.3690 C   0  0  0  0  0  0  0  0  0  0  0  0
  -29.0377  -12.6345  144.2674 C   0  0  0  0  0  0  0  0  0  0  0  0
  -31.6819  -15.1518  142.9026 C   0  0  0  0  0  0  0  0  0  0  0  0
  -32.3985  -17.2638  141.6227 C   0  0  0  0  0  0  0  0  0  0  0  0
  -28.2481  -13.3051  143.0460 B   0  0  0  0  0  0  0  0  0  0  0  0
  -30.5869  -14.5324  143.8142 C   0  0  0  0  0  0  0  0  0  0  0  0
  -28.0101  -16.8244  139.7305 C   0  0  0  0  0  0  0  0  0  0  0  0
  -32.1883  -16.2473  140.5202 C   0  0  0  0  0  0  0  0  0  0  0  0
  -31.2994  -16.1735  141.7550 C   0  0  0  0  0  0  0  0  0  0  0  0
  2  1  1  0
  3  2  1  0
  4  2  1  0
  5  1  1  0
  6  1  1  0
  6  2  1  0
  6  3  1  0
  7  4  1  0
  8  7  1  0
  9  7  1  0
 10  5  1  0
 11 10  1  0
 12 11  1  0
 13 11  1  0
 14 13  2  3
 16 14  1  0
 17 15  1  0
 20 15  1  0
 20 17  1  0
 21 15  1  0
 21 18  1  0
 22  5  1  0
 22 10  1  0
 22 11  1  0
 23 19  1  0
 24 12  1  0
 24 18  1  0
 24 19  1  0
 24 23  1  0
M  END
$$$$

     RDKit          3D

 24 34  0  0  0  0  0  0  0  0999 V2000
  -24.5183  -19.6064  139.0711 C   0  0  0  0  0  0  0  0  0  0  0  0
  -25.3425  -19.1319  140.2168 C   0  0  0  0  0  0  0  0  0  0  0  0
  -24.6314  -18.0798  139.2811 C   0  0  0  0  0  0  0  0  0  0  0  0
  -27.5100  -18.0167  140.1681 C   0  0  0  0  0  0  0  0  0  0  0  0
  -27.0919  -17.3050  138.9668 N   0  0  0  0  0  2  0  0  0  0  0  0
  -27.0366  -17.3790  141.5016 C   0  0  0  0  0  0  0  0  0  0  0  0
  -26.3151  -18.4966  142.3262 C   0  0  0  0  0  0  0  0  0  0  0  0
  -26.8516  -19.3649  140.2261 C   0  0  0  0  0  0  0  0  0  0  0  0
  -25.8204  -19.8652  142.5122 C   0  0  0  0  0  0  0  0  0  0  0  0
  -25.6673  -16.9594  138.9662 C   0  0  0  0  0  0  0  0  0  0  0  0
  -24.2935  -20.0987  142.4219 C   0  0  0  0  0  0  0  0  0  0  0  0
  -27.0578  -19.7201  141.6938 C   0  0  0  0  0  0  0  0  0  0  0  0
  -24.3314  -21.5886  142.8462 C   0  0  0  0  0  0  0  0  0  0  0  0
  -25.2403  -16.1619  137.7413 C   0  0  0  0  0  0  0  0  0  0  0  0
  -21.6916  -21.2826  141.1621 I   0  0  0  0  0  0  0  0  0  0  0  0
  -23.8243  -21.2412  141.4820 C   0  0  0  0  0  0  0  0  0  0  0  0
  -24.9542  -18.9052  141.6931 C   0  0  0  0  0  0  0  0  0  0  0  0
  -23.3088  -21.9324  143.9300 C   0  0  0  0  0  0  0  0  0  0  0  0
  -29.2950  -18.1816  140.1146 S   0  0  0  0  0  1  0  0  0  0  0  0
  -24.9912  -17.6575  137.8283 C   0  0  0  0  0  0  0  0  0  0  0  0
  -26.3235  -15.7118  136.7479 C   0  0  0  0  0  0  0  0  0  0  0  0
  -25.6788  -15.3823  135.3979 C   0  0  0  0  0  0  0  0  0  0  0  0
  -26.5988  -14.6212  134.4538 C   0  0  0  0  0  0  0  0  0  0  0  0
  -25.4195  -13.9123  135.1004 C   0  0  0  0  0  0  0  0  0  0  0  0
  2  1  1  0
  3  1  1  0
  3  2  1  0
  5  4  1  0
  6  4  1  0
  7  6  1  0
  8  2  1  0
  8  4  1  0
  9  7  1  0
 10  3  1  0
 10  5  1  0
 11  9  1  0
 12  7  1  0
 12  8  1  0
 12  9  1  0
 13 11  1  0
 14 10  1  0
 16 11  1  0
 16 13  1  0
 16 15  1  0
 17  2  1  0
 17  7  1  0
 17  9  1  0
 17 11  1  0
 18 13  1  0
 19  4  1  0
 20  3  1  0
 20 10  1  0
 20 14  1  0
 21 14  1  0
 22 21  1  0
 23 22  1  0
 24 22  1  0
 24 23  1  0
M  RAD  2   5   2  19   2
M  END
$$$$

     RDKit          3D

 23 26  0  0  0  0  0  0  0  0999 V2000
  -27.7064   -0.9008  138.0541 O   0  0  0  0  0  0  0  0  0  0  0  0
  -25.2573    0.6908  138.0437 C   0  0  0  0  0  0  0  0  0  0  0  0
  -24.4830    1.8634  138.0460 O   0  0  0  0  0  0  0  0  0  0  0  0
  -27.1506   -0.5028  136.8080 C   0  0  0  0  0  0  0  0  0  0  0  0
  -26.9912   -4.1100  131.8950 C   0  0  0  0  0  0  0  0  0  0  0  0
  -28.1052   -3.6800  130.9515 C   0  0  0  0  0  0  0  0  0  0  0  0
  -27.9603   -2.1964  130.5669 C   0  0  0  0  0  0  0  0  0  0  0  0
  -28.2540   -0.2824  135.8566 N   0  0  0  0  0  0  0  0  0  0  0  0
  -29.3025   -1.5330  130.1993 C   0  0  0  0  0  0  0  0  0  0  0  0
  -30.4214   -0.1717  131.7498 C   0  0  0  0  0  0  0  0  0  0  0  0
  -29.1053   -0.0667  129.7618 C   0  0  0  0  0  0  0  0  0  0  0  0
  -28.6291    1.5388  131.6886 C   0  0  0  0  0  0  0  0  0  0  0  0
  -29.7026    0.8023  130.8835 C   0  0  0  0  0  0  0  0  0  0  0  0
  -27.2304   -4.4137  133.3987 C   0  0  0  0  0  0  0  0  0  0  0  0
  -27.2608   -3.5206  134.6988 C   0  0  0  0  0  0  0  0  0  0  0  0
  -27.8796   -2.1897  134.3152 C   0  0  0  0  0  0  0  0  0  0  0  0
  -25.9600   -3.8821  134.0784 C   0  0  0  0  0  0  0  0  0  0  0  0
  -25.8730   -4.4346  131.3354 N   0  0  0  0  0  0  0  0  0  0  0  0
  -26.3697    0.8142  136.9969 C   0  0  0  0  0  0  0  0  0  0  0  0
  -28.8128   -1.5435  135.3483 C   0  0  0  0  0  0  0  0  0  0  0  0
  -27.1498   -2.1233  138.4924 C   0  0  0  0  0  0  0  0  0  0  0  0
  -28.4102   -3.5126  133.7650 C   0  0  0  0  0  0  0  0  0  0  0  0
  -30.2087   -1.4230  131.3851 C   0  0  0  0  0  0  0  0  0  0  0  0
  3  2  1  0
  4  1  1  0
  6  5  1  0
  7  6  1  0
  8  4  1  0
  9  7  1  0
 11  9  1  0
 13 10  1  0
 13 11  1  0
 13 12  1  0
 14  5  1  0
 15 14  1  0
 16 15  1  0
 17 14  1  0
 17 15  1  0
 18  5  2  0
 19  2  1  0
 19  4  1  0
 20  8  1  0
 20 16  1  0
 21  1  1  0
 22 14  1  0
 22 15  1  0
 22 16  1  0
 23  9  1  0
 23 10  2  0
M  END
$$$$

     RDKit          3D

 24 26  0  0  0  0  0  0  0  0999 V2000
  -26.8864   -6.4201  140.2724 N   0  0  0  0  0  0  0  0  0  0  0  0
  -28.2123   -6.2867  140.5343 C   0  0  0  0  0  0  0  0  0  0  0  0
  -25.9544   -5.6700  140.9240 C   0  0  0  0  0  0  0  0  0  0  0  0
  -26.3455   -4.7398  141.8895 C   0  0  0  0  0  0  0  0  0  0  0  0
  -28.6487   -5.3588  141.4799 C   0  0  0  0  0  0  0  0  0  0  0  0
  -27.7160   -4.5616  142.1657 C   0  0  0  0  0  0  0  0  0  0  0  0
  -28.5309   -4.3728  144.5748 C   0  0  0  0  0  0  0  0  0  0  0  0
  -27.4920   -5.3920  144.9900 C   0  0  0  0  0  0  0  0  0  0  0  0
  -27.3381   -2.3794  143.5183 C   0  0  0  0  0  0  0  0  0  0  0  0
  -27.1069   -1.4664  142.3009 C   0  0  0  0  0  0  0  0  0  0  0  0
  -28.3831   -0.8204  141.7255 C   0  0  0  0  0  0  0  0  0  0  0  0
  -26.3540   -4.9967  145.9084 C   0  0  0  0  0  0  0  0  0  0  0  0
  -28.2160   -3.6241  143.2613 C   0  0  0  0  0  0  0  0  0  0  0  0
  -29.1091   -1.6991  140.6892 C   0  0  0  0  0  0  0  0  0  0  0  0
  -25.0658   -5.5073  145.4294 N   0  0  0  0  0  0  0  0  0  0  0  0
  -29.3629   -1.0413  139.3250 C   0  0  0  0  0  0  0  0  0  0  0  0
  -27.6356   -6.6295  144.6433 N   0  0  0  0  0  0  0  0  0  0  0  0
  -30.5970   -1.5114  138.5336 C   0  0  0  0  0  0  0  0  0  0  0  0
  -28.2897   -2.1129  139.4684 C   0  0  0  0  0  0  0  0  0  0  0  0
  -30.2925   -1.6388  137.0379 C   0  0  0  0  0  0  0  0  0  0  0  0
  -29.9430   -0.2738  136.4276 C   0  0  0  0  0  0  0  0  0  0  0  0
  -29.5369   -0.2018  134.9983 C   0  0  0  0  0  0  0  0  0  0  0  0
  -29.4627   -1.4812  134.1600 C   0  0  0  0  0  0  0  0  0  0  0  0
  -28.5856   -0.1935  136.0437 O   0  0  0  0  0  0  0  0  0  0  0  0
  2  1  4  0
  3  1  4  0
  4  3  4  0
  5  2  4  0
  6  4  4  0
  6  5  4  0
  8  7  1  0
 10  9  1  0
 11 10  1  0
 12  8  1  0
 13  6  1  0
 13  7  1  0
 13  9  1  0
 14 11  1  0
 15 12  1  0
 16 14  1  0
 17  8  2  0
 18 16  1  0
 19 14  1  0
 19 16  1  0
 20 18  1  0
 21 20  1  0
 22 21  1  0
 23 22  1  0
 24 21  1  0
 24 22  1  0
M  END
$$$$

     RDKit          3D

 16 17  0  0  0  0  0  0  0  0999 V2000
  -21.8213  -13.2344  144.8265 Se  0  0  0  0  0  2  0  0  0  0  0  0
  -25.3859   -8.7720  143.0477 C   0  0  0  0  0  0  0  0  0  0  0  0
  -21.2557  -15.5828  143.5226 O   0  0  0  0  0  0  0  0  0  0  0  0
  -25.2628   -8.4576  144.4164 O   0  0  0  0  0  0  0  0  0  0  0  0
  -25.0187   -7.5211  142.2453 C   0  0  0  0  0  0  0  0  0  0  0  0
  -20.7973  -16.2884  142.3909 C   0  0  0  0  0  0  0  0  0  0  0  0
  -23.7545   -6.0059  143.1130 C   0  0  0  0  0  0  0  0  0  0  0  0
  -25.6006   -7.0944  144.5273 C   0  0  0  0  0  0  0  0  0  0  0  0
  -21.2862  -11.4765  144.1472 C   0  0  0  0  0  0  0  0  0  0  0  0
  -25.2287   -6.3961  143.2221 C   0  0  0  0  0  0  0  0  0  0  0  0
  -24.5880  -10.0056  142.6547 C   0  0  0  0  0  0  0  0  0  0  0  0
  -23.5307   -7.1656  142.1567 C   0  0  0  0  0  0  0  0  0  0  0  0
  -20.9951  -14.2067  143.3528 C   0  0  0  0  0  0  0  0  0  0  0  0
  -23.6687  -10.7146  143.6411 C   0  0  0  0  0  0  0  0  0  0  0  0
  -24.8321  -10.5307  141.4428 C   0  0  0  0  0  0  0  0  0  0  0  0
  -22.2514  -10.9473  143.0815 C   0  0  0  0  0  0  0  0  0  0  0  0
  4  2  1  0
  5  2  1  0
  6  3  1  0
  8  4  1  0
  9  1  1  0
 10  5  1  0
 10  7  1  0
 10  8  1  0
 11  2  1  0
 12  5  1  0
 12  7  1  0
 13  1  1  0
 13  3  1  0
 14 11  1  0
 15 11  2  0
 16  9  1  0
 16 14  1  0
M  END
$$$$

     RDKit          3D

 24 27  0  0  0  0  0  0  0  0999 V2000
  -24.4537   -8.6704  149.5707 C   0  0  0  0  0  0  0  0  0  0  0  0
  -24.0083   -8.8805  151.0314 C   0  0  0  0  0  0  0  0  0  0  0  0
  -26.0142   -9.7587  152.3132 C   0  0  0  0  0  0  0  0  0  0  0  0
  -26.0540   -9.6260  153.8356 C   0  0  0  0  0  0  0  0  0  0  0  0
  -27.2660   -9.1048  154.5810 C   0  0  0  0  0  0  0  0  0  0  0  0
  -27.1343   -9.6710  151.5530 C   0  0  0  0  0  0  0  0  0  0  0  0
  -25.9968   -8.2056  154.3699 C   0  0  0  0  0  0  0  0  0  0  0  0
  -27.7301  -10.8110  150.6933 C   0  0  0  0  0  0  0  0  0  0  0  0
  -27.5746  -12.1501  151.3197 C   0  0  0  0  0  0  0  0  0  0  0  0
  -26.8195  -11.8695  149.9729 C   0  0  0  0  0  0  0  0  0  0  0  0
  -27.5310  -12.0815  148.6723 N   0  0  0  0  0  0  0  0  0  0  0  0
  -26.6957  -11.6691  147.5257 C   0  0  0  0  0  0  0  0  0  0  0  0
  -26.9776  -13.2284  149.3559 C   0  0  0  0  0  0  0  0  0  0  0  0
  -29.1842  -10.5482  150.2261 C   0  0  0  0  0  0  0  0  0  0  0  0
  -26.7752  -10.2807  147.3086 O   0  0  0  0  0  0  0  0  0  0  0  0
  -27.1410  -12.4368  146.2622 C   0  0  0  0  0  0  0  0  0  0  0  0
  -25.3049   -7.4088  149.3916 C   0  0  0  0  0  0  0  0  0  0  0  0
  -24.6560  -10.0967  151.7194 C   0  0  0  0  0  0  0  0  0  0  0  0
  -28.5681  -12.0830  145.7744 C   0  0  0  0  0  0  0  0  0  0  0  0
  -26.9420   -7.9856  155.5446 C   0  0  0  0  0  0  0  0  0  0  0  0
  -27.8164   -6.7439  155.4229 C   0  0  0  0  0  0  0  0  0  0  0  0
  -28.5524  -10.9662  144.7159 C   0  0  0  0  0  0  0  0  0  0  0  0
  -29.9615  -10.7119  144.1496 C   0  0  0  0  0  0  0  0  0  0  0  0
  -29.9023   -9.6776  143.0297 C   0  0  0  0  0  0  0  0  0  0  0  0
  2  1  1  0
  4  3  1  0
  5  4  1  0
  6  3  2  3
  7  4  1  0
  7  5  1  0
  8  6  1  0
  9  8  1  0
 10  8  1  0
 10  9  1  0
 11 10  1  0
 12 11  1  0
 13 10  1  0
 13 11  1  0
 14  8  1  0
 15 12  1  0
 16 12  1  0
 17  1  1  0
 18  2  1  0
 18  3  1  0
 19 16  1  0
 20  5  1  0
 20  7  1  0
 21 20  1  0
 22 19  1  0
 23 22  1  0
 24 23  1  0
M  END
$$$$

     RDKit          3D

 24 30  0  0  0  0  0  0  0  0999 V2000
  -25.6491   -8.2113  133.5011 O   0  0  0  0  0  0  0  0  0  0  0  0
  -25.6007   -7.2589  131.5074 C   0  0  0  0  0  0  0  0  0  0  0  0
  -25.2147   -7.1364  132.8599 O   0  0  0  0  0  0  0  0  0  0  0  0
  -24.6965   -8.2511  130.7625 C   0  0  0  0  0  0  0  0  0  0  0  0
  -23.2855   -7.7613  130.3354 C   0  0  0  0  0  0  0  0  0  0  0  0
  -22.7114   -8.4066  131.5807 C   0  0  0  0  0  0  0  0  0  0  0  0
  -22.5063   -9.0753  130.2954 C   0  0  0  0  0  0  0  0  0  0  0  0
  -24.4534   -8.0580  129.3238 C   0  0  0  0  0  0  0  0  0  0  0  0
  -27.6899   -7.1576  133.7335 O   0  0  0  0  0  0  0  0  0  0  0  0
  -28.8271   -7.9920  133.5270 C   0  0  0  0  0  0  0  0  0  0  0  0
  -28.4660   -9.4147  132.9393 C   0  0  0  0  0  0  0  0  0  0  0  0
  -26.6107   -7.7558  134.4180 C   0  0  0  0  0  0  0  0  0  0  0  0
  -24.6122   -9.6003  131.2508 O   0  0  0  0  0  0  0  0  0  0  0  0
  -23.2293   -9.7954  131.4109 C   0  0  0  0  0  0  0  0  0  0  0  0
  -29.8229   -7.0968  132.7429 C   0  0  0  0  0  0  0  0  0  0  0  0
  -29.4407  -10.3903  132.2296 C   0  0  0  0  0  0  0  0  0  0  0  0
  -29.0476  -11.8858  132.2322 C   0  0  0  0  0  0  0  0  0  0  0  0
  -30.8633  -10.1177  131.6861 C   0  0  0  0  0  0  0  0  0  0  0  0
  -31.8657   -9.3662  132.6011 C   0  0  0  0  0  0  0  0  0  0  0  0
  -28.3747   -9.5968  131.4338 C   0  0  0  0  0  0  0  0  0  0  0  0
  -32.0766   -9.6213  134.0809 C   0  0  0  0  0  0  0  0  0  0  0  0
  -31.8697  -11.0116  134.6520 C   0  0  0  0  0  0  0  0  0  0  0  0
  -32.8295  -11.5965  133.6437 C   0  0  0  0  0  0  0  0  0  0  0  0
  -33.0434  -10.2120  133.0317 C   0  0  0  0  0  0  0  0  0  0  0  0
  3  1  1  0
  3  2  1  0
  4  2  1  0
  5  4  1  0
  6  5  1  0
  7  5  1  0
  7  6  1  0
  8  4  1  0
  8  5  1  0
 10  9  1  0
 11 10  1  0
 12  1  1  0
 12  9  1  0
 13  4  1  0
 14  6  1  0
 14  7  1  0
 14 13  1  0
 15 10  1  0
 16 11  1  0
 17 16  1  0
 18 16  1  0
 19 18  1  0
 20 11  1  0
 20 16  1  0
 21 19  1  0
 22 21  1  0
 23 22  1  0
 24 19  1  0
 24 21  1  0
 24 23  1  0
M  END
$$$$

     RDKit          3D

 23 26  0  0  0  0  0  0  0  0999 V2000
  -30.4297   -1.9240  146.8652 N   0  0  0  0  0  0  0  0  0  0  0  0
  -29.3658   -2.6239  146.1057 C   0  0  0  0  0  0  0  0  0  0  0  0
  -29.9032   -0.3868  148.6604 C   0  0  0  0  0  0  0  0  0  0  0  0
  -29.4866   -0.9676  147.3341 N   0  0  0  0  0  0  0  0  0  0  0  0
  -28.3133   -1.8779  146.9596 C   0  0  0  0  0  0  0  0  0  0  0  0
  -29.9272   -4.5986  145.3049 Mg  0  0  0  0  0  2  0  0  0  0  0  0
  -29.5875   -2.4558  144.5451 C   0  0  0  0  0  0  0  0  0  0  0  0
  -31.1955    0.6100  148.7054 C   0  0  0  0  0  0  0  0  0  0  0  0
  -28.4051   -2.1241  142.0665 C   0  0  0  0  0  0  0  0  0  0  0  0
  -27.9099   -0.6623  142.0491 N   0  0  0  0  0  0  0  0  0  0  0  0
  -26.3436   -0.1994  141.9815 C   0  0  0  0  0  0  0  0  0  0  0  0
  -25.4242    0.1546  140.6326 C   0  0  0  0  0  0  0  0  0  0  0  0
  -25.4854   -1.0850  142.9750 C   0  0  0  0  0  0  0  0  0  0  0  0
  -28.5573   -2.7063  143.4784 N   0  0  0  0  0  0  0  0  0  0  0  0
  -25.7637    0.3981  143.2934 C   0  0  0  0  0  0  0  0  0  0  0  0
  -24.6625    1.5097  140.7875 C   0  0  0  0  0  0  0  0  0  0  0  0
  -27.4062   -2.2433  148.4726 Cl  0  0  0  0  0  0  0  0  0  0  0  0
  -23.1463    0.9224  141.0736 C   0  0  0  0  0  0  0  0  0  0  0  0
  -22.3884    0.0624  139.9323 C   0  0  0  0  0  0  0  0  0  0  0  0
  -19.9496   -0.1911  141.3638 Br  0  0  0  0  0  0  0  0  0  0  0  0
  -21.5512   -0.9419  140.6281 N   0  0  0  0  0  0  0  0  0  0  0  0
  -25.7304    1.2566  139.7554 N   0  0  0  0  0  0  0  0  0  0  0  0
  -21.5845    0.7683  138.8011 C   0  0  0  0  0  0  0  0  0  0  0  0
  2  1  1  0
  4  1  1  0
  4  3  1  0
  5  2  1  0
  5  4  1  0
  6  2  1  0
  7  2  1  0
  7  6  1  0
  8  3  1  0
 10  9  1  0
 11 10  1  0
 12 11  1  0
 13 11  1  0
 14  7  1  0
 14  9  1  0
 15 11  1  0
 15 13  1  0
 16 12  1  0
 17  5  1  0
 18 16  1  0
 19 18  1  0
 21 19  1  0
 21 20  1  0
 22 12  1  0
 22 16  1  0
 23 19  1  0
M  END
$$$$

     RDKit          3D

 11 13  0  0  0  0  0  0  0  0999 V2000
  -28.9465  -18.6295  140.9530 C   0  0  0  0  0  0  0  0  0  0  0  0
  -29.2539  -19.2398  142.3091 C   0  0  0  0  0  0  0  0  0  0  0  0
  -28.4122  -19.9926  141.2909 C   0  0  0  0  0  0  0  0  0  0  0  0
  -30.0553  -18.6891  139.9314 C   0  0  0  0  0  0  0  0  0  0  0  0
  -29.9087  -17.6588  138.8053 C   0  0  0  0  0  0  0  0  0  0  0  0
  -30.6052  -18.1493  137.5221 C   0  0  0  0  0  0  0  0  0  0  0  0
  -30.0054  -17.5430  136.2391 C   0  0  0  0  0  0  0  0  0  0  0  0
  -28.5346  -19.5753  135.6649 C   0  0  0  0  0  0  0  0  0  0  0  0
  -27.1785  -19.9995  135.1032 C   0  0  0  0  0  0  0  0  0  0  0  0
  -28.9714  -19.7624  139.8992 C   0  0  0  0  0  0  0  0  0  0  0  0
  -28.5944  -18.0530  135.8785 C   0  0  0  0  0  0  0  0  0  0  0  0
  2  1  1  0
  3  1  1  0
  3  2  1  0
  4  1  1  0
  5  4  1  0
  6  5  1  0
  7  6  1  0
  9  8  1  0
 10  1  1  0
 10  3  1  0
 10  4  1  0
 11  7  1  0
 11  8  1  0
M  END
$$$$

     RDKit          3D

 24 28  0  0  0  0  0  0  0  0999 V2000
  -23.4626  -17.7499  144.4308 O   0  0  0  0  0  0  0  0  0  0  0  0
  -22.8465  -17.7111  143.1749 C   0  0  0  0  0  0  0  0  0  0  0  0
  -22.3171  -19.0805  142.7550 C   0  0  0  0  0  0  0  0  0  0  0  0
  -22.6206  -18.9749  140.1970 C   0  0  0  0  0  0  0  0  0  0  0  0
  -23.5417  -19.5108  139.0582 C   0  0  0  0  0  0  0  0  0  0  0  0
  -23.2982  -19.1043  141.5718 C   0  0  0  0  0  0  0  0  0  0  0  0
  -23.8241  -17.7254  141.9724 C   0  0  0  0  0  0  0  0  0  0  0  0
  -23.0699  -20.8798  138.5233 C   0  0  0  0  0  0  0  0  0  0  0  0
  -24.1780  -21.6679  137.8240 C   0  0  0  0  0  0  0  0  0  0  0  0
  -25.3402  -22.2222  138.6380 C   0  0  0  0  0  0  0  0  0  0  0  0
  -23.9512  -22.1387  136.3805 C   0  0  0  0  0  0  0  0  0  0  0  0
  -22.9220  -21.9870  139.5536 C   0  0  0  0  0  0  0  0  0  0  0  0
  -25.3720  -17.6203  142.1922 C   0  0  0  0  0  0  0  0  0  0  0  0
  -23.9724  -22.8200  138.8392 C   0  0  0  0  0  0  0  0  0  0  0  0
  -23.3704  -16.7617  140.8468 C   0  0  0  0  0  0  0  0  0  0  0  0
  -26.1310  -18.2936  143.3804 C   0  0  0  0  0  0  0  0  0  0  0  0
  -22.3025  -17.4898  140.0525 C   0  0  0  0  0  0  0  0  0  0  0  0
  -26.3142  -19.8404  143.4637 C   0  0  0  0  0  0  0  0  0  0  0  0
  -26.8037  -20.4623  142.2117 N   0  0  0  0  0  0  0  0  0  0  0  0
  -28.6124  -22.1573  142.4566 C   0  0  0  0  0  0  0  0  0  0  0  0
  -28.2508  -20.6963  142.2755 C   0  0  0  0  0  0  0  0  0  0  0  0
  -25.0990  -20.5671  143.9532 C   0  0  0  0  0  0  0  0  0  0  0  0
  -28.7922  -21.4943  141.1033 C   0  0  0  0  0  0  0  0  0  0  0  0
  -24.6748  -20.3679  145.0814 O   0  0  0  0  0  0  0  0  0  0  0  0
  2  1  1  0
  3  2  1  0
  5  4  1  0
  6  3  1  0
  6  4  1  0
  7  2  1  0
  7  6  1  0
  8  5  1  0
  9  8  1  0
 10  9  1  0
 11  9  1  0
 12  8  1  0
 13  7  1  0
 14  9  1  0
 14 10  1  0
 14 12  1  0
 15  7  1  0
 16 13  1  0
 17  4  1  0
 17 15  1  0
 18 16  1  0
 19 18  1  0
 21 19  1  0
 21 20  1  0
 22 18  1  0
 23 20  1  0
 23 21  1  0
 24 22  2  0
M  END
$$$$

     RDKit          3D

 24 29  0  0  0  0  0  0  0  0999 V2000
  -23.9166  -18.1784  140.5017 C   0  0  0  0  0  0  0  0  0  0  0  0
  -25.7558  -16.9485  138.8356 C   0  0  0  0  0  0  0  0  0  0  0  0
  -26.1672  -16.1553  140.0502 C   0  0  0  0  0  0  0  0  0  0  0  0
  -27.6884  -15.9861  140.2217 C   0  0  0  0  0  0  0  0  0  0  0  0
  -27.9046  -16.8363  141.4917 C   0  0  0  0  0  0  0  0  0  0  0  0
  -23.2735  -17.1687  141.4806 C   0  0  0  0  0  0  0  0  0  0  0  0
  -21.7326  -16.8952  141.3720 C   0  0  0  0  0  0  0  0  0  0  0  0
  -25.7795  -15.4365  138.7362 C   0  0  0  0  0  0  0  0  0  0  0  0
  -26.7380  -14.8466  139.7437 C   0  0  0  0  0  0  0  0  0  0  0  0
  -20.8988  -18.1939  141.5400 C   0  0  0  0  0  0  0  0  0  0  0  0
  -22.0235  -14.6548  140.0599 C   0  0  0  0  0  0  0  0  0  0  0  0
  -29.1069  -16.4395  142.2463 N   0  0  0  0  0  0  0  0  0  0  0  0
  -28.3032  -15.4295  141.5405 C   0  0  0  0  0  0  0  0  0  0  0  0
  -18.3677  -17.3483  141.8837 C   0  0  0  0  0  0  0  0  0  0  0  0
  -27.4043  -14.7059  142.4657 N   0  0  0  0  0  0  0  0  0  0  0  0
  -21.3094  -16.0218  140.1629 C   0  0  0  0  0  0  0  0  0  0  0  0
  -18.8768  -16.4411  143.0004 C   0  0  0  0  0  0  0  0  0  0  0  0
  -17.5615  -18.5176  142.4186 C   0  0  0  0  0  0  0  0  0  0  0  0
  -24.0294  -17.5482  138.7914 S   0  0  0  0  0  0  0  0  0  0  0  0
  -19.4032  -18.2074  141.1396 C   0  0  0  0  0  0  0  0  0  0  0  0
  -22.0119  -13.8521  141.3803 C   0  0  0  0  0  0  0  0  0  0  0  0
  -18.6745  -19.9916  141.6822 As  0  0  0  0  0  3  0  0  0  0  0  0
  -22.3697  -12.3963  141.1691 C   0  0  0  0  0  0  0  0  0  0  0  0
  -27.8404  -13.3157  142.5540 C   0  0  0  0  0  0  0  0  0  0  0  0
  3  2  1  0
  4  3  1  0
  5  4  1  0
  6  1  1  0
  7  6  1  0
  8  2  1  0
  8  3  1  0
  9  3  1  0
  9  4  1  0
  9  8  1  0
 10  7  1  0
 12  5  1  0
 13  4  1  0
 13  5  1  0
 13 12  1  0
 15 13  1  0
 16  7  1  0
 16 11  1  0
 17 14  1  0
 18 14  1  0
 19  1  1  0
 19  2  1  0
 20 10  1  0
 20 14  1  0
 21 11  1  0
 22 18  1  0
 22 20  1  0
 23 21  1  0
 24 15  1  0
M  END
$$$$

     RDKit          3D

 24 30  0  0  0  0  0  0  0  0999 V2000
  -29.4772   -2.2251  138.3362 C   0  0  0  0  0  0  0  0  0  0  0  0
  -30.6048   -1.5451  137.5377 C   0  0  0  0  0  0  0  0  0  0  0  0
  -29.7039   -3.5725  139.0491 C   0  0  0  0  0  0  0  0  0  0  0  0
  -31.9985   -2.1997  137.4338 C   0  0  0  0  0  0  0  0  0  0  0  0
  -29.7094   -4.7723  138.1002 C   0  0  0  0  0  0  0  0  0  0  0  0
  -28.5183   -4.7542  137.1139 C   0  0  0  0  0  0  0  0  0  0  0  0
  -30.2609   -1.0617  138.9530 C   0  0  0  0  0  0  0  0  0  0  0  0
  -32.3566   -2.5923  135.9916 C   0  0  0  0  0  0  0  0  0  0  0  0
  -32.8798   -4.0260  135.8341 C   0  0  0  0  0  0  0  0  0  0  0  0
  -28.7423   -4.6267  135.6023 C   0  0  0  0  0  0  0  0  0  0  0  0
  -33.4735   -1.5480  135.9871 C   0  0  0  0  0  0  0  0  0  0  0  0
  -27.8418   -3.4086  135.2471 C   0  0  0  0  0  0  0  0  0  0  0  0
  -27.3102   -4.7549  134.9884 C   0  0  0  0  0  0  0  0  0  0  0  0
  -28.5799   -5.9793  136.2843 C   0  0  0  0  0  0  0  0  0  0  0  0
  -27.4005   -5.7761  137.1758 C   0  0  0  0  0  0  0  0  0  0  0  0
  -26.4029   -5.3863  136.1007 C   0  0  0  0  0  0  0  0  0  0  0  0
  -29.5797    0.3296  139.0875 C   0  0  0  0  0  0  0  0  0  0  0  0
  -33.1207   -1.1569  137.4138 C   0  0  0  0  0  0  0  0  0  0  0  0
  -28.3098    0.6020  138.2256 C   0  0  0  0  0  0  0  0  0  0  0  0
  -28.0202    2.1068  138.0261 C   0  0  0  0  0  0  0  0  0  0  0  0
  -28.5362    2.9702  139.1867 C   0  0  0  0  0  0  0  0  0  0  0  0
  -30.6145    1.4497  138.8990 C   0  0  0  0  0  0  0  0  0  0  0  0
  -27.8576    2.6153  140.3659 O   0  0  0  0  0  0  0  0  0  0  0  0
  -30.0675    2.8150  139.3671 C   0  0  0  0  0  0  0  0  0  0  0  0
  2  1  1  0
  3  1  1  0
  4  2  1  0
  5  3  1  0
  6  5  1  0
  7  1  1  0
  7  2  1  0
  8  4  1  0
  9  8  1  0
 10  6  1  0
 11  8  1  0
 12 10  1  0
 13 10  1  0
 13 12  1  0
 14  6  1  0
 14 10  1  0
 15  6  1  0
 15 14  1  0
 16 13  1  0
 16 15  1  0
 17  7  1  0
 18  4  1  0
 18 11  1  0
 19 17  1  0
 20 19  1  0
 21 20  1  0
 22 17  1  0
 23 21  1  0
 24 21  1  0
 24 22  1  0
M  END
$$$$

     RDKit          3D

 24 25  0  0  0  0  0  0  0  0999 V2000
  -27.8291  -13.7711  140.8732 C   0  0  0  0  0  0  0  0  0  0  0  0
  -28.1874  -15.2455  140.7339 C   0  0  0  0  0  0  0  0  0  0  0  0
  -27.3442  -13.0284  139.5974 C   0  0  0  0  0  0  0  0  0  0  0  0
  -26.4089  -13.8248  138.6439 C   0  0  0  0  0  0  0  0  0  0  0  0
  -26.9444  -14.8353  141.5107 C   0  0  0  0  0  0  0  0  0  0  0  0
  -26.3772  -13.3050  137.2005 C   0  0  0  0  0  0  0  0  0  0  0  0
  -24.9564  -13.2832  136.5884 C   0  0  0  0  0  0  0  0  0  0  0  0
  -24.4750  -14.6070  135.9579 C   0  0  0  0  0  0  0  0  0  0  0  0
  -24.1178  -15.4998  136.9554 F   0  0  0  0  0  0  0  0  0  0  0  0
  -26.7120  -11.6664  139.9750 C   0  0  0  0  0  0  0  0  0  0  0  0
  -27.0813  -14.6200  137.5317 C   0  0  0  0  0  0  0  0  0  0  0  0
  -23.2821  -14.4205  134.9800 C   0  0  0  0  0  0  0  0  0  0  0  0
  -22.8028  -15.7239  134.4672 N   0  0  0  0  0  0  0  0  0  0  0  0
  -25.4168  -11.7568  140.8199 C   0  0  0  0  0  0  0  0  0  0  0  0
  -23.7580  -16.4560  133.6137 C   0  0  0  0  0  0  0  0  0  0  0  0
  -25.6264  -11.5677  142.3447 C   0  0  0  0  0  0  0  0  0  0  0  0
  -22.1070  -13.7004  135.6685 C   0  0  0  0  0  0  0  0  0  0  0  0
  -24.0709  -15.7394  132.2800 C   0  0  0  0  0  0  0  0  0  0  0  0
  -26.1369  -10.1615  142.7683 C   0  0  0  0  0  0  0  0  0  0  0  0
  -24.3399  -11.9420  143.0988 C   0  0  0  0  0  0  0  0  0  0  0  0
  -25.3060   -8.9661  142.2569 C   0  0  0  0  0  0  0  0  0  0  0  0
  -25.4699  -15.1232  132.2631 C   0  0  0  0  0  0  0  0  0  0  0  0
  -25.6384   -7.3964  143.3785 Se  0  0  0  0  0  2  0  0  0  0  0  0
  -25.6458   -8.6554  140.8695 N   0  0  0  0  0  0  0  0  0  0  0  0
  2  1  1  0
  3  1  1  0
  4  3  1  0
  5  1  1  0
  5  2  1  0
  6  4  1  0
  7  6  1  0
  8  7  1  0
  9  8  1  0
 10  3  1  0
 11  4  1  0
 11  6  1  0
 12  8  1  0
 13 12  1  0
 14 10  1  0
 15 13  1  0
 16 14  1  0
 17 12  1  0
 18 15  1  0
 19 16  1  0
 20 16  1  0
 21 19  1  0
 22 18  1  0
 23 21  1  0
 24 21  1  0
M  END
$$$$

     RDKit          3D

 23 25  0  0  0  0  0  0  0  0999 V2000
  -28.4271  -12.8433  149.4521 C   0  0  0  0  0  0  0  0  0  0  0  0
  -29.8628  -12.3822  149.2390 C   0  0  0  0  0  0  0  0  0  0  0  0
  -30.6281  -12.3293  148.1155 C   0  0  0  0  0  0  0  0  0  0  0  0
  -30.4000  -12.7897  146.6769 C   0  0  0  0  0  0  0  0  0  0  0  0
  -28.1365  -14.3923  149.3931 C   0  0  0  0  0  0  0  0  0  0  0  0
  -29.0733  -13.4846  146.3181 C   0  0  0  0  0  0  0  0  0  0  0  0
  -28.9655  -14.9276  146.9050 C   0  0  0  0  0  0  0  0  0  0  0  0
  -28.7996  -13.5706  144.7907 C   0  0  0  0  0  0  0  0  0  0  0  0
  -28.2803  -14.9931  150.8392 C   0  0  0  0  0  0  0  0  0  0  0  0
  -26.6698  -14.7337  148.9202 C   0  0  0  0  0  0  0  0  0  0  0  0
  -27.5142  -12.7510  144.9507 C   0  0  0  0  0  0  0  0  0  0  0  0
  -27.8712  -12.5347  146.4081 C   0  0  0  0  0  0  0  0  0  0  0  0
  -29.7097  -15.0426  151.3958 C   0  0  0  0  0  0  0  0  0  0  0  0
  -29.1351  -15.1249  148.4338 C   0  0  0  0  0  0  0  0  0  0  0  0
  -25.4764  -13.9165  149.4791 C   0  0  0  0  0  0  0  0  0  0  0  0
  -24.6029  -13.2407  148.3805 C   0  0  0  0  0  0  0  0  0  0  0  0
  -24.0708  -14.2107  147.2821 C   0  0  0  0  0  0  0  0  0  0  0  0
  -24.0374  -13.6451  145.8274 C   0  0  0  0  0  0  0  0  0  0  0  0
  -22.7476  -12.8348  145.5625 C   0  0  0  0  0  0  0  0  0  0  0  0
  -26.1823  -13.5381  144.8247 C   0  0  0  0  0  0  0  0  0  0  0  0
  -25.1758  -12.8382  145.5396 O   0  0  0  0  0  0  0  0  0  0  0  0
  -22.8805  -11.3784  145.9365 C   0  0  0  0  0  0  0  0  0  0  0  0
  -23.0821  -10.4427  145.0013 C   0  0  0  0  0  0  0  0  0  0  0  0
  2  1  1  0
  3  2  2  3
  4  3  1  0
  5  1  1  0
  6  4  1  0
  7  6  1  0
  8  6  1  0
  9  5  1  0
 10  5  1  0
 11  8  1  0
 12  6  1  0
 12 11  1  0
 13  9  1  0
 14  5  1  0
 14  7  1  0
 15 10  1  0
 16 15  1  0
 17 16  1  0
 18 17  1  0
 19 18  1  0
 20 11  1  0
 21 18  1  0
 21 20  1  0
 22 19  1  0
 23 22  2  0
M  END
$$$$

     RDKit          3D

 24 33  0  0  0  0  0  0  0  0999 V2000
  -28.2043  -19.9775  145.2632 Al  0  0  0  0  0  3  0  0  0  0  0  0
  -24.6248  -16.7879  145.7170 O   0  0  0  0  0  0  0  0  0  0  0  0
  -24.7949  -17.4588  146.9314 C   0  0  0  0  0  0  0  0  0  0  0  0
  -25.3990  -16.6131  147.8712 O   0  0  0  0  0  0  0  0  0  0  0  0
  -25.6336  -17.7828  145.7481 C   0  0  0  0  0  0  0  0  0  0  0  0
  -28.0744  -20.8308  143.4063 C   0  0  0  0  0  0  0  0  0  0  0  0
  -26.2093  -20.2204  144.7472 C   0  0  0  0  0  0  0  0  0  0  0  0
  -27.2215  -22.0300  142.8548 C   0  0  0  0  0  0  0  0  0  0  0  0
  -25.2017  -19.0843  145.0355 C   0  0  0  0  0  0  0  0  0  0  0  0
  -25.6546  -21.5428  145.2800 C   0  0  0  0  0  0  0  0  0  0  0  0
  -27.5528  -19.3752  143.3859 C   0  0  0  0  0  0  0  0  0  0  0  0
  -25.2774  -20.2744  145.9853 C   0  0  0  0  0  0  0  0  0  0  0  0
  -28.5153  -19.8561  142.3067 C   0  0  0  0  0  0  0  0  0  0  0  0
  -27.7561  -22.4452  141.4978 C   0  0  0  0  0  0  0  0  0  0  0  0
  -27.5496  -21.3422  140.4425 C   0  0  0  0  0  0  0  0  0  0  0  0
  -26.4348  -20.2925  140.7474 C   0  0  0  0  0  0  0  0  0  0  0  0
  -25.8544  -19.8732  139.3670 C   0  0  0  0  0  0  0  0  0  0  0  0
  -25.0161  -18.5582  139.2853 C   0  0  0  0  0  0  0  0  0  0  0  0
  -27.9379  -19.9643  140.8609 C   0  0  0  0  0  0  0  0  0  0  0  0
  -25.1384  -20.9023  140.2255 C   0  0  0  0  0  0  0  0  0  0  0  0
  -25.7480  -17.3843  139.8135 C   0  0  0  0  0  0  0  0  0  0  0  0
  -25.3720  -17.3823  138.3064 C   0  0  0  0  0  0  0  0  0  0  0  0
  -26.7575  -17.4153  137.6232 C   0  0  0  0  0  0  0  0  0  0  0  0
  -25.6143  -18.0597  136.9231 C   0  0  0  0  0  0  0  0  0  0  0  0
  3  2  1  0
  4  3  1  0
  5  2  1  0
  5  3  1  0
  6  1  1  0
  7  1  1  0
  8  6  1  0
  9  5  1  0
  9  7  1  0
 10  7  1  0
 11  1  1  0
 11  6  1  0
 12  7  1  0
 12  9  1  0
 12 10  1  0
 13  6  1  0
 13 11  1  0
 14  8  1  0
 15 14  1  0
 16 15  1  0
 17 16  1  0
 18 17  1  0
 19 13  1  0
 19 15  1  0
 19 16  1  0
 20 16  1  0
 20 17  1  0
 21 18  1  0
 22 18  1  0
 22 21  1  0
 23 22  1  0
 24 22  1  0
 24 23  1  0
M  END
$$$$

     RDKit          3D

 24 27  0  0  0  0  0  0  0  0999 V2000
  -32.8424  -21.4695  142.7131 O   0  0  0  0  0  0  0  0  0  0  0  0
  -31.4779  -21.5053  143.0790 C   0  0  0  0  0  0  0  0  0  0  0  0
  -30.6878  -21.9920  142.0338 O   0  0  0  0  0  0  0  0  0  0  0  0
  -32.4437  -22.4909  143.6076 C   0  0  0  0  0  0  0  0  0  0  0  0
  -32.9041  -22.2415  145.0484 C   0  0  0  0  0  0  0  0  0  0  0  0
  -34.2126  -22.9951  145.3486 C   0  0  0  0  0  0  0  0  0  0  0  0
  -35.4532  -22.3108  144.7230 C   0  0  0  0  0  0  0  0  0  0  0  0
  -36.4637  -21.8099  145.7772 C   0  0  0  0  0  0  0  0  0  0  0  0
  -35.9228  -20.6658  146.6645 C   0  0  0  0  0  0  0  0  0  0  0  0
  -35.4195  -18.1703  146.8405 C   0  0  0  0  0  0  0  0  0  0  0  0
  -35.8932  -19.3158  145.9288 C   0  0  0  0  0  0  0  0  0  0  0  0
  -36.4571  -17.8251  147.9343 C   0  0  0  0  0  0  0  0  0  0  0  0
  -36.7286  -16.3138  148.0917 C   0  0  0  0  0  0  0  0  0  0  0  0
  -37.6189  -15.7209  146.9754 C   0  0  0  0  0  0  0  0  0  0  0  0
  -36.8203  -15.0744  145.8136 C   0  0  0  0  0  0  0  0  0  0  0  0
  -37.1091  -15.7635  144.4672 C   0  0  0  0  0  0  0  0  0  0  0  0
  -36.1782  -15.2928  143.3369 C   0  0  0  0  0  0  0  0  0  0  0  0
  -36.3495  -13.8175  142.9546 C   0  0  0  0  0  0  0  0  0  0  0  0
  -37.7995  -13.5381  142.5041 C   0  0  0  0  0  0  0  0  0  0  0  0
  -38.5880  -12.3206  142.9239 C   0  0  0  0  0  0  0  0  0  0  0  0
  -40.0029  -12.6699  142.4503 C   0  0  0  0  0  0  0  0  0  0  0  0
  -37.8234  -12.2990  141.6336 C   0  0  0  0  0  0  0  0  0  0  0  0
  -39.7611  -13.5836  141.1883 C   0  0  0  0  0  0  0  0  0  0  0  0
  -38.2383  -13.6393  141.0718 C   0  0  0  0  0  0  0  0  0  0  0  0
  2  1  1  0
  3  2  1  0
  4  1  1  0
  4  2  1  0
  5  4  1  0
  6  5  1  0
  7  6  1  0
  8  7  1  0
  9  8  1  0
 11  9  1  0
 11 10  1  0
 12 10  1  0
 13 12  1  0
 14 13  1  0
 15 14  1  0
 16 15  1  0
 17 16  1  0
 18 17  1  0
 19 18  1  0
 20 19  1  0
 21 20  1  0
 22 19  1  0
 22 20  1  0
 23 21  1  0
 24 19  1  0
 24 22  1  0
 24 23  1  0
M  END
$$$$

     RDKit          3D

 22 25  0  0  0  0  0  0  0  0999 V2000
  -20.4542  -21.1514  135.3404 C   0  0  0  0  0  0  0  0  0  0  0  0
  -20.1191  -19.2661  137.0892 C   0  0  0  0  0  0  0  0  0  0  0  0
  -20.9655  -19.8472  135.9390 C   0  0  0  0  0  0  0  0  0  0  0  0
  -21.7805  -21.1437  136.1091 C   0  0  0  0  0  0  0  0  0  0  0  0
  -20.9768  -18.2840  137.9059 C   0  0  0  0  0  0  0  0  0  0  0  0
  -21.8115  -22.1417  137.2794 C   0  0  0  0  0  0  0  0  0  0  0  0
  -21.8717  -16.2325  140.8882 N   0  0  0  0  0  0  0  0  0  0  0  0
  -23.3037  -22.4808  137.3263 C   0  0  0  0  0  0  0  0  0  0  0  0
  -23.5146  -17.3783  139.7252 C   0  0  0  0  0  0  0  0  0  0  0  0
  -24.1031  -18.6349  139.4913 O   0  0  0  0  0  0  0  0  0  0  0  0
  -21.3844  -21.5639  138.5004 O   0  0  0  0  0  0  0  0  0  0  0  0
  -22.0869  -15.2998  141.9439 C   0  0  0  0  0  0  0  0  0  0  0  0
  -22.5883  -17.4380  140.8626 N   0  0  0  0  0  0  0  0  0  0  0  0
  -24.0912  -21.8813  136.1633 C   0  0  0  0  0  0  0  0  0  0  0  0
  -23.0338  -21.2823  135.2416 C   0  0  0  0  0  0  0  0  0  0  0  0
  -18.9081  -18.5342  136.4992 C   0  0  0  0  0  0  0  0  0  0  0  0
  -20.4753  -22.4191  139.1611 C   0  0  0  0  0  0  0  0  0  0  0  0
  -22.0444  -18.9753  138.5202 O   0  0  0  0  0  0  0  0  0  0  0  0
  -23.6923  -23.8774  137.7973 C   0  0  0  0  0  0  0  0  0  0  0  0
  -23.2015  -18.1782  138.5063 C   0  0  0  0  0  0  0  0  0  0  0  0
  -24.0276  -22.6623  138.6594 C   0  0  0  0  0  0  0  0  0  0  0  0
  -21.4859  -14.1934  141.9422 O   0  0  0  0  0  0  0  0  0  0  0  0
  3  1  1  0
  3  2  1  0
  4  1  1  0
  4  3  1  0
  5  2  1  0
  6  4  1  0
  8  6  1  0
 10  9  1  0
 11  6  1  0
 12  7  1  0
 13  7  1  0
 13  9  1  0
 14  8  1  0
 15  4  1  0
 15 14  1  0
 16  2  1  0
 17 11  1  0
 18  5  1  0
 19  8  1  0
 20  9  1  0
 20 10  1  0
 20 18  1  0
 21  8  1  0
 21 19  1  0
 22 12  2  0
M  END
$$$$

     RDKit          3D

 24 27  0  0  0  0  0  0  0  0999 V2000
  -21.0393    3.6635  131.0810 C   0  0  0  0  0  0  0  0  0  0  0  0
  -19.9863    2.9113  131.8807 N   0  0  0  0  0  0  0  0  0  0  0  0
  -20.5766    1.8187  132.6681 C   0  0  0  0  0  0  0  0  0  0  0  0
  -22.3363    3.4673  131.7192 N   0  0  0  0  0  0  0  0  0  0  0  0
  -22.7598    1.9853  131.7237 C   0  0  0  0  0  0  0  0  0  0  0  0
  -21.5983    1.0763  131.7480 N   0  0  0  0  0  0  0  0  0  0  0  0
  -23.4206    1.3281  132.8621 N   0  0  0  0  0  0  0  0  0  0  0  0
  -18.4572    0.9447  134.1029 C   0  0  0  0  0  0  0  0  0  0  0  0
  -18.7321    2.2747  134.7422 C   0  0  0  0  0  0  0  0  0  0  0  0
  -19.4249    3.0143  135.9965 C   0  0  0  0  0  0  0  0  0  0  0  0
  -20.9853    3.5376  136.0129 C   0  0  0  0  0  0  0  0  0  0  0  0
  -19.2200    1.0594  132.7545 C   0  0  0  0  0  0  0  0  0  0  0  0
  -22.3890    2.8256  136.2290 C   0  0  0  0  0  0  0  0  0  0  0  0
  -18.8323    2.0371  131.6166 C   0  0  0  0  0  0  0  0  0  0  0  0
  -22.9379    4.5964  132.4993 C   0  0  0  0  0  0  0  0  0  0  0  0
  -22.3361    1.2473  135.9958 C   0  0  0  0  0  0  0  0  0  0  0  0
  -21.6112    3.4343  137.4070 C   0  0  0  0  0  0  0  0  0  0  0  0
  -23.1948   -1.2782  131.8944 C   0  0  0  0  0  0  0  0  0  0  0  0
  -23.0501   -3.3392  129.7253 C   0  0  0  0  0  0  0  0  0  0  0  0
  -22.4263    0.1793  132.5909 C   0  0  0  0  0  0  0  0  0  0  0  0
  -23.0443   -3.8786  132.0656 C   0  0  0  0  0  0  0  0  0  0  0  0
  -22.8765   -2.7782  131.2195 C   0  0  0  0  0  0  0  0  0  0  0  0
  -23.0975    5.9103  132.0705 C   0  0  0  0  0  0  0  0  0  0  0  0
  -22.1389   -4.2081  129.1920 C   0  0  0  0  0  0  0  0  0  0  0  0
  2  1  1  0
  3  2  1  0
  4  1  1  0
  5  4  1  0
  6  3  1  0
  6  5  1  0
  7  5  1  0
  9  8  2  3
 10  9  1  0
 11 10  1  0
 12  3  1  0
 12  8  1  0
 13 11  1  0
 14  2  1  0
 14 12  1  0
 15  4  1  0
 16 13  1  0
 17 11  1  0
 17 13  1  0
 20  6  1  0
 20  7  1  0
 20 18  1  0
 22 18  1  0
 22 19  1  0
 22 21  2  0
 23 15  2  0
 24 19  2  0
M  END
$$$$

     RDKit          3D

 20 23  0  0  0  0  0  0  0  0999 V2000
  -32.6211    0.0126  142.9628 O   0  0  0  0  0  0  0  0  0  0  0  0
  -33.0658    0.6853  144.1116 C   0  0  0  0  0  0  0  0  0  0  0  0
  -34.2572    2.4938  143.9355 C   0  0  0  0  0  0  0  0  0  0  0  0
  -35.2183    0.4337  142.9815 O   0  0  0  0  0  0  0  0  0  0  0  0
  -31.9340    2.6709  145.2438 C   0  0  0  0  0  0  0  0  0  0  0  0
  -32.7532    2.1833  144.0266 C   0  0  0  0  0  0  0  0  0  0  0  0
  -34.5654    1.0026  144.0881 C   0  0  0  0  0  0  0  0  0  0  0  0
  -32.6106    3.1762  146.5340 C   0  0  0  0  0  0  0  0  0  0  0  0
  -31.8197    3.1815  147.8714 C   0  0  0  0  0  0  0  0  0  0  0  0
  -32.7281    3.0983  149.1416 C   0  0  0  0  0  0  0  0  0  0  0  0
  -32.0365    4.1593  145.5043 C   0  0  0  0  0  0  0  0  0  0  0  0
  -33.5393    1.8365  149.5723 C   0  0  0  0  0  0  0  0  0  0  0  0
  -30.6105    2.2257  147.9150 C   0  0  0  0  0  0  0  0  0  0  0  0
  -32.8618    0.4626  149.5277 C   0  0  0  0  0  0  0  0  0  0  0  0
  -33.2287   -0.3945  150.7491 C   0  0  0  0  0  0  0  0  0  0  0  0
  -33.7051    0.0714  148.3202 C   0  0  0  0  0  0  0  0  0  0  0  0
  -34.6957   -0.4825  151.1437 C   0  0  0  0  0  0  0  0  0  0  0  0
  -35.7907    0.0286  150.5190 C   0  0  0  0  0  0  0  0  0  0  0  0
  -35.8818    0.9292  149.2886 C   0  0  0  0  0  0  0  0  0  0  0  0
  -34.5699    1.3004  148.5764 C   0  0  0  0  0  0  0  0  0  0  0  0
  2  1  1  0
  6  2  1  0
  6  3  1  0
  6  5  1  0
  7  2  1  0
  7  3  1  0
  7  4  1  0
  8  5  1  0
  9  8  1  0
 10  9  1  0
 11  5  1  0
 11  8  1  0
 12 10  1  0
 13  9  1  0
 14 12  1  0
 15 14  1  0
 16 14  1  0
 17 15  1  0
 18 17  2  0
 19 18  1  0
 20 12  1  0
 20 16  1  0
 20 19  1  0
M  END
$$$$

     RDKit          3D

 11 13  0  0  0  0  0  0  0  0999 V2000
  -31.9858   -7.4534  132.3225 O   0  0  0  0  0  0  0  0  0  0  0  0
  -31.1760   -8.5413  132.5439 C   0  0  0  0  0  0  0  0  0  0  0  0
  -31.9406   -9.7079  132.5757 O   0  0  0  0  0  0  0  0  0  0  0  0
  -31.5022   -7.5748  133.6598 C   0  0  0  0  0  0  0  0  0  0  0  0
  -30.0547   -7.1090  134.0030 C   0  0  0  0  0  0  0  0  0  0  0  0
  -31.1259   -6.0992  133.9352 C   0  0  0  0  0  0  0  0  0  0  0  0
  -31.6173   -5.5782  135.2886 C   0  0  0  0  0  0  0  0  0  0  0  0
  -32.9688   -4.8871  135.1123 C   0  0  0  0  0  0  0  0  0  0  0  0
  -33.8646   -4.9038  136.2897 C   0  0  0  0  0  0  0  0  0  0  0  0
  -34.0423   -5.7946  135.2116 O   0  0  0  0  0  0  0  0  0  0  0  0
  -34.8557   -3.9205  136.2786 O   0  0  0  0  0  0  0  0  0  0  0  0
  2  1  1  0
  3  2  1  0
  4  1  1  0
  4  2  1  0
  5  4  1  0
  6  4  1  0
  6  5  1  0
  7  6  1  0
  8  7  1  0
  9  8  1  0
 10  8  1  0
 10  9  1  0
 11  9  1  0
M  END
$$$$

     RDKit          3D

 24 26  0  0  0  0  0  0  0  0999 V2000
  -25.4505  -12.4839  137.8005 O   0  0  0  0  0  0  0  0  0  0  0  0
  -25.8011  -13.4698  138.7459 C   0  0  0  0  0  0  0  0  0  0  0  0
  -25.7461  -13.2002  140.0578 C   0  0  0  0  0  0  0  0  0  0  0  0
  -26.1182  -14.8870  138.3222 C   0  0  0  0  0  0  0  0  0  0  0  0
  -25.0182  -12.0219  140.6345 C   0  0  0  0  0  0  0  0  0  0  0  0
  -26.3178  -11.9599  136.7764 C   0  0  0  0  0  0  0  0  0  0  0  0
  -25.0204  -15.8743  138.6867 C   0  0  0  0  0  0  0  0  0  0  0  0
  -27.4317  -11.0748  137.3953 C   0  0  0  0  0  0  0  0  0  0  0  0
  -26.9271  -13.0604  135.8947 C   0  0  0  0  0  0  0  0  0  0  0  0
  -25.9564  -10.9167  141.1427 C   0  0  0  0  0  0  0  0  0  0  0  0
  -27.1341   -9.5848  137.4823 C   0  0  0  0  0  0  0  0  0  0  0  0
  -25.2132  -10.1114  142.1724 C   0  0  0  0  0  0  0  0  0  0  0  0
  -24.3646  -16.5941  137.5498 C   0  0  0  0  0  0  0  0  0  0  0  0
  -25.9306   -8.9510  136.8103 C   0  0  0  0  0  0  0  0  0  0  0  0
  -24.3784   -9.1298  141.8013 C   0  0  0  0  0  0  0  0  0  0  0  0
  -23.2077   -8.7464  142.6784 C   0  0  0  0  0  0  0  0  0  0  0  0
  -22.1150   -9.8401  142.6200 C   0  0  0  0  0  0  0  0  0  0  0  0
  -25.2722  -15.4393  137.1984 C   0  0  0  0  0  0  0  0  0  0  0  0
  -28.0899   -8.7874  137.9880 C   0  0  0  0  0  0  0  0  0  0  0  0
  -21.5311  -10.0598  141.2070 C   0  0  0  0  0  0  0  0  0  0  0  0
  -22.6621   -7.3645  142.2973 C   0  0  0  0  0  0  0  0  0  0  0  0
  -20.8837  -11.4398  141.0841 C   0  0  0  0  0  0  0  0  0  0  0  0
  -25.2233   -7.8841  137.6414 C   0  0  0  0  0  0  0  0  0  0  0  0
  -24.5799   -9.2388  137.4438 C   0  0  0  0  0  0  0  0  0  0  0  0
  2  1  1  0
  3  2  2  3
  4  2  1  0
  5  3  1  0
  6  1  1  0
  7  4  1  0
  8  6  1  0
  9  6  1  0
 10  5  1  0
 11  8  1  0
 12 10  1  0
 13  7  1  0
 14 11  1  0
 15 12  2  3
 16 15  1  0
 17 16  1  0
 18  4  1  0
 18  7  1  0
 18 13  1  0
 19 11  2  0
 20 17  1  0
 21 16  1  0
 22 20  1  0
 23 14  1  0
 24 14  1  0
 24 23  1  0
M  END
$$$$

     RDKit          3D

 24 25  0  0  0  0  0  0  0  0999 V2000
  -35.3955  -13.1909  145.8977 C   0  0  0  0  0  0  0  0  0  0  0  0
  -33.4126  -14.4645  144.9241 C   0  0  0  0  0  0  0  0  0  0  0  0
  -32.4583  -15.5861  145.6845 C   0  0  0  0  0  0  0  0  0  0  0  0
  -34.9980  -12.6803  143.6004 C   0  0  0  0  0  0  0  0  0  0  0  0
  -32.7965  -16.0383  147.2148 C   0  0  0  0  0  0  0  0  0  0  0  0
  -31.2261  -18.5078  146.6662 C   0  0  0  0  0  0  0  0  0  0  0  0
  -30.7477  -20.7649  145.6632 C   0  0  0  0  0  0  0  0  0  0  0  0
  -34.9739  -13.8828  144.6227 C   0  0  0  0  0  0  0  0  0  0  0  0
  -33.0787  -14.6357  146.5192 C   0  0  0  0  0  0  0  0  0  0  0  0
  -33.1146  -18.5367  148.6550 C   0  0  0  0  0  0  0  0  0  0  0  0
  -32.1208  -17.5534  147.7045 C   0  0  0  0  0  0  0  0  0  0  0  0
  -33.2498  -19.6743  145.5894 C   0  0  0  0  0  0  0  0  0  0  0  0
  -34.0983  -18.5310  144.8861 C   0  0  0  0  0  0  0  0  0  0  0  0
  -31.7005  -19.4210  145.5068 C   0  0  0  0  0  0  0  0  0  0  0  0
  -34.8050  -17.3740  145.5401 C   0  0  0  0  0  0  0  0  0  0  0  0
  -35.4159  -17.2649  146.8151 C   0  0  0  0  0  0  0  0  0  0  0  0
  -35.9341  -15.8610  147.5527 C   0  0  0  0  0  0  0  0  0  0  0  0
  -35.6521  -14.8560  149.0267 C   0  0  0  0  0  0  0  0  0  0  0  0
  -34.5158  -14.4281  151.4146 C   0  0  0  0  0  0  0  0  0  0  0  0
  -35.6239  -15.2384  151.9966 C   0  0  0  0  0  0  0  0  0  0  0  0
  -35.4133  -12.2324  148.9717 C   0  0  0  0  0  0  0  0  0  0  0  0
  -34.2531  -14.6309  149.8831 C   0  0  0  0  0  0  0  0  0  0  0  0
  -36.8692  -14.7616  151.8869 C   0  0  0  0  0  0  0  0  0  0  0  0
  -36.3649  -13.3814  149.1577 N   0  0  0  0  0  0  0  0  0  0  0  0
  3  2  1  0
  5  3  1  0
  8  1  1  0
  8  2  1  0
  8  4  1  0
  9  2  1  0
  9  3  1  0
  9  5  1  0
 11  5  1  0
 11  6  1  0
 11 10  1  0
 13 12  1  0
 14  6  1  0
 14  7  1  0
 14 12  1  0
 15 13  1  0
 16 15  2  3
 17 16  1  0
 18 17  1  0
 20 19  1  0
 22 18  1  0
 22 19  1  0
 23 20  2  0
 24 18  1  0
 24 21  1  0
M  END
$$$$

     RDKit          3D

 24 24  0  0  0  0  0  0  0  0999 V2000
  -20.0317   -3.7529  140.0740 C   0  0  0  0  0  0  0  0  0  0  0  0
  -20.3600   -4.5341  141.3557 C   0  0  0  0  0  0  0  0  0  0  0  0
  -19.1165   -5.2574  141.9054 C   0  0  0  0  0  0  0  0  0  0  0  0
  -19.2950   -5.9765  143.2372 C   0  0  0  0  0  0  0  0  0  0  0  0
  -18.9049   -2.7071  140.2162 C   0  0  0  0  0  0  0  0  0  0  0  0
  -18.5556   -4.6441  143.1860 C   0  0  0  0  0  0  0  0  0  0  0  0
  -17.0264   -4.6877  143.2835 C   0  0  0  0  0  0  0  0  0  0  0  0
  -16.5846   -3.8872  144.5226 C   0  0  0  0  0  0  0  0  0  0  0  0
  -19.2230   -1.5651  141.2018 C   0  0  0  0  0  0  0  0  0  0  0  0
  -20.4653   -0.8062  140.8089 C   0  0  0  0  0  0  0  0  0  0  0  0
  -15.0527   -3.6950  144.6586 C   0  0  0  0  0  0  0  0  0  0  0  0
  -14.3862   -2.9523  143.4697 C   0  0  0  0  0  0  0  0  0  0  0  0
  -20.5146   -0.0543  139.7071 C   0  0  0  0  0  0  0  0  0  0  0  0
  -15.0610   -1.6246  143.0216 C   0  0  0  0  0  0  0  0  0  0  0  0
  -14.3546   -5.0408  144.8881 C   0  0  0  0  0  0  0  0  0  0  0  0
  -21.7301    0.6319  139.2364 C   0  0  0  0  0  0  0  0  0  0  0  0
  -22.9739    0.1859  139.4674 C   0  0  0  0  0  0  0  0  0  0  0  0
  -24.1858    0.8810  138.9191 C   0  0  0  0  0  0  0  0  0  0  0  0
  -24.2680    0.7232  137.4030 C   0  0  0  0  0  0  0  0  0  0  0  0
  -14.2554   -0.9525  141.8736 C   0  0  0  0  0  0  0  0  0  0  0  0
  -15.2922   -0.6140  144.1837 C   0  0  0  0  0  0  0  0  0  0  0  0
  -14.3032   -1.7467  140.5553 C   0  0  0  0  0  0  0  0  0  0  0  0
  -14.0292   -0.1794  144.9297 C   0  0  0  0  0  0  0  0  0  0  0  0
  -13.6156   -0.9810  139.4295 C   0  0  0  0  0  0  0  0  0  0  0  0
  2  1  1  0
  3  2  1  0
  4  3  1  0
  5  1  1  0
  6  3  1  0
  6  4  1  0
  7  6  1  0
  8  7  1  0
  9  5  1  0
 10  9  1  0
 11  8  1  0
 12 11  1  0
 13 10  2  3
 14 12  1  0
 15 11  1  0
 16 13  1  0
 17 16  2  3
 18 17  1  0
 19 18  1  0
 20 14  1  0
 21 14  1  0
 22 20  1  0
 23 21  1  0
 24 22  1  0
M  END
$$$$

     RDKit          3D

 24 26  0  0  0  0  0  0  0  0999 V2000
  -25.5552  -17.1106  141.1258 O   0  0  0  0  0  0  0  0  0  0  0  0
  -26.4519  -16.1746  141.6649 C   0  0  0  0  0  0  0  0  0  0  0  0
  -26.8042  -15.1712  140.9665 O   0  0  0  0  0  0  0  0  0  0  0  0
  -25.1900  -18.3243  141.7696 C   0  0  0  0  0  0  0  0  0  0  0  0
  -23.8030  -18.8059  141.2516 C   0  0  0  0  0  0  0  0  0  0  0  0
  -22.6224  -18.8500  142.2703 C   0  0  0  0  0  0  0  0  0  0  0  0
  -22.8902  -19.3602  143.6902 C   0  0  0  0  0  0  0  0  0  0  0  0
  -22.4771  -20.8124  143.9265 C   0  0  0  0  0  0  0  0  0  0  0  0
  -20.5883  -18.8076  140.5765 C   0  0  0  0  0  0  0  0  0  0  0  0
  -20.0338  -17.4045  141.0030 C   0  0  0  0  0  0  0  0  0  0  0  0
  -23.4625  -21.9110  144.4196 C   0  0  0  0  0  0  0  0  0  0  0  0
  -23.1450  -21.7994  142.9554 C   0  0  0  0  0  0  0  0  0  0  0  0
  -20.4447  -20.5205  142.5589 C   0  0  0  0  0  0  0  0  0  0  0  0
  -21.0023  -21.0112  143.9002 C   0  0  0  0  0  0  0  0  0  0  0  0
  -20.9152  -16.1173  140.9217 C   0  0  0  0  0  0  0  0  0  0  0  0
  -21.7089  -15.5930  139.6015 C   0  0  0  0  0  0  0  0  0  0  0  0
  -21.1892  -14.1862  139.0389 C   0  0  0  0  0  0  0  0  0  0  0  0
  -22.1905  -16.5119  138.4319 C   0  0  0  0  0  0  0  0  0  0  0  0
  -21.3865  -19.6162  141.6258 C   0  0  0  0  0  0  0  0  0  0  0  0
  -22.2457  -13.0565  139.2146 C   0  0  0  0  0  0  0  0  0  0  0  0
  -20.6791  -14.2177  137.5648 C   0  0  0  0  0  0  0  0  0  0  0  0
  -21.6340  -11.8303  139.8889 C   0  0  0  0  0  0  0  0  0  0  0  0
  -22.4617  -11.1709  141.0168 C   0  0  0  0  0  0  0  0  0  0  0  0
  -21.3235  -12.0939  141.3761 C   0  0  0  0  0  0  0  0  0  0  0  0
  2  1  1  0
  3  2  2  0
  4  1  1  0
  5  4  1  0
  6  5  1  0
  7  6  1  0
  8  7  1  0
 10  9  1  0
 11  8  1  0
 12  8  1  0
 12 11  1  0
 14  8  1  0
 14 13  1  0
 15 10  1  0
 16 15  1  0
 17 16  1  0
 18 16  1  0
 19  6  1  0
 19  9  1  0
 19 13  1  0
 20 17  1  0
 21 17  1  0
 22 20  1  0
 23 22  1  0
 24 22  1  0
 24 23  1  0
M  END
$$$$

     RDKit          3D

 24 30  0  0  0  0  0  0  0  0999 V2000
  -17.3304    0.7004  142.8800 O   0  0  0  0  0  0  0  0  0  0  0  0
  -17.0989    2.0023  143.3937 C   0  0  0  0  0  0  0  0  0  0  0  0
  -17.1609    1.9915  144.9414 C   0  0  0  0  0  0  0  0  0  0  0  0
  -15.7756    2.5057  142.8558 C   0  0  0  0  0  0  0  0  0  0  0  0
  -14.6310    2.4052  143.5488 C   0  0  0  0  0  0  0  0  0  0  0  0
  -14.5711    1.6732  144.8657 C   0  0  0  0  0  0  0  0  0  0  0  0
  -15.8904    1.7700  145.6744 C   0  0  0  0  0  0  0  0  0  0  0  0
  -15.9244    1.4183  147.1267 N   0  0  0  0  0  0  0  0  0  0  0  0
  -15.5623    0.1086  147.7648 C   0  0  0  0  0  0  0  0  0  0  0  0
  -16.4535    3.1429  145.5230 N   0  0  0  0  0  0  0  0  0  0  0  0
  -14.8735   -0.9526  146.9106 C   0  0  0  0  0  0  0  0  0  0  0  0
  -15.8467   -1.4693  145.8691 C   0  0  0  0  0  0  0  0  0  0  0  0
  -16.3660   -1.0371  147.2210 C   0  0  0  0  0  0  0  0  0  0  0  0
  -18.5923   -0.7762  140.6369 C   0  0  0  0  0  0  0  0  0  0  0  0
  -18.3044   -2.1352  142.7630 C   0  0  0  0  0  0  0  0  0  0  0  0
  -19.1312   -2.7190  143.9330 C   0  0  0  0  0  0  0  0  0  0  0  0
  -18.3294   -3.6844  144.8045 C   0  0  0  0  0  0  0  0  0  0  0  0
  -18.7167    0.4024  142.8721 C   0  0  0  0  0  0  0  0  0  0  0  0
  -20.3689   -4.4497  142.2718 C   0  0  0  0  0  0  0  0  0  0  0  0
  -21.4053   -3.7044  141.4387 C   0  0  0  0  0  0  0  0  0  0  0  0
  -19.3691   -4.7706  144.5866 C   0  0  0  0  0  0  0  0  0  0  0  0
  -20.1751   -3.8366  143.6801 C   0  0  0  0  0  0  0  0  0  0  0  0
  -18.9931   -0.9098  142.1135 C   0  0  0  0  0  0  0  0  0  0  0  0
  -16.9386    0.3576  147.2907 C   0  0  0  0  0  0  0  0  0  0  0  0
  2  1  1  0
  3  2  1  0
  4  2  1  0
  5  4  2  0
  6  5  1  0
  7  3  1  0
  7  6  1  0
  8  7  1  0
  9  8  1  0
 10  3  1  0
 10  7  1  0
 11  9  1  0
 12 11  1  0
 13  9  1  0
 13 11  1  0
 13 12  1  0
 16 15  1  0
 17 16  1  0
 18  1  1  0
 20 19  1  0
 21 17  1  0
 22 16  1  0
 22 19  1  0
 22 21  1  0
 23 14  1  0
 23 15  1  0
 23 18  1  0
 24  8  1  0
 24  9  1  0
 24 13  1  0
M  END
$$$$

     RDKit          3D

 24 26  0  0  0  0  0  0  0  0999 V2000
  -16.6361    3.1321  140.6320 O   0  0  0  0  0  0  0  0  0  0  0  0
  -16.7941    1.5519  142.4627 C   0  0  0  0  0  0  0  0  0  0  0  0
  -15.8727    0.4898  141.8140 C   0  0  0  0  0  0  0  0  0  0  0  0
  -14.8606   -0.0703  142.8543 C   0  0  0  0  0  0  0  0  0  0  0  0
  -16.6762   -0.6528  141.1737 C   0  0  0  0  0  0  0  0  0  0  0  0
  -16.5950   -3.5018  145.5678 O   0  0  0  0  0  0  0  0  0  0  0  0
  -13.5948    0.7950  143.0406 C   0  0  0  0  0  0  0  0  0  0  0  0
  -12.7464    0.7402  144.3483 C   0  0  0  0  0  0  0  0  0  0  0  0
  -15.4063   -0.8822  144.0762 C   0  0  0  0  0  0  0  0  0  0  0  0
  -17.5372    2.4208  141.4382 C   0  0  0  0  0  0  0  0  0  0  0  0
  -14.8742   -0.2864  145.4051 C   0  0  0  0  0  0  0  0  0  0  0  0
  -13.3394   -0.2045  145.4323 C   0  0  0  0  0  0  0  0  0  0  0  0
  -16.4433   -4.6077  143.4495 C   0  0  0  0  0  0  0  0  0  0  0  0
  -15.4000   -1.0068  146.6533 C   0  0  0  0  0  0  0  0  0  0  0  0
  -13.5169   -0.5123  142.2579 C   0  0  0  0  0  0  0  0  0  0  0  0
  -16.4933   -3.2634  144.1891 C   0  0  0  0  0  0  0  0  0  0  0  0
  -12.3482    2.1641  144.8902 C   0  0  0  0  0  0  0  0  0  0  0  0
  -11.4999    2.9335  143.8308 C   0  0  0  0  0  0  0  0  0  0  0  0
  -10.7939    4.1656  144.4198 C   0  0  0  0  0  0  0  0  0  0  0  0
  -10.1540    3.8773  145.7440 C   0  0  0  0  0  0  0  0  0  0  0  0
  -15.2231   -2.4276  143.8896 C   0  0  0  0  0  0  0  0  0  0  0  0
  -10.5597    2.8631  146.5043 C   0  0  0  0  0  0  0  0  0  0  0  0
  -13.5911    2.9911  145.2733 C   0  0  0  0  0  0  0  0  0  0  0  0
  -11.5530    1.9785  146.0693 O   0  0  0  0  0  0  0  0  0  0  0  0
  3  2  1  0
  4  3  1  0
  5  3  1  0
  7  4  1  0
  8  7  1  0
  9  4  1  0
 10  1  1  0
 10  2  1  0
 11  9  1  0
 12  8  1  0
 12 11  1  0
 14 11  1  0
 15  4  1  0
 15  7  1  0
 16  6  1  0
 16 13  1  0
 17  8  1  0
 18 17  1  0
 19 18  1  0
 20 19  1  0
 21  9  1  0
 21 16  1  0
 22 20  2  0
 23 17  1  0
 24 17  1  0
 24 22  1  0
M  END
$$$$

     RDKit          3D

 23 25  0  0  0  0  0  0  0  0999 V2000
  -24.4672  -24.1059  147.2274 C   0  0  0  0  0  0  0  0  0  0  0  0
  -25.4585  -25.0838  146.9914 O   0  0  0  0  0  0  0  0  0  0  0  0
  -25.0559  -25.9057  146.0316 O   0  0  0  0  0  0  0  0  0  0  0  0
  -23.8507  -24.4094  148.6724 C   0  0  0  0  0  0  0  0  0  0  0  0
  -28.8566  -23.2294  149.4760 C   0  0  0  0  0  0  0  0  0  0  0  0
  -27.0142  -25.0452  150.2032 C   0  0  0  0  0  0  0  0  0  0  0  0
  -26.1146  -25.6354  151.4023 C   0  0  0  0  0  0  0  0  0  0  0  0
  -27.5710  -21.2354  148.0961 C   0  0  0  0  0  0  0  0  0  0  0  0
  -22.9917  -24.3652  147.4108 C   0  0  0  0  0  0  0  0  0  0  0  0
  -24.5878  -25.1624  151.6493 C   0  0  0  0  0  0  0  0  0  0  0  0
  -23.8287  -25.7686  152.9442 C   0  0  0  0  0  0  0  0  0  0  0  0
  -27.9368  -21.1001  146.8635 O   0  0  0  0  0  0  0  0  0  0  0  0
  -29.5701  -23.7585  148.2019 C   0  0  0  0  0  0  0  0  0  0  0  0
  -28.3573  -24.3066  150.5258 C   0  0  0  0  0  0  0  0  0  0  0  0
  -24.3305  -23.6005  151.2769 C   0  0  0  0  0  0  0  0  0  0  0  0
  -24.4635  -25.9760  154.4537 C   0  0  0  0  0  0  0  0  0  0  0  0
  -23.7967  -26.8210  155.5256 C   0  0  0  0  0  0  0  0  0  0  0  0
  -24.8491  -22.4700  152.3489 C   0  0  0  0  0  0  0  0  0  0  0  0
  -25.2279  -23.2062  153.5780 C   0  0  0  0  0  0  0  0  0  0  0  0
  -27.9369  -22.0687  149.3852 C   0  0  0  0  0  0  0  0  0  0  0  0
  -26.1128  -22.1180  153.2073 C   0  0  0  0  0  0  0  0  0  0  0  0
  -25.9429  -21.8180  151.8560 O   0  0  0  0  0  0  0  0  0  0  0  0
  -24.1032  -23.1839  149.6384 C   0  0  0  0  0  0  0  0  0  0  0  0
  2  1  1  0
  3  2  1  0
  4  1  1  0
  7  6  1  0
  9  1  1  0
  9  4  1  0
 10  7  1  0
 11 10  1  0
 12  8  2  0
 13  5  1  0
 14  5  1  0
 14  6  1  0
 15 10  1  0
 16 11  1  0
 17 16  1  0
 18 15  1  0
 19 18  1  0
 20  5  1  0
 20  8  1  0
 21 18  1  0
 21 19  1  0
 22 18  1  0
 22 21  1  0
 23  4  1  0
 23 15  1  0
M  END
$$$$

     RDKit          3D

 24 28  0  0  0  0  0  0  0  0999 V2000
  -23.9624   -3.7871  138.8553 O   0  0  0  0  0  0  0  0  0  0  0  0
  -24.9071   -3.8805  137.8158 C   0  0  0  0  0  0  0  0  0  0  0  0
  -24.9051   -5.1780  137.2653 O   0  0  0  0  0  0  0  0  0  0  0  0
  -26.3291   -3.5062  138.3192 C   0  0  0  0  0  0  0  0  0  0  0  0
  -26.3462   -2.2741  139.1582 N   0  0  0  0  0  0  0  0  0  0  0  0
  -27.6061   -2.2488  139.9921 C   0  0  0  0  0  0  0  0  0  0  0  0
  -26.6861   -1.2128  138.2032 C   0  0  0  0  0  0  0  0  0  0  0  0
  -25.5695   -0.8079  137.2079 C   0  0  0  0  0  0  0  0  0  0  0  0
  -27.4637   -1.4820  141.3412 C   0  0  0  0  0  0  0  0  0  0  0  0
  -28.0015   -0.0059  141.4451 C   0  0  0  0  0  0  0  0  0  0  0  0
  -27.6575   -2.4352  142.5317 C   0  0  0  0  0  0  0  0  0  0  0  0
  -29.4646    0.2385  141.9091 C   0  0  0  0  0  0  0  0  0  0  0  0
  -28.7438   -1.9600  138.9836 C   0  0  0  0  0  0  0  0  0  0  0  0
  -29.7272    0.2677  143.4489 C   0  0  0  0  0  0  0  0  0  0  0  0
  -29.0773   -2.6615  142.9404 C   0  0  0  0  0  0  0  0  0  0  0  0
  -28.7700   -3.2774  139.8004 C   0  0  0  0  0  0  0  0  0  0  0  0
  -27.9270   -1.8500  137.6490 C   0  0  0  0  0  0  0  0  0  0  0  0
  -30.0853   -3.0311  142.1428 C   0  0  0  0  0  0  0  0  0  0  0  0
  -29.2914    1.5366  144.1828 C   0  0  0  0  0  0  0  0  0  0  0  0
  -30.0448   -3.4402  140.6847 C   0  0  0  0  0  0  0  0  0  0  0  0
  -27.3638   -3.2209  137.1935 C   0  0  0  0  0  0  0  0  0  0  0  0
  -28.5876    0.2217  144.4754 C   0  0  0  0  0  0  0  0  0  0  0  0
  -30.0594    1.4918  141.2428 C   0  0  0  0  0  0  0  0  0  0  0  0
  -31.3226   -2.9822  139.9610 C   0  0  0  0  0  0  0  0  0  0  0  0
  2  1  1  0
  3  2  1  0
  4  2  1  0
  5  4  1  0
  6  5  1  0
  7  5  1  0
  8  7  1  0
  9  6  1  0
 10  9  1  0
 11  9  1  0
 12 10  1  0
 13  6  1  0
 14 12  1  0
 15 11  1  0
 16  6  1  0
 16 13  1  0
 17  7  1  0
 17 13  1  0
 18 15  2  0
 19 14  1  0
 20 16  1  0
 20 18  1  0
 21  4  1  0
 21 17  1  0
 22 14  1  0
 22 19  1  0
 23 12  1  0
 24 20  1  0
M  END
$$$$

     RDKit          3D

 24 28  0  0  0  0  0  0  0  0999 V2000
  -21.0984   -0.0313  134.0606 C   0  0  0  0  0  0  0  0  0  0  0  0
  -22.2635    0.0118  134.8547 O   0  0  0  0  0  0  0  0  0  0  0  0
  -20.4112   -1.1976  134.2683 O   0  0  0  0  0  0  0  0  0  0  0  0
  -22.0089   -0.1935  136.2533 C   0  0  0  0  0  0  0  0  0  0  0  0
  -23.3659   -2.9103  133.3133 C   0  0  0  0  0  0  0  0  0  0  0  0
  -20.0528   -1.6943  136.9904 C   0  0  0  0  0  0  0  0  0  0  0  0
  -21.5327   -4.1707  134.5447 C   0  0  0  0  0  0  0  0  0  0  0  0
  -20.5313   -0.2441  136.7889 C   0  0  0  0  0  0  0  0  0  0  0  0
  -21.0159   -5.6004  134.3499 C   0  0  0  0  0  0  0  0  0  0  0  0
  -18.7905   -2.2476  136.4373 C   0  0  0  0  0  0  0  0  0  0  0  0
  -21.9527   -3.5289  133.2005 C   0  0  0  0  0  0  0  0  0  0  0  0
  -17.6959   -1.4924  135.5956 C   0  0  0  0  0  0  0  0  0  0  0  0
  -20.9653   -1.0843  132.9679 C   0  0  0  0  0  0  0  0  0  0  0  0
  -17.9056   -1.2983  134.0478 C   0  0  0  0  0  0  0  0  0  0  0  0
  -18.1805   -2.3099  132.8993 C   0  0  0  0  0  0  0  0  0  0  0  0
  -17.4027   -5.2637  132.7206 Al  0  0  0  0  0  3  0  0  0  0  0  0
  -18.8432   -1.7679  137.8399 N   0  0  0  0  0  0  0  0  0  0  0  0
  -18.5311   -3.7143  133.3855 C   0  0  0  0  0  0  0  0  0  0  0  0
  -16.7567   -1.9587  133.2103 C   0  0  0  0  0  0  0  0  0  0  0  0
  -19.4164   -3.0934  132.3342 C   0  0  0  0  0  0  0  0  0  0  0  0
  -17.0696   -5.7109  130.7775 C   0  0  0  0  0  0  0  0  0  0  0  0
  -20.9013   -2.5586  132.5777 C   0  0  0  0  0  0  0  0  0  0  0  0
  -20.2305   -6.0342  135.5004 N   0  0  0  0  0  0  0  0  0  0  0  0
  -18.3424   -6.0323  129.9903 C   0  0  0  0  0  0  0  0  0  0  0  0
  2  1  1  0
  3  1  1  0
  4  2  1  0
  8  4  1  0
  8  6  1  0
  9  7  1  0
 10  6  1  0
 11  5  1  0
 11  7  1  0
 12 10  1  0
 13  1  1  0
 13  3  1  0
 14 12  1  0
 15 14  1  0
 17  6  1  0
 17 10  1  0
 18 15  1  0
 18 16  1  0
 19 14  1  0
 19 15  1  0
 20 15  1  0
 20 18  1  0
 21 16  1  0
 22 11  1  0
 22 13  1  0
 22 20  1  0
 23  9  1  0
 24 21  1  0
M  END
$$$$

     RDKit          3D

 23 26  0  0  0  0  0  0  0  0999 V2000
  -29.7351   -4.1592  136.0319 O   0  0  0  0  0  0  0  0  0  0  0  0
  -30.1594   -5.2611  135.5816 C   0  0  0  0  0  0  0  0  0  0  0  0
  -28.1954   -6.6565  136.4165 C   0  0  0  0  0  0  0  0  0  0  0  0
  -27.6007   -7.8985  135.7167 C   0  0  0  0  0  0  0  0  0  0  0  0
  -31.2051   -5.2761  134.4903 C   0  0  0  0  0  0  0  0  0  0  0  0
  -27.1964   -7.6489  134.2365 C   0  0  0  0  0  0  0  0  0  0  0  0
  -32.6880   -5.4741  134.8461 C   0  0  0  0  0  0  0  0  0  0  0  0
  -25.7944   -7.0917  134.0352 C   0  0  0  0  0  0  0  0  0  0  0  0
  -24.6553   -7.8059  134.1656 C   0  0  0  0  0  0  0  0  0  0  0  0
  -24.6049   -9.2060  134.7296 C   0  0  0  0  0  0  0  0  0  0  0  0
  -25.4064  -10.2742  133.9342 C   0  0  0  0  0  0  0  0  0  0  0  0
  -29.6621   -3.7925  133.2226 O   0  0  0  0  0  0  0  0  0  0  0  0
  -26.2416  -11.1642  134.8878 C   0  0  0  0  0  0  0  0  0  0  0  0
  -25.4543  -12.0311  135.8001 C   0  0  0  0  0  0  0  0  0  0  0  0
  -30.8885   -4.5009  133.1981 C   0  0  0  0  0  0  0  0  0  0  0  0
  -26.1929  -12.6886  134.5920 C   0  0  0  0  0  0  0  0  0  0  0  0
  -29.6231   -6.4887  136.0848 N   0  0  0  0  0  0  0  0  0  0  0  0
  -26.3018   -9.7105  132.8088 C   0  0  0  0  0  0  0  0  0  0  0  0
  -30.8120   -6.0219  133.2182 C   0  0  0  0  0  0  0  0  0  0  0  0
  -27.5002   -8.8499  133.2873 C   0  0  0  0  0  0  0  0  0  0  0  0
  -27.0871  -13.6980  135.3561 C   0  0  0  0  0  0  0  0  0  0  0  0
  -27.6788  -12.9614  134.2320 C   0  0  0  0  0  0  0  0  0  0  0  0
  -33.1320   -4.5016  135.9176 C   0  0  0  0  0  0  0  0  0  0  0  0
  2  1  2  0
  4  3  1  0
  5  2  1  0
  6  4  1  0
  7  5  1  0
  8  6  1  0
  9  8  2  0
 10  9  1  0
 11 10  1  0
 13 11  1  0
 14 13  1  0
 15  5  1  0
 15 12  1  0
 16 13  1  0
 16 14  1  0
 17  2  1  0
 17  3  1  0
 18 11  1  0
 19  5  1  0
 19 15  1  0
 20  6  1  0
 20 18  1  0
 21 16  1  0
 22 16  1  0
 22 21  1  0
 23  7  1  0
M  END
$$$$

     RDKit          3D

 11 11  0  0  0  0  0  0  0  0999 V2000
  -23.5670    2.7965  138.2996 O   0  0  0  0  0  0  0  0  0  0  0  0
  -22.7303    3.8415  137.8727 C   0  0  0  0  0  0  0  0  0  0  0  0
  -21.8223    4.2962  139.0363 C   0  0  0  0  0  0  0  0  0  0  0  0
  -23.5690    4.9599  137.2602 C   0  0  0  0  0  0  0  0  0  0  0  0
  -23.5671    6.1662  137.7573 N   0  0  0  0  0  0  0  0  0  0  0  0
  -22.7147    6.6072  138.8628 C   0  0  0  0  0  0  0  0  0  0  0  0
  -24.4370    4.6416  136.1581 N   0  0  0  0  0  0  0  0  0  0  0  0
  -25.4237    5.5302  135.6123 C   0  0  0  0  0  0  0  0  0  0  0  0
  -25.6782    6.6369  136.1676 O   0  0  0  0  0  0  0  0  0  0  0  0
  -22.4450    5.4538  139.8240 C   0  0  0  0  0  0  0  0  0  0  0  0
  -26.1596    5.1413  134.4498 N   0  0  0  0  0  0  0  0  0  0  0  0
  2  1  1  0
  3  2  1  0
  4  2  1  0
  5  4  2  0
  6  5  1  0
  7  4  1  0
  8  7  1  0
  9  8  2  0
 10  3  1  0
 10  6  1  0
 11  8  1  0
M  END
$$$$

     RDKit          3D

 24 29  0  0  0  0  0  0  0  0999 V2000
  -33.1406   -6.6327  143.7261 N   0  0  0  0  0  0  0  0  0  0  0  0
  -34.4725   -6.2913  143.1546 C   0  0  0  0  0  0  0  0  0  0  0  0
  -34.8468   -4.9616  143.4618 O   0  0  0  0  0  0  0  0  0  0  0  0
  -32.0278   -6.4540  142.7043 C   0  0  0  0  0  0  0  0  0  0  0  0
  -32.1314   -5.2139  141.4406 C   0  0  0  0  0  0  0  0  0  0  0  0
  -31.8677   -3.5513  141.5699 C   0  0  0  0  0  0  0  0  0  0  0  0
  -34.7899   -6.8119  141.6862 C   0  0  0  0  0  0  0  0  0  0  0  0
  -32.6841   -7.9296  143.2505 C   0  0  0  0  0  0  0  0  0  0  0  0
  -30.7682   -2.3547  141.0806 C   0  0  0  0  0  0  0  0  0  0  0  0
  -31.2867   -1.1874  140.0848 C   0  0  0  0  0  0  0  0  0  0  0  0
  -30.7288    0.2614  140.3809 C   0  0  0  0  0  0  0  0  0  0  0  0
  -31.6623    1.1236  141.4301 C   0  0  0  0  0  0  0  0  0  0  0  0
  -30.9245    1.1092  139.1854 C   0  0  0  0  0  0  0  0  0  0  0  0
  -32.2289    1.6876  139.0974 N   0  0  0  0  0  0  0  0  0  0  0  0
  -33.1400    1.2258  141.2793 N   0  0  0  0  0  0  0  0  0  0  0  0
  -33.7392    1.9136  142.4657 C   0  0  0  0  0  0  0  0  0  0  0  0
  -32.2812    2.1354  140.4985 C   0  0  0  0  0  0  0  0  0  0  0  0
  -36.2883   -7.0681  141.5367 C   0  0  0  0  0  0  0  0  0  0  0  0
  -35.1162    1.4090  142.9161 C   0  0  0  0  0  0  0  0  0  0  0  0
  -36.1893    1.9036  141.8782 C   0  0  0  0  0  0  0  0  0  0  0  0
  -29.9242    1.4095  138.3374 C   0  0  0  0  0  0  0  0  0  0  0  0
  -35.2152   -0.0925  143.2989 C   0  0  0  0  0  0  0  0  0  0  0  0
  -37.0655   -6.8237  142.7763 C   0  0  0  0  0  0  0  0  0  0  0  0
  -35.5983   -7.3124  142.8974 C   0  0  0  0  0  0  0  0  0  0  0  0
  2  1  1  0
  3  2  1  0
  4  1  1  0
  5  4  1  0
  6  5  1  0
  7  2  1  0
  8  1  1  0
  8  4  1  0
  9  6  1  0
 10  9  1  0
 11 10  1  0
 12 11  1  0
 13 11  1  0
 14 13  1  0
 15 12  1  0
 16 15  1  0
 17 12  1  0
 17 14  1  0
 17 15  1  0
 18  7  1  0
 19 16  1  0
 20 19  1  0
 21 13  2  0
 22 19  1  0
 23 18  1  0
 24  2  1  0
 24  7  1  0
 24 18  1  0
 24 23  1  0
M  END
$$$$

     RDKit          3D

 24 31  0  0  0  0  0  0  0  0999 V2000
  -22.7908  -21.0569  141.1601 C   0  0  0  0  0  0  0  0  0  0  0  0
  -23.1618  -23.1868  139.7895 O   0  0  0  0  0  0  0  0  0  0  0  0
  -20.7755  -20.7398  140.0105 O   0  0  0  0  0  0  0  0  0  0  0  0
  -17.4724  -18.3664  136.8226 O   0  0  0  0  0  0  0  0  0  0  0  0
  -22.1463  -20.3059  140.0152 C   0  0  0  0  0  0  0  0  0  0  0  0
  -24.4396  -21.0088  139.1176 C   0  0  0  0  0  0  0  0  0  0  0  0
  -24.9438  -21.6372  137.7624 C   0  0  0  0  0  0  0  0  0  0  0  0
  -24.9816  -20.5433  136.6602 C   0  0  0  0  0  0  0  0  0  0  0  0
  -25.8681  -21.6448  138.9532 C   0  0  0  0  0  0  0  0  0  0  0  0
  -26.4320  -23.0588  139.3227 C   0  0  0  0  0  0  0  0  0  0  0  0
  -23.5836  -21.8713  140.0760 C   0  0  0  0  0  0  0  0  0  0  0  0
  -26.0171  -23.5462  140.6926 C   0  0  0  0  0  0  0  0  0  0  0  0
  -18.7627  -18.8148  136.8890 N   0  0  0  0  0  0  0  0  0  0  0  0
  -26.3115  -20.3037  135.9602 C   0  0  0  0  0  0  0  0  0  0  0  0
  -26.4715  -24.9605  141.1811 C   0  0  0  0  0  0  0  0  0  0  0  0
  -23.6538  -20.2196  141.8823 O   0  0  0  0  0  0  0  0  0  0  0  0
  -25.7552  -19.2483  136.8972 C   0  0  0  0  0  0  0  0  0  0  0  0
  -26.2539  -25.5219  139.8037 C   0  0  0  0  0  0  0  0  0  0  0  0
  -25.5577  -24.2670  139.3724 C   0  0  0  0  0  0  0  0  0  0  0  0
  -27.3594  -23.8003  141.3717 C   0  0  0  0  0  0  0  0  0  0  0  0
  -20.7130  -18.9404  138.3813 C   0  0  0  0  0  0  0  0  0  0  0  0
  -19.2561  -18.5045  138.2501 C   0  0  0  0  0  0  0  0  0  0  0  0
  -22.9207  -21.0607  138.9752 C   0  0  0  0  0  0  0  0  0  0  0  0
  -20.9970  -19.3639  139.8331 C   0  0  0  0  0  0  0  0  0  0  0  0
  5  1  1  0
  5  3  1  0
  7  6  1  0
  8  7  1  0
  9  6  1  0
  9  7  1  0
 10  9  1  0
 11  1  1  0
 11  2  1  0
 11  6  1  0
 12 10  1  0
 13  4  1  0
 14  8  1  0
 15 12  1  0
 16  1  1  0
 17  8  1  0
 17 14  1  0
 18 15  1  0
 19 10  1  0
 19 12  1  0
 19 18  1  0
 20 12  1  0
 20 15  1  0
 22 13  1  0
 22 21  1  0
 23  5  1  0
 23  6  1  0
 23 11  1  0
 24  3  1  0
 24  5  1  0
 24 21  1  0
M  END
$$$$

     RDKit          3D

 24 27  0  0  0  0  0  0  0  0999 V2000
  -21.6572    3.3617  141.0406 N   0  0  0  0  0  0  0  0  0  0  0  0
  -20.7170    2.5863  140.5300 C   0  0  0  0  0  0  0  0  0  0  0  0
  -20.4149    1.4698  141.1930 N   0  0  0  0  0  2  0  0  0  0  0  0
  -19.6647    3.1122  139.8692 N   0  0  0  0  0  0  0  0  0  0  0  0
  -19.0272    1.3786  141.1771 C   0  0  0  0  0  0  0  0  0  0  0  0
  -22.9614    2.8014  140.9839 C   0  0  0  0  0  0  0  0  0  0  0  0
  -23.7872    2.9267  139.8486 C   0  0  0  0  0  0  0  0  0  0  0  0
  -22.9066    3.8657  141.8965 C   0  0  0  0  0  0  0  0  0  0  0  0
  -18.3435    0.2763  141.6736 C   0  0  0  0  0  0  0  0  0  0  0  0
  -24.8993    3.7618  139.7911 C   0  0  0  0  0  0  0  0  0  0  0  0
  -19.7092    2.1812  142.0828 N   0  0  0  0  0  2  0  0  0  0  0  0
  -19.0073   -0.9531  141.8080 C   0  0  0  0  0  0  0  0  0  0  0  0
  -19.7586    3.9175  138.6823 C   0  0  0  0  0  0  0  0  0  0  0  0
  -23.7658    5.1026  141.6824 C   0  0  0  0  0  0  0  0  0  0  0  0
  -24.7305    5.1467  140.6106 C   0  0  0  0  0  0  0  0  0  0  0  0
  -18.4778    4.6912  138.4824 C   0  0  0  0  0  0  0  0  0  0  0  0
  -19.8810   -1.6726  142.6309 C   0  0  0  0  0  0  0  0  0  0  0  0
  -19.5825   -0.4323  142.1377 N   0  0  0  0  0  0  0  0  0  0  0  0
  -18.7528    5.0323  138.8121 C   0  0  0  0  0  0  0  0  0  0  0  0
  -20.1760    5.2989  138.5843 C   0  0  0  0  0  0  0  0  0  0  0  0
  -18.5799    3.6443  140.6071 C   0  0  0  0  0  0  0  0  0  0  0  0
  -19.2073    3.5560  137.6607 C   0  0  0  0  0  0  0  0  0  0  0  0
  -19.9985    4.3017  139.2029 C   0  0  0  0  0  0  0  0  0  0  0  0
  -18.7704    4.3830  141.6949 C   0  0  0  0  0  0  0  0  0  0  0  0
  2  1  1  0
  3  2  1  0
  4  2  1  0
  5  3  1  0
  6  1  1  0
  7  6  1  0
  8  1  1  0
  8  6  1  0
  9  5  1  0
 10  7  1  0
 11  5  1  0
 12  9  1  0
 14  8  1  0
 15 10  1  0
 15 14  1  0
 17 12  1  0
 18 12  1  0
 19 16  1  0
 20 19  1  0
 21  4  1  0
 22 13  1  0
 22 16  1  0
 23  4  1  0
 23 13  1  0
 23 19  1  0
 23 20  1  0
 24 21  2  0
M  RAD  2   3   2  11   2
M  END
$$$$

     RDKit          3D

 24 26  0  0  0  0  0  0  0  0999 V2000
  -20.1604   -7.7345  142.1084 C   0  0  0  0  0  0  0  0  0  0  0  0
  -24.3267   -9.7220  140.2023 I   0  0  0  0  0  0  0  0  0  0  0  0
  -22.0098   -5.6389  142.7459 C   0  0  0  0  0  0  0  0  0  0  0  0
  -21.3880   -6.8183  141.9314 C   0  0  0  0  0  0  0  0  0  0  0  0
  -22.2006   -7.9023  141.2065 C   0  0  0  0  0  0  0  0  0  0  0  0
  -24.5438   -7.6608  144.0372 C   0  0  0  0  0  0  0  0  0  0  0  0
  -21.0877   -4.4304  143.1957 C   0  0  0  0  0  0  0  0  0  0  0  0
  -20.1253   -4.0305  142.0487 C   0  0  0  0  0  0  0  0  0  0  0  0
  -21.9627   -3.2855  143.5053 N   0  0  0  0  0  0  0  0  0  0  0  0
  -19.2340   -3.8832  145.0588 C   0  0  0  0  0  0  0  0  0  0  0  0
  -19.8437   -2.6814  145.8071 C   0  0  0  0  0  0  0  0  0  0  0  0
  -20.3052   -4.8355  144.4755 C   0  0  0  0  0  0  0  0  0  0  0  0
  -23.0633   -9.8460  142.8610 C   0  0  0  0  0  0  0  0  0  0  0  0
  -23.4160   -8.6857  141.8810 C   0  0  0  0  0  0  0  0  0  0  0  0
  -24.5210   -7.7424  142.4965 C   0  0  0  0  0  0  0  0  0  0  0  0
  -19.7860   -8.5338  143.3949 C   0  0  0  0  0  0  0  0  0  0  0  0
  -19.9206   -9.1850  145.8688 C   0  0  0  0  0  0  0  0  0  0  0  0
  -20.4446   -8.2840  144.7609 C   0  0  0  0  0  0  0  0  0  0  0  0
  -19.0451   -8.0356  145.3837 C   0  0  0  0  0  0  0  0  0  0  0  0
  -18.4296   -8.1490  143.9960 C   0  0  0  0  0  0  0  0  0  0  0  0
  -19.3779   -1.3519  145.2095 C   0  0  0  0  0  0  0  0  0  0  0  0
  -20.2122   -8.6679  139.7453 C   0  0  0  0  0  0  0  0  0  0  0  0
  -19.1822   -9.4671  139.4699 C   0  0  0  0  0  0  0  0  0  0  0  0
  -20.8681   -8.7031  141.1121 C   0  0  0  0  0  0  0  0  0  0  0  0
  4  1  1  0
  4  3  1  0
  5  4  1  0
  7  3  1  0
  8  7  1  0
  9  7  1  0
 11 10  1  0
 12  7  1  0
 12 10  1  0
 14  2  1  0
 14  5  1  0
 14 13  1  0
 15  6  1  0
 15 14  1  0
 16  1  1  0
 18 16  1  0
 18 17  1  0
 19 17  1  0
 19 18  1  0
 20 16  1  0
 20 19  1  0
 21 11  1  0
 23 22  2  0
 24  1  1  0
 24  5  1  0
 24 22  1  0
M  END
$$$$

     RDKit          3D

 24 30  0  0  0  0  0  0  0  0999 V2000
  -30.3862    0.3493  140.5675 N   0  0  0  0  0  0  0  0  0  0  0  0
  -31.5343   -0.5257  140.7817 C   0  0  0  0  0  0  0  0  0  0  0  0
  -31.6712   -1.4468  139.6260 N   0  0  0  0  0  0  0  0  0  0  0  0
  -32.7183   -0.4549  139.9173 C   0  0  0  0  0  0  0  0  0  0  0  0
  -32.9135    0.6166  138.8180 C   0  0  0  0  0  0  0  0  0  0  0  0
  -31.6878    0.9093  137.8806 C   0  0  0  0  0  0  0  0  0  0  0  0
  -30.4931    1.8054  140.7717 C   0  0  0  0  0  0  0  0  0  0  0  0
  -31.4770    2.1702  137.0201 C   0  0  0  0  0  0  0  0  0  0  0  0
  -29.9770    2.3869  136.7967 C   0  0  0  0  0  0  0  0  0  0  0  0
  -29.5148    3.8224  136.6946 C   0  0  0  0  0  0  0  0  0  0  0  0
  -33.9946    1.6390  139.2534 C   0  0  0  0  0  0  0  0  0  0  0  0
  -30.3357    4.8583  136.8653 C   0  0  0  0  0  0  0  0  0  0  0  0
  -31.5386    2.3220  141.8076 C   0  0  0  0  0  0  0  0  0  0  0  0
  -31.7595    4.6571  137.1394 C   0  0  0  0  0  0  0  0  0  0  0  0
  -33.0557    2.1524  141.6000 C   0  0  0  0  0  0  0  0  0  0  0  0
  -32.2836    3.4349  137.2576 C   0  0  0  0  0  0  0  0  0  0  0  0
  -30.3452    2.6512  139.4514 C   0  0  0  0  0  0  0  0  0  0  0  0
  -28.9976    3.3626  139.4958 C   0  0  0  0  0  0  0  0  0  0  0  0
  -27.8303    2.7047  139.4259 C   0  0  0  0  0  0  0  0  0  0  0  0
  -26.5337    3.4482  139.5647 C   0  0  0  0  0  0  0  0  0  0  0  0
  -26.0066    3.4867  140.9903 C   0  0  0  0  0  0  0  0  0  0  0  0
  -30.4615    1.7944  138.1371 C   0  0  0  0  0  0  0  0  0  0  0  0
  -33.6399    2.7111  140.2918 C   0  0  0  0  0  0  0  0  0  0  0  0
  -25.3355    2.5977  139.9569 C   0  0  0  0  0  0  0  0  0  0  0  0
  2  1  1  0
  3  2  1  0
  4  2  1  0
  4  3  1  0
  5  4  1  0
  6  5  1  0
  7  1  1  0
  8  6  1  0
  9  8  1  0
 10  9  1  0
 11  5  1  0
 12 10  2  0
 13  7  1  0
 14 12  1  0
 15 13  1  0
 16  8  1  0
 16 14  2  0
 17  7  1  0
 18 17  1  0
 19 18  2  3
 20 19  1  0
 21 20  1  0
 22  6  1  0
 22  8  1  0
 22  9  1  0
 22 17  1  0
 23 11  1  0
 23 15  1  0
 24 20  1  0
 24 21  1  0
M  END
$$$$

     RDKit          3D

 23 24  0  0  0  0  0  0  0  0999 V2000
  -24.6137   -2.8630  151.9736 F   0  0  0  0  0  0  0  0  0  0  0  0
  -24.3458   -3.2630  150.6766 C   0  0  0  0  0  0  0  0  0  0  0  0
  -21.7845    0.4968  148.9620 Cl  0  0  0  0  0  0  0  0  0  0  0  0
  -23.0037   -3.6276  150.5841 F   0  0  0  0  0  0  0  0  0  0  0  0
  -24.8250   -2.1868  149.6359 C   0  0  0  0  0  0  0  0  0  0  0  0
  -29.1048   -4.2032  150.1222 N   0  0  0  0  0  0  0  0  0  0  0  0
  -25.9974   -3.6685  147.8032 C   0  0  0  0  0  0  0  0  0  0  0  0
  -24.7576   -2.7757  148.1702 C   0  0  0  0  0  0  0  0  0  0  0  0
  -28.0361   -3.1927  150.0613 C   0  0  0  0  0  0  0  0  0  0  0  0
  -24.0659   -0.8224  149.7388 C   0  0  0  0  0  0  0  0  0  0  0  0
  -27.3601   -3.0448  147.4065 C   0  0  0  0  0  0  0  0  0  0  0  0
  -27.0555   -1.7591  146.5409 C   0  0  0  0  0  0  0  0  0  0  0  0
  -29.5048   -3.7559  148.7781 C   0  0  0  0  0  0  0  0  0  0  0  0
  -28.2968   -1.8656  143.7577 C   0  0  0  0  0  0  0  0  0  0  0  0
  -28.3637   -2.7331  148.6231 C   0  0  0  0  0  0  0  0  0  0  0  0
  -28.2244   -1.0309  146.0758 C   0  0  0  0  0  0  0  0  0  0  0  0
  -22.5358   -0.9135  149.7155 C   0  0  0  0  0  0  0  0  0  0  0  0
  -26.0396   -0.8223  144.3908 C   0  0  0  0  0  0  0  0  0  0  0  0
  -25.0753   -1.7240  143.5497 C   0  0  0  0  0  0  0  0  0  0  0  0
  -25.0534   -1.1318  141.1135 O   0  0  0  0  0  0  0  0  0  0  0  0
  -27.2608   -1.6790  144.9560 C   0  0  0  0  0  0  0  0  0  0  0  0
  -24.4046   -0.9546  142.3703 C   0  0  0  0  0  0  0  0  0  0  0  0
  -24.0470   -2.4322  144.4887 C   0  0  0  0  0  0  0  0  0  0  0  0
  2  1  1  0
  4  2  1  0
  5  2  1  0
  8  5  1  0
  8  7  1  0
  9  6  1  0
 10  5  1  0
 11  7  1  0
 12 11  1  0
 13  6  1  0
 15  9  1  0
 15 11  1  0
 15 13  1  0
 16 12  1  0
 17  3  1  0
 17 10  1  0
 19 18  1  0
 21 12  1  0
 21 14  1  0
 21 16  1  0
 21 18  1  0
 22 19  1  0
 22 20  1  0
 23 19  1  0
M  END
$$$$

     RDKit          3D

 24 29  0  0  0  0  0  0  0  0999 V2000
  -23.6885    0.3097  130.6815 O   0  0  0  0  0  0  0  0  0  0  0  0
  -24.0784    1.1837  129.6360 C   0  0  0  0  0  0  0  0  0  0  0  0
  -24.8218    2.2677  130.1456 O   0  0  0  0  0  0  0  0  0  0  0  0
  -22.8298    0.9322  131.6264 C   0  0  0  0  0  0  0  0  0  0  0  0
  -24.0813    0.6086  133.8291 C   0  0  0  0  0  0  0  0  0  0  0  0
  -24.7961   -0.5107  134.5956 C   0  0  0  0  0  0  0  0  0  0  0  0
  -25.8716   -0.0763  135.6152 C   0  0  0  0  0  0  0  0  0  0  0  0
  -24.8409    0.8526  136.2945 C   0  0  0  0  0  0  0  0  0  0  0  0
  -24.9564    2.4197  136.4239 C   0  0  0  0  0  0  0  0  0  0  0  0
  -26.3057   -1.3027  136.4997 C   0  0  0  0  0  0  0  0  0  0  0  0
  -27.3670   -2.2863  135.9185 C   0  0  0  0  0  0  0  0  0  0  0  0
  -25.8721    2.5556  137.6310 C   0  0  0  0  0  0  0  0  0  0  0  0
  -22.8866    0.1663  132.9586 C   0  0  0  0  0  0  0  0  0  0  0  0
  -28.0261   -2.0443  134.5611 C   0  0  0  0  0  0  0  0  0  0  0  0
  -23.7825    0.4480  135.2827 C   0  0  0  0  0  0  0  0  0  0  0  0
  -26.0707   -1.0319  138.9543 C   0  0  0  0  0  0  0  0  0  0  0  0
  -25.6520    2.9840  135.1804 C   0  0  0  0  0  0  0  0  0  0  0  0
  -27.2865    2.8764  137.1616 C   0  0  0  0  0  0  0  0  0  0  0  0
  -26.0828    3.5072  136.5111 C   0  0  0  0  0  0  0  0  0  0  0  0
  -28.2203   -0.2901  138.0065 C   0  0  0  0  0  0  0  0  0  0  0  0
  -26.8243   -0.8489  137.8589 C   0  0  0  0  0  0  0  0  0  0  0  0
  -26.9569   -3.1250  134.7071 C   0  0  0  0  0  0  0  0  0  0  0  0
  -22.5836    3.1452  128.8450 C   0  0  0  0  0  0  0  0  0  0  0  0
  -22.8917    1.6476  128.7397 C   0  0  0  0  0  0  0  0  0  0  0  0
  2  1  1  0
  3  2  1  0
  4  1  1  0
  6  5  1  0
  7  6  1  0
  8  7  1  0
  9  8  1  0
 10  7  1  0
 11 10  1  0
 12  9  1  0
 13  4  1  0
 13  5  1  0
 14 11  1  0
 15  5  1  0
 15  6  1  0
 15  8  1  0
 17  9  1  0
 18 12  1  0
 19  9  1  0
 19 12  1  0
 19 17  1  0
 19 18  1  0
 21 10  1  0
 21 16  2  0
 21 20  1  0
 22 11  1  0
 22 14  1  0
 24  2  1  0
 24 23  1  0
M  END
$$$$

     RDKit          3D

 24 30  0  0  0  0  0  0  0  0999 V2000
  -26.1677  -16.2305  141.4949 C   0  0  0  0  0  0  0  0  0  0  0  0
  -27.9129  -15.7097  142.8432 C   0  0  0  0  0  0  0  0  0  0  0  0
  -28.9696  -14.7966  141.1471 C   0  0  0  0  0  0  0  0  0  0  0  0
  -28.6365  -16.4628  140.8779 C   0  0  0  0  0  0  0  0  0  0  0  0
  -25.4457  -16.7521  140.2142 C   0  0  0  0  0  0  0  0  0  0  0  0
  -27.5247  -16.6471  141.7446 N   0  0  0  0  0  0  0  0  0  0  0  0
  -24.7710  -18.1187  140.6347 C   0  0  0  0  0  0  0  0  0  0  0  0
  -26.8647  -19.2363  141.8165 C   0  0  0  0  0  0  0  0  0  0  0  0
  -24.4121  -18.0765  143.0885 C   0  0  0  0  0  0  0  0  0  0  0  0
  -29.2965  -19.1154  140.7237 C   0  0  0  0  0  0  0  0  0  0  0  0
  -28.4754  -18.8150  142.0458 C   0  0  0  0  0  0  0  0  0  0  0  0
  -27.7514  -14.5213  141.9864 C   0  0  0  0  0  0  0  0  0  0  0  0
  -25.4523  -18.3431  141.9707 C   0  0  0  0  0  0  0  0  0  0  0  0
  -26.4667  -14.7835  141.1965 C   0  0  0  0  0  0  0  0  0  0  0  0
  -29.4738  -17.7468  141.3657 C   0  0  0  0  0  0  0  0  0  0  0  0
  -30.1549  -13.7346  143.4511 C   0  0  0  0  0  0  0  0  0  0  0  0
  -32.5472  -14.1398  143.7054 N   0  0  0  0  0  0  0  0  0  0  0  0
  -30.2170  -13.8918  141.8715 C   0  0  0  0  0  0  0  0  0  0  0  0
  -31.0055  -14.6565  145.5450 C   0  0  0  0  0  0  0  0  0  0  0  0
  -30.2809  -12.5886  144.5325 C   0  0  0  0  0  0  0  0  0  0  0  0
  -29.0367  -11.6242  144.4474 C   0  0  0  0  0  0  0  0  0  0  0  0
  -30.3237  -13.2994  145.9376 C   0  0  0  0  0  0  0  0  0  0  0  0
  -31.2105  -14.7160  143.9909 C   0  0  0  0  0  0  0  0  0  0  0  0
  -25.5472  -17.0271  142.7302 C   0  0  0  0  0  0  0  0  0  0  0  0
  4  3  1  0
  5  1  1  0
  6  1  1  0
  6  2  1  0
  6  4  1  0
  7  5  1  0
 11  8  1  0
 11 10  1  0
 12  2  1  0
 12  3  1  0
 13  7  1  0
 13  8  1  0
 13  9  1  0
 14  1  1  0
 14 12  1  0
 15  4  1  0
 15 10  1  0
 15 11  1  0
 18  3  1  0
 18 16  1  0
 20 16  1  0
 21 20  1  0
 22 19  1  0
 22 20  1  0
 23 16  1  0
 23 17  1  0
 23 19  1  0
 24  1  1  0
 24  9  1  0
 24 13  1  0
M  END
$$$$

     RDKit          3D

 24 28  0  0  0  0  0  0  0  0999 V2000
  -15.7096  -17.3976  136.5548 O   0  0  0  0  0  0  0  0  0  0  0  0
  -15.9746  -18.6618  137.1049 C   0  0  0  0  0  0  0  0  0  0  0  0
  -17.4946  -18.9113  137.1959 C   0  0  0  0  0  0  0  0  0  0  0  0
  -17.7758  -20.4455  137.3161 C   0  0  0  0  0  0  0  0  0  0  0  0
  -17.2448  -21.1675  138.5686 C   0  0  0  0  0  0  0  0  0  0  0  0
  -18.1635  -17.9350  138.1768 C   0  0  0  0  0  0  0  0  0  0  0  0
  -16.9801  -20.5957  139.9376 C   0  0  0  0  0  0  0  0  0  0  0  0
  -17.2187  -21.2858  141.0746 C   0  0  0  0  0  0  0  0  0  0  0  0
  -18.7578  -21.2111  138.2260 C   0  0  0  0  0  0  0  0  0  0  0  0
  -19.1647  -22.6738  137.8616 C   0  0  0  0  0  0  0  0  0  0  0  0
  -20.5807  -22.7080  137.2573 C   0  0  0  0  0  0  0  0  0  0  0  0
  -19.1122  -23.5747  139.0841 C   0  0  0  0  0  0  0  0  0  0  0  0
  -20.8297  -23.8008  136.2056 C   0  0  0  0  0  0  0  0  0  0  0  0
  -19.7843  -20.4089  139.0646 C   0  0  0  0  0  0  0  0  0  0  0  0
  -17.8659  -22.6261  141.1773 C   0  0  0  0  0  0  0  0  0  0  0  0
  -18.5032  -23.1739  140.1745 C   0  0  0  0  0  0  0  0  0  0  0  0
  -22.2084  -24.4759  136.3889 C   0  0  0  0  0  0  0  0  0  0  0  0
  -22.7352  -25.1081  135.1100 C   0  0  0  0  0  0  0  0  0  0  0  0
  -23.4685  -24.4291  134.2040 C   0  0  0  0  0  0  0  0  0  0  0  0
  -23.7332  -22.9719  134.4098 C   0  0  0  0  0  0  0  0  0  0  0  0
  -22.4200  -22.2649  134.0685 C   0  0  0  0  0  0  0  0  0  0  0  0
  -21.8756  -21.5352  135.2952 C   0  0  0  0  0  0  0  0  0  0  0  0
  -23.6893  -21.8981  133.3336 C   0  0  0  0  0  0  0  0  0  0  0  0
  -20.6462  -22.3238  135.7829 C   0  0  0  0  0  0  0  0  0  0  0  0
  2  1  1  0
  3  2  1  0
  4  3  1  0
  5  4  1  0
  6  3  1  0
  7  5  1  0
  8  7  2  3
  9  4  1  0
  9  5  1  0
 10  9  1  0
 11 10  1  0
 12 10  1  0
 13 11  1  0
 14  9  1  0
 15  8  1  0
 16 12  2  0
 16 15  2  0
 17 13  1  0
 18 17  1  0
 19 18  2  3
 20 19  1  0
 21 20  1  0
 22 21  1  0
 23 20  1  0
 23 21  1  0
 24 11  1  0
 24 13  1  0
 24 22  1  0
M  END
$$$$

     RDKit          3D

 22 24  0  0  0  0  0  0  0  0999 V2000
  -29.2943   -6.0539  141.0550 Br  0  0  0  0  0  0  0  0  0  0  0  0
  -27.8300   -7.1045  141.7172 C   0  0  0  0  0  0  0  0  0  0  0  0
  -26.5945   -6.5390  142.1156 C   0  0  0  0  0  0  0  0  0  0  0  0
  -26.3374   -5.0469  142.0966 C   0  0  0  0  0  0  0  0  0  0  0  0
  -26.2389   -4.4574  143.5149 C   0  0  0  0  0  0  0  0  0  0  0  0
  -28.0167   -8.4912  141.7874 C   0  0  0  0  0  0  0  0  0  0  0  0
  -25.5662   -7.3939  142.5536 C   0  0  0  0  0  0  0  0  0  0  0  0
  -27.5800   -4.5124  144.3076 C   0  0  0  0  0  0  0  0  0  0  0  0
  -28.1514   -3.1594  144.4714 N   0  0  0  0  0  0  0  0  0  0  0  0
  -26.9919   -9.3221  142.2401 C   0  0  0  0  0  0  0  0  0  0  0  0
  -25.7656   -8.7746  142.6171 C   0  0  0  0  0  0  0  0  0  0  0  0
  -27.3585   -5.1436  145.6993 C   0  0  0  0  0  0  0  0  0  0  0  0
  -28.6416   -2.6339  143.1893 C   0  0  0  0  0  0  0  0  0  0  0  0
  -26.8995   -6.5258  145.5785 N   0  0  0  0  0  0  0  0  0  0  0  0
  -27.0044   -0.6227  143.6689 C   0  0  0  0  0  0  0  0  0  0  0  0
  -29.4610   -1.3535  143.3441 C   0  0  0  0  0  0  0  0  0  0  0  0
  -30.5879   -1.1777  142.3273 C   0  0  0  0  0  0  0  0  0  0  0  0
  -28.0544   -1.2844  142.7553 C   0  0  0  0  0  0  0  0  0  0  0  0
  -26.8587    0.8746  143.3696 C   0  0  0  0  0  0  0  0  0  0  0  0
  -28.1128    1.6612  143.7810 C   0  0  0  0  0  0  0  0  0  0  0  0
  -27.8715    3.1072  144.1880 C   0  0  0  0  0  0  0  0  0  0  0  0
  -28.1792    2.0593  145.2473 C   0  0  0  0  0  0  0  0  0  0  0  0
  2  1  1  0
  3  2  4  0
  4  3  1  0
  5  4  1  0
  6  2  4  0
  7  3  4  0
  8  5  1  0
  9  8  1  0
 10  6  4  0
 11  7  4  0
 11 10  4  0
 12  8  1  0
 13  9  1  0
 14 12  1  0
 16 13  1  0
 17 16  1  0
 18 13  1  0
 18 15  1  0
 18 16  1  0
 19 15  1  0
 20 19  1  0
 21 20  1  0
 22 20  1  0
 22 21  1  0
M  END
$$$$

     RDKit          3D

 11 14  0  0  0  0  0  0  0  0999 V2000
  -21.5966  -18.0167  143.3206 N   0  0  0  0  0  0  0  0  0  0  0  0
  -21.9440  -19.4095  142.8431 C   0  0  0  0  0  0  0  0  0  0  0  0
  -20.5145  -18.8138  142.8590 C   0  0  0  0  0  0  0  0  0  0  0  0
  -21.3950  -20.8077  142.5443 C   0  0  0  0  0  0  0  0  0  0  0  0
  -21.7972  -20.4358  141.1070 C   0  0  0  0  0  0  0  0  0  0  0  0
  -19.7324  -17.2215  141.0288 C   0  0  0  0  0  0  0  0  0  0  0  0
  -20.6789  -20.8425  140.0903 C   0  0  0  0  0  0  0  0  0  0  0  0
  -18.8661  -16.4375  141.6773 C   0  0  0  0  0  0  0  0  0  0  0  0
  -22.5390  -19.3261  141.5529 O   0  0  0  0  0  0  0  0  0  0  0  0
  -20.7942  -19.4356  140.3689 C   0  0  0  0  0  0  0  0  0  0  0  0
  -19.9200  -18.6693  141.4134 C   0  0  0  0  0  0  0  0  0  0  0  0
  2  1  1  0
  3  1  1  0
  3  2  1  0
  4  2  1  0
  5  4  1  0
  7  5  1  0
  8  6  2  0
  9  2  1  0
  9  5  1  0
 10  5  1  0
 10  7  1  0
 11  3  1  0
 11  6  1  0
 11 10  1  0
M  END
$$$$

     RDKit          3D

 23 25  0  0  0  0  0  0  0  0999 V2000
  -29.1918  -12.7190  143.3228 C   0  0  0  0  0  0  0  0  0  0  0  0
  -30.1192  -11.7128  144.0089 C   0  0  0  0  0  0  0  0  0  0  0  0
  -31.2318  -12.4573  144.7565 C   0  0  0  0  0  0  0  0  0  0  0  0
  -32.0616  -11.4717  145.5989 C   0  0  0  0  0  0  0  0  0  0  0  0
  -28.8923  -11.1340  141.8510 C   0  0  0  0  0  0  0  0  0  0  0  0
  -27.9891  -12.0867  142.6194 C   0  0  0  0  0  0  0  0  0  0  0  0
  -33.1950  -12.0070  146.5131 C   0  0  0  0  0  0  0  0  0  0  0  0
  -33.3782  -13.5645  146.5714 C   0  0  0  0  0  0  0  0  0  0  0  0
  -33.4376  -11.1568  147.7770 C   0  0  0  0  0  0  0  0  0  0  0  0
  -34.1896  -14.0611  147.7821 C   0  0  0  0  0  0  0  0  0  0  0  0
  -33.5279  -11.2486  145.2140 C   0  0  0  0  0  0  0  0  0  0  0  0
  -32.7769  -11.4285  150.2016 C   0  0  0  0  0  0  0  0  0  0  0  0
  -30.0899  -11.8021  142.4931 C   0  0  0  0  0  0  0  0  0  0  0  0
  -34.0119  -12.0341  144.1542 O   0  0  0  0  0  0  0  0  0  0  0  0
  -33.6469  -10.4332  150.7427 N   0  0  0  0  0  0  0  0  0  0  0  0
  -32.4190  -12.5181  150.9064 C   0  0  0  0  0  0  0  0  0  0  0  0
  -32.8213  -12.7620  152.3389 C   0  0  0  0  0  0  0  0  0  0  0  0
  -33.9920  -15.5675  148.0470 C   0  0  0  0  0  0  0  0  0  0  0  0
  -34.3281  -16.4305  146.8587 C   0  0  0  0  0  0  0  0  0  0  0  0
  -33.4795  -17.3695  146.4330 C   0  0  0  0  0  0  0  0  0  0  0  0
  -33.8263  -18.2777  145.2788 C   0  0  0  0  0  0  0  0  0  0  0  0
  -33.5881  -17.5737  143.9491 C   0  0  0  0  0  0  0  0  0  0  0  0
  -32.2709  -11.2460  148.7913 C   0  0  0  0  0  0  0  0  0  0  0  0
  2  1  1  0
  3  2  1  0
  4  3  1  0
  6  1  1  0
  6  5  1  0
  7  4  1  0
  8  7  1  0
  9  7  1  0
 10  8  1  0
 11  4  1  0
 11  7  1  0
 13  1  1  0
 13  2  1  0
 13  5  1  0
 14 11  1  0
 15 12  1  0
 16 12  2  3
 17 16  1  0
 18 10  1  0
 19 18  1  0
 20 19  2  3
 21 20  1  0
 22 21  1  0
 23  9  1  0
 23 12  1  0
M  END
$$$$

     RDKit          3D

 24 26  0  0  0  0  0  0  0  0999 V2000
  -23.2205   -4.4566  137.8523 F   0  0  0  0  0  0  0  0  0  0  0  0
  -18.4459   -0.4395  138.4654 C   0  0  0  0  0  0  0  0  0  0  0  0
  -17.7780   -0.6409  141.0238 C   0  0  0  0  0  0  0  0  0  0  0  0
  -16.4159    1.9569  137.9449 C   0  0  0  0  0  0  0  0  0  0  0  0
  -17.4971    1.9303  139.0535 C   0  0  0  0  0  0  0  0  0  0  0  0
  -18.7258    1.0648  138.7074 C   0  0  0  0  0  0  0  0  0  0  0  0
  -15.1440    1.2196  138.3636 C   0  0  0  0  0  0  0  0  0  0  0  0
  -23.0233   -3.3854  135.7642 N   0  0  0  0  0  0  0  0  0  0  0  0
  -18.4833   -2.5389  140.3022 C   0  0  0  0  0  0  0  0  0  0  0  0
  -21.1886   -4.3347  136.4552 C   0  0  0  0  0  0  0  0  0  0  0  0
  -22.6955   -4.5540  136.5876 C   0  0  0  0  0  0  0  0  0  0  0  0
  -17.6065   -3.0783  141.2658 O   0  0  0  0  0  0  0  0  0  0  0  0
  -20.2527   -4.0450  137.6834 C   0  0  0  0  0  0  0  0  0  0  0  0
  -23.4954   -3.1144  140.0819 O   0  0  0  0  0  0  0  0  0  0  0  0
  -18.9300   -3.4773  137.1577 C   0  0  0  0  0  0  0  0  0  0  0  0
  -19.7631   -3.4483  140.1851 C   0  0  0  0  0  0  0  0  0  0  0  0
  -20.7894   -3.3811  139.0252 C   0  0  0  0  0  0  0  0  0  0  0  0
  -18.2984   -1.9160  141.6491 C   0  0  0  0  0  0  0  0  0  0  0  0
  -22.8241   -1.8941  139.9113 C   0  0  0  0  0  0  0  0  0  0  0  0
  -21.5670   -2.0247  138.9920 C   0  0  0  0  0  0  0  0  0  0  0  0
  -22.5039   -1.2809  141.2825 C   0  0  0  0  0  0  0  0  0  0  0  0
  -17.8475   -1.2816  139.6355 C   0  0  0  0  0  0  0  0  0  0  0  0
  -21.5890   -3.1554  135.5658 C   0  0  0  0  0  0  0  0  0  0  0  0
  -21.2174   -3.3474  134.0867 C   0  0  0  0  0  0  0  0  0  0  0  0
  5  4  1  0
  6  2  1  0
  6  5  1  0
  7  4  1  0
 11  1  1  0
 11  8  1  0
 11 10  1  0
 12  9  1  0
 13 10  1  0
 15 13  1  0
 16  9  1  0
 17 13  1  0
 17 16  1  0
 18  3  1  0
 18  9  1  0
 18 12  1  0
 19 14  1  0
 20 17  1  0
 20 19  1  0
 21 19  1  0
 22  2  1  0
 22  3  1  0
 22  9  1  0
 23  8  1  0
 23 10  1  0
 24 23  1  0
M  END
$$$$

     RDKit          3D

 24 29  0  0  0  0  0  0  0  0999 V2000
  -21.1890  -18.3444  143.6077 C   0  0  0  0  0  0  0  0  0  0  0  0
  -21.8116  -17.1622  144.4565 C   0  0  0  0  0  0  0  0  0  0  0  0
  -21.0288  -19.1370  142.3331 C   0  0  0  0  0  0  0  0  0  0  0  0
  -22.7192  -18.1467  143.7378 C   0  0  0  0  0  0  0  0  0  0  0  0
  -19.8634  -20.0984  142.1876 C   0  0  0  0  0  0  0  0  0  0  0  0
  -20.8099  -19.7582  141.0138 C   0  0  0  0  0  0  0  0  0  0  0  0
  -23.4404  -17.7532  142.6281 O   0  0  0  0  0  0  0  0  0  0  0  0
  -21.9378  -15.5513  144.1604 C   0  0  0  0  0  0  0  0  0  0  0  0
  -23.2440  -14.8322  145.0027 C   0  0  0  0  0  0  0  0  0  0  0  0
  -21.2375  -15.1558  142.7197 C   0  0  0  0  0  0  0  0  0  0  0  0
  -23.7646  -13.5972  146.1025 C   0  0  0  0  0  0  0  0  0  0  0  0
  -22.0345  -15.6096  141.4727 C   0  0  0  0  0  0  0  0  0  0  0  0
  -21.2447  -16.8575  141.1727 C   0  0  0  0  0  0  0  0  0  0  0  0
  -24.2931  -14.5803  144.0946 C   0  0  0  0  0  0  0  0  0  0  0  0
  -20.4217  -17.7362  142.3789 C   0  0  0  0  0  0  0  0  0  0  0  0
  -22.4884  -12.4167  143.9164 C   0  0  0  0  0  0  0  0  0  0  0  0
  -23.8400  -13.3372  143.4118 C   0  0  0  0  0  0  0  0  0  0  0  0
  -24.1306  -11.9094  146.0543 C   0  0  0  0  0  0  0  0  0  0  0  0
  -22.8701  -14.7090  146.4940 C   0  0  0  0  0  0  0  0  0  0  0  0
  -21.2973  -14.3026  141.4488 C   0  0  0  0  0  0  0  0  0  0  0  0
  -20.5420  -10.4895  143.7832 C   0  0  0  0  0  0  0  0  0  0  0  0
  -24.7961  -10.9949  144.9605 C   0  0  0  0  0  0  0  0  0  0  0  0
  -20.9080  -11.8665  144.3969 C   0  0  0  0  0  0  0  0  0  0  0  0
  -20.5614  -11.8664  145.9323 C   0  0  0  0  0  0  0  0  0  0  0  0
  2  1  1  0
  3  1  1  0
  4  1  1  0
  4  2  1  0
  5  3  1  0
  6  3  1  0
  6  5  1  0
  7  4  1  0
  8  2  1  0
  9  8  1  0
 10  8  1  0
 11  9  1  0
 12 10  1  0
 13 12  1  0
 14  9  1  0
 15  1  1  0
 15  3  1  0
 15 13  1  0
 17 14  1  0
 17 16  1  0
 18 11  1  0
 19  9  1  0
 19 11  1  0
 20 10  1  0
 20 12  1  0
 22 18  1  0
 23 16  1  0
 23 21  1  0
 24 23  1  0
M  END
$$$$

     RDKit          3D

 24 30  0  0  0  0  0  0  0  0999 V2000
  -21.1058  -22.7510  136.3364 C   0  0  0  0  0  0  0  0  0  0  0  0
  -21.8744  -21.5123  136.9455 C   0  0  0  0  0  0  0  0  0  0  0  0
  -21.8237  -24.1449  136.8121 C   0  0  0  0  0  0  0  0  0  0  0  0
  -22.4891  -20.4304  135.9778 C   0  0  0  0  0  0  0  0  0  0  0  0
  -23.2546  -24.2910  136.1007 C   0  0  0  0  0  0  0  0  0  0  0  0
  -19.5504  -21.6399  134.3150 C   0  0  0  0  0  0  0  0  0  0  0  0
  -20.1151  -22.3173  133.0506 C   0  0  0  0  0  0  0  0  0  0  0  0
  -23.9470  -20.6193  135.2927 C   0  0  0  0  0  0  0  0  0  0  0  0
  -21.2955  -22.0156  132.4116 C   0  0  0  0  0  0  0  0  0  0  0  0
  -22.7013  -22.4493  132.8658 C   0  0  0  0  0  0  0  0  0  0  0  0
  -22.6731  -23.6009  133.7764 C   0  0  0  0  0  0  0  0  0  0  0  0
  -24.2371  -24.4498  132.8177 C   0  0  0  0  0  0  0  0  0  0  0  0
  -26.0572  -22.3532  135.1383 C   0  0  0  0  0  0  0  0  0  0  0  0
  -22.5176  -21.5234  138.3754 C   0  0  0  0  0  0  0  0  0  0  0  0
  -21.1468  -20.9416  138.1676 C   0  0  0  0  0  0  0  0  0  0  0  0
  -23.9333  -24.3310  134.2593 C   0  0  0  0  0  0  0  0  0  0  0  0
  -24.9356  -19.5180  135.8357 C   0  0  0  0  0  0  0  0  0  0  0  0
  -23.4985  -23.2058  135.0538 C   0  0  0  0  0  0  0  0  0  0  0  0
  -23.0317  -23.7934  132.3503 N   0  0  0  0  0  0  0  0  0  0  0  0
  -23.4310  -25.3169  135.1388 O   0  0  0  0  0  0  0  0  0  0  0  0
  -24.5444  -22.0859  135.4952 C   0  0  0  0  0  0  0  0  0  0  0  0
  -25.3082  -19.5384  137.3378 C   0  0  0  0  0  0  0  0  0  0  0  0
  -19.7206  -22.4916  135.6751 C   0  0  0  0  0  0  0  0  0  0  0  0
  -18.7004  -23.2494  136.0943 C   0  0  0  0  0  0  0  0  0  0  0  0
  2  1  1  0
  3  1  1  0
  4  2  1  0
  5  3  1  0
  7  6  1  0
  8  4  1  0
  9  7  2  3
 10  9  1  0
 11 10  1  0
 14  2  1  0
 15  2  1  0
 15 14  1  0
 16 11  1  0
 16 12  1  0
 17  8  1  0
 18  5  1  0
 18 11  1  0
 18 16  1  0
 19 10  1  0
 19 11  1  0
 19 12  1  0
 20  5  1  0
 20 16  1  0
 21  8  1  0
 21 13  1  0
 21 18  1  0
 22 17  1  0
 23  1  1  0
 23  6  1  0
 24 23  2  0
M  END
$$$$

     RDKit          3D

 24 28  0  0  0  0  0  0  0  0999 V2000
  -28.0215  -15.3997  136.2396 C   0  0  0  0  0  0  0  0  0  0  0  0
  -29.4608  -14.9660  135.7300 C   0  0  0  0  0  0  0  0  0  0  0  0
  -30.6130  -15.9966  136.1140 C   0  0  0  0  0  0  0  0  0  0  0  0
  -31.1590  -15.3965  137.4654 C   0  0  0  0  0  0  0  0  0  0  0  0
  -32.5750  -14.7662  137.4429 C   0  0  0  0  0  0  0  0  0  0  0  0
  -33.1904  -14.3196  138.8288 C   0  0  0  0  0  0  0  0  0  0  0  0
  -29.8020  -13.6241  136.5292 C   0  0  0  0  0  0  0  0  0  0  0  0
  -30.3019  -12.9525  137.8578 C   0  0  0  0  0  0  0  0  0  0  0  0
  -26.8365  -14.3266  136.1489 C   0  0  0  0  0  0  0  0  0  0  0  0
  -26.2749  -13.8165  137.5451 C   0  0  0  0  0  0  0  0  0  0  0  0
  -32.9478  -12.8381  139.3958 C   0  0  0  0  0  0  0  0  0  0  0  0
  -26.8623  -12.4515  138.0900 C   0  0  0  0  0  0  0  0  0  0  0  0
  -34.3663  -11.2915  138.8203 C   0  0  0  0  0  0  0  0  0  0  0  0
  -27.2838  -12.3950  139.6266 C   0  0  0  0  0  0  0  0  0  0  0  0
  -34.2143  -12.2136  140.0130 C   0  0  0  0  0  0  0  0  0  0  0  0
  -29.8725  -13.6736  139.1703 C   0  0  0  0  0  0  0  0  0  0  0  0
  -28.8006  -12.8457  139.9852 C   0  0  0  0  0  0  0  0  0  0  0  0
  -28.0217  -14.6747  141.7601 C   0  0  0  0  0  0  0  0  0  0  0  0
  -29.9588  -14.3841  137.8303 C   0  0  0  0  0  0  0  0  0  0  0  0
  -32.9929  -11.7261  138.3274 C   0  0  0  0  0  0  0  0  0  0  0  0
  -27.0718  -13.1531  135.1037 C   0  0  0  0  0  0  0  0  0  0  0  0
  -28.1696  -15.8087  140.6731 C   0  0  0  0  0  0  0  0  0  0  0  0
  -26.8339  -13.5148  133.7078 N   0  0  0  0  0  0  0  0  0  0  0  0
  -28.7986  -13.3690  141.4728 C   0  0  0  0  0  0  0  0  0  0  0  0
  2  1  1  0
  3  2  1  0
  4  3  1  0
  5  4  1  0
  6  5  1  0
  7  2  1  0
  8  7  1  0
  9  1  1  0
 10  9  1  0
 11  6  1  0
 12 10  1  0
 14 12  1  0
 15 11  1  0
 15 13  1  0
 16  8  1  0
 17 14  1  0
 17 16  1  0
 19  4  1  0
 19  7  1  0
 19  8  1  0
 19 16  1  0
 20 11  1  0
 20 13  1  0
 21  9  1  0
 22 18  1  0
 23 21  1  0
 24 17  1  0
 24 18  1  0
M  END
$$$$

     RDKit          3D

 12 12  0  0  0  0  0  0  0  0999 V2000
  -27.7375   -7.0678  147.6470 O   0  0  0  0  0  0  0  0  0  0  0  0
  -25.9929   -7.8195  149.1378 C   0  0  0  0  0  0  0  0  0  0  0  0
  -24.8664   -7.7542  148.2727 O   0  0  0  0  0  0  0  0  0  0  0  0
  -25.4937   -7.6598  150.5921 C   0  0  0  0  0  0  0  0  0  0  0  0
  -24.7463   -6.4774  150.7282 O   0  0  0  0  0  0  0  0  0  0  0  0
  -27.0290   -6.7270  148.8062 C   0  0  0  0  0  0  0  0  0  0  0  0
  -25.1190   -8.2924  146.9839 C   0  0  0  0  0  0  0  0  0  0  0  0
  -24.6179   -8.8457  151.0029 C   0  0  0  0  0  0  0  0  0  0  0  0
  -25.2144   -7.3190  145.8052 C   0  0  0  0  0  0  0  0  0  0  0  0
  -25.1256   -5.8169  146.0875 C   0  0  0  0  0  0  0  0  0  0  0  0
  -23.9121   -8.0629  146.0696 C   0  0  0  0  0  0  0  0  0  0  0  0
  -25.7009   -9.7117  146.8395 C   0  0  0  0  0  0  0  0  0  0  0  0
  3  2  1  0
  4  2  1  0
  5  4  1  0
  6  1  1  0
  6  2  1  0
  7  3  1  0
  8  4  1  0
  9  7  1  0
 10  9  1  0
 11  7  1  0
 11  9  1  0
 12  7  1  0
M  END
$$$$

     RDKit          3D

 23 31  0  0  0  0  0  0  0  0999 V2000
  -24.2694   -2.1038  135.8276 C   0  0  0  0  0  0  0  0  0  0  0  0
  -23.3459   -1.7742  134.6456 C   0  0  0  0  0  0  0  0  0  0  0  0
  -22.4796   -3.2917  136.4748 C   0  0  0  0  0  0  0  0  0  0  0  0
  -23.2914   -3.1518  135.1762 C   0  0  0  0  0  0  0  0  0  0  0  0
  -23.6719   -1.6921  138.4232 C   0  0  0  0  0  0  0  0  0  0  0  0
  -25.1189   -2.1265  138.3379 C   0  0  0  0  0  0  0  0  0  0  0  0
  -24.8454   -2.8635  137.0327 C   0  0  0  0  0  0  0  0  0  0  0  0
  -23.4327   -2.2937  137.0586 C   0  0  0  0  0  0  0  0  0  0  0  0
  -24.0985   -1.6490  133.3227 C   0  0  0  0  0  0  0  0  0  0  0  0
  -23.9110   -1.6322  130.8375 O   0  0  0  0  0  0  0  0  0  0  0  0
  -23.2687   -1.7719  132.0785 C   0  0  0  0  0  0  0  0  0  0  0  0
  -24.6242    2.6589  130.8129 N   0  0  0  0  0  0  0  0  0  0  0  0
  -21.8051   -1.9266  132.1218 N   0  0  0  0  0  0  0  0  0  0  0  0
  -23.7015   -0.3838  132.5691 C   0  0  0  0  0  0  0  0  0  0  0  0
  -23.8272    2.6425  133.1084 C   0  0  0  0  0  0  0  0  0  0  0  0
  -24.0298    2.0099  131.7525 C   0  0  0  0  0  0  0  0  0  0  0  0
  -21.4087   -3.1927  131.4942 C   0  0  0  0  0  0  0  0  0  0  0  0
  -24.4468   -0.3922  131.2241 C   0  0  0  0  0  0  0  0  0  0  0  0
  -21.6768   -4.3758  132.4204 C   0  0  0  0  0  0  0  0  0  0  0  0
  -24.6145    3.9125  133.3655 C   0  0  0  0  0  0  0  0  0  0  0  0
  -25.4825    3.8545  134.6009 C   0  0  0  0  0  0  0  0  0  0  0  0
  -23.4310    0.6600  131.4746 C   0  0  0  0  0  0  0  0  0  0  0  0
  -25.0182    2.5519  134.0265 C   0  0  0  0  0  0  0  0  0  0  0  0
  2  1  1  0
  4  1  1  0
  4  2  1  0
  4  3  1  0
  6  5  1  0
  7  1  1  0
  7  6  1  0
  8  1  1  0
  8  3  1  0
  8  5  1  0
  8  7  1  0
  9  2  1  0
 11  9  1  0
 11 10  1  0
 13 11  1  0
 14  9  1  0
 14 11  1  0
 16 12  2  0
 16 15  1  0
 17 13  1  0
 18 10  1  0
 18 14  1  0
 19 17  1  0
 20 15  1  0
 21 20  1  0
 22 14  1  0
 22 16  1  0
 22 18  1  0
 23 15  1  0
 23 20  1  0
 23 21  1  0
M  END
$$$$

     RDKit          3D

 24 30  0  0  0  0  0  0  0  0999 V2000
  -24.5253    0.7249  136.8419 C   0  0  0  0  0  0  0  0  0  0  0  0
  -24.7385    0.1261  135.4184 C   0  0  0  0  0  0  0  0  0  0  0  0
  -23.5968   -0.5779  134.6238 C   0  0  0  0  0  0  0  0  0  0  0  0
  -24.2315   -0.1263  138.0741 C   0  0  0  0  0  0  0  0  0  0  0  0
  -23.5190   -2.1407  134.7869 C   0  0  0  0  0  0  0  0  0  0  0  0
  -25.6780    0.2728  137.7366 C   0  0  0  0  0  0  0  0  0  0  0  0
  -24.0308   -2.8796  136.0533 C   0  0  0  0  0  0  0  0  0  0  0  0
  -25.3430   -0.3798  139.0570 C   0  0  0  0  0  0  0  0  0  0  0  0
  -24.0087   -4.0218  137.1142 C   0  0  0  0  0  0  0  0  0  0  0  0
  -22.5724   -2.4282  135.9037 C   0  0  0  0  0  0  0  0  0  0  0  0
  -21.6353   -3.4192  135.4981 O   0  0  0  0  0  0  0  0  0  0  0  0
  -23.3827   -5.4534  136.8636 C   0  0  0  0  0  0  0  0  0  0  0  0
  -22.7981   -6.0385  138.2009 C   0  0  0  0  0  0  0  0  0  0  0  0
  -24.1516   -6.5191  136.0348 C   0  0  0  0  0  0  0  0  0  0  0  0
  -23.1159   -7.4486  138.6762 C   0  0  0  0  0  0  0  0  0  0  0  0
  -21.8949   -5.7560  136.9872 C   0  0  0  0  0  0  0  0  0  0  0  0
  -22.5754   -7.0684  140.0453 C   0  0  0  0  0  0  0  0  0  0  0  0
  -22.0675   -5.7109  139.5129 C   0  0  0  0  0  0  0  0  0  0  0  0
  -22.0902   -8.5842  138.5985 C   0  0  0  0  0  0  0  0  0  0  0  0
  -22.5399   -4.5320  140.3828 C   0  0  0  0  0  0  0  0  0  0  0  0
  -21.7661   -3.2109  140.0505 C   0  0  0  0  0  0  0  0  0  0  0  0
  -21.5948   -8.2451  139.9865 C   0  0  0  0  0  0  0  0  0  0  0  0
  -20.2798   -3.2893  140.3504 C   0  0  0  0  0  0  0  0  0  0  0  0
  -21.1752   -2.4449  141.2479 C   0  0  0  0  0  0  0  0  0  0  0  0
  2  1  1  0
  3  2  1  0
  4  1  1  0
  5  3  1  0
  6  1  1  0
  6  4  1  0
  7  5  1  0
  8  4  1  0
  8  6  1  0
  9  7  1  0
 10  5  1  0
 10  7  1  0
 11 10  1  0
 12  9  1  0
 13 12  1  0
 14 12  1  0
 15 13  1  0
 16 12  1  0
 16 13  1  0
 17 15  1  0
 18 13  1  0
 18 17  1  0
 19 15  1  0
 20 18  1  0
 21 20  1  0
 22 17  1  0
 22 19  1  0
 23 21  1  0
 24 21  1  0
 24 23  1  0
M  END
$$$$

     RDKit          3D

 24 29  0  0  0  0  0  0  0  0999 V2000
  -33.8703  -11.1002  141.0623 O   0  0  0  0  0  0  0  0  0  0  0  0
  -33.8154   -9.7037  142.6636 C   0  0  0  0  0  0  0  0  0  0  0  0
  -34.8926   -8.8602  143.0764 O   0  0  0  0  0  0  0  0  0  0  0  0
  -34.1985  -11.1642  142.4371 C   0  0  0  0  0  0  0  0  0  0  0  0
  -35.6852  -11.5471  142.6763 C   0  0  0  0  0  0  0  0  0  0  0  0
  -35.8577  -13.0012  143.1568 C   0  0  0  0  0  0  0  0  0  0  0  0
  -34.4535  -12.7662  145.3292 C   0  0  0  0  0  0  0  0  0  0  0  0
  -34.3499  -12.9712  146.8598 C   0  0  0  0  0  0  0  0  0  0  0  0
  -35.4626  -13.6512  147.6572 C   0  0  0  0  0  0  0  0  0  0  0  0
  -34.2184  -14.4330  147.2731 C   0  0  0  0  0  0  0  0  0  0  0  0
  -35.8034  -13.1641  144.6909 C   0  0  0  0  0  0  0  0  0  0  0  0
  -33.3980   -9.7749  141.1957 C   0  0  0  0  0  0  0  0  0  0  0  0
  -37.0130   -7.8152  142.5944 C   0  0  0  0  0  0  0  0  0  0  0  0
  -35.9331   -6.8906  142.0581 C   0  0  0  0  0  0  0  0  0  0  0  0
  -37.4661   -5.3414  140.6691 C   0  0  0  0  0  0  0  0  0  0  0  0
  -35.7245   -8.4010  142.0321 C   0  0  0  0  0  0  0  0  0  0  0  0
  -37.7124   -4.4330  141.8959 C   0  0  0  0  0  0  0  0  0  0  0  0
  -36.2122   -6.2373  140.6955 C   0  0  0  0  0  0  0  0  0  0  0  0
  -36.5048   -3.6435  142.4537 C   0  0  0  0  0  0  0  0  0  0  0  0
  -35.5616   -2.9856  141.3724 C   0  0  0  0  0  0  0  0  0  0  0  0
  -35.5349   -1.5107  141.7658 C   0  0  0  0  0  0  0  0  0  0  0  0
  -35.7794   -1.5259  143.2520 C   0  0  0  0  0  0  0  0  0  0  0  0
  -36.9206   -1.2866  142.3075 C   0  0  0  0  0  0  0  0  0  0  0  0
  -36.9768   -2.4377  143.2762 C   0  0  0  0  0  0  0  0  0  0  0  0
  3  2  1  0
  4  1  1  0
  4  2  1  0
  5  4  1  0
  6  5  1  0
  8  7  1  0
  9  8  1  0
 10  8  1  0
 10  9  1  0
 11  6  1  0
 11  7  1  0
 12  1  1  0
 12  2  1  0
 14 13  1  0
 16  3  1  0
 16 13  1  0
 16 14  1  0
 17 15  1  0
 18 14  1  0
 18 15  1  0
 19 17  1  0
 20 19  1  0
 21 20  1  0
 22 21  1  0
 23 21  1  0
 23 22  1  0
 24 19  1  0
 24 22  1  0
 24 23  1  0
M  END
$$$$

     RDKit          3D

 24 28  0  0  0  0  0  0  0  0999 V2000
  -31.5161  -10.9877  140.7220 C   0  0  0  0  0  0  0  0  0  0  0  0
  -30.0857  -11.3558  141.2060 C   0  0  0  0  0  0  0  0  0  0  0  0
  -32.7662  -10.8659  141.6284 C   0  0  0  0  0  0  0  0  0  0  0  0
  -32.7695  -11.1313  143.1764 C   0  0  0  0  0  0  0  0  0  0  0  0
  -33.7724  -12.2886  143.4896 C   0  0  0  0  0  0  0  0  0  0  0  0
  -32.1017   -9.5956  141.0455 C   0  0  0  0  0  0  0  0  0  0  0  0
  -29.8987  -11.6412  142.6962 C   0  0  0  0  0  0  0  0  0  0  0  0
  -31.3912   -8.7463  142.0082 N   0  0  0  0  0  0  0  0  0  0  0  0
  -31.4099  -11.5018  143.8030 C   0  0  0  0  0  0  0  0  0  0  0  0
  -35.0058  -11.8576  144.3082 C   0  0  0  0  0  0  0  0  0  0  0  0
  -35.6010  -11.9397  146.8625 C   0  0  0  0  0  0  0  0  0  0  0  0
  -30.8317  -12.5789  143.1285 O   0  0  0  0  0  0  0  0  0  0  0  0
  -37.0964  -11.8720  146.5665 C   0  0  0  0  0  0  0  0  0  0  0  0
  -35.6932  -13.4594  146.9914 C   0  0  0  0  0  0  0  0  0  0  0  0
  -34.6395  -11.4373  145.7551 C   0  0  0  0  0  0  0  0  0  0  0  0
  -30.4133  -10.5990  143.4652 O   0  0  0  0  0  0  0  0  0  0  0  0
  -37.1856  -13.3940  146.6911 C   0  0  0  0  0  0  0  0  0  0  0  0
  -30.3245   -7.9172  141.4110 C   0  0  0  0  0  0  0  0  0  0  0  0
  -32.8679   -8.8878  139.9164 C   0  0  0  0  0  0  0  0  0  0  0  0
  -30.8130   -6.5316  141.0526 C   0  0  0  0  0  0  0  0  0  0  0  0
  -29.9235   -5.5651  140.7785 C   0  0  0  0  0  0  0  0  0  0  0  0
  -29.1123   -7.8650  142.3827 C   0  0  0  0  0  0  0  0  0  0  0  0
  -28.2453   -6.5820  142.2701 C   0  0  0  0  0  0  0  0  0  0  0  0
  -28.4588   -5.8488  140.9379 C   0  0  0  0  0  0  0  0  0  0  0  0
  2  1  1  0
  3  1  1  0
  4  3  1  0
  5  4  1  0
  6  1  1  0
  6  3  1  0
  7  2  1  0
  8  6  1  0
  9  4  1  0
 10  5  1  0
 12  7  1  0
 12  9  1  0
 13 11  1  0
 14 11  1  0
 15 10  1  0
 15 11  1  0
 16  7  1  0
 16  9  1  0
 17 13  1  0
 17 14  1  0
 18  8  1  0
 19  6  1  0
 20 18  1  0
 21 20  2  0
 22 18  1  0
 23 22  1  0
 24 21  1  0
 24 23  1  0
M  END
$$$$

     RDKit          3D

 11 13  0  0  0  0  0  0  0  0999 V2000
  -22.9554    1.7233  141.0848 C   0  0  0  0  0  0  0  0  0  0  0  0
  -22.6644    2.6495  139.8875 C   0  0  0  0  0  0  0  0  0  0  0  0
  -22.2051    4.1053  140.0120 C   0  0  0  0  0  0  0  0  0  0  0  0
  -22.1810    4.8840  141.1187 C   0  0  0  0  0  0  0  0  0  0  0  0
  -22.4607    4.3966  142.5197 C   0  0  0  0  0  0  0  0  0  0  0  0
  -23.7512    3.5780  142.5868 C   0  0  0  0  0  0  0  0  0  0  0  0
  -21.5156    1.6847  139.6180 C   0  0  0  0  0  0  0  0  0  0  0  0
  -21.8516    0.8154  140.7520 N   0  0  0  0  0  0  0  0  0  0  0  0
  -24.4237    3.7190  143.8179 O   0  0  0  0  0  0  0  0  0  0  0  0
  -21.6433    3.1424  142.7985 C   0  0  0  0  0  0  0  0  0  0  0  0
  -22.8965    2.3075  142.5192 C   0  0  0  0  0  0  0  0  0  0  0  0
  2  1  1  0
  3  2  1  0
  4  3  2  0
  5  4  1  0
  6  5  1  0
  7  2  1  0
  8  1  1  0
  8  7  1  0
  9  6  1  0
 10  5  1  0
 11  1  1  0
 11  6  1  0
 11 10  1  0
M  END
$$$$

     RDKit          3D

 24 27  0  0  0  0  0  0  0  0999 V2000
  -28.1355  -22.3162  145.9505 O   0  0  0  0  0  0  0  0  0  0  0  0
  -28.1626  -21.1849  145.0808 C   0  0  0  0  0  0  0  0  0  0  0  0
  -29.3278  -20.3906  145.4390 O   0  0  0  0  0  0  0  0  0  0  0  0
  -28.3201  -21.5309  143.4995 C   0  0  0  0  0  0  0  0  0  0  0  0
  -27.2249  -21.8471  142.2702 C   0  0  0  0  0  0  0  0  0  0  0  0
  -26.5349  -23.1183  143.1267 C   0  0  0  0  0  0  0  0  0  0  0  0
  -27.0605  -24.6412  143.0682 C   0  0  0  0  0  0  0  0  0  0  0  0
  -25.7518  -22.7424  144.3214 N   0  0  0  0  0  0  0  0  0  0  0  0
  -28.7659  -24.9718  144.4427 C   0  0  0  0  0  0  0  0  0  0  0  0
  -27.2064  -26.1996  145.5125 N   0  0  0  0  0  0  0  0  0  0  0  0
  -24.3881  -23.3056  144.7682 C   0  0  0  0  0  0  0  0  0  0  0  0
  -25.8933  -22.6338  141.9824 N   0  0  0  0  0  0  0  0  0  0  0  0
  -27.2248  -24.9547  144.6575 C   0  0  0  0  0  0  0  0  0  0  0  0
  -28.5275  -24.9325  142.8829 C   0  0  0  0  0  0  0  0  0  0  0  0
  -27.9901  -22.2187  147.3666 C   0  0  0  0  0  0  0  0  0  0  0  0
  -26.6966  -25.8506  146.8845 C   0  0  0  0  0  0  0  0  0  0  0  0
  -28.9359  -21.2956  148.1914 C   0  0  0  0  0  0  0  0  0  0  0  0
  -23.8674  -24.8345  144.4807 C   0  0  0  0  0  0  0  0  0  0  0  0
  -24.4025  -22.9510  146.2353 C   0  0  0  0  0  0  0  0  0  0  0  0
  -28.6748  -26.2894  145.3703 C   0  0  0  0  0  0  0  0  0  0  0  0
  -28.7797  -21.4660  149.6251 C   0  0  0  0  0  0  0  0  0  0  0  0
  -26.9799  -22.8569  147.9217 N   0  0  0  0  0  0  0  0  0  0  0  0
  -23.2350  -24.1431  143.1755 C   0  0  0  0  0  0  0  0  0  0  0  0
  -23.2585  -22.8331  143.9130 C   0  0  0  0  0  0  0  0  0  0  0  0
  2  1  1  0
  3  2  1  0
  4  2  1  0
  5  4  1  0
  6  5  1  0
  7  6  1  0
  8  6  1  0
 11  8  1  0
 12  5  1  0
 12  6  1  0
 13  7  1  0
 13  9  1  0
 13 10  1  0
 14  7  1  0
 14  9  1  0
 15  1  1  0
 16 10  1  0
 17 15  1  0
 18 11  1  0
 19 11  1  0
 20  9  1  0
 20 10  1  0
 21 17  1  0
 22 15  2  0
 23 18  1  0
 24 11  1  0
 24 23  1  0
M  END
$$$$

     RDKit          3D

 24 28  0  0  0  0  0  0  0  0999 V2000
  -24.4971   -3.2237  132.5139 C   0  0  0  0  0  0  0  0  0  0  0  0
  -24.2187   -2.2561  133.7197 C   0  0  0  0  0  0  0  0  0  0  0  0
  -24.8462   -2.2620  131.3206 C   0  0  0  0  0  0  0  0  0  0  0  0
  -25.6046   -1.2865  134.0578 C   0  0  0  0  0  0  0  0  0  0  0  0
  -21.7349   -3.0492  133.2116 N   0  0  0  0  0  0  0  0  0  0  0  0
  -25.1171   -4.5785  132.9412 N   0  0  0  0  0  0  0  0  0  0  0  0
  -25.9540   -4.7139  134.1214 C   0  0  0  0  0  0  0  0  0  0  0  0
  -26.9507   -1.3869  133.0459 C   0  0  0  0  0  0  0  0  0  0  0  0
  -21.6411   -2.3333  134.5073 C   0  0  0  0  0  0  0  0  0  0  0  0
  -26.4980   -6.0182  134.0804 O   0  0  0  0  0  0  0  0  0  0  0  0
  -26.5285   -0.5410  131.9040 C   0  0  0  0  0  0  0  0  0  0  0  0
  -23.6977   -3.7123  130.7013 Se  0  0  0  0  0  2  0  0  0  0  0  0
  -26.9750   -2.6799  132.2971 C   0  0  0  0  0  0  0  0  0  0  0  0
  -23.8302   -0.9985  131.2106 C   0  0  0  0  0  0  0  0  0  0  0  0
  -25.1134   -4.6800  135.3835 N   0  0  0  0  0  0  0  0  0  0  0  0
  -20.8529   -2.9909  135.5859 O   0  0  0  0  0  0  0  0  0  0  0  0
  -22.8711   -3.0287  134.1961 C   0  0  0  0  0  0  0  0  0  0  0  0
  -26.4875   -1.9141  131.1668 C   0  0  0  0  0  0  0  0  0  0  0  0
  -29.1013   -1.3173  131.4456 C   0  0  0  0  0  0  0  0  0  0  0  0
  -28.5101   -0.9601  132.9661 C   0  0  0  0  0  0  0  0  0  0  0  0
  -27.9595   -1.8543  130.4435 C   0  0  0  0  0  0  0  0  0  0  0  0
  -24.8556   -3.5825  137.6295 C   0  0  0  0  0  0  0  0  0  0  0  0
  -27.2426   -3.6976  136.6556 C   0  0  0  0  0  0  0  0  0  0  0  0
  -25.8309   -4.3497  136.6873 C   0  0  0  0  0  0  0  0  0  0  0  0
  2  1  1  0
  3  1  1  0
  4  2  1  0
  6  1  1  0
  7  6  1  0
  8  4  1  0
  9  5  1  0
 10  7  1  0
 11  8  1  0
 12  1  1  0
 12  3  1  0
 13  8  1  0
 14  3  1  0
 15  7  1  0
 16  9  1  0
 17  2  1  0
 17  5  1  0
 17  9  1  0
 18  3  1  0
 18 11  1  0
 18 13  1  0
 20  8  1  0
 20 19  1  0
 21 18  1  0
 21 19  1  0
 24 15  1  0
 24 22  1  0
 24 23  1  0
M  END
$$$$

     RDKit          3D

 12 11  0  0  0  0  0  0  0  0999 V2000
  -22.3440   -0.2742  143.4765 O   0  0  0  0  0  0  0  0  0  0  0  0
  -20.8537   -0.5978  142.7538 P   0  0  0  0  0  0  0  0  0  0  0  0
  -20.0818   -1.3145  144.1978 O   0  0  0  0  0  0  0  0  0  0  0  0
  -20.9622   -1.7662  141.3902 O   0  0  0  0  0  0  0  0  0  0  0  0
  -19.3480   -0.2339  144.6676 C   0  0  0  0  0  0  0  0  0  0  0  0
  -17.9819   -0.7753  145.1052 C   0  0  0  0  0  0  0  0  0  0  0  0
  -16.9176    0.0710  144.4832 C   0  0  0  0  0  0  0  0  0  0  0  0
  -15.7389   -0.6130  144.9052 O   0  0  0  0  0  0  0  0  0  0  0  0
  -15.9458    1.9512  145.4160 C   0  0  0  0  0  0  0  0  0  0  0  0
  -15.2015    2.3954  146.1593 O   0  0  0  0  0  0  0  0  0  0  0  0
  -17.9969    2.8693  144.7521 C   0  0  0  0  0  0  0  0  0  0  0  0
  -16.8869    1.6803  144.6506 C   0  0  0  0  0  0  0  0  0  0  0  0
  2  1  1  0
  3  2  1  0
  4  2  1  0
  5  3  1  0
  6  5  1  0
  7  6  1  0
  8  7  1  0
 10  9  2  0
 12  7  1  0
 12  9  2  0
 12 11  1  0
M  END
$$$$

     RDKit          3D

 24 28  0  0  0  0  0  0  0  0999 V2000
  -25.1496  -15.0342  133.6909 C   0  0  0  0  0  0  0  0  0  0  0  0
  -24.8232  -14.1400  132.5908 N   0  0  0  0  0  0  0  0  0  0  0  0
  -24.9575  -12.8552  132.6745 C   0  0  0  0  0  0  0  0  0  0  0  0
  -25.5836  -12.2655  133.8093 N   0  0  0  0  0  0  0  0  0  0  0  0
  -24.4240  -12.0518  131.6390 N   0  0  0  0  0  0  0  0  0  0  0  0
  -26.3456  -15.3498  135.8660 C   0  0  0  0  0  0  0  0  0  0  0  0
  -25.4599  -14.8111  137.0002 C   0  0  0  0  0  0  0  0  0  0  0  0
  -26.4497  -13.0089  134.7319 C   0  0  0  0  0  0  0  0  0  0  0  0
  -27.8471  -12.3176  134.7726 C   0  0  0  0  0  0  0  0  0  0  0  0
  -29.2226  -12.9971  134.3461 C   0  0  0  0  0  0  0  0  0  0  0  0
  -30.1214  -14.1569  134.8294 C   0  0  0  0  0  0  0  0  0  0  0  0
  -30.8822  -15.0113  135.9179 C   0  0  0  0  0  0  0  0  0  0  0  0
  -29.6739  -14.4174  138.0961 C   0  0  0  0  0  0  0  0  0  0  0  0
  -29.1264  -13.1669  137.4150 C   0  0  0  0  0  0  0  0  0  0  0  0
  -30.3087  -12.3791  136.7205 C   0  0  0  0  0  0  0  0  0  0  0  0
  -30.1148  -10.9239  137.0848 C   0  0  0  0  0  0  0  0  0  0  0  0
  -30.0708  -15.5130  137.1099 C   0  0  0  0  0  0  0  0  0  0  0  0
  -30.4911  -12.6711  135.1807 C   0  0  0  0  0  0  0  0  0  0  0  0
  -31.1957  -10.2637  137.8914 C   0  0  0  0  0  0  0  0  0  0  0  0
  -30.4038  -11.2067  135.6649 C   0  0  0  0  0  0  0  0  0  0  0  0
  -26.3764  -14.5667  134.5161 C   0  0  0  0  0  0  0  0  0  0  0  0
  -32.5070  -10.2817  137.5936 C   0  0  0  0  0  0  0  0  0  0  0  0
  -33.4461   -9.2968  138.2305 C   0  0  0  0  0  0  0  0  0  0  0  0
  -34.6062   -9.9723  138.9500 C   0  0  0  0  0  0  0  0  0  0  0  0
  2  1  1  0
  3  2  2  0
  4  3  1  0
  5  3  1  0
  7  6  1  0
  8  4  1  0
  9  8  1  0
 10  9  1  0
 11 10  1  0
 12 11  1  0
 14 13  1  0
 15 14  1  0
 16 15  1  0
 17 12  1  0
 17 13  1  0
 18 10  1  0
 18 11  1  0
 18 15  1  0
 19 16  1  0
 20 15  1  0
 20 16  1  0
 20 18  1  0
 21  1  1  0
 21  6  1  0
 21  8  1  0
 22 19  2  3
 23 22  1  0
 24 23  1  0
M  END
$$$$

     RDKit          3D

 24 31  0  0  0  0  0  0  0  0999 V2000
  -28.8117  -10.1599  155.2161 O   0  0  0  0  0  0  0  0  0  0  0  0
  -27.2045   -9.2074  155.0660 C   0  0  0  0  0  0  0  0  0  0  0  0
  -27.8441   -7.9729  155.4082 C   0  0  0  0  0  0  0  0  0  0  0  0
  -26.3522   -9.0172  153.3958 C   0  0  0  0  0  0  0  0  0  0  0  0
  -29.1937   -8.5953  151.9821 N   0  0  0  0  0  0  0  0  0  0  0  0
  -27.2384   -8.4695  149.6937 C   0  0  0  0  0  0  0  0  0  0  0  0
  -26.6102   -7.5057  148.5912 N   0  0  0  0  0  0  0  0  0  0  0  0
  -28.2616  -10.2184  151.6686 C   0  0  0  0  0  0  0  0  0  0  0  0
  -28.8458   -8.0892  154.1813 N   0  0  0  0  0  0  0  0  0  0  0  0
  -24.9133   -9.0898  153.6099 C   0  0  0  0  0  0  0  0  0  0  0  0
  -26.1215  -10.1849  153.8696 C   0  0  0  0  0  0  0  0  0  0  0  0
  -25.4972   -6.3857  148.6997 C   0  0  0  0  0  0  0  0  0  0  0  0
  -26.9741   -6.0941  148.6333 C   0  0  0  0  0  0  0  0  0  0  0  0
  -24.6194   -6.1464  150.0392 C   0  0  0  0  0  0  0  0  0  0  0  0
  -24.9334   -5.7310  147.5019 O   0  0  0  0  0  0  0  0  0  0  0  0
  -28.5906   -9.4631  153.2054 C   0  0  0  0  0  0  0  0  0  0  0  0
  -28.5833   -9.1298  150.6995 C   0  0  0  0  0  0  0  0  0  0  0  0
  -26.8520   -6.2807  153.2000 Se  0  0  0  0  0  2  0  0  0  0  0  0
  -25.8667   -8.2088  152.2018 C   0  0  0  0  0  0  0  0  0  0  0  0
  -26.3705   -6.7851  151.6706 C   0  0  0  0  0  0  0  0  0  0  0  0
  -25.4300   -5.6666  151.2363 C   0  0  0  0  0  0  0  0  0  0  0  0
  -28.8253  -11.5612  154.0398 C   0  0  0  0  0  0  0  0  0  0  0  0
  -27.1201  -11.5787  153.2859 N   0  0  0  0  0  0  0  0  0  0  0  0
  -25.1339   -7.5640  153.1786 C   0  0  0  0  0  0  0  0  0  0  0  0
  2  1  1  0
  3  2  1  0
  4  2  1  0
  7  6  1  0
  9  3  1  0
 10  4  1  0
 11  2  1  0
 11  4  1  0
 11 10  1  0
 12  7  1  0
 13  7  1  0
 13 12  1  0
 14 12  1  0
 15 12  1  0
 16  5  1  0
 16  8  1  0
 16  9  1  0
 17  5  1  0
 17  6  1  0
 17  8  1  0
 19  4  1  0
 20 18  1  0
 20 19  1  0
 21 14  1  0
 21 20  1  0
 22  1  1  0
 23 11  1  0
 23 22  1  0
 24 10  1  0
 24 18  1  0
 24 19  1  0
M  END
$$$$

     RDKit          3D

 24 28  0  0  0  0  0  0  0  0999 V2000
  -26.4461   -2.2510  133.4013 O   0  0  0  0  0  0  0  0  0  0  0  0
  -25.3815   -1.4826  132.7994 C   0  0  0  0  0  0  0  0  0  0  0  0
  -24.2249   -1.6968  133.5761 O   0  0  0  0  0  0  0  0  0  0  0  0
  -25.0058   -1.7690  131.3163 C   0  0  0  0  0  0  0  0  0  0  0  0
  -25.6623   -3.0328  130.7822 C   0  0  0  0  0  0  0  0  0  0  0  0
  -25.0781   -0.4550  130.5109 C   0  0  0  0  0  0  0  0  0  0  0  0
  -27.1074   -3.1856  131.1057 C   0  0  0  0  0  0  0  0  0  0  0  0
  -25.3858    0.6586  131.4964 C   0  0  0  0  0  0  0  0  0  0  0  0
  -28.1516   -2.2250  131.6827 C   0  0  0  0  0  0  0  0  0  0  0  0
  -26.4393    2.4388  129.9982 C   0  0  0  0  0  0  0  0  0  0  0  0
  -25.7298    0.0242  132.8535 C   0  0  0  0  0  0  0  0  0  0  0  0
  -27.6384   -4.3728  130.3278 C   0  0  0  0  0  0  0  0  0  0  0  0
  -27.3051   -3.0752  132.6084 C   0  0  0  0  0  0  0  0  0  0  0  0
  -28.6936    2.3045  128.9097 C   0  0  0  0  0  0  0  0  0  0  0  0
  -26.3143   -0.0749  129.6883 C   0  0  0  0  0  0  0  0  0  0  0  0
  -29.6075    3.1404  127.9978 C   0  0  0  0  0  0  0  0  0  0  0  0
  -26.5981    1.0806  130.6492 C   0  0  0  0  0  0  0  0  0  0  0  0
  -29.2126    3.0748  126.5106 C   0  0  0  0  0  0  0  0  0  0  0  0
  -26.6990   -4.4389  129.1061 C   0  0  0  0  0  0  0  0  0  0  0  0
  -27.9993    3.9200  126.1862 C   0  0  0  0  0  0  0  0  0  0  0  0
  -27.3838    2.9897  129.2161 C   0  0  0  0  0  0  0  0  0  0  0  0
  -26.7038    3.2704  125.7747 C   0  0  0  0  0  0  0  0  0  0  0  0
  -28.0816    5.2607  126.2264 C   0  0  0  0  0  0  0  0  0  0  0  0
  -25.5963   -3.3751  129.3014 C   0  0  0  0  0  0  0  0  0  0  0  0
  2  1  1  0
  3  2  1  0
  4  2  1  0
  5  4  1  0
  6  4  1  0
  7  5  1  0
  8  6  1  0
  9  7  1  0
 11  2  1  0
 11  8  1  0
 12  7  1  0
 13  1  1  0
 13  7  1  0
 13  9  1  0
 15  6  1  0
 16 14  1  0
 17  8  1  0
 17 10  1  0
 17 15  1  0
 18 16  1  0
 19 12  1  0
 20 18  1  0
 21 10  2  3
 21 14  1  0
 22 20  1  0
 23 20  2  0
 24  5  1  0
 24 19  1  0
M  END
$$$$

     RDKit          3D

 24 28  0  0  0  0  0  0  0  0999 V2000
  -20.5471   -1.3418  141.9167 C   0  0  0  0  0  0  0  0  0  0  0  0
  -20.1260   -4.7095  142.7184 C   0  0  0  0  0  0  0  0  0  0  0  0
  -17.8953   -5.5996  142.5058 C   0  0  0  0  0  0  0  0  0  0  0  0
  -21.8209   -0.3360  142.7974 C   0  0  0  0  0  0  0  0  0  0  0  0
  -17.6220   -4.1726  142.9200 C   0  0  0  0  0  0  0  0  0  0  0  0
  -22.8366   -0.3347  144.1326 C   0  0  0  0  0  0  0  0  0  0  0  0
  -22.0548    0.3235  145.4166 C   0  0  0  0  0  0  0  0  0  0  0  0
  -22.7412    0.7747  146.6797 C   0  0  0  0  0  0  0  0  0  0  0  0
  -20.6018   -0.0378  145.3195 C   0  0  0  0  0  0  0  0  0  0  0  0
  -19.1186   -6.2212  143.1385 C   0  0  0  0  0  0  0  0  0  0  0  0
  -22.4637   -2.7916  141.7567 C   0  0  0  0  0  0  0  0  0  0  0  0
  -19.5464    0.6643  144.3273 C   0  0  0  0  0  0  0  0  0  0  0  0
  -22.1095   -0.5081  146.7191 N   0  0  0  0  0  0  0  0  0  0  0  0
  -19.9331    1.3636  141.6944 C   0  0  0  0  0  0  0  0  0  0  0  0
  -20.3331    2.6905  141.9213 C   0  0  0  0  0  0  0  0  0  0  0  0
  -19.5017    3.2093  140.7392 C   0  0  0  0  0  0  0  0  0  0  0  0
  -17.7660   -3.3006  144.2584 C   0  0  0  0  0  0  0  0  0  0  0  0
  -18.8391   -4.5173  141.8985 C   0  0  0  0  0  0  0  0  0  0  0  0
  -20.8541   -3.0064  142.3616 C   0  0  0  0  0  0  0  0  0  0  0  0
  -20.5690   -0.4462  146.7420 C   0  0  0  0  0  0  0  0  0  0  0  0
  -24.0473    0.6179  143.8724 C   0  0  0  0  0  0  0  0  0  0  0  0
  -19.4167    4.3965  140.5194 O   0  0  0  0  0  0  0  0  0  0  0  0
  -19.2404   -1.1856  140.8356 C   0  0  0  0  0  0  0  0  0  0  0  0
  -19.7428    1.7592  143.1348 C   0  0  0  0  0  0  0  0  0  0  0  0
  4  1  1  0
  5  3  1  0
  6  4  1  0
  7  6  1  0
  8  7  1  0
  9  7  1  0
 10  2  1  0
 10  3  1  0
 12  9  1  0
 13  7  1  0
 13  8  1  0
 15 14  1  0
 16 15  1  0
 17  5  1  0
 18  2  1  0
 18  3  1  0
 18  5  1  0
 19  1  1  0
 19  2  1  0
 19 11  1  0
 20  9  1  0
 20 13  1  0
 21  6  1  0
 22 16  2  0
 23  1  1  0
 24 12  1  0
 24 14  1  0
 24 15  1  0
M  END
$$$$

     RDKit          3D

 24 25  0  0  0  0  0  0  0  0999 V2000
  -28.7480  -18.3960  148.9141 O   0  0  0  0  0  0  0  0  0  0  0  0
  -30.0454  -18.4737  149.0704 C   0  0  0  0  0  0  0  0  0  0  0  0
  -30.6238  -19.4180  149.6552 O   0  0  0  0  0  0  0  0  0  0  0  0
  -30.7549  -17.1384  148.9890 C   0  0  0  0  0  0  0  0  0  0  0  0
  -31.5648  -17.0769  147.7607 N   0  0  0  0  0  0  0  0  0  0  0  0
  -31.2148  -16.0286  149.9363 C   0  0  0  0  0  0  0  0  0  0  0  0
  -31.2783  -14.6878  149.2855 C   0  0  0  0  0  0  0  0  0  0  0  0
  -31.1703  -13.5022  150.0524 C   0  0  0  0  0  0  0  0  0  0  0  0
  -31.8414  -12.3231  149.6456 C   0  0  0  0  0  0  0  0  0  0  0  0
  -33.0009  -12.3927  148.8378 C   0  0  0  0  0  0  0  0  0  0  0  0
  -33.5265  -13.6580  148.4823 C   0  0  0  0  0  0  0  0  0  0  0  0
  -33.4877  -14.7260  149.3985 C   0  0  0  0  0  0  0  0  0  0  0  0
  -34.3465  -14.7574  150.5683 C   0  0  0  0  0  0  0  0  0  0  0  0
  -35.4329  -15.4540  150.6191 N   0  0  0  0  0  2  0  0  0  0  0  0
  -31.9715  -12.3137  149.7456 C   0  0  0  0  0  0  0  0  0  0  0  0
  -31.0849  -14.9785  147.8726 C   0  0  0  0  0  0  0  0  0  0  0  0
  -36.4391  -15.0490  149.7981 C   0  0  0  0  0  0  0  0  0  0  0  0
  -32.8327  -12.4569  148.7802 C   0  0  0  0  0  0  0  0  0  0  0  0
  -33.7689  -14.1531  151.6168 N   0  0  0  0  0  0  0  0  0  0  0  0
  -31.7410  -16.3223  147.7581 C   0  0  0  0  0  0  0  0  0  0  0  0
  -36.6624  -14.7708  151.0347 O   0  0  0  0  0  1  0  0  0  0  0  0
  -31.2314  -15.8011  149.3625 C   0  0  0  0  0  0  0  0  0  0  0  0
  -29.6240  -17.4397  149.9299 C   0  0  0  0  0  0  0  0  0  0  0  0
  -29.2696  -17.4405  149.5819 C   0  0  0  0  0  0  0  0  0  0  0  0
  2  1  1  0
  3  2  1  0
  5  4  1  0
  8  7  1  0
  9  8  1  0
 11 10  1  0
 12 11  1  0
 13 12  1  0
 14 13  1  0
 15  9  1  0
 16  7  1  0
 17 14  1  0
 18 10  1  0
 18 15  1  0
 19 13  1  0
 20  5  1  0
 20 16  1  0
 21 17  1  0
 22  4  1  0
 22  6  2  0
 22  7  1  0
 23  4  1  0
 24  1  1  0
 24  2  1  0
 24 23  1  0
M  RAD  2  14   2  21   2
M  END
$$$$

     RDKit          3D

 22 24  0  0  0  0  0  0  0  0999 V2000
  -28.9326  -11.9604  149.7379 C   0  0  0  0  0  0  0  0  0  0  0  0
  -27.9105  -11.0643  150.1470 O   0  0  0  0  0  0  0  0  0  0  0  0
  -27.0384  -13.3174  149.0983 O   0  0  0  0  0  0  0  0  0  0  0  0
  -28.5329  -12.8465  153.3636 F   0  0  0  0  0  0  0  0  0  0  0  0
  -27.5547  -11.9013  153.6261 C   0  0  0  0  0  0  0  0  0  0  0  0
  -28.1300  -10.8536  154.5805 C   0  0  0  0  0  0  0  0  0  0  0  0
  -28.1153  -10.7627  151.4627 N   0  0  0  0  0  0  0  0  0  0  0  0
  -28.4077   -9.3164  151.6192 C   0  0  0  0  0  0  0  0  0  0  0  0
  -27.0202  -11.3400  152.2868 C   0  0  0  0  0  0  0  0  0  0  0  0
  -25.7805  -10.4409  152.4551 C   0  0  0  0  0  0  0  0  0  0  0  0
  -27.7006   -8.4111  150.5995 C   0  0  0  0  0  0  0  0  0  0  0  0
  -29.5775  -11.4187  148.4335 C   0  0  0  0  0  0  0  0  0  0  0  0
  -31.0740  -11.7823  148.3327 C   0  0  0  0  0  0  0  0  0  0  0  0
  -28.3337  -13.3842  149.6426 C   0  0  0  0  0  0  0  0  0  0  0  0
  -31.5499  -12.6996  147.1983 C   0  0  0  0  0  0  0  0  0  0  0  0
  -30.5022  -13.1510  146.2214 C   0  0  0  0  0  0  0  0  0  0  0  0
  -29.2993  -12.5841  146.1272 C   0  0  0  0  0  0  0  0  0  0  0  0
  -29.1601  -14.4100  148.8467 C   0  0  0  0  0  0  0  0  0  0  0  0
  -28.7933  -11.6624  147.1557 C   0  0  0  0  0  0  0  0  0  0  0  0
  -27.6237  -11.0587  146.9329 C   0  0  0  0  0  0  0  0  0  0  0  0
  -30.6744  -14.3925  149.0924 C   0  0  0  0  0  0  0  0  0  0  0  0
  -31.5630  -13.2004  148.6495 C   0  0  0  0  0  0  0  0  0  0  0  0
  2  1  1  0
  5  4  1  0
  6  5  1  0
  7  2  1  0
  8  7  1  0
  9  5  1  0
  9  7  1  0
 10  9  1  0
 11  8  1  0
 12  1  1  0
 13 12  1  0
 14  1  1  0
 14  3  1  0
 15 13  1  0
 16 15  1  0
 17 16  2  0
 18 14  1  0
 19 12  1  0
 19 17  1  0
 20 19  2  0
 21 18  1  0
 22 13  1  0
 22 15  1  0
 22 21  1  0
M  END
$$$$

     RDKit          3D

 24 27  0  0  0  0  0  0  0  0999 V2000
  -15.7205   -6.2455  145.3443 O   0  0  0  0  0  0  0  0  0  0  0  0
  -15.7598   -7.6151  144.9618 C   0  0  0  0  0  0  0  0  0  0  0  0
  -14.6589   -8.3453  145.6348 N   0  0  0  0  0  0  0  0  0  0  0  0
  -15.6413   -7.7358  143.4009 C   0  0  0  0  0  0  0  0  0  0  0  0
  -15.9642   -6.0682  146.7392 C   0  0  0  0  0  0  0  0  0  0  0  0
  -14.6457   -9.8274  145.6528 C   0  0  0  0  0  0  0  0  0  0  0  0
  -15.8421  -10.5909  145.0784 C   0  0  0  0  0  0  0  0  0  0  0  0
  -16.9458   -8.1740  142.7600 C   0  0  0  0  0  0  0  0  0  0  0  0
  -16.9832   -8.7320  141.5479 C   0  0  0  0  0  0  0  0  0  0  0  0
  -14.3113  -10.3293  147.0429 C   0  0  0  0  0  0  0  0  0  0  0  0
  -15.7722   -8.9121  140.7217 C   0  0  0  0  0  0  0  0  0  0  0  0
  -15.7460  -10.3890  146.5743 C   0  0  0  0  0  0  0  0  0  0  0  0
  -14.8086   -7.9857  140.6310 C   0  0  0  0  0  0  0  0  0  0  0  0
  -14.9841   -6.5764  141.1572 C   0  0  0  0  0  0  0  0  0  0  0  0
  -15.1442   -6.4493  142.6935 C   0  0  0  0  0  0  0  0  0  0  0  0
  -14.8492   -5.1809  147.3537 C   0  0  0  0  0  0  0  0  0  0  0  0
  -17.4303   -5.5810  146.9400 C   0  0  0  0  0  0  0  0  0  0  0  0
  -17.7267   -4.5690  148.0359 C   0  0  0  0  0  0  0  0  0  0  0  0
  -17.7739   -4.1466  146.5661 C   0  0  0  0  0  0  0  0  0  0  0  0
  -13.4557   -5.6011  146.9107 C   0  0  0  0  0  0  0  0  0  0  0  0
  -12.6927   -4.7675  145.9234 C   0  0  0  0  0  0  0  0  0  0  0  0
  -13.3276   -4.0719  144.9734 C   0  0  0  0  0  0  0  0  0  0  0  0
  -11.1942   -4.6516  146.0283 C   0  0  0  0  0  0  0  0  0  0  0  0
  -12.9045   -6.6858  147.4668 C   0  0  0  0  0  0  0  0  0  0  0  0
  2  1  1  0
  3  2  1  0
  4  2  1  0
  5  1  1  0
  6  3  1  0
  7  6  1  0
  8  4  1  0
  9  8  2  0
 10  6  1  0
 11  9  1  0
 12  6  1  0
 12  7  1  0
 12 10  1  0
 13 11  2  0
 14 13  1  0
 15  4  1  0
 15 14  1  0
 16  5  1  0
 17  5  1  0
 18 17  1  0
 19 17  1  0
 19 18  1  0
 20 16  1  0
 21 20  1  0
 22 21  2  0
 23 21  1  0
 24 20  2  0
M  END
$$$$

     RDKit          3D

 11 15  0  0  0  0  0  0  0  0999 V2000
  -23.5496   -6.8781  146.5536 C   0  0  0  0  0  0  0  0  0  0  0  0
  -22.7332   -6.4022  147.7153 C   0  0  0  0  0  0  0  0  0  0  0  0
  -23.8265   -5.7641  145.5336 C   0  0  0  0  0  0  0  0  0  0  0  0
  -21.2186   -6.3413  147.4418 C   0  0  0  0  0  0  0  0  0  0  0  0
  -22.1144   -7.3593  146.7158 C   0  0  0  0  0  0  0  0  0  0  0  0
  -24.1947   -6.3803  144.1800 C   0  0  0  0  0  0  0  0  0  0  0  0
  -25.6287   -6.8036  144.0021 C   0  0  0  0  0  0  0  0  0  0  0  0
  -26.3222   -6.2031  142.8159 C   0  0  0  0  0  0  0  0  0  0  0  0
  -25.0860   -5.4986  143.3307 C   0  0  0  0  0  0  0  0  0  0  0  0
  -20.6802   -6.1356  148.8444 C   0  0  0  0  0  0  0  0  0  0  0  0
  -20.3701   -7.2631  148.1225 O   0  0  0  0  0  0  0  0  0  0  0  0
  2  1  1  0
  3  1  1  0
  4  2  1  0
  5  1  1  0
  5  2  1  0
  5  4  1  0
  6  3  1  0
  7  6  1  0
  8  7  1  0
  9  6  1  0
  9  7  1  0
  9  8  1  0
 10  4  1  0
 11  4  1  0
 11 10  1  0
M  END
$$$$

     RDKit          3D

 24 30  0  0  0  0  0  0  0  0999 V2000
  -24.0191  -13.4105  135.2909 N   0  0  0  0  0  0  0  0  0  0  0  0
  -25.2118  -12.4330  135.7321 C   0  0  0  0  0  0  0  0  0  0  0  0
  -26.5260  -13.0578  136.1700 N   0  0  0  0  0  0  0  0  0  0  0  0
  -23.6507  -10.3438  138.6458 Br  0  0  0  0  0  0  0  0  0  0  0  0
  -25.0967  -11.2761  136.8286 C   0  0  0  0  0  0  0  0  0  0  0  0
  -25.8754   -9.9086  136.7125 N   0  0  0  0  0  0  0  0  0  0  0  0
  -23.7532  -10.9320  136.8410 N   0  0  0  0  0  0  0  0  0  0  0  0
  -25.2725  -11.2008  134.7459 C   0  0  0  0  0  0  0  0  0  0  0  0
  -21.6125  -13.4219  133.9616 C   0  0  0  0  0  0  0  0  0  0  0  0
  -26.5999  -11.2228  134.0812 C   0  0  0  0  0  0  0  0  0  0  0  0
  -22.1249  -14.7437  136.3323 C   0  0  0  0  0  0  0  0  0  0  0  0
  -20.3781  -12.7194  133.1975 C   0  0  0  0  0  0  0  0  0  0  0  0
  -21.6198  -12.3639  136.1891 C   0  0  0  0  0  0  0  0  0  0  0  0
  -21.5339  -11.2190  135.1892 C   0  0  0  0  0  0  0  0  0  0  0  0
  -18.8609  -13.2607  133.2858 C   0  0  0  0  0  0  0  0  0  0  0  0
  -24.7533  -10.2916  135.9320 C   0  0  0  0  0  0  0  0  0  0  0  0
  -22.4101  -13.4861  135.4438 C   0  0  0  0  0  0  0  0  0  0  0  0
  -21.4040  -11.8419  133.7830 C   0  0  0  0  0  0  0  0  0  0  0  0
  -18.9218  -14.2825  132.0503 C   0  0  0  0  0  0  0  0  0  0  0  0
  -17.9091  -12.1143  132.7367 C   0  0  0  0  0  0  0  0  0  0  0  0
  -17.6012  -14.9956  131.7002 C   0  0  0  0  0  0  0  0  0  0  0  0
  -20.6702  -12.7228  131.7128 C   0  0  0  0  0  0  0  0  0  0  0  0
  -18.2970  -12.1478  131.2367 C   0  0  0  0  0  0  0  0  0  0  0  0
  -19.4072  -13.2163  131.0967 C   0  0  0  0  0  0  0  0  0  0  0  0
  2  1  1  0
  3  2  1  0
  5  2  1  0
  6  5  1  0
  7  4  1  0
  7  5  1  0
  8  2  1  0
 10  8  1  0
 12  9  1  0
 14 13  1  0
 15 12  1  0
 16  5  1  0
 16  6  1  0
 16  7  1  0
 16  8  1  0
 17  1  1  0
 17  9  1  0
 17 11  1  0
 17 13  1  0
 18  9  1  0
 18 12  1  0
 18 14  1  0
 19 15  1  0
 20 15  1  0
 21 19  1  0
 22 12  1  0
 23 20  1  0
 24 19  1  0
 24 22  1  0
 24 23  1  0
M  END
$$$$

     RDKit          3D

 22 27  0  0  0  0  0  0  0  0999 V2000
  -20.7783   -8.0524  140.9775 O   0  0  0  0  0  0  0  0  0  0  0  0
  -21.6029   -7.7929  140.0617 C   0  0  0  0  0  0  0  0  0  0  0  0
  -21.3109   -6.8630  139.0732 O   0  0  0  0  0  0  0  0  0  0  0  0
  -22.9533   -8.4478  139.9579 C   0  0  0  0  0  0  0  0  0  0  0  0
  -23.7643   -8.5291  141.2455 C   0  0  0  0  0  0  0  0  0  0  0  0
  -22.2512   -6.7480  136.0986 C   0  0  0  0  0  0  0  0  0  0  0  0
  -21.7015   -8.4234  135.5994 Si  0  0  0  0  0  4  0  0  0  0  0  0
  -22.6236   -6.6760  137.9602 Si  0  0  0  0  0  4  0  0  0  0  0  0
  -23.1834   -9.7983  140.6266 C   0  0  0  0  0  0  0  0  0  0  0  0
  -20.1946   -7.9172  135.0081 O   0  0  0  0  0  0  0  0  0  0  0  0
  -23.4573   -6.2873  135.2477 C   0  0  0  0  0  0  0  0  0  0  0  0
  -23.7370   -8.0273  138.7026 C   0  0  0  0  0  0  0  0  0  0  0  0
  -21.1474   -5.9158  135.8173 O   0  0  0  0  0  0  0  0  0  0  0  0
  -24.3319   -9.0964  137.7799 C   0  0  0  0  0  0  0  0  0  0  0  0
  -23.7616   -4.7925  135.3888 C   0  0  0  0  0  0  0  0  0  0  0  0
  -24.3755   -6.6856  138.6918 C   0  0  0  0  0  0  0  0  0  0  0  0
  -17.9066   -8.8006  136.9104 N   0  0  0  0  0  0  0  0  0  0  0  0
  -19.3934   -6.9156  136.9491 O   0  0  0  0  0  0  0  0  0  0  0  0
  -19.9619   -6.6909  135.6732 C   0  0  0  0  0  0  0  0  0  0  0  0
  -17.5831   -7.9489  138.0668 C   0  0  0  0  0  0  0  0  0  0  0  0
  -17.1027   -6.5764  137.6660 C   0  0  0  0  0  0  0  0  0  0  0  0
  -18.0586   -7.3388  136.7830 C   0  0  0  0  0  0  0  0  0  0  0  0
  2  1  2  0
  3  2  1  0
  4  2  1  0
  5  4  1  0
  7  6  1  0
  8  3  1  0
  8  6  1  0
  9  4  1  0
  9  5  1  0
 10  7  1  0
 11  6  1  0
 12  4  1  0
 12  8  1  0
 13  6  1  0
 14 12  1  0
 15 11  1  0
 16  8  1  0
 16 12  1  0
 19 10  1  0
 19 13  1  0
 19 18  1  0
 20 17  1  0
 21 20  1  0
 22 17  1  0
 22 18  1  0
 22 20  1  0
 22 21  1  0
M  END
$$$$

     RDKit          3D

 24 28  0  0  0  0  0  0  0  0999 V2000
  -26.4348    0.3436  144.1475 C   0  0  0  0  0  0  0  0  0  0  0  0
  -25.5199   -0.6282  144.8979 C   0  0  0  0  0  0  0  0  0  0  0  0
  -26.1092   -2.0292  144.7608 C   0  0  0  0  0  0  0  0  0  0  0  0
  -26.9703   -2.5220  145.9316 C   0  0  0  0  0  0  0  0  0  0  0  0
  -28.2365   -2.6265  144.9875 C   0  0  0  0  0  0  0  0  0  0  0  0
  -27.6108   -0.4597  143.5970 C   0  0  0  0  0  0  0  0  0  0  0  0
  -26.4204   -3.8309  146.6603 C   0  0  0  0  0  0  0  0  0  0  0  0
  -24.9278   -3.7506  147.0981 C   0  0  0  0  0  0  0  0  0  0  0  0
  -27.7992    0.4902  144.7863 C   0  0  0  0  0  0  0  0  0  0  0  0
  -24.1181   -4.8468  146.7032 O   0  0  0  0  0  0  0  0  0  0  0  0
  -27.3231   -1.9509  143.9160 C   0  0  0  0  0  0  0  0  0  0  0  0
  -24.5118   -3.1472  148.5275 C   0  0  0  0  0  0  0  0  0  0  0  0
  -24.3822   -7.2609  146.1941 C   0  0  0  0  0  0  0  0  0  0  0  0
  -28.4824    1.8365  144.5245 C   0  0  0  0  0  0  0  0  0  0  0  0
  -23.1076   -2.4885  148.3376 C   0  0  0  0  0  0  0  0  0  0  0  0
  -24.6358   -4.2107  149.6455 C   0  0  0  0  0  0  0  0  0  0  0  0
  -24.6271   -6.0906  147.1748 C   0  0  0  0  0  0  0  0  0  0  0  0
  -22.0431   -2.6407  149.4632 C   0  0  0  0  0  0  0  0  0  0  0  0
  -20.9637   -3.7509  149.4416 C   0  0  0  0  0  0  0  0  0  0  0  0
  -21.1915   -4.9259  148.4521 C   0  0  0  0  0  0  0  0  0  0  0  0
  -20.6335   -2.3769  148.8963 C   0  0  0  0  0  0  0  0  0  0  0  0
  -20.0080   -5.8138  148.4304 N   0  0  0  0  0  0  0  0  0  0  0  0
  -24.4940   -6.8038  144.7080 C   0  0  0  0  0  0  0  0  0  0  0  0
  -20.4197   -5.0705  147.2165 C   0  0  0  0  0  0  0  0  0  0  0  0
  2  1  1  0
  3  2  1  0
  4  3  1  0
  5  4  1  0
  6  1  1  0
  7  4  1  0
  8  7  1  0
  9  1  1  0
  9  6  1  0
 10  8  1  0
 11  3  1  0
 11  5  1  0
 11  6  1  0
 12  8  1  0
 14  9  1  0
 15 12  1  0
 16 12  1  0
 17 10  1  0
 17 13  1  0
 18 15  1  0
 19 18  1  0
 20 19  1  0
 21 18  1  0
 21 19  1  0
 22 20  1  0
 23 13  1  0
 24 20  1  0
 24 22  1  0
M  END
$$$$

     RDKit          3D

 23 27  0  0  0  0  0  0  0  0999 V2000
  -21.1243   -7.9113  136.2945 O   0  0  0  0  0  0  0  0  0  0  0  0
  -22.8951   -6.8093  135.6733 C   0  0  0  0  0  0  0  0  0  0  0  0
  -22.3100   -8.0840  135.7399 O   0  0  0  0  0  0  0  0  0  0  0  0
  -25.7079   -4.9425  136.1363 C   0  0  0  0  0  0  0  0  0  0  0  0
  -26.9702   -5.7401  136.4331 C   0  0  0  0  0  0  0  0  0  0  0  0
  -24.9481   -5.5412  134.9443 C   0  0  0  0  0  0  0  0  0  0  0  0
  -26.4665   -5.6213  134.9872 C   0  0  0  0  0  0  0  0  0  0  0  0
  -28.1632   -4.8636  136.9115 C   0  0  0  0  0  0  0  0  0  0  0  0
  -25.8088   -5.7894  137.4074 C   0  0  0  0  0  0  0  0  0  0  0  0
  -27.9532   -3.3385  137.0629 C   0  0  0  0  0  0  0  0  0  0  0  0
  -24.2666   -6.9176  135.0126 C   0  0  0  0  0  0  0  0  0  0  0  0
  -27.8397   -2.7465  138.4288 C   0  0  0  0  0  0  0  0  0  0  0  0
  -29.0688   -2.8152  137.7474 O   0  0  0  0  0  0  0  0  0  0  0  0
  -25.9180   -0.9296  138.1634 C   0  0  0  0  0  0  0  0  0  0  0  0
  -28.5183   -0.0741  136.5986 C   0  0  0  0  0  0  0  0  0  0  0  0
  -28.3624   -0.1785  138.1209 C   0  0  0  0  0  0  0  0  0  0  0  0
  -27.3721   -1.2688  138.6198 C   0  0  0  0  0  0  0  0  0  0  0  0
  -24.7400   -1.2538  139.1065 C   0  0  0  0  0  0  0  0  0  0  0  0
  -24.9943   -1.9993  140.4050 C   0  0  0  0  0  0  0  0  0  0  0  0
  -24.5379   -3.2478  140.5889 C   0  0  0  0  0  0  0  0  0  0  0  0
  -25.5647   -1.2563  141.5817 C   0  0  0  0  0  0  0  0  0  0  0  0
  -24.9564   -2.0599  137.8315 C   0  0  0  0  0  0  0  0  0  0  0  0
  -27.1326   -4.5812  134.0706 C   0  0  0  0  0  0  0  0  0  0  0  0
  3  1  1  0
  3  2  1  0
  5  4  1  0
  6  4  1  0
  7  4  1  0
  7  5  1  0
  7  6  1  0
  8  5  1  0
  9  4  1  0
  9  5  1  0
 10  8  1  0
 11  2  1  0
 11  6  1  0
 12 10  1  0
 13 10  1  0
 13 12  1  0
 16 15  1  0
 17 12  1  0
 17 14  1  0
 17 16  1  0
 18 14  1  0
 19 18  1  0
 20 19  2  0
 21 19  1  0
 22 14  1  0
 22 18  1  0
 23  7  1  0
M  END
$$$$

     RDKit          3D

 24 28  0  0  0  0  0  0  0  0999 V2000
  -21.2452   -3.1327  144.5630 C   0  0  0  0  0  0  0  0  0  0  0  0
  -20.5625   -2.0093  145.3739 C   0  0  0  0  0  0  0  0  0  0  0  0
  -22.6663   -3.3833  145.1100 C   0  0  0  0  0  0  0  0  0  0  0  0
  -23.2036   -4.7988  145.3721 C   0  0  0  0  0  0  0  0  0  0  0  0
  -19.1765   -1.4318  145.0410 C   0  0  0  0  0  0  0  0  0  0  0  0
  -22.2564   -5.9707  145.0298 C   0  0  0  0  0  0  0  0  0  0  0  0
  -18.4239   -1.7206  143.7011 C   0  0  0  0  0  0  0  0  0  0  0  0
  -17.1622   -3.8846  144.0909 N   0  0  0  0  0  0  0  0  0  0  0  0
  -22.1465   -6.2346  143.5350 C   0  0  0  0  0  0  0  0  0  0  0  0
  -22.8502   -7.2521  144.4275 C   0  0  0  0  0  0  0  0  0  0  0  0
  -19.3164   -2.4837  146.1292 C   0  0  0  0  0  0  0  0  0  0  0  0
  -23.7760   -4.9214  146.7758 C   0  0  0  0  0  0  0  0  0  0  0  0
  -19.0790   -0.9177  142.5554 C   0  0  0  0  0  0  0  0  0  0  0  0
  -19.1070    0.4534  142.8560 O   0  0  0  0  0  0  0  0  0  0  0  0
  -25.1682   -4.2881  146.9286 C   0  0  0  0  0  0  0  0  0  0  0  0
  -18.1544   -3.1891  143.2593 C   0  0  0  0  0  0  0  0  0  0  0  0
  -22.6661   -3.9230  146.5306 C   0  0  0  0  0  0  0  0  0  0  0  0
  -25.8243   -4.6472  148.2724 C   0  0  0  0  0  0  0  0  0  0  0  0
  -26.2027   -6.1310  148.4218 C   0  0  0  0  0  0  0  0  0  0  0  0
  -27.0726   -6.6052  147.2844 C   0  0  0  0  0  0  0  0  0  0  0  0
  -26.6943   -7.4628  146.3176 C   0  0  0  0  0  0  0  0  0  0  0  0
  -25.3850   -8.2203  146.2853 C   0  0  0  0  0  0  0  0  0  0  0  0
  -24.9822   -8.5756  144.8486 C   0  0  0  0  0  0  0  0  0  0  0  0
  -24.3530   -7.3848  144.0993 C   0  0  0  0  0  0  0  0  0  0  0  0
  2  1  1  0
  3  1  1  0
  4  3  1  0
  5  2  1  0
  6  4  1  0
  7  5  1  0
  9  6  1  0
 10  6  1  0
 10  9  1  0
 11  2  1  0
 11  5  1  0
 12  4  1  0
 13  7  1  0
 14 13  1  0
 15 12  1  0
 16  7  1  0
 16  8  1  0
 17  3  1  0
 17  4  1  0
 17 12  1  0
 18 15  1  0
 19 18  1  0
 20 19  1  0
 21 20  2  3
 22 21  1  0
 23 22  1  0
 24 10  1  0
 24 23  1  0
M  END
$$$$

     RDKit          3D

 25 32  0  0  0  0  0  0  0  0999 V2000
  -21.6183  -12.9326  149.6130 O   0  0  0  0  0  0  0  0  0  0  0  0
  -23.4188  -13.8519  148.3239 C   0  0  0  0  0  0  0  0  0  0  0  0
  -23.3403  -14.8489  147.6246 O   0  0  0  0  0  0  0  0  0  0  0  0
  -25.9115  -13.7058  148.6332 C   0  0  0  0  0  0  0  0  0  0  0  0
  -24.8494  -12.6076  150.1534 C   0  0  0  0  0  0  0  0  0  0  0  0
  -15.5235   -9.4705  137.6753 C   0  0  0  0  0  0  0  0  0  0  0  0
  -14.5268  -10.6201  137.7191 C   0  0  0  0  0  0  0  0  0  0  0  0
  -14.3820  -11.1524  139.1434 C   0  0  0  0  0  0  0  0  0  0  0  0
  -24.5655  -13.8454  149.3245 C   0  0  0  0  0  0  0  0  0  0  0  0
  -26.2226  -12.4770  149.4965 C   0  0  0  0  0  0  0  0  0  0  0  0
  -27.4902  -12.2513  147.3965 N   0  0  0  0  0  0  0  0  0  0  0  0
  -13.4182  -12.2501  139.1697 N   0  0  0  0  0  0  0  0  0  0  0  0
  -26.1670  -12.3614  147.9891 C   0  0  0  0  0  0  0  0  0  0  0  0
  -23.2853  -13.2260  145.8760 S   0  0  0  0  0  4  0  0  0  0  0  0
  -21.2486  -12.8904  147.1150 C   0  0  0  0  0  0  0  0  0  0  0  0
  -22.5518  -11.4071  147.9371 C   0  0  0  0  0  0  0  0  0  0  0  0
  -21.2392  -10.6613  148.1737 C   0  0  0  0  0  0  0  0  0  0  0  0
  -22.2438  -12.8657  148.3460 C   0  0  0  0  0  0  0  0  0  0  0  0
  -21.4770  -11.4006  146.8788 C   0  0  0  0  0  0  0  0  0  0  0  0
  -21.6273  -13.6727  145.8461 C   0  0  0  0  0  0  0  0  0  0  0  0
  -22.5399  -10.1315  148.7946 C   0  0  0  0  0  0  0  0  0  0  0  0
  -23.8120   -9.3305  148.3607 C   0  0  0  0  0  0  0  0  0  0  0  0
  -21.4135   -9.1984  148.2953 C   0  0  0  0  0  0  0  0  0  0  0  0
  -24.1584   -9.1944  146.8563 C   0  0  0  0  0  0  0  0  0  0  0  0
  -25.4990   -8.4813  146.6816 C   0  0  0  0  0  0  0  0  0  0  0  0
  3  2  2  0
  7  6  1  0
  8  7  1  0
  9  2  1  0
  9  4  1  0
  9  5  1  0
 10  4  1  0
 10  5  1  0
 12  8  1  0
 13  4  1  0
 13 10  1  0
 13 11  1  0
 14  5  1  0
 14  6  1  0
 14 10  1  0
 14 11  1  0
 17 16  1  0
 18  1  1  0
 18  2  1  0
 18 15  1  0
 18 16  1  0
 19 15  1  0
 19 16  1  0
 19 17  1  0
 20 15  1  0
 21 16  1  0
 21 17  1  0
 22 21  1  0
 23 17  1  0
 23 21  1  0
 24 22  1  0
 25 24  1  0
M  END
$$$$

     RDKit          3D

 25 26  0  0  0  0  0  0  0  0999 V2000
  -31.0784  -13.7376  134.2231 C   0  0  0  0  0  0  0  0  0  0  0  0
  -30.1881  -12.8295  133.3605 C   0  0  0  0  0  0  0  0  0  0  0  0
  -29.2837  -11.7499  133.9777 C   0  0  0  0  0  0  0  0  0  0  0  0
  -28.0446  -11.5292  133.0935 C   0  0  0  0  0  0  0  0  0  0  0  0
  -31.1617  -13.6417  135.7632 C   0  0  0  0  0  0  0  0  0  0  0  0
  -29.7602  -14.2657  133.6620 C   0  0  0  0  0  0  0  0  0  0  0  0
  -27.0278  -10.5416  133.7248 C   0  0  0  0  0  0  0  0  0  0  0  0
  -31.6193  -11.2908  135.8416 F   0  0  0  0  0  0  0  0  0  0  0  0
  -26.3904  -11.1282  135.0263 C   0  0  0  0  0  0  0  0  0  0  0  0
  -29.9371  -13.5020  136.3956 F   0  0  0  0  0  0  0  0  0  0  0  0
  -25.9124  -10.0592  132.7407 C   0  0  0  0  0  0  0  0  0  0  0  0
  -26.7158  -10.2848  136.2766 C   0  0  0  0  0  0  0  0  0  0  0  0
  -32.1107  -12.5307  136.2035 C   0  0  0  0  0  0  0  0  0  0  0  0
  -25.2525   -8.7931  133.0523 N   0  0  0  0  0  0  0  0  0  0  0  0
  -25.1074  -11.6341  137.7454 C   0  0  0  0  0  0  0  0  0  0  0  0
  -24.8656  -12.1614  139.1648 C   0  0  0  0  0  0  0  0  0  0  0  0
  -24.9412  -11.1148  132.2226 C   0  0  0  0  0  0  0  0  0  0  0  0
  -25.8892  -10.4177  131.2568 C   0  0  0  0  0  0  0  0  0  0  0  0
  -23.7616  -14.4507  138.7564 C   0  0  0  0  0  0  0  0  0  0  0  0
  -26.5225  -11.0573  137.5933 C   0  0  0  0  0  0  0  0  0  0  0  0
  -23.9590  -15.7501  136.5437 C   0  0  0  0  0  0  0  0  0  0  0  0
  -23.4797  -15.7800  135.0892 C   0  0  0  0  0  0  0  0  0  0  0  0
  -23.5781  -13.0072  139.2754 C   0  0  0  0  0  0  0  0  0  0  0  0
  -23.7968  -17.1381  137.1851 C   0  0  0  0  0  0  0  0  0  0  0  0
  -23.1902  -14.6657  137.3365 C   0  0  0  0  0  0  0  0  0  0  0  0
  2  1  1  0
  3  2  1  0
  4  3  1  0
  5  1  1  0
  6  1  1  0
  6  2  1  0
  7  4  1  0
  9  7  1  0
 10  5  1  0
 11  7  1  0
 12  9  1  0
 13  5  1  0
 13  8  1  0
 14 11  1  0
 16 15  1  0
 17 11  1  0
 18 11  1  0
 18 17  1  0
 20 12  1  0
 20 15  1  0
 22 21  1  0
 23 16  1  0
 23 19  1  0
 24 21  1  0
 25 19  1  0
 25 21  1  0
M  END
$$$$

     RDKit          3D

 25 29  0  0  0  0  0  0  0  0999 V2000
  -28.0250  -17.2647  143.9331 N   0  0  0  0  0  0  0  0  0  0  0  0
  -27.6031  -15.8781  144.2472 C   0  0  0  0  0  0  0  0  0  0  0  0
  -26.5828  -15.3768  143.2762 N   0  0  0  0  0  0  0  0  0  0  0  0
  -27.1688  -15.7448  145.7465 C   0  0  0  0  0  0  0  0  0  0  0  0
  -26.6277  -14.3297  146.1455 C   0  0  0  0  0  0  0  0  0  0  0  0
  -27.0277  -14.6410  142.1161 C   0  0  0  0  0  0  0  0  0  0  0  0
  -25.1529  -15.5415  143.4061 C   0  0  0  0  0  0  0  0  0  0  0  0
  -27.1797  -15.1921  140.8924 C   0  0  0  0  0  0  0  0  0  0  0  0
  -28.3606  -17.3718  142.5096 C   0  0  0  0  0  0  0  0  0  0  0  0
  -28.2844  -16.2954  146.7013 C   0  0  0  0  0  0  0  0  0  0  0  0
  -27.2599  -13.1282  145.4310 C   0  0  0  0  0  0  0  0  0  0  0  0
  -24.5766  -16.6525  143.8609 C   0  0  0  0  0  0  0  0  0  0  0  0
  -26.9417  -16.6479  140.5171 C   0  0  0  0  0  0  0  0  0  0  0  0
  -28.1704  -18.7061  141.7954 C   0  0  0  0  0  0  0  0  0  0  0  0
  -29.0809  -18.8687  140.5481 C   0  0  0  0  0  0  0  0  0  0  0  0
  -27.0824  -17.5885  141.7248 C   0  0  0  0  0  0  0  0  0  0  0  0
  -26.7125  -19.0400  141.5077 C   0  0  0  0  0  0  0  0  0  0  0  0
  -29.4896  -15.3978  146.9260 C   0  0  0  0  0  0  0  0  0  0  0  0
  -30.1560  -15.9030  148.1235 N   0  0  0  0  0  0  0  0  0  0  0  0
  -30.1523  -19.9689  140.7474 C   0  0  0  0  0  0  0  0  0  0  0  0
  -29.7451  -21.3506  140.2319 C   0  0  0  0  0  0  0  0  0  0  0  0
  -29.1242  -16.5698  148.9296 C   0  0  0  0  0  0  0  0  0  0  0  0
  -27.8351  -16.6287  148.1135 C   0  0  0  0  0  0  0  0  0  0  0  0
  -31.6198  -19.5994  140.5036 C   0  0  0  0  0  0  0  0  0  0  0  0
  -29.8929  -21.1145  141.7288 C   0  0  0  0  0  0  0  0  0  0  0  0
  2  1  1  0
  3  2  1  0
  4  2  1  0
  5  4  1  0
  6  3  1  0
  7  3  1  0
  8  6  2  3
  9  1  1  0
 10  4  1  0
 11  5  1  0
 12  7  2  0
 13  8  1  0
 14  9  1  0
 15 14  1  0
 16  9  1  0
 16 13  1  0
 16 14  1  0
 17 14  1  0
 17 16  1  0
 18 10  1  0
 19 18  1  0
 20 15  1  0
 21 20  1  0
 22 19  1  0
 23 10  1  0
 23 22  1  0
 24 20  1  0
 25 20  1  0
 25 21  1  0
M  END
$$$$

     RDKit          3D

 25 33  0  0  0  0  0  0  0  0999 V2000
  -24.2182   -5.1381  145.6220 O   0  0  0  0  0  0  0  0  0  0  0  0
  -22.9548   -5.6445  146.0190 C   0  0  0  0  0  0  0  0  0  0  0  0
  -22.0738   -4.4038  146.0590 C   0  0  0  0  0  0  0  0  0  0  0  0
  -21.6801   -4.0518  144.6228 C   0  0  0  0  0  0  0  0  0  0  0  0
  -20.2958   -3.4186  144.5093 C   0  0  0  0  0  0  0  0  0  0  0  0
  -21.7070   -5.4950  145.1066 C   0  0  0  0  0  0  0  0  0  0  0  0
  -19.3269   -4.1387  145.1903 F   0  0  0  0  0  0  0  0  0  0  0  0
  -24.1949   -5.8306  144.4106 C   0  0  0  0  0  0  0  0  0  0  0  0
  -22.8344   -6.4107  144.6991 C   0  0  0  0  0  0  0  0  0  0  0  0
  -20.3322   -2.1287  145.0002 F   0  0  0  0  0  0  0  0  0  0  0  0
  -25.3479   -6.8667  144.3250 C   0  0  0  0  0  0  0  0  0  0  0  0
  -25.1518   -8.1296  145.0511 N   0  0  0  0  0  0  0  0  0  0  0  0
  -26.2429   -6.8980  143.1262 C   0  0  0  0  0  0  0  0  0  0  0  0
  -26.1141   -5.8734  141.9776 C   0  0  0  0  0  0  0  0  0  0  0  0
  -27.3721   -5.8382  141.0854 C   0  0  0  0  0  0  0  0  0  0  0  0
  -28.3215   -6.9160  141.3856 N   0  0  0  0  0  0  0  0  0  0  0  0
  -27.6186   -8.1934  141.5510 C   0  0  0  0  0  0  0  0  0  0  0  0
  -27.0292   -6.1616  144.6309 S   0  0  0  0  0  0  0  0  0  0  0  0
  -26.8052   -8.2147  142.7807 N   0  0  0  0  0  0  0  0  0  0  0  0
  -20.2774   -4.6826  145.5836 S   0  0  0  0  0  4  0  0  0  0  0  0
  -22.4294   -2.6775  148.0130 C   0  0  0  0  0  0  0  0  0  0  0  0
  -22.3007   -1.2959  147.5656 C   0  0  0  0  0  0  0  0  0  0  0  0
  -23.4139   -0.9572  146.6932 C   0  0  0  0  0  0  0  0  0  0  0  0
  -23.9758    0.2996  146.9367 O   0  0  0  0  0  0  0  0  0  0  0  0
  -23.6517   -1.8840  147.8111 N   0  0  0  0  0  0  0  0  0  0  0  0
  2  1  1  0
  3  2  1  0
  4  3  1  0
  5  4  1  0
  6  2  1  0
  6  3  1  0
  6  4  1  0
  7  5  1  0
  8  1  1  0
  9  2  1  0
  9  6  1  0
  9  8  1  0
 10  5  1  0
 11  8  1  0
 12 11  1  0
 13 11  1  0
 14 13  1  0
 15 14  1  0
 16 15  1  0
 17 16  1  0
 18 11  1  0
 18 13  1  0
 19 13  1  0
 19 17  1  0
 20  3  1  0
 20  5  1  0
 21 20  1  0
 22 21  1  0
 23 22  1  0
 24 23  1  0
 25 21  1  0
 25 22  1  0
 25 23  1  0
M  END
$$$$

     RDKit          3D

 25 30  0  0  0  0  0  0  0  0999 V2000
  -15.3664   -0.4233  142.2260 O   0  0  0  0  0  0  0  0  0  0  0  0
  -16.1532    0.7466  142.1683 C   0  0  0  0  0  0  0  0  0  0  0  0
  -16.9424    1.0243  143.2950 O   0  0  0  0  0  0  0  0  0  0  0  0
  -15.4696    1.9424  141.5991 C   0  0  0  0  0  0  0  0  0  0  0  0
  -15.7770    3.1486  142.2445 O   0  0  0  0  0  0  0  0  0  0  0  0
  -14.0265    1.7429  141.1990 C   0  0  0  0  0  0  0  0  0  0  0  0
  -13.7389    1.6788  139.8908 C   0  0  0  0  0  0  0  0  0  0  0  0
  -14.7991    1.8977  138.8623 C   0  0  0  0  0  0  0  0  0  0  0  0
  -13.0127    1.6603  142.3387 C   0  0  0  0  0  0  0  0  0  0  0  0
  -16.2380    1.5130  139.3065 C   0  0  0  0  0  0  0  0  0  0  0  0
  -16.4233    0.1318  139.8089 C   0  0  0  0  0  0  0  0  0  0  0  0
  -16.6584    1.3151  140.7990 C   0  0  0  0  0  0  0  0  0  0  0  0
  -11.5357    1.9215  142.0701 C   0  0  0  0  0  0  0  0  0  0  0  0
  -10.6275    0.9396  142.7955 C   0  0  0  0  0  0  0  0  0  0  0  0
  -10.4633    0.9613  144.3145 C   0  0  0  0  0  0  0  0  0  0  0  0
  -11.0931   -0.2356  145.0109 C   0  0  0  0  0  0  0  0  0  0  0  0
  -11.1778   -1.5027  144.5400 C   0  0  0  0  0  0  0  0  0  0  0  0
  -10.6674   -2.0187  143.2007 C   0  0  0  0  0  0  0  0  0  0  0  0
  -12.0326    0.5029  142.4358 C   0  0  0  0  0  0  0  0  0  0  0  0
  -11.7514   -1.9803  142.0735 C   0  0  0  0  0  0  0  0  0  0  0  0
  -11.4913   -3.0492  141.0329 C   0  0  0  0  0  0  0  0  0  0  0  0
  -10.3730   -3.1432  140.3037 C   0  0  0  0  0  0  0  0  0  0  0  0
  -11.9911   -0.6053  141.3739 C   0  0  0  0  0  0  0  0  0  0  0  0
  -10.2357   -4.1774  139.4347 F   0  0  0  0  0  0  0  0  0  0  0  0
   -9.3027   -2.2156  140.4563 N   0  0  0  0  0  0  0  0  0  0  0  0
  2  1  1  0
  3  2  1  0
  4  2  1  0
  5  4  1  0
  6  4  1  0
  7  6  2  0
  8  7  1  0
  9  6  1  0
 10  8  1  0
 11 10  1  0
 12  2  1  0
 12  4  1  0
 12 10  1  0
 12 11  1  0
 13  9  1  0
 14 13  1  0
 15 14  1  0
 16 15  1  0
 17 16  2  3
 18 17  1  0
 19  9  1  0
 19 13  1  0
 19 14  1  0
 20 18  1  0
 21 20  1  0
 22 21  2  3
 23 19  1  0
 23 20  1  0
 24 22  1  0
 25 22  1  0
M  END
$$$$

     RDKit          3D

 11 11  0  0  0  0  0  0  0  0999 V2000
  -30.7026   -9.2543  137.1895 N   0  0  0  0  0  0  0  0  0  0  0  0
  -30.3719   -7.8188  137.0652 C   0  0  0  0  0  0  0  0  0  0  0  0
  -31.1179   -7.2278  135.9526 N   0  0  0  0  0  0  0  0  0  0  0  0
  -29.8636  -10.1032  136.3300 C   0  0  0  0  0  0  0  0  0  0  0  0
  -30.7313   -7.1172  138.2985 N   0  0  0  0  0  0  0  0  0  0  0  0
  -30.4643  -11.4420  136.2732 N   0  0  0  0  0  2  0  0  0  0  0  0
  -30.2211  -12.1158  134.9941 C   0  0  0  0  0  0  0  0  0  0  0  0
  -28.5181  -10.2008  136.8917 N   0  0  0  0  0  2  0  0  0  0  0  0
  -31.2640  -11.6667  133.9564 C   0  0  0  0  0  0  0  0  0  0  0  0
  -31.0284  -12.2111  132.6012 N   0  0  0  0  0  0  0  0  0  0  0  0
  -30.8074  -10.7796  132.8878 C   0  0  0  0  0  0  0  0  0  0  0  0
  2  1  1  0
  3  2  1  0
  4  1  1  0
  5  2  1  0
  6  4  1  0
  7  6  1  0
  8  4  1  0
  9  7  1  0
 10  9  1  0
 11  9  1  0
 11 10  1  0
M  RAD  2   6   2   8   2
M  END
$$$$

     RDKit          3D

 11 13  0  0  0  0  0  0  0  0999 V2000
  -21.6916    2.4901  137.9600 O   0  0  0  0  0  0  0  0  0  0  0  0
  -21.4861    3.2419  136.7924 C   0  0  0  0  0  0  0  0  0  0  0  0
  -20.7315    2.5025  135.8687 O   0  0  0  0  0  0  0  0  0  0  0  0
  -22.8371    3.6364  136.1758 C   0  0  0  0  0  0  0  0  0  0  0  0
  -23.7714    2.4396  135.9096 C   0  0  0  0  0  0  0  0  0  0  0  0
  -23.2720    1.5771  134.7222 C   0  0  0  0  0  0  0  0  0  0  0  0
  -22.8003    0.2105  135.1490 C   0  0  0  0  0  0  0  0  0  0  0  0
  -25.0990    2.9206  135.4335 C   0  0  0  0  0  0  0  0  0  0  0  0
  -24.4126    1.5890  133.7407 C   0  0  0  0  0  0  0  0  0  0  0  0
  -25.4275    2.4409  134.2984 N   0  0  0  0  0  0  0  0  0  0  0  0
  -24.1674    0.3046  134.5054 C   0  0  0  0  0  0  0  0  0  0  0  0
  2  1  1  0
  3  2  1  0
  4  2  1  0
  5  4  1  0
  6  5  1  0
  7  6  1  0
  8  5  1  0
  9  6  1  0
 10  8  2  0
 10  9  1  0
 11  6  1  0
 11  7  1  0
 11  9  1  0
M  END
$$$$

     RDKit          3D

 25 25  0  0  0  0  0  0  0  0999 V2000
  -25.6638  -10.7104  129.8683 F   0  0  0  0  0  0  0  0  0  0  0  0
  -29.2602   -9.9186  132.9102 C   0  0  0  0  0  0  0  0  0  0  0  0
  -31.4904  -15.0830  127.6400 F   0  0  0  0  0  0  0  0  0  0  0  0
  -31.9455   -8.6318  130.8110 F   0  0  0  0  0  0  0  0  0  0  0  0
  -25.0443  -10.9369  134.3543 C   0  0  0  0  0  0  0  0  0  0  0  0
  -32.3858  -10.9337  129.7564 C   0  0  0  0  0  0  0  0  0  0  0  0
  -32.1342  -12.2107  127.9312 C   0  0  0  0  0  0  0  0  0  0  0  0
  -27.5982   -8.0134  129.4946 C   0  0  0  0  0  0  0  0  0  0  0  0
  -24.3589  -10.1524  137.5732 C   0  0  0  0  0  0  0  0  0  0  0  0
  -23.6359  -10.3634  136.2024 C   0  0  0  0  0  0  0  0  0  0  0  0
  -29.8919  -10.0874  128.9280 C   0  0  0  0  0  0  0  0  0  0  0  0
  -30.3769  -12.4819  134.3057 I   0  0  0  0  0  0  0  0  0  0  0  0
  -25.6332   -9.7183  137.2198 N   0  0  0  0  0  0  0  0  0  0  0  0
  -27.3642  -10.2822  135.2341 C   0  0  0  0  0  0  0  0  0  0  0  0
  -30.4617   -9.1499  131.0641 C   0  0  0  0  0  0  0  0  0  0  0  0
  -31.2965  -13.6000  128.1374 O   0  0  0  0  0  0  0  0  0  0  0  0
  -28.4999   -8.9577  135.5894 C   0  0  0  0  0  0  0  0  0  0  0  0
  -26.4998  -10.6401  131.0634 C   0  0  0  0  0  0  0  0  0  0  0  0
  -27.6256  -10.9963  133.9643 C   0  0  0  0  0  0  0  0  0  0  0  0
  -31.9055   -8.6634  128.0214 C   0  0  0  0  0  0  0  0  0  0  0  0
  -29.8817   -9.0561  134.6451 C   0  0  0  0  0  0  0  0  0  0  0  0
  -26.8593   -9.0954  133.4652 C   0  0  0  0  0  0  0  0  0  0  0  0
  -29.1666   -7.9417  128.5128 C   0  0  0  0  0  0  0  0  0  0  0  0
  -26.7974   -9.1491  131.3085 C   0  0  0  0  0  0  0  0  0  0  0  0
  -30.6119   -8.1469  128.9473 C   0  0  0  0  0  0  0  0  0  0  0  0
  7  6  1  0
 10  5  1  0
 10  9  1  0
 13  9  1  0
 15  2  1  0
 15  4  1  0
 15  6  1  0
 16  3  1  0
 16  7  1  0
 17 14  1  0
 18  1  1  0
 19  2  1  0
 19  5  1  0
 19 12  1  0
 19 14  1  0
 21  2  1  0
 21 17  1  0
 22 14  1  0
 23  8  1  0
 24  8  1  0
 24 18  1  0
 24 22  1  0
 25 11  1  0
 25 20  1  0
 25 23  1  0
M  END
$$$$

     RDKit          3D

 19 21  0  0  0  0  0  0  0  0999 V2000
  -22.4976   -6.3758  136.0931 Si  0  0  0  0  0  4  0  0  0  0  0  0
  -18.3197   -7.1392  133.9650 O   0  0  0  0  0  0  0  0  0  0  0  0
  -23.8157   -4.3507  137.5690 O   0  0  0  0  0  0  0  0  0  0  0  0
  -20.1418   -7.1018  135.3996 O   0  0  0  0  0  0  0  0  0  0  0  0
  -22.6519   -4.6011  135.6326 C   0  0  0  0  0  0  0  0  0  0  0  0
  -22.5552   -4.1758  137.0340 N   0  0  0  0  0  0  0  0  0  0  0  0
  -18.3437   -8.2631  133.0962 C   0  0  0  0  0  0  0  0  0  0  0  0
  -21.7645   -5.3459  137.4342 C   0  0  0  0  0  0  0  0  0  0  0  0
  -19.0795   -9.4905  133.7029 C   0  0  0  0  0  0  0  0  0  0  0  0
  -24.4292   -6.1156  137.1957 Al  0  0  0  0  0  3  0  0  0  0  0  0
  -19.5954   -6.5670  134.2101 C   0  0  0  0  0  0  0  0  0  0  0  0
  -20.0260   -8.1390  131.2047 C   0  0  0  0  0  0  0  0  0  0  0  0
  -18.2427   -5.7799  130.4206 C   0  0  0  0  0  0  0  0  0  0  0  0
  -21.4269   -7.4451  135.1325 N   0  0  0  0  0  0  0  0  0  0  0  0
  -18.7811   -7.8971  131.6714 C   0  0  0  0  0  0  0  0  0  0  0  0
  -17.7818   -7.2075  130.7558 C   0  0  0  0  0  0  0  0  0  0  0  0
  -18.6557  -10.8364  133.1285 C   0  0  0  0  0  0  0  0  0  0  0  0
  -17.5448   -8.0262  129.4814 C   0  0  0  0  0  0  0  0  0  0  0  0
  -18.2368  -10.4522  134.5394 C   0  0  0  0  0  0  0  0  0  0  0  0
  5  1  1  0
  6  3  1  0
  6  5  1  0
  7  2  1  0
  8  1  1  0
  8  6  1  0
  9  7  1  0
 10  1  1  0
 10  3  1  0
 11  2  1  0
 11  4  1  0
 14  1  1  0
 14  4  1  0
 15  7  1  0
 15 12  2  0
 16 13  1  0
 16 15  1  0
 17  9  1  0
 18 16  1  0
 19  9  1  0
 19 17  1  0
M  END
$$$$

     RDKit          3D

 24 24  0  0  0  0  0  0  0  0999 V2000
  -34.1035   -6.3188  141.2852 N   0  0  0  0  0  2  0  0  0  0  0  0
  -33.9274   -6.6788  142.6874 C   0  0  0  0  0  0  0  0  0  0  0  0
  -33.5804   -5.7170  144.9825 N   0  0  0  0  0  0  0  0  0  0  0  0
  -35.1015   -7.4313  143.1256 N   0  0  0  0  0  2  0  0  0  0  0  0
  -32.6758   -4.3833  143.0429 C   0  0  0  0  0  0  0  0  0  0  0  0
  -32.3715   -3.2502  144.0649 C   0  0  0  0  0  0  0  0  0  0  0  0
  -31.3822   -4.9974  142.4056 C   0  0  0  0  0  0  0  0  0  0  0  0
  -33.7627   -5.3982  143.5486 C   0  0  0  0  0  0  0  0  0  0  0  0
  -30.1856   -5.3171  143.3235 C   0  0  0  0  0  0  0  0  0  0  0  0
  -30.2407   -6.7038  143.9934 C   0  0  0  0  0  0  0  0  0  0  0  0
  -28.9916   -6.9692  144.8743 C   0  0  0  0  0  0  0  0  0  0  0  0
  -28.0082   -6.0761  147.0995 C   0  0  0  0  0  0  0  0  0  0  0  0
  -33.5774   -2.3415  144.3427 C   0  0  0  0  0  0  0  0  0  0  0  0
  -33.2223   -1.3531  145.3683 N   0  0  0  0  0  0  0  0  0  0  0  0
  -28.6286   -4.9068  147.8485 C   0  0  0  0  0  0  0  0  0  0  0  0
  -29.9439   -4.7393  147.1272 C   0  0  0  0  0  0  0  0  0  0  0  0
  -30.3651   -6.0168  146.7001 O   0  0  0  0  0  0  0  0  0  0  0  0
  -34.2000    0.5514  146.6564 C   0  0  0  0  0  0  0  0  0  0  0  0
  -28.7528   -5.1601  149.3884 C   0  0  0  0  0  0  0  0  0  0  0  0
  -32.8589    1.0610  147.1801 C   0  0  0  0  0  0  0  0  0  0  0  0
  -29.4296   -8.1826  147.0500 C   0  0  0  0  0  0  0  0  0  0  0  0
  -29.2078   -6.7917  146.4242 C   0  0  0  0  0  0  0  0  0  0  0  0
  -34.0872   -0.1624  145.2998 C   0  0  0  0  0  0  0  0  0  0  0  0
  -30.0615   -5.8024  149.8782 C   0  0  0  0  0  0  0  0  0  0  0  0
  2  1  1  0
  4  2  1  0
  6  5  1  0
  7  5  1  0
  8  2  1  0
  8  3  1  0
  8  5  1  0
  9  7  1  0
 10  9  1  0
 11 10  1  0
 13  6  1  0
 14 13  1  0
 15 12  1  0
 16 15  1  0
 17 16  1  0
 19 15  1  0
 20 18  1  0
 22 11  1  0
 22 12  1  0
 22 17  1  0
 22 21  1  0
 23 14  1  0
 23 18  1  0
 24 19  1  0
M  RAD  2   1   2   4   2
M  END
$$$$

     RDKit          3D

 25 32  0  0  0  0  0  0  0  0999 V2000
  -25.0734   -8.9246  136.6910 N   0  0  0  0  0  0  0  0  0  0  0  0
  -26.3770   -8.3092  136.4375 C   0  0  0  0  0  0  0  0  0  0  0  0
  -25.2378  -10.1152  137.5394 C   0  0  0  0  0  0  0  0  0  0  0  0
  -25.5437  -11.4501  136.8167 C   0  0  0  0  0  0  0  0  0  0  0  0
  -26.5549   -7.0079  137.2061 C   0  0  0  0  0  0  0  0  0  0  0  0
  -28.0000   -6.7788  137.6868 C   0  0  0  0  0  0  0  0  0  0  0  0
  -24.2272  -10.1644  138.6730 C   0  0  0  0  0  0  0  0  0  0  0  0
  -24.8439  -10.4930  140.0161 C   0  0  0  0  0  0  0  0  0  0  0  0
  -25.7207   -9.8603  138.9608 C   0  0  0  0  0  0  0  0  0  0  0  0
  -28.1187   -5.5415  138.6012 C   0  0  0  0  0  0  0  0  0  0  0  0
  -26.3002   -6.9777  135.7041 C   0  0  0  0  0  0  0  0  0  0  0  0
  -27.6830   -4.2692  137.8271 C   0  0  0  0  0  0  0  0  0  0  0  0
  -28.4823   -2.9988  138.0838 C   0  0  0  0  0  0  0  0  0  0  0  0
  -27.3419   -5.7967  139.9287 C   0  0  0  0  0  0  0  0  0  0  0  0
  -28.6907   -3.7771  136.7976 C   0  0  0  0  0  0  0  0  0  0  0  0
  -26.0488   -5.0363  140.1228 C   0  0  0  0  0  0  0  0  0  0  0  0
  -25.0351   -5.9003  140.8911 C   0  0  0  0  0  0  0  0  0  0  0  0
  -26.1977   -3.6906  140.7868 C   0  0  0  0  0  0  0  0  0  0  0  0
  -25.8137  -12.6537  137.7337 C   0  0  0  0  0  0  0  0  0  0  0  0
  -26.7838  -13.6958  137.1037 C   0  0  0  0  0  0  0  0  0  0  0  0
  -25.8960  -14.9697  137.1691 C   0  0  0  0  0  0  0  0  0  0  0  0
  -27.1841  -12.7504  138.2747 C   0  0  0  0  0  0  0  0  0  0  0  0
  -27.3210   -4.6899  140.9718 C   0  0  0  0  0  0  0  0  0  0  0  0
  -25.6622  -15.6290  135.8113 C   0  0  0  0  0  0  0  0  0  0  0  0
  -27.2828  -15.0581  137.6707 C   0  0  0  0  0  0  0  0  0  0  0  0
  2  1  1  0
  3  1  1  0
  4  3  1  0
  5  2  1  0
  6  5  1  0
  7  3  1  0
  8  7  1  0
  9  3  1  0
  9  7  1  0
  9  8  1  0
 10  6  1  0
 11  2  1  0
 11  5  1  0
 12 10  1  0
 13 12  1  0
 14 10  1  0
 15 12  1  0
 15 13  1  0
 16 14  1  0
 17 16  1  0
 18 16  1  0
 19  4  1  0
 20 19  1  0
 21 20  1  0
 22 19  1  0
 22 20  1  0
 23 14  1  0
 23 16  1  0
 23 18  1  0
 24 21  1  0
 25 20  1  0
 25 21  1  0
M  END
$$$$

     RDKit          3D

 24 27  0  0  0  0  0  0  0  0999 V2000
  -16.9283   -0.3240  135.2860 C   0  0  0  0  0  0  0  0  0  0  0  0
  -16.6253   -1.7984  134.9536 C   0  0  0  0  0  0  0  0  0  0  0  0
  -17.5190   -0.0679  136.6924 C   0  0  0  0  0  0  0  0  0  0  0  0
  -15.6428   -2.4900  135.9168 C   0  0  0  0  0  0  0  0  0  0  0  0
  -14.1970   -1.9466  135.8639 C   0  0  0  0  0  0  0  0  0  0  0  0
  -18.7665   -0.9120  137.0794 C   0  0  0  0  0  0  0  0  0  0  0  0
  -13.8364   -0.9355  136.9710 C   0  0  0  0  0  0  0  0  0  0  0  0
  -13.9282   -1.4679  138.4194 C   0  0  0  0  0  0  0  0  0  0  0  0
  -13.8643   -4.0346  138.6776 C   0  0  0  0  0  0  0  0  0  0  0  0
  -19.1587   -0.6146  138.5572 C   0  0  0  0  0  0  0  0  0  0  0  0
  -19.9598   -0.7216  136.1072 C   0  0  0  0  0  0  0  0  0  0  0  0
  -20.6654   -0.4352  138.7667 C   0  0  0  0  0  0  0  0  0  0  0  0
  -14.8616   -4.1190  139.7934 C   0  0  0  0  0  0  0  0  0  0  0  0
  -20.7263    0.5863  136.3866 C   0  0  0  0  0  0  0  0  0  0  0  0
  -21.9052    0.7423  135.4020 C   0  0  0  0  0  0  0  0  0  0  0  0
  -14.6594   -5.1729  140.5714 C   0  0  0  0  0  0  0  0  0  0  0  0
  -21.2319    0.6632  137.8543 C   0  0  0  0  0  0  0  0  0  0  0  0
  -13.4926   -5.9899  140.1342 C   0  0  0  0  0  0  0  0  0  0  0  0
  -13.5874   -6.6155  138.7479 C   0  0  0  0  0  0  0  0  0  0  0  0
  -13.0654   -2.7143  138.7147 C   0  0  0  0  0  0  0  0  0  0  0  0
  -12.6241   -7.6908  138.5674 N   0  0  0  0  0  0  0  0  0  0  0  0
  -12.9419   -5.2436  138.9223 C   0  0  0  0  0  0  0  0  0  0  0  0
  -22.1248    2.1450  134.8528 C   0  0  0  0  0  0  0  0  0  0  0  0
  -21.5345    1.0635  133.9616 C   0  0  0  0  0  0  0  0  0  0  0  0
  2  1  1  0
  3  1  1  0
  4  2  1  0
  5  4  1  0
  6  3  1  0
  7  5  1  0
  8  7  1  0
 10  6  1  0
 11  6  1  0
 12 10  1  0
 13  9  1  0
 14 11  1  0
 15 14  1  0
 16 13  2  0
 17 12  1  0
 17 14  1  0
 18 16  1  0
 19 18  1  0
 20  8  1  0
 20  9  1  0
 21 19  1  0
 22  9  1  0
 22 18  1  0
 22 19  1  0
 23 15  1  0
 24 15  1  0
 24 23  1  0
M  END
$$$$

     RDKit          3D

 24 26  0  0  0  0  0  0  0  0999 V2000
  -27.8354  -10.4680  143.2541 C   0  0  0  0  0  0  0  0  0  0  0  0
  -29.0291  -10.8044  142.3333 C   0  0  0  0  0  0  0  0  0  0  0  0
  -30.2828  -10.0022  142.7095 C   0  0  0  0  0  0  0  0  0  0  0  0
  -26.4432  -10.9227  142.7329 C   0  0  0  0  0  0  0  0  0  0  0  0
  -25.7546   -9.8622  141.8317 C   0  0  0  0  0  0  0  0  0  0  0  0
  -26.5056   -9.5496  140.5731 C   0  0  0  0  0  0  0  0  0  0  0  0
  -30.1576   -8.5526  142.2998 C   0  0  0  0  0  0  0  0  0  0  0  0
  -26.4195  -10.2874  139.6059 O   0  0  0  0  0  0  0  0  0  0  0  0
  -26.4482  -12.3435  142.1176 C   0  0  0  0  0  0  0  0  0  0  0  0
  -24.9828  -12.8504  141.9493 C   0  0  0  0  0  0  0  0  0  0  0  0
  -31.0416   -7.5945  142.6322 C   0  0  0  0  0  0  0  0  0  0  0  0
  -32.2783   -7.7973  143.4810 C   0  0  0  0  0  0  0  0  0  0  0  0
  -24.6060  -13.6455  140.6943 C   0  0  0  0  0  0  0  0  0  0  0  0
  -25.6488  -13.8804  139.5816 C   0  0  0  0  0  0  0  0  0  0  0  0
  -26.0346  -15.3261  139.2801 C   0  0  0  0  0  0  0  0  0  0  0  0
  -24.8608  -14.3828  141.9984 C   0  0  0  0  0  0  0  0  0  0  0  0
  -32.1068   -7.2667  144.9404 C   0  0  0  0  0  0  0  0  0  0  0  0
  -31.6074   -5.7911  145.0591 C   0  0  0  0  0  0  0  0  0  0  0  0
  -24.4490  -13.5408  143.1929 C   0  0  0  0  0  0  0  0  0  0  0  0
  -30.1127   -5.5392  144.7991 C   0  0  0  0  0  0  0  0  0  0  0  0
  -31.3098   -8.2778  145.8085 C   0  0  0  0  0  0  0  0  0  0  0  0
  -31.2374   -7.8966  147.2856 C   0  0  0  0  0  0  0  0  0  0  0  0
  -33.4864   -7.1712  142.7724 C   0  0  0  0  0  0  0  0  0  0  0  0
  -25.0453  -14.6102  138.3848 C   0  0  0  0  0  0  0  0  0  0  0  0
  2  1  1  0
  3  2  1  0
  4  1  1  0
  5  4  1  0
  6  5  1  0
  7  3  1  0
  8  6  2  0
  9  4  1  0
 10  9  1  0
 11  7  2  3
 12 11  1  0
 13 10  1  0
 14 13  1  0
 15 14  1  0
 16 10  1  0
 16 13  1  0
 17 12  1  0
 18 17  1  0
 19 10  1  0
 19 16  1  0
 20 18  1  0
 21 17  1  0
 22 21  1  0
 23 12  1  0
 24 14  1  0
 24 15  1  0
M  END
$$$$

     RDKit          3D

 24 27  0  0  0  0  0  0  0  0999 V2000
  -23.7744  -20.8136  135.5341 Sb  0  0  0  0  0  3  0  0  0  0  0  0
  -22.2335  -24.3779  133.8327 O   0  0  0  0  0  0  0  0  0  0  0  0
  -21.0096  -21.3345  136.5831 O   0  0  0  0  0  0  0  0  0  0  0  0
  -20.9896  -24.9925  134.2078 C   0  0  0  0  0  0  0  0  0  0  0  0
  -21.6910  -20.2578  135.9921 C   0  0  0  0  0  0  0  0  0  0  0  0
  -21.6809  -19.1651  136.8743 O   0  0  0  0  0  0  0  0  0  0  0  0
  -19.6615  -24.1478  134.1337 C   0  0  0  0  0  0  0  0  0  0  0  0
  -20.5623  -23.4664  131.7966 C   0  0  0  0  0  0  0  0  0  0  0  0
  -18.4457  -24.6554  134.9985 C   0  0  0  0  0  0  0  0  0  0  0  0
  -21.6264  -22.5013  132.3748 C   0  0  0  0  0  0  0  0  0  0  0  0
  -17.3861  -23.5232  135.1639 C   0  0  0  0  0  0  0  0  0  0  0  0
  -23.9405  -17.7627  134.9443 C   0  0  0  0  0  0  0  0  0  0  0  0
  -16.2874  -23.4542  134.0763 C   0  0  0  0  0  0  0  0  0  0  0  0
  -17.7991  -26.0479  134.6431 C   0  0  0  0  0  0  0  0  0  0  0  0
  -22.2147  -22.9601  133.7485 C   0  0  0  0  0  0  0  0  0  0  0  0
  -19.3248  -23.7455  132.6850 C   0  0  0  0  0  0  0  0  0  0  0  0
  -16.4478  -26.2788  135.3707 C   0  0  0  0  0  0  0  0  0  0  0  0
  -16.4933  -26.0913  133.8695 C   0  0  0  0  0  0  0  0  0  0  0  0
  -21.0960  -21.0590  132.4323 C   0  0  0  0  0  0  0  0  0  0  0  0
  -24.1505  -19.0932  134.2378 C   0  0  0  0  0  0  0  0  0  0  0  0
  -15.9592  -24.7663  133.3103 C   0  0  0  0  0  0  0  0  0  0  0  0
  -23.6364  -22.3970  133.9921 C   0  0  0  0  0  0  0  0  0  0  0  0
  -18.6206  -27.3524  134.7494 C   0  0  0  0  0  0  0  0  0  0  0  0
  -25.3395  -18.2202  134.6258 C   0  0  0  0  0  0  0  0  0  0  0  0
  4  2  1  0
  5  1  1  0
  5  3  1  0
  6  5  1  0
  7  4  1  0
  9  7  1  0
 10  8  1  0
 11  9  1  0
 13 11  1  0
 14  9  1  0
 15  2  1  0
 15 10  1  0
 16  7  1  0
 16  8  1  0
 17 14  1  0
 18 14  1  0
 18 17  1  0
 19 10  1  0
 20  1  1  0
 20 12  1  0
 21 13  1  0
 21 18  1  0
 22  1  1  0
 22 15  1  0
 23 14  1  0
 24 12  1  0
 24 20  1  0
M  END
$$$$

     RDKit          3D

 25 30  0  0  0  0  0  0  0  0999 V2000
  -18.5237  -15.0327  139.2860 Si  0  0  0  0  0  4  0  0  0  0  0  0
  -16.8825  -15.1231  141.5628 C   0  0  0  0  0  0  0  0  0  0  0  0
  -19.2819  -16.1210  140.7443 C   0  0  0  0  0  0  0  0  0  0  0  0
  -19.7450  -17.6794  140.3189 C   0  0  0  0  0  0  0  0  0  0  0  0
  -18.8911  -15.0564  143.1008 C   0  0  0  0  0  0  0  0  0  0  0  0
  -17.0479  -14.4460  140.1453 C   0  0  0  0  0  0  0  0  0  0  0  0
  -15.9821  -15.4982  140.2803 C   0  0  0  0  0  0  0  0  0  0  0  0
  -18.2205  -15.9238  141.9469 C   0  0  0  0  0  0  0  0  0  0  0  0
  -19.8684  -20.1350  143.2613 C   0  0  0  0  0  0  0  0  0  0  0  0
  -20.4968  -14.7254  144.9656 C   0  0  0  0  0  0  0  0  0  0  0  0
  -20.2162  -17.5142  138.8745 C   0  0  0  0  0  0  0  0  0  0  0  0
  -20.8237  -18.7095  141.0020 C   0  0  0  0  0  0  0  0  0  0  0  0
  -20.8314  -19.0804  142.5327 C   0  0  0  0  0  0  0  0  0  0  0  0
  -19.9498  -19.8243  144.8677 C   0  0  0  0  0  0  0  0  0  0  0  0
  -18.6920  -19.2821  145.7751 C   0  0  0  0  0  0  0  0  0  0  0  0
  -21.7351  -14.9928  143.0515 C   0  0  0  0  0  0  0  0  0  0  0  0
  -18.6872  -17.9325  146.4790 C   0  0  0  0  0  0  0  0  0  0  0  0
  -19.1171  -19.1653  147.2107 N   0  0  0  0  0  0  0  0  0  0  0  0
  -20.3085  -15.3262  143.6272 C   0  0  0  0  0  0  0  0  0  0  0  0
  -23.4737  -17.0099  146.0934 C   0  0  0  0  0  0  0  0  0  0  0  0
  -22.6133  -16.4878  144.8746 C   0  0  0  0  0  0  0  0  0  0  0  0
  -21.9230  -15.1502  145.4179 C   0  0  0  0  0  0  0  0  0  0  0  0
  -23.7401  -16.1797  143.8286 C   0  0  0  0  0  0  0  0  0  0  0  0
  -21.5469  -17.0356  138.4985 S   0  0  0  0  0  0  0  0  0  0  0  0
  -22.7633  -15.0490  144.1856 C   0  0  0  0  0  0  0  0  0  0  0  0
  3  1  1  0
  4  3  1  0
  6  1  1  0
  6  2  1  0
  7  2  1  0
  7  6  1  0
  8  2  1  0
  8  3  1  0
  8  5  1  0
 11  4  1  0
 12  4  1  0
 13  9  1  0
 13 12  1  0
 14  9  1  0
 15 14  1  0
 17 15  1  0
 18 15  1  0
 18 17  1  0
 19  5  1  0
 19 10  1  0
 19 16  1  0
 21 20  1  0
 22 10  1  0
 22 21  1  0
 23 21  1  0
 24 11  2  0
 25 16  1  0
 25 21  1  0
 25 22  1  0
 25 23  1  0
M  END
$$$$

     RDKit          3D

 24 23  0  0  0  0  0  0  0  0999 V2000
  -20.7358   -1.3232  139.4237 O   0  0  0  0  0  0  0  0  0  0  0  0
  -19.9671   -2.0840  141.7184 C   0  0  0  0  0  0  0  0  0  0  0  0
  -21.2810   -3.0293  141.7376 C   0  0  0  0  0  0  0  0  0  0  0  0
  -20.0080   -0.8716  142.7485 C   0  0  0  0  0  0  0  0  0  0  0  0
  -22.0771   -0.6490  144.4944 C   0  0  0  0  0  0  0  0  0  0  0  0
  -25.9173   -0.8995  142.3034 N   0  0  0  0  0  0  0  0  0  0  0  0
  -20.6159   -1.2051  144.1818 C   0  0  0  0  0  0  0  0  0  0  0  0
  -20.5009   -4.3198  141.7275 C   0  0  0  0  0  0  0  0  0  0  0  0
  -22.1619    0.2607  145.8534 C   0  0  0  0  0  0  0  0  0  0  0  0
  -20.1753   -2.7248  144.7863 C   0  0  0  0  0  0  0  0  0  0  0  0
  -17.4596   -0.7739  139.6008 O   0  0  0  0  0  0  0  0  0  0  0  0
  -19.6396   -1.8076  140.2091 C   0  0  0  0  0  0  0  0  0  0  0  0
  -18.4470   -1.4863  139.9168 C   0  0  0  0  0  0  0  0  0  0  0  0
  -26.4756   -2.1839  141.7676 C   0  0  0  0  0  0  0  0  0  0  0  0
  -25.6951   -3.3670  142.4938 C   0  0  0  0  0  0  0  0  0  0  0  0
  -26.5279    1.1560  143.2817 C   0  0  0  0  0  0  0  0  0  0  0  0
  -24.3965   -4.0954  141.2786 P   0  0  0  0  0  0  0  0  0  0  0  0
  -22.2280   -4.0762  139.6499 O   0  0  0  0  0  0  0  0  0  0  0  0
  -27.1984    1.0703  144.5802 C   0  0  0  0  0  0  0  0  0  0  0  0
  -22.6511   -3.2200  140.7117 C   0  0  0  0  0  0  0  0  0  0  0  0
  -27.0289   -0.0401  145.3027 C   0  0  0  0  0  0  0  0  0  0  0  0
  -27.0444    0.0399  142.3636 C   0  0  0  0  0  0  0  0  0  0  0  0
  -21.9777   -5.5212  139.7614 C   0  0  0  0  0  0  0  0  0  0  0  0
  -22.6411   -0.5875  146.8934 C   0  0  0  0  0  0  0  0  0  0  0  0
  3  2  1  0
  4  2  1  0
  7  4  1  0
  7  5  1  0
  8  3  1  0
  9  5  1  0
 10  7  1  0
 12  1  1  0
 12  2  1  0
 13 11  2  0
 13 12  2  0
 14  6  1  0
 15 14  1  0
 17 15  1  0
 19 16  1  0
 20  3  1  0
 20 17  1  0
 20 18  1  0
 21 19  2  0
 22  6  1  0
 22 16  1  0
 23 18  1  0
 24  9  1  0
M  END
$$$$

     RDKit          3D

 24 26  0  0  0  0  0  0  0  0999 V2000
  -23.1482   -2.4333  142.8710 C   0  0  0  0  0  0  0  0  0  0  0  0
  -25.4161   -1.3015  143.4220 C   0  0  0  0  0  0  0  0  0  0  0  0
  -23.9833   -1.6278  143.9013 C   0  0  0  0  0  0  0  0  0  0  0  0
  -22.1318   -3.4008  143.5425 C   0  0  0  0  0  0  0  0  0  0  0  0
  -26.4382   -2.3952  143.7967 C   0  0  0  0  0  0  0  0  0  0  0  0
  -21.6396   -4.6623  142.7836 C   0  0  0  0  0  0  0  0  0  0  0  0
  -21.5504   -4.5126  141.2687 C   0  0  0  0  0  0  0  0  0  0  0  0
  -21.8394   -7.0255  141.7398 C   0  0  0  0  0  0  0  0  0  0  0  0
  -24.0211   -5.7239  141.7987 C   0  0  0  0  0  0  0  0  0  0  0  0
  -24.5616   -5.6253  143.2523 C   0  0  0  0  0  0  0  0  0  0  0  0
  -22.4470   -5.6132  141.8432 C   0  0  0  0  0  0  0  0  0  0  0  0
  -24.9670   -4.8514  140.8366 C   0  0  0  0  0  0  0  0  0  0  0  0
  -26.1065   -4.1753  138.6357 C   0  0  0  0  0  0  0  0  0  0  0  0
  -24.6827   -4.3418  139.3568 C   0  0  0  0  0  0  0  0  0  0  0  0
  -24.0771   -2.8952  139.3727 C   0  0  0  0  0  0  0  0  0  0  0  0
  -26.4982   -5.2171  137.5591 C   0  0  0  0  0  0  0  0  0  0  0  0
  -27.8989   -2.0454  143.4378 C   0  0  0  0  0  0  0  0  0  0  0  0
  -28.0888   -1.6676  141.9621 C   0  0  0  0  0  0  0  0  0  0  0  0
  -24.2132   -7.2179  141.3940 C   0  0  0  0  0  0  0  0  0  0  0  0
  -24.2632   -6.4021  137.6799 C   0  0  0  0  0  0  0  0  0  0  0  0
  -23.6874   -5.2846  138.5862 C   0  0  0  0  0  0  0  0  0  0  0  0
  -26.3153   -4.6681  136.1340 C   0  0  0  0  0  0  0  0  0  0  0  0
  -25.7839   -6.5618  137.7499 C   0  0  0  0  0  0  0  0  0  0  0  0
  -23.0022   -7.9909  141.8476 C   0  0  0  0  0  0  0  0  0  0  0  0
  3  1  1  0
  3  2  1  0
  4  1  1  0
  5  2  1  0
  6  4  1  0
  7  6  1  0
 10  9  1  0
 11  6  1  0
 11  7  1  0
 11  8  1  0
 11  9  1  0
 12  9  1  0
 14 12  1  0
 14 13  1  0
 15 14  1  0
 16 13  1  0
 17  5  1  0
 18 17  1  0
 19  9  1  0
 21 14  1  0
 21 20  1  0
 22 16  1  0
 23 16  1  0
 23 20  1  0
 24  8  1  0
 24 19  1  0
M  END
$$$$

     RDKit          3D

  9  9  0  0  0  0  0  0  0  0999 V2000
  -28.9651  -22.7436  140.4798 O   0  0  0  0  0  0  0  0  0  0  0  0
  -30.0189  -23.1593  139.6450 C   0  0  0  0  0  0  0  0  0  0  0  0
  -29.7814  -24.4573  139.1363 O   0  0  0  0  0  0  0  0  0  0  0  0
  -31.3754  -23.0864  140.3852 C   0  0  0  0  0  0  0  0  0  0  0  0
  -31.2323  -26.6965  140.2312 Cl  0  0  0  0  0  0  0  0  0  0  0  0
  -29.4512  -25.5668  140.4494 P   0  0  0  0  0  0  0  0  0  0  0  0
  -33.3933  -23.5036  138.5291 C   0  0  0  0  0  0  0  0  0  0  0  0
  -32.5680  -22.9880  139.4324 C   0  0  0  0  0  0  0  0  0  0  0  0
  -32.0773  -21.8388  140.3191 C   0  0  0  0  0  0  0  0  0  0  0  0
  2  1  1  0
  3  2  1  0
  4  2  1  0
  6  3  1  0
  6  5  1  0
  8  4  1  0
  8  7  2  0
  9  4  1  0
  9  8  1  0
M  END
$$$$

     RDKit          3D

 25 32  0  0  0  0  0  0  0  0999 V2000
  -22.8152  -21.8307  149.0512 C   0  0  0  0  0  0  0  0  0  0  0  0
  -23.5588  -20.4853  149.3514 C   0  0  0  0  0  0  0  0  0  0  0  0
  -22.9496  -19.3628  148.5305 N   0  0  0  0  0  0  0  0  0  0  0  0
  -25.1517  -20.6306  149.3272 C   0  0  0  0  0  0  0  0  0  0  0  0
  -25.8729  -22.0478  149.3415 C   0  0  0  0  0  0  0  0  0  0  0  0
  -25.7117  -21.3018  148.0351 C   0  0  0  0  0  0  0  0  0  0  0  0
  -22.0896  -22.0525  147.6970 C   0  0  0  0  0  0  0  0  0  0  0  0
  -23.4737  -22.6887  147.8950 C   0  0  0  0  0  0  0  0  0  0  0  0
  -24.7147  -22.0733  147.1397 C   0  0  0  0  0  0  0  0  0  0  0  0
  -26.1403  -19.6653  150.1254 C   0  0  0  0  0  0  0  0  0  0  0  0
  -27.0088  -20.4174  150.9160 F   0  0  0  0  0  0  0  0  0  0  0  0
  -23.4150  -18.0246  148.9747 C   0  0  0  0  0  0  0  0  0  0  0  0
  -25.5976  -18.5664  151.1075 C   0  0  0  0  0  0  0  0  0  0  0  0
  -22.8365  -16.7988  148.2588 C   0  0  0  0  0  0  0  0  0  0  0  0
  -21.3161  -16.6531  148.1391 C   0  0  0  0  0  0  0  0  0  0  0  0
  -23.1358  -19.5617  146.7774 S   0  0  0  0  0  0  0  0  0  0  0  0
  -21.9280  -20.9188  146.6758 C   0  0  0  0  0  0  0  0  0  0  0  0
  -20.8210  -16.3697  146.7027 C   0  0  0  0  0  0  0  0  0  0  0  0
  -19.3064  -16.5733  146.4098 C   0  0  0  0  0  0  0  0  0  0  0  0
  -21.3616  -15.0315  146.2345 C   0  0  0  0  0  0  0  0  0  0  0  0
  -20.4827  -14.0434  145.4597 C   0  0  0  0  0  0  0  0  0  0  0  0
  -18.8050  -17.9775  146.6117 C   0  0  0  0  0  0  0  0  0  0  0  0
  -20.9231  -15.2043  147.7064 C   0  0  0  0  0  0  0  0  0  0  0  0
  -17.8210  -18.1949  147.7574 C   0  0  0  0  0  0  0  0  0  0  0  0
  -18.3560  -16.7704  147.5526 C   0  0  0  0  0  0  0  0  0  0  0  0
  2  1  1  0
  3  2  1  0
  4  2  1  0
  5  4  1  0
  6  4  1  0
  6  5  1  0
  7  1  1  0
  8  1  1  0
  8  7  1  0
  9  6  1  0
  9  8  1  0
 10  4  1  0
 11 10  1  0
 12  3  1  0
 13 10  1  0
 14 12  1  0
 15 14  1  0
 16  3  1  0
 17  7  1  0
 17 16  1  0
 18 15  1  0
 19 18  1  0
 20 18  1  0
 21 20  1  0
 22 19  1  0
 23 15  1  0
 23 18  1  0
 23 20  1  0
 24 22  1  0
 25 19  1  0
 25 22  1  0
 25 24  1  0
M  END
$$$$

     RDKit          3D

 23 26  0  0  0  0  0  0  0  0999 V2000
  -17.0770   -7.0685  146.4474 O   0  0  0  0  0  0  0  0  0  0  0  0
  -18.0479   -6.5708  145.5762 C   0  0  0  0  0  0  0  0  0  0  0  0
  -19.3807   -7.1366  143.6049 C   0  0  0  0  0  0  0  0  0  0  0  0
  -18.9862   -7.4215  142.2964 O   0  0  0  0  0  1  0  0  0  0  0  0
  -21.9373   -7.1635  143.3917 C   0  0  0  0  0  0  0  0  0  0  0  0
  -20.6803   -7.9257  143.9359 C   0  0  0  0  0  0  0  0  0  0  0  0
  -24.2505   -6.6280  143.9254 O   0  0  0  0  0  0  0  0  0  0  0  0
  -20.7443  -11.0533  141.7462 C   0  0  0  0  0  0  0  0  0  0  0  0
  -23.0131   -6.9914  144.4927 C   0  0  0  0  0  0  0  0  0  0  0  0
  -19.9316  -10.3431  140.6245 C   0  0  0  0  0  0  0  0  0  0  0  0
  -18.4214  -10.6851  140.4994 C   0  0  0  0  0  0  0  0  0  0  0  0
  -21.0162  -10.8672  137.6591 C   0  0  0  0  0  0  0  0  0  0  0  0
  -21.4510  -10.2932  144.0664 C   0  0  0  0  0  0  0  0  0  0  0  0
  -21.4184  -10.0111  142.6156 C   0  0  0  0  0  0  0  0  0  0  0  0
  -20.4603   -9.3431  143.5208 N   0  0  0  0  0  0  0  0  0  0  0  0
  -19.4368  -11.3206  139.5832 C   0  0  0  0  0  0  0  0  0  0  0  0
  -21.2879   -9.6129  136.8274 C   0  0  0  0  0  0  0  0  0  0  0  0
  -18.9074   -9.4761  137.6055 C   0  0  0  0  0  0  0  0  0  0  0  0
  -19.9687   -7.5620  137.6815 C   0  0  0  0  0  0  0  0  0  0  0  0
  -18.2873   -7.5373  144.5157 N   0  0  0  0  0  2  0  0  0  0  0  0
  -19.5400  -10.8310  138.0996 C   0  0  0  0  0  0  0  0  0  0  0  0
  -18.8292   -8.1764  138.4679 C   0  0  0  0  0  0  0  0  0  0  0  0
  -19.9968   -8.7935  136.7730 C   0  0  0  0  0  0  0  0  0  0  0  0
  2  1  1  0
  4  3  1  0
  6  3  1  0
  6  5  1  0
  9  5  1  0
  9  7  1  0
 10  8  1  0
 11 10  1  0
 14  8  1  0
 14 13  1  0
 15  6  1  0
 15 13  1  0
 15 14  1  0
 16 10  1  0
 16 11  1  0
 17 12  1  0
 20  2  1  0
 20  3  1  0
 21 12  1  0
 21 16  1  0
 21 18  1  0
 22 18  1  0
 22 19  1  0
 23 17  1  0
 23 18  1  0
 23 19  1  0
M  RAD  2   4   2  20   2
M  END
$$$$

     RDKit          3D

 25 30  0  0  0  0  0  0  0  0999 V2000
  -24.5648   -4.0182  131.7797 C   0  0  0  0  0  0  0  0  0  0  0  0
  -24.5129   -5.4924  131.4526 C   0  0  0  0  0  0  0  0  0  0  0  0
  -23.2470   -5.6474  130.5440 C   0  0  0  0  0  0  0  0  0  0  0  0
  -25.2919   -4.6053  130.5267 C   0  0  0  0  0  0  0  0  0  0  0  0
  -23.4565   -6.6193  131.6173 C   0  0  0  0  0  0  0  0  0  0  0  0
  -24.5732   -4.4672  129.2522 N   0  0  0  0  0  0  0  0  0  0  0  0
  -25.0151   -5.4004  128.2775 C   0  0  0  0  0  0  0  0  0  0  0  0
  -24.5905   -5.0356  126.8444 C   0  0  0  0  0  0  0  0  0  0  0  0
  -23.8049   -5.7531  129.1243 C   0  0  0  0  0  0  0  0  0  0  0  0
  -25.4114   -3.9203  126.1409 C   0  0  0  0  0  0  0  0  0  0  0  0
  -25.9082   -2.7296  126.9626 C   0  0  0  0  0  0  0  0  0  0  0  0
  -24.7965   -3.6439  124.7555 C   0  0  0  0  0  0  0  0  0  0  0  0
  -24.8475   -2.3213  124.2918 O   0  0  0  0  0  0  0  0  0  0  0  0
  -26.5696   -1.6449  126.5046 C   0  0  0  0  0  0  0  0  0  0  0  0
  -26.8121   -0.4646  127.4216 C   0  0  0  0  0  0  0  0  0  0  0  0
  -28.1884    0.1623  127.1161 C   0  0  0  0  0  0  0  0  0  0  0  0
  -25.6554    0.5209  127.2322 C   0  0  0  0  0  0  0  0  0  0  0  0
  -26.1795   -4.2953  124.8582 C   0  0  0  0  0  0  0  0  0  0  0  0
  -28.9215    1.0018  129.4691 C   0  0  0  0  0  0  0  0  0  0  0  0
  -30.0875    1.8410  129.9360 C   0  0  0  0  0  0  0  0  0  0  0  0
  -29.8890    3.0346  130.4951 C   0  0  0  0  0  0  0  0  0  0  0  0
  -28.5393    3.4611  130.8970 C   0  0  0  0  0  0  0  0  0  0  0  0
  -27.5201    2.6088  130.8516 C   0  0  0  0  0  0  0  0  0  0  0  0
  -28.5505    1.3803  128.0047 C   0  0  0  0  0  0  0  0  0  0  0  0
  -27.7336    1.1700  130.4476 C   0  0  0  0  0  0  0  0  0  0  0  0
  2  1  1  0
  3  2  1  0
  4  1  1  0
  4  2  1  0
  5  2  1  0
  5  3  1  0
  6  4  1  0
  7  6  1  0
  8  7  1  0
  9  3  1  0
  9  6  1  0
  9  7  1  0
 10  8  1  0
 11 10  1  0
 12 10  1  0
 13 12  1  0
 14 11  2  3
 15 14  1  0
 16 15  1  0
 17 15  1  0
 18 10  1  0
 18 12  1  0
 20 19  1  0
 21 20  2  0
 22 21  1  0
 23 22  2  0
 24 16  1  0
 24 19  1  0
 25 19  1  0
 25 23  1  0
M  END
$$$$

     RDKit          3D

 25 32  0  0  0  0  0  0  0  0999 V2000
  -24.0777    1.2265  135.3170 C   0  0  0  0  0  0  0  0  0  0  0  0
  -25.0605    0.3602  135.0647 C   0  0  0  0  0  0  0  0  0  0  0  0
  -24.9391    3.1776  136.1612 C   0  0  0  0  0  0  0  0  0  0  0  0
  -26.3980    0.7874  134.4133 C   0  0  0  0  0  0  0  0  0  0  0  0
  -21.9169    4.2314  134.1149 C   0  0  0  0  0  0  0  0  0  0  0  0
  -27.1678    1.2858  135.7408 C   0  0  0  0  0  0  0  0  0  0  0  0
  -23.0678    3.1667  133.8780 C   0  0  0  0  0  0  0  0  0  0  0  0
  -26.2425    2.2733  136.7484 C   0  0  0  0  0  0  0  0  0  0  0  0
  -20.8488    3.2356  133.9625 N   0  0  0  0  0  0  0  0  0  0  0  0
  -27.6719    1.7599  134.4068 C   0  0  0  0  0  0  0  0  0  0  0  0
  -21.8331    2.2001  133.5709 C   0  0  0  0  0  0  0  0  0  0  0  0
  -26.9542   -0.4952  133.7435 C   0  0  0  0  0  0  0  0  0  0  0  0
  -24.2209    2.6214  134.9384 C   0  0  0  0  0  0  0  0  0  0  0  0
  -27.9536    3.3668  134.2560 C   0  0  0  0  0  0  0  0  0  0  0  0
  -29.1473    3.6845  133.2907 C   0  0  0  0  0  0  0  0  0  0  0  0
  -27.0959    4.7084  134.7016 C   0  0  0  0  0  0  0  0  0  0  0  0
  -28.9654    5.0819  132.4548 C   0  0  0  0  0  0  0  0  0  0  0  0
  -27.5151    4.8777  132.0814 C   0  0  0  0  0  0  0  0  0  0  0  0
  -27.3482    6.1855  135.5222 C   0  0  0  0  0  0  0  0  0  0  0  0
  -29.9353    4.8445  133.6512 C   0  0  0  0  0  0  0  0  0  0  0  0
  -26.6197    5.1390  133.3407 C   0  0  0  0  0  0  0  0  0  0  0  0
  -26.6353    7.4767  134.9312 C   0  0  0  0  0  0  0  0  0  0  0  0
  -27.4141    8.0826  133.7621 C   0  0  0  0  0  0  0  0  0  0  0  0
  -27.6800    7.3201  132.5317 O   0  0  0  0  0  0  0  0  0  0  0  0
  -27.8744    5.9708  133.0043 C   0  0  0  0  0  0  0  0  0  0  0  0
  2  1  2  0
  4  2  1  0
  6  4  1  0
  7  5  1  0
  8  3  1  0
  8  6  1  0
  9  5  1  0
 10  4  1  0
 10  6  1  0
 11  7  1  0
 11  9  1  0
 12  4  1  0
 13  1  1  0
 13  3  1  0
 13  7  1  0
 14 10  1  0
 15 14  1  0
 16 14  1  0
 17 15  1  0
 18 17  1  0
 19 16  1  0
 20 15  1  0
 20 17  1  0
 21 16  1  0
 21 18  1  0
 22 19  1  0
 23 22  1  0
 24 23  1  0
 25 17  1  0
 25 18  1  0
 25 21  1  0
 25 24  1  0
M  END
$$$$

     RDKit          3D

 25 31  0  0  0  0  0  0  0  0999 V2000
  -20.0186   -7.8699  143.9207 C   0  0  0  0  0  0  0  0  0  0  0  0
  -20.2680   -6.3756  144.1212 C   0  0  0  0  0  0  0  0  0  0  0  0
  -18.6600   -8.2861  143.3364 C   0  0  0  0  0  0  0  0  0  0  0  0
  -18.3147   -7.7306  141.8716 C   0  0  0  0  0  0  0  0  0  0  0  0
  -18.6282   -8.5993  140.6205 C   0  0  0  0  0  0  0  0  0  0  0  0
  -21.5492   -5.9089  144.8498 C   0  0  0  0  0  0  0  0  0  0  0  0
  -18.3495   -9.9072  140.2410 C   0  0  0  0  0  0  0  0  0  0  0  0
  -17.8203  -11.2292  140.8987 C   0  0  0  0  0  0  0  0  0  0  0  0
  -17.9548   -7.4984  144.4381 C   0  0  0  0  0  0  0  0  0  0  0  0
  -15.7250  -12.1500  142.1663 C   0  0  0  0  0  0  0  0  0  0  0  0
  -14.7646  -11.5619  141.1183 C   0  0  0  0  0  0  0  0  0  0  0  0
  -22.7838   -6.8346  144.6689 C   0  0  0  0  0  0  0  0  0  0  0  0
  -13.5578  -12.3600  140.7942 C   0  0  0  0  0  0  0  0  0  0  0  0
  -16.9294  -10.0905  143.0603 C   0  0  0  0  0  0  0  0  0  0  0  0
  -17.0510  -11.3499  142.2506 C   0  0  0  0  0  0  0  0  0  0  0  0
  -14.7030  -12.3840  139.9743 O   0  0  0  0  0  0  0  0  0  0  0  0
  -19.2910   -7.0926  145.0324 C   0  0  0  0  0  0  0  0  0  0  0  0
  -24.0369   -6.0396  144.2590 C   0  0  0  0  0  0  0  0  0  0  0  0
  -18.1756  -12.1489  142.9413 C   0  0  0  0  0  0  0  0  0  0  0  0
  -18.9867  -11.1635  143.8159 C   0  0  0  0  0  0  0  0  0  0  0  0
  -23.0630   -7.6226  145.9593 C   0  0  0  0  0  0  0  0  0  0  0  0
  -20.4990  -11.4119  141.9616 O   0  0  0  0  0  0  0  0  0  0  0  0
  -18.3728   -9.7930  143.4076 C   0  0  0  0  0  0  0  0  0  0  0  0
  -19.1964  -12.4446  141.4013 P   0  0  0  0  0  0  0  0  0  0  0  0
  -20.4436  -11.4206  143.3700 C   0  0  0  0  0  0  0  0  0  0  0  0
  2  1  1  0
  3  1  1  0
  4  3  1  0
  5  4  1  0
  6  2  1  0
  7  5  2  3
  8  7  1  0
  9  3  1  0
 11 10  1  0
 12  6  1  0
 13 11  1  0
 15  8  1  0
 15 10  1  0
 15 14  1  0
 16 11  1  0
 16 13  1  0
 17  1  1  0
 17  2  1  0
 17  9  1  0
 18 12  1  0
 19 15  1  0
 20 19  1  0
 21 12  1  0
 23  3  1  0
 23 14  1  0
 23 20  1  0
 24  8  1  0
 24 19  1  0
 24 22  1  0
 25 20  1  0
 25 22  1  0
M  END
$$$$

     RDKit          3D

 24 31  0  0  0  0  0  0  0  0999 V2000
  -23.0078  -12.8542  144.8158 C   0  0  0  0  0  0  0  0  0  0  0  0
  -22.5832  -13.6271  147.3104 C   0  0  0  0  0  0  0  0  0  0  0  0
  -22.0828  -12.9250  148.6793 C   0  0  0  0  0  0  0  0  0  0  0  0
  -23.8764  -14.6346  147.3663 C   0  0  0  0  0  0  0  0  0  0  0  0
  -20.6240  -13.3156  149.2062 C   0  0  0  0  0  0  0  0  0  0  0  0
  -24.3989  -16.1516  147.5302 C   0  0  0  0  0  0  0  0  0  0  0  0
  -24.7751  -16.6788  146.1439 C   0  0  0  0  0  0  0  0  0  0  0  0
  -20.5076  -13.5828  150.7825 C   0  0  0  0  0  0  0  0  0  0  0  0
  -24.3841  -15.7163  145.0575 C   0  0  0  0  0  0  0  0  0  0  0  0
  -21.1901  -14.8023  151.6278 C   0  0  0  0  0  0  0  0  0  0  0  0
  -23.5601  -15.7905  146.3441 C   0  0  0  0  0  0  0  0  0  0  0  0
  -22.1895  -15.8376  151.0302 C   0  0  0  0  0  0  0  0  0  0  0  0
  -22.1470  -15.4514  149.6564 C   0  0  0  0  0  0  0  0  0  0  0  0
  -21.8242  -16.4732  148.6031 C   0  0  0  0  0  0  0  0  0  0  0  0
  -22.5392  -17.6987  148.9803 C   0  0  0  0  0  0  0  0  0  0  0  0
  -19.6091  -12.2042  148.8240 C   0  0  0  0  0  0  0  0  0  0  0  0
  -23.4488  -15.2217  150.4465 C   0  0  0  0  0  0  0  0  0  0  0  0
  -23.9921  -17.3903  148.4864 C   0  0  0  0  0  0  0  0  0  0  0  0
  -22.8781  -12.4241  146.2950 C   0  0  0  0  0  0  0  0  0  0  0  0
  -24.1196  -11.5536  146.7461 C   0  0  0  0  0  0  0  0  0  0  0  0
  -21.6704  -16.8669  149.9952 C   0  0  0  0  0  0  0  0  0  0  0  0
  -23.8237  -10.0591  146.9705 C   0  0  0  0  0  0  0  0  0  0  0  0
  -23.7367   -9.2608  145.6601 C   0  0  0  0  0  0  0  0  0  0  0  0
  -23.5514   -7.7630  145.9590 C   0  0  0  0  0  0  0  0  0  0  0  0
  3  2  1  0
  4  2  1  0
  5  3  1  0
  6  4  1  0
  7  6  1  0
  8  5  1  0
  9  7  1  0
 10  8  1  0
 11  4  1  0
 11  6  1  0
 11  7  1  0
 11  9  1  0
 12 10  1  0
 13 12  1  0
 14 13  1  0
 15 14  1  0
 16  5  1  0
 17 12  1  0
 17 13  1  0
 18  6  1  0
 18 15  1  0
 19  1  1  0
 19  2  1  0
 20 19  1  0
 21 12  1  0
 21 13  1  0
 21 14  1  0
 21 15  1  0
 22 20  1  0
 23 22  1  0
 24 23  1  0
M  END
$$$$

     RDKit          3D

 24 28  0  0  0  0  0  0  0  0999 V2000
  -21.3870  -20.6726  149.6935 C   0  0  0  0  0  0  0  0  0  0  0  0
  -21.6325  -21.5783  147.2140 C   0  0  0  0  0  0  0  0  0  0  0  0
  -22.7056  -21.7421  146.0764 C   0  0  0  0  0  0  0  0  0  0  0  0
  -20.3253  -21.2907  146.7026 O   0  0  0  0  0  0  0  0  0  0  0  0
  -23.7109  -20.5985  145.8794 C   0  0  0  0  0  0  0  0  0  0  0  0
  -23.5821  -19.2568  146.7337 C   0  0  0  0  0  0  0  0  0  0  0  0
  -19.9780  -21.3143  149.7768 C   0  0  0  0  0  0  0  0  0  0  0  0
  -22.1231  -20.6162  148.3112 C   0  0  0  0  0  0  0  0  0  0  0  0
  -24.9098  -18.9581  147.4618 C   0  0  0  0  0  0  0  0  0  0  0  0
  -25.1824  -19.2065  148.7603 C   0  0  0  0  0  0  0  0  0  0  0  0
  -22.7645  -20.9881  144.7131 C   0  0  0  0  0  0  0  0  0  0  0  0
  -25.1338  -21.0605  145.4340 C   0  0  0  0  0  0  0  0  0  0  0  0
  -19.2125  -21.6695  147.5314 C   0  0  0  0  0  0  0  0  0  0  0  0
  -22.3931  -19.1921  147.7522 C   0  0  0  0  0  0  0  0  0  0  0  0
  -21.1640  -18.3627  147.2945 C   0  0  0  0  0  0  0  0  0  0  0  0
  -21.4948  -21.3176  143.9489 C   0  0  0  0  0  0  0  0  0  0  0  0
  -25.6794  -20.3247  144.1913 C   0  0  0  0  0  0  0  0  0  0  0  0
  -21.7362  -19.8985  144.3917 C   0  0  0  0  0  0  0  0  0  0  0  0
  -17.9554  -21.5991  146.6333 C   0  0  0  0  0  0  0  0  0  0  0  0
  -19.0301  -20.7464  148.7411 C   0  0  0  0  0  0  0  0  0  0  0  0
  -25.8086  -18.9372  144.4466 O   0  0  0  0  0  0  0  0  0  0  0  0
  -25.1368  -18.1841  143.4433 C   0  0  0  0  0  0  0  0  0  0  0  0
  -19.3122  -23.0640  148.1841 C   0  0  0  0  0  0  0  0  0  0  0  0
  -19.9537  -22.8407  149.5632 C   0  0  0  0  0  0  0  0  0  0  0  0
  3  2  1  0
  4  2  1  0
  5  3  1  0
  6  5  1  0
  7  1  1  0
  8  1  1  0
  8  2  1  0
  9  6  1  0
 10  9  2  0
 11  3  1  0
 11  5  1  0
 12  5  1  0
 13  4  1  0
 14  6  1  0
 14  8  1  0
 15 14  1  0
 16 11  1  0
 17 12  1  0
 18 11  1  0
 18 16  1  0
 19 13  1  0
 20  7  1  0
 20 13  1  0
 21 17  1  0
 22 21  1  0
 23 13  1  0
 24  7  1  0
 24 23  1  0
M  END
$$$$

     RDKit          3D

 25 29  0  0  0  0  0  0  0  0999 V2000
  -27.5991   -6.3089  137.0760 C   0  0  0  0  0  0  0  0  0  0  0  0
  -28.3493   -7.2927  137.8952 N   0  0  0  0  0  0  0  0  0  0  0  0
  -27.7293   -8.6199  138.1153 C   0  0  0  0  0  0  0  0  0  0  0  0
  -28.7638   -9.7751  138.1369 C   0  0  0  0  0  0  0  0  0  0  0  0
  -27.9892   -6.4262  135.6024 C   0  0  0  0  0  0  0  0  0  0  0  0
  -26.5794   -6.7918  136.0407 C   0  0  0  0  0  0  0  0  0  0  0  0
  -30.1956   -9.6394  137.5546 C   0  0  0  0  0  0  0  0  0  0  0  0
  -27.7674   -9.6409  136.9899 C   0  0  0  0  0  0  0  0  0  0  0  0
  -28.7861   -6.7091  139.1929 C   0  0  0  0  0  0  0  0  0  0  0  0
  -31.4072   -9.7276  138.5298 C   0  0  0  0  0  0  0  0  0  0  0  0
  -27.6612   -6.3184  140.2313 C   0  0  0  0  0  0  0  0  0  0  0  0
  -25.5756   -5.7957  135.6610 N   0  0  0  0  0  0  0  0  0  0  0  0
  -28.1413   -6.3530  141.7712 C   0  0  0  0  0  0  0  0  0  0  0  0
  -27.8191   -4.9926  142.3857 C   0  0  0  0  0  0  0  0  0  0  0  0
  -26.3244   -4.9829  142.2533 C   0  0  0  0  0  0  0  0  0  0  0  0
  -26.1640   -4.1979  140.9677 C   0  0  0  0  0  0  0  0  0  0  0  0
  -26.9672   -4.6102  143.5170 N   0  0  0  0  0  0  0  0  0  0  0  0
  -29.6278   -6.6370  142.0377 C   0  0  0  0  0  0  0  0  0  0  0  0
  -31.3543  -10.8518  139.5965 C   0  0  0  0  0  0  0  0  0  0  0  0
  -30.3315  -10.6319  140.7503 C   0  0  0  0  0  0  0  0  0  0  0  0
  -31.8684   -8.3752  139.1020 C   0  0  0  0  0  0  0  0  0  0  0  0
  -30.8252  -10.4911  142.2154 C   0  0  0  0  0  0  0  0  0  0  0  0
  -31.9669  -11.3864  142.6745 C   0  0  0  0  0  0  0  0  0  0  0  0
  -26.9348   -4.9530  139.8257 C   0  0  0  0  0  0  0  0  0  0  0  0
  -32.1899   -9.8834  142.4987 C   0  0  0  0  0  0  0  0  0  0  0  0
  2  1  1  0
  3  2  1  0
  4  3  1  0
  5  1  1  0
  6  1  1  0
  6  5  1  0
  7  4  1  0
  8  3  1  0
  8  4  1  0
  9  2  1  0
 10  7  1  0
 11  9  1  0
 12  6  1  0
 13 11  1  0
 14 13  1  0
 15 14  1  0
 16 15  1  0
 17 14  1  0
 17 15  1  0
 18 13  1  0
 19 10  1  0
 20 19  1  0
 21 10  1  0
 22 20  1  0
 23 22  1  0
 24 11  1  0
 24 16  1  0
 25 22  1  0
 25 23  1  0
M  END
$$$$

     RDKit          3D

 25 34  0  0  0  0  0  0  0  0999 V2000
  -26.3652   -8.2379  143.1996 C   0  0  0  0  0  0  0  0  0  0  0  0
  -27.0299   -9.3996  143.9367 C   0  0  0  0  0  0  0  0  0  0  0  0
  -28.2511   -9.0613  144.8092 C   0  0  0  0  0  0  0  0  0  0  0  0
  -28.9254  -10.2734  145.4575 C   0  0  0  0  0  0  0  0  0  0  0  0
  -28.2771  -11.6225  145.2411 C   0  0  0  0  0  0  0  0  0  0  0  0
  -25.7016   -8.8162  144.4350 C   0  0  0  0  0  0  0  0  0  0  0  0
  -27.3906  -11.8604  144.2572 C   0  0  0  0  0  0  0  0  0  0  0  0
  -26.9608  -10.7991  143.2734 C   0  0  0  0  0  0  0  0  0  0  0  0
  -27.7186  -10.9781  141.9294 C   0  0  0  0  0  0  0  0  0  0  0  0
  -28.4630   -9.7950  141.3041 C   0  0  0  0  0  0  0  0  0  0  0  0
  -28.4667   -9.7943  139.7695 C   0  0  0  0  0  0  0  0  0  0  0  0
  -29.2456  -10.9218  141.9674 C   0  0  0  0  0  0  0  0  0  0  0  0
  -29.2129   -8.5467  139.2497 C   0  0  0  0  0  0  0  0  0  0  0  0
  -30.7127   -8.5903  139.4826 C   0  0  0  0  0  0  0  0  0  0  0  0
  -28.8546   -8.2002  137.8157 C   0  0  0  0  0  0  0  0  0  0  0  0
  -28.9679   -6.7098  137.4550 C   0  0  0  0  0  0  0  0  0  0  0  0
  -30.1920   -8.8528  138.0841 C   0  0  0  0  0  0  0  0  0  0  0  0
  -28.0970   -9.3242  146.3049 C   0  0  0  0  0  0  0  0  0  0  0  0
  -27.6102   -5.9833  137.3691 C   0  0  0  0  0  0  0  0  0  0  0  0
  -26.9955   -5.7223  138.6975 C   0  0  0  0  0  0  0  0  0  0  0  0
  -25.6735   -4.9841  138.7960 C   0  0  0  0  0  0  0  0  0  0  0  0
  -25.0098   -6.1912  138.1982 C   0  0  0  0  0  0  0  0  0  0  0  0
  -25.3000   -6.3222  136.6935 C   0  0  0  0  0  0  0  0  0  0  0  0
  -26.3401   -6.7947  137.7508 C   0  0  0  0  0  0  0  0  0  0  0  0
  -23.9074   -6.0297  137.1897 C   0  0  0  0  0  0  0  0  0  0  0  0
  2  1  1  0
  3  2  1  0
  4  3  1  0
  5  4  1  0
  6  1  1  0
  6  2  1  0
  7  5  2  0
  8  2  1  0
  8  7  1  0
  9  8  1  0
 10  9  1  0
 11 10  1  0
 12  9  1  0
 12 10  1  0
 13 11  1  0
 14 13  1  0
 15 13  1  0
 16 15  1  0
 17 13  1  0
 17 14  1  0
 17 15  1  0
 18  3  1  0
 18  4  1  0
 19 16  1  0
 20 19  1  0
 21 20  1  0
 22 21  1  0
 23 22  1  0
 24 19  1  0
 24 20  1  0
 24 22  1  0
 24 23  1  0
 25 22  1  0
 25 23  1  0
M  END
$$$$

     RDKit          3D

 25 26  0  0  0  0  0  0  0  0999 V2000
  -33.9441  -12.0449  148.8356 O   0  0  0  0  0  0  0  0  0  0  0  0
  -35.1615  -12.1818  149.3942 C   0  0  0  0  0  0  0  0  0  0  0  0
  -35.4020  -12.9983  150.3306 O   0  0  0  0  0  0  0  0  0  0  0  0
  -36.2629  -11.2566  149.0035 C   0  0  0  0  0  0  0  0  0  0  0  0
  -35.7009   -9.9460  148.7742 N   0  0  0  0  0  2  0  0  0  0  0  0
  -34.9620   -9.1984  149.6782 C   0  0  0  0  0  0  0  0  0  0  0  0
  -33.9278   -8.4745  149.2024 N   0  0  0  0  0  0  0  0  0  0  0  0
  -34.7870  -10.4284  150.2266 N   0  0  0  0  0  2  0  0  0  0  0  0
  -33.6022  -11.3110  150.0821 C   0  0  0  0  0  0  0  0  0  0  0  0
  -33.3526  -11.7999  151.4601 C   0  0  0  0  0  0  0  0  0  0  0  0
  -32.0849  -12.4860  151.7247 C   0  0  0  0  0  0  0  0  0  0  0  0
  -31.4881  -12.4660  153.0214 C   0  0  0  0  0  0  0  0  0  0  0  0
  -32.1921  -12.9251  154.1969 C   0  0  0  0  0  0  0  0  0  0  0  0
  -33.4739  -12.1031  151.5150 C   0  0  0  0  0  0  0  0  0  0  0  0
  -30.4974  -11.4786  153.3401 C   0  0  0  0  0  0  0  0  0  0  0  0
  -30.8214  -10.1124  153.4670 C   0  0  0  0  0  0  0  0  0  0  0  0
  -31.5405  -13.5737  155.2659 C   0  0  0  0  0  0  0  0  0  0  0  0
  -32.2463  -12.9981  154.1974 C   0  0  0  0  0  0  0  0  0  0  0  0
  -29.9681   -9.1211  152.9954 C   0  0  0  0  0  0  0  0  0  0  0  0
  -29.9207   -7.8648  153.6110 C   0  0  0  0  0  0  0  0  0  0  0  0
  -29.2272   -6.6810  153.9357 C   0  0  0  0  0  0  0  0  0  0  0  0
  -29.2585   -6.1482  155.2618 C   0  0  0  0  0  0  0  0  0  0  0  0
  -29.3376   -7.0508  156.3800 C   0  0  0  0  0  0  0  0  0  0  0  0
  -27.7721   -6.7448  154.2959 C   0  0  0  0  0  0  0  0  0  0  0  0
  -27.1802   -8.3444  154.8659 Mg  0  0  0  0  0  2  0  0  0  0  0  0
  2  1  1  0
  3  2  2  0
  4  2  1  0
  5  4  1  0
  6  5  1  0
  7  6  1  0
  8  6  1  0
  9  1  1  0
  9  8  1  0
 10  9  1  0
 12 11  1  0
 13 12  1  0
 14 10  1  0
 14 11  1  0
 15 12  1  0
 16 15  1  0
 18 13  1  0
 18 17  1  0
 19 16  1  0
 20 19  1  0
 21 20  1  0
 22 21  1  0
 23 22  1  0
 24 21  1  0
 24 22  1  0
 25 24  1  0
M  RAD  2   5   2   8   2
M  END
$$$$

     RDKit          3D

 11 13  0  0  0  0  0  0  0  0999 V2000
  -21.9405    3.5926  134.5060 O   0  0  0  0  0  0  0  0  0  0  0  0
  -22.8027    3.7244  133.5940 C   0  0  0  0  0  0  0  0  0  0  0  0
  -24.0617    4.2193  133.9162 O   0  0  0  0  0  0  0  0  0  0  0  0
  -22.4876    3.3658  132.1644 C   0  0  0  0  0  0  0  0  0  0  0  0
  -21.8050    2.1476  132.2725 O   0  0  0  0  0  0  0  0  0  0  0  0
  -21.6432    4.5273  131.6806 C   0  0  0  0  0  0  0  0  0  0  0  0
  -22.1841    5.1270  130.4125 C   0  0  0  0  0  0  0  0  0  0  0  0
  -22.0030    4.5411  129.2337 C   0  0  0  0  0  0  0  0  0  0  0  0
  -21.2907    3.2663  129.1414 C   0  0  0  0  0  0  0  0  0  0  0  0
  -21.0389    3.1363  131.6539 C   0  0  0  0  0  0  0  0  0  0  0  0
  -20.8518    2.6347  130.2342 C   0  0  0  0  0  0  0  0  0  0  0  0
  2  1  2  0
  3  2  1  0
  4  2  1  0
  5  4  1  0
  6  4  1  0
  7  6  1  0
  8  7  2  0
  9  8  1  0
 10  4  1  0
 10  5  1  0
 10  6  1  0
 11  9  2  0
 11 10  1  0
M  END
$$$$

     RDKit          3D

 25 29  0  0  0  0  0  0  0  0999 V2000
  -29.0020  -17.4289  144.1856 C   0  0  0  0  0  0  0  0  0  0  0  0
  -30.1113  -17.6314  145.2466 C   0  0  0  0  0  0  0  0  0  0  0  0
  -30.1089  -16.7964  146.5368 C   0  0  0  0  0  0  0  0  0  0  0  0
  -28.9127  -16.6918  147.2626 O   0  0  0  0  0  0  0  0  0  0  0  0
  -27.5728  -16.7871  144.3099 C   0  0  0  0  0  0  0  0  0  0  0  0
  -27.4529  -15.4615  145.0927 C   0  0  0  0  0  0  0  0  0  0  0  0
  -26.1601  -15.2979  145.8991 C   0  0  0  0  0  0  0  0  0  0  0  0
  -29.0534  -18.6945  145.0728 C   0  0  0  0  0  0  0  0  0  0  0  0
  -31.2521  -15.7883  146.8275 C   0  0  0  0  0  0  0  0  0  0  0  0
  -26.2579  -14.4140  147.1187 C   0  0  0  0  0  0  0  0  0  0  0  0
  -32.4548  -15.5957  145.8477 C   0  0  0  0  0  0  0  0  0  0  0  0
  -31.2367  -17.1696  147.4868 C   0  0  0  0  0  0  0  0  0  0  0  0
  -32.1769  -14.5010  144.7797 C   0  0  0  0  0  0  0  0  0  0  0  0
  -34.2734  -16.2308  147.5744 C   0  0  0  0  0  0  0  0  0  0  0  0
  -31.0275  -14.7884  143.8065 C   0  0  0  0  0  0  0  0  0  0  0  0
  -26.3585  -14.8883  148.3678 C   0  0  0  0  0  0  0  0  0  0  0  0
  -33.7156  -15.1562  146.6418 C   0  0  0  0  0  0  0  0  0  0  0  0
  -31.3479  -15.8619  142.7494 C   0  0  0  0  0  0  0  0  0  0  0  0
  -26.3423  -14.5366  144.5943 C   0  0  0  0  0  0  0  0  0  0  0  0
  -30.0678  -16.4053  142.0768 C   0  0  0  0  0  0  0  0  0  0  0  0
  -26.2653  -16.2809  148.6944 N   0  0  0  0  0  0  0  0  0  0  0  0
  -25.0986  -17.0726  148.3030 C   0  0  0  0  0  0  0  0  0  0  0  0
  -25.4314  -18.3232  147.5077 C   0  0  0  0  0  0  0  0  0  0  0  0
  -29.5066  -17.6779  142.7421 C   0  0  0  0  0  0  0  0  0  0  0  0
  -25.0373  -18.4407  148.9687 C   0  0  0  0  0  0  0  0  0  0  0  0
  2  1  1  0
  3  2  1  0
  4  3  1  0
  5  1  1  0
  6  5  1  0
  7  6  1  0
  8  1  1  0
  8  2  1  0
  9  3  1  0
 10  7  1  0
 11  9  1  0
 12  3  1  0
 12  9  1  0
 13 11  1  0
 15 13  1  0
 16 10  2  3
 17 11  1  0
 17 14  1  0
 18 15  1  0
 19  6  1  0
 19  7  1  0
 20 18  1  0
 21 16  1  0
 22 21  1  0
 23 22  1  0
 24  1  1  0
 24 20  1  0
 25 22  1  0
 25 23  1  0
M  END
$$$$

     RDKit          3D

 25 32  0  0  0  0  0  0  0  0999 V2000
  -28.8859  -17.6066  141.8415 C   0  0  0  0  0  0  0  0  0  0  0  0
  -27.7490  -18.1163  142.7735 C   0  0  0  0  0  0  0  0  0  0  0  0
  -29.1953  -17.6657  143.3341 C   0  0  0  0  0  0  0  0  0  0  0  0
  -28.4165  -15.3590  143.4968 C   0  0  0  0  0  0  0  0  0  0  0  0
  -26.6041  -18.0971  141.6942 C   0  0  0  0  0  0  0  0  0  0  0  0
  -30.5573  -15.6999  144.2993 C   0  0  0  0  0  0  0  0  0  0  0  0
  -29.1620  -16.4018  144.2256 C   0  0  0  0  0  0  0  0  0  0  0  0
  -26.1065  -19.4602  142.2556 C   0  0  0  0  0  0  0  0  0  0  0  0
  -24.6817  -19.4402  142.8047 C   0  0  0  0  0  0  0  0  0  0  0  0
  -24.5890  -20.6290  143.8144 C   0  0  0  0  0  0  0  0  0  0  0  0
  -23.9789  -21.8561  143.3820 O   0  0  0  0  0  0  0  0  0  0  0  0
  -28.8892  -16.1816  141.2467 C   0  0  0  0  0  0  0  0  0  0  0  0
  -26.4491  -19.2791  140.7713 C   0  0  0  0  0  0  0  0  0  0  0  0
  -29.3547  -15.1194  142.3099 C   0  0  0  0  0  0  0  0  0  0  0  0
  -25.7829  -20.8317  144.7253 C   0  0  0  0  0  0  0  0  0  0  0  0
  -25.2944  -21.0980  146.1863 C   0  0  0  0  0  0  0  0  0  0  0  0
  -26.8557  -19.6986  144.6375 C   0  0  0  0  0  0  0  0  0  0  0  0
  -28.4525  -21.0261  142.8519 S   0  0  0  0  0  5  0  0  0  0  0  0
  -24.3595  -20.3261  145.2410 C   0  0  0  0  0  0  0  0  0  0  0  0
  -27.3674  -19.5836  143.1642 C   0  0  0  0  0  0  0  0  0  0  0  0
  -29.9638  -20.7640  142.4275 C   0  0  0  0  0  0  0  0  0  0  0  0
  -30.8838  -15.2465  142.8652 C   0  0  0  0  0  0  0  0  0  0  0  0
  -32.6885  -17.3038  142.8474 C   0  0  0  0  0  0  0  0  0  0  0  0
  -33.4330  -14.9258  143.0176 C   0  0  0  0  0  0  0  0  0  0  0  0
  -32.3430  -15.8664  142.3784 C   0  0  0  0  0  0  0  0  0  0  0  0
  2  1  1  0
  3  1  1  0
  3  2  1  0
  5  2  1  0
  7  3  1  0
  7  4  1  0
  7  6  1  0
  8  5  1  0
  9  8  1  0
 10  9  1  0
 11 10  1  0
 12  1  1  0
 13  5  1  0
 13  8  1  0
 14  4  1  0
 14 12  1  0
 15 10  1  0
 16 15  1  0
 17 15  1  0
 19 10  1  0
 19 15  1  0
 19 16  1  0
 20  2  1  0
 20  8  1  0
 20 17  1  0
 20 18  1  0
 21 18  2  0
 22  6  1  0
 22 14  1  0
 25 22  1  0
 25 23  1  0
 25 24  1  0
M  RAD  1  18   2
M  END
$$$$

     RDKit          3D

 25 30  0  0  0  0  0  0  0  0999 V2000
  -26.0372  -18.7547  137.0410 O   0  0  0  0  0  0  0  0  0  0  0  0
  -24.7375  -19.9372  138.8246 C   0  0  0  0  0  0  0  0  0  0  0  0
  -25.6948  -20.0329  137.6258 C   0  0  0  0  0  0  0  0  0  0  0  0
  -24.2512  -20.2310  137.3482 C   0  0  0  0  0  0  0  0  0  0  0  0
  -25.3003  -21.0163  136.5146 C   0  0  0  0  0  0  0  0  0  0  0  0
  -24.8705  -22.5372  136.2875 C   0  0  0  0  0  0  0  0  0  0  0  0
  -23.5381  -23.1669  136.8631 C   0  0  0  0  0  0  0  0  0  0  0  0
  -24.5511  -25.5863  137.5782 C   0  0  0  0  0  0  0  0  0  0  0  0
  -25.9551  -22.2707  137.2741 C   0  0  0  0  0  0  0  0  0  0  0  0
  -23.5365  -24.7155  136.5015 C   0  0  0  0  0  0  0  0  0  0  0  0
  -26.2773  -25.5421  137.7875 C   0  0  0  0  0  0  0  0  0  0  0  0
  -27.3136  -26.2067  138.8804 C   0  0  0  0  0  0  0  0  0  0  0  0
  -21.3449  -26.6259  136.6419 C   0  0  0  0  0  0  0  0  0  0  0  0
  -27.1195  -27.7810  138.7496 C   0  0  0  0  0  0  0  0  0  0  0  0
  -25.8861  -28.2058  138.8701 C   0  0  0  0  0  0  0  0  0  0  0  0
  -25.1787  -27.8037  140.1142 C   0  0  0  0  0  0  0  0  0  0  0  0
  -25.8027  -26.9539  140.9213 C   0  0  0  0  0  0  0  0  0  0  0  0
  -20.8762  -24.1639  136.2963 C   0  0  0  0  0  0  0  0  0  0  0  0
  -18.9268  -22.5514  137.6329 C   0  0  0  0  0  0  0  0  0  0  0  0
  -26.7520  -25.8665  140.3198 C   0  0  0  0  0  0  0  0  0  0  0  0
  -26.4582  -24.9593  139.1692 C   0  0  0  0  0  0  0  0  0  0  0  0
  -18.4949  -23.9516  137.9848 C   0  0  0  0  0  0  0  0  0  0  0  0
  -21.9198  -25.1145  136.5550 C   0  0  0  0  0  0  0  0  0  0  0  0
  -20.4406  -22.7531  136.9944 C   0  0  0  0  0  0  0  0  0  0  0  0
  -17.9507  -22.0478  136.5244 C   0  0  0  0  0  0  0  0  0  0  0  0
  3  1  1  0
  3  2  1  0
  4  2  1  0
  4  3  1  0
  5  3  1  0
  5  4  1  0
  6  5  1  0
  7  6  1  0
  9  5  1  0
  9  6  1  0
 10  7  1  0
 10  8  1  0
 11  8  1  0
 12 11  1  0
 14 12  1  0
 15 14  2  0
 16 15  1  0
 17 16  2  0
 20 12  1  0
 20 17  1  0
 21 11  1  0
 21 12  1  0
 21 20  1  0
 22 19  1  0
 23 10  1  0
 23 13  1  0
 23 18  2  3
 24 18  1  0
 24 19  1  0
 25 19  1  0
M  END
$$$$

     RDKit          3D

 16 19  0  0  0  0  0  0  0  0999 V2000
  -31.8624   -6.9184  132.3867 C   0  0  0  0  0  0  0  0  0  0  0  0
  -31.0698   -7.7697  136.1286 C   0  0  0  0  0  0  0  0  0  0  0  0
  -32.1491   -6.7423  136.1990 C   0  0  0  0  0  0  0  0  0  0  0  0
  -32.9854   -6.6063  134.9486 C   0  0  0  0  0  0  0  0  0  0  0  0
  -29.9062   -4.9876  134.0609 C   0  0  0  0  0  0  0  0  0  0  0  0
  -29.8799   -6.4226  133.8018 N   0  0  0  0  0  0  0  0  0  0  0  0
  -30.1080   -7.2432  137.2282 C   0  0  0  0  0  0  0  0  0  0  0  0
  -32.9469   -7.3047  133.5091 C   0  0  0  0  0  0  0  0  0  0  0  0
  -34.0622   -5.5519  135.2489 C   0  0  0  0  0  0  0  0  0  0  0  0
  -30.4119   -7.1819  132.7016 C   0  0  0  0  0  0  0  0  0  0  0  0
  -33.6475   -4.0499  135.1638 C   0  0  0  0  0  0  0  0  0  0  0  0
  -32.2117   -3.6571  135.6870 C   0  0  0  0  0  0  0  0  0  0  0  0
  -33.4261   -3.2632  136.4810 C   0  0  0  0  0  0  0  0  0  0  0  0
  -31.4812   -2.9600  134.5169 C   0  0  0  0  0  0  0  0  0  0  0  0
  -33.1376   -8.4020  136.1460 Al  0  0  0  0  0  3  0  0  0  0  0  0
  -31.1194   -4.1102  133.5443 C   0  0  0  0  0  0  0  0  0  0  0  0
  3  2  1  0
  4  3  1  0
  6  5  1  0
  7  2  1  0
  8  1  1  0
  8  4  1  0
  9  4  1  0
 10  1  1  0
 10  6  1  0
 11  9  1  0
 12 11  1  0
 13 11  1  0
 13 12  1  0
 14 12  1  0
 15  2  1  0
 15  3  1  0
 15  4  1  0
 16  5  1  0
 16 14  1  0
M  END
$$$$

     RDKit          3D

 25 29  0  0  0  0  0  0  0  0999 V2000
  -24.2220    1.8628  139.0337 F   0  0  0  0  0  0  0  0  0  0  0  0
  -24.5369    2.8732  139.9288 C   0  0  0  0  0  0  0  0  0  0  0  0
  -25.9889    3.3955  139.7356 C   0  0  0  0  0  0  0  0  0  0  0  0
  -26.8109    2.7201  138.6132 C   0  0  0  0  0  0  0  0  0  0  0  0
  -23.4459    3.9771  139.8688 C   0  0  0  0  0  0  0  0  0  0  0  0
  -23.5886    4.9974  141.0137 C   0  0  0  0  0  0  0  0  0  0  0  0
  -26.2240    2.5912  137.2046 C   0  0  0  0  0  0  0  0  0  0  0  0
  -27.2327    3.6824  137.4983 C   0  0  0  0  0  0  0  0  0  0  0  0
  -28.6812    3.5855  136.9635 C   0  0  0  0  0  0  0  0  0  0  0  0
  -22.4012    5.7318  141.1539 O   0  0  0  0  0  0  0  0  0  0  0  0
  -30.7268    2.2735  136.1843 C   0  0  0  0  0  0  0  0  0  0  0  0
  -30.3569    1.4580  134.9610 C   0  0  0  0  0  0  0  0  0  0  0  0
  -29.3002    2.1913  136.6975 C   0  0  0  0  0  0  0  0  0  0  0  0
  -29.2598    1.9568  134.0456 C   0  0  0  0  0  0  0  0  0  0  0  0
  -23.3747    4.6818  138.5041 C   0  0  0  0  0  0  0  0  0  0  0  0
  -29.1418    3.3440  133.8791 O   0  0  0  0  0  0  0  0  0  0  0  0
  -28.9049    1.0631  132.8489 C   0  0  0  0  0  0  0  0  0  0  0  0
  -28.8723    1.4426  135.4262 C   0  0  0  0  0  0  0  0  0  0  0  0
  -29.5874    1.5288  131.5397 C   0  0  0  0  0  0  0  0  0  0  0  0
  -28.7094    2.1824  130.4428 C   0  0  0  0  0  0  0  0  0  0  0  0
  -28.4232    1.2005  129.3392 C   0  0  0  0  0  0  0  0  0  0  0  0
  -29.3831    0.3808  128.8917 C   0  0  0  0  0  0  0  0  0  0  0  0
  -30.7639    0.4271  129.4871 C   0  0  0  0  0  0  0  0  0  0  0  0
  -31.0657    1.9482  131.5705 C   0  0  0  0  0  0  0  0  0  0  0  0
  -30.6885    0.5783  131.0179 C   0  0  0  0  0  0  0  0  0  0  0  0
  2  1  1  0
  3  2  1  0
  4  3  1  0
  5  2  1  0
  6  5  1  0
  7  4  1  0
  8  4  1  0
  8  7  1  0
  9  8  1  0
 10  6  1  0
 12 11  1  0
 13  9  1  0
 13 11  1  0
 14 12  1  0
 15  5  1  0
 16 14  1  0
 17 14  1  0
 18 12  1  0
 18 13  1  0
 18 14  1  0
 19 17  1  0
 20 19  1  0
 21 20  1  0
 22 21  2  0
 23 22  1  0
 24 19  1  0
 25 19  1  0
 25 23  1  0
 25 24  1  0
M  END
$$$$

     RDKit          3D

 25 27  0  0  0  0  0  0  0  0999 V2000
  -21.2450  -10.9039  144.9356 C   0  0  0  0  0  0  0  0  0  0  0  0
  -21.8424   -8.5100  144.2132 C   0  0  0  0  0  0  0  0  0  0  0  0
  -24.2485   -8.8007  143.9413 C   0  0  0  0  0  0  0  0  0  0  0  0
  -25.5367   -9.0718  144.7223 C   0  0  0  0  0  0  0  0  0  0  0  0
  -26.7066   -9.4550  143.7840 C   0  0  0  0  0  0  0  0  0  0  0  0
  -21.5634   -9.7818  148.0476 C   0  0  0  0  0  0  0  0  0  0  0  0
  -22.2485  -10.8339  147.2035 C   0  0  0  0  0  0  0  0  0  0  0  0
  -20.8650   -9.3825  145.0125 C   0  0  0  0  0  0  0  0  0  0  0  0
  -23.1584   -8.4950  144.8725 N   0  0  0  0  0  0  0  0  0  0  0  0
  -27.5631  -10.6488  144.2694 C   0  0  0  0  0  0  0  0  0  0  0  0
  -20.5924   -8.5520  146.8411 Se  0  0  0  0  0  2  0  0  0  0  0  0
  -28.5997  -10.2284  145.2946 C   0  0  0  0  0  0  0  0  0  0  0  0
  -30.0619  -10.4403  144.9884 C   0  0  0  0  0  0  0  0  0  0  0  0
  -21.6142  -12.8639  146.6720 N   0  0  0  0  0  0  0  0  0  0  0  0
  -23.7627  -12.9042  147.0565 C   0  0  0  0  0  0  0  0  0  0  0  0
  -22.8002  -13.4209  146.0015 C   0  0  0  0  0  0  0  0  0  0  0  0
  -22.5232  -12.2644  147.6683 C   0  0  0  0  0  0  0  0  0  0  0  0
  -31.7528  -12.3402  144.6128 C   0  0  0  0  0  0  0  0  0  0  0  0
  -30.4691  -11.8841  145.3259 C   0  0  0  0  0  0  0  0  0  0  0  0
  -31.5321  -12.6436  143.1260 C   0  0  0  0  0  0  0  0  0  0  0  0
  -26.7585  -11.6816  144.8156 O   0  0  0  0  0  0  0  0  0  0  0  0
  -32.6483  -13.2986  142.5892 O   0  0  0  0  0  0  0  0  0  0  0  0
  -21.2010  -11.4881  146.3375 C   0  0  0  0  0  0  0  0  0  0  0  0
  -28.2614   -9.8631  146.4787 N   0  0  0  0  0  0  0  0  0  0  0  0
  -26.3325  -12.5780  143.8087 C   0  0  0  0  0  0  0  0  0  0  0  0
  4  3  1  0
  5  4  1  0
  7  6  1  0
  8  1  1  0
  8  2  1  0
  9  2  1  0
  9  3  1  0
 10  5  1  0
 11  6  1  0
 11  8  1  0
 12 10  1  0
 13 12  1  0
 16 14  1  0
 16 15  1  0
 17  7  1  0
 17 14  1  0
 17 15  1  0
 19 13  1  0
 19 18  1  0
 20 18  1  0
 21 10  1  0
 22 20  1  0
 23  1  1  0
 23  7  1  0
 23 14  1  0
 24 12  2  0
 25 21  1  0
M  END
$$$$

     RDKit          3D

 23 28  0  0  0  0  0  0  0  0999 V2000
  -29.1890   -7.1487  144.3200 O   0  0  0  0  0  0  0  0  0  0  0  0
  -31.8852  -12.4647  138.3783 O   0  0  0  0  0  0  0  0  0  0  0  0
  -28.2087   -6.3441  143.7086 C   0  0  0  0  0  0  0  0  0  0  0  0
  -28.0383   -6.6040  142.3080 O   0  0  0  0  0  0  0  0  0  0  0  0
  -28.2148   -7.7050  145.1870 C   0  0  0  0  0  0  0  0  0  0  0  0
  -30.7865   -9.2311  138.5857 C   0  0  0  0  0  0  0  0  0  0  0  0
  -27.1048   -6.8345  144.6247 C   0  0  0  0  0  0  0  0  0  0  0  0
  -31.4221  -10.0122  139.7492 C   0  0  0  0  0  0  0  0  0  0  0  0
  -31.8626   -8.9832  136.3373 C   0  0  0  0  0  0  0  0  0  0  0  0
  -33.2486   -8.9886  136.9754 C   0  0  0  0  0  0  0  0  0  0  0  0
  -33.3540   -7.4681  136.5686 C   0  0  0  0  0  0  0  0  0  0  0  0
  -31.8071   -7.5472  136.7822 C   0  0  0  0  0  0  0  0  0  0  0  0
  -31.9758   -8.6838  137.7555 C   0  0  0  0  0  0  0  0  0  0  0  0
  -31.1991   -9.6259  141.1773 N   0  0  0  0  0  0  0  0  0  0  0  0
  -30.1617   -8.8565  141.8917 C   0  0  0  0  0  0  0  0  0  0  0  0
  -32.8010  -11.8660  137.6230 F   0  0  0  0  0  0  0  0  0  0  0  0
  -30.6487  -11.8887  138.0454 C   0  0  0  0  0  0  0  0  0  0  0  0
  -27.8959   -7.9786  141.9305 C   0  0  0  0  0  0  0  0  0  0  0  0
  -30.2928  -10.6740  138.9628 C   0  0  0  0  0  0  0  0  0  0  0  0
  -31.1397   -7.7353  142.2621 C   0  0  0  0  0  0  0  0  0  0  0  0
  -32.1863   -8.6051  141.5801 C   0  0  0  0  0  0  0  0  0  0  0  0
  -29.0205   -8.4164  141.0749 N   0  0  0  0  0  0  0  0  0  0  0  0
  -29.6045  -12.9925  138.1989 C   0  0  0  0  0  0  0  0  0  0  0  0
  3  1  1  0
  4  3  1  0
  5  1  1  0
  7  3  1  0
  7  5  1  0
  8  6  1  0
 10  9  1  0
 11 10  1  0
 12  9  1  0
 12 11  1  0
 13  6  1  0
 13  9  1  0
 13 10  1  0
 13 12  1  0
 14  8  1  0
 15 14  1  0
 16  2  1  0
 17  2  1  0
 18  4  1  0
 19  6  1  0
 19  8  1  0
 19 17  1  0
 20 15  1  0
 21 14  1  0
 21 20  1  0
 22 15  1  0
 22 18  1  0
 23 17  1  0
M  END
$$$$

     RDKit          3D

 25 30  0  0  0  0  0  0  0  0999 V2000
  -29.3455  -13.2415  139.5785 C   0  0  0  0  0  0  0  0  0  0  0  0
  -29.3980  -14.6824  139.3325 N   0  0  0  0  0  0  0  0  0  0  0  0
  -28.6294  -12.5545  138.3881 C   0  0  0  0  0  0  0  0  0  0  0  0
  -26.4749  -12.2405  137.1201 N   0  0  0  0  0  0  0  0  0  0  0  0
  -27.2075  -13.1427  138.0035 C   0  0  0  0  0  0  0  0  0  0  0  0
  -30.0890  -15.3079  138.4407 C   0  0  0  0  0  0  0  0  0  0  0  0
  -29.4111  -16.2745  137.7300 O   0  0  0  0  0  0  0  0  0  0  0  0
  -27.2401  -14.5966  137.4662 C   0  0  0  0  0  0  0  0  0  0  0  0
  -31.2666  -14.6980  137.7451 C   0  0  0  0  0  0  0  0  0  0  0  0
  -28.3073  -14.6418  136.3881 C   0  0  0  0  0  0  0  0  0  0  0  0
  -26.9984  -15.3078  136.0898 C   0  0  0  0  0  0  0  0  0  0  0  0
  -31.6775  -15.6225  136.5446 C   0  0  0  0  0  0  0  0  0  0  0  0
  -30.4466  -15.8567  135.5905 C   0  0  0  0  0  0  0  0  0  0  0  0
  -27.3213  -17.8617  136.6839 C   0  0  0  0  0  0  0  0  0  0  0  0
  -25.7975  -18.1359  136.5882 C   0  0  0  0  0  0  0  0  0  0  0  0
  -27.8010  -16.6442  135.8679 C   0  0  0  0  0  0  0  0  0  0  0  0
  -25.1912  -18.7971  137.8253 C   0  0  0  0  0  0  0  0  0  0  0  0
  -29.0909  -15.9370  136.3914 C   0  0  0  0  0  0  0  0  0  0  0  0
  -32.9943  -15.0788  135.8771 C   0  0  0  0  0  0  0  0  0  0  0  0
  -24.8949  -17.3339  137.5339 C   0  0  0  0  0  0  0  0  0  0  0  0
  -34.1280  -14.7328  136.9404 C   0  0  0  0  0  0  0  0  0  0  0  0
  -33.5347  -15.8746  134.6463 C   0  0  0  0  0  0  0  0  0  0  0  0
  -35.5845  -15.2254  136.7814 C   0  0  0  0  0  0  0  0  0  0  0  0
  -33.5551  -17.4124  134.7193 C   0  0  0  0  0  0  0  0  0  0  0  0
  -34.6988  -15.8667  137.8140 C   0  0  0  0  0  0  0  0  0  0  0  0
  2  1  1  0
  3  1  1  0
  5  3  1  0
  5  4  1  0
  6  2  2  3
  7  6  1  0
  8  5  1  0
  9  6  1  0
 10  8  1  0
 11  8  1  0
 11 10  1  0
 12  9  1  0
 13 12  1  0
 15 14  1  0
 16 11  1  0
 16 14  1  0
 17 15  1  0
 18  7  1  0
 18 10  1  0
 18 13  1  0
 18 16  1  0
 19 12  1  0
 20 15  1  0
 20 17  1  0
 21 19  1  0
 22 19  1  0
 23 21  1  0
 24 22  1  0
 25 21  1  0
 25 23  1  0
M  END
$$$$

     RDKit          3D

 25 31  0  0  0  0  0  0  0  0999 V2000
  -31.4784  -17.0970  138.3638 C   0  0  0  0  0  0  0  0  0  0  0  0
  -31.6991  -16.6677  139.8086 C   0  0  0  0  0  0  0  0  0  0  0  0
  -33.0654  -17.0034  140.4501 C   0  0  0  0  0  0  0  0  0  0  0  0
  -30.1572  -16.8585  137.5662 C   0  0  0  0  0  0  0  0  0  0  0  0
  -31.8772  -15.7824  138.7967 O   0  0  0  0  0  0  0  0  0  0  0  0
  -32.9263  -18.2648  141.2893 C   0  0  0  0  0  0  0  0  0  0  0  0
  -34.0411  -18.4767  142.3254 C   0  0  0  0  0  0  0  0  0  0  0  0
  -34.0123  -19.3483  141.0695 C   0  0  0  0  0  0  0  0  0  0  0  0
  -28.9126  -16.9531  138.4758 C   0  0  0  0  0  0  0  0  0  0  0  0
  -27.7778  -17.1206  137.4023 C   0  0  0  0  0  0  0  0  0  0  0  0
  -30.1588  -17.8525  138.6634 C   0  0  0  0  0  0  0  0  0  0  0  0
  -30.3215  -19.2327  138.0014 C   0  0  0  0  0  0  0  0  0  0  0  0
  -27.7890  -20.2744  138.1337 C   0  0  0  0  0  0  0  0  0  0  0  0
  -26.5708  -20.3031  136.2051 O   0  0  0  0  0  0  0  0  0  0  0  0
  -29.4728  -20.6255  139.0161 Se  0  0  0  0  0  2  0  0  0  0  0  0
  -27.0935  -19.1501  138.7313 N   0  0  0  0  0  0  0  0  0  0  0  0
  -27.5758  -17.7268  138.7517 C   0  0  0  0  0  0  0  0  0  0  0  0
  -27.8486  -20.2100  136.6800 N   0  0  0  0  0  0  0  0  0  0  0  0
  -26.9476  -15.8042  137.1405 C   0  0  0  0  0  0  0  0  0  0  0  0
  -25.8799  -15.7682  136.0231 C   0  0  0  0  0  0  0  0  0  0  0  0
  -24.9276  -16.7966  135.2374 C   0  0  0  0  0  0  0  0  0  0  0  0
  -24.8870  -16.9097  133.6885 C   0  0  0  0  0  0  0  0  0  0  0  0
  -24.0426  -17.9836  133.0209 C   0  0  0  0  0  0  0  0  0  0  0  0
  -27.8287  -14.5766  136.9352 C   0  0  0  0  0  0  0  0  0  0  0  0
  -24.0121  -15.8719  134.3428 C   0  0  0  0  0  0  0  0  0  0  0  0
  2  1  1  0
  3  2  1  0
  4  1  1  0
  5  1  1  0
  5  2  1  0
  6  3  1  0
  7  6  1  0
  8  6  1  0
  8  7  1  0
  9  4  1  0
 10  9  1  0
 11  1  1  0
 11  4  1  0
 11  9  1  0
 12 11  1  0
 15 12  1  0
 15 13  1  0
 16 13  1  0
 17  9  1  0
 17 10  1  0
 17 16  1  0
 18 13  1  0
 18 14  1  0
 19 10  1  0
 20 19  1  0
 21 20  1  0
 22 21  1  0
 23 22  1  0
 24 19  1  0
 25 21  1  0
 25 22  1  0
M  END
$$$$

     RDKit          3D

 25 30  0  0  0  0  0  0  0  0999 V2000
  -14.0539   -3.9032  145.8738 O   0  0  0  0  0  0  0  0  0  0  0  0
  -13.4840   -4.8505  144.9835 C   0  0  0  0  0  0  0  0  0  0  0  0
  -15.8431   -4.3561  143.5369 C   0  0  0  0  0  0  0  0  0  0  0  0
  -16.3907   -5.7929  141.5826 C   0  0  0  0  0  0  0  0  0  0  0  0
  -17.0764   -6.0924  140.2147 C   0  0  0  0  0  0  0  0  0  0  0  0
  -13.8881   -6.2132  142.5835 C   0  0  0  0  0  0  0  0  0  0  0  0
  -14.4161   -5.1071  143.7721 C   0  0  0  0  0  0  0  0  0  0  0  0
  -15.3427   -2.9161  141.2914 N   0  0  0  0  0  0  0  0  0  0  0  0
  -15.2283   -6.8371  142.0595 C   0  0  0  0  0  0  0  0  0  0  0  0
  -14.2856   -2.6025  140.0315 C   0  0  0  0  0  0  0  0  0  0  0  0
  -16.1430   -4.1728  141.9542 C   0  0  0  0  0  0  0  0  0  0  0  0
  -11.6403   -5.1752  140.2916 C   0  0  0  0  0  0  0  0  0  0  0  0
  -12.7049   -3.7353  139.4210 C   0  0  0  0  0  0  0  0  0  0  0  0
  -13.9102   -1.2930  139.5128 C   0  0  0  0  0  0  0  0  0  0  0  0
  -12.3855   -6.3296  141.5502 C   0  0  0  0  0  0  0  0  0  0  0  0
  -12.9865   -0.9024  138.3004 C   0  0  0  0  0  0  0  0  0  0  0  0
  -13.5294   -4.3015  138.5691 C   0  0  0  0  0  0  0  0  0  0  0  0
  -13.5831    0.1824  137.3108 C   0  0  0  0  0  0  0  0  0  0  0  0
  -14.1400   -1.7363  138.0360 C   0  0  0  0  0  0  0  0  0  0  0  0
  -15.6500    0.4201  137.7489 C   0  0  0  0  0  0  0  0  0  0  0  0
  -14.0248   -3.1975  137.6657 O   0  0  0  0  0  0  0  0  0  0  0  0
  -14.0317   -4.8753  140.0691 C   0  0  0  0  0  0  0  0  0  0  0  0
  -13.0963   -3.8294  141.7269 C   0  0  0  0  0  0  0  0  0  0  0  0
  -14.4239    1.3152  137.9122 C   0  0  0  0  0  0  0  0  0  0  0  0
  -14.7869   -0.7053  137.1043 C   0  0  0  0  0  0  0  0  0  0  0  0
  2  1  1  0
  5  4  1  0
  7  2  1  0
  7  3  1  0
  7  6  1  0
  9  4  1  0
  9  6  1  0
 10  8  1  0
 11  3  1  0
 11  4  1  0
 11  8  1  0
 13 10  1  0
 13 12  1  0
 14 10  1  0
 15  6  1  0
 15 12  1  0
 16 14  1  0
 17 13  1  0
 18 16  1  0
 19 14  1  0
 19 16  1  0
 21 17  1  0
 21 19  1  0
 22 17  1  0
 23 22  1  0
 24 18  1  0
 24 20  1  0
 25 18  1  0
 25 19  1  0
 25 20  1  0
M  END
$$$$

     RDKit          3D

 11 13  0  0  0  0  0  0  0  0999 V2000
  -20.1613    0.4831  141.4770 C   0  0  0  0  0  0  0  0  0  0  0  0
  -19.0619    2.3760  140.1192 C   0  0  0  0  0  0  0  0  0  0  0  0
  -20.1949    3.3938  140.2703 C   0  0  0  0  0  0  0  0  0  0  0  0
  -20.6489    3.6571  141.7143 C   0  0  0  0  0  0  0  0  0  0  0  0
  -21.2921    4.9639  141.8350 N   0  0  0  0  0  0  0  0  0  0  0  0
  -21.2641    1.1565  142.3205 C   0  0  0  0  0  0  0  0  0  0  0  0
  -21.6535    2.4722  141.6040 C   0  0  0  0  0  0  0  0  0  0  0  0
  -21.2054    2.2660  140.1680 C   0  0  0  0  0  0  0  0  0  0  0  0
  -20.0904    1.2352  140.1390 C   0  0  0  0  0  0  0  0  0  0  0  0
  -23.1479    2.8289  141.7172 C   0  0  0  0  0  0  0  0  0  0  0  0
  -20.8710    1.3357  143.7930 C   0  0  0  0  0  0  0  0  0  0  0  0
  3  2  1  0
  4  3  1  0
  5  4  1  0
  6  1  1  0
  7  4  1  0
  7  6  1  0
  8  3  1  0
  8  7  1  0
  9  1  1  0
  9  2  1  0
  9  8  1  0
 10  7  1  0
 11  6  1  0
M  END
$$$$

     RDKit          3D

 24 27  0  0  0  0  0  0  0  0999 V2000
  -27.4848   -1.9922  141.0693 O   0  0  0  0  0  0  0  0  0  0  0  0
  -28.6268   -2.7056  141.6736 C   0  0  0  0  0  0  0  0  0  0  0  0
  -29.1094   -3.3699  142.6303 O   0  0  0  0  0  0  0  0  0  0  0  0
  -28.2437   -2.3854  138.9632 C   0  0  0  0  0  0  0  0  0  0  0  0
  -26.8952   -2.9573  138.7639 N   0  0  0  0  0  0  0  0  0  0  0  0
  -28.7121   -2.0703  140.4271 C   0  0  0  0  0  0  0  0  0  0  0  0
  -25.9472   -2.0135  138.1401 C   0  0  0  0  0  0  0  0  0  0  0  0
  -26.5511   -1.3566  136.3972 Br  0  0  0  0  0  0  0  0  0  0  0  0
  -25.5908   -0.8496  139.0708 C   0  0  0  0  0  0  0  0  0  0  0  0
  -29.1451   -3.3460  139.6331 C   0  0  0  0  0  0  0  0  0  0  0  0
  -30.5536   -3.3426  138.9957 C   0  0  0  0  0  0  0  0  0  0  0  0
  -31.7099   -3.9623  139.8300 C   0  0  0  0  0  0  0  0  0  0  0  0
  -31.7298   -5.4958  140.1210 C   0  0  0  0  0  0  0  0  0  0  0  0
  -32.1253   -3.0841  141.0017 C   0  0  0  0  0  0  0  0  0  0  0  0
  -32.7126   -1.9381  140.7401 C   0  0  0  0  0  0  0  0  0  0  0  0
  -33.3160   -0.8159  140.4557 C   0  0  0  0  0  0  0  0  0  0  0  0
  -30.7298   -6.3758  139.3702 C   0  0  0  0  0  0  0  0  0  0  0  0
  -34.0101    0.0160  141.5008 C   0  0  0  0  0  0  0  0  0  0  0  0
  -32.1346   -3.5397  142.4376 C   0  0  0  0  0  0  0  0  0  0  0  0
  -30.5741   -6.1603  140.8725 C   0  0  0  0  0  0  0  0  0  0  0  0
  -31.2636   -7.7500  138.9625 C   0  0  0  0  0  0  0  0  0  0  0  0
  -33.1103    0.3479  142.6087 N   0  0  0  0  0  0  0  0  0  0  0  0
  -34.9739   -0.7487  142.3984 C   0  0  0  0  0  0  0  0  0  0  0  0
  -34.0090   -0.3858  143.5096 C   0  0  0  0  0  0  0  0  0  0  0  0
  2  1  1  0
  3  2  2  0
  5  4  1  0
  6  1  1  0
  6  2  1  0
  6  4  1  0
  7  5  1  0
  8  7  1  0
  9  7  1  0
 10  4  1  0
 10  6  1  0
 11 10  1  0
 12 11  1  0
 13 12  1  0
 14 12  1  0
 15 14  2  0
 16 15  2  0
 17 13  1  0
 18 16  1  0
 19 14  1  0
 20 13  1  0
 20 17  1  0
 21 17  1  0
 22 18  1  0
 23 18  1  0
 24 22  1  0
 24 23  1  0
M  END
$$$$

     RDKit          3D

 16 21  0  0  0  0  0  0  0  0999 V2000
  -25.3514  -14.0050  150.4263 C   0  0  0  0  0  0  0  0  0  0  0  0
  -26.9669  -12.5709  151.5868 C   0  0  0  0  0  0  0  0  0  0  0  0
  -25.6054  -14.3482  153.0806 C   0  0  0  0  0  0  0  0  0  0  0  0
  -24.3521  -13.6953  153.7117 C   0  0  0  0  0  0  0  0  0  0  0  0
  -23.0737  -13.7249  152.8869 C   0  0  0  0  0  0  0  0  0  0  0  0
  -22.9052  -12.3850  152.3397 C   0  0  0  0  0  0  0  0  0  0  0  0
  -22.2039  -12.7494  153.5622 N   0  0  0  0  0  0  0  0  0  0  0  0
  -24.4611  -12.2048  154.1247 C   0  0  0  0  0  0  0  0  0  0  0  0
  -28.1028  -12.7900  150.5559 C   0  0  0  0  0  0  0  0  0  0  0  0
  -23.1611  -11.6321  153.5612 C   0  0  0  0  0  0  0  0  0  0  0  0
  -26.0195  -11.8093  150.7065 C   0  0  0  0  0  0  0  0  0  0  0  0
  -26.4021  -10.3841  150.2947 C   0  0  0  0  0  0  0  0  0  0  0  0
  -26.2257  -13.9393  151.7107 C   0  0  0  0  0  0  0  0  0  0  0  0
  -25.8480  -12.7971  149.6043 C   0  0  0  0  0  0  0  0  0  0  0  0
  -25.1019  -10.6449  151.0416 C   0  0  0  0  0  0  0  0  0  0  0  0
  -27.3332  -13.0322  149.2237 C   0  0  0  0  0  0  0  0  0  0  0  0
  4  3  1  0
  5  4  1  0
  6  5  1  0
  7  5  1  0
  7  6  1  0
  8  4  1  0
  9  2  1  0
 10  6  1  0
 10  7  1  0
 10  8  1  0
 11  2  1  0
 12 11  1  0
 13  1  1  0
 13  2  1  0
 13  3  1  0
 14  1  1  0
 14 11  1  0
 15 11  1  0
 15 12  1  0
 16  9  1  0
 16 14  1  0
M  END
$$$$

     RDKit          3D

 23 26  0  0  0  0  0  0  0  0999 V2000
  -30.3571   -6.1187  135.2195 O   0  0  0  0  0  1  0  0  0  0  0  0
  -28.9898   -6.1752  135.4683 C   0  0  0  0  0  0  0  0  0  0  0  0
  -28.7707   -6.6685  136.8620 C   0  0  0  0  0  0  0  0  0  0  0  0
  -28.6113   -5.1771  136.5551 C   0  0  0  0  0  0  0  0  0  0  0  0
  -27.1991   -7.5417  139.0427 Si  0  0  0  0  0  4  0  0  0  0  0  0
  -27.3345   -6.7667  137.3185 C   0  0  0  0  0  0  0  0  0  0  0  0
  -27.2298   -5.2657  137.1905 C   0  0  0  0  0  0  0  0  0  0  0  0
  -25.4225   -7.4792  139.7748 C   0  0  0  0  0  0  0  0  0  0  0  0
  -28.3830   -4.8773  135.1239 N   0  0  0  0  0  2  0  0  0  0  0  0
  -25.2874   -7.2328  141.3276 C   0  0  0  0  0  0  0  0  0  0  0  0
  -24.5501   -6.4787  138.9804 C   0  0  0  0  0  0  0  0  0  0  0  0
  -23.8189   -7.1675  137.8374 C   0  0  0  0  0  0  0  0  0  0  0  0
  -23.2028   -6.1912  136.9270 N   0  0  0  0  0  0  0  0  0  0  0  0
  -21.9402   -5.6295  137.4837 C   0  0  0  0  0  0  0  0  0  0  0  0
  -21.4342   -6.0508  134.7591 P   0  0  0  0  0  0  0  0  0  0  0  0
  -21.8732   -6.6817  136.4625 C   0  0  0  0  0  0  0  0  0  0  0  0
  -25.3716   -8.5022  142.1947 C   0  0  0  0  0  0  0  0  0  0  0  0
  -26.0901   -6.0205  141.8870 C   0  0  0  0  0  0  0  0  0  0  0  0
  -27.5209   -6.3092  142.3690 C   0  0  0  0  0  0  0  0  0  0  0  0
  -28.0648  -10.1396  139.9006 C   0  0  0  0  0  0  0  0  0  0  0  0
  -27.8911  -11.6401  139.6828 C   0  0  0  0  0  0  0  0  0  0  0  0
  -27.6986   -9.3164  138.6626 C   0  0  0  0  0  0  0  0  0  0  0  0
  -26.4726  -11.9576  139.4662 N   0  0  0  0  0  0  0  0  0  0  0  0
  2  1  1  0
  3  2  1  0
  4  2  1  0
  4  3  1  0
  6  3  1  0
  6  5  1  0
  7  4  1  0
  7  6  1  0
  8  5  1  0
  9  2  1  0
  9  4  1  0
 10  8  1  0
 11  8  1  0
 12 11  1  0
 13 12  1  0
 14 13  1  0
 16 13  1  0
 16 14  1  0
 16 15  1  0
 17 10  1  0
 18 10  1  0
 19 18  1  0
 21 20  1  0
 22  5  1  0
 22 20  1  0
 23 21  1  0
M  RAD  2   1   2   9   2
M  END
$$$$

     RDKit          3D

 23 26  0  0  0  0  0  0  0  0999 V2000
  -24.1134   -1.0742  148.9926 C   0  0  0  0  0  0  0  0  0  0  0  0
  -23.1416   -2.1849  148.6426 C   0  0  0  0  0  0  0  0  0  0  0  0
  -22.1284   -1.2797  149.0912 C   0  0  0  0  0  0  0  0  0  0  0  0
  -20.7537   -1.5443  148.7329 O   0  0  0  0  0  0  0  0  0  0  0  0
  -25.1806   -1.2638  150.0058 C   0  0  0  0  0  0  0  0  0  0  0  0
  -21.8913    0.8296  146.2069 C   0  0  0  0  0  0  0  0  0  0  0  0
  -23.8321   -0.7630  150.4516 C   0  0  0  0  0  0  0  0  0  0  0  0
  -22.9390   -2.6590  147.2504 N   0  0  0  0  0  0  0  0  0  0  0  0
  -22.5179   -1.3214  150.5163 O   0  0  0  0  0  0  0  0  0  0  0  0
  -21.1574   -0.5107  146.3781 N   0  0  0  0  0  0  0  0  0  0  0  0
  -20.2498   -0.6566  147.6253 C   0  0  0  0  0  0  0  0  0  0  0  0
  -23.4606    0.7779  145.8243 C   0  0  0  0  0  0  0  0  0  0  0  0
  -24.3603    1.4976  147.0592 C   0  0  0  0  0  0  0  0  0  0  0  0
  -23.5479    2.4978  147.7906 O   0  0  0  0  0  0  0  0  0  0  0  0
  -23.3567    2.1577  149.1828 C   0  0  0  0  0  0  0  0  0  0  0  0
  -25.5569    0.7224  147.9649 C   0  0  0  0  0  0  0  0  0  0  0  0
  -25.4852   -0.7265  148.5165 C   0  0  0  0  0  0  0  0  0  0  0  0
  -24.3483    0.8687  144.4955 C   0  0  0  0  0  0  0  0  0  0  0  0
  -21.5793    3.6296  150.0541 C   0  0  0  0  0  0  0  0  0  0  0  0
  -20.8939    4.1913  149.0740 C   0  0  0  0  0  0  0  0  0  0  0  0
  -21.9986    2.1924  149.9341 C   0  0  0  0  0  0  0  0  0  0  0  0
  -25.2942   -0.4609  144.4315 C   0  0  0  0  0  0  0  0  0  0  0  0
  -25.0897   -1.5218  145.6200 C   0  0  0  0  0  0  0  0  0  0  0  0
  2  1  1  0
  3  2  1  0
  4  3  1  0
  5  1  1  0
  7  1  1  0
  7  5  1  0
  8  2  1  0
  9  3  1  0
  9  7  1  0
 10  6  1  0
 11  4  1  0
 11 10  1  0
 12  6  1  0
 13 12  1  0
 14 13  1  0
 15 14  1  0
 16 13  1  0
 17  1  1  0
 17  5  1  0
 17 16  1  0
 18 12  1  0
 20 19  2  0
 21 15  1  0
 21 19  1  0
 22 18  1  0
 23 22  1  0
M  END
$$$$

     RDKit          3D

 25 31  0  0  0  0  0  0  0  0999 V2000
  -27.2530  -13.0729  150.9600 C   0  0  0  0  0  0  0  0  0  0  0  0
  -28.0922  -12.7385  149.6993 C   0  0  0  0  0  0  0  0  0  0  0  0
  -26.2115  -10.7459  150.6977 C   0  0  0  0  0  0  0  0  0  0  0  0
  -29.4701  -12.0726  149.8240 C   0  0  0  0  0  0  0  0  0  0  0  0
  -26.8050   -9.5235  150.7639 C   0  0  0  0  0  0  0  0  0  0  0  0
  -26.7057   -8.3680  149.7841 C   0  0  0  0  0  0  0  0  0  0  0  0
  -30.0409  -11.7407  151.2096 C   0  0  0  0  0  0  0  0  0  0  0  0
  -25.4496   -7.5404  149.8650 C   0  0  0  0  0  0  0  0  0  0  0  0
  -26.6612  -11.8311  151.6625 C   0  0  0  0  0  0  0  0  0  0  0  0
  -29.7074  -14.4646  150.4436 O   0  0  0  0  0  0  0  0  0  0  0  0
  -24.8677   -7.2186  148.5191 C   0  0  0  0  0  0  0  0  0  0  0  0
  -25.1058   -5.8446  147.9396 C   0  0  0  0  0  0  0  0  0  0  0  0
  -23.4012   -7.0759  148.3802 C   0  0  0  0  0  0  0  0  0  0  0  0
  -24.5584   -5.8399  146.4995 C   0  0  0  0  0  0  0  0  0  0  0  0
  -25.0831   -6.9160  145.5269 C   0  0  0  0  0  0  0  0  0  0  0  0
  -26.4270   -6.5657  144.8544 C   0  0  0  0  0  0  0  0  0  0  0  0
  -27.5014   -6.0224  145.8105 C   0  0  0  0  0  0  0  0  0  0  0  0
  -23.1983   -6.1786  147.0862 C   0  0  0  0  0  0  0  0  0  0  0  0
  -25.7431   -8.4422  148.6139 C   0  0  0  0  0  0  0  0  0  0  0  0
  -28.8330   -5.9254  145.1138 C   0  0  0  0  0  0  0  0  0  0  0  0
  -29.3624  -13.5532  149.4350 C   0  0  0  0  0  0  0  0  0  0  0  0
  -25.1141  -11.0800  149.7166 C   0  0  0  0  0  0  0  0  0  0  0  0
  -24.7585   -4.7015  148.7763 C   0  0  0  0  0  0  0  0  0  0  0  0
  -23.5766   -5.5847  148.3880 C   0  0  0  0  0  0  0  0  0  0  0  0
  -29.5777   -7.0146  144.8779 C   0  0  0  0  0  0  0  0  0  0  0  0
  2  1  1  0
  4  2  1  0
  5  3  2  3
  6  5  1  0
  7  4  1  0
  8  6  1  0
  9  1  1  0
  9  3  1  0
 11  8  1  0
 12 11  1  0
 13 11  1  0
 14 12  1  0
 15 14  1  0
 16 15  1  0
 17 16  1  0
 18 13  1  0
 18 14  1  0
 19  6  1  0
 19  8  1  0
 19 11  1  0
 20 17  1  0
 21  2  1  0
 21  4  1  0
 21 10  1  0
 22  3  1  0
 23 12  1  0
 24 12  1  0
 24 13  1  0
 24 18  1  0
 24 23  1  0
 25 20  2  0
M  END
$$$$

     RDKit          3D

 25 28  0  0  0  0  0  0  0  0999 V2000
  -30.0766   -9.1365  133.6712 N   0  0  0  0  0  0  0  0  0  0  0  0
  -27.8419  -10.0047  132.8191 C   0  0  0  0  0  0  0  0  0  0  0  0
  -27.7193  -10.7750  134.0762 N   0  0  0  0  0  0  0  0  0  0  0  0
  -28.8639   -8.8132  132.8778 C   0  0  0  0  0  0  0  0  0  0  0  0
  -29.2595   -8.4308  131.4168 C   0  0  0  0  0  0  0  0  0  0  0  0
  -28.3805   -6.2709  131.3823 C   0  0  0  0  0  0  0  0  0  0  0  0
  -30.8190  -10.3583  133.3105 C   0  0  0  0  0  0  0  0  0  0  0  0
  -27.4529   -6.6845  132.5691 C   0  0  0  0  0  0  0  0  0  0  0  0
  -28.7300   -4.7558  131.3887 C   0  0  0  0  0  0  0  0  0  0  0  0
  -28.1842   -7.5861  133.5663 C   0  0  0  0  0  0  0  0  0  0  0  0
  -31.2335  -11.1649  134.5786 C   0  0  0  0  0  0  0  0  0  0  0  0
  -30.8649  -12.8027  134.6399 C   0  0  0  0  0  0  0  0  0  0  0  0
  -30.0968   -4.3795  132.0193 C   0  0  0  0  0  0  0  0  0  0  0  0
  -31.2529   -4.6578  131.0325 C   0  0  0  0  0  0  0  0  0  0  0  0
  -31.9500   -5.8398  131.3465 O   0  0  0  0  0  0  0  0  0  0  0  0
  -30.0805   -3.0083  132.3262 O   0  0  0  0  0  0  0  0  0  0  0  0
  -31.2067  -13.4462  133.1680 C   0  0  0  0  0  0  0  0  0  0  0  0
  -29.5627   -7.0554  131.3205 O   0  0  0  0  0  0  0  0  0  0  0  0
  -32.6325   -4.6302  131.5745 C   0  0  0  0  0  0  0  0  0  0  0  0
  -31.0941  -10.4469  135.9312 C   0  0  0  0  0  0  0  0  0  0  0  0
  -29.3923  -13.2543  135.3613 C   0  0  0  0  0  0  0  0  0  0  0  0
  -28.1120  -13.0110  135.0326 C   0  0  0  0  0  0  0  0  0  0  0  0
  -31.9660  -13.5198  135.5412 C   0  0  0  0  0  0  0  0  0  0  0  0
  -32.4695  -10.5991  135.3044 C   0  0  0  0  0  0  0  0  0  0  0  0
  -27.6727  -12.2264  133.8222 C   0  0  0  0  0  0  0  0  0  0  0  0
  3  2  1  0
  4  1  1  0
  4  2  1  0
  5  4  1  0
  7  1  1  0
  8  6  1  0
  9  6  1  0
 10  4  1  0
 10  8  1  0
 11  7  1  0
 12 11  1  0
 13  9  1  0
 14 13  1  0
 15 14  1  0
 16 13  1  0
 17 12  1  0
 18  5  1  0
 18  6  1  0
 19 14  1  0
 19 15  1  0
 20 11  1  0
 21 12  1  0
 22 21  2  3
 23 12  1  0
 24 11  1  0
 24 20  1  0
 25  3  1  0
 25 22  1  0
M  END
$$$$

     RDKit          3D

 25 29  0  0  0  0  0  0  0  0999 V2000
  -21.5408    2.8833  139.5108 C   0  0  0  0  0  0  0  0  0  0  0  0
  -21.2082    1.9167  140.2461 O   0  0  0  0  0  0  0  0  0  0  0  0
  -21.0474    2.9504  138.2148 O   0  0  0  0  0  0  0  0  0  0  0  0
  -22.4494    3.9822  140.0108 C   0  0  0  0  0  0  0  0  0  0  0  0
  -21.3007    4.3043  142.4587 C   0  0  0  0  0  0  0  0  0  0  0  0
  -23.8375    3.7235  142.2296 C   0  0  0  0  0  0  0  0  0  0  0  0
  -24.1884    5.1750  142.8292 C   0  0  0  0  0  0  0  0  0  0  0  0
  -21.7191    4.9216  141.0296 C   0  0  0  0  0  0  0  0  0  0  0  0
  -24.7735    5.0048  144.1844 C   0  0  0  0  0  0  0  0  0  0  0  0
  -23.8192    3.4407  140.6698 C   0  0  0  0  0  0  0  0  0  0  0  0
  -23.9580    4.5831  145.1500 C   0  0  0  0  0  0  0  0  0  0  0  0
  -22.4360    4.6194  145.0193 C   0  0  0  0  0  0  0  0  0  0  0  0
  -21.7478    3.7439  143.8892 C   0  0  0  0  0  0  0  0  0  0  0  0
  -22.4605    3.2514  142.7286 C   0  0  0  0  0  0  0  0  0  0  0  0
  -24.8349    6.1234  141.8753 N   0  0  0  0  0  0  0  0  0  0  0  0
  -21.8621    4.2750  146.3436 N   0  0  0  0  0  0  0  0  0  0  0  0
  -21.9673    2.8471  146.7116 C   0  0  0  0  0  0  0  0  0  0  0  0
  -25.9824    6.6146  142.4053 F   0  0  0  0  0  0  0  0  0  0  0  0
  -22.8042    2.6656  147.9926 C   0  0  0  0  0  0  0  0  0  0  0  0
  -22.6920    1.2464  148.5652 C   0  0  0  0  0  0  0  0  0  0  0  0
  -23.6791    6.6225  142.6870 C   0  0  0  0  0  0  0  0  0  0  0  0
  -22.5418    7.2825  141.8190 C   0  0  0  0  0  0  0  0  0  0  0  0
  -21.5464    6.4538  140.9062 C   0  0  0  0  0  0  0  0  0  0  0  0
  -22.4934    8.6322  141.7888 C   0  0  0  0  0  0  0  0  0  0  0  0
  -21.5208    9.4104  140.9455 C   0  0  0  0  0  0  0  0  0  0  0  0
  2  1  2  0
  3  1  1  0
  4  1  1  0
  7  6  1  0
  8  4  1  0
  8  5  1  0
  9  7  1  0
 10  4  1  0
 10  6  1  0
 11  9  2  0
 12 11  1  0
 13  5  1  0
 13 12  1  0
 14  5  1  0
 14  6  1  0
 14 13  1  0
 15  7  1  0
 16 12  1  0
 17 16  1  0
 18 15  1  0
 19 17  1  0
 20 19  1  0
 21  7  1  0
 21 15  1  0
 22 21  1  0
 23  8  1  0
 23 22  1  0
 24 22  2  3
 25 24  1  0
M  END
$$$$

     RDKit          3D

 25 29  0  0  0  0  0  0  0  0999 V2000
  -20.7675  -20.8529  138.4985 O   0  0  0  0  0  0  0  0  0  0  0  0
  -21.7497  -20.7755  139.5199 C   0  0  0  0  0  0  0  0  0  0  0  0
  -22.7944  -21.8363  139.3438 C   0  0  0  0  0  0  0  0  0  0  0  0
  -24.9430  -20.6857  138.3938 C   0  0  0  0  0  0  0  0  0  0  0  0
  -25.1476  -19.5325  139.6247 C   0  0  0  0  0  0  0  0  0  0  0  0
  -23.6459  -21.5440  138.0895 C   0  0  0  0  0  0  0  0  0  0  0  0
  -24.2216  -18.2051  139.4021 C   0  0  0  0  0  0  0  0  0  0  0  0
  -25.1752  -19.9346  141.1932 C   0  0  0  0  0  0  0  0  0  0  0  0
  -23.6583  -17.3802  140.6609 C   0  0  0  0  0  0  0  0  0  0  0  0
  -26.3201  -20.8775  141.8193 C   0  0  0  0  0  0  0  0  0  0  0  0
  -22.1856  -17.5608  141.2124 C   0  0  0  0  0  0  0  0  0  0  0  0
  -24.8098  -17.3410  141.7073 C   0  0  0  0  0  0  0  0  0  0  0  0
  -21.8655  -18.7949  142.1047 C   0  0  0  0  0  0  0  0  0  0  0  0
  -26.0182  -22.2826  141.6756 N   0  0  0  0  0  0  0  0  0  0  0  0
  -25.2489  -18.7135  142.2013 C   0  0  0  0  0  0  0  0  0  0  0  0
  -21.9234  -17.9356  143.4395 C   0  0  0  0  0  0  0  0  0  0  0  0
  -21.9829  -16.6459  142.5333 C   0  0  0  0  0  0  0  0  0  0  0  0
  -27.3203  -22.9680  141.6968 C   0  0  0  0  0  0  0  0  0  0  0  0
  -27.6619  -23.6081  143.1484 C   0  0  0  0  0  0  0  0  0  0  0  0
  -27.7385  -25.8073  141.7868 C   0  0  0  0  0  0  0  0  0  0  0  0
  -27.9935  -22.9927  140.2237 C   0  0  0  0  0  0  0  0  0  0  0  0
  -28.4636  -22.0140  141.3172 C   0  0  0  0  0  0  0  0  0  0  0  0
  -28.1805  -25.0691  142.9728 C   0  0  0  0  0  0  0  0  0  0  0  0
  -27.7863  -20.6183  141.4409 C   0  0  0  0  0  0  0  0  0  0  0  0
  -27.0926  -26.0453  143.1280 N   0  0  0  0  0  0  0  0  0  0  0  0
  2  1  1  0
  3  2  1  0
  5  4  1  0
  6  3  1  0
  6  4  1  0
  7  5  1  0
  8  5  1  0
  9  7  1  0
 10  8  1  0
 11  9  1  0
 12  9  1  0
 13 11  1  0
 14 10  1  0
 15  8  1  0
 15 12  1  0
 16 13  1  0
 17 11  1  0
 17 16  1  0
 18 14  1  0
 19 18  1  0
 21 18  1  0
 22 18  1  0
 22 21  1  0
 23 19  1  0
 23 20  1  0
 24 10  1  0
 24 22  1  0
 25 20  1  0
 25 23  1  0
M  END
$$$$

     RDKit          3D

 25 31  0  0  0  0  0  0  0  0999 V2000
  -24.9874    1.4172  140.5037 C   0  0  0  0  0  0  0  0  0  0  0  0
  -25.8337    0.2446  140.0283 C   0  0  0  0  0  0  0  0  0  0  0  0
  -25.9576   -0.9605  141.0358 C   0  0  0  0  0  0  0  0  0  0  0  0
  -24.6481   -1.8573  141.1788 C   0  0  0  0  0  0  0  0  0  0  0  0
  -26.4675    1.6212  140.2521 C   0  0  0  0  0  0  0  0  0  0  0  0
  -23.5208   -1.5397  140.1628 C   0  0  0  0  0  0  0  0  0  0  0  0
  -25.5554   -0.0953  138.6215 N   0  0  0  0  0  0  0  0  0  0  0  0
  -22.4921   -0.4626  140.5118 C   0  0  0  0  0  0  0  0  0  0  0  0
  -23.9391   -1.9643  142.5251 C   0  0  0  0  0  0  0  0  0  0  0  0
  -22.5518   -2.5150  142.1543 C   0  0  0  0  0  0  0  0  0  0  0  0
  -21.4593   -2.3413  143.1379 N   0  0  0  0  0  0  0  0  0  0  0  0
  -20.4262   -0.8358  144.8180 C   0  0  0  0  0  0  0  0  0  0  0  0
  -22.1915   -1.9259  140.7958 C   0  0  0  0  0  0  0  0  0  0  0  0
  -21.7112   -1.3543  144.1933 C   0  0  0  0  0  0  0  0  0  0  0  0
  -27.0807   -0.8337  142.1473 C   0  0  0  0  0  0  0  0  0  0  0  0
  -21.2183    0.0427  143.8712 C   0  0  0  0  0  0  0  0  0  0  0  0
  -26.9720    0.3070  143.1399 C   0  0  0  0  0  0  0  0  0  0  0  0
  -27.4401   -2.1588  142.7901 C   0  0  0  0  0  0  0  0  0  0  0  0
  -28.9288   -2.3978  143.0466 C   0  0  0  0  0  0  0  0  0  0  0  0
  -26.8442   -1.0881  143.6736 C   0  0  0  0  0  0  0  0  0  0  0  0
  -29.0556   -4.5133  141.6300 C   0  0  0  0  0  0  0  0  0  0  0  0
  -30.0026   -5.3190  140.7252 C   0  0  0  0  0  0  0  0  0  0  0  0
  -29.8925   -5.0825  139.2901 C   0  0  0  0  0  0  0  0  0  0  0  0
  -29.5934   -3.0904  141.8464 C   0  0  0  0  0  0  0  0  0  0  0  0
  -29.3428   -6.3293  139.8676 N   0  0  0  0  0  0  0  0  0  0  0  0
  2  1  1  0
  3  2  1  0
  4  3  1  0
  5  1  1  0
  5  2  1  0
  6  4  1  0
  7  2  1  0
  8  6  1  0
  9  4  1  0
 10  9  1  0
 11 10  1  0
 13  6  1  0
 13  8  1  0
 13 10  1  0
 14 11  1  0
 14 12  1  0
 15  3  1  0
 16 12  1  0
 16 14  1  0
 17 15  1  0
 18 15  1  0
 19 18  1  0
 20 15  1  0
 20 17  1  0
 20 18  1  0
 22 21  1  0
 23 22  1  0
 24 19  1  0
 24 21  1  0
 25 22  1  0
 25 23  1  0
M  END
$$$$

     RDKit          3D

 57 61  0  0  0  0  0  0  0  0999 V2000
  -21.0358   -2.7091  138.5699 C   0  0  0  0  0  0  0  0  0  0  0  0
  -21.4535   -2.0210  137.4052 C   0  0  0  0  0  0  0  0  0  0  0  0
  -19.6612   -2.8288  138.8837 C   0  0  0  0  0  0  0  0  0  0  0  0
  -18.6939   -2.9728  137.8492 C   0  0  0  0  0  0  0  0  0  0  0  0
  -19.8419   -3.5867  138.4151 C   0  0  0  0  0  0  0  0  0  0  0  0
  -22.4554   -1.1455  137.6426 N   0  0  0  0  0  0  0  0  0  0  0  0
  -22.3420   -0.0710  138.4936 C   0  0  0  0  0  0  0  0  0  0  0  0
  -22.1069    1.0911  138.1379 O   0  0  0  0  0  0  0  0  0  0  0  0
  -22.1170   -0.4679  139.9056 C   0  0  0  0  0  0  0  0  0  0  0  0
  -23.2347   -0.5174  140.8189 C   0  0  0  0  0  0  0  0  0  0  0  0
  -22.3602   -1.6227  139.0808 C   0  0  0  0  0  0  0  0  0  0  0  0
  -23.3182   -1.8949  140.5441 C   0  0  0  0  0  0  0  0  0  0  0  0
  -22.9328   -3.2465  141.1995 C   0  0  0  0  0  5  0  0  0  0  0  0
  -23.5962   -4.6101  140.7137 S   0  0  0  0  0  4  0  0  0  0  0  0
  -23.2223   -5.9137  141.5839 C   0  0  0  0  0  0  0  0  0  0  0  0
  -23.4597   -5.9428  142.9676 C   0  0  0  0  0  0  0  0  0  0  0  0
  -23.3976   -7.1439  143.6750 C   0  0  0  0  0  0  0  0  0  0  0  0
  -20.7006   -1.3797  138.6592 Cl  0  0  0  0  0  0  0  0  0  0  0  0
  -23.4883   -6.0248  142.8464 C   0  0  0  0  0  0  0  0  0  0  0  0
  -18.7573   -4.8812  138.4148 C   0  0  0  0  0  0  0  0  0  0  0  0
  -17.7687   -4.6234  137.3322 C   0  0  0  0  0  0  0  0  0  0  0  0
  -18.7037   -6.1080  139.3620 C   0  0  0  0  0  0  0  0  0  0  0  0
  -22.8175   -7.2864  141.5597 C   0  0  0  0  0  0  0  0  0  0  0  0
  -22.7797   -7.9940  142.7591 C   0  0  0  0  0  0  0  0  0  0  0  0
  -22.4505   -8.0560  140.4463 N   0  0  0  0  0  0  0  0  0  0  0  0
  -21.6195   -3.5774  138.9096 H   0  0  0  0  0  0  0  0  0  0  0  0
  -20.5943   -1.4688  136.9966 H   0  0  0  0  0  0  0  0  0  0  0  0
  -21.8322   -2.7718  136.6960 H   0  0  0  0  0  0  0  0  0  0  0  0
  -18.9775   -2.1042  138.4173 H   0  0  0  0  0  0  0  0  0  0  0  0
  -19.1925   -2.7516  139.8759 H   0  0  0  0  0  0  0  0  0  0  0  0
  -18.9390   -2.3393  136.9840 H   0  0  0  0  0  0  0  0  0  0  0  0
  -18.1374   -2.2791  138.4966 H   0  0  0  0  0  0  0  0  0  0  0  0
  -20.8923   -3.9047  138.3409 H   0  0  0  0  0  0  0  0  0  0  0  0
  -21.9911    1.6638  138.9372 H   0  0  0  0  0  0  0  0  0  0  0  0
  -21.3261   -0.0568  140.5503 H   0  0  0  0  0  0  0  0  0  0  0  0
  -22.9863   -0.2719  141.8620 H   0  0  0  0  0  0  0  0  0  0  0  0
  -24.1031    0.1486  140.7076 H   0  0  0  0  0  0  0  0  0  0  0  0
  -24.3416   -2.2098  140.7957 H   0  0  0  0  0  0  0  0  0  0  0  0
  -21.8471   -3.3613  141.0652 H   0  0  0  0  0  0  0  0  0  0  0  0
  -23.3205   -3.1391  142.2233 H   0  0  0  0  0  0  0  0  0  0  0  0
  -24.9568   -4.4540  140.7512 H   0  0  0  0  0  0  0  0  0  0  0  0
  -24.2756   -5.2706  143.2717 H   0  0  0  0  0  0  0  0  0  0  0  0
  -22.6424   -5.2071  142.9946 H   0  0  0  0  0  0  0  0  0  0  0  0
  -22.7954   -7.0375  144.5893 H   0  0  0  0  0  0  0  0  0  0  0  0
  -24.3780   -7.5043  144.0198 H   0  0  0  0  0  0  0  0  0  0  0  0
  -24.5854   -6.1030  142.8581 H   0  0  0  0  0  0  0  0  0  0  0  0
  -22.7002   -6.7660  143.0450 H   0  0  0  0  0  0  0  0  0  0  0  0
  -19.3989   -5.4186  137.7009 H   0  0  0  0  0  0  0  0  0  0  0  0
  -17.9641   -5.0425  136.3341 H   0  0  0  0  0  0  0  0  0  0  0  0
  -16.6962   -4.8580  137.2641 H   0  0  0  0  0  0  0  0  0  0  0  0
  -18.7186   -5.7652  140.4071 H   0  0  0  0  0  0  0  0  0  0  0  0
  -19.5744   -6.7537  139.1753 H   0  0  0  0  0  0  0  0  0  0  0  0
  -17.7799   -6.6752  139.1753 H   0  0  0  0  0  0  0  0  0  0  0  0
  -21.7415   -8.2013  143.0577 H   0  0  0  0  0  0  0  0  0  0  0  0
  -23.2781   -8.9720  142.6882 H   0  0  0  0  0  0  0  0  0  0  0  0
  -22.1777   -9.0416  140.5689 H   0  0  0  0  0  0  0  0  0  0  0  0
  -22.4538   -7.6356  139.5060 H   0  0  0  0  0  0  0  0  0  0  0  0
  2  1  1  0
  3  1  1  0
  5  3  1  0
  5  4  1  0
  6  2  1  0
  7  6  1  0
  8  7  1  0
  9  7  1  0
 10  9  1  0
 11  6  1  0
 11  7  1  0
 11  9  1  0
 12 10  1  0
 12 11  1  0
 13 12  1  0
 14 13  2  0
 15 14  1  0
 17 16  1  0
 18  1  1  0
 19 15  1  0
 19 16  1  0
 20  5  1  0
 21  4  1  0
 21 20  1  0
 22 20  1  0
 23 15  2  0
 24 17  1  0
 24 23  1  0
 25 23  1  0
  1 26  1  0
  2 27  1  0
  2 28  1  0
  3 29  1  0
  3 30  1  0
  4 31  1  0
  4 32  1  0
  5 33  1  0
  8 34  1  0
  9 35  1  0
 10 36  1  0
 10 37  1  0
 12 38  1  0
 13 39  1  0
 13 40  1  0
 14 41  1  0
 16 42  1  0
 16 43  1  0
 17 44  1  0
 17 45  1  0
 19 46  1  0
 19 47  1  0
 20 48  1  0
 21 49  1  0
 21 50  1  0
 22 51  1  0
 22 52  1  0
 22 53  1  0
 24 54  1  0
 24 55  1  0
 25 56  1  0
 25 57  1  0
M  END
$$$$

     RDKit          3D

  6  6  0  0  0  0  0  0  0  0999 V2000
  -24.1941  -25.3376  151.1793 O   0  0  0  0  0  0  0  0  0  0  0  0
  -23.6239  -26.6447  150.1135 P   0  0  0  0  0  0  0  0  0  0  0  0
  -24.7906  -27.9662  150.8487 O   0  0  0  0  0  0  0  0  0  0  0  0
  -24.7563  -25.8697  148.9277 O   0  0  0  0  0  0  0  0  0  0  0  0
  -26.8141  -25.6041  151.2483 C   0  0  0  0  0  0  0  0  0  0  0  0
  -25.4486  -24.8235  150.0825 P   0  0  0  0  0  0  0  0  0  0  0  0
  2  1  1  0
  3  2  1  0
  4  2  1  0
  6  1  1  0
  6  4  1  0
  6  5  1  0
M  END
$$$$

     RDKit          3D

 20 24  0  0  0  0  0  0  0  0999 V2000
  -19.6336  -19.9911  135.2718 C   0  0  0  0  0  0  0  0  0  0  0  0
  -18.9543  -19.9653  133.9260 C   0  0  0  0  0  0  0  0  0  0  0  0
  -18.8648  -21.3514  133.3067 C   0  0  0  0  0  0  0  0  0  0  0  0
  -17.5353  -21.8572  132.6900 C   0  0  0  0  0  0  0  0  0  0  0  0
  -17.6238  -21.8401  131.1588 C   0  0  0  0  0  0  0  0  0  0  0  0
  -17.4503  -20.4326  130.5097 C   0  0  0  0  0  0  0  0  0  0  0  0
  -16.4886  -20.4828  129.2978 C   0  0  0  0  0  0  0  0  0  0  0  0
  -15.0275  -20.7424  129.7083 C   0  0  0  0  0  0  0  0  0  0  0  0
  -17.1139  -19.2399  131.4692 C   0  0  0  0  0  0  0  0  0  0  0  0
  -18.8723  -21.2322  134.8246 C   0  0  0  0  0  0  0  0  0  0  0  0
  -14.4558  -22.1190  129.3700 C   0  0  0  0  0  0  0  0  0  0  0  0
  -16.6125  -19.5798  132.9062 C   0  0  0  0  0  0  0  0  0  0  0  0
  -17.6291  -19.1582  133.9804 C   0  0  0  0  0  0  0  0  0  0  0  0
  -13.3152  -22.6141  130.2755 C   0  0  0  0  0  0  0  0  0  0  0  0
  -13.7780  -23.7468  131.2082 C   0  0  0  0  0  0  0  0  0  0  0  0
  -16.3060  -21.0566  133.1093 C   0  0  0  0  0  0  0  0  0  0  0  0
  -13.9178  -25.1149  130.5080 C   0  0  0  0  0  0  0  0  0  0  0  0
  -11.8656  -26.3208  131.4506 C   0  0  0  0  0  0  0  0  0  0  0  0
  -14.0852  -20.9082  128.5228 C   0  0  0  0  0  0  0  0  0  0  0  0
  -12.5756  -25.8043  130.1972 C   0  0  0  0  0  0  0  0  0  0  0  0
  2  1  1  0
  3  2  1  0
  4  3  1  0
  5  4  1  0
  6  5  1  0
  7  6  1  0
  8  7  1  0
  9  6  1  0
 10  1  1  0
 10  2  1  0
 10  3  1  0
 11  8  1  0
 12  9  1  0
 13  2  1  0
 13 12  1  0
 14 11  1  0
 15 14  1  0
 16  4  1  0
 16 12  1  0
 17 15  1  0
 19  8  1  0
 19 11  1  0
 20 17  1  0
 20 18  1  0
M  END
$$$$

     RDKit          3D

 25 31  0  0  0  0  0  0  0  0999 V2000
  -22.2469  -21.5009  127.5287 O   0  0  0  0  0  0  0  0  0  0  0  0
  -20.2950  -22.5870  129.0148 C   0  0  0  0  0  0  0  0  0  0  0  0
  -21.1239  -23.8004  129.2754 O   0  0  0  0  0  0  0  0  0  0  0  0
  -21.7755  -22.2298  126.4338 C   0  0  0  0  0  0  0  0  0  0  0  0
  -21.1740  -21.2731  128.4413 C   0  0  0  0  0  0  0  0  0  0  0  0
  -24.8466  -26.3585  130.6658 C   0  0  0  0  0  0  0  0  0  0  0  0
  -22.0338  -22.3188  131.2329 C   0  0  0  0  0  0  0  0  0  0  0  0
  -21.9294  -20.7070  130.8662 C   0  0  0  0  0  0  0  0  0  0  0  0
  -23.4460  -25.2241  130.8049 C   0  0  0  0  0  0  0  0  0  0  0  0
  -26.3237  -27.0466  131.2790 C   0  0  0  0  0  0  0  0  0  0  0  0
  -22.1347  -23.7972  130.4384 C   0  0  0  0  0  0  0  0  0  0  0  0
  -22.7065  -19.7198  131.7911 C   0  0  0  0  0  0  0  0  0  0  0  0
  -21.9576  -18.4297  131.7120 C   0  0  0  0  0  0  0  0  0  0  0  0
  -22.5347  -18.7696  133.0894 C   0  0  0  0  0  0  0  0  0  0  0  0
  -23.7424  -17.8901  133.3152 N   0  0  0  0  0  0  0  0  0  0  0  0
  -21.4585  -20.2302  129.4939 N   0  0  0  0  0  0  0  0  0  0  0  0
  -24.8071  -18.1368  134.2857 C   0  0  0  0  0  0  0  0  0  0  0  0
  -24.1562  -20.8942  129.6071 C   0  0  0  0  0  0  0  0  0  0  0  0
  -23.1307  -18.7737  130.6600 C   0  0  0  0  0  0  0  0  0  0  0  0
  -24.5198  -22.4371  129.3969 C   0  0  0  0  0  0  0  0  0  0  0  0
  -25.1548  -16.9711  135.2101 C   0  0  0  0  0  0  0  0  0  0  0  0
  -25.5429  -15.9088  134.4614 O   0  0  0  0  0  0  0  0  0  0  0  0
  -25.9064  -17.1553  133.9406 C   0  0  0  0  0  0  0  0  0  0  0  0
  -22.8913  -20.0601  129.8812 C   0  0  0  0  0  0  0  0  0  0  0  0
  -24.1555  -23.4027  128.1617 C   0  0  0  0  0  0  0  0  0  0  0  0
  3  2  1  0
  4  1  1  0
  5  1  1  0
  5  2  1  0
  8  7  1  0
  9  6  1  0
 10  6  1  0
 11  3  1  0
 11  7  1  0
 11  9  1  0
 12  8  1  0
 13 12  1  0
 14 12  1  0
 14 13  1  0
 15 14  1  0
 16  5  1  0
 16  8  1  0
 17 15  1  0
 19 12  1  0
 19 13  1  0
 20 18  1  0
 21 17  1  0
 22 21  1  0
 23 17  1  0
 23 21  1  0
 23 22  1  0
 24  8  1  0
 24 16  1  0
 24 18  1  0
 24 19  1  0
 25 20  1  0
M  END
$$$$

     RDKit          3D

 25 28  0  0  0  0  0  0  0  0999 V2000
  -29.2019  -20.2908  136.6091 O   0  0  0  0  0  0  0  0  0  0  0  0
  -26.7676  -20.2511  136.7714 C   0  0  0  0  0  0  0  0  0  0  0  0
  -25.6720  -19.4012  136.4924 O   0  0  0  0  0  0  0  0  0  0  0  0
  -27.8659  -20.1076  134.5732 C   0  0  0  0  0  0  0  0  0  0  0  0
  -29.0207  -20.6798  134.0340 O   0  0  0  0  0  0  0  0  0  0  0  0
  -28.0307  -19.6841  136.0681 C   0  0  0  0  0  0  0  0  0  0  0  0
  -28.0041  -19.0462  133.5372 C   0  0  0  0  0  0  0  0  0  0  0  0
  -29.9486  -19.5707  137.6011 C   0  0  0  0  0  0  0  0  0  0  0  0
  -31.4710  -19.4791  137.2310 C   0  0  0  0  0  0  0  0  0  0  0  0
  -29.3998  -18.3546  138.4212 C   0  0  0  0  0  0  0  0  0  0  0  0
  -29.1029  -19.7559  133.0634 O   0  0  0  0  0  0  0  0  0  0  0  0
  -26.0566  -19.5169  137.8389 C   0  0  0  0  0  0  0  0  0  0  0  0
  -32.1288  -18.0728  136.8416 C   0  0  0  0  0  0  0  0  0  0  0  0
  -33.6720  -18.2096  136.7131 C   0  0  0  0  0  0  0  0  0  0  0  0
  -34.3770  -17.8417  135.6873 N   0  0  0  0  0  0  0  0  0  0  0  0
  -31.3811  -17.1756  135.7773 C   0  0  0  0  0  0  0  0  0  0  0  0
  -31.2510  -17.8072  134.3907 C   0  0  0  0  0  0  0  0  0  0  0  0
  -31.6197  -18.3571  140.0744 C   0  0  0  0  0  0  0  0  0  0  0  0
  -31.9014  -19.8297  139.8225 C   0  0  0  0  0  0  0  0  0  0  0  0
  -33.1914  -18.9377  133.8042 C   0  0  0  0  0  0  0  0  0  0  0  0
  -32.2469  -20.2113  138.3644 C   0  0  0  0  0  0  0  0  0  0  0  0
  -31.9764  -15.7406  135.7088 C   0  0  0  0  0  0  0  0  0  0  0  0
  -30.3021  -17.7122  139.5332 C   0  0  0  0  0  0  0  0  0  0  0  0
  -32.4550  -17.7503  133.6699 O   0  0  0  0  0  0  0  0  0  0  0  0
  -34.5137  -18.5948  134.4573 C   0  0  0  0  0  0  0  0  0  0  0  0
  3  2  1  0
  5  4  1  0
  6  1  1  0
  6  2  1  0
  6  4  1  0
  7  4  1  0
  8  1  1  0
  9  8  1  0
 10  8  1  0
 11  5  1  0
 11  7  1  0
 12  2  1  0
 12  3  1  0
 13  9  1  0
 14 13  1  0
 15 14  2  3
 16 13  1  0
 17 16  1  0
 19 18  1  0
 21  9  1  0
 21 19  1  0
 22 16  1  0
 23 10  1  0
 23 18  1  0
 24 17  1  0
 24 20  1  0
 25 15  1  0
 25 20  1  0
M  END
$$$$

     RDKit          3D

 25 28  0  0  0  0  0  0  0  0999 V2000
  -25.5746  -17.4045  137.0816 N   0  0  0  0  0  0  0  0  0  0  0  0
  -26.6891  -15.1677  136.9769 C   0  0  0  0  0  0  0  0  0  0  0  0
  -27.5470  -14.3957  136.5570 O   0  0  0  0  0  0  0  0  0  0  0  0
  -24.4693  -16.7350  137.1547 C   0  0  0  0  0  0  0  0  0  0  0  0
  -23.1161  -16.9082  137.7509 N   0  0  0  0  0  0  0  0  0  0  0  0
  -24.2480  -15.2737  137.0289 C   0  0  0  0  0  0  0  0  0  0  0  0
  -25.4569  -14.6100  137.6799 C   0  0  0  0  0  0  0  0  0  0  0  0
  -26.7908  -16.6809  136.6956 C   0  0  0  0  0  0  0  0  0  0  0  0
  -23.0002  -15.4559  137.7668 C   0  0  0  0  0  0  0  0  0  0  0  0
  -21.7815  -14.8314  137.0596 C   0  0  0  0  0  0  0  0  0  0  0  0
  -21.4669  -15.0571  135.5866 C   0  0  0  0  0  0  0  0  0  0  0  0
  -18.6552  -13.9119  135.6583 C   0  0  0  0  0  0  0  0  0  0  0  0
  -19.9489  -14.7767  135.8932 C   0  0  0  0  0  0  0  0  0  0  0  0
  -20.2909  -14.8650  137.4695 C   0  0  0  0  0  0  0  0  0  0  0  0
  -21.7602  -16.4442  135.0033 C   0  0  0  0  0  0  0  0  0  0  0  0
  -20.4521  -12.1154  135.3279 C   0  0  0  0  0  0  0  0  0  0  0  0
  -19.6385  -16.1709  138.1217 C   0  0  0  0  0  0  0  0  0  0  0  0
  -20.0872  -16.6782  139.5614 C   0  0  0  0  0  0  0  0  0  0  0  0
  -21.0828  -16.8167  141.9011 C   0  0  0  0  0  0  0  0  0  0  0  0
  -19.8567  -13.6738  138.3887 C   0  0  0  0  0  0  0  0  0  0  0  0
  -21.1187  -16.0356  140.5739 C   0  0  0  0  0  0  0  0  0  0  0  0
  -21.5929  -11.6034  134.4362 C   0  0  0  0  0  0  0  0  0  0  0  0
  -19.8414  -13.5090  134.8999 C   0  0  0  0  0  0  0  0  0  0  0  0
  -19.4097  -17.4156  137.2031 C   0  0  0  0  0  0  0  0  0  0  0  0
  -19.6983  -13.8401  133.3639 C   0  0  0  0  0  0  0  0  0  0  0  0
  3  2  2  0
  4  1  2  0
  5  4  1  0
  6  4  1  0
  7  2  1  0
  7  6  1  0
  8  1  1  0
  8  2  1  0
  9  5  1  0
  9  6  1  0
 10  9  1  0
 11 10  1  0
 13 11  1  0
 13 12  1  0
 14 10  1  0
 14 13  1  0
 15 11  1  0
 17 14  1  0
 18 17  1  0
 20 14  1  0
 21 18  1  0
 21 19  1  0
 22 16  1  0
 23 12  1  0
 23 13  1  0
 23 16  1  0
 24 17  1  0
 25 23  1  0
M  END
$$$$

     RDKit          3D

 25 36  0  0  0  0  0  0  0  0999 V2000
  -18.8707  -10.6154  140.7556 O   0  0  0  0  0  0  0  0  0  0  0  0
  -19.1496  -11.5662  141.7439 C   0  0  0  0  0  0  0  0  0  0  0  0
  -20.4618  -11.3539  142.5648 C   0  0  0  0  0  0  0  0  0  0  0  0
  -21.0943  -10.3445  143.5812 C   0  0  0  0  0  0  0  0  0  0  0  0
  -19.0141  -10.9101  143.0228 C   0  0  0  0  0  0  0  0  0  0  0  0
  -22.4316  -10.5169  144.3306 C   0  0  0  0  0  0  0  0  0  0  0  0
  -21.1542  -11.1766  144.8936 C   0  0  0  0  0  0  0  0  0  0  0  0
  -23.5486  -11.2557  143.5694 C   0  0  0  0  0  0  0  0  0  0  0  0
  -24.4519  -11.9866  144.5203 C   0  0  0  0  0  0  0  0  0  0  0  0
  -18.2350  -13.1524  143.6962 C   0  0  0  0  0  0  0  0  0  0  0  0
  -22.8735   -9.3641  145.2380 C   0  0  0  0  0  0  0  0  0  0  0  0
  -25.7017  -11.6264  146.4186 C   0  0  0  0  0  0  0  0  0  0  0  0
  -20.7038  -12.6383  144.5697 C   0  0  0  0  0  0  0  0  0  0  0  0
  -26.5494   -9.7118  145.2203 Si  0  0  0  0  0  4  0  0  0  0  0  0
  -26.5509  -10.4800  146.9328 C   0  0  0  0  0  0  0  0  0  0  0  0
  -17.9998  -11.9488  142.7129 C   0  0  0  0  0  0  0  0  0  0  0  0
  -26.0625   -9.0898  146.9299 C   0  0  0  0  0  0  0  0  0  0  0  0
  -19.1837  -12.8819  144.9368 C   0  0  0  0  0  0  0  0  0  0  0  0
  -20.2414  -14.0544  142.4595 C   0  0  0  0  0  0  0  0  0  0  0  0
  -25.1620   -9.3583  144.0762 C   0  0  0  0  0  0  0  0  0  0  0  0
  -18.8001  -14.3342  142.9161 C   0  0  0  0  0  0  0  0  0  0  0  0
  -20.8853  -12.7712  143.0753 C   0  0  0  0  0  0  0  0  0  0  0  0
  -23.9576   -8.5348  144.5752 C   0  0  0  0  0  0  0  0  0  0  0  0
  -25.8591  -11.4577  144.8695 C   0  0  0  0  0  0  0  0  0  0  0  0
  -24.9931  -10.8333  143.7037 C   0  0  0  0  0  0  0  0  0  0  0  0
  2  1  1  0
  3  2  1  0
  4  3  1  0
  5  2  1  0
  5  3  1  0
  6  4  1  0
  7  4  1  0
  7  6  1  0
  8  6  1  0
  9  8  1  0
 11  6  1  0
 13  7  1  0
 15 12  1  0
 15 14  1  0
 16  2  1  0
 16  5  1  0
 16 10  1  0
 17 14  1  0
 17 15  1  0
 18 10  1  0
 18 13  1  0
 20 14  1  0
 21 10  1  0
 21 19  1  0
 22  3  1  0
 22 13  1  0
 22 19  1  0
 23 11  1  0
 23 20  1  0
 24  9  1  0
 24 12  1  0
 24 14  1  0
 25  8  1  0
 25  9  1  0
 25 20  1  0
 25 24  1  0
M  END
$$$$

     RDKit          3D

 25 29  0  0  0  0  0  0  0  0999 V2000
  -24.7240    2.1265  132.5242 C   0  0  0  0  0  0  0  0  0  0  0  0
  -25.4699    2.5198  133.7929 C   0  0  0  0  0  0  0  0  0  0  0  0
  -23.8530    3.2439  131.9791 C   0  0  0  0  0  0  0  0  0  0  0  0
  -26.7173    3.3792  133.5529 C   0  0  0  0  0  0  0  0  0  0  0  0
  -24.0178    0.7543  132.5934 C   0  0  0  0  0  0  0  0  0  0  0  0
  -24.1714    3.2402  133.4685 C   0  0  0  0  0  0  0  0  0  0  0  0
  -27.9962    2.5345  133.4949 C   0  0  0  0  0  0  0  0  0  0  0  0
  -28.0052    1.5710  132.2949 C   0  0  0  0  0  0  0  0  0  0  0  0
  -22.9903    2.8402  134.3817 C   0  0  0  0  0  0  0  0  0  0  0  0
  -29.3907    0.9491  132.0505 C   0  0  0  0  0  0  0  0  0  0  0  0
  -30.3345    1.9084  131.3093 C   0  0  0  0  0  0  0  0  0  0  0  0
  -31.6735    1.2316  130.9815 C   0  0  0  0  0  0  0  0  0  0  0  0
  -32.6927    2.2110  130.3772 C   0  0  0  0  0  0  0  0  0  0  0  0
  -32.3174    2.6618  128.9593 C   0  0  0  0  0  0  0  0  0  0  0  0
  -33.3655    3.5800  128.4049 C   0  0  0  0  0  0  0  0  0  0  0  0
  -34.4745    3.1584  127.4885 C   0  0  0  0  0  0  0  0  0  0  0  0
  -34.1522    2.4930  126.2993 O   0  0  0  0  0  0  0  0  0  0  0  0
  -35.2256    4.4689  127.2043 C   0  0  0  0  0  0  0  0  0  0  0  0
  -34.5867    5.4473  128.0718 N   0  0  0  0  0  0  0  0  0  0  0  0
  -33.4721    4.8591  128.7144 C   0  0  0  0  0  0  0  0  0  0  0  0
  -35.9360    3.3170  127.9035 C   0  0  0  0  0  0  0  0  0  0  0  0
  -36.9704    2.5975  127.0228 C   0  0  0  0  0  0  0  0  0  0  0  0
  -38.7053    1.6055  127.8325 C   0  0  0  0  0  0  0  0  0  0  0  0
  -37.2792    1.1828  127.5062 C   0  0  0  0  0  0  0  0  0  0  0  0
  -38.4031    3.0148  127.3432 C   0  0  0  0  0  0  0  0  0  0  0  0
  2  1  1  0
  3  1  1  0
  4  2  1  0
  5  1  1  0
  6  1  1  0
  6  2  1  0
  6  3  1  0
  7  4  1  0
  8  7  1  0
  9  6  1  0
 10  8  1  0
 11 10  1  0
 12 11  1  0
 13 12  1  0
 14 13  1  0
 15 14  1  0
 16 15  1  0
 17 16  1  0
 18 16  1  0
 19 18  1  0
 20 15  2  0
 20 19  1  0
 21 16  1  0
 21 18  1  0
 22 21  1  0
 24 22  1  0
 24 23  1  0
 25 22  1  0
 25 23  1  0
M  END
$$$$

     RDKit          3D

 25 29  0  0  0  0  0  0  0  0999 V2000
  -18.2750  -19.9099  134.0755 C   0  0  0  0  0  0  0  0  0  0  0  0
  -17.0333  -19.0304  133.7585 C   0  0  0  0  0  0  0  0  0  0  0  0
  -17.0845  -18.6910  132.2241 C   0  0  0  0  0  0  0  0  0  0  0  0
  -18.3518  -20.7321  135.3714 C   0  0  0  0  0  0  0  0  0  0  0  0
  -19.3644  -21.8883  135.1766 C   0  0  0  0  0  0  0  0  0  0  0  0
  -18.9049  -22.9533  134.1510 C   0  0  0  0  0  0  0  0  0  0  0  0
  -19.3235  -24.2251  131.9301 C   0  0  0  0  0  0  0  0  0  0  0  0
  -17.8472  -24.2087  131.5381 C   0  0  0  0  0  0  0  0  0  0  0  0
  -16.5645  -17.2980  131.8426 C   0  0  0  0  0  0  0  0  0  0  0  0
  -17.0046  -23.2021  131.2196 C   0  0  0  0  0  0  0  0  0  0  0  0
  -16.4230  -17.1980  130.3038 C   0  0  0  0  0  0  0  0  0  0  0  0
  -17.1037  -21.7598  131.5465 C   0  0  0  0  0  0  0  0  0  0  0  0
  -16.2331  -21.1950  132.4297 C   0  0  0  0  0  0  0  0  0  0  0  0
  -15.0585  -17.6638  129.7179 C   0  0  0  0  0  0  0  0  0  0  0  0
  -14.1641  -16.4634  129.5198 C   0  0  0  0  0  0  0  0  0  0  0  0
  -15.2097  -22.0591  133.1337 C   0  0  0  0  0  0  0  0  0  0  0  0
  -18.3427  -18.4183  134.2771 C   0  0  0  0  0  0  0  0  0  0  0  0
  -14.6484  -15.3879  128.8744 C   0  0  0  0  0  0  0  0  0  0  0  0
  -19.9060  -23.2657  133.0054 C   0  0  0  0  0  0  0  0  0  0  0  0
  -17.6778  -17.2293  129.3904 C   0  0  0  0  0  0  0  0  0  0  0  0
  -20.5093  -22.1213  132.3267 N   0  0  0  0  0  0  0  0  0  0  0  0
  -16.0926  -19.6923  132.6960 C   0  0  0  0  0  0  0  0  0  0  0  0
  -19.0994  -17.2166  129.9802 C   0  0  0  0  0  0  0  0  0  0  0  0
  -16.0826  -15.4144  128.4308 C   0  0  0  0  0  0  0  0  0  0  0  0
  -16.9481  -15.9016  129.6194 C   0  0  0  0  0  0  0  0  0  0  0  0
  2  1  1  0
  3  2  1  0
  4  1  1  0
  5  4  1  0
  6  5  1  0
  8  7  1  0
  9  3  1  0
 10  8  2  3
 11  9  1  0
 12 10  1  0
 13 12  2  3
 14 11  1  0
 15 14  1  0
 16 13  1  0
 17  1  1  0
 17  2  1  0
 18 15  2  0
 19  6  1  0
 19  7  1  0
 20 11  1  0
 21 19  1  0
 22  2  1  0
 22  3  1  0
 22 13  1  0
 23 20  1  0
 24 18  1  0
 25 11  1  0
 25 20  1  0
 25 24  1  0
M  END
$$$$

     RDKit          3D

 25 29  0  0  0  0  0  0  0  0999 V2000
  -26.4730   -9.7125  144.0703 O   0  0  0  0  0  0  0  0  0  0  0  0
  -25.6178  -10.8765  144.1440 C   0  0  0  0  0  0  0  0  0  0  0  0
  -26.0860  -13.1174  143.8625 C   0  0  0  0  0  0  0  0  0  0  0  0
  -27.5023  -11.5953  142.5596 C   0  0  0  0  0  0  0  0  0  0  0  0
  -28.6288  -11.9190  143.4214 O   0  0  0  0  0  0  0  0  0  0  0  0
  -25.6705  -12.1417  145.0259 C   0  0  0  0  0  0  0  0  0  0  0  0
  -26.6256   -8.8244  145.1573 C   0  0  0  0  0  0  0  0  0  0  0  0
  -26.0980  -11.8196  143.0670 C   0  0  0  0  0  0  0  0  0  0  0  0
  -27.2771   -7.5171  144.5375 C   0  0  0  0  0  0  0  0  0  0  0  0
  -29.0649  -10.7040  143.9072 F   0  0  0  0  0  0  0  0  0  0  0  0
  -24.0846  -13.0208  140.8877 C   0  0  0  0  0  0  0  0  0  0  0  0
  -26.4481  -13.9447  141.6913 Al  0  0  0  0  0  3  0  0  0  0  0  0
  -28.6460  -12.1613  140.5991 O   0  0  0  0  0  0  0  0  0  0  0  0
  -29.4926  -10.5834  139.0302 C   0  0  0  0  0  0  0  0  0  0  0  0
  -28.1789  -11.2994  139.5224 C   0  0  0  0  0  0  0  0  0  0  0  0
  -25.1571  -13.0190  139.1835 C   0  0  0  0  0  0  0  0  0  0  0  0
  -27.5270  -12.4231  141.3367 N   0  0  0  0  0  0  0  0  0  0  0  0
  -28.9477   -8.6349  145.8434 C   0  0  0  0  0  0  0  0  0  0  0  0
  -25.5656  -10.6602  139.3747 C   0  0  0  0  0  0  0  0  0  0  0  0
  -26.9928  -10.2249  139.7420 C   0  0  0  0  0  0  0  0  0  0  0  0
  -24.6639  -11.7803  140.0185 C   0  0  0  0  0  0  0  0  0  0  0  0
  -28.7410   -7.9454  144.4970 C   0  0  0  0  0  0  0  0  0  0  0  0
  -29.7821   -6.7872  144.3382 C   0  0  0  0  0  0  0  0  0  0  0  0
  -27.6684   -9.3759  146.1641 C   0  0  0  0  0  0  0  0  0  0  0  0
  -24.9667  -14.0042  140.3091 N   0  0  0  0  0  0  0  0  0  0  0  0
  2  1  1  0
  5  4  1  0
  6  2  1  0
  6  3  1  0
  7  1  1  0
  8  2  1  0
  8  3  1  0
  8  4  1  0
  9  7  1  0
 10  5  1  0
 12  3  1  0
 15 13  1  0
 15 14  1  0
 17  4  1  0
 17 12  1  0
 17 13  1  0
 20 15  1  0
 20 19  1  0
 21 11  1  0
 21 16  1  0
 21 19  1  0
 22  9  1  0
 22 18  1  0
 23 22  1  0
 24  7  1  0
 24 18  1  0
 25 11  1  0
 25 12  1  0
 25 16  1  0
M  END
$$$$

     RDKit          3D

 25 31  0  0  0  0  0  0  0  0999 V2000
  -18.4591   -4.9124  143.1041 O   0  0  0  0  0  0  0  0  0  0  0  0
  -17.2720   -5.2464  143.8458 C   0  0  0  0  0  0  0  0  0  0  0  0
  -17.8427  -10.1378  142.8890 Sb  0  0  0  0  0  3  0  0  0  0  0  0
  -17.3098   -5.1580  145.2738 O   0  0  0  0  0  0  0  0  0  0  0  0
  -15.9593   -4.8702  143.1477 C   0  0  0  0  0  0  0  0  0  0  0  0
  -14.7973   -4.0760  143.8632 C   0  0  0  0  0  0  0  0  0  0  0  0
  -13.4666   -4.7471  143.8925 C   0  0  0  0  0  0  0  0  0  0  0  0
  -17.8607   -9.0232  144.7679 C   0  0  0  0  0  0  0  0  0  0  0  0
  -16.4732   -8.3789  145.1081 C   0  0  0  0  0  0  0  0  0  0  0  0
  -18.5898   -8.2233  143.7727 C   0  0  0  0  0  0  0  0  0  0  0  0
  -14.1713   -4.4132  145.2330 C   0  0  0  0  0  0  0  0  0  0  0  0
  -16.4046   -6.3722  143.1964 C   0  0  0  0  0  0  0  0  0  0  0  0
  -15.7011   -7.5606  144.0077 C   0  0  0  0  0  0  0  0  0  0  0  0
  -14.8066   -5.5460  146.0267 C   0  0  0  0  0  0  0  0  0  0  0  0
  -20.2683   -6.6710  142.9289 C   0  0  0  0  0  0  0  0  0  0  0  0
  -15.0039   -3.1134  145.0390 C   0  0  0  0  0  0  0  0  0  0  0  0
  -19.6997   -5.3761  143.6404 C   0  0  0  0  0  0  0  0  0  0  0  0
  -16.5112   -2.7805  145.2523 C   0  0  0  0  0  0  0  0  0  0  0  0
  -20.0795   -8.0058  143.7371 C   0  0  0  0  0  0  0  0  0  0  0  0
  -15.4820   -5.4437  147.1692 C   0  0  0  0  0  0  0  0  0  0  0  0
  -14.7865   -4.9668  149.4181 C   0  0  0  0  0  0  0  0  0  0  0  0
  -17.7731   -3.8166  147.3173 C   0  0  0  0  0  0  0  0  0  0  0  0
  -16.5687   -3.4585  148.2551 C   0  0  0  0  0  0  0  0  0  0  0  0
  -15.2892   -4.3136  148.1186 C   0  0  0  0  0  0  0  0  0  0  0  0
  -17.5457   -3.8436  145.7468 C   0  0  0  0  0  0  0  0  0  0  0  0
  2  1  1  0
  4  2  1  0
  5  2  1  0
  6  5  1  0
  7  6  1  0
  8  3  1  0
  9  8  1  0
 10  3  1  0
 10  8  1  0
 11  6  1  0
 11  7  1  0
 12  2  1  0
 12  5  1  0
 13  9  1  0
 13 12  1  0
 14 11  1  0
 16  6  1  0
 16 11  1  0
 17  1  1  0
 17 15  1  0
 18 16  1  0
 19 10  1  0
 19 15  1  0
 20 14  2  3
 23 22  1  0
 24 20  1  0
 24 21  1  0
 24 23  1  0
 25  4  1  0
 25 18  1  0
 25 22  1  0
M  END
$$$$

     RDKit          3D

 24 30  0  0  0  0  0  0  0  0999 V2000
  -23.2206  -10.5683  140.7116 C   0  0  0  0  0  0  0  0  0  0  0  0
  -24.0042   -9.3413  141.0105 C   0  0  0  0  0  0  0  0  0  0  0  0
  -23.3010  -11.0301  139.2636 C   0  0  0  0  0  0  0  0  0  0  0  0
  -23.3874   -7.9863  141.3969 C   0  0  0  0  0  0  0  0  0  0  0  0
  -23.8152   -9.6614  139.5560 C   0  0  0  0  0  0  0  0  0  0  0  0
  -23.6959   -7.5240  142.8437 C   0  0  0  0  0  0  0  0  0  0  0  0
  -31.4344  -14.3720  138.6005 S   0  0  0  0  0  0  0  0  0  0  0  0
  -30.9944  -12.0065  139.5965 C   0  0  0  0  0  0  0  0  0  0  0  0
  -31.7403  -12.5836  138.4064 C   0  0  0  0  0  0  0  0  0  0  0  0
  -24.3148   -8.5145  143.8401 C   0  0  0  0  0  0  0  0  0  0  0  0
  -29.6737  -13.8788  138.8932 C   0  0  0  0  0  0  0  0  0  0  0  0
  -30.5788  -12.1440  137.5113 C   0  0  0  0  0  0  0  0  0  0  0  0
  -24.7117   -6.5151  142.3025 C   0  0  0  0  0  0  0  0  0  0  0  0
  -24.4844   -5.0661  142.7382 C   0  0  0  0  0  0  0  0  0  0  0  0
  -24.2749   -6.8479  140.8657 C   0  0  0  0  0  0  0  0  0  0  0  0
  -29.7547  -12.3457  138.7637 C   0  0  0  0  0  0  0  0  0  0  0  0
  -22.8126   -9.8356  138.4274 C   0  0  0  0  0  0  0  0  0  0  0  0
  -24.5072  -11.8989  138.7740 C   0  0  0  0  0  0  0  0  0  0  0  0
  -24.1266  -13.3761  138.8176 C   0  0  0  0  0  0  0  0  0  0  0  0
  -27.0880  -12.2575  138.7910 C   0  0  0  0  0  0  0  0  0  0  0  0
  -25.8469  -11.6694  139.5319 C   0  0  0  0  0  0  0  0  0  0  0  0
  -28.4516  -11.5052  138.9470 C   0  0  0  0  0  0  0  0  0  0  0  0
  -27.6184  -11.3844  137.6535 C   0  0  0  0  0  0  0  0  0  0  0  0
  -28.5022  -10.2193  139.7956 C   0  0  0  0  0  0  0  0  0  0  0  0
  2  1  1  0
  3  1  1  0
  4  2  1  0
  5  1  1  0
  5  2  1  0
  5  3  1  0
  6  4  1  0
  9  7  1  0
  9  8  1  0
 10  6  1  0
 11  7  1  0
 12  9  1  0
 13  6  1  0
 14 13  1  0
 15  4  1  0
 15 13  1  0
 16  8  1  0
 16 11  1  0
 16 12  1  0
 17  3  1  0
 17  5  1  0
 18  3  1  0
 19 18  1  0
 21 18  1  0
 21 20  1  0
 22 16  1  0
 22 20  1  0
 23 20  1  0
 23 22  1  0
 24 22  1  0
M  END
$$$$

     RDKit          3D

  9  8  0  0  0  0  0  0  0  0999 V2000
  -30.6292   -8.9006  140.1112 C   0  0  0  0  0  0  0  0  0  0  0  0
  -32.6567   -9.7878  141.0331 F   0  0  0  0  0  0  0  0  0  0  0  0
  -29.8529   -8.8114  141.4399 C   0  0  0  0  0  0  0  0  0  0  0  0
  -30.2913   -9.7972  142.3087 F   0  0  0  0  0  0  0  0  0  0  0  0
  -30.1892   -7.9165  139.2416 F   0  0  0  0  0  0  0  0  0  0  0  0
  -28.3414   -8.9724  141.2438 C   0  0  0  0  0  0  0  0  0  0  0  0
  -27.8322   -7.9305  140.4894 F   0  0  0  0  0  0  0  0  0  0  0  0
  -28.0564  -10.1750  140.6211 F   0  0  0  0  0  0  0  0  0  0  0  0
  -32.1347   -8.7226  140.3210 C   0  0  0  0  0  0  0  0  0  0  0  0
  3  1  1  0
  4  3  1  0
  5  1  1  0
  6  3  1  0
  7  6  1  0
  8  6  1  0
  9  1  1  0
  9  2  1  0
M  END
$$$$

     RDKit          3D

 25 28  0  0  0  0  0  0  0  0999 V2000
  -30.9199   -7.3681  144.8131 N   0  0  0  0  0  0  0  0  0  0  0  0
  -29.9793   -8.5000  144.7956 C   0  0  0  0  0  0  0  0  0  0  0  0
  -29.6763   -9.1717  146.1666 C   0  0  0  0  0  0  0  0  0  0  0  0
  -30.4469   -9.5942  143.8049 C   0  0  0  0  0  0  0  0  0  0  0  0
  -31.0315   -6.6632  143.5035 C   0  0  0  0  0  0  0  0  0  0  0  0
  -31.0270   -7.6344  142.2359 C   0  0  0  0  0  0  0  0  0  0  0  0
  -32.0159   -7.1136  141.0858 C   0  0  0  0  0  0  0  0  0  0  0  0
  -31.3975   -9.0647  142.7201 C   0  0  0  0  0  0  0  0  0  0  0  0
  -29.6014   -7.7444  141.5862 C   0  0  0  0  0  0  0  0  0  0  0  0
  -29.9938   -5.5044  143.4098 C   0  0  0  0  0  0  0  0  0  0  0  0
  -30.8371   -9.4076  147.1259 C   0  0  0  0  0  0  0  0  0  0  0  0
  -30.3446   -4.3051  144.3244 C   0  0  0  0  0  0  0  0  0  0  0  0
  -29.6681   -8.5222  147.5634 C   0  0  0  0  0  0  0  0  0  0  0  0
  -29.0822   -3.6048  144.8992 C   0  0  0  0  0  0  0  0  0  0  0  0
  -28.7743   -3.9748  146.3816 C   0  0  0  0  0  0  0  0  0  0  0  0
  -30.0975   -7.0843  147.8975 C   0  0  0  0  0  0  0  0  0  0  0  0
  -28.8772   -6.1156  147.9558 C   0  0  0  0  0  0  0  0  0  0  0  0
  -29.0524   -5.0227  149.0249 C   0  0  0  0  0  0  0  0  0  0  0  0
  -29.7791   -3.2722  147.3420 C   0  0  0  0  0  0  0  0  0  0  0  0
  -28.5834   -5.5147  146.5577 C   0  0  0  0  0  0  0  0  0  0  0  0
  -30.1485   -4.0490  148.6168 C   0  0  0  0  0  0  0  0  0  0  0  0
  -33.4341   -6.5804  141.4683 C   0  0  0  0  0  0  0  0  0  0  0  0
  -35.7982   -7.1658  142.1580 C   0  0  0  0  0  0  0  0  0  0  0  0
  -34.3226   -7.5468  142.2683 C   0  0  0  0  0  0  0  0  0  0  0  0
  -32.1502   -8.0917  139.8916 C   0  0  0  0  0  0  0  0  0  0  0  0
  2  1  1  0
  3  2  1  0
  4  2  1  0
  5  1  1  0
  6  5  1  0
  7  6  1  0
  8  4  1  0
  8  6  1  0
  9  6  1  0
 10  5  1  0
 11  3  1  0
 12 10  1  0
 13  3  1  0
 13 11  1  0
 14 12  1  0
 15 14  1  0
 16 13  1  0
 17 16  1  0
 18 17  1  0
 19 15  1  0
 20 15  1  0
 20 17  1  0
 21 18  1  0
 21 19  1  0
 22  7  1  0
 24 22  1  0
 24 23  1  0
 25  7  1  0
M  END
$$$$

     RDKit          3D

 24 28  0  0  0  0  0  0  0  0999 V2000
  -23.3899   -3.2763  143.4295 C   0  0  0  0  0  0  0  0  0  0  0  0
  -27.3886   -3.6291  144.4494 O   0  0  0  0  0  0  0  0  0  0  0  0
  -24.0348   -3.0287  142.0306 C   0  0  0  0  0  0  0  0  0  0  0  0
  -26.1577   -5.2347  143.1610 O   0  0  0  0  0  0  0  0  0  0  0  0
  -26.9483   -2.8151  143.5068 O   0  0  0  0  0  0  0  0  0  0  0  0
  -23.0881   -2.2358  141.0805 C   0  0  0  0  0  0  0  0  0  0  0  0
  -24.4352   -3.5328  144.5287 C   0  0  0  0  0  0  0  0  0  0  0  0
  -27.1651   -4.9675  144.1023 C   0  0  0  0  0  0  0  0  0  0  0  0
  -23.4472   -4.6766  144.0336 C   0  0  0  0  0  0  0  0  0  0  0  0
  -27.8354   -2.8854  142.3972 C   0  0  0  0  0  0  0  0  0  0  0  0
  -23.4122   -3.7172  140.8117 C   0  0  0  0  0  0  0  0  0  0  0  0
  -23.8504   -1.2902  140.1754 C   0  0  0  0  0  0  0  0  0  0  0  0
  -28.7726   -1.6400  142.3828 C   0  0  0  0  0  0  0  0  0  0  0  0
  -23.3154   -0.1402  139.7292 C   0  0  0  0  0  0  0  0  0  0  0  0
  -29.3756   -2.9993  142.6741 C   0  0  0  0  0  0  0  0  0  0  0  0
  -25.8906   -5.6338  144.4761 C   0  0  0  0  0  0  0  0  0  0  0  0
  -30.1341   -3.8786  141.5843 C   0  0  0  0  0  0  0  0  0  0  0  0
  -31.4908   -3.3614  141.1931 N   0  0  0  0  0  0  0  0  0  0  0  0
  -29.3900   -4.4847  140.3868 C   0  0  0  0  0  0  0  0  0  0  0  0
  -31.7089   -1.9605  140.9085 C   0  0  0  0  0  0  0  0  0  0  0  0
  -31.9993   -1.1271  141.9092 C   0  0  0  0  0  0  0  0  0  0  0  0
  -24.5755   -4.9906  144.9590 C   0  0  0  0  0  0  0  0  0  0  0  0
  -32.5618   -4.3664  140.9987 C   0  0  0  0  0  0  0  0  0  0  0  0
  -24.1481   -2.6979  145.7644 C   0  0  0  0  0  0  0  0  0  0  0  0
  3  1  1  0
  5  2  1  0
  6  3  1  0
  7  1  1  0
  8  2  1  0
  8  4  1  0
  9  1  1  0
  9  7  1  0
 10  5  1  0
 11  3  1  0
 11  6  1  0
 12  6  1  0
 13 10  1  0
 14 12  2  0
 15 10  1  0
 15 13  1  0
 16  4  1  0
 16  8  1  0
 17 15  1  0
 18 17  1  0
 19 17  1  0
 20 18  1  0
 21 20  2  0
 22  7  1  0
 22  9  1  0
 22 16  1  0
 23 18  1  0
 24  7  1  0
M  END
$$$$

     RDKit          3D

 25 28  0  0  0  0  0  0  0  0999 V2000
  -22.4613    1.0707  143.3515 C   0  0  0  0  0  0  0  0  0  0  0  0
  -21.1822    1.6133  143.1474 O   0  0  0  0  0  0  0  0  0  0  0  0
  -23.3340    1.2556  142.1192 C   0  0  0  0  0  0  0  0  0  0  0  0
  -23.0879    1.6651  144.6293 C   0  0  0  0  0  0  0  0  0  0  0  0
  -24.4022    0.2266  141.7894 C   0  0  0  0  0  0  0  0  0  0  0  0
  -25.8019    0.8308  141.5103 C   0  0  0  0  0  0  0  0  0  0  0  0
  -23.4284    3.1729  144.5435 C   0  0  0  0  0  0  0  0  0  0  0  0
  -23.0515    2.1960  141.2866 N   0  0  0  0  0  0  0  0  0  0  0  0
  -24.2816    3.6337  145.7522 C   0  0  0  0  0  0  0  0  0  0  0  0
  -26.4878    1.3750  142.7766 C   0  0  0  0  0  0  0  0  0  0  0  0
  -23.3138    4.3237  146.7038 C   0  0  0  0  0  0  0  0  0  0  0  0
  -22.9075    3.4219  147.8814 C   0  0  0  0  0  0  0  0  0  0  0  0
  -27.6733    0.5665  143.3782 C   0  0  0  0  0  0  0  0  0  0  0  0
  -27.1741   -0.1073  144.6561 C   0  0  0  0  0  0  0  0  0  0  0  0
  -26.7000   -1.5197  144.3881 C   0  0  0  0  0  0  0  0  0  0  0  0
  -21.9642    4.1546  148.8510 C   0  0  0  0  0  0  0  0  0  0  0  0
  -26.9904   -1.9678  142.9733 C   0  0  0  0  0  0  0  0  0  0  0  0
  -27.8899   -0.9405  143.6221 C   0  0  0  0  0  0  0  0  0  0  0  0
  -23.0144   -0.6564  154.9713 As  0  0  0  0  0  3  0  0  0  0  0  0
  -22.1122    2.4346  150.7412 C   0  0  0  0  0  0  0  0  0  0  0  0
  -21.3266    1.4806  151.5842 C   0  0  0  0  0  0  0  0  0  0  0  0
  -21.1972    3.1820  149.7607 C   0  0  0  0  0  0  0  0  0  0  0  0
  -22.1691    4.0119  144.4814 C   0  0  0  0  0  0  0  0  0  0  0  0
  -22.0958    4.5935  145.8005 O   0  0  0  0  0  0  0  0  0  0  0  0
  -21.5395    4.6817  145.3486 O   0  0  0  0  0  0  0  0  0  0  0  0
  2  1  1  0
  3  1  1  0
  4  1  1  0
  5  3  1  0
  6  5  1  0
  7  4  1  0
  8  3  2  0
  9  7  1  0
 10  6  1  0
 11  9  1  0
 12 11  1  0
 13 10  1  0
 14 13  1  0
 15 14  1  0
 16 12  1  0
 17 15  1  0
 18 13  1  0
 18 14  1  0
 18 15  1  0
 18 17  1  0
 21 19  2  0
 21 20  1  0
 22 16  1  0
 22 20  1  0
 23  7  1  0
 24 11  1  0
 24 23  1  0
 25 23  2  0
M  END
$$$$

     RDKit          3D

 25 33  0  0  0  0  0  0  0  0999 V2000
  -25.3355   -4.9163  137.3215 O   0  0  0  0  0  0  0  0  0  0  0  0
  -26.1544   -5.6511  138.1838 C   0  0  0  0  0  0  0  0  0  0  0  0
  -27.2312   -6.4728  137.4391 C   0  0  0  0  0  0  0  0  0  0  0  0
  -28.4062   -7.1503  138.2021 C   0  0  0  0  0  0  0  0  0  0  0  0
  -28.5243   -5.7194  137.8716 C   0  0  0  0  0  0  0  0  0  0  0  0
  -25.9879   -7.1332  138.1347 C   0  0  0  0  0  0  0  0  0  0  0  0
  -23.8555   -7.2297  136.5460 C   0  0  0  0  0  0  0  0  0  0  0  0
  -23.7866   -6.7725  135.0591 C   0  0  0  0  0  0  0  0  0  0  0  0
  -23.0976   -8.5393  136.7774 C   0  0  0  0  0  0  0  0  0  0  0  0
  -22.8768   -9.0801  138.1683 C   0  0  0  0  0  0  0  0  0  0  0  0
  -25.1377   -7.8789  137.0693 C   0  0  0  0  0  0  0  0  0  0  0  0
  -24.3085   -9.0843  137.5576 C   0  0  0  0  0  0  0  0  0  0  0  0
  -25.1208   -6.4231  134.3742 C   0  0  0  0  0  0  0  0  0  0  0  0
  -24.9094  -10.4864  137.7143 C   0  0  0  0  0  0  0  0  0  0  0  0
  -25.6128  -10.6289  139.1104 C   0  0  0  0  0  0  0  0  0  0  0  0
  -24.9205  -10.0635  140.4144 C   0  0  0  0  0  0  0  0  0  0  0  0
  -24.3048   -8.7020  140.1741 C   0  0  0  0  0  0  0  0  0  0  0  0
  -25.7869   -7.6686  133.7552 C   0  0  0  0  0  0  0  0  0  0  0  0
  -25.7801  -10.0799  141.6962 C   0  0  0  0  0  0  0  0  0  0  0  0
  -22.8778   -8.7760  139.6996 C   0  0  0  0  0  0  0  0  0  0  0  0
  -27.2998   -7.7281  133.9166 C   0  0  0  0  0  0  0  0  0  0  0  0
  -26.6987   -7.3946  132.5649 C   0  0  0  0  0  0  0  0  0  0  0  0
  -25.0121   -9.8667  143.0062 C   0  0  0  0  0  0  0  0  0  0  0  0
  -23.3925   -7.4936  140.3062 C   0  0  0  0  0  0  0  0  0  0  0  0
  -23.4191   -9.9497  140.5163 C   0  0  0  0  0  0  0  0  0  0  0  0
  2  1  1  0
  3  2  1  0
  4  3  1  0
  5  3  1  0
  5  4  1  0
  6  2  1  0
  6  3  1  0
  8  7  1  0
  9  7  1  0
 10  9  1  0
 11  6  1  0
 11  7  1  0
 12  9  1  0
 12 10  1  0
 12 11  1  0
 13  8  1  0
 14 12  1  0
 15 14  1  0
 16 15  1  0
 17 16  1  0
 18 13  1  0
 19 16  1  0
 20 10  1  0
 20 17  1  0
 21 18  1  0
 22 18  1  0
 22 21  1  0
 23 19  1  0
 24 17  1  0
 24 20  1  0
 25 16  1  0
 25 17  1  0
 25 20  1  0
M  END
$$$$

     RDKit          3D

 24 28  0  0  0  0  0  0  0  0999 V2000
  -22.7765   -7.0655  143.9675 C   0  0  0  0  0  0  0  0  0  0  0  0
  -22.3988   -8.4333  143.3857 C   0  0  0  0  0  0  0  0  0  0  0  0
  -22.3216   -8.7033  141.8594 C   0  0  0  0  0  0  0  0  0  0  0  0
  -21.0397   -8.3682  140.9619 C   0  0  0  0  0  0  0  0  0  0  0  0
  -23.0615   -9.6285  144.1947 C   0  0  0  0  0  0  0  0  0  0  0  0
  -23.9672   -9.3635  145.4192 C   0  0  0  0  0  0  0  0  0  0  0  0
  -21.0162  -10.4396  139.4753 C   0  0  0  0  0  0  0  0  0  0  0  0
  -23.1892   -5.9760  142.9830 C   0  0  0  0  0  0  0  0  0  0  0  0
  -19.5707  -10.8418  139.1127 C   0  0  0  0  0  0  0  0  0  0  0  0
  -19.0903  -12.0711  137.0077 C   0  0  0  0  0  0  0  0  0  0  0  0
  -22.5400   -9.9498  145.5814 C   0  0  0  0  0  0  0  0  0  0  0  0
  -19.3148  -12.2669  138.5044 C   0  0  0  0  0  0  0  0  0  0  0  0
  -18.1740  -12.8848  139.0627 O   0  0  0  0  0  0  0  0  0  0  0  0
  -21.3036   -7.5321  143.9391 C   0  0  0  0  0  0  0  0  0  0  0  0
  -21.2300   -8.9641  139.6053 N   0  0  0  0  0  0  0  0  0  0  0  0
  -24.7578   -5.7318  142.7964 C   0  0  0  0  0  0  0  0  0  0  0  0
  -20.0069  -13.1883  137.4618 C   0  0  0  0  0  0  0  0  0  0  0  0
  -24.7633   -4.8500  141.5140 C   0  0  0  0  0  0  0  0  0  0  0  0
  -19.0370  -13.4386  136.2917 C   0  0  0  0  0  0  0  0  0  0  0  0
  -23.8091   -5.1822  140.3323 C   0  0  0  0  0  0  0  0  0  0  0  0
  -25.7630   -5.9467  141.5923 C   0  0  0  0  0  0  0  0  0  0  0  0
  -21.5171  -13.1126  136.9978 C   0  0  0  0  0  0  0  0  0  0  0  0
  -22.0198  -14.5784  136.8843 C   0  0  0  0  0  0  0  0  0  0  0  0
  -21.9490  -15.3172  138.1991 C   0  0  0  0  0  0  0  0  0  0  0  0
  2  1  1  0
  3  2  1  0
  4  3  1  0
  5  2  1  0
  6  5  1  0
  8  1  1  0
  9  7  1  0
 11  5  1  0
 11  6  1  0
 12  9  1  0
 12 10  1  0
 13 12  1  0
 14  1  1  0
 14  2  1  0
 15  4  1  0
 15  7  1  0
 16  8  1  0
 17 10  1  0
 17 12  1  0
 18 16  1  0
 19 10  1  0
 19 17  1  0
 20 18  1  0
 21 16  1  0
 21 18  1  0
 22 17  1  0
 23 22  1  0
 24 23  1  0
M  END
$$$$

     RDKit          3D

 25 27  0  0  0  0  0  0  0  0999 V2000
  -26.5905  -12.8689  143.4332 N   0  0  0  0  0  0  0  0  0  0  0  0
  -27.8801  -12.6222  143.1035 C   0  0  0  0  0  0  0  0  0  0  0  0
  -26.0595  -13.8959  142.7094 C   0  0  0  0  0  0  0  0  0  0  0  0
  -26.7978  -15.0466  142.5434 C   0  0  0  0  0  0  0  0  0  0  0  0
  -26.4338  -15.9864  141.5872 C   0  0  0  0  0  0  0  0  0  0  0  0
  -28.8730  -13.5284  143.2967 N   0  0  0  0  0  0  0  0  0  0  0  0
  -29.4950  -13.9451  142.1495 C   0  0  0  0  0  0  0  0  0  0  0  0
  -25.5961  -16.5364  140.6111 C   0  0  0  0  0  0  0  0  0  0  0  0
  -28.1307  -11.9437  141.9147 C   0  0  0  0  0  0  0  0  0  0  0  0
  -26.2572  -17.4534  139.8548 N   0  0  0  0  0  2  0  0  0  0  0  0
  -25.2192  -15.2623  140.1698 C   0  0  0  0  0  0  0  0  0  0  0  0
  -27.1775  -16.7485  139.0822 C   0  0  0  0  0  0  0  0  0  0  0  0
  -27.2957  -16.9008  137.7090 C   0  0  0  0  0  0  0  0  0  0  0  0
  -27.4348  -18.1709  139.7865 B   0  0  0  0  0  2  0  0  0  0  0  0
  -29.4323  -12.1688  141.3982 C   0  0  0  0  0  0  0  0  0  0  0  0
  -28.5929  -12.5272  140.6461 C   0  0  0  0  0  0  0  0  0  0  0  0
  -30.7996  -13.6806  141.8501 C   0  0  0  0  0  0  0  0  0  0  0  0
  -30.6298  -14.6904  140.9627 C   0  0  0  0  0  0  0  0  0  0  0  0
  -27.8612  -15.8473  136.9752 C   0  0  0  0  0  0  0  0  0  0  0  0
  -29.9612  -14.5412  142.2763 C   0  0  0  0  0  0  0  0  0  0  0  0
  -25.9258  -14.1988  140.6594 C   0  0  0  0  0  0  0  0  0  0  0  0
  -25.8162  -14.0970  142.0583 C   0  0  0  0  0  0  0  0  0  0  0  0
  -27.6554  -15.7495  136.9679 C   0  0  0  0  0  0  0  0  0  0  0  0
  -28.2608  -17.1260  137.6134 C   0  0  0  0  0  0  0  0  0  0  0  0
  -25.8266  -12.9860  139.9864 C   0  0  0  0  0  0  0  0  0  0  0  0
  2  1  2  3
  3  1  1  0
  4  3  1  0
  5  4  2  0
  6  2  1  0
  7  6  1  0
  8  5  1  0
  9  2  1  0
 10  8  1  0
 11  8  1  0
 12 10  1  0
 13 12  1  0
 14 12  1  0
 15  9  1  0
 16  9  1  0
 16 15  1  0
 18 17  1  0
 19 13  1  0
 20  7  1  0
 20 17  1  0
 20 18  1  0
 21 11  1  0
 22  3  1  0
 22 21  1  0
 23 19  1  0
 24 13  1  0
 25 21  1  0
M  RAD  2  10   2  14   2
M  END
$$$$

     RDKit          3D

 25 28  0  0  0  0  0  0  0  0999 V2000
  -21.3282   -1.5322  146.8023 O   0  0  0  0  0  0  0  0  0  0  0  0
  -22.7453   -1.5527  146.7503 C   0  0  0  0  0  0  0  0  0  0  0  0
  -24.6937   -2.6052  145.5926 C   0  0  0  0  0  0  0  0  0  0  0  0
  -19.3495   -2.3398  147.9233 C   0  0  0  0  0  0  0  0  0  0  0  0
  -25.5399   -3.6640  146.3142 C   0  0  0  0  0  0  0  0  0  0  0  0
  -23.1676   -2.5914  145.7025 C   0  0  0  0  0  0  0  0  0  0  0  0
  -25.2165   -3.8217  144.8272 C   0  0  0  0  0  0  0  0  0  0  0  0
  -18.3913   -3.9522  146.2950 C   0  0  0  0  0  0  0  0  0  0  0  0
  -19.3241   -3.6072  145.0992 C   0  0  0  0  0  0  0  0  0  0  0  0
  -24.9106   -4.7649  147.2092 C   0  0  0  0  0  0  0  0  0  0  0  0
  -16.9390   -3.3738  146.4301 C   0  0  0  0  0  0  0  0  0  0  0  0
  -25.9211   -5.9349  147.2852 C   0  0  0  0  0  0  0  0  0  0  0  0
  -18.6895   -2.9351  142.7120 C   0  0  0  0  0  0  0  0  0  0  0  0
  -25.5220   -7.1425  148.1169 C   0  0  0  0  0  0  0  0  0  0  0  0
  -16.7482   -1.9622  146.0230 N   0  0  0  0  0  0  0  0  0  0  0  0
  -18.8161   -4.0972  143.7079 C   0  0  0  0  0  0  0  0  0  0  0  0
  -19.1181   -3.7512  147.5647 N   0  0  0  0  0  0  0  0  0  0  0  0
  -25.5359   -7.2490  146.5796 C   0  0  0  0  0  0  0  0  0  0  0  0
  -24.5464   -4.2538  148.6259 C   0  0  0  0  0  0  0  0  0  0  0  0
  -16.0787   -3.0693  145.2906 C   0  0  0  0  0  0  0  0  0  0  0  0
  -24.1501   -7.8259  146.7987 C   0  0  0  0  0  0  0  0  0  0  0  0
  -26.5711   -8.1164  146.1949 O   0  0  0  0  0  0  0  0  0  0  0  0
  -25.5552   -3.3081  149.2731 C   0  0  0  0  0  0  0  0  0  0  0  0
  -20.8594   -2.0738  148.0237 C   0  0  0  0  0  0  0  0  0  0  0  0
  -24.1737   -7.5695  148.1756 O   0  0  0  0  0  0  0  0  0  0  0  0
  2  1  1  0
  5  3  1  0
  6  2  1  0
  6  3  1  0
  7  3  1  0
  7  5  1  0
  9  8  1  0
 10  5  1  0
 11  8  1  0
 12 10  1  0
 14 12  1  0
 15 11  1  0
 16  9  1  0
 16 13  1  0
 17  4  1  0
 17  8  1  0
 18 12  1  0
 18 14  1  0
 19 10  1  0
 20 11  1  0
 20 15  1  0
 21 18  1  0
 22 18  1  0
 23 19  1  0
 24  1  1  0
 24  4  1  0
 25 14  1  0
 25 21  1  0
M  END
$$$$

     RDKit          3D

 25 33  0  0  0  0  0  0  0  0999 V2000
  -22.8404   -8.0411  145.2678 Al  0  0  0  0  0  3  0  0  0  0  0  0
  -20.9735  -10.2995  144.3562 C   0  0  0  0  0  0  0  0  0  0  0  0
  -21.2549  -10.6314  142.9105 C   0  0  0  0  0  0  0  0  0  0  0  0
  -19.4981  -10.1965  144.7152 C   0  0  0  0  0  0  0  0  0  0  0  0
  -22.1056   -9.8926  145.3429 C   0  0  0  0  0  0  0  0  0  0  0  0
  -22.6543  -10.8582  142.4426 C   0  0  0  0  0  0  0  0  0  0  0  0
  -20.3367   -9.5784  142.3521 C   0  0  0  0  0  0  0  0  0  0  0  0
  -18.7757   -8.9265  144.3360 C   0  0  0  0  0  0  0  0  0  0  0  0
  -20.1728   -9.1084  143.8197 C   0  0  0  0  0  0  0  0  0  0  0  0
  -23.1992   -8.0352  147.2147 C   0  0  0  0  0  0  0  0  0  0  0  0
  -23.0694  -12.2622  142.5479 N   0  0  0  0  0  0  0  0  0  0  0  0
  -23.6793  -12.6697  141.2748 C   0  0  0  0  0  0  0  0  0  0  0  0
  -22.9666  -10.2588  140.7593 S   0  0  0  0  0  0  0  0  0  0  0  0
  -24.1890  -11.5064  140.5607 N   0  0  0  0  0  0  0  0  0  0  0  0
  -24.6265   -7.5725  147.5826 C   0  0  0  0  0  0  0  0  0  0  0  0
  -26.9910   -7.7100  146.6390 C   0  0  0  0  0  0  0  0  0  0  0  0
  -25.7543   -8.5031  147.0804 C   0  0  0  0  0  0  0  0  0  0  0  0
  -21.6054  -11.5960  147.1918 C   0  0  0  0  0  0  0  0  0  0  0  0
  -20.2941  -12.0211  146.9363 O   0  0  0  0  0  0  0  0  0  0  0  0
  -22.8539   -9.4529  147.7112 C   0  0  0  0  0  0  0  0  0  0  0  0
  -21.6275  -11.9828  142.3594 C   0  0  0  0  0  0  0  0  0  0  0  0
  -21.7538  -10.1006  146.8354 C   0  0  0  0  0  0  0  0  0  0  0  0
  -28.1835   -8.6024  146.3603 C   0  0  0  0  0  0  0  0  0  0  0  0
  -28.8855   -9.0257  147.6320 C   0  0  0  0  0  0  0  0  0  0  0  0
  -28.1585   -7.6975  147.6043 C   0  0  0  0  0  0  0  0  0  0  0  0
  3  2  1  0
  4  2  1  0
  5  1  1  0
  5  2  1  0
  6  3  1  0
  7  3  1  0
  8  4  1  0
  9  2  1  0
  9  4  1  0
  9  7  1  0
  9  8  1  0
 10  1  1  0
 11  6  1  0
 12 11  1  0
 13  6  1  0
 14 12  1  0
 14 13  1  0
 15 10  1  0
 17 15  1  0
 17 16  1  0
 19 18  1  0
 20 10  1  0
 21  3  1  0
 21  6  1  0
 21 11  1  0
 22  5  1  0
 22 18  1  0
 22 20  1  0
 23 16  1  0
 24 23  1  0
 25 16  1  0
 25 23  1  0
 25 24  1  0
M  END
$$$$

     RDKit          3D

 25 30  0  0  0  0  0  0  0  0999 V2000
  -18.1056   -7.7329  140.4132 C   0  0  0  0  0  0  0  0  0  0  0  0
  -16.8068   -7.9041  141.3286 C   0  0  0  0  0  0  0  0  0  0  0  0
  -19.1162   -6.8038  141.1971 C   0  0  0  0  0  0  0  0  0  0  0  0
  -20.4181   -6.9135  141.9740 N   0  0  0  0  0  0  0  0  0  0  0  0
  -16.9022   -7.3657  142.8055 C   0  0  0  0  0  0  0  0  0  0  0  0
  -17.6495   -7.1819  138.9941 C   0  0  0  0  0  0  0  0  0  0  0  0
  -20.4214   -6.7277  140.5249 C   0  0  0  0  0  0  0  0  0  0  0  0
  -18.3190   -7.2691  143.4032 C   0  0  0  0  0  0  0  0  0  0  0  0
  -19.3069   -7.7317  142.3570 C   0  0  0  0  0  0  0  0  0  0  0  0
  -18.8089   -6.7520  138.0486 C   0  0  0  0  0  0  0  0  0  0  0  0
  -17.3370   -9.5248  137.8591 C   0  0  0  0  0  0  0  0  0  0  0  0
  -18.3372   -6.3015  136.6547 C   0  0  0  0  0  0  0  0  0  0  0  0
  -17.3076   -8.2739  143.9740 C   0  0  0  0  0  0  0  0  0  0  0  0
  -16.6329  -10.7312  138.4800 C   0  0  0  0  0  0  0  0  0  0  0  0
  -17.6292   -9.7724  143.7627 C   0  0  0  0  0  0  0  0  0  0  0  0
  -16.6849   -8.1836  138.2795 C   0  0  0  0  0  0  0  0  0  0  0  0
  -18.6471   -7.2338  135.4908 C   0  0  0  0  0  0  0  0  0  0  0  0
  -19.4844   -5.9851  135.7017 C   0  0  0  0  0  0  0  0  0  0  0  0
  -16.5992  -10.7764  144.3578 C   0  0  0  0  0  0  0  0  0  0  0  0
  -15.1201  -10.5181  143.9909 C   0  0  0  0  0  0  0  0  0  0  0  0
  -14.5443   -9.2388  144.5339 C   0  0  0  0  0  0  0  0  0  0  0  0
  -14.4375   -8.9649  145.8423 C   0  0  0  0  0  0  0  0  0  0  0  0
  -14.8721   -9.9108  146.9259 C   0  0  0  0  0  0  0  0  0  0  0  0
  -16.3897  -10.1398  146.9052 C   0  0  0  0  0  0  0  0  0  0  0  0
  -16.8276  -11.1591  145.8436 C   0  0  0  0  0  0  0  0  0  0  0  0
  2  1  1  0
  3  1  1  0
  4  3  1  0
  5  2  1  0
  6  1  1  0
  7  3  1  0
  7  4  1  0
  8  5  1  0
  9  3  1  0
  9  4  1  0
  9  8  1  0
 10  6  1  0
 12 10  1  0
 13  5  1  0
 13  8  1  0
 14 11  1  0
 15 13  1  0
 16  6  1  0
 16 11  1  0
 17 12  1  0
 18 12  1  0
 18 17  1  0
 19 15  1  0
 20 19  1  0
 21 20  1  0
 22 21  2  0
 23 22  1  0
 24 23  1  0
 25 19  1  0
 25 24  1  0
M  END
$$$$

     RDKit          3D

 25 29  0  0  0  0  0  0  0  0999 V2000
  -29.4451  -10.8816  143.7688 O   0  0  0  0  0  0  0  0  0  0  0  0
  -30.8193  -10.7841  143.4466 C   0  0  0  0  0  0  0  0  0  0  0  0
  -31.0910  -11.6432  142.3709 O   0  0  0  0  0  0  0  0  0  0  0  0
  -31.2473   -9.3442  143.0767 C   0  0  0  0  0  0  0  0  0  0  0  0
  -29.6058   -7.8309  142.4098 C   0  0  0  0  0  0  0  0  0  0  0  0
  -30.6026   -8.7317  141.9762 O   0  0  0  0  0  0  0  0  0  0  0  0
  -29.2655  -10.3875  145.0280 N   0  0  0  0  0  0  0  0  0  0  0  0
  -28.0658   -9.6824  145.3740 C   0  0  0  0  0  0  0  0  0  0  0  0
  -32.0204   -8.4657  144.0682 C   0  0  0  0  0  0  0  0  0  0  0  0
  -27.1731   -9.2955  144.4552 C   0  0  0  0  0  0  0  0  0  0  0  0
  -32.7772   -9.2166  142.9839 C   0  0  0  0  0  0  0  0  0  0  0  0
  -25.8283   -8.7149  144.8638 C   0  0  0  0  0  0  0  0  0  0  0  0
  -25.9873   -7.4946  145.8150 C   0  0  0  0  0  0  0  0  0  0  0  0
  -24.7914   -8.5016  143.7235 C   0  0  0  0  0  0  0  0  0  0  0  0
  -25.2360   -7.8195  142.4560 C   0  0  0  0  0  0  0  0  0  0  0  0
  -33.3394   -8.3502  141.8469 C   0  0  0  0  0  0  0  0  0  0  0  0
  -26.9249   -6.3893  145.3355 C   0  0  0  0  0  0  0  0  0  0  0  0
  -25.4336   -6.1255  145.4233 C   0  0  0  0  0  0  0  0  0  0  0  0
  -34.7091   -8.1318  142.0461 O   0  0  0  0  0  0  0  0  0  0  0  0
  -24.8690   -8.5533  141.1972 C   0  0  0  0  0  0  0  0  0  0  0  0
  -24.9539   -9.3592  142.4774 C   0  0  0  0  0  0  0  0  0  0  0  0
  -26.0340   -8.7975  140.2362 C   0  0  0  0  0  0  0  0  0  0  0  0
  -25.5608   -9.2558  138.8573 C   0  0  0  0  0  0  0  0  0  0  0  0
  -25.0434  -10.1614  138.0325 C   0  0  0  0  0  0  0  0  0  0  0  0
  -26.1397   -7.8688  139.1514 C   0  0  0  0  0  0  0  0  0  0  0  0
  2  1  1  0
  3  2  1  0
  4  2  1  0
  6  4  1  0
  6  5  1  0
  7  1  1  0
  8  7  1  0
  9  4  1  0
 10  8  2  3
 11  4  1  0
 11  9  1  0
 12 10  1  0
 13 12  1  0
 14 12  1  0
 15 14  1  0
 16 11  1  0
 17 13  1  0
 18 13  1  0
 18 17  1  0
 19 16  1  0
 20 15  1  0
 21 14  1  0
 21 15  1  0
 21 20  1  0
 22 20  1  0
 23 22  1  0
 24 23  2  0
 25 22  1  0
 25 23  1  0
M  END
$$$$

     RDKit          3D

 11 13  0  0  0  0  0  0  0  0999 V2000
  -26.7973    3.8141  144.4280 O   0  0  0  0  0  0  0  0  0  0  0  0
  -27.1391    5.0299  143.8333 C   0  0  0  0  0  0  0  0  0  0  0  0
  -26.3150    6.0281  144.3553 O   0  0  0  0  0  0  0  0  0  0  0  0
  -27.0374    5.0374  142.3319 C   0  0  0  0  0  0  0  0  0  0  0  0
  -28.3166    4.6301  141.6421 C   0  0  0  0  0  0  0  0  0  0  0  0
  -28.2814    3.7423  140.5562 C   0  0  0  0  0  0  0  0  0  0  0  0
  -26.3040    3.9665  143.1226 C   0  0  0  0  0  0  0  0  0  0  0  0
  -29.4278    3.4140  139.9021 N   0  0  0  0  0  0  0  0  0  0  0  0
  -30.6300    3.9376  140.2605 C   0  0  0  0  0  0  0  0  0  0  0  0
  -30.7097    4.8467  141.3168 C   0  0  0  0  0  0  0  0  0  0  0  0
  -29.5468    5.2017  142.0027 C   0  0  0  0  0  0  0  0  0  0  0  0
  2  1  1  0
  3  2  1  0
  4  2  1  0
  5  4  1  0
  6  5  4  0
  7  1  1  0
  7  2  1  0
  7  4  1  0
  8  6  4  0
  9  8  4  0
 10  9  4  0
 11  5  4  0
 11 10  4  0
M  END
$$$$

     RDKit          3D

 25 33  0  0  0  0  0  0  0  0999 V2000
  -30.9791    1.8120  140.4134 O   0  0  0  0  0  0  0  0  0  0  0  0
  -30.6010    3.1594  140.6038 C   0  0  0  0  0  0  0  0  0  0  0  0
  -29.2763    3.4872  139.8428 C   0  0  0  0  0  0  0  0  0  0  0  0
  -28.1115    2.9823  140.6968 C   0  0  0  0  0  0  0  0  0  0  0  0
  -27.8646    3.8790  141.9271 C   0  0  0  0  0  0  0  0  0  0  0  0
  -31.7072    4.1365  140.2571 C   0  0  0  0  0  0  0  0  0  0  0  0
  -28.3660    5.2771  141.8311 N   0  0  0  0  0  0  0  0  0  0  0  0
  -28.3976    6.0640  143.0645 C   0  0  0  0  0  0  0  0  0  0  0  0
  -32.8497    3.6529  139.5468 C   0  0  0  0  0  0  0  0  0  0  0  0
  -27.9131    5.3156  144.3021 N   0  0  0  0  0  0  0  0  0  0  0  0
  -26.7394    3.6120  140.9222 C   0  0  0  0  0  0  0  0  0  0  0  0
  -33.8240    4.5220  139.0709 C   0  0  0  0  0  0  0  0  0  0  0  0
  -28.6820    5.9807  145.3426 C   0  0  0  0  0  0  0  0  0  0  0  0
  -29.9411    5.9625  144.7030 C   0  0  0  0  0  0  0  0  0  0  0  0
  -29.2232    7.2104  144.7891 N   0  0  0  0  0  0  0  0  0  0  0  0
  -33.7040    5.8851  139.3078 C   0  0  0  0  0  0  0  0  0  0  0  0
  -30.8006    5.8635  145.8437 N   0  0  0  0  0  0  0  0  0  0  0  0
  -32.6150    6.3787  140.0286 C   0  0  0  0  0  0  0  0  0  0  0  0
  -31.6135    5.5344  140.5510 C   0  0  0  0  0  0  0  0  0  0  0  0
  -29.6863    5.5502  142.4480 C   0  0  0  0  0  0  0  0  0  0  0  0
  -29.5303    5.3865  146.6218 B   0  0  0  0  0  0  0  0  0  0  0  0
  -30.4440    6.2611  141.2429 C   0  0  0  0  0  0  0  0  0  0  0  0
  -29.7243    6.7261  143.4815 C   0  0  0  0  0  0  0  0  0  0  0  0
  -26.3063    4.7117  139.9295 C   0  0  0  0  0  0  0  0  0  0  0  0
  -25.4679    5.7932  140.6196 C   0  0  0  0  0  0  0  0  0  0  0  0
  2  1  1  0
  3  2  1  0
  4  3  1  0
  5  4  1  0
  6  2  1  0
  7  5  1  0
  8  7  1  0
  9  6  4  0
 10  8  1  0
 11  4  1  0
 11  5  1  0
 12  9  4  0
 13 10  1  0
 14 13  1  0
 15 13  1  0
 15 14  1  0
 16 12  4  0
 17 14  1  0
 18 16  4  0
 19  6  4  0
 19 18  4  0
 20  7  1  0
 20  8  1  0
 21 13  1  0
 21 17  1  0
 22 19  1  0
 22 20  1  0
 23  8  1  0
 23 14  1  0
 23 15  1  0
 23 20  1  0
 24 11  1  0
 25 24  1  0
M  END
$$$$

     RDKit          3D

 24 23  0  0  0  0  0  0  0  0999 V2000
  -29.4846   -3.9590  141.7340 O   0  0  0  0  0  0  0  0  0  0  0  0
  -26.4258   -4.7670  139.5063 C   0  0  0  0  0  0  0  0  0  0  0  0
  -28.8910   -6.0873  138.2724 C   0  0  0  0  0  0  0  0  0  0  0  0
  -26.6317   -4.7475  137.9347 C   0  0  0  0  0  0  0  0  0  0  0  0
  -28.2371   -3.5580  142.2630 C   0  0  0  0  0  0  0  0  0  0  0  0
  -28.2225   -4.0531  143.8963 C   0  0  0  0  0  0  0  0  0  0  0  0
  -27.5725   -2.2817  145.6673 C   0  0  0  0  0  0  0  0  0  0  0  0
  -30.3400   -3.1984  145.1278 C   0  0  0  0  0  0  0  0  0  0  0  0
  -27.7583   -2.1923  141.4400 C   0  0  0  0  0  0  0  0  0  0  0  0
  -28.7463   -3.3235  145.2477 C   0  0  0  0  0  0  0  0  0  0  0  0
  -27.6059   -0.8647  145.0342 C   0  0  0  0  0  0  0  0  0  0  0  0
  -23.9770   -4.2947  140.7007 O   0  0  0  0  0  0  0  0  0  0  0  0
  -28.5105   -4.1488  146.5924 C   0  0  0  0  0  0  0  0  0  0  0  0
  -25.5804   -1.4204  142.0295 C   0  0  0  0  0  0  0  0  0  0  0  0
  -25.6613   -1.3079  139.5848 C   0  0  0  0  0  0  0  0  0  0  0  0
  -26.2943   -1.7342  140.9992 C   0  0  0  0  0  0  0  0  0  0  0  0
  -28.0892   -5.1809  137.5994 C   0  0  0  0  0  0  0  0  0  0  0  0
  -23.4875   -4.6740  139.4502 C   0  0  0  0  0  0  0  0  0  0  0  0
  -25.3713   -4.6892  140.7601 C   0  0  0  0  0  0  0  0  0  0  0  0
  -24.2356   -2.0075  139.2007 C   0  0  0  0  0  0  0  0  0  0  0  0
  -26.5860   -3.4146  137.1292 C   0  0  0  0  0  0  0  0  0  0  0  0
  -23.5320   -3.6538  136.9678 C   0  0  0  0  0  0  0  0  0  0  0  0
  -23.7075   -5.0677  136.3658 C   0  0  0  0  0  0  0  0  0  0  0  0
  -23.7260   -3.4629  138.5316 C   0  0  0  0  0  0  0  0  0  0  0  0
  4  2  1  0
  5  1  1  0
  6  5  1  0
  9  5  1  0
 10  6  1  0
 10  7  1  0
 10  8  1  0
 11  7  1  0
 13 10  1  0
 16  9  1  0
 16 14  2  0
 16 15  1  0
 17  3  2  0
 17  4  1  0
 18 12  1  0
 19  2  1  0
 19 12  1  0
 20 15  1  0
 21  4  1  0
 23 22  1  0
 24 18  1  0
 24 20  1  0
 24 22  1  0
M  END
$$$$

     RDKit          3D

 24 27  0  0  0  0  0  0  0  0999 V2000
  -28.5098   -0.4089  132.1710 O   0  0  0  0  0  0  0  0  0  0  0  0
  -29.3083   -1.5340  135.1992 C   0  0  0  0  0  0  0  0  0  0  0  0
  -30.6714   -1.9014  135.2028 O   0  0  0  0  0  0  0  0  0  0  0  0
  -28.3509   -2.7903  131.6705 C   0  0  0  0  0  0  0  0  0  0  0  0
  -30.7278   -2.9665  139.0307 O   0  0  0  0  0  0  0  0  0  0  0  0
  -29.2310   -2.6481  132.9077 C   0  0  0  0  0  0  0  0  0  0  0  0
  -31.8711   -2.5606  139.5518 O   0  0  0  0  0  0  0  0  0  0  0  0
  -31.2772   -4.5635  135.0319 O   0  0  0  0  0  0  0  0  0  0  0  0
  -28.4715   -2.3675  134.2176 C   0  0  0  0  0  0  0  0  0  0  0  0
  -31.1329   -5.2917  138.4980 C   0  0  0  0  0  0  0  0  0  0  0  0
  -29.9655   -3.6409  136.8231 C   0  0  0  0  0  0  0  0  0  0  0  0
  -29.2320   -1.5616  131.8377 C   0  0  0  0  0  0  0  0  0  0  0  0
  -30.2493   -4.5932  135.6926 C   0  0  0  0  0  0  0  0  0  0  0  0
  -28.2330   -5.4239  136.6518 C   0  0  0  0  0  0  0  0  0  0  0  0
  -29.9720   -2.1253  136.4061 C   0  0  0  0  0  0  0  0  0  0  0  0
  -28.5539   -4.0638  137.2954 C   0  0  0  0  0  0  0  0  0  0  0  0
  -32.5355   -5.6594  139.0127 C   0  0  0  0  0  0  0  0  0  0  0  0
  -33.5210   -5.9550  137.8626 C   0  0  0  0  0  0  0  0  0  0  0  0
  -33.3051   -7.3124  137.1880 C   0  0  0  0  0  0  0  0  0  0  0  0
  -34.6753   -7.7757  137.6675 C   0  0  0  0  0  0  0  0  0  0  0  0
  -34.8944   -6.4286  138.3550 C   0  0  0  0  0  0  0  0  0  0  0  0
  -31.0368   -3.8339  137.9549 C   0  0  0  0  0  0  0  0  0  0  0  0
  -29.2247   -5.6514  135.5121 C   0  0  0  0  0  0  0  0  0  0  0  0
  -36.0620   -5.6286  137.7696 C   0  0  0  0  0  0  0  0  0  0  0  0
  3  2  1  0
  6  4  1  0
  7  5  1  0
  9  2  1  0
  9  6  1  0
 12  1  1  0
 12  4  1  0
 12  6  1  0
 13  8  2  0
 13 11  1  0
 15  2  1  0
 15  3  1  0
 15 11  1  0
 16 11  1  0
 16 14  1  0
 17 10  1  0
 18 17  1  0
 19 18  1  0
 20 19  1  0
 21 18  1  0
 21 20  1  0
 22  5  1  0
 22 10  1  0
 22 11  1  0
 23 13  1  0
 23 14  1  0
 24 21  1  0
M  END
$$$$

     RDKit          3D

 25 30  0  0  0  0  0  0  0  0999 V2000
  -23.4644   -2.6875  137.8816 O   0  0  0  0  0  0  0  0  0  0  0  0
  -22.6533   -2.0655  139.6528 C   0  0  0  0  0  0  0  0  0  0  0  0
  -21.9824   -1.8781  140.8780 O   0  0  0  0  0  0  0  0  0  0  0  0
  -23.6535   -3.0922  139.2540 C   0  0  0  0  0  0  0  0  0  0  0  0
  -22.1147   -2.4362  138.3217 C   0  0  0  0  0  0  0  0  0  0  0  0
  -22.7163   -0.9732  141.6923 C   0  0  0  0  0  0  0  0  0  0  0  0
  -21.9401   -4.8238  138.7812 C   0  0  0  0  0  0  0  0  0  0  0  0
  -22.1875   -3.4442  139.4638 C   0  0  0  0  0  0  0  0  0  0  0  0
  -22.9387   -1.6642  143.0539 C   0  0  0  0  0  0  0  0  0  0  0  0
  -21.9314    0.3620  141.7531 C   0  0  0  0  0  0  0  0  0  0  0  0
  -23.7189   -0.9392  144.1644 C   0  0  0  0  0  0  0  0  0  0  0  0
  -21.3219   -4.8398  143.0789 C   0  0  0  0  0  0  0  0  0  0  0  0
  -21.0963    0.5636  143.0284 C   0  0  0  0  0  0  0  0  0  0  0  0
  -23.0311    0.2821  144.8023 C   0  0  0  0  0  0  0  0  0  0  0  0
  -24.3382    0.4434  144.0011 C   0  0  0  0  0  0  0  0  0  0  0  0
  -21.9198    1.1599  144.1825 C   0  0  0  0  0  0  0  0  0  0  0  0
  -22.3875   -5.3810  142.1191 C   0  0  0  0  0  0  0  0  0  0  0  0
  -25.6104    0.6623  144.8341 C   0  0  0  0  0  0  0  0  0  0  0  0
  -22.6103   -6.8952  142.0150 C   0  0  0  0  0  0  0  0  0  0  0  0
  -21.8091   -7.7841  142.9281 C   0  0  0  0  0  0  0  0  0  0  0  0
  -26.0001    2.1434  144.8766 C   0  0  0  0  0  0  0  0  0  0  0  0
  -21.7925   -6.1626  140.9446 C   0  0  0  0  0  0  0  0  0  0  0  0
  -22.5134   -5.9941  139.5983 C   0  0  0  0  0  0  0  0  0  0  0  0
  -24.9186    2.9512  145.4320 N   0  0  0  0  0  0  0  0  0  0  0  0
  -22.1084   -7.8752  144.2253 C   0  0  0  0  0  0  0  0  0  0  0  0
  3  2  1  0
  4  1  1  0
  4  2  1  0
  5  1  1  0
  5  2  1  0
  6  3  1  0
  8  2  1  0
  8  4  1  0
  8  5  1  0
  8  7  1  0
  9  6  1  0
 10  6  1  0
 11  9  1  0
 13 10  1  0
 14 11  1  0
 15 11  1  0
 15 14  1  0
 16 13  1  0
 16 14  1  0
 17 12  1  0
 18 15  1  0
 19 17  1  0
 20 19  1  0
 21 18  1  0
 22 17  1  0
 22 19  1  0
 23  7  1  0
 23 22  1  0
 24 21  1  0
 25 20  2  0
M  END
$$$$

     RDKit          3D

 25 27  0  0  0  0  0  0  0  0999 V2000
  -24.8588  -14.7057  139.6568 O   0  0  0  0  0  0  0  0  0  0  0  0
  -23.8254  -14.9693  138.9831 C   0  0  0  0  0  0  0  0  0  0  0  0
  -22.6529  -15.3250  139.6445 O   0  0  0  0  0  0  0  0  0  0  0  0
  -23.8445  -14.8653  137.4747 C   0  0  0  0  0  0  0  0  0  0  0  0
  -25.2181  -15.2863  136.9010 C   0  0  0  0  0  0  0  0  0  0  0  0
  -25.1980  -15.4950  135.3778 C   0  0  0  0  0  0  0  0  0  0  0  0
  -23.2766  -13.5029  136.9508 C   0  0  0  0  0  0  0  0  0  0  0  0
  -24.2320  -12.3579  136.5935 C   0  0  0  0  0  0  0  0  0  0  0  0
  -26.5822  -15.8572  134.8861 C   0  0  0  0  0  0  0  0  0  0  0  0
  -27.5003  -14.6846  134.5257 C   0  0  0  0  0  0  0  0  0  0  0  0
  -28.9871  -14.6988  134.1248 C   0  0  0  0  0  0  0  0  0  0  0  0
  -29.6094  -16.0230  133.6677 C   0  0  0  0  0  0  0  0  0  0  0  0
  -28.5928  -14.5439  135.5845 C   0  0  0  0  0  0  0  0  0  0  0  0
  -30.6639  -16.6534  134.5700 C   0  0  0  0  0  0  0  0  0  0  0  0
  -31.0912  -15.8890  133.3343 C   0  0  0  0  0  0  0  0  0  0  0  0
  -23.7460  -11.3452  135.5446 C   0  0  0  0  0  0  0  0  0  0  0  0
  -26.9408  -17.1533  134.9044 C   0  0  0  0  0  0  0  0  0  0  0  0
  -24.0141  -11.8663  134.1211 C   0  0  0  0  0  0  0  0  0  0  0  0
  -23.4335  -12.2947  137.8874 C   0  0  0  0  0  0  0  0  0  0  0  0
  -23.5310  -10.9532  132.9555 C   0  0  0  0  0  0  0  0  0  0  0  0
  -23.8409   -9.4655  133.1926 C   0  0  0  0  0  0  0  0  0  0  0  0
  -22.0581  -11.1815  132.4845 C   0  0  0  0  0  0  0  0  0  0  0  0
  -21.0092  -11.0045  133.6043 C   0  0  0  0  0  0  0  0  0  0  0  0
  -19.5779  -10.8917  133.0727 C   0  0  0  0  0  0  0  0  0  0  0  0
  -21.8994  -12.5452  131.7822 C   0  0  0  0  0  0  0  0  0  0  0  0
  2  1  2  0
  3  2  1  0
  4  2  1  0
  5  4  1  0
  6  5  1  0
  7  4  1  0
  8  7  1  0
  9  6  1  0
 10  9  1  0
 11 10  1  0
 12 11  1  0
 13 10  1  0
 13 11  1  0
 14 12  1  0
 15 12  1  0
 15 14  1  0
 16  8  1  0
 17  9  2  0
 18 16  1  0
 19  7  1  0
 19  8  1  0
 20 18  1  0
 21 20  1  0
 22 20  1  0
 23 22  1  0
 24 23  1  0
 25 22  1  0
M  END
$$$$

     RDKit          3D

 25 33  0  0  0  0  0  0  0  0999 V2000
  -27.0009   -7.0024  133.8800 C   0  0  0  0  0  0  0  0  0  0  0  0
  -27.4526   -5.2447  132.0198 C   0  0  0  0  0  0  0  0  0  0  0  0
  -26.9006   -4.0777  131.2060 C   0  0  0  0  0  0  0  0  0  0  0  0
  -28.2417   -6.0750  135.9559 C   0  0  0  0  0  0  0  0  0  0  0  0
  -26.4210   -5.0146  134.5015 C   0  0  0  0  0  0  0  0  0  0  0  0
  -27.9571   -3.0061  130.9757 C   0  0  0  0  0  0  0  0  0  0  0  0
  -28.3198   -6.6094  137.3878 C   0  0  0  0  0  0  0  0  0  0  0  0
  -28.9173   -5.0199  132.3651 C   0  0  0  0  0  0  0  0  0  0  0  0
  -27.9695   -3.8240  132.2671 C   0  0  0  0  0  0  0  0  0  0  0  0
  -26.8919   -6.2817  135.2240 C   0  0  0  0  0  0  0  0  0  0  0  0
  -26.4973   -5.7481  133.1532 C   0  0  0  0  0  0  0  0  0  0  0  0
  -28.9659   -3.3264  129.8629 C   0  0  0  0  0  0  0  0  0  0  0  0
  -28.4253   -3.4945  128.5108 C   0  0  0  0  0  0  0  0  0  0  0  0
  -29.0655   -5.6149  138.3000 C   0  0  0  0  0  0  0  0  0  0  0  0
  -29.0370   -7.3375  136.2504 C   0  0  0  0  0  0  0  0  0  0  0  0
  -29.7219   -6.1817  139.5689 C   0  0  0  0  0  0  0  0  0  0  0  0
  -29.0290   -2.2045  128.8983 N   0  0  0  0  0  0  0  0  0  0  0  0
  -30.5931   -5.7034  138.4031 C   0  0  0  0  0  0  0  0  0  0  0  0
  -31.3098   -4.3885  138.7007 C   0  0  0  0  0  0  0  0  0  0  0  0
  -32.1310   -3.8563  137.5941 C   0  0  0  0  0  0  0  0  0  0  0  0
  -32.7035   -4.5641  138.6692 O   0  0  0  0  0  0  0  0  0  0  0  0
  -29.6941   -7.7077  139.7908 C   0  0  0  0  0  0  0  0  0  0  0  0
  -30.6430   -8.2159  140.9049 C   0  0  0  0  0  0  0  0  0  0  0  0
  -32.0987   -8.3383  140.4686 C   0  0  0  0  0  0  0  0  0  0  0  0
  -31.7082   -7.2896  141.4974 C   0  0  0  0  0  0  0  0  0  0  0  0
  3  2  1  0
  6  3  1  0
  7  4  1  0
  8  2  1  0
  9  2  1  0
  9  3  1  0
  9  6  1  0
  9  8  1  0
 10  1  1  0
 10  4  1  0
 10  5  1  0
 11  1  1  0
 11  2  1  0
 11  5  1  0
 12  6  1  0
 13 12  1  0
 14  7  1  0
 15  4  1  0
 15  7  1  0
 16 14  1  0
 17 12  1  0
 17 13  1  0
 18 14  1  0
 18 16  1  0
 19 18  1  0
 20 19  1  0
 21 19  1  0
 21 20  1  0
 22 16  1  0
 23 22  1  0
 24 23  1  0
 25 23  1  0
 25 24  1  0
M  END
$$$$

     RDKit          3D

 25 32  0  0  0  0  0  0  0  0999 V2000
  -21.3759  -17.4956  136.1585 C   0  0  0  0  0  0  0  0  0  0  0  0
  -22.4860  -17.3019  135.0691 C   0  0  0  0  0  0  0  0  0  0  0  0
  -20.1149  -16.6721  136.0001 C   0  0  0  0  0  0  0  0  0  0  0  0
  -22.9178  -15.9805  134.4233 C   0  0  0  0  0  0  0  0  0  0  0  0
  -21.9691  -14.9430  133.8054 C   0  0  0  0  0  0  0  0  0  0  0  0
  -19.6602  -15.3767  136.6858 C   0  0  0  0  0  0  0  0  0  0  0  0
  -21.9460  -13.5631  134.5137 C   0  0  0  0  0  0  0  0  0  0  0  0
  -20.8783  -18.9507  136.0402 C   0  0  0  0  0  0  0  0  0  0  0  0
  -19.4194  -18.9055  135.6218 C   0  0  0  0  0  0  0  0  0  0  0  0
  -21.7512  -13.6202  136.0329 C   0  0  0  0  0  0  0  0  0  0  0  0
  -22.7879  -14.9360  132.5654 N   0  0  0  0  0  0  0  0  0  0  0  0
  -19.1166  -17.4534  135.5833 C   0  0  0  0  0  0  0  0  0  0  0  0
  -20.4548  -19.4387  134.6514 C   0  0  0  0  0  0  0  0  0  0  0  0
  -20.3449  -14.0118  136.5269 C   0  0  0  0  0  0  0  0  0  0  0  0
  -23.6538  -16.0001  133.1058 C   0  0  0  0  0  0  0  0  0  0  0  0
  -19.2259  -15.6092  138.1231 C   0  0  0  0  0  0  0  0  0  0  0  0
  -20.5656  -15.4036  133.3603 C   0  0  0  0  0  0  0  0  0  0  0  0
  -20.3672  -20.9000  134.5375 N   0  0  0  0  0  0  0  0  0  0  0  0
  -25.4037  -15.4624  133.2083 S   0  0  0  0  0  0  0  0  0  0  0  0
  -20.8239  -21.3537  133.2021 C   0  0  0  0  0  0  0  0  0  0  0  0
  -23.6359  -16.4638  135.6699 C   0  0  0  0  0  0  0  0  0  0  0  0
  -20.1272  -22.6425  132.7570 C   0  0  0  0  0  0  0  0  0  0  0  0
  -20.4712  -14.7987  137.8421 C   0  0  0  0  0  0  0  0  0  0  0  0
  -18.8840  -22.3156  131.9384 C   0  0  0  0  0  0  0  0  0  0  0  0
  -21.7204  -21.4809  134.3484 C   0  0  0  0  0  0  0  0  0  0  0  0
  2  1  1  0
  3  1  1  0
  4  2  1  0
  5  4  1  0
  6  3  1  0
  7  5  1  0
  8  1  1  0
  9  8  1  0
 10  7  1  0
 11  5  1  0
 12  3  2  0
 12  9  1  0
 13  8  1  0
 13  9  1  0
 14  6  1  0
 14 10  1  0
 15  4  1  0
 15 11  1  0
 16  6  1  0
 17  5  1  0
 18 13  1  0
 19 15  1  0
 20 18  1  0
 21  2  1  0
 21  4  1  0
 22 20  1  0
 23  6  1  0
 23 14  1  0
 23 16  1  0
 24 22  1  0
 25 18  1  0
 25 20  1  0
M  END
$$$$

     RDKit          3D

 25 29  0  0  0  0  0  0  0  0999 V2000
  -28.9964   -0.1620  140.3780 O   0  0  0  0  0  0  0  0  0  0  0  0
  -28.6797   -1.4686  139.8635 C   0  0  0  0  0  0  0  0  0  0  0  0
  -27.1363   -1.6466  139.2381 C   0  0  0  0  0  0  0  0  0  0  0  0
  -26.2270   -1.8733  140.6239 C   0  0  0  0  0  0  0  0  0  0  0  0
  -26.7903   -2.8545  141.6759 C   0  0  0  0  0  0  0  0  0  0  0  0
  -28.5193   -1.4664  138.3735 C   0  0  0  0  0  0  0  0  0  0  0  0
  -26.5718   -1.6913  144.1407 C   0  0  0  0  0  0  0  0  0  0  0  0
  -27.4484   -2.2639  142.9333 C   0  0  0  0  0  0  0  0  0  0  0  0
  -23.7218   -2.9572  141.7938 C   0  0  0  0  0  0  0  0  0  0  0  0
  -22.6059   -2.4049  142.9153 C   0  0  0  0  0  0  0  0  0  0  0  0
  -24.5725   -1.6794  140.9692 C   0  0  0  0  0  0  0  0  0  0  0  0
  -22.7450   -0.9090  143.4554 C   0  0  0  0  0  0  0  0  0  0  0  0
  -24.3764   -4.4880  142.0919 C   0  0  0  0  0  0  0  0  0  0  0  0
  -24.3543   -5.4794  140.7994 C   0  0  0  0  0  0  0  0  0  0  0  0
  -23.3003   -6.6035  140.8820 C   0  0  0  0  0  0  0  0  0  0  0  0
  -22.1841   -3.2922  141.6630 C   0  0  0  0  0  0  0  0  0  0  0  0
  -23.2741   -5.5988  139.7367 C   0  0  0  0  0  0  0  0  0  0  0  0
  -30.3156   -2.9633  140.6015 I   0  0  0  0  0  0  0  0  0  0  0  0
  -28.5564    1.1935  136.8487 C   0  0  0  0  0  0  0  0  0  0  0  0
  -21.6375   -1.2107  142.5633 C   0  0  0  0  0  0  0  0  0  0  0  0
  -29.0745    1.1480  138.2404 C   0  0  0  0  0  0  0  0  0  0  0  0
  -29.5622    2.1120  136.0755 C   0  0  0  0  0  0  0  0  0  0  0  0
  -27.0981    1.7179  136.8805 C   0  0  0  0  0  0  0  0  0  0  0  0
  -29.2188    2.7625  134.9516 C   0  0  0  0  0  0  0  0  0  0  0  0
  -29.1284   -0.1834  137.4546 C   0  0  0  0  0  0  0  0  0  0  0  0
  2  1  1  0
  3  2  1  0
  4  3  1  0
  5  4  1  0
  6  2  1  0
  6  3  1  0
  8  5  1  0
  8  7  1  0
 10  9  1  0
 11  4  1  0
 11  9  1  0
 12 10  1  0
 13  9  1  0
 14 13  1  0
 15 14  1  0
 16  9  1  0
 16 10  1  0
 17 14  1  0
 17 15  1  0
 18  2  1  0
 20 10  1  0
 20 12  1  0
 21 19  1  0
 22 19  1  0
 23 19  1  0
 24 22  2  0
 25  6  1  0
 25 19  1  0
 25 21  1  0
M  END
$$$$

     RDKit          3D

 24 25  0  0  0  0  0  0  0  0999 V2000
  -32.2243   -4.3733  139.8040 O   0  0  0  0  0  0  0  0  0  0  0  0
  -31.8876   -3.5563  138.6928 C   0  0  0  0  0  0  0  0  0  0  0  0
  -32.5198   -2.2992  138.8004 O   0  0  0  0  0  0  0  0  0  0  0  0
  -32.7865   -5.5702  139.2968 C   0  0  0  0  0  0  0  0  0  0  0  0
  -30.3982   -3.4132  138.4779 C   0  0  0  0  0  0  0  0  0  0  0  0
  -29.4625   -4.2767  139.3322 C   0  0  0  0  0  0  0  0  0  0  0  0
  -27.9978   -3.9760  138.9829 C   0  0  0  0  0  0  0  0  0  0  0  0
  -26.9720   -4.4610  140.0456 C   0  0  0  0  0  0  0  0  0  0  0  0
  -26.8382   -6.2115  141.9913 C   0  0  0  0  0  0  0  0  0  0  0  0
  -25.3385   -6.1463  142.4174 C   0  0  0  0  0  0  0  0  0  0  0  0
  -27.1286   -5.9375  140.4969 C   0  0  0  0  0  0  0  0  0  0  0  0
  -27.8329   -5.4826  142.9101 C   0  0  0  0  0  0  0  0  0  0  0  0
  -24.7760   -4.7276  142.7211 C   0  0  0  0  0  0  0  0  0  0  0  0
  -24.0575   -4.5036  144.1089 C   0  0  0  0  0  0  0  0  0  0  0  0
  -25.1002   -4.5940  145.3176 C   0  0  0  0  0  0  0  0  0  0  0  0
  -22.7018   -5.3815  144.3306 C   0  0  0  0  0  0  0  0  0  0  0  0
  -26.2417   -3.8180  145.0649 O   0  0  0  0  0  0  0  0  0  0  0  0
  -22.7930   -6.5969  145.2641 C   0  0  0  0  0  0  0  0  0  0  0  0
  -20.8889   -4.8452  142.5132 C   0  0  0  0  0  0  0  0  0  0  0  0
  -25.5986   -5.9449  145.6221 C   0  0  0  0  0  0  0  0  0  0  0  0
  -23.6080   -3.0153  144.0894 C   0  0  0  0  0  0  0  0  0  0  0  0
  -21.9344   -5.8382  143.0349 C   0  0  0  0  0  0  0  0  0  0  0  0
  -26.0242   -7.0507  145.8668 C   0  0  0  0  0  0  0  0  0  0  0  0
  -31.1654   -2.3325  139.1913 C   0  0  0  0  0  0  0  0  0  0  0  0
  2  1  1  0
  3  2  1  0
  4  1  1  0
  5  2  1  0
  6  5  1  0
  7  6  1  0
  8  7  1  0
 10  9  1  0
 11  8  1  0
 11  9  1  0
 12  9  1  0
 13 10  1  0
 14 13  1  0
 15 14  1  0
 16 14  1  0
 17 15  1  0
 18 16  1  0
 20 15  1  0
 21 14  1  0
 22 16  1  0
 22 19  1  0
 23 20  3  0
 24  2  1  0
 24  3  1  0
 24  5  1  0
M  END
$$$$

     RDKit          3D

 25 27  0  0  0  0  0  0  0  0999 V2000
  -19.8729    0.2009  137.5059 C   0  0  0  0  0  0  0  0  0  0  0  0
  -19.1355    0.0453  138.6407 C   0  0  0  0  0  0  0  0  0  0  0  0
  -20.5445    1.5829  137.4025 C   0  0  0  0  0  0  0  0  0  0  0  0
  -20.3705    2.4027  136.1970 C   0  0  0  0  0  0  0  0  0  0  0  0
  -21.6531    1.6982  136.4309 N   0  0  0  0  0  0  0  0  0  0  0  0
  -19.5533   -0.6905  136.2640 C   0  0  0  0  0  0  0  0  0  0  0  0
  -19.6197   -0.6190  139.9263 C   0  0  0  0  0  0  0  0  0  0  0  0
  -19.1324   -3.3986  138.9624 Se  0  0  0  0  0  2  0  0  0  0  0  0
  -17.9951   -0.9330  136.0670 C   0  0  0  0  0  0  0  0  0  0  0  0
  -20.2755   -2.0014  139.7488 C   0  0  0  0  0  0  0  0  0  0  0  0
  -17.5324   -2.4957  139.2027 O   0  0  0  0  0  0  0  0  0  0  0  0
  -20.5442    0.3181  140.7253 C   0  0  0  0  0  0  0  0  0  0  0  0
  -17.5389   -2.3701  135.6694 C   0  0  0  0  0  0  0  0  0  0  0  0
  -17.3426    0.3754  134.9938 Cl  0  0  0  0  0  0  0  0  0  0  0  0
  -20.5254   -1.9054  136.2055 C   0  0  0  0  0  0  0  0  0  0  0  0
  -21.5893   -1.7796  135.0949 C   0  0  0  0  0  0  0  0  0  0  0  0
  -17.2130   -2.7781  134.2201 C   0  0  0  0  0  0  0  0  0  0  0  0
  -20.5251   -2.8419  135.0180 C   0  0  0  0  0  0  0  0  0  0  0  0
  -16.0966   -5.1424  134.1486 C   0  0  0  0  0  0  0  0  0  0  0  0
  -16.0893   -2.3988  135.1918 C   0  0  0  0  0  0  0  0  0  0  0  0
  -16.9181   -3.6990  131.3407 C   0  0  0  0  0  0  0  0  0  0  0  0
  -19.2651   -4.2964  132.0447 C   0  0  0  0  0  0  0  0  0  0  0  0
  -17.3560   -4.2964  133.8394 C   0  0  0  0  0  0  0  0  0  0  0  0
  -20.0618   -5.0694  132.9058 O   0  0  0  0  0  0  0  0  0  0  0  0
  -17.7647   -4.5118  132.3301 C   0  0  0  0  0  0  0  0  0  0  0  0
  2  1  2  3
  3  1  1  0
  4  3  1  0
  5  3  1  0
  5  4  1  0
  6  1  1  0
  7  2  1  0
  9  6  1  0
 10  7  1  0
 10  8  1  0
 11  8  1  0
 12  7  1  0
 13  9  1  0
 14  9  1  0
 15  6  1  0
 16 15  1  0
 17 13  1  0
 18 15  1  0
 18 16  1  0
 20 13  1  0
 20 17  1  0
 23 17  1  0
 23 19  1  0
 24 22  1  0
 25 21  1  0
 25 22  1  0
 25 23  1  0
M  END
$$$$

     RDKit          3D

 11 11  0  0  0  0  0  0  0  0999 V2000
  -27.6515   -6.3943  135.4678 C   0  0  0  0  0  0  0  0  0  0  0  0
  -27.8323   -7.4412  134.4243 N   0  0  0  0  0  0  0  0  0  0  0  0
  -29.2249   -7.9251  134.3459 C   0  0  0  0  0  0  0  0  0  0  0  0
  -29.3335   -9.0693  133.4317 N   0  0  0  0  0  0  0  0  0  0  0  0
  -28.7816  -10.2067  134.0504 N   0  0  0  0  0  0  0  0  0  0  0  0
  -28.4970   -5.2120  135.2089 N   0  0  0  0  0  0  0  0  0  0  0  0
  -26.2481   -5.9126  135.6291 N   0  0  0  0  0  0  0  0  0  0  0  0
  -28.2766   -4.6268  133.8783 C   0  0  0  0  0  0  0  0  0  0  0  0
  -25.1797   -6.5385  134.8094 C   0  0  0  0  0  0  0  0  0  0  0  0
  -29.0146   -3.3737  133.7675 N   0  0  0  0  0  0  0  0  0  0  0  0
  -25.3584   -6.9521  136.2002 C   0  0  0  0  0  0  0  0  0  0  0  0
  2  1  1  0
  3  2  1  0
  4  3  1  0
  5  4  1  0
  6  1  1  0
  7  1  1  0
  8  6  1  0
  9  7  1  0
 10  8  1  0
 11  7  1  0
 11  9  1  0
M  END
$$$$

     RDKit          3D

 25 28  0  0  0  0  0  0  0  0999 V2000
  -31.3881  -13.2532  145.7396 C   0  0  0  0  0  0  0  0  0  0  0  0
  -32.3627  -14.0451  145.8667 O   0  0  0  0  0  0  0  0  0  0  0  0
  -30.1236  -13.6636  146.1621 O   0  0  0  0  0  0  0  0  0  0  0  0
  -31.6069  -11.8502  145.1890 C   0  0  0  0  0  0  0  0  0  0  0  0
  -30.3352  -10.9640  145.1376 C   0  0  0  0  0  0  0  0  0  0  0  0
  -32.4552  -11.8320  143.9368 C   0  0  0  0  0  0  0  0  0  0  0  0
  -32.5747  -12.9139  142.8909 C   0  0  0  0  0  0  0  0  0  0  0  0
  -30.0039  -10.4302  146.5383 C   0  0  0  0  0  0  0  0  0  0  0  0
  -29.1784  -14.2626  145.2772 C   0  0  0  0  0  0  0  0  0  0  0  0
  -32.8060  -11.1088  145.8719 C   0  0  0  0  0  0  0  0  0  0  0  0
  -32.4739   -9.6853  146.3643 C   0  0  0  0  0  0  0  0  0  0  0  0
  -33.6272  -11.1258  144.5597 C   0  0  0  0  0  0  0  0  0  0  0  0
  -31.4759  -12.7918  141.8481 C   0  0  0  0  0  0  0  0  0  0  0  0
  -29.5916  -16.5927  146.2824 C   0  0  0  0  0  0  0  0  0  0  0  0
  -31.7442  -12.8953  140.3072 C   0  0  0  0  0  0  0  0  0  0  0  0
  -29.5279  -15.7403  145.0123 C   0  0  0  0  0  0  0  0  0  0  0  0
  -30.4910  -12.2814  139.6124 C   0  0  0  0  0  0  0  0  0  0  0  0
  -31.1842   -9.6792  147.2027 C   0  0  0  0  0  0  0  0  0  0  0  0
  -33.0608  -12.2860  139.7156 C   0  0  0  0  0  0  0  0  0  0  0  0
  -30.4224  -12.3704  138.0708 C   0  0  0  0  0  0  0  0  0  0  0  0
  -31.9297  -11.5271  142.5623 C   0  0  0  0  0  0  0  0  0  0  0  0
  -27.7740  -14.0913  145.8556 C   0  0  0  0  0  0  0  0  0  0  0  0
  -34.3543  -13.0224  140.0873 C   0  0  0  0  0  0  0  0  0  0  0  0
  -30.5461  -13.8038  137.5375 C   0  0  0  0  0  0  0  0  0  0  0  0
  -30.2976  -13.8177  136.0982 N   0  0  0  0  0  0  0  0  0  0  0  0
  2  1  2  0
  3  1  1  0
  4  1  1  0
  5  4  1  0
  6  4  1  0
  7  6  1  0
  8  5  1  0
  9  3  1  0
 10  4  1  0
 11 10  1  0
 12  6  1  0
 12 10  1  0
 13  7  1  0
 15 13  1  0
 16  9  1  0
 16 14  1  0
 17 15  1  0
 18  8  1  0
 18 11  1  0
 19 15  1  0
 20 17  1  0
 21  6  1  0
 21  7  1  0
 21 13  1  0
 22  9  1  0
 23 19  1  0
 24 20  1  0
 25 24  1  0
M  END
$$$$

     RDKit          3D

 19 21  0  0  0  0  0  0  0  0999 V2000
  -27.3621  -11.1022  132.4564 N   0  0  0  0  0  0  0  0  0  0  0  0
  -26.0378  -11.6261  132.8317 C   0  0  0  0  0  0  0  0  0  0  0  0
  -25.3566  -10.6573  133.6934 N   0  0  0  0  0  0  0  0  0  0  0  0
  -25.3360  -11.0794  135.1066 C   0  0  0  0  0  0  0  0  0  0  0  0
  -26.7128  -11.6264  135.5798 C   0  0  0  0  0  0  0  0  0  0  0  0
  -27.9182  -10.8327  135.0500 C   0  0  0  0  0  0  0  0  0  0  0  0
  -24.8538   -9.9226  136.0350 C   0  0  0  0  0  0  0  0  0  0  0  0
  -28.2061  -12.1769  131.8985 C   0  0  0  0  0  0  0  0  0  0  0  0
  -29.1513  -13.4317  133.9056 C   0  0  0  0  0  0  0  0  0  0  0  0
  -29.1982  -12.1351  133.0631 C   0  0  0  0  0  0  0  0  0  0  0  0
  -30.7022  -14.4381  132.0244 C   0  0  0  0  0  0  0  0  0  0  0  0
  -29.1460   -9.6187  133.2222 C   0  0  0  0  0  0  0  0  0  0  0  0
  -30.0293  -14.6229  133.3939 C   0  0  0  0  0  0  0  0  0  0  0  0
  -28.5675  -16.8685  133.3110 C   0  0  0  0  0  0  0  0  0  0  0  0
  -29.2284  -15.8614  133.3559 C   0  0  0  0  0  0  0  0  0  0  0  0
  -28.3638  -10.9193  133.5349 C   0  0  0  0  0  0  0  0  0  0  0  0
  -23.8335   -8.1079  135.4589 C   0  0  0  0  0  0  0  0  0  0  0  0
  -25.2919   -8.5070  135.6387 C   0  0  0  0  0  0  0  0  0  0  0  0
  -23.3917   -9.5128  135.8434 C   0  0  0  0  0  0  0  0  0  0  0  0
  2  1  1  0
  3  2  1  0
  4  3  1  0
  5  4  1  0
  6  5  1  0
  7  4  1  0
  8  1  1  0
 10  8  1  0
 10  9  1  0
 13  9  1  0
 13 11  1  0
 15 13  1  0
 15 14  3  0
 16  1  1  0
 16  6  1  0
 16 10  1  0
 16 12  1  0
 18  7  1  0
 18 17  1  0
 19  7  1  0
 19 17  1  0
M  END
$$$$

     RDKit          3D

 23 25  0  0  0  0  0  0  0  0999 V2000
  -29.8188    2.6141  140.3655 O   0  0  0  0  0  0  0  0  0  0  0  0
  -31.0755    2.1769  140.7923 C   0  0  0  0  0  0  0  0  0  0  0  0
  -31.8697    1.3062  139.9724 N   0  0  0  0  0  0  0  0  0  0  0  0
  -31.5378    2.5504  141.9486 N   0  0  0  0  0  0  0  0  0  0  0  0
  -30.8634    3.4691  142.8824 C   0  0  0  0  0  0  0  0  0  0  0  0
  -28.9216    3.2632  141.2569 C   0  0  0  0  0  0  0  0  0  0  0  0
  -32.0874    1.4272  138.5239 C   0  0  0  0  0  0  0  0  0  0  0  0
  -28.1635    2.5806  144.2474 Mg  0  0  0  0  0  2  0  0  0  0  0  0
  -25.6415    1.1318  145.1104 C   0  0  0  0  0  0  0  0  0  0  0  0
  -32.6190    2.7960  138.1435 C   0  0  0  0  0  0  0  0  0  0  0  0
  -31.1980    2.3607  137.7208 C   0  0  0  0  0  0  0  0  0  0  0  0
  -32.9801    2.9939  136.6741 C   0  0  0  0  0  0  0  0  0  0  0  0
  -25.8109    4.8651  144.8162 C   0  0  0  0  0  0  0  0  0  0  0  0
  -25.4893    3.6258  145.1764 C   0  0  0  0  0  0  0  0  0  0  0  0
  -30.3288    2.6247  144.0712 C   0  0  0  0  0  0  0  0  0  0  0  0
  -33.2845    4.4561  136.3324 C   0  0  0  0  0  0  0  0  0  0  0  0
  -26.4622    0.9459  146.3059 N   0  0  0  0  0  0  0  0  0  0  0  0
  -31.5887    2.5439  136.2576 C   0  0  0  0  0  0  0  0  0  0  0  0
  -26.0119    2.4451  144.4184 C   0  0  0  0  0  0  0  0  0  0  0  0
  -31.9538    4.4822  143.3651 C   0  0  0  0  0  0  0  0  0  0  0  0
  -29.6999    4.2101  142.1639 C   0  0  0  0  0  0  0  0  0  0  0  0
  -31.4714    5.8066  143.9977 C   0  0  0  0  0  0  0  0  0  0  0  0
  -30.7872    5.6352  145.3516 C   0  0  0  0  0  0  0  0  0  0  0  0
  2  1  1  0
  3  2  1  0
  4  2  2  0
  5  4  1  0
  6  1  1  0
  7  3  1  0
 10  7  1  0
 11  7  1  0
 11 10  1  0
 12 10  1  0
 14 13  2  0
 15  5  1  0
 15  8  1  0
 16 12  1  0
 17  9  1  0
 18 11  1  0
 18 12  1  0
 19  8  1  0
 19  9  1  0
 19 14  1  0
 20  5  1  0
 21  5  1  0
 21  6  1  0
 22 20  1  0
 23 22  1  0
M  END
$$$$

     RDKit          3D

 25 29  0  0  0  0  0  0  0  0999 V2000
  -27.0472  -22.0260  144.9291 N   0  0  0  0  0  0  0  0  0  0  0  0
  -27.7688  -20.9513  145.6565 C   0  0  0  0  0  0  0  0  0  0  0  0
  -25.6096  -22.2218  145.1810 C   0  0  0  0  0  0  0  0  0  0  0  0
  -27.8434  -19.7085  144.8532 N   0  0  0  0  0  0  0  0  0  0  0  0
  -24.8769  -21.2881  146.1499 C   0  0  0  0  0  0  0  0  0  0  0  0
  -28.8853  -18.7783  145.3449 C   0  0  0  0  0  0  0  0  0  0  0  0
  -27.1418  -20.6873  147.0340 C   0  0  0  0  0  0  0  0  0  0  0  0
  -25.7061  -20.2198  146.8658 C   0  0  0  0  0  0  0  0  0  0  0  0
  -27.5047  -15.0772  144.9217 S   0  0  0  0  0  5  0  0  0  0  0  0
  -26.5281  -13.4667  146.8671 C   0  0  0  0  0  0  0  0  0  0  0  0
  -25.3118  -12.5451  146.7766 C   0  0  0  0  0  0  0  0  0  0  0  0
  -25.7132  -11.0952  146.6572 C   0  0  0  0  0  0  0  0  0  0  0  0
  -25.0675  -10.0406  147.2020 C   0  0  0  0  0  0  0  0  0  0  0  0
  -22.8049  -11.2023  147.8140 C   0  0  0  0  0  0  0  0  0  0  0  0
  -26.3661  -14.8789  146.2914 C   0  0  0  0  0  0  0  0  0  0  0  0
  -23.5658   -9.0711  148.9855 C   0  0  0  0  0  0  0  0  0  0  0  0
  -23.6220   -9.9008  147.6857 C   0  0  0  0  0  0  0  0  0  0  0  0
  -24.0271   -9.8591  150.2241 C   0  0  0  0  0  0  0  0  0  0  0  0
  -25.6914  -13.1963  148.1034 C   0  0  0  0  0  0  0  0  0  0  0  0
  -27.8138  -16.6238  144.5351 C   0  0  0  0  0  0  0  0  0  0  0  0
  -24.7253  -21.1042  144.6362 C   0  0  0  0  0  0  0  0  0  0  0  0
  -25.5105  -10.0585  150.3854 C   0  0  0  0  0  0  0  0  0  0  0  0
  -24.7658   -9.0301  151.2542 C   0  0  0  0  0  0  0  0  0  0  0  0
  -28.2542  -17.4419  145.7612 C   0  0  0  0  0  0  0  0  0  0  0  0
  -26.2132   -8.8116  150.8701 C   0  0  0  0  0  0  0  0  0  0  0  0
  2  1  1  0
  3  1  1  0
  4  2  1  0
  5  3  1  0
  6  4  1  0
  7  2  1  0
  8  5  1  0
  8  7  1  0
 11 10  1  0
 12 11  1  0
 13 12  2  3
 15  9  1  0
 15 10  1  0
 17 13  1  0
 17 14  1  0
 17 16  1  0
 18 16  1  0
 19 10  1  0
 19 11  1  0
 20  9  2  0
 21  3  1  0
 21  5  1  0
 22 18  1  0
 23 18  1  0
 23 22  1  0
 24  6  1  0
 24 20  1  0
 25 22  1  0
 25 23  1  0
M  RAD  1   9   2
M  END
$$$$

     RDKit          3D

 24 29  0  0  0  0  0  0  0  0999 V2000
  -24.8905    0.1342  135.5339 O   0  0  0  0  0  0  0  0  0  0  0  0
  -31.0046   -0.9297  136.7292 O   0  0  0  0  0  0  0  0  0  0  0  0
  -31.6218   -1.2257  137.8545 O   0  0  0  0  0  0  0  0  0  0  0  0
  -33.6243   -2.5807  137.1327 C   0  0  0  0  0  0  0  0  0  0  0  0
  -23.9629   -1.2334  137.3132 C   0  0  0  0  0  0  0  0  0  0  0  0
  -24.7189   -3.8101  137.6502 C   0  0  0  0  0  0  0  0  0  0  0  0
  -23.5783   -2.8745  139.2028 C   0  0  0  0  0  0  0  0  0  0  0  0
  -29.9377   -0.0864  137.0770 C   0  0  0  0  0  0  0  0  0  0  0  0
  -25.9318   -3.7070  138.5536 C   0  0  0  0  0  0  0  0  0  0  0  0
  -23.6857   -2.6949  137.7386 C   0  0  0  0  0  0  0  0  0  0  0  0
  -32.9795   -1.2673  137.5205 C   0  0  0  0  0  0  0  0  0  0  0  0
  -24.5780   -4.0133  139.1609 C   0  0  0  0  0  0  0  0  0  0  0  0
  -24.8412   -1.1785  136.0567 C   0  0  0  0  0  0  0  0  0  0  0  0
  -25.9273    0.8925  136.1309 C   0  0  0  0  0  0  0  0  0  0  0  0
  -30.3228    1.3439  137.4297 C   0  0  0  0  0  0  0  0  0  0  0  0
  -28.7552   -0.7159  137.8266 C   0  0  0  0  0  0  0  0  0  0  0  0
  -29.7022    1.0373  136.0636 C   0  0  0  0  0  0  0  0  0  0  0  0
  -22.3899   -3.0409  138.3565 N   0  0  0  0  0  0  0  0  0  0  0  0
  -27.2023    0.8240  135.2806 C   0  0  0  0  0  0  0  0  0  0  0  0
  -28.1431    2.8081  136.1415 O   0  0  0  0  0  0  0  0  0  0  0  0
  -28.3202    1.6244  135.8950 C   0  0  0  0  0  0  0  0  0  0  0  0
  -34.6761   -1.1676  138.9032 O   0  0  0  0  0  0  0  0  0  0  0  0
  -34.0175    0.1248  137.9633 S   0  0  0  0  0  0  0  0  0  0  0  0
  -33.6954   -2.1125  138.5640 C   0  0  0  0  0  0  0  0  0  0  0  0
  3  2  1  0
  8  2  1  0
  9  6  1  0
 10  5  1  0
 10  6  1  0
 10  7  1  0
 11  3  1  0
 11  4  1  0
 12  6  1  0
 12  7  1  0
 12  9  1  0
 13  1  1  0
 13  5  1  0
 14  1  1  0
 15  8  1  0
 16  8  1  0
 17  8  1  0
 17 15  1  0
 18  7  1  0
 18 10  1  0
 19 14  1  0
 21 17  1  0
 21 19  1  0
 21 20  2  0
 23 11  1  0
 23 22  1  0
 24  4  1  0
 24 11  1  0
 24 22  1  0
M  END
$$$$

     RDKit          3D

 25 31  0  0  0  0  0  0  0  0999 V2000
  -34.5471  -14.4736  152.9716 O   0  0  0  0  0  0  0  0  0  0  0  0
  -33.9545  -15.4017  152.0966 C   0  0  0  0  0  0  0  0  0  0  0  0
  -33.9352  -16.6751  152.6830 O   0  0  0  0  0  0  0  0  0  0  0  0
  -32.5473  -14.9261  151.8008 C   0  0  0  0  0  0  0  0  0  0  0  0
  -32.6349  -13.4321  151.9314 C   0  0  0  0  0  0  0  0  0  0  0  0
  -31.3273  -13.0674  152.6777 C   0  0  0  0  0  0  0  0  0  0  0  0
  -31.4007  -11.8614  153.6528 C   0  0  0  0  0  0  0  0  0  0  0  0
  -30.9171  -14.3179  153.3922 C   0  0  0  0  0  0  0  0  0  0  0  0
  -30.3495  -10.7368  153.5394 C   0  0  0  0  0  0  0  0  0  0  0  0
  -29.1013  -11.0929  152.7404 C   0  0  0  0  0  0  0  0  0  0  0  0
  -28.8023  -10.8848  151.4372 C   0  0  0  0  0  0  0  0  0  0  0  0
  -31.5830  -15.3188  152.8901 N   0  0  0  0  0  0  0  0  0  0  0  0
  -31.7721  -10.5286  152.9888 C   0  0  0  0  0  0  0  0  0  0  0  0
  -33.7146   -8.9258  152.9946 C   0  0  0  0  0  0  0  0  0  0  0  0
  -29.7452  -10.4325  150.3433 C   0  0  0  0  0  0  0  0  0  0  0  0
  -29.1874  -10.7644  148.9344 C   0  0  0  0  0  0  0  0  0  0  0  0
  -29.9796  -11.8243  148.1609 C   0  0  0  0  0  0  0  0  0  0  0  0
  -29.0256  -12.7049  147.3837 C   0  0  0  0  0  0  0  0  0  0  0  0
  -27.5946  -12.2795  147.6406 C   0  0  0  0  0  0  0  0  0  0  0  0
  -28.6262  -12.1733  148.7533 C   0  0  0  0  0  0  0  0  0  0  0  0
  -30.0070   -8.9271  150.4484 C   0  0  0  0  0  0  0  0  0  0  0  0
  -34.8960   -8.3663  153.7683 C   0  0  0  0  0  0  0  0  0  0  0  0
  -32.6213   -9.5715  153.8507 C   0  0  0  0  0  0  0  0  0  0  0  0
  -33.9583  -13.2244  152.6932 C   0  0  0  0  0  0  0  0  0  0  0  0
  -35.0514   -9.6543  152.9726 C   0  0  0  0  0  0  0  0  0  0  0  0
  2  1  1  0
  3  2  1  0
  4  2  1  0
  5  4  1  0
  6  5  1  0
  7  6  1  0
  8  6  1  0
  9  7  1  0
 10  9  1  0
 11 10  2  3
 12  4  1  0
 12  8  2  0
 13  7  1  0
 13  9  1  0
 15 11  1  0
 16 15  1  0
 17 16  1  0
 18 17  1  0
 19 18  1  0
 20 16  1  0
 20 17  1  0
 20 18  1  0
 20 19  1  0
 21 15  1  0
 22 14  1  0
 23 13  1  0
 23 14  1  0
 24  1  1  0
 24  5  1  0
 25 14  1  0
 25 22  1  0
M  END
$$$$

     RDKit          3D

 25 30  0  0  0  0  0  0  0  0999 V2000
  -27.3944  -20.3481  152.2676 C   0  0  0  0  0  0  0  0  0  0  0  0
  -26.2579  -19.6095  151.5324 C   0  0  0  0  0  0  0  0  0  0  0  0
  -26.6528  -18.2669  151.4213 O   0  0  0  0  0  0  0  0  0  0  0  0
  -27.6832  -21.6581  151.8690 O   0  0  0  0  0  0  0  0  0  0  0  0
  -25.5382  -20.2219  150.2653 C   0  0  0  0  0  0  0  0  0  0  0  0
  -24.0296  -19.8297  149.9702 C   0  0  0  0  0  0  0  0  0  0  0  0
  -23.6525  -20.9526  148.9710 C   0  0  0  0  0  0  0  0  0  0  0  0
  -23.6260  -18.4158  149.2776 C   0  0  0  0  0  0  0  0  0  0  0  0
  -22.1266  -17.9695  149.7376 C   0  0  0  0  0  0  0  0  0  0  0  0
  -22.1481  -21.0224  149.0000 C   0  0  0  0  0  0  0  0  0  0  0  0
  -22.3533  -17.5288  152.0958 C   0  0  0  0  0  0  0  0  0  0  0  0
  -22.1449  -16.8004  150.7508 C   0  0  0  0  0  0  0  0  0  0  0  0
  -21.8106  -20.5309  150.3903 C   0  0  0  0  0  0  0  0  0  0  0  0
  -22.1580  -19.0282  151.8349 C   0  0  0  0  0  0  0  0  0  0  0  0
  -26.0334  -20.1819  152.9427 C   0  0  0  0  0  0  0  0  0  0  0  0
  -23.8423  -17.1429  152.9777 Cl  0  0  0  0  0  0  0  0  0  0  0  0
  -21.3563  -19.0808  150.5664 C   0  0  0  0  0  0  0  0  0  0  0  0
  -24.3244  -22.2333  149.4451 C   0  0  0  0  0  0  0  0  0  0  0  0
  -24.7114  -17.3446  149.4969 C   0  0  0  0  0  0  0  0  0  0  0  0
  -25.5734  -21.7724  150.1749 C   0  0  0  0  0  0  0  0  0  0  0  0
  -23.5772  -18.4329  147.4629 Cl  0  0  0  0  0  0  0  0  0  0  0  0
  -20.8629  -15.9148  150.6551 C   0  0  0  0  0  0  0  0  0  0  0  0
  -23.0606  -20.1421  151.1822 C   0  0  0  0  0  0  0  0  0  0  0  0
  -19.6782  -16.6525  150.7630 O   0  0  0  0  0  0  0  0  0  0  0  0
  -20.8858  -14.7322  151.6403 C   0  0  0  0  0  0  0  0  0  0  0  0
  2  1  1  0
  3  2  1  0
  4  1  1  0
  5  2  1  0
  6  5  1  0
  7  6  1  0
  8  6  1  0
  9  8  1  0
 10  7  1  0
 12  9  1  0
 12 11  1  0
 13 10  1  0
 14 11  1  0
 15  1  1  0
 15  2  1  0
 16 11  1  0
 17  9  1  0
 17 13  1  0
 17 14  1  0
 18  7  1  0
 19  8  1  0
 20  5  1  0
 20 18  1  0
 21  8  1  0
 22 12  1  0
 23  6  1  0
 23 13  1  0
 23 14  1  0
 24 22  1  0
 25 22  1  0
M  END
$$$$

     RDKit          3D

 13 14  0  0  0  0  0  0  0  0999 V2000
  -17.7112  -14.4577  147.0737 O   0  0  0  0  0  0  0  0  0  0  0  0
  -19.1335  -14.5485  147.0621 C   0  0  0  0  0  0  0  0  0  0  0  0
  -19.5355  -15.4038  148.0953 O   0  0  0  0  0  0  0  0  0  0  0  0
  -17.2339  -13.3123  147.7389 C   0  0  0  0  0  0  0  0  0  0  0  0
  -21.0139  -13.2461  146.5823 C   0  0  0  0  0  0  0  0  0  0  0  0
  -21.7145  -11.9214  146.8434 C   0  0  0  0  0  0  0  0  0  0  0  0
  -23.0173   -9.9771  146.4610 C   0  0  0  0  0  0  0  0  0  0  0  0
  -21.2455   -8.3480  147.3337 C   0  0  0  0  0  0  0  0  0  0  0  0
  -22.5792  -11.2776  145.7921 C   0  0  0  0  0  0  0  0  0  0  0  0
  -22.2193  -13.1858  147.5265 C   0  0  0  0  0  0  0  0  0  0  0  0
  -21.0449  -10.8611  147.6917 C   0  0  0  0  0  0  0  0  0  0  0  0
  -19.7640  -13.2896  147.2307 O   0  0  0  0  0  0  0  0  0  0  0  0
  -21.9942   -9.6629  147.5807 C   0  0  0  0  0  0  0  0  0  0  0  0
  2  1  1  0
  3  2  1  0
  4  1  1  0
  6  5  1  0
  9  6  1  0
  9  7  1  0
 10  5  1  0
 10  6  1  0
 11  6  1  0
 12  2  1  0
 12  5  1  0
 13  7  1  0
 13  8  1  0
 13 11  1  0
M  END
$$$$

     RDKit          3D

 25 30  0  0  0  0  0  0  0  0999 V2000
  -20.6840   -9.1434  151.1926 C   0  0  0  0  0  0  0  0  0  0  0  0
  -21.8359   -8.9422  152.3448 N   0  0  0  0  0  0  0  0  0  0  0  0
  -22.9468   -7.9273  152.7935 C   0  0  0  0  0  0  0  0  0  0  0  0
  -24.6226   -8.2154  152.8621 C   0  0  0  0  0  0  0  0  0  0  0  0
  -25.6712   -7.3713  151.9226 C   0  0  0  0  0  0  0  0  0  0  0  0
  -21.3075   -5.9757  152.3283 C   0  0  0  0  0  0  0  0  0  0  0  0
  -25.3695   -5.9490  152.2011 C   0  0  0  0  0  0  0  0  0  0  0  0
  -20.9804   -4.8215  151.7676 N   0  0  0  0  0  0  0  0  0  0  0  0
  -20.3527   -7.9626  150.4014 N   0  0  0  0  0  0  0  0  0  0  0  0
  -26.4348   -4.9134  152.3958 N   0  0  0  0  0  0  0  0  0  0  0  0
  -27.5161   -4.3256  151.4900 C   0  0  0  0  0  0  0  0  0  0  0  0
  -22.7378   -6.6872  151.8827 C   0  0  0  0  0  0  0  0  0  0  0  0
  -25.4156   -7.0822  153.3291 C   0  0  0  0  0  0  0  0  0  0  0  0
  -23.7840   -5.6006  152.3889 C   0  0  0  0  0  0  0  0  0  0  0  0
  -20.8231   -9.1474  149.6404 C   0  0  0  0  0  0  0  0  0  0  0  0
  -27.1657   -2.0431  150.1952 C   0  0  0  0  0  0  0  0  0  0  0  0
  -28.4092   -1.7030  150.5006 F   0  0  0  0  0  0  0  0  0  0  0  0
  -22.7290  -10.0829  148.6361 C   0  0  0  0  0  0  0  0  0  0  0  0
  -25.6948   -4.0196  149.6343 C   0  0  0  0  0  0  0  0  0  0  0  0
  -27.0603   -3.6172  150.1310 C   0  0  0  0  0  0  0  0  0  0  0  0
  -24.1142   -9.6876  149.2490 C   0  0  0  0  0  0  0  0  0  0  0  0
  -21.7587   -8.8104  148.5414 C   0  0  0  0  0  0  0  0  0  0  0  0
  -22.3862   -7.3836  148.7398 C   0  0  0  0  0  0  0  0  0  0  0  0
  -23.8882   -8.5532  150.2618 C   0  0  0  0  0  0  0  0  0  0  0  0
  -22.9698   -7.1195  150.2182 C   0  0  0  0  0  0  0  0  0  0  0  0
  2  1  1  0
  3  2  1  0
  4  3  1  0
  5  4  1  0
  7  5  1  0
  8  6  2  0
  9  1  1  0
 10  7  1  0
 11 10  1  0
 12  3  1  0
 12  6  1  0
 13  4  1  0
 13  5  1  0
 13  7  1  0
 14  7  1  0
 14 12  1  0
 15  1  1  0
 15  9  1  0
 17 16  1  0
 20 11  1  0
 20 16  1  0
 20 19  1  0
 21 18  1  0
 22 15  1  0
 22 18  1  0
 23 22  1  0
 24 21  1  0
 25 12  1  0
 25 23  1  0
 25 24  1  0
M  END
$$$$

     RDKit          3D

 25 28  0  0  0  0  0  0  0  0999 V2000
  -22.4300  -10.2902  140.1742 O   0  0  0  0  0  0  0  0  0  0  0  0
  -22.7841   -9.1063  141.1647 C   0  0  0  0  0  0  0  0  0  0  0  0
  -24.3209   -6.4018  141.1929 O   0  0  0  0  0  0  0  0  0  0  0  0
  -21.6335   -9.2889  142.4821 C   0  0  0  0  0  0  0  0  0  0  0  0
  -24.0757  -12.1571  134.6088 C   0  0  0  0  0  0  0  0  0  0  0  0
  -22.7664  -11.5277  133.6084 C   0  0  0  0  0  0  0  0  0  0  0  0
  -24.2045  -10.1374  137.5373 C   0  0  0  0  0  0  0  0  0  0  0  0
  -25.2837   -9.2852  134.8115 C   0  0  0  0  0  0  0  0  0  0  0  0
  -22.4666  -12.6930  132.7261 C   0  0  0  0  0  0  0  0  0  0  0  0
  -22.2381  -12.6460  134.3026 C   0  0  0  0  0  0  0  0  0  0  0  0
  -23.3055   -7.4689  140.5405 C   0  0  0  0  0  0  0  0  0  0  0  0
  -22.0781  -11.9408  137.8413 C   0  0  0  0  0  0  0  0  0  0  0  0
  -21.5002  -13.4148  138.7670 C   0  0  0  0  0  0  0  0  0  0  0  0
  -24.6572  -11.4858  136.4698 C   0  0  0  0  0  0  0  0  0  0  0  0
  -21.3739  -15.7583  139.5363 C   0  0  0  0  0  0  0  0  0  0  0  0
  -23.1431  -10.7732  138.9203 C   0  0  0  0  0  0  0  0  0  0  0  0
  -24.8351  -11.3456  132.2218 O   0  0  0  0  0  0  0  0  0  0  0  0
  -26.6717   -8.2413  134.0442 C   0  0  0  0  0  0  0  0  0  0  0  0
  -25.0926  -12.8523  131.6408 C   0  0  0  0  0  0  0  0  0  0  0  0
  -22.5494  -15.5760  137.5436 C   0  0  0  0  0  0  0  0  0  0  0  0
  -26.0411   -6.8104  133.7783 C   0  0  0  0  0  0  0  0  0  0  0  0
  -23.9701  -12.2836  132.7250 C   0  0  0  0  0  0  0  0  0  0  0  0
  -25.7031  -10.6607  135.6906 O   0  0  0  0  0  0  0  0  0  0  0  0
  -22.3445  -14.7504  138.7701 N   0  0  0  0  0  0  0  0  0  0  0  0
  -20.0325  -16.3974  138.8262 C   0  0  0  0  0  0  0  0  0  0  0  0
  2  1  1  0
  4  2  1  0
  6  5  1  0
  9  6  1  0
 10  5  1  0
 10  6  1  0
 10  9  1  0
 11  2  1  0
 11  3  1  0
 13 12  1  0
 14  5  1  0
 14  7  1  0
 16  1  1  0
 16  7  1  0
 16 12  1  0
 18  8  1  0
 19 17  1  0
 21 18  1  0
 22  6  1  0
 22  9  1  0
 22 17  1  0
 22 19  1  0
 23  8  1  0
 23 14  1  0
 24 13  1  0
 24 15  1  0
 24 20  1  0
 25 15  1  0
M  END
$$$$

     RDKit          3D

 11 10  0  0  0  0  0  0  0  0999 V2000
  -22.3011  -19.9374  140.6286 N   0  0  0  0  0  0  0  0  0  0  0  0
  -22.5151  -21.2776  140.1531 C   0  0  0  0  0  0  0  0  0  0  0  0
  -23.6223  -21.5806  139.2879 N   0  0  0  0  0  0  0  0  0  0  0  0
  -21.7157  -22.2281  140.5265 N   0  0  0  0  0  0  0  0  0  0  0  0
  -21.0938  -19.5348  141.2944 C   0  0  0  0  0  0  0  0  0  0  0  0
  -21.1703  -18.8283  142.3783 N   0  0  0  0  0  0  0  0  0  0  0  0
  -19.8009  -19.8590  140.7433 N   0  0  0  0  0  0  0  0  0  0  0  0
  -18.6629  -20.0412  141.6496 C   0  0  0  0  0  0  0  0  0  0  0  0
  -24.5123  -20.5552  138.7573 C   0  0  0  0  0  0  0  0  0  0  0  0
  -19.6049  -19.9014  139.2867 C   0  0  0  0  0  0  0  0  0  0  0  0
  -19.9767  -18.6199  138.6961 N   0  0  0  0  0  0  0  0  0  0  0  0
  2  1  1  0
  3  2  1  0
  4  2  2  0
  5  1  1  0
  6  5  2  0
  7  5  1  0
  8  7  1  0
  9  3  1  0
 10  7  1  0
 11 10  1  0
M  END
$$$$

     RDKit          3D

 25 30  0  0  0  0  0  0  0  0999 V2000
  -25.9643   -5.8929  137.9104 Al  0  0  0  0  0  3  0  0  0  0  0  0
  -27.9169   -5.4613  138.2520 C   0  0  0  0  0  0  0  0  0  0  0  0
  -24.4388   -3.8382  136.7621 N   0  0  0  0  0  0  0  0  0  0  0  0
  -24.3243   -2.6103  135.9149 C   0  0  0  0  0  0  0  0  0  0  0  0
  -28.1058   -4.4454  139.3156 N   0  0  0  0  0  0  0  0  0  0  0  0
  -26.8148   -4.0778  139.9583 C   0  0  0  0  0  0  0  0  0  0  0  0
  -25.7008   -5.0248  139.6240 C   0  0  0  0  0  0  0  0  0  0  0  0
  -28.9244   -5.4499  140.0532 C   0  0  0  0  0  0  0  0  0  0  0  0
  -26.8532   -3.2406  141.2501 C   0  0  0  0  0  0  0  0  0  0  0  0
  -25.7020   -3.9572  137.5265 C   0  0  0  0  0  0  0  0  0  0  0  0
  -28.7362   -5.1199  136.9927 C   0  0  0  0  0  0  0  0  0  0  0  0
  -28.4618   -5.9059  141.4591 C   0  0  0  0  0  0  0  0  0  0  0  0
  -28.6957   -6.5312  138.9934 C   0  0  0  0  0  0  0  0  0  0  0  0
  -23.5127   -2.7310  137.1255 C   0  0  0  0  0  0  0  0  0  0  0  0
  -30.1172   -5.7299  137.1867 C   0  0  0  0  0  0  0  0  0  0  0  0
  -29.4011   -6.9821  142.0293 C   0  0  0  0  0  0  0  0  0  0  0  0
  -28.9499   -7.4636  143.4165 C   0  0  0  0  0  0  0  0  0  0  0  0
  -27.7197   -8.3309  143.3425 C   0  0  0  0  0  0  0  0  0  0  0  0
  -24.6582   -5.1998  140.5407 O   0  0  0  0  0  0  0  0  0  0  0  0
  -25.4190   -1.5079  135.9905 C   0  0  0  0  0  0  0  0  0  0  0  0
  -24.8578   -0.1257  135.6119 C   0  0  0  0  0  0  0  0  0  0  0  0
  -25.6624   -3.6180  139.0288 C   0  0  0  0  0  0  0  0  0  0  0  0
  -29.9262   -6.8780  138.1615 C   0  0  0  0  0  0  0  0  0  0  0  0
  -24.6405    0.0346  134.1059 C   0  0  0  0  0  0  0  0  0  0  0  0
  -27.1566   -8.8193  144.4503 C   0  0  0  0  0  0  0  0  0  0  0  0
  2  1  1  0
  4  3  1  0
  5  2  1  0
  6  5  1  0
  7  1  1  0
  7  6  1  0
  8  5  1  0
  9  6  1  0
 10  1  1  0
 10  3  1  0
 11  2  1  0
 12  8  1  0
 13  2  1  0
 13  8  1  0
 14  3  1  0
 14  4  1  0
 15 11  1  0
 16 12  1  0
 17 16  1  0
 18 17  1  0
 19  7  1  0
 20  4  1  0
 21 20  1  0
 22  6  1  0
 22  7  1  0
 22 10  1  0
 23 13  1  0
 23 15  1  0
 24 21  1  0
 25 18  2  0
M  END
$$$$

     RDKit          3D

 25 27  0  0  0  0  0  0  0  0999 V2000
  -14.2652   -7.2783  140.4397 C   0  0  0  0  0  0  0  0  0  0  0  0
  -12.8578   -7.7176  140.4056 N   0  0  0  0  0  0  0  0  0  0  0  0
  -15.1075   -8.3693  141.1139 C   0  0  0  0  0  0  0  0  0  0  0  0
  -16.5781   -7.9907  141.3889 C   0  0  0  0  0  0  0  0  0  0  0  0
  -16.6924   -6.8780  142.4319 C   0  0  0  0  0  0  0  0  0  0  0  0
  -16.1849   -6.9726  143.6789 C   0  0  0  0  0  0  0  0  0  0  0  0
  -16.5297   -5.9357  144.7252 C   0  0  0  0  0  0  0  0  0  0  0  0
  -18.0129   -6.0748  145.1611 C   0  0  0  0  0  0  0  0  0  0  0  0
  -18.1372   -6.9257  146.4433 C   0  0  0  0  0  0  0  0  0  0  0  0
  -17.8202   -8.3956  146.2060 C   0  0  0  0  0  0  0  0  0  0  0  0
  -16.6686   -8.9635  146.6076 C   0  0  0  0  0  0  0  0  0  0  0  0
  -17.1807  -11.2499  145.4119 C   0  0  0  0  0  0  0  0  0  0  0  0
  -17.2290  -10.7573  143.9323 C   0  0  0  0  0  0  0  0  0  0  0  0
  -15.8948  -10.9670  143.1980 C   0  0  0  0  0  0  0  0  0  0  0  0
  -15.2395  -12.3433  143.3746 C   0  0  0  0  0  0  0  0  0  0  0  0
  -14.0024  -12.6713  144.2893 C   0  0  0  0  0  0  0  0  0  0  0  0
  -14.7673  -10.5041  146.0897 C   0  0  0  0  0  0  0  0  0  0  0  0
  -14.1862  -11.9062  145.6504 C   0  0  0  0  0  0  0  0  0  0  0  0
  -18.6486   -4.6763  145.3849 C   0  0  0  0  0  0  0  0  0  0  0  0
  -16.2856  -10.4366  146.3977 C   0  0  0  0  0  0  0  0  0  0  0  0
  -12.9443  -11.6711  144.8273 C   0  0  0  0  0  0  0  0  0  0  0  0
  -18.3683  -11.4477  143.1644 C   0  0  0  0  0  0  0  0  0  0  0  0
  -17.3777   -7.7143  140.1139 C   0  0  0  0  0  0  0  0  0  0  0  0
  -13.8740  -12.3917  142.7803 C   0  0  0  0  0  0  0  0  0  0  0  0
  -12.1142   -6.7914  139.6593 N   0  0  0  0  0  0  0  0  0  0  0  0
  2  1  1  0
  3  1  1  0
  4  3  1  0
  5  4  1  0
  6  5  2  3
  7  6  1  0
  8  7  1  0
  9  8  1  0
 10  9  1  0
 11 10  2  3
 13 12  1  0
 14 13  1  0
 15 14  1  0
 16 15  1  0
 18 16  1  0
 18 17  1  0
 19  8  1  0
 20 11  1  0
 20 12  1  0
 20 17  1  0
 21 16  1  0
 21 18  1  0
 22 13  1  0
 23  4  1  0
 24 15  1  0
 24 16  1  0
 25  2  1  0
M  END
$$$$

     RDKit          3D

 25 30  0  0  0  0  0  0  0  0999 V2000
  -24.4937  -10.8744  140.0614 Sb  0  0  0  0  0  3  0  0  0  0  0  0
  -28.0875  -11.7149  140.9641 O   0  0  0  0  0  0  0  0  0  0  0  0
  -24.9630  -14.5434  140.7852 O   0  0  0  0  0  0  0  0  0  0  0  0
  -24.0643  -13.7031  141.4651 C   0  0  0  0  0  0  0  0  0  0  0  0
  -24.1504  -12.2187  141.7350 C   0  0  0  0  0  0  0  0  0  0  0  0
  -22.8614  -11.8984  142.5187 C   0  0  0  0  0  0  0  0  0  0  0  0
  -22.9691  -14.1857  141.9429 N   0  0  0  0  0  0  0  0  0  0  0  0
  -22.2100  -13.1940  142.5686 N   0  0  0  0  0  0  0  0  0  0  0  0
  -25.8411  -11.5622  143.4170 C   0  0  0  0  0  0  0  0  0  0  0  0
  -25.2881  -10.2173  142.8402 C   0  0  0  0  0  0  0  0  0  0  0  0
  -27.3046  -11.4423  144.0019 C   0  0  0  0  0  0  0  0  0  0  0  0
  -27.6633   -9.9658  144.4338 C   0  0  0  0  0  0  0  0  0  0  0  0
  -28.4851  -12.2228  143.3176 C   0  0  0  0  0  0  0  0  0  0  0  0
  -25.2051   -9.4953  144.2041 C   0  0  0  0  0  0  0  0  0  0  0  0
  -25.4641  -11.5258  141.9781 C   0  0  0  0  0  0  0  0  0  0  0  0
  -26.6108   -8.9496  143.9281 C   0  0  0  0  0  0  0  0  0  0  0  0
  -28.3911  -13.7782  143.3807 C   0  0  0  0  0  0  0  0  0  0  0  0
  -26.3974   -9.2272  142.4522 C   0  0  0  0  0  0  0  0  0  0  0  0
  -29.0364  -11.6753  141.9833 C   0  0  0  0  0  0  0  0  0  0  0  0
  -27.2028  -14.4761  142.6851 C   0  0  0  0  0  0  0  0  0  0  0  0
  -27.3995  -14.7415  141.1621 C   0  0  0  0  0  0  0  0  0  0  0  0
  -26.2494  -14.1920  140.2806 C   0  0  0  0  0  0  0  0  0  0  0  0
  -27.7026  -16.2347  140.8666 C   0  0  0  0  0  0  0  0  0  0  0  0
  -26.5353  -17.2127  141.1407 C   0  0  0  0  0  0  0  0  0  0  0  0
  -25.8313  -17.6613  139.8603 C   0  0  0  0  0  0  0  0  0  0  0  0
  4  3  1  0
  5  1  1  0
  5  4  1  0
  6  5  1  0
  7  4  2  0
  8  6  1  0
  8  7  1  0
 10  9  1  0
 11  9  1  0
 12 11  1  0
 13 11  1  0
 14 10  1  0
 15  1  1  0
 15  5  1  0
 15  9  1  0
 15 10  1  0
 16 12  1  0
 16 14  1  0
 17 13  1  0
 18 10  1  0
 18 16  1  0
 19  2  1  0
 19 13  1  0
 20 17  1  0
 21 20  1  0
 22  3  1  0
 22 21  1  0
 23 21  1  0
 24 23  1  0
 25 24  1  0
M  END
$$$$

     RDKit          3D

 23 24  0  0  0  0  0  0  0  0999 V2000
  -18.5103  -11.5312  146.4303 C   0  0  0  0  0  0  0  0  0  0  0  0
  -20.3359  -10.4214  146.5760 C   0  0  0  0  0  0  0  0  0  0  0  0
  -21.8392   -9.4663  147.0304 N   0  0  0  0  0  0  0  0  0  0  0  0
  -17.4867  -12.5622  147.5731 C   0  0  0  0  0  0  0  0  0  0  0  0
  -15.7596  -12.2933  148.3057 C   0  0  0  0  0  0  0  0  0  0  0  0
  -21.2742  -11.3130  145.2949 C   0  0  0  0  0  0  0  0  0  0  0  0
  -17.0124  -13.4110  146.4915 O   0  0  0  0  0  0  0  0  0  0  0  0
  -22.4914  -10.5368  144.0384 C   0  0  0  0  0  0  0  0  0  0  0  0
  -23.2845   -9.5962  146.1672 C   0  0  0  0  0  0  0  0  0  0  0  0
  -22.9323   -9.1561  144.7320 C   0  0  0  0  0  0  0  0  0  0  0  0
  -21.2587   -9.9290  149.5061 C   0  0  0  0  0  0  0  0  0  0  0  0
  -19.6461  -13.9909  147.7920 C   0  0  0  0  0  0  0  0  0  0  0  0
  -18.5881  -13.2562  148.5077 N   0  0  0  0  0  0  0  0  0  0  0  0
  -22.2828   -9.9719  148.3314 C   0  0  0  0  0  0  0  0  0  0  0  0
  -20.9587  -13.1071  147.4068 C   0  0  0  0  0  0  0  0  0  0  0  0
  -21.5834  -12.8361  145.8824 C   0  0  0  0  0  0  0  0  0  0  0  0
  -21.9061   -9.6030  150.9051 C   0  0  0  0  0  0  0  0  0  0  0  0
  -22.2570   -8.0793  150.9728 C   0  0  0  0  0  0  0  0  0  0  0  0
  -23.5176   -7.2094  150.8386 C   0  0  0  0  0  0  0  0  0  0  0  0
  -23.1610   -5.6942  151.2613 C   0  0  0  0  0  0  0  0  0  0  0  0
  -24.0105   -4.7200  150.2778 C   0  0  0  0  0  0  0  0  0  0  0  0
  -22.8151  -10.6970  151.7208 C   0  0  0  0  0  0  0  0  0  0  0  0
  -24.9959   -3.9216  151.1036 N   0  0  0  0  0  0  0  0  0  0  0  0
  2  1  1  0
  3  2  1  0
  4  1  1  0
  5  4  1  0
  6  2  1  0
  7  4  1  0
  8  6  1  0
  9  3  1  0
 10  8  1  0
 10  9  1  0
 13  4  1  0
 13 12  1  0
 14  3  1  0
 14 11  1  0
 15 12  1  0
 16  6  1  0
 16 15  1  0
 17 11  1  0
 18 17  1  0
 19 18  1  0
 20 19  1  0
 21 20  1  0
 22 17  1  0
 23 21  1  0
M  END
$$$$

     RDKit          3D

 24 28  0  0  0  0  0  0  0  0999 V2000
  -21.8921  -16.3247  138.5345 C   0  0  0  0  0  0  0  0  0  0  0  0
  -21.4451  -17.8037  138.8163 C   0  0  0  0  0  0  0  0  0  0  0  0
  -20.6768  -15.3606  138.4039 C   0  0  0  0  0  0  0  0  0  0  0  0
  -21.2083  -13.9630  138.7764 C   0  0  0  0  0  0  0  0  0  0  0  0
  -21.9200  -18.3858  141.1661 C   0  0  0  0  0  0  0  0  0  0  0  0
  -20.9011  -18.0115  140.1818 N   0  0  0  0  0  0  0  0  0  0  0  0
  -18.3825  -15.3470  138.8202 C   0  0  0  0  0  0  0  0  0  0  0  0
  -21.0496  -20.5983  140.3242 C   0  0  0  0  0  0  0  0  0  0  0  0
  -19.6482  -15.7327  139.3133 O   0  0  0  0  0  0  0  0  0  0  0  0
  -19.9816  -20.2428  139.3225 C   0  0  0  0  0  0  0  0  0  0  0  0
  -21.2393  -19.6867  141.4997 C   0  0  0  0  0  0  0  0  0  0  0  0
  -20.1922  -19.2881  140.4858 C   0  0  0  0  0  0  0  0  0  0  0  0
  -22.7095  -15.6622  139.6647 C   0  0  0  0  0  0  0  0  0  0  0  0
  -23.9764  -17.1575  137.1453 C   0  0  0  0  0  0  0  0  0  0  0  0
  -25.1190  -16.4216  136.4342 C   0  0  0  0  0  0  0  0  0  0  0  0
  -22.6884  -16.2972  137.1822 C   0  0  0  0  0  0  0  0  0  0  0  0
  -22.5871  -14.1570  139.4283 C   0  0  0  0  0  0  0  0  0  0  0  0
  -26.3572  -17.3013  136.3088 C   0  0  0  0  0  0  0  0  0  0  0  0
  -22.8372  -13.3165  140.7122 C   0  0  0  0  0  0  0  0  0  0  0  0
  -21.7591  -13.4169  141.6142 O   0  0  0  0  0  0  0  0  0  0  0  0
  -23.1393  -11.8324  140.3775 C   0  0  0  0  0  0  0  0  0  0  0  0
  -23.5281  -11.0037  141.6009 C   0  0  0  0  0  0  0  0  0  0  0  0
  -21.9310  -10.9193  140.1518 C   0  0  0  0  0  0  0  0  0  0  0  0
  -22.3349  -10.0909  141.3631 C   0  0  0  0  0  0  0  0  0  0  0  0
  2  1  1  0
  3  1  1  0
  4  3  1  0
  6  2  1  0
  6  5  1  0
  9  3  1  0
  9  7  1  0
 10  8  1  0
 11  5  1  0
 11  8  1  0
 12  6  1  0
 12  8  1  0
 12 10  1  0
 12 11  1  0
 13  1  1  0
 15 14  1  0
 16  1  1  0
 16 14  1  0
 17  4  1  0
 17 13  1  0
 18 15  1  0
 19 17  1  0
 20 19  1  0
 21 19  1  0
 22 21  1  0
 23 21  1  0
 24 22  1  0
 24 23  1  0
M  END
$$$$

     RDKit          3D

 25 30  0  0  0  0  0  0  0  0999 V2000
  -31.2651  -19.9891  147.9934 O   0  0  0  0  0  0  0  0  0  0  0  0
  -29.8724  -19.7446  148.1145 C   0  0  0  0  0  0  0  0  0  0  0  0
  -29.1995  -20.9543  147.8512 O   0  0  0  0  0  0  0  0  0  0  0  0
  -31.6833  -19.9094  146.6483 C   0  0  0  0  0  0  0  0  0  0  0  0
  -29.5676  -19.2293  149.5869 C   0  0  0  0  0  0  0  0  0  0  0  0
  -30.6988  -18.2455  150.0493 C   0  0  0  0  0  0  0  0  0  0  0  0
  -28.1210  -18.5605  149.8342 C   0  0  0  0  0  0  0  0  0  0  0  0
  -26.9423  -18.0587  148.9283 C   0  0  0  0  0  0  0  0  0  0  0  0
  -30.8774  -17.0552  149.1087 C   0  0  0  0  0  0  0  0  0  0  0  0
  -31.5692  -15.7814  149.6306 C   0  0  0  0  0  0  0  0  0  0  0  0
  -27.3790  -15.4188  149.0057 P   0  0  0  0  0  0  0  0  0  0  0  0
  -29.6854  -20.4633  150.5279 C   0  0  0  0  0  0  0  0  0  0  0  0
  -27.9162  -17.8438  151.1870 C   0  0  0  0  0  0  0  0  0  0  0  0
  -31.0019  -14.5425  148.9750 C   0  0  0  0  0  0  0  0  0  0  0  0
  -31.7957  -15.4489  151.1117 C   0  0  0  0  0  0  0  0  0  0  0  0
  -28.8521  -15.5872  150.1575 C   0  0  0  0  0  0  0  0  0  0  0  0
  -31.2757  -13.4582  150.0213 C   0  0  0  0  0  0  0  0  0  0  0  0
  -31.2973  -14.0884  151.3369 N   0  0  0  0  0  2  0  0  0  0  0  0
  -27.4897  -16.9961  147.9985 C   0  0  0  0  0  0  0  0  0  0  0  0
  -27.0602  -19.5119  149.2768 C   0  0  0  0  0  0  0  0  0  0  0  0
  -33.1679  -15.4787  151.3632 O   0  0  0  0  0  1  0  0  0  0  0  0
  -28.6581  -16.5661  151.2621 N   0  0  0  0  0  0  0  0  0  0  0  0
  -30.2758  -12.2951  149.9558 C   0  0  0  0  0  0  0  0  0  0  0  0
  -30.0915  -15.7607  149.2126 C   0  0  0  0  0  0  0  0  0  0  0  0
  -30.6340  -11.4315  148.9342 F   0  0  0  0  0  0  0  0  0  0  0  0
  2  1  1  0
  3  2  1  0
  4  1  1  0
  5  2  1  0
  6  5  1  0
  7  5  1  0
  8  7  1  0
  9  6  1  0
 10  9  1  0
 12  5  1  0
 13  7  1  0
 14 10  1  0
 15 10  1  0
 16 11  1  0
 17 14  1  0
 18 15  1  0
 18 17  1  0
 19  8  1  0
 19 11  1  0
 20  7  1  0
 20  8  1  0
 21 15  1  0
 22 13  1  0
 22 16  1  0
 23 17  1  0
 24  9  1  0
 24 10  1  0
 24 14  1  0
 24 16  1  0
 25 23  1  0
M  RAD  2  18   2  21   2
M  END
$$$$

     RDKit          3D

 25 29  0  0  0  0  0  0  0  0999 V2000
  -20.2353   -2.3056  135.9433 O   0  0  0  0  0  0  0  0  0  0  0  0
  -22.7179    3.2996  144.3169 C   0  0  0  0  0  0  0  0  0  0  0  0
  -24.3245    3.6974  144.4245 O   0  0  0  0  0  0  0  0  0  0  0  0
  -20.7412   -2.4652  137.5004 C   0  0  0  0  0  0  0  0  0  0  0  0
  -19.2590   -3.6072  136.4956 C   0  0  0  0  0  0  0  0  0  0  0  0
  -21.4816   -1.1669  137.9443 F   0  0  0  0  0  0  0  0  0  0  0  0
  -21.3500   -1.2091  146.0716 C   0  0  0  0  0  0  0  0  0  0  0  0
  -21.0242   -1.5901  143.9100 C   0  0  0  0  0  0  0  0  0  0  0  0
  -21.6391    0.5707  146.6932 C   0  0  0  0  0  0  0  0  0  0  0  0
  -19.5736   -4.4498  139.0755 C   0  0  0  0  0  0  0  0  0  0  0  0
  -21.6808    0.6645  144.9897 C   0  0  0  0  0  0  0  0  0  0  0  0
  -19.6843   -1.4526  143.4052 C   0  0  0  0  0  0  0  0  0  0  0  0
  -20.2041   -3.1332  143.0738 C   0  0  0  0  0  0  0  0  0  0  0  0
  -19.3786   -3.2193  138.2093 C   0  0  0  0  0  0  0  0  0  0  0  0
  -23.3951   -0.0695  144.8387 C   0  0  0  0  0  0  0  0  0  0  0  0
  -24.0232   -1.6390  145.8095 C   0  0  0  0  0  0  0  0  0  0  0  0
  -25.5693   -1.3260  146.1177 C   0  0  0  0  0  0  0  0  0  0  0  0
  -18.4070   -3.9923  139.6943 C   0  0  0  0  0  0  0  0  0  0  0  0
  -22.5967    2.0401  147.5700 C   0  0  0  0  0  0  0  0  0  0  0  0
  -24.8418    1.0197  144.1080 C   0  0  0  0  0  0  0  0  0  0  0  0
  -24.6634    1.6291  142.8065 C   0  0  0  0  0  0  0  0  0  0  0  0
  -18.4789   -5.2545  141.1842 C   0  0  0  0  0  0  0  0  0  0  0  0
  -25.2563    2.6129  143.9433 C   0  0  0  0  0  0  0  0  0  0  0  0
  -20.4421   -0.4438  142.4970 C   0  0  0  0  0  0  0  0  0  0  0  0
  -19.8431   -5.2585  142.1541 C   0  0  0  0  0  0  0  0  0  0  0  0
  3  2  1  0
  4  1  1  0
  5  1  1  0
  6  4  1  0
  8  7  1  0
  9  7  1  0
 11  9  1  0
 12  8  1  0
 13  8  1  0
 13 12  1  0
 14  4  1  0
 14  5  1  0
 14 10  1  0
 15 11  1  0
 16 15  1  0
 17 16  1  0
 18 10  1  0
 18 14  1  0
 19  9  1  0
 20 15  1  0
 21 20  1  0
 22 18  1  0
 23  3  1  0
 23 20  1  0
 23 21  1  0
 24  8  1  0
 24 12  1  0
 25 13  1  0
 25 22  1  0
M  END
$$$$

     RDKit          3D

 25 32  0  0  0  0  0  0  0  0999 V2000
  -29.0833  -19.0676  149.1886 N   0  0  0  0  0  0  0  0  0  0  0  0
  -29.7717  -18.0226  149.9535 C   0  0  0  0  0  0  0  0  0  0  0  0
  -30.2984  -16.9955  149.0280 N   0  0  0  0  0  0  0  0  0  0  0  0
  -28.7820  -17.4384  150.8822 N   0  0  0  0  0  0  0  0  0  0  0  0
  -31.6279  -16.5902  149.4761 C   0  0  0  0  0  0  0  0  0  0  0  0
  -32.1260  -17.6047  150.4852 C   0  0  0  0  0  0  0  0  0  0  0  0
  -28.4908  -18.8318  147.9036 C   0  0  0  0  0  0  0  0  0  0  0  0
  -29.0949  -19.2052  146.8620 O   0  0  0  0  0  0  0  0  0  0  0  0
  -32.1711  -19.0343  150.0020 C   0  0  0  0  0  0  0  0  0  0  0  0
  -27.3293  -16.7858  147.1242 C   0  0  0  0  0  0  0  0  0  0  0  0
  -30.9951  -18.5419  150.7866 C   0  0  0  0  0  0  0  0  0  0  0  0
  -26.0302  -16.0262  146.9112 C   0  0  0  0  0  0  0  0  0  0  0  0
  -31.5238  -19.9952  151.0353 C   0  0  0  0  0  0  0  0  0  0  0  0
  -27.1550  -18.1613  147.7732 C   0  0  0  0  0  0  0  0  0  0  0  0
  -25.3386  -16.3222  145.5885 C   0  0  0  0  0  0  0  0  0  0  0  0
  -24.5093  -17.5720  145.5292 C   0  0  0  0  0  0  0  0  0  0  0  0
  -30.6872  -21.0997  150.4040 C   0  0  0  0  0  0  0  0  0  0  0  0
  -26.2008  -14.5084  147.2371 C   0  0  0  0  0  0  0  0  0  0  0  0
  -26.8228  -16.6295  145.7093 C   0  0  0  0  0  0  0  0  0  0  0  0
  -26.7121  -13.5124  146.1907 C   0  0  0  0  0  0  0  0  0  0  0  0
  -23.7715  -17.9952  146.5573 C   0  0  0  0  0  0  0  0  0  0  0  0
  -31.2516  -22.4674  150.6337 C   0  0  0  0  0  0  0  0  0  0  0  0
  -25.3765  -12.8271  146.4014 C   0  0  0  0  0  0  0  0  0  0  0  0
  -32.1973  -21.2849  150.5568 C   0  0  0  0  0  0  0  0  0  0  0  0
  -24.8974  -13.8444  147.3356 N   0  0  0  0  0  0  0  0  0  0  0  0
  2  1  1  0
  3  2  1  0
  4  2  1  0
  5  3  1  0
  6  5  1  0
  7  1  1  0
  8  7  2  0
  9  6  1  0
 11  2  1  0
 11  6  1  0
 11  9  1  0
 12 10  1  0
 13  9  1  0
 13 11  1  0
 14  7  1  0
 14 10  1  0
 15 12  1  0
 16 15  1  0
 17 13  1  0
 18 12  1  0
 19 10  1  0
 19 12  1  0
 19 15  1  0
 20 18  1  0
 21 16  2  0
 22 17  1  0
 23 20  1  0
 24 13  1  0
 24 17  1  0
 24 22  1  0
 25 18  1  0
 25 23  1  0
M  END
$$$$

     RDKit          3D

 24 31  0  0  0  0  0  0  0  0999 V2000
  -17.9937   -9.0229  142.3545 N   0  0  0  0  0  0  0  0  0  0  0  0
  -17.2846   -7.9664  143.8393 C   0  0  0  0  0  0  0  0  0  0  0  0
  -16.8323   -8.0973  142.5407 N   0  0  0  0  0  0  0  0  0  0  0  0
  -15.6305   -8.6430  142.9379 O   0  0  0  0  0  0  0  0  0  0  0  0
  -16.7260   -9.1942  145.7191 S   0  0  0  0  0  0  0  0  0  0  0  0
  -19.8226   -9.2096  143.5895 C   0  0  0  0  0  0  0  0  0  0  0  0
  -18.6398  -10.0881  143.4015 C   0  0  0  0  0  0  0  0  0  0  0  0
  -18.7424   -8.1623  143.2440 C   0  0  0  0  0  0  0  0  0  0  0  0
  -15.5865  -11.8569  144.2615 C   0  0  0  0  0  0  0  0  0  0  0  0
  -15.5876  -11.9665  145.7984 C   0  0  0  0  0  0  0  0  0  0  0  0
  -16.1615  -10.6498  143.6325 N   0  0  0  0  0  0  0  0  0  0  0  0
  -16.1150   -9.2051  144.0838 C   0  0  0  0  0  0  0  0  0  0  0  0
  -17.2154  -12.9887  147.6649 C   0  0  0  0  0  0  0  0  0  0  0  0
  -19.0051  -14.8285  147.5373 C   0  0  0  0  0  0  0  0  0  0  0  0
  -20.0174  -16.3345  149.3128 C   0  0  0  0  0  0  0  0  0  0  0  0
  -16.9846  -11.5187  147.9259 C   0  0  0  0  0  0  0  0  0  0  0  0
  -18.6143  -13.4868  148.2093 C   0  0  0  0  0  0  0  0  0  0  0  0
  -18.2869  -11.6170  145.6765 C   0  0  0  0  0  0  0  0  0  0  0  0
  -18.2074  -10.1848  145.0669 C   0  0  0  0  0  0  0  0  0  0  0  0
  -19.7144  -17.4367  150.3469 C   0  0  0  0  0  0  0  0  0  0  0  0
  -17.0520  -12.0354  146.4592 C   0  0  0  0  0  0  0  0  0  0  0  0
  -18.7208  -15.5283  148.9025 C   0  0  0  0  0  0  0  0  0  0  0  0
  -20.5330  -16.2647  150.7787 C   0  0  0  0  0  0  0  0  0  0  0  0
  -18.4696  -14.1802  149.5553 C   0  0  0  0  0  0  0  0  0  0  0  0
  3  1  1  0
  3  2  1  0
  4  3  1  0
  7  1  1  0
  7  6  1  0
  8  1  1  0
  8  2  1  0
  8  6  1  0
 10  9  1  0
 11  9  1  0
 12  2  1  0
 12  4  1  0
 12  5  1  0
 12 11  1  0
 16 13  1  0
 17 13  1  0
 17 14  1  0
 19  5  1  0
 19  7  1  0
 19 18  1  0
 20 15  1  0
 21 10  1  0
 21 13  1  0
 21 16  1  0
 21 18  1  0
 22 14  1  0
 22 15  1  0
 23 15  1  0
 23 20  1  0
 24 17  1  0
 24 22  1  0
M  END
$$$$

     RDKit          3D

 25 32  0  0  0  0  0  0  0  0999 V2000
  -19.2328  -17.1984  143.2929 N   0  0  0  0  0  0  0  0  0  0  0  0
  -19.1824  -15.9742  142.4722 C   0  0  0  0  0  0  0  0  0  0  0  0
  -17.9132  -15.6805  141.7592 N   0  0  0  0  0  0  0  0  0  0  0  0
  -19.1411  -15.8552  143.9010 C   0  0  0  0  0  0  0  0  0  0  0  0
  -18.2379  -18.7150  141.5159 Mg  0  0  0  0  0  2  0  0  0  0  0  0
  -16.8372  -15.5064  143.6278 C   0  0  0  0  0  0  0  0  0  0  0  0
  -20.4730  -15.1958  144.3068 C   0  0  0  0  0  0  0  0  0  0  0  0
  -20.0880  -19.7368  141.0334 C   0  0  0  0  0  0  0  0  0  0  0  0
  -16.6296  -16.1426  142.2841 C   0  0  0  0  0  0  0  0  0  0  0  0
  -20.9772  -15.6674  145.6703 C   0  0  0  0  0  0  0  0  0  0  0  0
  -20.4623  -14.2446  145.5115 C   0  0  0  0  0  0  0  0  0  0  0  0
  -19.0800  -13.9339  146.1448 C   0  0  0  0  0  0  0  0  0  0  0  0
  -18.7190  -12.0769  147.8295 C   0  0  0  0  0  0  0  0  0  0  0  0
  -20.1459  -12.4122  147.8369 C   0  0  0  0  0  0  0  0  0  0  0  0
  -18.3176  -11.1665  146.6470 C   0  0  0  0  0  0  0  0  0  0  0  0
  -19.1559  -13.4847  147.5612 N   0  0  0  0  0  0  0  0  0  0  0  0
  -17.6083   -9.9546  147.1049 N   0  0  0  0  0  0  0  0  0  0  0  0
  -16.4701  -17.6756  142.2343 C   0  0  0  0  0  0  0  0  0  0  0  0
  -18.1911  -15.0240  143.0780 C   0  0  0  0  0  0  0  0  0  0  0  0
  -16.6366   -9.5919  146.0525 C   0  0  0  0  0  0  0  0  0  0  0  0
  -15.3734   -8.9394  146.6134 C   0  0  0  0  0  0  0  0  0  0  0  0
  -15.6320  -11.9381  147.5056 Br  0  0  0  0  0  0  0  0  0  0  0  0
  -16.8955  -11.0119  146.3250 C   0  0  0  0  0  0  0  0  0  0  0  0
  -15.7581  -14.1203  143.9438 Cl  0  0  0  0  0  0  0  0  0  0  0  0
  -20.7765  -12.5405  149.2218 C   0  0  0  0  0  0  0  0  0  0  0  0
  2  1  1  0
  3  2  1  0
  4  1  1  0
  4  2  1  0
  7  4  1  0
  8  5  1  0
  9  3  1  0
  9  6  1  0
 10  7  1  0
 11  7  1  0
 11 10  1  0
 12 11  1  0
 14 13  1  0
 15 13  1  0
 16 12  1  0
 16 13  1  0
 16 14  1  0
 17 15  1  0
 18  5  1  0
 18  9  1  0
 19  2  1  0
 19  3  1  0
 19  4  1  0
 19  6  1  0
 20 17  1  0
 21 20  1  0
 23 15  1  0
 23 17  1  0
 23 20  1  0
 23 22  1  0
 24  6  1  0
 25 14  1  0
M  END
$$$$

     RDKit          3D

 11 10  0  0  0  0  0  0  0  0999 V2000
  -19.1367   -3.2988  145.0302 C   0  0  0  0  0  0  0  0  0  0  0  0
  -17.8135   -3.4635  145.6726 N   0  0  0  0  0  0  0  0  0  0  0  0
  -19.0252   -2.6416  143.6415 C   0  0  0  0  0  0  0  0  0  0  0  0
  -19.7686   -4.5523  144.9191 O   0  0  0  0  0  0  0  0  0  0  0  0
  -17.2726   -2.2220  146.2530 C   0  0  0  0  0  0  0  0  0  0  0  0
  -18.9719   -5.3447  144.2120 F   0  0  0  0  0  0  0  0  0  0  0  0
  -19.9510   -2.5024  145.8215 F   0  0  0  0  0  0  0  0  0  0  0  0
  -16.7322   -0.6975  148.5405 P   0  0  0  0  0  0  0  0  0  0  0  0
  -18.0601    0.5480  148.1370 C   0  0  0  0  0  0  0  0  0  0  0  0
  -17.2029   -1.0290  150.3133 C   0  0  0  0  0  0  0  0  0  0  0  0
  -17.4810   -2.2263  147.7662 C   0  0  0  0  0  0  0  0  0  0  0  0
  2  1  1  0
  3  1  1  0
  4  1  1  0
  5  2  1  0
  6  4  1  0
  7  1  1  0
  9  8  1  0
 10  8  1  0
 11  5  1  0
 11  8  1  0
M  END
$$$$

     RDKit          3D

 25 31  0  0  0  0  0  0  0  0999 V2000
  -27.1948   -3.4620  141.4511 O   0  0  0  0  0  0  0  0  0  0  0  0
  -27.2095   -2.4763  142.4566 C   0  0  0  0  0  0  0  0  0  0  0  0
  -25.9046   -2.2624  142.9291 O   0  0  0  0  0  0  0  0  0  0  0  0
  -27.7142   -3.8531  142.7071 C   0  0  0  0  0  0  0  0  0  0  0  0
  -29.7842   -5.1032  143.5903 C   0  0  0  0  0  0  0  0  0  0  0  0
  -29.4949   -4.5963  145.0314 C   0  0  0  0  0  0  0  0  0  0  0  0
  -29.1369   -6.4929  143.3847 C   0  0  0  0  0  0  0  0  0  0  0  0
  -30.2425   -3.7584  145.9089 C   0  0  0  0  0  0  0  0  0  0  0  0
  -29.7346   -7.6250  144.1709 C   0  0  0  0  0  0  0  0  0  0  0  0
  -30.6824   -7.5338  145.1059 C   0  0  0  0  0  0  0  0  0  0  0  0
  -29.2244   -4.1026  142.5526 C   0  0  0  0  0  0  0  0  0  0  0  0
  -31.4277   -6.2635  145.4350 C   0  0  0  0  0  0  0  0  0  0  0  0
  -29.2279   -5.0329  146.3658 C   0  0  0  0  0  0  0  0  0  0  0  0
  -32.7116   -6.6332  146.1876 C   0  0  0  0  0  0  0  0  0  0  0  0
  -32.8143   -6.0036  144.8044 C   0  0  0  0  0  0  0  0  0  0  0  0
  -33.5912   -4.6726  144.8841 C   0  0  0  0  0  0  0  0  0  0  0  0
  -33.1323   -3.5685  143.9038 C   0  0  0  0  0  0  0  0  0  0  0  0
  -33.9819   -2.2723  144.0225 C   0  0  0  0  0  0  0  0  0  0  0  0
  -33.5662   -1.0951  143.0959 C   0  0  0  0  0  0  0  0  0  0  0  0
  -32.2946   -1.1354  142.2552 C   0  0  0  0  0  0  0  0  0  0  0  0
  -35.5285   -2.4703  144.0631 C   0  0  0  0  0  0  0  0  0  0  0  0
  -36.1403   -2.9006  142.7303 C   0  0  0  0  0  0  0  0  0  0  0  0
  -30.6468   -5.1382  146.1302 C   0  0  0  0  0  0  0  0  0  0  0  0
  -33.6611   -1.2867  141.5823 C   0  0  0  0  0  0  0  0  0  0  0  0
  -34.0339    0.5332  143.6354 Cl  0  0  0  0  0  0  0  0  0  0  0  0
  2  1  1  0
  3  2  1  0
  4  1  1  0
  4  2  1  0
  6  5  1  0
  7  5  1  0
  8  6  1  0
  9  7  1  0
 10  9  2  0
 11  4  1  0
 11  5  1  0
 12 10  1  0
 13  6  1  0
 13  8  1  0
 14 12  1  0
 15 12  1  0
 15 14  1  0
 16 15  1  0
 17 16  1  0
 18 17  1  0
 19 18  1  0
 20 19  1  0
 21 18  1  0
 22 21  1  0
 23  6  1  0
 23  8  1  0
 23 12  1  0
 23 13  1  0
 24 19  1  0
 24 20  1  0
 25 19  1  0
M  END
$$$$

     RDKit          3D

 25 30  0  0  0  0  0  0  0  0999 V2000
  -21.1740  -21.0653  131.7532 N   0  0  0  0  0  0  0  0  0  0  0  0
  -21.8197  -22.2386  131.1113 C   0  0  0  0  0  0  0  0  0  0  0  0
  -21.7977  -22.0540  129.7197 O   0  0  0  0  0  0  0  0  0  0  0  0
  -21.0214  -23.5142  131.4549 C   0  0  0  0  0  0  0  0  0  0  0  0
  -22.1152  -20.1940  132.5621 C   0  0  0  0  0  0  0  0  0  0  0  0
  -21.5813  -18.8527  133.1927 C   0  0  0  0  0  0  0  0  0  0  0  0
  -23.5098  -19.8920  131.9591 C   0  0  0  0  0  0  0  0  0  0  0  0
  -21.7648  -24.4027  132.4240 C   0  0  0  0  0  0  0  0  0  0  0  0
  -19.7233  -23.0116  132.0385 C   0  0  0  0  0  0  0  0  0  0  0  0
  -20.1034  -21.6632  132.6143 C   0  0  0  0  0  0  0  0  0  0  0  0
  -20.2846  -17.9251  133.0797 C   0  0  0  0  0  0  0  0  0  0  0  0
  -23.9469  -20.1850  130.5067 C   0  0  0  0  0  0  0  0  0  0  0  0
  -25.3243  -19.6228  130.1593 C   0  0  0  0  0  0  0  0  0  0  0  0
  -18.9013  -20.7132  132.7303 C   0  0  0  0  0  0  0  0  0  0  0  0
  -22.0773  -23.9834  133.5713 O   0  0  0  0  0  0  0  0  0  0  0  0
  -22.4317  -18.8246  131.9367 C   0  0  0  0  0  0  0  0  0  0  0  0
  -25.1299  -21.1282  130.2735 C   0  0  0  0  0  0  0  0  0  0  0  0
  -22.1303  -25.6877  132.0367 O   0  0  0  0  0  0  0  0  0  0  0  0
  -19.4760  -17.7754  131.7267 C   0  0  0  0  0  0  0  0  0  0  0  0
  -18.2505  -20.1233  131.4633 C   0  0  0  0  0  0  0  0  0  0  0  0
  -19.0914  -18.9929  130.8234 C   0  0  0  0  0  0  0  0  0  0  0  0
  -19.3712  -18.0755  134.3716 C   0  0  0  0  0  0  0  0  0  0  0  0
  -18.0375  -18.9026  134.3180 C   0  0  0  0  0  0  0  0  0  0  0  0
  -25.8121  -21.7798  131.4833 C   0  0  0  0  0  0  0  0  0  0  0  0
  -18.1812  -20.4427  134.0584 C   0  0  0  0  0  0  0  0  0  0  0  0
  2  1  1  0
  3  2  1  0
  4  2  1  0
  5  1  1  0
  6  5  1  0
  7  5  1  0
  8  4  1  0
  9  4  1  0
 10  1  1  0
 10  9  1  0
 11  6  1  0
 12  7  1  0
 13 12  1  0
 14 10  1  0
 15  8  2  0
 16  5  1  0
 16  6  1  0
 16  7  1  0
 17 12  1  0
 17 13  1  0
 18  8  1  0
 19 11  1  0
 20 14  1  0
 21 19  1  0
 21 20  1  0
 22 11  1  0
 23 22  1  0
 24 17  1  0
 25 14  1  0
 25 23  1  0
M  END
$$$$

     RDKit          3D

 24 28  0  0  0  0  0  0  0  0999 V2000
  -35.3043  -15.8286  148.5112 Cl  0  0  0  0  0  0  0  0  0  0  0  0
  -33.3126  -13.0985  148.1854 C   0  0  0  0  0  0  0  0  0  0  0  0
  -31.9421  -13.2889  148.9188 C   0  0  0  0  0  0  0  0  0  0  0  0
  -32.0881  -14.3615  149.9309 N   0  0  0  0  0  0  0  0  0  0  0  0
  -31.3321  -11.9190  149.4996 C   0  0  0  0  0  0  0  0  0  0  0  0
  -34.4596  -12.8160  149.1861 C   0  0  0  0  0  0  0  0  0  0  0  0
  -30.6822  -11.9659  150.9375 C   0  0  0  0  0  0  0  0  0  0  0  0
  -30.9464  -10.7251  151.7996 C   0  0  0  0  0  0  0  0  0  0  0  0
  -30.6654   -9.4414  151.0342 C   0  0  0  0  0  0  0  0  0  0  0  0
  -32.0847  -10.5671  149.1399 C   0  0  0  0  0  0  0  0  0  0  0  0
  -34.2068  -11.5772  150.0587 C   0  0  0  0  0  0  0  0  0  0  0  0
  -33.5574  -10.5242  149.2654 N   0  0  0  0  0  0  0  0  0  0  0  0
  -33.9432  -15.6120  147.3687 C   0  0  0  0  0  0  0  0  0  0  0  0
  -30.9999  -14.4651  150.9018 C   0  0  0  0  0  0  0  0  0  0  0  0
  -34.2667  -17.8901  146.2631 C   0  0  0  0  0  0  0  0  0  0  0  0
  -33.9695   -9.1548  149.6039 C   0  0  0  0  0  0  0  0  0  0  0  0
  -33.6793  -14.1190  147.0549 C   0  0  0  0  0  0  0  0  0  0  0  0
  -34.2667  -16.3710  146.0675 C   0  0  0  0  0  0  0  0  0  0  0  0
  -28.5275  -15.0502  151.2631 C   0  0  0  0  0  0  0  0  0  0  0  0
  -32.7364   -8.3564  149.9888 C   0  0  0  0  0  0  0  0  0  0  0  0
  -33.7918   -8.6944  151.0421 C   0  0  0  0  0  0  0  0  0  0  0  0
  -31.5327   -9.2768  149.7725 C   0  0  0  0  0  0  0  0  0  0  0  0
  -31.0183  -13.2121  151.7582 C   0  0  0  0  0  0  0  0  0  0  0  0
  -29.6359  -14.8033  150.2382 C   0  0  0  0  0  0  0  0  0  0  0  0
  3  2  1  0
  4  3  1  0
  5  3  1  0
  6  2  1  0
  7  5  1  0
  8  7  1  0
  9  8  1  0
 10  5  1  0
 11  6  1  0
 12 10  1  0
 12 11  1  0
 13  1  1  0
 14  4  1  0
 16 12  1  0
 17  2  1  0
 17 13  1  0
 18 13  1  0
 18 15  1  0
 20 16  1  0
 21 16  1  0
 21 20  1  0
 22  9  1  0
 22 10  1  0
 22 20  1  0
 23  7  1  0
 23 14  1  0
 24 14  1  0
 24 19  1  0
M  END
$$$$

     RDKit          3D

 24 26  0  0  0  0  0  0  0  0999 V2000
  -33.4494   -9.1441  132.7866 O   0  0  0  0  0  0  0  0  0  0  0  0
  -31.6732  -11.4604  133.1062 C   0  0  0  0  0  0  0  0  0  0  0  0
  -33.7785  -10.1887  133.5286 O   0  0  0  0  0  0  0  0  0  0  0  0
  -28.7369   -9.0255  137.4360 C   0  0  0  0  0  0  0  0  0  0  0  0
  -28.4717   -8.3732  136.0610 C   0  0  0  0  0  0  0  0  0  0  0  0
  -29.1114   -6.9919  135.7544 C   0  0  0  0  0  0  0  0  0  0  0  0
  -29.8237   -6.2396  136.8615 C   0  0  0  0  0  0  0  0  0  0  0  0
  -31.2430   -6.7066  137.0825 C   0  0  0  0  0  0  0  0  0  0  0  0
  -32.1644   -5.6514  137.1178 O   0  0  0  0  0  0  0  0  0  0  0  0
  -28.7953   -9.4172  134.9778 C   0  0  0  0  0  0  0  0  0  0  0  0
  -30.6192   -6.9351  135.7232 C   0  0  0  0  0  0  0  0  0  0  0  0
  -29.3060  -10.4141  137.1540 C   0  0  0  0  0  0  0  0  0  0  0  0
  -33.2340  -11.3289  132.8942 C   0  0  0  0  0  0  0  0  0  0  0  0
  -31.2086  -11.8982  134.5715 C   0  0  0  0  0  0  0  0  0  0  0  0
  -29.6413  -11.9174  134.9465 C   0  0  0  0  0  0  0  0  0  0  0  0
  -34.0183  -12.5705  133.3317 C   0  0  0  0  0  0  0  0  0  0  0  0
  -28.9058  -10.7450  135.7187 C   0  0  0  0  0  0  0  0  0  0  0  0
  -28.7185  -12.3198  133.7661 C   0  0  0  0  0  0  0  0  0  0  0  0
  -32.0842  -11.2910  135.6788 C   0  0  0  0  0  0  0  0  0  0  0  0
  -32.2539   -9.9634  135.7698 C   0  0  0  0  0  0  0  0  0  0  0  0
  -32.8847  -12.1890  136.6057 C   0  0  0  0  0  0  0  0  0  0  0  0
  -32.3546  -12.1652  138.0403 C   0  0  0  0  0  0  0  0  0  0  0  0
  -33.1298  -13.1331  138.9183 C   0  0  0  0  0  0  0  0  0  0  0  0
  -31.1656  -12.4156  131.9939 C   0  0  0  0  0  0  0  0  0  0  0  0
  3  1  1  0
  5  4  1  0
  6  5  1  0
  7  6  1  0
  8  7  1  0
  9  8  1  0
 10  5  1  0
 11  6  1  0
 11  7  1  0
 11  8  1  0
 12  4  1  0
 13  2  1  0
 13  3  1  0
 14  2  1  0
 15 14  1  0
 16 13  1  0
 17 10  1  0
 17 12  1  0
 17 15  1  0
 18 15  1  0
 19 14  1  0
 20 19  2  0
 21 19  1  0
 22 21  1  0
 23 22  1  0
 24  2  1  0
M  END
$$$$

     RDKit          3D

 25 35  0  0  0  0  0  0  0  0999 V2000
  -26.8324  -11.7543  135.4587 C   0  0  0  0  0  0  0  0  0  0  0  0
  -27.4189  -11.4132  134.0983 C   0  0  0  0  0  0  0  0  0  0  0  0
  -27.3851  -10.3466  133.1335 C   0  0  0  0  0  0  0  0  0  0  0  0
  -27.4823  -12.3028  136.7039 C   0  0  0  0  0  0  0  0  0  0  0  0
  -26.6768  -10.7939  131.8258 C   0  0  0  0  0  0  0  0  0  0  0  0
  -27.5245  -10.8019  136.4610 C   0  0  0  0  0  0  0  0  0  0  0  0
  -25.8876  -10.9167  134.6745 C   0  0  0  0  0  0  0  0  0  0  0  0
  -27.2538  -12.4778  131.5314 C   0  0  0  0  0  0  0  0  0  0  0  0
  -26.4160  -13.4793  132.5086 C   0  0  0  0  0  0  0  0  0  0  0  0
  -24.7498  -11.8814  134.3849 C   0  0  0  0  0  0  0  0  0  0  0  0
  -24.0378  -11.6878  133.1060 C   0  0  0  0  0  0  0  0  0  0  0  0
  -23.2662  -12.3064  132.0704 C   0  0  0  0  0  0  0  0  0  0  0  0
  -27.0326  -14.8411  132.8834 C   0  0  0  0  0  0  0  0  0  0  0  0
  -24.4852  -12.1498  131.0017 C   0  0  0  0  0  0  0  0  0  0  0  0
  -24.6789  -10.5604  133.5759 C   0  0  0  0  0  0  0  0  0  0  0  0
  -28.9388   -8.7827  130.3366 As  0  0  0  0  0  3  0  0  0  0  0  0
  -24.9200  -10.9005  132.0131 C   0  0  0  0  0  0  0  0  0  0  0  0
  -27.0480   -9.5282  130.8229 N   0  0  0  0  0  0  0  0  0  0  0  0
  -28.1559  -15.0492  131.7168 C   0  0  0  0  0  0  0  0  0  0  0  0
  -27.9392  -13.6428  132.4530 C   0  0  0  0  0  0  0  0  0  0  0  0
  -30.0198   -9.0395  132.0092 C   0  0  0  0  0  0  0  0  0  0  0  0
  -26.1656   -8.4475  130.8806 O   0  0  0  0  0  0  0  0  0  0  0  0
  -31.2016   -8.2923  131.5757 C   0  0  0  0  0  0  0  0  0  0  0  0
  -26.5287  -15.5597  134.4483 C   0  0  0  0  0  0  0  0  0  0  0  0
  -30.7726   -7.9480  130.2329 N   0  0  0  0  0  0  0  0  0  0  0  0
  2  1  1  0
  3  2  1  0
  4  1  1  0
  5  3  1  0
  6  1  1  0
  6  4  1  0
  7  1  1  0
  7  2  1  0
  8  5  1  0
  9  8  1  0
 10  7  1  0
 11 10  1  0
 12 11  1  0
 13  9  1  0
 14 12  1  0
 15  7  1  0
 15 10  1  0
 15 11  1  0
 17  5  1  0
 17 11  1  0
 17 14  1  0
 17 15  1  0
 18  5  1  0
 18 16  1  0
 19 13  1  0
 20  8  1  0
 20  9  1  0
 20 13  1  0
 20 19  1  0
 21 16  1  0
 22 18  1  0
 23 21  1  0
 24 13  1  0
 25 16  1  0
 25 23  1  0
M  END
$$$$

     RDKit          3D

 25 29  0  0  0  0  0  0  0  0999 V2000
  -40.1155  -12.7344  138.1621 O   0  0  0  0  0  0  0  0  0  0  0  0
  -40.1970  -11.8926  139.2772 C   0  0  0  0  0  0  0  0  0  0  0  0
  -41.1719  -12.1959  140.2287 O   0  0  0  0  0  0  0  0  0  0  0  0
  -39.6484  -10.4810  139.1207 C   0  0  0  0  0  0  0  0  0  0  0  0
  -39.5225   -9.5534  140.3393 C   0  0  0  0  0  0  0  0  0  0  0  0
  -38.9131  -10.6888  141.1533 C   0  0  0  0  0  0  0  0  0  0  0  0
  -37.6349  -10.3562  141.9398 C   0  0  0  0  0  0  0  0  0  0  0  0
  -37.5460  -11.4039  143.0905 C   0  0  0  0  0  0  0  0  0  0  0  0
  -38.8710  -11.6086  139.8987 C   0  0  0  0  0  0  0  0  0  0  0  0
  -36.2246  -11.4649  143.8835 C   0  0  0  0  0  0  0  0  0  0  0  0
  -36.4322   -9.9666  140.9505 C   0  0  0  0  0  0  0  0  0  0  0  0
  -35.9106  -12.7734  144.6812 C   0  0  0  0  0  0  0  0  0  0  0  0
  -35.9837  -12.8068  143.1582 C   0  0  0  0  0  0  0  0  0  0  0  0
  -37.3852  -12.8930  142.5822 C   0  0  0  0  0  0  0  0  0  0  0  0
  -34.5420  -11.4771  140.0538 C   0  0  0  0  0  0  0  0  0  0  0  0
  -34.4652  -10.8209  138.6664 C   0  0  0  0  0  0  0  0  0  0  0  0
  -34.7896  -11.7840  137.4634 C   0  0  0  0  0  0  0  0  0  0  0  0
  -33.2053  -12.2211  140.4597 C   0  0  0  0  0  0  0  0  0  0  0  0
  -33.6694  -11.6199  136.3909 C   0  0  0  0  0  0  0  0  0  0  0  0
  -32.4026  -12.4667  136.7153 C   0  0  0  0  0  0  0  0  0  0  0  0
  -34.9532  -10.3968  141.1441 C   0  0  0  0  0  0  0  0  0  0  0  0
  -32.0351  -13.6926  135.8192 C   0  0  0  0  0  0  0  0  0  0  0  0
  -33.1603  -14.4819  135.1698 C   0  0  0  0  0  0  0  0  0  0  0  0
  -32.4072  -14.1308  133.8572 C   0  0  0  0  0  0  0  0  0  0  0  0
  -31.3533  -13.3846  134.5483 N   0  0  0  0  0  0  0  0  0  0  0  0
  2  1  1  0
  3  2  1  0
  4  2  1  0
  5  4  1  0
  6  5  1  0
  7  6  1  0
  8  7  1  0
  9  2  1  0
  9  4  1  0
  9  6  1  0
 10  8  1  0
 11  7  1  0
 12 10  1  0
 13 10  1  0
 13 12  1  0
 14  8  1  0
 14 13  1  0
 16 15  1  0
 17 16  1  0
 18 15  1  0
 19 17  1  0
 20 19  1  0
 21 11  1  0
 21 15  1  0
 22 20  1  0
 23 22  1  0
 24 23  1  0
 25 22  1  0
 25 24  1  0
M  END
$$$$

     RDKit          3D

 25 31  0  0  0  0  0  0  0  0999 V2000
  -19.8080   -4.2759  137.3638 Sb  0  0  0  0  0  3  0  0  0  0  0  0
  -20.5672   -1.5381  140.0944 O   0  0  0  0  0  0  0  0  0  0  0  0
  -19.4353   -2.3988  134.0238 C   0  0  0  0  0  0  0  0  0  0  0  0
  -20.8704   -2.7621  134.5124 C   0  0  0  0  0  0  0  0  0  0  0  0
  -18.2450   -3.2659  134.4981 C   0  0  0  0  0  0  0  0  0  0  0  0
  -21.1347   -3.7803  135.6503 C   0  0  0  0  0  0  0  0  0  0  0  0
  -18.4483   -4.7523  134.1652 C   0  0  0  0  0  0  0  0  0  0  0  0
  -17.5602   -5.7236  134.8882 C   0  0  0  0  0  0  0  0  0  0  0  0
  -17.2731   -5.3742  133.4030 C   0  0  0  0  0  0  0  0  0  0  0  0
  -22.4346   -3.3031  136.2111 C   0  0  0  0  0  0  0  0  0  0  0  0
  -20.6499   -1.4185  138.6935 C   0  0  0  0  0  0  0  0  0  0  0  0
  -19.4688   -2.2020  138.0628 C   0  0  0  0  0  0  0  0  0  0  0  0
  -21.1803   -2.3615  135.9392 C   0  0  0  0  0  0  0  0  0  0  0  0
  -17.6775   -6.4762  132.3645 C   0  0  0  0  0  0  0  0  0  0  0  0
  -18.8594   -6.0767  131.4307 C   0  0  0  0  0  0  0  0  0  0  0  0
  -20.2903   -6.6480  131.7713 C   0  0  0  0  0  0  0  0  0  0  0  0
  -16.1432   -5.7802  134.3457 C   0  0  0  0  0  0  0  0  0  0  0  0
  -18.7551   -4.6655  130.8826 C   0  0  0  0  0  0  0  0  0  0  0  0
  -20.7870   -7.7752  130.8330 C   0  0  0  0  0  0  0  0  0  0  0  0
  -19.9546   -9.0738  130.7748 C   0  0  0  0  0  0  0  0  0  0  0  0
  -22.3850   -1.8710  136.6795 C   0  0  0  0  0  0  0  0  0  0  0  0
  -22.0936   -1.7518  138.2264 C   0  0  0  0  0  0  0  0  0  0  0  0
  -19.6783   -9.5436  132.0730 O   0  0  0  0  0  0  0  0  0  0  0  0
  -18.6384   -5.8522  129.9431 C   0  0  0  0  0  0  0  0  0  0  0  0
  -18.6390   -9.0163  129.9574 C   0  0  0  0  0  0  0  0  0  0  0  0
  4  3  1  0
  5  3  1  0
  6  1  1  0
  6  4  1  0
  7  5  1  0
  8  7  1  0
  9  7  1  0
  9  8  1  0
 10  6  1  0
 11  2  1  0
 12  1  1  0
 12 11  1  0
 13  4  1  0
 13  6  1  0
 13 10  1  0
 14  9  1  0
 15 14  1  0
 16 15  1  0
 17  8  1  0
 17  9  1  0
 18 15  1  0
 19 16  1  0
 20 19  1  0
 21 10  1  0
 21 13  1  0
 22 11  1  0
 22 21  1  0
 23 20  1  0
 24 15  1  0
 24 18  1  0
 25 20  1  0
M  END
$$$$

     RDKit          3D

 25 26  0  0  0  0  0  0  0  0999 V2000
  -24.9831   -2.7210  144.6606 O   0  0  0  0  0  0  0  0  0  0  0  0
  -25.3443   -1.5227  145.2711 C   0  0  0  0  0  0  0  0  0  0  0  0
  -26.7806   -1.4232  145.6346 C   0  0  0  0  0  0  0  0  0  0  0  0
  -27.6636   -2.5654  144.9244 C   0  0  0  0  0  0  0  0  0  0  0  0
  -27.6709   -4.0366  145.3278 C   0  0  0  0  0  0  0  0  0  0  0  0
  -26.0621   -0.9717  147.0214 C   0  0  0  0  0  0  0  0  0  0  0  0
  -26.9167   -5.1751  144.3927 B   0  0  0  0  0  0  0  0  0  0  0  0
  -27.5427   -6.1137  143.1578 C   0  0  0  0  0  0  0  0  0  0  0  0
  -28.7256   -7.7993  142.8099 C   0  0  0  0  0  0  0  0  0  0  0  0
  -24.8234   -1.4818  146.5766 O   0  0  0  0  0  0  0  0  0  0  0  0
  -29.0423   -9.4396  143.2262 C   0  0  0  0  0  0  0  0  0  0  0  0
  -28.6427  -10.5621  144.4730 C   0  0  0  0  0  0  0  0  0  0  0  0
  -29.0705   -7.2966  145.2520 C   0  0  0  0  0  0  0  0  0  0  0  0
  -28.9842   -6.1507  142.6774 C   0  0  0  0  0  0  0  0  0  0  0  0
  -27.9297   -7.4565  144.0001 C   0  0  0  0  0  0  0  0  0  0  0  0
  -28.1817  -10.4622  146.1238 C   0  0  0  0  0  0  0  0  0  0  0  0
  -28.5692  -11.3214  147.5420 C   0  0  0  0  0  0  0  0  0  0  0  0
  -26.2965   -6.1241  145.6620 C   0  0  0  0  0  0  0  0  0  0  0  0
  -30.1219  -11.7486  147.8687 C   0  0  0  0  0  0  0  0  0  0  0  0
  -27.7085  -12.5840  147.8899 C   0  0  0  0  0  0  0  0  0  0  0  0
  -31.3009  -10.8655  147.5227 C   0  0  0  0  0  0  0  0  0  0  0  0
  -31.9814  -11.0691  146.1483 C   0  0  0  0  0  0  0  0  0  0  0  0
  -30.3981  -13.1787  147.5976 N   0  0  0  0  0  0  0  0  0  0  0  0
  -28.1173  -10.3831  148.7341 C   0  0  0  0  0  0  0  0  0  0  0  0
  -27.9317  -10.9813  150.2096 C   0  0  0  0  0  0  0  0  0  0  0  0
  2  1  1  0
  3  2  1  0
  4  3  1  0
  5  4  1  0
  6  3  1  0
  7  5  1  0
  8  7  1  0
 10  2  1  0
 10  6  1  0
 11  9  1  0
 12 11  1  0
 14  8  1  0
 14  9  1  0
 15  8  1  0
 15  9  1  0
 15 13  1  0
 16 12  1  0
 17 16  1  0
 18  7  1  0
 19 17  1  0
 20 17  1  0
 21 19  1  0
 22 21  1  0
 23 19  1  0
 24 17  1  0
 25 24  1  0
M  END
$$$$

     RDKit          3D

 25 28  0  0  0  0  0  0  0  0999 V2000
  -25.4844  -23.7888  152.5861 C   0  0  0  0  0  0  0  0  0  0  0  0
  -24.7575  -24.4630  153.7382 C   0  0  0  0  0  0  0  0  0  0  0  0
  -25.5169  -25.5226  150.5973 C   0  0  0  0  0  0  0  0  0  0  0  0
  -24.0736  -23.4900  154.6511 C   0  0  0  0  0  0  0  0  0  0  0  0
  -24.3463  -23.4486  155.9620 C   0  0  0  0  0  0  0  0  0  0  0  0
  -23.9923  -25.2777  150.5728 C   0  0  0  0  0  0  0  0  0  0  0  0
  -26.2746  -24.4037  153.7632 C   0  0  0  0  0  0  0  0  0  0  0  0
  -23.1638  -26.1899  149.6564 C   0  0  0  0  0  0  0  0  0  0  0  0
  -23.8614  -27.3490  148.9136 C   0  0  0  0  0  0  0  0  0  0  0  0
  -27.0307  -25.3043  152.7867 C   0  0  0  0  0  0  0  0  0  0  0  0
  -26.3014  -24.6409  151.6118 C   0  0  0  0  0  0  0  0  0  0  0  0
  -26.7859  -26.8100  153.0365 C   0  0  0  0  0  0  0  0  0  0  0  0
  -27.2936  -27.2400  154.3882 C   0  0  0  0  0  0  0  0  0  0  0  0
  -27.0457  -28.4594  154.8970 C   0  0  0  0  0  0  0  0  0  0  0  0
  -26.1960  -29.4776  154.1810 C   0  0  0  0  0  0  0  0  0  0  0  0
  -23.0988  -26.3614  151.1725 C   0  0  0  0  0  0  0  0  0  0  0  0
  -24.6996  -29.2481  154.3463 C   0  0  0  0  0  0  0  0  0  0  0  0
  -25.3808  -30.3841  155.0895 C   0  0  0  0  0  0  0  0  0  0  0  0
  -22.8854  -28.1770  148.0656 C   0  0  0  0  0  0  0  0  0  0  0  0
  -21.8699  -28.9994  148.8854 C   0  0  0  0  0  0  0  0  0  0  0  0
  -20.5678  -28.2531  149.2435 C   0  0  0  0  0  0  0  0  0  0  0  0
  -18.2878  -27.5256  148.3287 C   0  0  0  0  0  0  0  0  0  0  0  0
  -18.0288  -26.2223  149.1110 C   0  0  0  0  0  0  0  0  0  0  0  0
  -17.8798  -26.4635  150.6112 C   0  0  0  0  0  0  0  0  0  0  0  0
  -19.7734  -27.7775  148.0128 C   0  0  0  0  0  0  0  0  0  0  0  0
  2  1  1  0
  4  2  1  0
  5  4  2  0
  6  3  1  0
  7  1  1  0
  7  2  1  0
  8  6  1  0
  9  8  1  0
 10  7  1  0
 11  1  1  0
 11  3  1  0
 11 10  1  0
 12 10  1  0
 13 12  1  0
 14 13  2  3
 15 14  1  0
 16  6  1  0
 16  8  1  0
 17 15  1  0
 18 15  1  0
 18 17  1  0
 19  9  1  0
 20 19  1  0
 21 20  1  0
 23 22  1  0
 24 23  1  0
 25 21  1  0
 25 22  1  0
M  END
$$$$

     RDKit          3D

 25 28  0  0  0  0  0  0  0  0999 V2000
  -29.1250  -12.7515  148.6321 O   0  0  0  0  0  0  0  0  0  0  0  0
  -29.2382  -13.2978  147.5074 C   0  0  0  0  0  0  0  0  0  0  0  0
  -29.3898  -12.4944  146.3787 O   0  0  0  0  0  0  0  0  0  0  0  0
  -29.0566  -14.7918  147.3896 C   0  0  0  0  0  0  0  0  0  0  0  0
  -27.7538  -15.0134  146.9155 O   0  0  0  0  0  0  0  0  0  0  0  0
  -30.0792  -15.4883  146.4348 C   0  0  0  0  0  0  0  0  0  0  0  0
  -30.0849  -17.0526  146.5391 C   0  0  0  0  0  0  0  0  0  0  0  0
  -28.7187  -17.7362  146.2397 C   0  0  0  0  0  0  0  0  0  0  0  0
  -32.1786  -15.4536  147.9028 C   0  0  0  0  0  0  0  0  0  0  0  0
  -32.1881  -16.9938  147.9562 C   0  0  0  0  0  0  0  0  0  0  0  0
  -31.5373  -14.9735  146.5961 C   0  0  0  0  0  0  0  0  0  0  0  0
  -32.9542  -17.6222  149.1131 C   0  0  0  0  0  0  0  0  0  0  0  0
  -32.8326  -17.3944  150.4470 C   0  0  0  0  0  0  0  0  0  0  0  0
  -27.8592  -18.0711  147.4785 C   0  0  0  0  0  0  0  0  0  0  0  0
  -30.7658  -17.5612  147.8359 C   0  0  0  0  0  0  0  0  0  0  0  0
  -33.5340  -18.3542  151.3829 C   0  0  0  0  0  0  0  0  0  0  0  0
  -26.3850  -18.3040  147.1253 C   0  0  0  0  0  0  0  0  0  0  0  0
  -26.1909  -19.5686  146.2748 C   0  0  0  0  0  0  0  0  0  0  0  0
  -25.8662  -20.8456  147.0338 C   0  0  0  0  0  0  0  0  0  0  0  0
  -33.9979  -17.6786  152.6700 C   0  0  0  0  0  0  0  0  0  0  0  0
  -32.9241  -16.8717  153.4104 C   0  0  0  0  0  0  0  0  0  0  0  0
  -24.7679  -20.1039  146.2889 C   0  0  0  0  0  0  0  0  0  0  0  0
  -31.9495  -16.0945  152.5414 C   0  0  0  0  0  0  0  0  0  0  0  0
  -32.0132  -16.2460  151.0105 C   0  0  0  0  0  0  0  0  0  0  0  0
  -31.4611  -17.3087  153.3266 C   0  0  0  0  0  0  0  0  0  0  0  0
  2  1  2  0
  3  2  1  0
  4  2  1  0
  5  4  1  0
  6  4  1  0
  7  6  1  0
  8  7  1  0
 10  9  1  0
 11  6  1  0
 11  9  1  0
 12 10  1  0
 13 12  2  3
 14  8  1  0
 15  7  1  0
 15 10  1  0
 16 13  1  0
 17 14  1  0
 18 17  1  0
 19 18  1  0
 20 16  1  0
 21 20  1  0
 22 18  1  0
 22 19  1  0
 23 21  1  0
 24 13  1  0
 24 23  1  0
 25 21  1  0
 25 23  1  0
M  END
$$$$

     RDKit          3D

 10  9  0  0  0  0  0  0  0  0999 V2000
  -25.8570  -13.4234  152.6427 N   0  0  0  0  0  0  0  0  0  0  0  0
  -26.5287  -12.1655  152.3011 C   0  0  0  0  0  0  0  0  0  0  0  0
  -26.6171  -11.2391  154.6782 C   0  0  0  0  0  0  0  0  0  0  0  0
  -26.3748  -10.2481  155.5307 C   0  0  0  0  0  0  0  0  0  0  0  0
  -28.0316  -12.3270  152.0963 C   0  0  0  0  0  0  0  0  0  0  0  0
  -28.7127  -11.6245  150.9476 C   0  0  0  0  0  0  0  0  0  0  0  0
  -28.7522  -13.0457  152.8860 N   0  0  0  0  0  0  0  0  0  0  0  0
  -29.7862  -10.7469  151.4339 N   0  0  0  0  0  0  0  0  0  0  0  0
  -26.2394  -11.1310  153.2982 N   0  0  0  0  0  0  0  0  0  0  0  0
  -29.2454   -9.5060  151.9959 C   0  0  0  0  0  0  0  0  0  0  0  0
  2  1  1  0
  4  3  2  0
  5  2  1  0
  6  5  1  0
  7  5  2  0
  8  6  1  0
  9  2  1  0
  9  3  1  0
 10  8  1  0
M  END
$$$$

     RDKit          3D

 11 12  0  0  0  0  0  0  0  0999 V2000
  -21.9573   -8.6820  144.2541 C   0  0  0  0  0  0  0  0  0  0  0  0
  -22.3189   -9.0417  142.8153 C   0  0  0  0  0  0  0  0  0  0  0  0
  -20.2348   -6.7352  143.9043 C   0  0  0  0  0  0  0  0  0  0  0  0
  -21.0499   -8.5340  142.2770 N   0  0  0  0  0  0  0  0  0  0  0  0
  -23.4820   -8.3104  142.2792 N   0  0  0  0  0  0  0  0  0  0  0  0
  -24.7348   -8.8699  142.7944 C   0  0  0  0  0  0  0  0  0  0  0  0
  -20.6406   -8.2135  143.6504 C   0  0  0  0  0  0  0  0  0  0  0  0
  -25.9201   -8.2073  142.0806 C   0  0  0  0  0  0  0  0  0  0  0  0
  -21.2694   -5.6570  143.5589 C   0  0  0  0  0  0  0  0  0  0  0  0
  -26.5072   -8.9804  140.9068 C   0  0  0  0  0  0  0  0  0  0  0  0
  -27.2451   -8.9386  142.2402 C   0  0  0  0  0  0  0  0  0  0  0  0
  2  1  1  0
  4  2  1  0
  5  2  1  0
  6  5  1  0
  7  1  1  0
  7  3  1  0
  7  4  1  0
  8  6  1  0
  9  3  1  0
 10  8  1  0
 11  8  1  0
 11 10  1  0
M  END
$$$$

     RDKit          3D

 25 31  0  0  0  0  0  0  0  0999 V2000
  -27.3601   -6.6401  137.9603 N   0  0  0  0  0  0  0  0  0  0  0  0
  -27.9600   -7.8766  138.7809 C   0  0  0  0  0  0  0  0  0  0  0  0
  -29.9358   -8.6975  138.3743 B   0  0  0  0  0  0  0  0  0  0  0  0
  -28.4954   -8.9934  138.1411 O   0  0  0  0  0  0  0  0  0  0  0  0
  -31.1642   -8.9961  137.6190 O   0  0  0  0  0  0  0  0  0  0  0  0
  -28.4858   -6.3422  137.0502 C   0  0  0  0  0  0  0  0  0  0  0  0
  -24.8987   -5.5025  139.6638 I   0  0  0  0  0  0  0  0  0  0  0  0
  -25.2078   -8.5211  138.6028 C   0  0  0  0  0  0  0  0  0  0  0  0
  -29.3625   -7.3449  139.0111 C   0  0  0  0  0  0  0  0  0  0  0  0
  -22.7565   -9.3592  138.3828 C   0  0  0  0  0  0  0  0  0  0  0  0
  -23.7603   -8.2123  138.0655 C   0  0  0  0  0  0  0  0  0  0  0  0
  -28.2737   -5.1133  136.0861 C   0  0  0  0  0  0  0  0  0  0  0  0
  -25.8036   -7.5059  139.4760 C   0  0  0  0  0  0  0  0  0  0  0  0
  -27.0619   -5.0158  135.2867 N   0  0  0  0  0  0  0  0  0  0  0  0
  -26.6033   -7.8234  138.1884 C   0  0  0  0  0  0  0  0  0  0  0  0
  -29.6275   -6.1791  138.0766 C   0  0  0  0  0  0  0  0  0  0  0  0
  -25.4149   -6.4058  134.1539 C   0  0  0  0  0  0  0  0  0  0  0  0
  -25.9516   -5.9138  135.5435 C   0  0  0  0  0  0  0  0  0  0  0  0
  -29.2269   -3.8644  135.9359 C   0  0  0  0  0  0  0  0  0  0  0  0
  -26.0876   -7.3515  135.1459 C   0  0  0  0  0  0  0  0  0  0  0  0
  -30.3581   -3.6586  136.8734 N   0  0  0  0  0  0  0  0  0  0  0  0
  -30.8950   -2.2948  136.6708 C   0  0  0  0  0  0  0  0  0  0  0  0
  -29.3945   -5.0314  135.0211 C   0  0  0  0  0  0  0  0  0  0  0  0
  -32.2213   -2.2828  136.1914 O   0  0  0  0  0  0  0  0  0  0  0  0
  -31.2721   -1.8541  135.2659 C   0  0  0  0  0  0  0  0  0  0  0  0
  2  1  1  0
  4  2  1  0
  4  3  1  0
  5  3  1  0
  6  1  1  0
  9  2  1  0
  9  3  1  0
 11  8  1  0
 11 10  1  0
 12  6  1  0
 13  7  1  0
 13  8  1  0
 14 12  1  0
 15  1  1  0
 15  2  1  0
 15  8  1  0
 15 13  1  0
 16  6  1  0
 16  9  1  0
 18 14  1  0
 18 17  1  0
 19 12  1  0
 20 17  1  0
 20 18  1  0
 21 19  1  0
 22 21  1  0
 23 12  1  0
 23 19  1  0
 24 22  1  0
 25 22  1  0
 25 24  1  0
M  END
$$$$

     RDKit          3D

 25 29  0  0  0  0  0  0  0  0999 V2000
  -26.3523  -14.8414  135.4657 N   0  0  0  0  0  0  0  0  0  0  0  0
  -25.5882  -13.6603  135.9070 C   0  0  0  0  0  0  0  0  0  0  0  0
  -24.1872  -13.6008  135.4406 N   0  0  0  0  0  0  0  0  0  0  0  0
  -26.0203  -13.1429  137.2858 C   0  0  0  0  0  0  0  0  0  0  0  0
  -24.8680  -12.7292  138.2370 C   0  0  0  0  0  0  0  0  0  0  0  0
  -26.7735  -12.4168  140.0349 C   0  0  0  0  0  0  0  0  0  0  0  0
  -26.3205  -12.3026  136.0113 C   0  0  0  0  0  0  0  0  0  0  0  0
  -27.6553  -12.3806  135.2091 C   0  0  0  0  0  0  0  0  0  0  0  0
  -25.7040  -16.0380  135.0306 C   0  0  0  0  0  0  0  0  0  0  0  0
  -28.8672  -11.4080  135.4055 C   0  0  0  0  0  0  0  0  0  0  0  0
  -24.8356  -10.7475  139.9373 C   0  0  0  0  0  0  0  0  0  0  0  0
  -29.2890  -10.2940  136.4729 C   0  0  0  0  0  0  0  0  0  0  0  0
  -25.0476   -9.6910  138.8025 C   0  0  0  0  0  0  0  0  0  0  0  0
  -26.0672   -8.5719  139.0689 C   0  0  0  0  0  0  0  0  0  0  0  0
  -27.2952   -9.0287  135.7504 C   0  0  0  0  0  0  0  0  0  0  0  0
  -29.8588  -10.7919  137.7436 C   0  0  0  0  0  0  0  0  0  0  0  0
  -28.8768  -12.8472  135.9526 C   0  0  0  0  0  0  0  0  0  0  0  0
  -28.4344   -9.0985  136.6721 N   0  0  0  0  0  0  0  0  0  0  0  0
  -27.3805   -8.9808  139.6847 C   0  0  0  0  0  0  0  0  0  0  0  0
  -25.2944  -12.1928  139.6388 C   0  0  0  0  0  0  0  0  0  0  0  0
  -28.4382   -9.4809  139.0412 C   0  0  0  0  0  0  0  0  0  0  0  0
  -28.4123  -10.1979  137.6859 C   0  0  0  0  0  0  0  0  0  0  0  0
  -24.9181  -16.0036  134.0357 O   0  0  0  0  0  0  0  0  0  0  0  0
  -25.9594  -17.3150  135.7450 C   0  0  0  0  0  0  0  0  0  0  0  0
  -25.6750  -18.4541  135.2028 N   0  0  0  0  0  0  0  0  0  0  0  0
  2  1  1  0
  3  2  1  0
  4  2  1  0
  5  4  1  0
  7  2  1  0
  7  4  1  0
  8  7  1  0
  9  1  1  0
 10  8  1  0
 12 10  1  0
 13 11  1  0
 14 13  1  0
 16 12  1  0
 17  8  1  0
 17 10  1  0
 18 12  1  0
 18 15  1  0
 19 14  1  0
 20  5  1  0
 20  6  1  0
 20 11  1  0
 21 19  2  3
 22 12  1  0
 22 16  1  0
 22 18  1  0
 22 21  1  0
 23  9  2  0
 24  9  1  0
 25 24  2  0
M  END
$$$$

     RDKit          3D

 24 27  0  0  0  0  0  0  0  0999 V2000
  -24.8182   -6.0554  146.4045 C   0  0  0  0  0  0  0  0  0  0  0  0
  -25.3240   -6.8781  147.5165 N   0  0  0  0  0  0  0  0  0  0  0  0
  -24.4836   -9.0721  147.1101 C   0  0  0  0  0  0  0  0  0  0  0  0
  -25.9887   -5.5567  145.6209 N   0  0  0  0  0  0  0  0  0  0  0  0
  -23.6945   -6.7107  145.6202 N   0  0  0  0  0  0  0  0  0  0  0  0
  -23.4526   -8.5087  148.0197 N   0  0  0  0  0  0  0  0  0  0  0  0
  -25.6632   -8.1485  147.0533 N   0  0  0  0  0  0  0  0  0  0  0  0
  -26.9398   -6.6526  145.3460 C   0  0  0  0  0  0  0  0  0  0  0  0
  -22.5138   -5.8683  145.4932 C   0  0  0  0  0  0  0  0  0  0  0  0
  -21.3335   -6.3537  145.2766 N   0  0  0  0  0  0  0  0  0  0  0  0
  -23.7419   -8.0244  144.8745 C   0  0  0  0  0  0  0  0  0  0  0  0
  -26.1775   -6.0104  144.2217 C   0  0  0  0  0  0  0  0  0  0  0  0
  -26.5894   -8.0836  145.8771 C   0  0  0  0  0  0  0  0  0  0  0  0
  -25.3538  -11.7126  145.1101 C   0  0  0  0  0  0  0  0  0  0  0  0
  -25.7863  -12.2733  144.1179 O   0  0  0  0  0  0  0  0  0  0  0  0
  -25.7941  -12.3281  146.4282 C   0  0  0  0  0  0  0  0  0  0  0  0
  -27.3090  -12.6373  146.3969 C   0  0  0  0  0  0  0  0  0  0  0  0
  -24.3468  -10.5667  144.8266 C   0  0  0  0  0  0  0  0  0  0  0  0
  -23.8358   -9.3418  145.7200 C   0  0  0  0  0  0  0  0  0  0  0  0
  -28.2422  -12.3596  147.4993 C   0  0  0  0  0  0  0  0  0  0  0  0
  -27.7520  -11.8236  148.8741 C   0  0  0  0  0  0  0  0  0  0  0  0
  -27.8077  -10.2872  149.0421 C   0  0  0  0  0  0  0  0  0  0  0  0
  -28.1487  -11.4331  146.3386 N   0  0  0  0  0  0  0  0  0  0  0  0
  -28.0930   -9.8655  150.4767 C   0  0  0  0  0  0  0  0  0  0  0  0
  2  1  1  0
  4  1  1  0
  5  1  1  0
  6  3  1  0
  7  2  1  0
  7  3  1  0
  8  4  1  0
  9  5  1  0
 10  9  2  0
 11  5  1  0
 12  4  1  0
 12  8  1  0
 13  7  1  0
 13  8  1  0
 15 14  2  0
 16 14  1  0
 17 16  1  0
 18 14  1  0
 19  3  1  0
 19 11  1  0
 19 18  1  0
 20 17  1  0
 21 20  1  0
 22 21  1  0
 23 17  1  0
 23 20  1  0
 24 22  1  0
M  END
$$$$

     RDKit          3D

 24 27  0  0  0  0  0  0  0  0999 V2000
  -20.7290   -3.5966  145.0803 C   0  0  0  0  0  0  0  0  0  0  0  0
  -20.1442   -4.5643  145.5797 O   0  0  0  0  0  0  0  0  0  0  0  0
  -24.5402    0.8502  141.4251 N   0  0  0  0  0  0  0  0  0  0  0  0
  -22.0109   -2.9805  145.7844 C   0  0  0  0  0  0  0  0  0  0  0  0
  -23.5520   -3.2661  145.2793 C   0  0  0  0  0  0  0  0  0  0  0  0
  -24.0393    1.1783  144.1223 C   0  0  0  0  0  0  0  0  0  0  0  0
  -22.8566   -4.1196  146.3873 C   0  0  0  0  0  0  0  0  0  0  0  0
  -23.5831   -1.2737  143.0113 C   0  0  0  0  0  0  0  0  0  0  0  0
  -23.7835   -3.9658  143.8410 C   0  0  0  0  0  0  0  0  0  0  0  0
  -24.5987    0.5972  145.5410 C   0  0  0  0  0  0  0  0  0  0  0  0
  -24.8166   -5.1216  143.9120 C   0  0  0  0  0  0  0  0  0  0  0  0
  -26.4098   -4.7511  143.4692 C   0  0  0  0  0  0  0  0  0  0  0  0
  -24.7041    0.6040  142.7067 C   0  0  0  0  0  0  0  0  0  0  0  0
  -22.4626   -4.3427  143.2536 N   0  0  0  0  0  0  0  0  0  0  0  0
  -23.6531   -5.1510  142.8681 C   0  0  0  0  0  0  0  0  0  0  0  0
  -27.3386   -6.0507  143.4950 C   0  0  0  0  0  0  0  0  0  0  0  0
  -24.1518   -0.8235  146.2423 C   0  0  0  0  0  0  0  0  0  0  0  0
  -26.0969   -6.9992  144.5902 Mg  0  0  0  0  0  2  0  0  0  0  0  0
  -24.6040   -2.2106  145.7293 N   0  0  0  0  0  0  0  0  0  0  0  0
  -25.0262   -0.7345  142.9281 C   0  0  0  0  0  0  0  0  0  0  0  0
  -26.4821   -4.0377  142.1220 C   0  0  0  0  0  0  0  0  0  0  0  0
  -26.9676   -3.8054  144.5823 C   0  0  0  0  0  0  0  0  0  0  0  0
  -26.7112   -4.8060  140.7888 C   0  0  0  0  0  0  0  0  0  0  0  0
  -24.5629   -6.1360  144.9651 O   0  0  0  0  0  0  0  0  0  0  0  0
  2  1  2  0
  4  1  1  0
  5  4  1  0
  7  4  1  0
  7  5  1  0
  9  5  1  0
 10  6  1  0
 11  9  1  0
 12 11  1  0
 13  3  2  0
 13  6  1  0
 14  9  1  0
 15  9  1  0
 15 11  1  0
 15 14  1  0
 16 12  1  0
 17 10  1  0
 18 16  1  0
 19  5  1  0
 19 17  1  0
 20  8  1  0
 20 13  1  0
 21 12  1  0
 22 12  1  0
 23 21  1  0
 24 11  1  0
 24 18  1  0
M  END
$$$$

     RDKit          3D

 25 29  0  0  0  0  0  0  0  0999 V2000
  -23.1877  -16.5553  143.5507 C   0  0  0  0  0  0  0  0  0  0  0  0
  -24.5415  -17.2636  144.2279 C   0  0  0  0  0  0  0  0  0  0  0  0
  -22.0593  -15.9922  144.3503 C   0  0  0  0  0  0  0  0  0  0  0  0
  -22.0232  -15.9201  146.0404 C   0  0  0  0  0  0  0  0  0  0  0  0
  -22.3219  -17.3330  146.2705 C   0  0  0  0  0  0  0  0  0  0  0  0
  -25.2167  -16.4163  145.5971 C   0  0  0  0  0  0  0  0  0  0  0  0
  -22.7852  -15.3277  147.3914 C   0  0  0  0  0  0  0  0  0  0  0  0
  -23.3522  -16.1101  145.9682 C   0  0  0  0  0  0  0  0  0  0  0  0
  -25.5811  -17.5276  143.1931 N   0  0  0  0  0  0  0  0  0  0  0  0
  -26.4292  -18.6617  143.6290 C   0  0  0  0  0  0  0  0  0  0  0  0
  -25.4317  -18.9021  142.5932 C   0  0  0  0  0  0  0  0  0  0  0  0
  -26.0111  -15.2306  144.9357 C   0  0  0  0  0  0  0  0  0  0  0  0
  -24.2327  -15.9890  146.9541 C   0  0  0  0  0  0  0  0  0  0  0  0
  -26.3823  -13.9649  145.7389 C   0  0  0  0  0  0  0  0  0  0  0  0
  -27.2994  -13.1518  144.7545 C   0  0  0  0  0  0  0  0  0  0  0  0
  -27.3413  -11.6239  144.8166 C   0  0  0  0  0  0  0  0  0  0  0  0
  -28.6111  -10.9309  144.2822 C   0  0  0  0  0  0  0  0  0  0  0  0
  -27.0710  -14.2309  147.1031 C   0  0  0  0  0  0  0  0  0  0  0  0
  -26.4713  -12.3173  143.7781 C   0  0  0  0  0  0  0  0  0  0  0  0
  -29.6297  -10.8161  145.3824 C   0  0  0  0  0  0  0  0  0  0  0  0
  -26.8996  -12.3815  142.3179 C   0  0  0  0  0  0  0  0  0  0  0  0
  -27.4599  -12.9834  147.9493 C   0  0  0  0  0  0  0  0  0  0  0  0
  -26.4022  -12.2267  148.7689 C   0  0  0  0  0  0  0  0  0  0  0  0
  -25.6343  -11.1622  147.9947 C   0  0  0  0  0  0  0  0  0  0  0  0
  -25.4165  -13.0847  149.5806 C   0  0  0  0  0  0  0  0  0  0  0  0
  2  1  1  0
  3  1  2  0
  4  3  1  0
  5  4  1  0
  6  2  1  0
  7  4  1  0
  8  4  1  0
  8  5  1  0
  9  2  1  0
 10  9  1  0
 11  9  1  0
 11 10  1  0
 12  6  1  0
 13  6  1  0
 13  7  1  0
 13  8  1  0
 14 12  1  0
 15 14  1  0
 16 15  1  0
 17 16  1  0
 18 14  1  0
 19 15  1  0
 19 16  1  0
 20 17  1  0
 21 19  1  0
 22 18  1  0
 23 22  1  0
 24 23  1  0
 25 23  1  0
M  END
$$$$

     RDKit          3D

 25 29  0  0  0  0  0  0  0  0999 V2000
  -22.0028    2.0414  146.7953 N   0  0  0  0  0  0  0  0  0  0  0  0
  -22.3636    2.9424  147.6684 C   0  0  0  0  0  0  0  0  0  0  0  0
  -21.7437    4.2396  147.6965 N   0  0  0  0  0  0  0  0  0  0  0  0
  -21.6215    4.9972  148.9389 C   0  0  0  0  0  0  0  0  0  0  0  0
  -23.3653    2.6081  148.6409 N   0  0  0  0  0  0  0  0  0  0  0  0
  -20.2314    4.9106  149.5327 C   0  0  0  0  0  0  0  0  0  0  0  0
  -19.8747    5.0146  150.9841 C   0  0  0  0  0  0  0  0  0  0  0  0
  -20.6189    6.1600  148.8356 C   0  0  0  0  0  0  0  0  0  0  0  0
  -20.9583    4.7455  152.0635 C   0  0  0  0  0  0  0  0  0  0  0  0
  -20.9218    5.9325  153.0135 C   0  0  0  0  0  0  0  0  0  0  0  0
  -20.8471    7.1486  152.4502 C   0  0  0  0  0  0  0  0  0  0  0  0
  -20.8027    3.3136  152.6554 C   0  0  0  0  0  0  0  0  0  0  0  0
  -20.9186    7.2844  150.9495 C   0  0  0  0  0  0  0  0  0  0  0  0
  -19.8794    3.1134  153.8852 C   0  0  0  0  0  0  0  0  0  0  0  0
  -20.5316    3.5264  155.2282 C   0  0  0  0  0  0  0  0  0  0  0  0
  -19.9367    6.3249  150.1890 C   0  0  0  0  0  0  0  0  0  0  0  0
  -18.4705    3.7039  153.7165 C   0  0  0  0  0  0  0  0  0  0  0  0
  -21.5307    4.6833  155.1399 C   0  0  0  0  0  0  0  0  0  0  0  0
  -24.8223    0.7823  149.3278 C   0  0  0  0  0  0  0  0  0  0  0  0
  -25.0455    1.1008  150.4839 O   0  0  0  0  0  0  0  0  0  0  0  0
  -24.5503    1.8200  148.2833 C   0  0  0  0  0  0  0  0  0  0  0  0
  -20.9556    5.8239  154.4468 N   0  0  0  0  0  0  0  0  0  0  0  0
  -20.9431    2.1950  145.7961 C   0  0  0  0  0  0  0  0  0  0  0  0
  -21.4704    2.8899  144.5297 C   0  0  0  0  0  0  0  0  0  0  0  0
  -21.8390    1.8724  143.4463 C   0  0  0  0  0  0  0  0  0  0  0  0
  2  1  2  3
  3  2  1  0
  4  3  1  0
  5  2  1  0
  6  4  1  0
  7  6  1  0
  8  4  1  0
  8  6  1  0
  9  7  1  0
 10  9  1  0
 11 10  2  0
 12  9  1  0
 13 11  1  0
 14 12  1  0
 15 14  1  0
 16  6  1  0
 16  7  1  0
 16  8  1  0
 16 13  1  0
 17 14  1  0
 18 15  1  0
 20 19  2  0
 21  5  1  0
 21 19  1  0
 22 10  1  0
 22 18  1  0
 23  1  1  0
 24 23  1  0
 25 24  1  0
M  END
$$$$

     RDKit          3D

 14 14  0  0  0  0  0  0  0  0999 V2000
  -28.9576   -9.9774  138.9895 Cl  0  0  0  0  0  0  0  0  0  0  0  0
  -28.7237   -7.3099  138.3180 C   0  0  0  0  0  0  0  0  0  0  0  0
  -28.6646   -8.7224  137.7505 C   0  0  0  0  0  0  0  0  0  0  0  0
  -29.9646   -7.0175  137.4711 C   0  0  0  0  0  0  0  0  0  0  0  0
  -29.7386   -5.8890  136.4409 C   0  0  0  0  0  0  0  0  0  0  0  0
  -31.0328   -5.3509  135.7853 C   0  0  0  0  0  0  0  0  0  0  0  0
  -29.8940   -8.4365  136.8973 C   0  0  0  0  0  0  0  0  0  0  0  0
  -31.9219   -4.8649  136.7602 O   0  0  0  0  0  0  0  0  0  0  0  0
  -31.7307   -6.3709  134.8508 C   0  0  0  0  0  0  0  0  0  0  0  0
  -35.5615   -8.1836  136.2960 C   0  0  0  0  0  0  0  0  0  0  0  0
  -36.3485   -8.1139  134.9900 C   0  0  0  0  0  0  0  0  0  0  0  0
  -32.8517   -7.1824  135.5155 C   0  0  0  0  0  0  0  0  0  0  0  0
  -34.0240   -6.3922  135.5988 O   0  0  0  0  0  0  0  0  0  0  0  0
  -34.8799   -6.8470  136.6323 C   0  0  0  0  0  0  0  0  0  0  0  0
  3  1  1  0
  3  2  1  0
  4  2  1  0
  5  4  1  0
  6  5  1  0
  7  3  1  0
  7  4  1  0
  8  6  1  0
  9  6  1  0
 11 10  1  0
 12  9  1  0
 13 12  1  0
 14 10  1  0
 14 13  1  0
M  END
$$$$

     RDKit          3D

 25 28  0  0  0  0  0  0  0  0999 V2000
  -24.5255  -13.7433  144.2407 O   0  0  0  0  0  0  0  0  0  0  0  0
  -24.1333  -14.7791  143.4018 C   0  0  0  0  0  0  0  0  0  0  0  0
  -24.5096  -16.0714  143.8006 O   0  0  0  0  0  0  0  0  0  0  0  0
  -24.1668  -14.5514  141.8896 C   0  0  0  0  0  0  0  0  0  0  0  0
  -24.3042  -13.2488  141.0557 C   0  0  0  0  0  0  0  0  0  0  0  0
  -22.8278  -14.6159  142.6333 C   0  0  0  0  0  0  0  0  0  0  0  0
  -24.3668  -11.7339  141.3648 C   0  0  0  0  0  0  0  0  0  0  0  0
  -23.8681  -11.0943  142.6737 C   0  0  0  0  0  0  0  0  0  0  0  0
  -24.8010   -9.9718  143.2295 C   0  0  0  0  0  0  0  0  0  0  0  0
  -25.9579  -10.5621  144.0951 C   0  0  0  0  0  0  0  0  0  0  0  0
  -27.0230  -10.7021  146.4115 C   0  0  0  0  0  0  0  0  0  0  0  0
  -25.3366   -9.0478  142.0972 C   0  0  0  0  0  0  0  0  0  0  0  0
  -25.7666   -7.6520  142.5903 C   0  0  0  0  0  0  0  0  0  0  0  0
  -26.2798  -11.7857  147.2164 C   0  0  0  0  0  0  0  0  0  0  0  0
  -25.7961  -11.2883  148.5951 C   0  0  0  0  0  0  0  0  0  0  0  0
  -26.1001   -9.8989  145.4786 C   0  0  0  0  0  0  0  0  0  0  0  0
  -26.8210   -7.0350  141.6467 C   0  0  0  0  0  0  0  0  0  0  0  0
  -27.0100   -5.0626  143.3805 C   0  0  0  0  0  0  0  0  0  0  0  0
  -27.4456   -5.6810  142.0420 C   0  0  0  0  0  0  0  0  0  0  0  0
  -28.8241   -6.3509  142.1142 C   0  0  0  0  0  0  0  0  0  0  0  0
  -28.1996   -7.6944  141.7585 C   0  0  0  0  0  0  0  0  0  0  0  0
  -24.5235  -10.4322  148.4821 C   0  0  0  0  0  0  0  0  0  0  0  0
  -24.7369   -8.9265  148.4368 C   0  0  0  0  0  0  0  0  0  0  0  0
  -24.2222   -9.5794  149.7071 C   0  0  0  0  0  0  0  0  0  0  0  0
  -25.6390  -12.5618  141.3866 C   0  0  0  0  0  0  0  0  0  0  0  0
  2  1  1  0
  3  2  1  0
  4  2  1  0
  5  4  1  0
  6  2  1  0
  6  4  1  0
  7  5  1  0
  8  7  1  0
  9  8  1  0
 10  9  1  0
 12  9  1  0
 13 12  1  0
 14 11  1  0
 15 14  1  0
 16 10  1  0
 16 11  1  0
 17 13  1  0
 19 17  1  0
 19 18  1  0
 20 19  1  0
 21 17  1  0
 21 20  1  0
 22 15  1  0
 23 22  1  0
 24 22  1  0
 24 23  1  0
 25  5  1  0
 25  7  1  0
M  END
$$$$

     RDKit          3D

 22 24  0  0  0  0  0  0  0  0999 V2000
  -17.4498   -8.9747  142.1578 O   0  0  0  0  0  0  0  0  0  0  0  0
  -17.2960   -7.5096  142.8405 C   0  0  0  0  0  0  0  0  0  0  0  0
  -17.5471   -3.7877  141.2070 O   0  0  0  0  0  0  0  0  0  0  0  0
  -16.4378   -7.2152  140.0033 C   0  0  0  0  0  0  0  0  0  0  0  0
  -18.4863   -5.0932  141.2877 C   0  0  0  0  0  0  0  0  0  0  0  0
  -15.4661   -6.1629  138.3669 C   0  0  0  0  0  0  0  0  0  0  0  0
  -17.9097   -6.8382  141.3940 C   0  0  0  0  0  0  0  0  0  0  0  0
  -16.4123   -4.8047  138.0566 C   0  0  0  0  0  0  0  0  0  0  0  0
  -16.9173   -3.3690  137.2358 C   0  0  0  0  0  0  0  0  0  0  0  0
  -15.6234   -2.5795  136.6937 C   0  0  0  0  0  0  0  0  0  0  0  0
  -10.9941   -6.1778  138.5268 C   0  0  0  0  0  0  0  0  0  0  0  0
  -14.9490   -2.1429  139.1605 C   0  0  0  0  0  0  0  0  0  0  0  0
  -14.7683   -2.2661  140.7760 C   0  0  0  0  0  0  0  0  0  0  0  0
  -18.5319   -2.5356  137.2931 C   0  0  0  0  0  0  0  0  0  0  0  0
  -13.2978   -2.0251  141.4567 C   0  0  0  0  0  0  0  0  0  0  0  0
  -15.0954   -3.5214  137.9155 C   0  0  0  0  0  0  0  0  0  0  0  0
  -12.1161   -2.9718  141.2434 N   0  0  0  0  0  0  0  0  0  0  0  0
  -13.9162   -6.9132  138.1855 C   0  0  0  0  0  0  0  0  0  0  0  0
  -14.4394   -2.9170  142.1263 C   0  0  0  0  0  0  0  0  0  0  0  0
  -12.3591   -5.8242  138.0060 C   0  0  0  0  0  0  0  0  0  0  0  0
  -14.6765   -4.4402  142.0040 C   0  0  0  0  0  0  0  0  0  0  0  0
  -14.3301   -5.3546  141.1128 C   0  0  0  0  0  0  0  0  0  0  0  0
  2  1  1  0
  5  3  1  0
  6  4  1  0
  7  2  1  0
  7  4  1  0
  7  5  1  0
  8  6  1  0
  9  8  1  0
 10  9  1  0
 13 12  1  0
 14  9  1  0
 15 13  1  0
 16  8  1  0
 16  9  1  0
 16 10  1  0
 16 12  1  0
 17 15  1  0
 18  6  1  0
 19 13  1  0
 19 15  1  0
 20 11  2  0
 20 18  1  0
 21 19  1  0
 22 21  2  0
M  END
$$$$

     RDKit          3D

 25 29  0  0  0  0  0  0  0  0999 V2000
  -16.5120  -11.5762  143.8749 C   0  0  0  0  0  0  0  0  0  0  0  0
  -16.9790  -10.3007  143.1385 C   0  0  0  0  0  0  0  0  0  0  0  0
  -18.4235  -10.4247  142.6292 C   0  0  0  0  0  0  0  0  0  0  0  0
  -19.5175  -10.0611  143.6364 C   0  0  0  0  0  0  0  0  0  0  0  0
  -20.7733  -10.8749  143.4886 C   0  0  0  0  0  0  0  0  0  0  0  0
  -20.8007  -12.1681  143.8406 C   0  0  0  0  0  0  0  0  0  0  0  0
  -19.1596   -9.0911  142.5027 C   0  0  0  0  0  0  0  0  0  0  0  0
  -15.1921  -11.3427  144.6498 C   0  0  0  0  0  0  0  0  0  0  0  0
  -22.0497  -12.9962  143.7014 C   0  0  0  0  0  0  0  0  0  0  0  0
  -16.4088  -12.7821  142.9287 C   0  0  0  0  0  0  0  0  0  0  0  0
  -13.9819  -10.9997  143.7588 C   0  0  0  0  0  0  0  0  0  0  0  0
  -12.7452  -10.6174  144.5824 C   0  0  0  0  0  0  0  0  0  0  0  0
  -21.7796  -14.2167  142.8119 C   0  0  0  0  0  0  0  0  0  0  0  0
  -23.0715  -14.9028  142.3483 C   0  0  0  0  0  0  0  0  0  0  0  0
  -23.8762  -15.4837  143.5266 C   0  0  0  0  0  0  0  0  0  0  0  0
  -20.1046   -8.9888  141.3002 C   0  0  0  0  0  0  0  0  0  0  0  0
  -12.1246  -11.8323  145.2878 C   0  0  0  0  0  0  0  0  0  0  0  0
  -23.5375  -16.8632  144.0964 C   0  0  0  0  0  0  0  0  0  0  0  0
  -11.1333  -12.6412  144.4949 C   0  0  0  0  0  0  0  0  0  0  0  0
  -22.3555  -17.6350  143.4897 C   0  0  0  0  0  0  0  0  0  0  0  0
   -9.7787  -12.7800  145.1231 C   0  0  0  0  0  0  0  0  0  0  0  0
  -22.0417  -18.9483  144.1897 C   0  0  0  0  0  0  0  0  0  0  0  0
  -10.6566  -11.6478  145.6061 C   0  0  0  0  0  0  0  0  0  0  0  0
  -24.7271  -16.6958  143.1575 C   0  0  0  0  0  0  0  0  0  0  0  0
  -21.1478  -17.7386  144.4073 C   0  0  0  0  0  0  0  0  0  0  0  0
  2  1  1  0
  3  2  1  0
  4  3  1  0
  5  4  1  0
  6  5  2  3
  7  3  1  0
  7  4  1  0
  8  1  1  0
  9  6  1  0
 10  1  1  0
 11  8  1  0
 12 11  1  0
 13  9  1  0
 14 13  1  0
 15 14  1  0
 16  7  1  0
 17 12  1  0
 18 15  1  0
 19 17  1  0
 20 18  1  0
 21 19  1  0
 22 20  1  0
 23 17  1  0
 23 19  1  0
 23 21  1  0
 24 15  1  0
 24 18  1  0
 25 20  1  0
 25 22  1  0
M  END
$$$$

     RDKit          3D

 11 14  0  0  0  0  0  0  0  0999 V2000
  -21.4554   -4.3382  146.1967 O   0  0  0  0  0  0  0  0  0  0  0  0
  -22.2284   -3.1626  146.2552 C   0  0  0  0  0  0  0  0  0  0  0  0
  -21.7837   -2.1031  145.2401 C   0  0  0  0  0  0  0  0  0  0  0  0
  -21.4136   -1.1819  146.3617 C   0  0  0  0  0  0  0  0  0  0  0  0
  -22.3601   -0.7413  145.3080 N   0  0  0  0  0  0  0  0  0  0  0  0
  -23.7614   -0.7295  145.7509 C   0  0  0  0  0  0  0  0  0  0  0  0
  -24.7310   -1.3792  144.7825 C   0  0  0  0  0  0  0  0  0  0  0  0
  -26.0035    0.8792  145.6721 Cl  0  0  0  0  0  0  0  0  0  0  0  0
  -24.9700   -0.5379  143.5495 C   0  0  0  0  0  0  0  0  0  0  0  0
  -24.5898    0.1554  144.8404 C   0  0  0  0  0  0  0  0  0  0  0  0
  -21.8336   -2.2456  147.3828 C   0  0  0  0  0  0  0  0  0  0  0  0
  2  1  1  0
  3  2  1  0
  4  3  1  0
  5  3  1  0
  5  4  1  0
  6  5  1  0
  7  6  1  0
  9  7  1  0
 10  6  1  0
 10  7  1  0
 10  8  1  0
 10  9  1  0
 11  2  1  0
 11  4  1  0
M  END
$$$$

     RDKit          3D

 24 28  0  0  0  0  0  0  0  0999 V2000
  -23.6753   -1.5261  135.8008 N   0  0  0  0  0  2  0  0  0  0  0  0
  -25.6911   -0.3461  136.8379 C   0  0  0  0  0  0  0  0  0  0  0  0
  -27.0175   -1.0918  134.0798 C   0  0  0  0  0  0  0  0  0  0  0  0
  -26.7224    0.7828  136.6541 C   0  0  0  0  0  0  0  0  0  0  0  0
  -28.7133   -1.0070  137.5263 C   0  0  0  0  0  0  0  0  0  0  0  0
  -25.3285    1.0324  137.3740 C   0  0  0  0  0  0  0  0  0  0  0  0
  -27.9039    0.5573  138.9596 C   0  0  0  0  0  0  0  0  0  0  0  0
  -26.3050    0.0080  133.3452 N   0  0  0  0  0  0  0  0  0  0  0  0
  -25.9735   -1.8494  134.8123 N   0  0  0  0  0  2  0  0  0  0  0  0
  -24.7733    0.4326  134.2299 S   0  0  0  0  0  0  0  0  0  0  0  0
  -25.0402   -0.8764  135.4957 C   0  0  0  0  0  0  0  0  0  0  0  0
  -29.7617   -1.0464  138.8154 C   0  0  0  0  0  0  0  0  0  0  0  0
  -29.3004    0.3134  139.5446 C   0  0  0  0  0  0  0  0  0  0  0  0
  -28.0866    0.5203  137.4262 C   0  0  0  0  0  0  0  0  0  0  0  0
  -30.2127    1.5873  139.3572 C   0  0  0  0  0  0  0  0  0  0  0  0
  -31.0671   -1.9815  138.7575 C   0  0  0  0  0  0  0  0  0  0  0  0
  -31.7191   -2.0765  136.1954 C   0  0  0  0  0  0  0  0  0  0  0  0
  -31.5162    1.5401  138.2509 C   0  0  0  0  0  0  0  0  0  0  0  0
  -31.8952    0.3277  137.1877 C   0  0  0  0  0  0  0  0  0  0  0  0
  -31.9422   -1.2762  137.5460 C   0  0  0  0  0  0  0  0  0  0  0  0
  -33.2113    3.7214  136.8723 P   0  0  0  0  0  0  0  0  0  0  0  0
  -33.8782    5.4543  137.4464 C   0  0  0  0  0  0  0  0  0  0  0  0
  -31.4859    2.9491  137.4634 C   0  0  0  0  0  0  0  0  0  0  0  0
  -32.4182    5.5237  137.0356 C   0  0  0  0  0  0  0  0  0  0  0  0
  4  2  1  0
  6  2  1  0
  6  4  1  0
  8  3  1  0
  9  3  1  0
 10  8  1  0
 11  1  1  0
 11  2  1  0
 11  9  1  0
 11 10  1  0
 12  5  1  0
 13  7  1  0
 13 12  1  0
 14  4  1  0
 14  5  1  0
 14  7  1  0
 15 13  1  0
 16 12  1  0
 18 15  1  0
 19 18  1  0
 20 16  1  0
 20 17  1  0
 20 19  1  0
 22 21  1  0
 23 18  1  0
 23 21  1  0
 24 21  1  0
 24 22  1  0
M  RAD  2   1   2   9   2
M  END
$$$$

     RDKit          3D

 25 30  0  0  0  0  0  0  0  0999 V2000
  -29.8715  -11.2496  142.8500 C   0  0  0  0  0  0  0  0  0  0  0  0
  -30.3193   -9.7243  142.4237 C   0  0  0  0  0  0  0  0  0  0  0  0
  -29.7140  -11.5847  141.0836 C   0  0  0  0  0  0  0  0  0  0  0  0
  -31.7356   -9.5380  142.7830 O   0  0  0  0  0  0  0  0  0  0  0  0
  -29.2139  -12.8570  141.0286 N   0  0  0  0  0  0  0  0  0  0  0  0
  -28.1462  -12.7853  142.0788 C   0  0  0  0  0  0  0  0  0  0  0  0
  -26.4573  -14.5002  142.9559 N   0  0  0  0  0  0  0  0  0  0  0  0
  -29.4055  -14.1394  139.4538 C   0  0  0  0  0  0  0  0  0  0  0  0
  -27.5574  -14.8913  140.5761 C   0  0  0  0  0  0  0  0  0  0  0  0
  -28.8320  -13.9535  139.3873 N   0  0  0  0  0  0  0  0  0  0  0  0
  -29.7101  -13.8307  137.4249 C   0  0  0  0  0  0  0  0  0  0  0  0
  -31.0230  -12.7364  139.0390 C   0  0  0  0  0  0  0  0  0  0  0  0
  -31.7018  -14.0638  140.6365 C   0  0  0  0  0  0  0  0  0  0  0  0
  -32.1455  -15.9298  140.3791 C   0  0  0  0  0  0  0  0  0  0  0  0
  -29.1260  -15.5544  139.3753 C   0  0  0  0  0  0  0  0  0  0  0  0
  -29.0635  -12.6324  136.6800 C   0  0  0  0  0  0  0  0  0  0  0  0
  -29.7737   -9.8738  141.0363 C   0  0  0  0  0  0  0  0  0  0  0  0
  -32.6610  -16.2304  138.8888 C   0  0  0  0  0  0  0  0  0  0  0  0
  -27.7025  -14.1754  142.1203 C   0  0  0  0  0  0  0  0  0  0  0  0
  -30.8024   -8.3555  142.8880 C   0  0  0  0  0  0  0  0  0  0  0  0
  -33.2707  -16.0810  141.2136 C   0  0  0  0  0  0  0  0  0  0  0  0
  -31.4833  -17.2480  141.8473 C   0  0  0  0  0  0  0  0  0  0  0  0
  -29.8403  -12.4119  135.5225 C   0  0  0  0  0  0  0  0  0  0  0  0
  -30.9485  -11.6815  136.5979 C   0  0  0  0  0  0  0  0  0  0  0  0
  -31.8923  -15.5279  141.9648 C   0  0  0  0  0  0  0  0  0  0  0  0
  2  1  1  0
  3  1  1  0
  4  2  1  0
  5  3  1  0
  6  5  1  0
  8  5  1  0
 10  9  1  0
 11  8  1  0
 12 10  1  0
 13 12  1  0
 14 13  1  0
 15  8  1  0
 15 10  1  0
 16 11  1  0
 17  2  1  0
 17  3  1  0
 18 14  1  0
 19  6  1  0
 19  7  1  0
 19  9  1  0
 20  2  1  0
 20  4  1  0
 21 14  1  0
 22 14  1  0
 23 16  2  3
 24 12  1  0
 24 23  1  0
 25 13  1  0
 25 21  1  0
 25 22  1  0
M  END
$$$$

     RDKit          3D

 25 29  0  0  0  0  0  0  0  0999 V2000
  -30.4036    0.1525  136.1988 O   0  0  0  0  0  0  0  0  0  0  0  0
  -31.2603   -0.0090  137.2931 C   0  0  0  0  0  0  0  0  0  0  0  0
  -30.5222   -0.5642  138.3667 O   0  0  0  0  0  0  0  0  0  0  0  0
  -31.2887   -0.9898  136.0178 C   0  0  0  0  0  0  0  0  0  0  0  0
  -32.1249   -3.1232  136.0131 C   0  0  0  0  0  0  0  0  0  0  0  0
  -30.5369   -2.3868  135.8650 C   0  0  0  0  0  0  0  0  0  0  0  0
  -33.3067   -3.7994  135.0314 C   0  0  0  0  0  0  0  0  0  0  0  0
  -33.5345   -6.4936  135.7856 C   0  0  0  0  0  0  0  0  0  0  0  0
  -31.4833   -5.5995  134.7023 C   0  0  0  0  0  0  0  0  0  0  0  0
  -32.6318   -1.6875  136.4052 C   0  0  0  0  0  0  0  0  0  0  0  0
  -31.0525   -4.8339  133.3971 C   0  0  0  0  0  0  0  0  0  0  0  0
  -30.6985   -6.1871  132.6931 C   0  0  0  0  0  0  0  0  0  0  0  0
  -26.4354   -2.3018  135.3032 C   0  0  0  0  0  0  0  0  0  0  0  0
  -27.4222   -0.3691  135.8036 C   0  0  0  0  0  0  0  0  0  0  0  0
  -27.6640   -1.5005  134.8603 C   0  0  0  0  0  0  0  0  0  0  0  0
  -35.0033   -7.0482  135.6288 C   0  0  0  0  0  0  0  0  0  0  0  0
  -29.1253   -2.2174  134.7502 C   0  0  0  0  0  0  0  0  0  0  0  0
  -31.5930   -7.4280  132.8223 C   0  0  0  0  0  0  0  0  0  0  0  0
  -26.2143   -1.1830  136.3555 C   0  0  0  0  0  0  0  0  0  0  0  0
  -33.0535   -5.3709  134.7647 C   0  0  0  0  0  0  0  0  0  0  0  0
  -30.9090   -6.8949  134.0041 C   0  0  0  0  0  0  0  0  0  0  0  0
  -29.3119   -6.4178  132.1089 C   0  0  0  0  0  0  0  0  0  0  0  0
  -27.4636    1.0929  135.0888 C   0  0  0  0  0  0  0  0  0  0  0  0
  -36.1411   -6.1948  136.0855 C   0  0  0  0  0  0  0  0  0  0  0  0
  -36.5299   -5.2414  135.4152 O   0  0  0  0  0  0  0  0  0  0  0  0
  2  1  1  0
  3  2  1  0
  4  1  1  0
  4  2  1  0
  6  4  1  0
  6  5  1  0
  7  5  1  0
 10  4  1  0
 10  5  1  0
 11  9  1  0
 12 11  1  0
 15 13  1  0
 15 14  1  0
 16  8  1  0
 17  6  1  0
 17 15  1  0
 18 12  1  0
 19 13  1  0
 19 14  1  0
 20  7  1  0
 20  8  1  0
 20  9  1  0
 21  9  1  0
 21 12  1  0
 21 18  1  0
 22 12  1  0
 23 14  1  0
 24 16  1  0
 25 24  2  0
M  END
$$$$

     RDKit          3D

 25 29  0  0  0  0  0  0  0  0999 V2000
  -23.7397  -22.4376  146.4754 O   0  0  0  0  0  0  0  0  0  0  0  0
  -23.7028  -22.3315  145.2202 C   0  0  0  0  0  0  0  0  0  0  0  0
  -23.4102  -23.4199  144.4307 O   0  0  0  0  0  0  0  0  0  0  0  0
  -24.0607  -21.0213  144.5647 C   0  0  0  0  0  0  0  0  0  0  0  0
  -25.5484  -20.6524  144.6881 C   0  0  0  0  0  0  0  0  0  0  0  0
  -23.0140  -20.3744  143.9798 C   0  0  0  0  0  0  0  0  0  0  0  0
  -26.2678  -19.9209  143.5626 C   0  0  0  0  0  0  0  0  0  0  0  0
  -23.3900  -19.0678  141.8826 C   0  0  0  0  0  0  0  0  0  0  0  0
  -23.3956  -17.7471  141.1522 C   0  0  0  0  0  0  0  0  0  0  0  0
  -23.7071  -16.5636  141.7227 C   0  0  0  0  0  0  0  0  0  0  0  0
  -23.0185  -14.1616  141.2585 C   0  0  0  0  0  0  0  0  0  0  0  0
  -21.5233  -14.3391  140.8694 C   0  0  0  0  0  0  0  0  0  0  0  0
  -23.0122  -19.0045  143.3550 C   0  0  0  0  0  0  0  0  0  0  0  0
  -25.9425  -18.5490  144.1231 C   0  0  0  0  0  0  0  0  0  0  0  0
  -21.3090  -14.1091  139.3677 C   0  0  0  0  0  0  0  0  0  0  0  0
  -27.1827  -19.1690  144.5326 C   0  0  0  0  0  0  0  0  0  0  0  0
  -27.2857  -19.4639  146.0299 C   0  0  0  0  0  0  0  0  0  0  0  0
  -19.8955  -14.4444  138.9534 C   0  0  0  0  0  0  0  0  0  0  0  0
  -25.9098  -19.3447  145.4428 C   0  0  0  0  0  0  0  0  0  0  0  0
  -23.8986  -15.3395  140.8431 C   0  0  0  0  0  0  0  0  0  0  0  0
  -19.1538  -13.5621  137.9165 C   0  0  0  0  0  0  0  0  0  0  0  0
  -21.0541  -15.3321  138.4765 C   0  0  0  0  0  0  0  0  0  0  0  0
  -19.9347  -13.0471  136.6793 C   0  0  0  0  0  0  0  0  0  0  0  0
  -19.9308  -14.0347  135.5915 C   0  0  0  0  0  0  0  0  0  0  0  0
  -19.9610  -14.8684  134.7257 C   0  0  0  0  0  0  0  0  0  0  0  0
  2  1  2  0
  3  2  1  0
  4  2  1  0
  5  4  1  0
  6  4  2  3
  7  5  1  0
  9  8  1  0
 10  9  2  3
 12 11  1  0
 13  6  1  0
 13  8  1  0
 14  7  1  0
 15 12  1  0
 16  7  1  0
 16 14  1  0
 17 16  1  0
 18 15  1  0
 19  5  1  0
 19 14  1  0
 19 16  1  0
 19 17  1  0
 20 10  1  0
 20 11  1  0
 21 18  1  0
 22 15  1  0
 22 18  1  0
 23 21  1  0
 24 23  1  0
 25 24  3  0
M  END
$$$$

     RDKit          3D

 25 27  0  0  0  0  0  0  0  0999 V2000
  -28.3526   -8.3947  135.8712 C   0  0  0  0  0  0  0  0  0  0  0  0
  -27.3317   -9.1832  135.0167 C   0  0  0  0  0  0  0  0  0  0  0  0
  -26.0845   -8.3069  134.7176 C   0  0  0  0  0  0  0  0  0  0  0  0
  -25.5362   -8.3784  133.2916 C   0  0  0  0  0  0  0  0  0  0  0  0
  -26.8941  -10.5348  135.6710 C   0  0  0  0  0  0  0  0  0  0  0  0
  -28.0193   -8.2984  137.3781 C   0  0  0  0  0  0  0  0  0  0  0  0
  -27.5977   -9.6532  137.9705 C   0  0  0  0  0  0  0  0  0  0  0  0
  -27.7509  -11.8298  135.4626 C   0  0  0  0  0  0  0  0  0  0  0  0
  -26.3085   -7.1488  133.7472 C   0  0  0  0  0  0  0  0  0  0  0  0
  -25.4616   -5.9091  134.0323 C   0  0  0  0  0  0  0  0  0  0  0  0
  -29.2059  -11.8774  135.9349 C   0  0  0  0  0  0  0  0  0  0  0  0
  -26.5097  -10.3571  137.1528 C   0  0  0  0  0  0  0  0  0  0  0  0
  -29.7592  -13.2437  136.3829 C   0  0  0  0  0  0  0  0  0  0  0  0
  -27.0134   -7.1843  137.7155 C   0  0  0  0  0  0  0  0  0  0  0  0
  -30.2588  -13.2138  137.8344 C   0  0  0  0  0  0  0  0  0  0  0  0
  -28.8807  -11.8499  134.4409 C   0  0  0  0  0  0  0  0  0  0  0  0
  -29.1038  -13.2700  138.8547 C   0  0  0  0  0  0  0  0  0  0  0  0
  -29.5334  -12.9863  140.3184 C   0  0  0  0  0  0  0  0  0  0  0  0
  -30.6450  -13.9593  140.7913 C   0  0  0  0  0  0  0  0  0  0  0  0
  -30.7891  -13.9663  142.3276 C   0  0  0  0  0  0  0  0  0  0  0  0
  -31.9776  -14.8110  142.8403 C   0  0  0  0  0  0  0  0  0  0  0  0
  -33.2380  -14.3454  142.2583 N   0  0  0  0  0  0  0  0  0  0  0  0
  -31.7873  -16.3068  142.5551 C   0  0  0  0  0  0  0  0  0  0  0  0
  -29.9349  -11.4942  140.5244 C   0  0  0  0  0  0  0  0  0  0  0  0
  -28.9543  -10.7578  141.4333 C   0  0  0  0  0  0  0  0  0  0  0  0
  2  1  1  0
  3  2  1  0
  4  3  1  0
  5  2  1  0
  6  1  1  0
  7  6  1  0
  8  5  1  0
  9  3  1  0
  9  4  1  0
 10  9  1  0
 11  8  1  0
 12  5  1  0
 12  7  1  0
 13 11  1  0
 14  6  1  0
 15 13  1  0
 16  8  1  0
 16 11  1  0
 17 15  1  0
 18 17  1  0
 19 18  1  0
 20 19  1  0
 21 20  1  0
 22 21  1  0
 23 21  1  0
 24 18  1  0
 25 24  1  0
M  END
$$$$

     RDKit          3D

 25 27  0  0  0  0  0  0  0  0999 V2000
  -28.8085  -12.1930  140.2678 C   0  0  0  0  0  0  0  0  0  0  0  0
  -27.8350  -11.8007  141.3052 N   0  0  0  0  0  0  0  0  0  0  0  0
  -29.6995  -13.2489  140.7694 N   0  0  0  0  0  0  0  0  0  0  0  0
  -30.9526  -12.8902  141.3716 C   0  0  0  0  0  0  0  0  0  0  0  0
  -32.1105  -12.7707  140.5523 N   0  0  0  0  0  0  0  0  0  0  0  0
  -31.0630  -12.6879  142.6487 N   0  0  0  0  0  0  0  0  0  0  0  0
  -32.8213  -12.7850  139.2349 C   0  0  0  0  0  0  0  0  0  0  0  0
  -26.7434  -12.7705  141.5153 C   0  0  0  0  0  0  0  0  0  0  0  0
  -29.5342  -14.6331  140.3147 C   0  0  0  0  0  0  0  0  0  0  0  0
  -25.8848  -12.8072  142.8014 C   0  0  0  0  0  0  0  0  0  0  0  0
  -26.1191  -11.6502  143.8164 C   0  0  0  0  0  0  0  0  0  0  0  0
  -26.4742  -11.5241  140.7499 C   0  0  0  0  0  0  0  0  0  0  0  0
  -25.1056  -11.5932  144.9343 C   0  0  0  0  0  0  0  0  0  0  0  0
  -25.7583  -12.0032  139.4712 C   0  0  0  0  0  0  0  0  0  0  0  0
  -32.9137  -14.0923  138.7442 O   0  0  0  0  0  0  0  0  0  0  0  0
  -25.0927  -12.3691  146.0356 C   0  0  0  0  0  0  0  0  0  0  0  0
  -24.4068  -12.6898  139.8288 C   0  0  0  0  0  0  0  0  0  0  0  0
  -26.0872  -13.4526  146.3850 C   0  0  0  0  0  0  0  0  0  0  0  0
  -27.5049  -12.9648  146.7491 C   0  0  0  0  0  0  0  0  0  0  0  0
  -33.5721  -12.5286  140.3695 C   0  0  0  0  0  0  0  0  0  0  0  0
  -24.3926  -13.0947  142.4106 C   0  0  0  0  0  0  0  0  0  0  0  0
  -23.7976  -12.3029  141.2101 C   0  0  0  0  0  0  0  0  0  0  0  0
  -27.5351  -11.6093  147.4598 C   0  0  0  0  0  0  0  0  0  0  0  0
  -29.9598  -12.7559  143.5966 C   0  0  0  0  0  0  0  0  0  0  0  0
  -33.9297  -11.0747  140.6524 C   0  0  0  0  0  0  0  0  0  0  0  0
  2  1  1  0
  3  1  1  0
  4  3  1  0
  5  4  1  0
  6  4  2  3
  7  5  1  0
  8  2  1  0
  9  3  1  0
 10  8  1  0
 11 10  1  0
 12  2  1  0
 12  8  1  0
 13 11  1  0
 14 12  1  0
 15  7  1  0
 16 13  2  3
 17 14  1  0
 18 16  1  0
 19 18  1  0
 20  5  1  0
 20  7  1  0
 21 10  1  0
 22 17  1  0
 22 21  1  0
 23 19  1  0
 24  6  1  0
 25 20  1  0
M  END
$$$$

     RDKit          3D

 25 32  0  0  0  0  0  0  0  0999 V2000
  -30.5640  -12.2172  141.8084 O   0  0  0  0  0  0  0  0  0  0  0  0
  -30.0219  -12.9193  140.6771 C   0  0  0  0  0  0  0  0  0  0  0  0
  -27.3592  -13.4067  140.2152 C   0  0  0  0  0  0  0  0  0  0  0  0
  -28.9496  -15.2657  140.9448 C   0  0  0  0  0  0  0  0  0  0  0  0
  -29.2215  -15.9003  143.4060 C   0  0  0  0  0  0  0  0  0  0  0  0
  -29.0712  -18.2427  141.0191 C   0  0  0  0  0  0  0  0  0  0  0  0
  -26.7478  -12.1539  140.7898 C   0  0  0  0  0  0  0  0  0  0  0  0
  -27.0942  -12.1799  139.3085 C   0  0  0  0  0  0  0  0  0  0  0  0
  -28.7011  -13.7266  141.0118 C   0  0  0  0  0  0  0  0  0  0  0  0
  -28.3301  -15.9895  142.1635 C   0  0  0  0  0  0  0  0  0  0  0  0
  -26.1027   -9.9022  140.5139 C   0  0  0  0  0  0  0  0  0  0  0  0
  -24.8329  -10.6986  140.3116 C   0  0  0  0  0  0  0  0  0  0  0  0
  -25.2031  -12.0721  140.9198 C   0  0  0  0  0  0  0  0  0  0  0  0
  -26.2780   -9.3271  141.9990 C   0  0  0  0  0  0  0  0  0  0  0  0
  -28.4356  -17.5267  142.2164 C   0  0  0  0  0  0  0  0  0  0  0  0
  -29.3518  -17.4185  143.4325 C   0  0  0  0  0  0  0  0  0  0  0  0
  -25.6793  -10.1307  143.2199 C   0  0  0  0  0  0  0  0  0  0  0  0
  -29.9223  -10.9677  141.8408 C   0  0  0  0  0  0  0  0  0  0  0  0
  -27.2011  -10.8796  140.1282 C   0  0  0  0  0  0  0  0  0  0  0  0
  -24.5084  -11.1043  143.0085 C   0  0  0  0  0  0  0  0  0  0  0  0
  -24.8580  -12.2740  142.2851 O   0  0  0  0  0  0  0  0  0  0  0  0
  -27.7329   -8.7545  142.3222 C   0  0  0  0  0  0  0  0  0  0  0  0
  -28.6382   -9.5111  143.3777 C   0  0  0  0  0  0  0  0  0  0  0  0
  -28.9421  -10.9530  143.0168 C   0  0  0  0  0  0  0  0  0  0  0  0
  -30.0553   -9.9535  142.9572 C   0  0  0  0  0  0  0  0  0  0  0  0
  2  1  1  0
  7  3  1  0
  8  3  1  0
  8  7  1  0
  9  2  1  0
  9  3  1  0
  9  4  1  0
 10  4  1  0
 10  5  1  0
 12 11  1  0
 13  7  1  0
 13 12  1  0
 14 11  1  0
 15  6  1  0
 15 10  1  0
 16  5  1  0
 16 15  1  0
 17 14  1  0
 18  1  1  0
 19  7  1  0
 19  8  1  0
 19 11  1  0
 20 17  1  0
 21 13  1  0
 21 20  1  0
 22 14  1  0
 23 22  1  0
 24 18  1  0
 24 23  1  0
 25 18  1  0
 25 23  1  0
 25 24  1  0
M  END
$$$$

     RDKit          3D

 24 28  0  0  0  0  0  0  0  0999 V2000
  -25.9325  -12.7717  144.0315 O   0  0  0  0  0  0  0  0  0  0  0  0
  -26.0920  -11.5732  144.4097 C   0  0  0  0  0  0  0  0  0  0  0  0
  -26.6778  -12.6598  143.6683 O   0  0  0  0  0  0  0  0  0  0  0  0
  -25.3033  -10.4847  142.2163 C   0  0  0  0  0  0  0  0  0  0  0  0
  -24.3918   -9.5890  144.0017 C   0  0  0  0  0  0  0  0  0  0  0  0
  -23.5329  -10.5719  144.7962 C   0  0  0  0  0  0  0  0  0  0  0  0
  -25.7265  -10.3112  143.6537 C   0  0  0  0  0  0  0  0  0  0  0  0
  -24.0589   -9.6542  142.4897 C   0  0  0  0  0  0  0  0  0  0  0  0
  -22.7434   -9.9112  145.9403 C   0  0  0  0  0  0  0  0  0  0  0  0
  -23.0013  -10.0533  143.4866 C   0  0  0  0  0  0  0  0  0  0  0  0
  -21.5446  -10.7484  146.4201 C   0  0  0  0  0  0  0  0  0  0  0  0
  -20.6241  -11.1360  145.2289 C   0  0  0  0  0  0  0  0  0  0  0  0
  -19.3390  -11.8663  145.7031 C   0  0  0  0  0  0  0  0  0  0  0  0
  -23.6984  -13.3782  148.5698 C   0  0  0  0  0  0  0  0  0  0  0  0
  -22.6948  -14.0482  149.2934 O   0  0  0  0  0  0  0  0  0  0  0  0
  -21.3465  -11.9157  144.1086 C   0  0  0  0  0  0  0  0  0  0  0  0
  -17.5331  -10.5555  144.4409 C   0  0  0  0  0  0  0  0  0  0  0  0
  -18.2050  -11.9130  144.6606 C   0  0  0  0  0  0  0  0  0  0  0  0
  -23.1491  -12.7486  147.2521 C   0  0  0  0  0  0  0  0  0  0  0  0
  -22.9193  -13.8360  146.2236 C   0  0  0  0  0  0  0  0  0  0  0  0
  -21.8941  -11.8481  147.4788 C   0  0  0  0  0  0  0  0  0  0  0  0
  -22.8038  -11.5178  143.8293 C   0  0  0  0  0  0  0  0  0  0  0  0
  -24.4356  -12.3633  149.4598 C   0  0  0  0  0  0  0  0  0  0  0  0
  -21.9813  -14.7871  146.3262 C   0  0  0  0  0  0  0  0  0  0  0  0
  2  1  2  0
  3  2  1  0
  6  5  1  0
  7  2  1  0
  7  4  1  0
  7  5  1  0
  8  4  1  0
  8  5  1  0
  9  6  1  0
 10  5  1  0
 10  6  1  0
 10  8  1  0
 11  9  1  0
 12 11  1  0
 13 12  1  0
 15 14  1  0
 16 12  1  0
 18 13  1  0
 18 17  1  0
 19 14  1  0
 20 19  1  0
 21 11  1  0
 21 19  1  0
 22  6  1  0
 22 10  1  0
 22 16  1  0
 23 14  1  0
 24 20  2  0
M  END
$$$$

     RDKit          3D

 24 27  0  0  0  0  0  0  0  0999 V2000
  -21.6796  -15.2951  137.9658 C   0  0  0  0  0  0  0  0  0  0  0  0
  -20.8627  -14.7953  138.9643 F   0  0  0  0  0  0  0  0  0  0  0  0
  -23.5618  -16.9665  137.4901 C   0  0  0  0  0  0  0  0  0  0  0  0
  -21.4988  -17.6560  138.6530 N   0  0  0  0  0  2  0  0  0  0  0  0
  -19.6511  -20.2978  138.2014 C   0  0  0  0  0  0  0  0  0  0  0  0
  -23.0909  -17.3650  136.0626 C   0  0  0  0  0  0  0  0  0  0  0  0
  -23.2442  -16.2301  135.0076 C   0  0  0  0  0  0  0  0  0  0  0  0
  -24.7297  -15.9884  134.6611 C   0  0  0  0  0  0  0  0  0  0  0  0
  -22.3583  -16.3737  133.7040 C   0  0  0  0  0  0  0  0  0  0  0  0
  -21.7851  -17.8012  133.4867 C   0  0  0  0  0  0  0  0  0  0  0  0
  -20.8633  -17.6719  139.9825 C   0  0  0  0  0  0  0  0  0  0  0  0
  -23.0760  -15.9010  132.3806 C   0  0  0  0  0  0  0  0  0  0  0  0
  -23.8928  -13.6865  133.5598 C   0  0  0  0  0  0  0  0  0  0  0  0
  -24.9685  -14.7704  133.7521 C   0  0  0  0  0  0  0  0  0  0  0  0
  -22.4344  -16.5399  138.4590 C   0  0  0  0  0  0  0  0  0  0  0  0
  -22.0683  -15.4931  131.2883 C   0  0  0  0  0  0  0  0  0  0  0  0
  -19.4734  -17.6911  139.8250 O   0  0  0  0  0  0  0  0  0  0  0  0
  -21.2959  -18.8398  140.7700 N   0  0  0  0  0  2  0  0  0  0  0  0
  -18.3435  -19.6680  138.0165 C   0  0  0  0  0  0  0  0  0  0  0  0
  -24.1143  -14.7600  132.4987 C   0  0  0  0  0  0  0  0  0  0  0  0
  -17.6526  -20.2707  136.8874 C   0  0  0  0  0  0  0  0  0  0  0  0
  -20.0654  -20.7075  139.6236 C   0  0  0  0  0  0  0  0  0  0  0  0
  -21.4245  -20.1011  140.0213 C   0  0  0  0  0  0  0  0  0  0  0  0
  -18.5268  -21.1183  137.7151 N   0  0  0  0  0  0  0  0  0  0  0  0
  2  1  1  0
  6  3  1  0
  7  6  1  0
  8  7  1  0
  9  7  1  0
 10  9  1  0
 11  4  1  0
 12  9  1  0
 14  8  1  0
 14 13  1  0
 15  1  1  0
 15  3  1  0
 15  4  1  0
 16 12  1  0
 17 11  1  0
 18 11  1  0
 19  5  1  0
 20 12  1  0
 20 13  1  0
 20 14  1  0
 21 19  1  0
 22  5  1  0
 23 18  1  0
 23 22  1  0
 24  5  1  0
 24 19  1  0
 24 21  1  0
M  RAD  2   4   2  18   2
M  END
$$$$

     RDKit          3D

 25 28  0  0  0  0  0  0  0  0999 V2000
  -23.0734    2.8381  139.7598 C   0  0  0  0  0  0  0  0  0  0  0  0
  -22.7670    4.2132  140.3150 C   0  0  0  0  0  0  0  0  0  0  0  0
  -24.3587    3.4143  139.2054 C   0  0  0  0  0  0  0  0  0  0  0  0
  -24.0411    4.7645  139.7317 N   0  0  0  0  0  0  0  0  0  0  0  0
  -22.2006    2.3387  138.6281 C   0  0  0  0  0  0  0  0  0  0  0  0
  -20.9854    3.0143  138.6044 F   0  0  0  0  0  0  0  0  0  0  0  0
  -25.2783    4.6658  140.5342 C   0  0  0  0  0  0  0  0  0  0  0  0
  -23.3045   -2.3297  137.2632 F   0  0  0  0  0  0  0  0  0  0  0  0
  -25.6034    3.2688  140.0671 C   0  0  0  0  0  0  0  0  0  0  0  0
  -22.3798    1.4987  139.9350 C   0  0  0  0  0  0  0  0  0  0  0  0
  -21.8891    0.8727  138.6506 C   0  0  0  0  0  0  0  0  0  0  0  0
  -22.7676   -1.4724  138.2243 C   0  0  0  0  0  0  0  0  0  0  0  0
  -22.6293    4.2462  141.8562 C   0  0  0  0  0  0  0  0  0  0  0  0
  -22.5257    5.6792  142.4062 C   0  0  0  0  0  0  0  0  0  0  0  0
  -24.1749    0.4561  137.2513 C   0  0  0  0  0  0  0  0  0  0  0  0
  -21.1492    6.3179  142.1784 C   0  0  0  0  0  0  0  0  0  0  0  0
  -19.1645    4.6986  142.1350 C   0  0  0  0  0  0  0  0  0  0  0  0
  -18.5519    5.2135  141.1564 O   0  0  0  0  0  0  0  0  0  0  0  0
  -22.7659   -0.0271  137.7186 C   0  0  0  0  0  0  0  0  0  0  0  0
  -25.3303    0.3884  138.2719 C   0  0  0  0  0  0  0  0  0  0  0  0
  -20.0888    5.5245  142.8402 O   0  0  0  0  0  0  0  0  0  0  0  0
  -25.9541   -0.9765  138.3903 C   0  0  0  0  0  0  0  0  0  0  0  0
  -26.0743   -1.5792  139.5854 C   0  0  0  0  0  0  0  0  0  0  0  0
  -26.8455   -2.8599  139.7310 C   0  0  0  0  0  0  0  0  0  0  0  0
  -27.8084   -2.7879  140.9212 C   0  0  0  0  0  0  0  0  0  0  0  0
  2  1  1  0
  3  1  1  0
  4  2  1  0
  4  3  1  0
  5  1  1  0
  6  5  1  0
  7  4  1  0
  9  3  1  0
  9  7  1  0
 10  1  1  0
 10  5  1  0
 11  5  1  0
 11 10  1  0
 12  8  1  0
 13  2  1  0
 14 13  1  0
 16 14  1  0
 18 17  2  0
 19 11  1  0
 19 12  1  0
 19 15  1  0
 20 15  1  0
 21 16  1  0
 21 17  1  0
 22 20  1  0
 23 22  2  3
 24 23  1  0
 25 24  1  0
M  END
$$$$

     RDKit          3D

 10 12  0  0  0  0  0  0  0  0999 V2000
  -19.0865   -3.8891  144.7416 C   0  0  0  0  0  0  0  0  0  0  0  0
  -19.6711   -4.6123  146.9305 N   0  0  0  0  0  0  0  0  0  0  0  0
  -18.7083   -6.3814  145.3950 C   0  0  0  0  0  0  0  0  0  0  0  0
  -20.1714   -4.0714  145.7192 N   0  0  0  0  0  0  0  0  0  0  0  0
  -19.2792   -6.0298  146.7840 C   0  0  0  0  0  0  0  0  0  0  0  0
  -16.9699   -5.0126  143.7356 C   0  0  0  0  0  0  0  0  0  0  0  0
  -17.2429   -6.2048  142.8605 C   0  0  0  0  0  0  0  0  0  0  0  0
  -16.9281   -4.8567  145.1537 O   0  0  0  0  0  0  0  0  0  0  0  0
  -18.1829   -5.1265  144.6730 C   0  0  0  0  0  0  0  0  0  0  0  0
  -15.9918   -6.1253  143.5636 N   0  0  0  0  0  0  0  0  0  0  0  0
  4  1  1  0
  4  2  1  0
  5  2  1  0
  5  3  1  0
  7  6  1  0
  8  6  1  0
  9  1  1  0
  9  3  1  0
  9  6  1  0
  9  8  1  0
 10  6  1  0
 10  7  1  0
M  END
$$$$

     RDKit          3D

 25 28  0  0  0  0  0  0  0  0999 V2000
  -27.3810  -10.1106  148.8514 O   0  0  0  0  0  0  0  0  0  0  0  0
  -28.6106  -10.8480  148.7339 C   0  0  0  0  0  0  0  0  0  0  0  0
  -28.3385  -12.2255  148.8022 O   0  0  0  0  0  0  0  0  0  0  0  0
  -29.4554  -10.3699  147.4809 C   0  0  0  0  0  0  0  0  0  0  0  0
  -28.8811   -8.9760  147.5421 C   0  0  0  0  0  0  0  0  0  0  0  0
  -27.3110   -9.2786  147.7394 C   0  0  0  0  0  0  0  0  0  0  0  0
  -29.2914   -8.1119  146.5604 F   0  0  0  0  0  0  0  0  0  0  0  0
  -29.3025  -11.2083  146.1045 C   0  0  0  0  0  0  0  0  0  0  0  0
  -29.7773  -12.6722  146.3436 C   0  0  0  0  0  0  0  0  0  0  0  0
  -29.8089  -10.7661  144.6480 C   0  0  0  0  0  0  0  0  0  0  0  0
  -26.1970  -10.0713  146.7676 C   0  0  0  0  0  0  0  0  0  0  0  0
  -29.3211  -11.7523  143.6213 O   0  0  0  0  0  0  0  0  0  0  0  0
  -31.9113  -10.2316  145.9227 O   0  0  0  0  0  0  0  0  0  0  0  0
  -29.0907   -9.4511  144.2414 C   0  0  0  0  0  0  0  0  0  0  0  0
  -31.4165  -10.4904  144.6699 C   0  0  0  0  0  0  0  0  0  0  0  0
  -32.3775  -11.1892  140.8889 C   0  0  0  0  0  0  0  0  0  0  0  0
  -32.2240  -10.2569  143.3369 C   0  0  0  0  0  0  0  0  0  0  0  0
  -33.6329   -9.5151  143.2406 C   0  0  0  0  0  0  0  0  0  0  0  0
  -34.7206  -10.3735  142.5553 C   0  0  0  0  0  0  0  0  0  0  0  0
  -36.0324   -9.6475  142.2821 C   0  0  0  0  0  0  0  0  0  0  0  0
  -30.9506   -9.1349  141.4151 C   0  0  0  0  0  0  0  0  0  0  0  0
  -35.6872  -10.0182  143.6987 C   0  0  0  0  0  0  0  0  0  0  0  0
  -34.5557   -9.2380  144.4115 C   0  0  0  0  0  0  0  0  0  0  0  0
  -32.2359  -11.4867  144.0675 O   0  0  0  0  0  0  0  0  0  0  0  0
  -31.5341  -10.4855  141.9546 C   0  0  0  0  0  0  0  0  0  0  0  0
  2  1  1  0
  3  2  1  0
  4  2  1  0
  5  4  1  0
  6  1  1  0
  6  5  1  0
  7  5  1  0
  8  4  1  0
  9  8  1  0
 10  8  1  0
 11  6  1  0
 12 10  1  0
 14 10  1  0
 15 10  1  0
 15 13  1  0
 17 15  1  0
 18 17  1  0
 19 18  1  0
 20 19  1  0
 22 19  1  0
 22 20  1  0
 23 18  1  0
 23 22  1  0
 24 15  1  0
 24 17  1  0
 25 16  1  0
 25 17  1  0
 25 21  1  0
M  END
$$$$

     RDKit          3D

 19 20  0  0  0  0  0  0  0  0999 V2000
  -25.5401  -17.6096  140.7890 O   0  0  0  0  0  0  0  0  0  0  0  0
  -26.5934  -17.0544  140.0543 C   0  0  0  0  0  0  0  0  0  0  0  0
  -27.5705  -18.0754  139.4548 C   0  0  0  0  0  0  0  0  0  0  0  0
  -28.2712  -17.6430  138.1310 C   0  0  0  0  0  0  0  0  0  0  0  0
  -27.4966  -18.1517  136.8919 C   0  0  0  0  0  0  0  0  0  0  0  0
  -27.9545  -17.2763  140.7020 C   0  0  0  0  0  0  0  0  0  0  0  0
  -26.0440  -17.6504  136.8354 C   0  0  0  0  0  0  0  0  0  0  0  0
  -29.7522  -18.1255  138.1442 C   0  0  0  0  0  0  0  0  0  0  0  0
  -30.5724  -16.2723  136.4646 C   0  0  0  0  0  0  0  0  0  0  0  0
  -25.3709  -18.0906  135.5646 C   0  0  0  0  0  0  0  0  0  0  0  0
  -30.4694  -18.8552  135.8109 C   0  0  0  0  0  0  0  0  0  0  0  0
  -29.9949  -18.5191  134.3981 C   0  0  0  0  0  0  0  0  0  0  0  0
  -27.2662  -19.5670  139.7070 C   0  0  0  0  0  0  0  0  0  0  0  0
  -30.6536  -17.7676  136.9181 C   0  0  0  0  0  0  0  0  0  0  0  0
  -31.4729  -18.7729  134.6635 C   0  0  0  0  0  0  0  0  0  0  0  0
  -31.4678  -15.2956  137.2583 C   0  0  0  0  0  0  0  0  0  0  0  0
  -25.5799  -17.5384  134.3608 C   0  0  0  0  0  0  0  0  0  0  0  0
  -26.4480  -16.4222  134.1485 N   0  0  0  0  0  0  0  0  0  0  0  0
  -31.0495  -15.0856  138.7133 C   0  0  0  0  0  0  0  0  0  0  0  0
  2  1  1  0
  3  2  1  0
  4  3  1  0
  5  4  1  0
  6  2  1  0
  6  3  1  0
  7  5  1  0
  8  4  1  0
 10  7  1  0
 12 11  1  0
 13  3  1  0
 14  8  1  0
 14  9  1  0
 14 11  1  0
 15 11  1  0
 15 12  1  0
 16  9  1  0
 17 10  2  3
 18 17  1  0
 19 16  1  0
M  END
$$$$

     RDKit          3D

 24 27  0  0  0  0  0  0  0  0999 V2000
  -22.7954    0.1012  138.0671 C   0  0  0  0  0  0  0  0  0  0  0  0
  -22.4635   -0.0968  139.4097 O   0  0  0  0  0  1  0  0  0  0  0  0
  -22.0578    1.2756  137.3637 C   0  0  0  0  0  0  0  0  0  0  0  0
  -20.4763    1.3015  137.5341 C   0  0  0  0  0  0  0  0  0  0  0  0
  -19.7382   -0.0700  137.5816 C   0  0  0  0  0  0  0  0  0  0  0  0
  -17.2178   -0.0471  137.1667 C   0  0  0  0  0  0  0  0  0  0  0  0
  -16.0792   -0.1806  136.1578 C   0  0  0  0  0  0  0  0  0  0  0  0
  -22.7810    2.6198  137.5701 C   0  0  0  0  0  0  0  0  0  0  0  0
  -22.7052    2.0137  136.1828 C   0  0  0  0  0  0  0  0  0  0  0  0
  -15.2198   -3.3655  136.3093 C   0  0  0  0  0  0  0  0  0  0  0  0
  -23.4115   -1.0734  137.4138 C   0  0  0  0  0  0  0  0  0  0  0  0
  -19.9312    2.2539  138.6770 C   0  0  0  0  0  0  0  0  0  0  0  0
  -16.4513   -2.6372  136.8842 C   0  0  0  0  0  0  0  0  0  0  0  0
  -13.9533   -3.2723  137.1726 C   0  0  0  0  0  0  0  0  0  0  0  0
  -16.1750   -1.1708  137.3125 C   0  0  0  0  0  0  0  0  0  0  0  0
  -23.6108   -1.2566  135.9027 C   0  0  0  0  0  0  0  0  0  0  0  0
  -19.2378    4.0162  139.1751 Se  0  0  0  0  0  2  0  0  0  0  0  0
  -24.2534    0.0466  137.8799 N   0  0  0  0  0  2  0  0  0  0  0  0
  -22.4897   -2.0558  135.2525 C   0  0  0  0  0  0  0  0  0  0  0  0
  -21.3792   -1.2516  135.0727 F   0  0  0  0  0  0  0  0  0  0  0  0
  -13.2484   -2.1185  136.8735 F   0  0  0  0  0  0  0  0  0  0  0  0
  -19.7117    2.4973  137.1519 C   0  0  0  0  0  0  0  0  0  0  0  0
  -17.5684    3.2489  139.8233 C   0  0  0  0  0  0  0  0  0  0  0  0
  -18.6112   -0.2638  136.5362 C   0  0  0  0  0  0  0  0  0  0  0  0
  2  1  1  0
  3  1  1  0
  4  3  1  0
  5  4  1  0
  7  6  1  0
  8  3  1  0
  9  3  1  0
  9  8  1  0
 11  1  1  0
 12  4  1  0
 13 10  1  0
 14 10  1  0
 15  6  1  0
 15  7  1  0
 15 13  1  0
 16 11  1  0
 17 12  1  0
 18  1  1  0
 18 11  1  0
 19 16  1  0
 20 19  1  0
 21 14  1  0
 22  4  1  0
 22 12  1  0
 23 17  1  0
 24  5  1  0
 24  6  1  0
M  RAD  2   2   2  18   2
M  END
$$$$

     RDKit          3D

 14 16  0  0  0  0  0  0  0  0999 V2000
  -32.4998   -8.6438  148.4200 C   0  0  0  0  0  0  0  0  0  0  0  0
  -31.0197  -10.0652  148.5884 C   0  0  0  0  0  0  0  0  0  0  0  0
  -33.4937   -8.2923  147.2824 C   0  0  0  0  0  0  0  0  0  0  0  0
  -32.4376   -9.9492  149.0625 C   0  0  0  0  0  0  0  0  0  0  0  0
  -33.3260  -11.0976  148.5225 C   0  0  0  0  0  0  0  0  0  0  0  0
  -31.1529   -8.8789  147.8696 C   0  0  0  0  0  0  0  0  0  0  0  0
  -30.3973   -8.1067  146.8775 C   0  0  0  0  0  0  0  0  0  0  0  0
  -31.3361   -7.7510  145.7099 C   0  0  0  0  0  0  0  0  0  0  0  0
  -32.7594  -12.4839  148.8433 C   0  0  0  0  0  0  0  0  0  0  0  0
  -33.0239   -8.7406  144.7531 C   0  0  0  0  0  0  0  0  0  0  0  0
  -32.8770   -7.7615  145.9363 C   0  0  0  0  0  0  0  0  0  0  0  0
  -33.7422   -8.1177  143.5491 C   0  0  0  0  0  0  0  0  0  0  0  0
  -31.4980   -8.7809  144.5711 C   0  0  0  0  0  0  0  0  0  0  0  0
  -30.9236  -10.1909  144.7808 C   0  0  0  0  0  0  0  0  0  0  0  0
  3  1  1  0
  4  1  1  0
  4  2  1  0
  5  4  1  0
  6  1  1  0
  6  2  2  0
  7  6  1  0
  8  7  1  0
  9  5  1  0
 11  3  1  0
 11  8  1  0
 11 10  1  0
 12 10  1  0
 13  8  1  0
 13 10  1  0
 14 13  1  0
M  END
$$$$

     RDKit          3D

 24 26  0  0  0  0  0  0  0  0999 V2000
  -18.1058  -10.0195  139.5787 O   0  0  0  0  0  0  0  0  0  0  0  0
  -15.9711  -10.8671  140.4548 C   0  0  0  0  0  0  0  0  0  0  0  0
  -17.2864  -10.3018  140.7484 C   0  0  0  0  0  0  0  0  0  0  0  0
  -17.9623   -9.6534  142.1039 C   0  0  0  0  0  0  0  0  0  0  0  0
  -17.0633  -11.7538  140.8329 N   0  0  0  0  0  0  0  0  0  0  0  0
  -17.5094  -10.5379  143.4102 C   0  0  0  0  0  0  0  0  0  0  0  0
  -16.0950   -9.9014  143.9110 C   0  0  0  0  0  0  0  0  0  0  0  0
  -14.7969  -10.4127  143.0285 C   0  0  0  0  0  0  0  0  0  0  0  0
  -14.8004  -13.3328  143.1987 C   0  0  0  0  0  0  0  0  0  0  0  0
  -16.4804   -8.4861  143.6621 C   0  0  0  0  0  0  0  0  0  0  0  0
  -13.7968  -14.2853  142.4585 C   0  0  0  0  0  0  0  0  0  0  0  0
  -19.3916   -8.2846  143.4594 C   0  0  0  0  0  0  0  0  0  0  0  0
  -17.8974   -8.2252  142.8251 C   0  0  0  0  0  0  0  0  0  0  0  0
  -17.8770   -6.6176  142.3824 C   0  0  0  0  0  0  0  0  0  0  0  0
  -12.4779  -13.6381  142.9600 C   0  0  0  0  0  0  0  0  0  0  0  0
  -12.7554  -12.0638  142.9661 C   0  0  0  0  0  0  0  0  0  0  0  0
  -19.2144   -5.6026  142.2330 C   0  0  0  0  0  0  0  0  0  0  0  0
  -14.2346  -11.9107  143.3398 C   0  0  0  0  0  0  0  0  0  0  0  0
  -21.9359   -5.6121  142.6644 C   0  0  0  0  0  0  0  0  0  0  0  0
  -20.7204   -3.6280  143.3909 C   0  0  0  0  0  0  0  0  0  0  0  0
  -15.5185   -7.5398  143.9149 C   0  0  0  0  0  0  0  0  0  0  0  0
  -20.4940   -5.1835  143.2883 C   0  0  0  0  0  0  0  0  0  0  0  0
  -23.2178   -5.7845  143.7242 C   0  0  0  0  0  0  0  0  0  0  0  0
  -24.1479   -6.9066  143.4129 C   0  0  0  0  0  0  0  0  0  0  0  0
  3  1  1  0
  3  2  1  0
  4  3  1  0
  5  2  1  0
  5  3  1  0
  6  4  1  0
  7  6  1  0
  8  7  1  0
 10  7  1  0
 11  9  1  0
 13  4  1  0
 13 10  1  0
 13 12  1  0
 14 13  1  0
 15 11  1  0
 16 15  1  0
 17 14  1  0
 18  8  1  0
 18  9  1  0
 18 16  1  0
 21 10  2  0
 22 17  1  0
 22 19  1  0
 22 20  1  0
 23 19  1  0
 24 23  1  0
M  END
$$$$

     RDKit          3D

 25 25  0  0  0  0  0  0  0  0999 V2000
  -24.1545  -14.7971  145.4094 C   0  0  0  0  0  0  0  0  0  0  0  0
  -24.1026  -17.6686  145.9164 C   0  0  0  0  0  0  0  0  0  0  0  0
  -22.5002  -17.5161  145.9451 N   0  0  0  0  0  0  0  0  0  0  0  0
  -24.9634  -16.2360  146.0615 C   0  0  0  0  0  0  0  0  0  0  0  0
  -26.5828  -16.9172  146.3946 C   0  0  0  0  0  0  0  0  0  0  0  0
  -21.6497  -17.1294  144.8592 N   0  0  0  0  0  0  0  0  0  0  0  0
  -27.9419  -16.7513  145.3562 C   0  0  0  0  0  0  0  0  0  0  0  0
  -23.7651  -14.2952  143.7857 C   0  0  0  0  0  0  0  0  0  0  0  0
  -28.0228  -15.0413  145.4899 C   0  0  0  0  0  0  0  0  0  0  0  0
  -27.1601  -17.2014  143.8771 C   0  0  0  0  0  0  0  0  0  0  0  0
  -26.9494  -18.7252  143.7776 C   0  0  0  0  0  0  0  0  0  0  0  0
  -25.6014  -16.6576  143.3680 C   0  0  0  0  0  0  0  0  0  0  0  0
  -27.0840  -19.3255  142.4789 C   0  0  0  0  0  0  0  0  0  0  0  0
  -25.1893  -16.9503  141.8605 C   0  0  0  0  0  0  0  0  0  0  0  0
  -26.3764  -17.2922  140.8054 C   0  0  0  0  0  0  0  0  0  0  0  0
  -27.4898  -14.5375  146.8312 N   0  0  0  0  0  0  0  0  0  0  0  0
  -27.4056  -18.5234  141.2259 C   0  0  0  0  0  0  0  0  0  0  0  0
  -24.5222  -13.1602  142.6319 C   0  0  0  0  0  0  0  0  0  0  0  0
  -24.8484  -11.0108  144.2667 N   0  0  0  0  0  0  0  0  0  0  0  0
  -26.5346  -10.8286  146.3609 C   0  0  0  0  0  0  0  0  0  0  0  0
  -25.5808  -13.4542  141.2881 C   0  0  0  0  0  0  0  0  0  0  0  0
  -27.3795   -9.6729  146.5200 O   0  0  0  0  0  0  0  0  0  0  0  0
  -27.3621  -13.7435  142.2116 C   0  0  0  0  0  0  0  0  0  0  0  0
  -24.4720  -11.4016  142.7297 C   0  0  0  0  0  0  0  0  0  0  0  0
  -26.2357  -11.2110  144.7467 C   0  0  0  0  0  0  0  0  0  0  0  0
  3  2  1  0
  4  1  1  0
  4  2  1  0
  5  4  1  0
  6  3  1  0
  7  5  1  0
  8  1  1  0
  9  7  1  0
 10  7  1  0
 11 10  1  0
 12 10  1  0
 13 11  2  0
 14 12  1  0
 15 14  1  0
 16  9  1  0
 17 13  1  0
 17 15  1  0
 18  8  1  0
 21 18  1  0
 22 20  1  0
 23 21  1  0
 24 18  1  0
 24 19  1  0
 25 19  1  0
 25 20  1  0
M  END
$$$$

     RDKit          3D

 24 33  0  0  0  0  0  0  0  0999 V2000
  -22.0719   -0.7384  140.9259 C   0  0  0  0  0  0  0  0  0  0  0  0
  -23.3587   -1.8080  139.8600 C   0  0  0  0  0  0  0  0  0  0  0  0
  -21.5570    0.0544  142.2339 C   0  0  0  0  0  0  0  0  0  0  0  0
  -24.1474   -0.3240  138.7325 C   0  0  0  0  0  0  0  0  0  0  0  0
  -22.6413    0.9323  139.8513 C   0  0  0  0  0  0  0  0  0  0  0  0
  -23.4432   -1.0703  141.1810 C   0  0  0  0  0  0  0  0  0  0  0  0
  -24.9238    0.5002  139.7996 C   0  0  0  0  0  0  0  0  0  0  0  0
  -23.8292    0.4879  140.8290 C   0  0  0  0  0  0  0  0  0  0  0  0
  -19.4428    1.5783  141.8606 C   0  0  0  0  0  0  0  0  0  0  0  0
  -22.6290   -0.4899  139.3740 C   0  0  0  0  0  0  0  0  0  0  0  0
  -20.9792    1.4423  141.7254 C   0  0  0  0  0  0  0  0  0  0  0  0
  -21.1178    1.3598  140.2159 C   0  0  0  0  0  0  0  0  0  0  0  0
  -20.5066   -1.0420  142.1728 C   0  0  0  0  0  0  0  0  0  0  0  0
  -20.6808   -1.1789  140.7152 N   0  0  0  0  0  0  0  0  0  0  0  0
  -24.4701   -1.7956  138.8410 C   0  0  0  0  0  0  0  0  0  0  0  0
  -23.9600   -2.5777  137.5628 C   0  0  0  0  0  0  0  0  0  0  0  0
  -26.9402   -3.7130  137.7790 C   0  0  0  0  0  0  0  0  0  0  0  0
  -25.8515   -2.2675  139.4403 C   0  0  0  0  0  0  0  0  0  0  0  0
  -18.8570    0.7032  140.7162 C   0  0  0  0  0  0  0  0  0  0  0  0
  -20.1053    0.1099  140.0254 C   0  0  0  0  0  0  0  0  0  0  0  0
  -26.0401   -4.1750  136.6527 C   0  0  0  0  0  0  0  0  0  0  0  0
  -27.4232   -4.4977  138.9781 C   0  0  0  0  0  0  0  0  0  0  0  0
  -26.1117   -3.7333  139.0762 C   0  0  0  0  0  0  0  0  0  0  0  0
  -25.1132   -2.6763  136.1311 S   0  0  0  0  0  0  0  0  0  0  0  0
  3  1  1  0
  6  1  1  0
  6  2  1  0
  7  4  1  0
  8  5  1  0
  8  6  1  0
  8  7  1  0
 10  1  1  0
 10  2  1  0
 10  4  1  0
 10  5  1  0
 11  3  1  0
 11  9  1  0
 12  5  1  0
 12 11  1  0
 13  3  1  0
 14  1  1  0
 14 13  1  0
 15  2  1  0
 15  4  1  0
 16 15  1  0
 18 15  1  0
 19  9  1  0
 20 12  1  0
 20 14  1  0
 20 19  1  0
 21 17  1  0
 22 17  1  0
 23 17  1  0
 23 18  1  0
 23 22  1  0
 24 16  1  0
 24 21  1  0
M  END
$$$$

     RDKit          3D

 24 33  0  0  0  0  0  0  0  0999 V2000
  -27.1184  -13.0964  148.2620 C   0  0  0  0  0  0  0  0  0  0  0  0
  -26.8897  -11.7026  147.6443 C   0  0  0  0  0  0  0  0  0  0  0  0
  -27.2208  -14.2293  147.2304 C   0  0  0  0  0  0  0  0  0  0  0  0
  -27.5620  -15.5498  147.9685 C   0  0  0  0  0  0  0  0  0  0  0  0
  -26.4191  -16.4882  148.4093 C   0  0  0  0  0  0  0  0  0  0  0  0
  -26.0159  -11.6204  146.4025 C   0  0  0  0  0  0  0  0  0  0  0  0
  -28.3320  -13.8897  146.2225 C   0  0  0  0  0  0  0  0  0  0  0  0
  -24.9806  -16.1011  147.9675 C   0  0  0  0  0  0  0  0  0  0  0  0
  -26.7385  -10.5265  148.6107 C   0  0  0  0  0  0  0  0  0  0  0  0
  -26.7764  -12.0956  145.1775 C   0  0  0  0  0  0  0  0  0  0  0  0
  -28.1897  -12.5146  145.5417 C   0  0  0  0  0  0  0  0  0  0  0  0
  -27.5225  -11.3703  146.2986 C   0  0  0  0  0  0  0  0  0  0  0  0
  -27.3836  -16.9099  147.2874 C   0  0  0  0  0  0  0  0  0  0  0  0
  -23.4800  -16.3114  148.3694 C   0  0  0  0  0  0  0  0  0  0  0  0
  -23.2775  -17.7309  148.8350 C   0  0  0  0  0  0  0  0  0  0  0  0
  -24.3198  -18.7143  148.3857 C   0  0  0  0  0  0  0  0  0  0  0  0
  -24.3464  -15.3514  149.1467 C   0  0  0  0  0  0  0  0  0  0  0  0
  -24.9613  -19.8068  150.4500 C   0  0  0  0  0  0  0  0  0  0  0  0
  -25.3814  -18.8640  149.3863 N   0  0  0  0  0  0  0  0  0  0  0  0
  -24.1907  -17.3872  147.6180 C   0  0  0  0  0  0  0  0  0  0  0  0
  -26.8481  -16.9800  145.8470 C   0  0  0  0  0  0  0  0  0  0  0  0
  -25.9071  -20.2495  149.4317 C   0  0  0  0  0  0  0  0  0  0  0  0
  -24.6070  -15.7218  150.6241 C   0  0  0  0  0  0  0  0  0  0  0  0
  -23.4405  -15.2831  151.5003 C   0  0  0  0  0  0  0  0  0  0  0  0
  2  1  1  0
  3  1  1  0
  4  3  1  0
  5  4  1  0
  6  2  1  0
  7  3  1  0
  8  5  1  0
  9  2  1  0
 10  6  1  0
 11  7  1  0
 11 10  1  0
 12  2  1  0
 12  6  1  0
 12 10  1  0
 12 11  1  0
 13  4  1  0
 13  5  1  0
 14  8  1  0
 15 14  1  0
 16 15  1  0
 17  8  1  0
 17 14  1  0
 19 16  1  0
 19 18  1  0
 20  8  1  0
 20 14  1  0
 20 15  1  0
 20 16  1  0
 21 13  1  0
 22 18  1  0
 22 19  1  0
 23 17  1  0
 24 23  1  0
M  END
$$$$

     RDKit          3D

 25 34  0  0  0  0  0  0  0  0999 V2000
  -25.7332   -3.8235  143.2334 Cl  0  0  0  0  0  0  0  0  0  0  0  0
  -25.4036   -5.7914  145.2121 C   0  0  0  0  0  0  0  0  0  0  0  0
  -25.7180   -5.5381  143.7339 C   0  0  0  0  0  0  0  0  0  0  0  0
  -26.8112   -6.7860  142.7275 Br  0  0  0  0  0  0  0  0  0  0  0  0
  -25.3211   -6.8728  146.2673 C   0  0  0  0  0  0  0  0  0  0  0  0
  -24.8279   -4.8406  146.2294 C   0  0  0  0  0  0  0  0  0  0  0  0
  -26.6965   -7.5317  146.6192 C   0  0  0  0  0  0  0  0  0  0  0  0
  -27.2701   -8.6815  145.8367 C   0  0  0  0  0  0  0  0  0  0  0  0
  -26.3797   -9.9400  145.5744 C   0  0  0  0  0  0  0  0  0  0  0  0
  -24.7510   -5.9101  147.2384 N   0  0  0  0  0  0  0  0  0  0  0  0
  -26.9719  -10.9610  144.6026 C   0  0  0  0  0  0  0  0  0  0  0  0
  -25.4425  -10.4850  146.6542 C   0  0  0  0  0  0  0  0  0  0  0  0
  -24.2722  -10.3458  145.6962 C   0  0  0  0  0  0  0  0  0  0  0  0
  -24.4298  -11.0352  144.3556 C   0  0  0  0  0  0  0  0  0  0  0  0
  -24.3648   -6.0742  144.0937 C   0  0  0  0  0  0  0  0  0  0  0  0
  -23.2459  -10.7633  143.4225 C   0  0  0  0  0  0  0  0  0  0  0  0
  -27.0497   -7.8701  148.0403 C   0  0  0  0  0  0  0  0  0  0  0  0
  -25.7700  -10.7842  143.6930 C   0  0  0  0  0  0  0  0  0  0  0  0
  -27.9901   -9.0859  148.1924 C   0  0  0  0  0  0  0  0  0  0  0  0
  -25.1952   -9.7374  144.6383 C   0  0  0  0  0  0  0  0  0  0  0  0
  -28.7543  -10.1069  147.4219 N   0  0  0  0  0  0  0  0  0  0  0  0
  -28.5058   -8.8693  146.7441 C   0  0  0  0  0  0  0  0  0  0  0  0
  -29.1774   -7.5302  146.9533 C   0  0  0  0  0  0  0  0  0  0  0  0
  -27.8857   -6.8128  147.3018 C   0  0  0  0  0  0  0  0  0  0  0  0
  -27.9287   -5.4496  148.0115 C   0  0  0  0  0  0  0  0  0  0  0  0
  3  1  1  0
  3  2  1  0
  4  3  1  0
  5  2  1  0
  6  2  1  0
  7  5  1  0
  8  7  1  0
  9  8  1  0
 10  5  1  0
 10  6  1  0
 11  9  1  0
 12  9  1  0
 13 12  1  0
 14 13  1  0
 15  2  1  0
 15  3  1  0
 16 14  1  0
 17  7  1  0
 18 11  1  0
 18 14  1  0
 19 17  1  0
 20  9  1  0
 20 13  1  0
 20 14  1  0
 20 18  1  0
 21 19  1  0
 22  8  1  0
 22 19  1  0
 22 21  1  0
 23 22  1  0
 24  7  1  0
 24 17  1  0
 24 23  1  0
 25 24  1  0
M  END
$$$$

     RDKit          3D

 25 25  0  0  0  0  0  0  0  0999 V2000
  -38.1005  -15.7277  147.4300 N   0  0  0  0  0  0  0  0  0  0  0  0
  -35.9365  -15.8225  146.0990 C   0  0  0  0  0  0  0  0  0  0  0  0
  -34.8290  -16.4477  145.8814 O   0  0  0  0  0  0  0  0  0  0  0  0
  -35.8283  -16.2028  148.6591 C   0  0  0  0  0  0  0  0  0  0  0  0
  -34.2268  -15.4658  148.7196 C   0  0  0  0  0  0  0  0  0  0  0  0
  -32.8985  -13.3644  147.6627 C   0  0  0  0  0  0  0  0  0  0  0  0
  -36.7067  -16.2698  150.2234 C   0  0  0  0  0  0  0  0  0  0  0  0
  -31.5540  -12.7927  146.8613 C   0  0  0  0  0  0  0  0  0  0  0  0
  -36.6329  -15.8030  147.4155 N   0  0  0  0  0  0  0  0  0  0  0  0
  -31.4970  -11.6821  145.7803 N   0  0  0  0  0  0  0  0  0  0  0  0
  -33.2926  -14.8592  147.5640 N   0  0  0  0  0  0  0  0  0  0  0  0
  -31.3264  -13.1788  145.3899 C   0  0  0  0  0  0  0  0  0  0  0  0
  -29.4763  -14.7265  146.2986 C   0  0  0  0  0  0  0  0  0  0  0  0
  -35.6183  -17.5296  148.3757 F   0  0  0  0  0  0  0  0  0  0  0  0
  -28.9719  -13.0352  144.4288 C   0  0  0  0  0  0  0  0  0  0  0  0
  -30.3334  -10.5757  145.7004 C   0  0  0  0  0  0  0  0  0  0  0  0
  -27.8561  -12.2331  145.3167 C   0  0  0  0  0  0  0  0  0  0  0  0
  -29.8816  -13.7620  145.3688 C   0  0  0  0  0  0  0  0  0  0  0  0
  -27.6634  -12.3796  146.9410 C   0  0  0  0  0  0  0  0  0  0  0  0
  -27.3998  -11.2829  147.8115 C   0  0  0  0  0  0  0  0  0  0  0  0
  -28.4737  -10.9033  148.8228 C   0  0  0  0  0  0  0  0  0  0  0  0
  -28.2351  -11.2015  150.3496 C   0  0  0  0  0  0  0  0  0  0  0  0
  -26.9242  -10.3211  150.9470 C   0  0  0  0  0  0  0  0  0  0  0  0
  -27.1328   -8.7457  151.2167 C   0  0  0  0  0  0  0  0  0  0  0  0
  -28.3711  -12.8201  150.6468 C   0  0  0  0  0  0  0  0  0  0  0  0
  3  2  2  0
  5  4  1  0
  7  4  1  0
  8  6  1  0
  9  1  1  0
  9  2  1  0
  9  4  1  0
 10  8  1  0
 11  5  1  0
 11  6  1  0
 12  8  1  0
 12 10  1  0
 14  4  1  0
 16 10  1  0
 17 15  1  0
 18 12  1  0
 18 13  2  0
 18 15  1  0
 19 17  1  0
 20 19  2  3
 21 20  1  0
 22 21  1  0
 23 22  1  0
 24 23  1  0
 25 22  1  0
M  END
$$$$

     RDKit          3D

 11 12  0  0  0  0  0  0  0  0999 V2000
  -32.1251    1.3247  135.7447 O   0  0  0  0  0  0  0  0  0  0  0  0
  -33.3460    1.3159  135.0339 C   0  0  0  0  0  0  0  0  0  0  0  0
  -33.4072    2.4016  134.1556 O   0  0  0  0  0  0  0  0  0  0  0  0
  -31.3386    0.5233  133.5711 C   0  0  0  0  0  0  0  0  0  0  0  0
  -32.4496   -1.0748  135.3687 C   0  0  0  0  0  0  0  0  0  0  0  0
  -33.2018   -1.9637  134.4183 C   0  0  0  0  0  0  0  0  0  0  0  0
  -32.2760    0.3224  134.7656 C   0  0  0  0  0  0  0  0  0  0  0  0
  -32.5631   -2.7429  133.5341 C   0  0  0  0  0  0  0  0  0  0  0  0
  -33.3337   -3.5718  132.5474 C   0  0  0  0  0  0  0  0  0  0  0  0
  -32.7230   -4.9315  132.2483 C   0  0  0  0  0  0  0  0  0  0  0  0
  -33.9541   -4.8319  133.1346 C   0  0  0  0  0  0  0  0  0  0  0  0
  2  1  1  0
  3  2  1  0
  6  5  1  0
  7  1  1  0
  7  2  1  0
  7  4  1  0
  7  5  1  0
  8  6  2  3
  9  8  1  0
 10  9  1  0
 11  9  1  0
 11 10  1  0
M  END
$$$$

     RDKit          3D

 25 29  0  0  0  0  0  0  0  0999 V2000
  -24.3493   -0.5802  142.5253 O   0  0  0  0  0  0  0  0  0  0  0  0
  -25.6583   -2.3961  140.1115 C   0  0  0  0  0  0  0  0  0  0  0  0
  -24.3533   -0.6029  138.7546 O   0  0  0  0  0  0  0  0  0  0  0  0
  -25.2376   -4.0269  139.4805 C   0  0  0  0  0  0  0  0  0  0  0  0
  -28.3505   -6.2263  140.0851 O   0  0  0  0  0  0  0  0  0  0  0  0
  -24.0523   -0.1346  141.1374 C   0  0  0  0  0  0  0  0  0  0  0  0
  -24.5577   -1.1250  140.0415 C   0  0  0  0  0  0  0  0  0  0  0  0
  -22.6027   -0.0573  140.2935 C   0  0  0  0  0  0  0  0  0  0  0  0
  -23.1667   -1.2276  139.4123 C   0  0  0  0  0  0  0  0  0  0  0  0
  -21.5188   -4.6174  140.7224 C   0  0  0  0  0  0  0  0  0  0  0  0
  -27.1602   -5.7006  139.3465 C   0  0  0  0  0  0  0  0  0  0  0  0
  -20.3493   -3.9401  142.9481 C   0  0  0  0  0  0  0  0  0  0  0  0
  -21.8978   -3.5604  142.2910 C   0  0  0  0  0  0  0  0  0  0  0  0
  -21.2973   -0.3125  142.2308 C   0  0  0  0  0  0  0  0  0  0  0  0
  -20.8602   -7.2194  140.8420 C   0  0  0  0  0  0  0  0  0  0  0  0
  -26.1563   -4.9623  140.2066 C   0  0  0  0  0  0  0  0  0  0  0  0
  -21.9610   -1.6524  142.9607 C   0  0  0  0  0  0  0  0  0  0  0  0
  -21.3930   -1.4593  144.5308 C   0  0  0  0  0  0  0  0  0  0  0  0
  -22.7487   -0.7247  145.1452 C   0  0  0  0  0  0  0  0  0  0  0  0
  -23.3472   -1.0426  143.6117 C   0  0  0  0  0  0  0  0  0  0  0  0
  -21.1729   -0.5113  140.7839 C   0  0  0  0  0  0  0  0  0  0  0  0
  -22.0807   -6.1596  141.0695 C   0  0  0  0  0  0  0  0  0  0  0  0
  -19.4897   -6.4075  141.4630 C   0  0  0  0  0  0  0  0  0  0  0  0
  -20.6116   -6.3420  143.5911 C   0  0  0  0  0  0  0  0  0  0  0  0
  -19.9456   -5.5722  142.7235 C   0  0  0  0  0  0  0  0  0  0  0  0
  4  2  1  0
  6  1  1  0
  7  2  1  0
  7  3  1  0
  7  6  1  0
  8  6  1  0
  9  3  1  0
  9  7  1  0
  9  8  1  0
 11  5  1  0
 13 10  1  0
 13 12  1  0
 16  4  1  0
 16 11  1  0
 17 13  1  0
 17 14  1  0
 18 17  1  0
 19 18  1  0
 20  1  1  0
 20 17  1  0
 20 19  1  0
 21  8  1  0
 21 14  1  0
 22 10  1  0
 22 15  1  0
 23 15  1  0
 25 12  1  0
 25 23  1  0
 25 24  2  0
M  END
$$$$

     RDKit          3D

 25 27  0  0  0  0  0  0  0  0999 V2000
  -21.7698  -23.3618  133.9219 C   0  0  0  0  0  0  0  0  0  0  0  0
  -20.8089  -23.7232  132.8174 N   0  0  0  0  0  0  0  0  0  0  0  0
  -19.6219  -23.3027  131.9036 C   0  0  0  0  0  0  0  0  0  0  0  0
  -23.3994  -23.7063  133.8595 C   0  0  0  0  0  0  0  0  0  0  0  0
  -18.5303  -22.6783  131.5674 O   0  0  0  0  0  0  0  0  0  0  0  0
  -24.3750  -24.4978  132.7662 C   0  0  0  0  0  0  0  0  0  0  0  0
  -20.0320  -25.6511  131.2162 C   0  0  0  0  0  0  0  0  0  0  0  0
  -21.8374  -23.0822  130.8023 C   0  0  0  0  0  0  0  0  0  0  0  0
  -27.0550  -24.1409  132.2332 C   0  0  0  0  0  0  0  0  0  0  0  0
  -22.6923  -23.7443  129.7903 C   0  0  0  0  0  0  0  0  0  0  0  0
  -23.4170  -25.1374  128.8839 C   0  0  0  0  0  0  0  0  0  0  0  0
  -25.2799  -23.7730  130.1177 C   0  0  0  0  0  0  0  0  0  0  0  0
  -24.8794  -25.1033  127.7951 C   0  0  0  0  0  0  0  0  0  0  0  0
  -26.4927  -24.3733  127.8769 C   0  0  0  0  0  0  0  0  0  0  0  0
  -26.5945  -21.7388  129.2388 C   0  0  0  0  0  0  0  0  0  0  0  0
  -25.5382  -23.7524  131.9172 C   0  0  0  0  0  0  0  0  0  0  0  0
  -24.2972  -22.4388  128.6470 C   0  0  0  0  0  0  0  0  0  0  0  0
  -20.6939  -24.0573  131.4859 C   0  0  0  0  0  0  0  0  0  0  0  0
  -25.2933  -21.4620  130.6961 C   0  0  0  0  0  0  0  0  0  0  0  0
  -23.4626  -22.2657  127.2345 C   0  0  0  0  0  0  0  0  0  0  0  0
  -23.4641  -22.4814  131.0189 C   0  0  0  0  0  0  0  0  0  0  0  0
  -26.7251  -22.7568  127.8100 C   0  0  0  0  0  0  0  0  0  0  0  0
  -22.7548  -20.8273  126.9582 C   0  0  0  0  0  0  0  0  0  0  0  0
  -27.9903  -25.1032  128.0985 C   0  0  0  0  0  0  0  0  0  0  0  0
  -23.0526  -20.0783  125.8326 C   0  0  0  0  0  0  0  0  0  0  0  0
  2  1  1  0
  3  2  1  0
  4  1  1  0
  5  3  2  0
  6  4  1  0
 10  8  1  0
 11 10  1  0
 13 11  1  0
 14 13  1  0
 16  6  1  0
 16  9  1  0
 16 12  1  0
 17 12  1  0
 18  2  1  0
 18  3  1  0
 18  7  1  0
 18  8  1  0
 19 15  1  0
 20 17  1  0
 21  8  1  0
 21 10  1  0
 21 19  1  0
 22 14  1  0
 22 15  1  0
 23 20  1  0
 24 14  1  0
 25 23  2  0
M  END
$$$$

     RDKit          3D

 25 30  0  0  0  0  0  0  0  0999 V2000
  -23.3222    3.5758  138.7349 O   0  0  0  0  0  0  0  0  0  0  0  0
  -22.6574    4.5322  139.4998 C   0  0  0  0  0  0  0  0  0  0  0  0
  -21.4675    3.9814  140.2661 C   0  0  0  0  0  0  0  0  0  0  0  0
  -22.7904    4.3006  140.9915 C   0  0  0  0  0  0  0  0  0  0  0  0
  -20.2917    4.7788  140.8826 C   0  0  0  0  0  0  0  0  0  0  0  0
  -19.8584    6.1069  140.1640 C   0  0  0  0  0  0  0  0  0  0  0  0
  -20.0313    4.7266  142.4414 C   0  0  0  0  0  0  0  0  0  0  0  0
  -20.8311    3.7953  143.3903 C   0  0  0  0  0  0  0  0  0  0  0  0
  -19.8491    5.9853  138.6389 C   0  0  0  0  0  0  0  0  0  0  0  0
  -19.1923    4.9848  138.0087 C   0  0  0  0  0  0  0  0  0  0  0  0
  -22.1864    3.0232  143.1133 C   0  0  0  0  0  0  0  0  0  0  0  0
  -23.3042    3.4361  144.0901 C   0  0  0  0  0  0  0  0  0  0  0  0
  -18.5306    5.1043  136.6401 C   0  0  0  0  0  0  0  0  0  0  0  0
  -24.4984    2.4661  144.0141 C   0  0  0  0  0  0  0  0  0  0  0  0
  -22.6774    2.9292  141.6357 C   0  0  0  0  0  0  0  0  0  0  0  0
  -18.5743    6.4839  135.9535 C   0  0  0  0  0  0  0  0  0  0  0  0
  -20.9411    5.3214  143.5140 C   0  0  0  0  0  0  0  0  0  0  0  0
  -20.6377    7.3512  140.6361 C   0  0  0  0  0  0  0  0  0  0  0  0
  -16.3411    7.4514  136.4237 N   0  0  0  0  0  0  0  0  0  0  0  0
  -17.7759    7.5779  136.6958 C   0  0  0  0  0  0  0  0  0  0  0  0
  -25.3681    2.3246  145.2595 C   0  0  0  0  0  0  0  0  0  0  0  0
  -19.8539    8.6442  140.3421 C   0  0  0  0  0  0  0  0  0  0  0  0
  -26.8320    2.2881  144.8754 C   0  0  0  0  0  0  0  0  0  0  0  0
  -25.8699    3.1153  144.0442 C   0  0  0  0  0  0  0  0  0  0  0  0
  -21.5505    2.5340  140.7216 C   0  0  0  0  0  0  0  0  0  0  0  0
  2  1  1  0
  3  2  1  0
  4  2  1  0
  4  3  1  0
  5  3  1  0
  6  5  1  0
  7  5  1  0
  8  7  1  0
  9  6  1  0
 10  9  2  3
 11  8  1  0
 12 11  1  0
 13 10  1  0
 14 12  1  0
 15  4  1  0
 15 11  1  0
 16 13  1  0
 17  7  1  0
 17  8  1  0
 18  6  1  0
 20 16  1  0
 20 19  1  0
 21 14  1  0
 22 18  1  0
 23 21  1  0
 24 14  1  0
 24 21  1  0
 24 23  1  0
 25  3  1  0
 25 15  1  0
M  END
$$$$

     RDKit          3D

 24 24  0  0  0  0  0  0  0  0999 V2000
  -27.7150  -22.5334  136.4977 C   0  0  0  0  0  0  0  0  0  0  0  0
  -25.9966  -23.4624  137.4525 C   0  0  0  0  0  0  0  0  0  0  0  0
  -25.1504  -23.0421  138.6927 C   0  0  0  0  0  0  0  0  0  0  0  0
  -23.5012  -24.9958  138.3431 C   0  0  0  0  0  0  0  0  0  0  0  0
  -26.2089  -22.5222  136.2433 C   0  0  0  0  0  0  0  0  0  0  0  0
  -27.5046  -23.4036  137.7272 C   0  0  0  0  0  0  0  0  0  0  0  0
  -22.2318  -27.0122  138.7152 O   0  0  0  0  0  0  0  0  0  0  0  0
  -25.6687  -21.1664  136.3366 N   0  0  0  0  0  0  0  0  0  0  0  0
  -22.7200  -22.5933  137.8750 C   0  0  0  0  0  0  0  0  0  0  0  0
  -22.6649  -21.1460  138.4024 C   0  0  0  0  0  0  0  0  0  0  0  0
  -21.4211  -20.3850  137.9057 C   0  0  0  0  0  0  0  0  0  0  0  0
  -18.8201  -20.6967  137.9130 C   0  0  0  0  0  0  0  0  0  0  0  0
  -23.6578  -23.4947  138.7141 C   0  0  0  0  0  0  0  0  0  0  0  0
  -22.1832  -25.6178  138.8414 C   0  0  0  0  0  0  0  0  0  0  0  0
  -18.0677  -22.0466  137.9207 C   0  0  0  0  0  0  0  0  0  0  0  0
  -20.1507  -20.7796  138.6279 C   0  0  0  0  0  0  0  0  0  0  0  0
  -20.1789  -21.0004  139.8953 N   0  0  0  0  0  0  0  0  0  0  0  0
  -16.5590  -21.8572  137.6987 C   0  0  0  0  0  0  0  0  0  0  0  0
  -15.9059  -21.1815  138.8797 C   0  0  0  0  0  0  0  0  0  0  0  0
  -14.6515  -20.6998  138.8062 C   0  0  0  0  0  0  0  0  0  0  0  0
  -14.0011  -19.9261  139.9418 C   0  0  0  0  0  0  0  0  0  0  0  0
  -13.9436  -20.7331  141.2533 C   0  0  0  0  0  0  0  0  0  0  0  0
  -14.6444  -18.5682  140.1349 C   0  0  0  0  0  0  0  0  0  0  0  0
  -15.8717  -18.1863  140.6065 C   0  0  0  0  0  0  0  0  0  0  0  0
  3  2  1  0
  5  1  1  0
  5  2  1  0
  6  1  1  0
  6  2  1  0
  8  5  1  0
 10  9  1  0
 11 10  1  0
 13  3  1  0
 13  4  1  0
 13  9  1  0
 14  4  1  0
 14  7  1  0
 15 12  1  0
 16 11  1  0
 16 12  1  0
 17 16  2  0
 18 15  1  0
 19 18  1  0
 20 19  2  3
 21 20  1  0
 22 21  1  0
 23 21  1  0
 24 23  2  0
M  END
$$$$

     RDKit          3D

 24 29  0  0  0  0  0  0  0  0999 V2000
  -28.5996  -25.9002  140.2552 O   0  0  0  0  0  0  0  0  0  0  0  0
  -28.2806  -23.9920  139.2571 C   0  0  0  0  0  0  0  0  0  0  0  0
  -27.6722  -24.9310  140.1361 O   0  0  0  0  0  0  0  0  0  0  0  0
  -27.9904  -22.3653  139.9147 C   0  0  0  0  0  0  0  0  0  0  0  0
  -27.5036  -20.7114  139.3557 C   0  0  0  0  0  0  0  0  0  0  0  0
  -28.3051  -19.1468  139.8248 C   0  0  0  0  0  0  0  0  0  0  0  0
  -27.5248  -17.7891  139.7731 C   0  0  0  0  0  0  0  0  0  0  0  0
  -28.9158  -22.4542  141.1903 C   0  0  0  0  0  0  0  0  0  0  0  0
  -25.8347  -20.4587  138.7869 C   0  0  0  0  0  0  0  0  0  0  0  0
  -28.4042  -16.5909  140.2887 C   0  0  0  0  0  0  0  0  0  0  0  0
  -28.5637  -17.9813  140.8265 N   0  0  0  0  0  0  0  0  0  0  0  0
  -24.2498  -20.0498  137.0621 C   0  0  0  0  0  0  0  0  0  0  0  0
  -22.4574  -20.2903  135.2377 C   0  0  0  0  0  0  0  0  0  0  0  0
  -21.4495  -19.4096  135.7964 C   0  0  0  0  0  0  0  0  0  0  0  0
  -23.4645  -19.7500  138.3311 C   0  0  0  0  0  0  0  0  0  0  0  0
  -25.6570  -20.3991  137.2397 N   0  0  0  0  0  0  0  0  0  0  0  0
  -23.7911  -19.7673  135.5926 C   0  0  0  0  0  0  0  0  0  0  0  0
  -28.4082  -26.3078  138.1895 C   0  0  0  0  0  0  0  0  0  0  0  0
  -29.1337  -25.3674  139.1419 C   0  0  0  0  0  0  0  0  0  0  0  0
  -27.7876  -25.3273  137.1716 C   0  0  0  0  0  0  0  0  0  0  0  0
  -27.8939  -23.9316  137.8170 N   0  0  0  0  0  0  0  0  0  0  0  0
  -28.8316  -24.2981  136.7162 C   0  0  0  0  0  0  0  0  0  0  0  0
  -27.6580  -17.5267  138.3792 O   0  0  0  0  0  0  0  0  0  0  0  0
  -24.6061  -19.5483  139.2744 C   0  0  0  0  0  0  0  0  0  0  0  0
  3  1  1  0
  3  2  1  0
  4  2  1  0
  5  4  1  0
  6  5  1  0
  7  6  1  0
  8  4  1  0
  9  5  1  0
 10  7  1  0
 11  6  1  0
 11  7  1  0
 11 10  1  0
 14 13  2  0
 15 12  1  0
 16  9  1  0
 16 12  1  0
 17 12  1  0
 17 13  1  0
 19  1  1  0
 19  2  1  0
 19 18  1  0
 20 18  1  0
 21  2  1  0
 21 20  1  0
 22 20  1  0
 22 21  1  0
 23  7  1  0
 24  9  1  0
 24 15  1  0
M  END
$$$$

     RDKit          3D

 25 31  0  0  0  0  0  0  0  0999 V2000
  -26.4806   -2.9567  141.3555 C   0  0  0  0  0  0  0  0  0  0  0  0
  -26.6777   -3.2146  142.8706 C   0  0  0  0  0  0  0  0  0  0  0  0
  -25.7236   -4.0493  140.5511 C   0  0  0  0  0  0  0  0  0  0  0  0
  -25.7575   -2.3511  143.7937 C   0  0  0  0  0  0  0  0  0  0  0  0
  -24.3373   -2.5237  143.3783 N   0  0  0  0  0  0  0  0  0  0  0  0
  -23.4092   -1.8706  144.3089 C   0  0  0  0  0  0  0  0  0  0  0  0
  -24.4225   -3.4517  139.9936 C   0  0  0  0  0  0  0  0  0  0  0  0
  -24.4303   -3.5281  138.4448 C   0  0  0  0  0  0  0  0  0  0  0  0
  -24.3603   -4.6541  140.9238 C   0  0  0  0  0  0  0  0  0  0  0  0
  -23.3866   -2.5211  137.9139 C   0  0  0  0  0  0  0  0  0  0  0  0
  -21.6066   -1.4919  135.6139 C   0  0  0  0  0  0  0  0  0  0  0  0
  -20.5892   -1.2563  136.7419 C   0  0  0  0  0  0  0  0  0  0  0  0
  -26.1731   -0.8681  143.7337 C   0  0  0  0  0  0  0  0  0  0  0  0
  -23.4921   -2.0651  135.9876 As  0  0  0  0  0  3  0  0  0  0  0  0
  -22.1317   -1.4518  143.5605 C   0  0  0  0  0  0  0  0  0  0  0  0
  -23.2418   -5.7318  138.8142 C   0  0  0  0  0  0  0  0  0  0  0  0
  -23.1075   -2.6331  145.5591 C   0  0  0  0  0  0  0  0  0  0  0  0
  -23.8051   -5.9335  140.2405 C   0  0  0  0  0  0  0  0  0  0  0  0
  -23.5533   -3.3700  144.3246 C   0  0  0  0  0  0  0  0  0  0  0  0
  -24.7651   -7.1306  140.3504 C   0  0  0  0  0  0  0  0  0  0  0  0
  -20.5862   -2.5759  135.9675 C   0  0  0  0  0  0  0  0  0  0  0  0
  -24.2149   -4.9587  137.9083 C   0  0  0  0  0  0  0  0  0  0  0  0
  -23.7405   -0.4201  137.0645 C   0  0  0  0  0  0  0  0  0  0  0  0
  -24.9082   -0.3628  138.0270 C   0  0  0  0  0  0  0  0  0  0  0  0
  -23.6244   -1.0839  138.4311 C   0  0  0  0  0  0  0  0  0  0  0  0
  2  1  1  0
  3  1  1  0
  4  2  1  0
  5  4  1  0
  6  5  1  0
  7  3  1  0
  8  7  1  0
  9  3  1  0
  9  7  1  0
 10  8  1  0
 12 11  1  0
 13  4  1  0
 14 10  1  0
 14 11  1  0
 15  6  1  0
 17  6  1  0
 18  9  1  0
 18 16  1  0
 19  5  1  0
 19  6  1  0
 19 17  1  0
 20 18  1  0
 21 11  1  0
 21 12  1  0
 22  8  1  0
 22 16  1  0
 23 14  1  0
 24 23  1  0
 25 10  1  0
 25 23  1  0
 25 24  1  0
M  END
$$$$

     RDKit          3D

 25 31  0  0  0  0  0  0  0  0999 V2000
  -27.5722  -10.7554  139.4411 N   0  0  0  0  0  0  0  0  0  0  0  0
  -26.3072  -10.7377  140.1990 C   0  0  0  0  0  0  0  0  0  0  0  0
  -25.5941   -9.4493  140.0619 N   0  0  0  0  0  0  0  0  0  0  0  0
  -27.3847  -11.1606  138.0380 C   0  0  0  0  0  0  0  0  0  0  0  0
  -24.1487   -9.6185  139.8271 C   0  0  0  0  0  0  0  0  0  0  0  0
  -23.2942  -10.2008  140.9368 C   0  0  0  0  0  0  0  0  0  0  0  0
  -22.8263   -8.4760  142.7551 C   0  0  0  0  0  0  0  0  0  0  0  0
  -23.6768   -9.5499  138.3605 C   0  0  0  0  0  0  0  0  0  0  0  0
  -22.2858  -10.0635  138.0327 C   0  0  0  0  0  0  0  0  0  0  0  0
  -27.5288  -12.6819  137.9102 C   0  0  0  0  0  0  0  0  0  0  0  0
  -27.1546  -13.2145  136.5194 C   0  0  0  0  0  0  0  0  0  0  0  0
  -23.9413   -7.9349  141.8769 C   0  0  0  0  0  0  0  0  0  0  0  0
  -22.2790   -9.2750  141.5746 C   0  0  0  0  0  0  0  0  0  0  0  0
  -23.3268   -8.6619  140.6821 C   0  0  0  0  0  0  0  0  0  0  0  0
  -28.1401  -12.7657  135.4317 C   0  0  0  0  0  0  0  0  0  0  0  0
  -27.5906  -12.8708  134.0150 C   0  0  0  0  0  0  0  0  0  0  0  0
  -22.2066  -11.1652  136.9878 C   0  0  0  0  0  0  0  0  0  0  0  0
  -27.7560  -11.5094  134.6648 C   0  0  0  0  0  0  0  0  0  0  0  0
  -23.5647  -10.8125  137.5356 C   0  0  0  0  0  0  0  0  0  0  0  0
  -22.3436  -12.5815  137.5490 C   0  0  0  0  0  0  0  0  0  0  0  0
  -22.5679  -13.6680  136.4764 C   0  0  0  0  0  0  0  0  0  0  0  0
  -23.6445  -12.1742  138.2288 C   0  0  0  0  0  0  0  0  0  0  0  0
  -21.2594  -14.1828  135.8511 C   0  0  0  0  0  0  0  0  0  0  0  0
  -20.7080  -13.3104  134.7105 C   0  0  0  0  0  0  0  0  0  0  0  0
  -21.5871  -13.3442  133.4602 C   0  0  0  0  0  0  0  0  0  0  0  0
  2  1  1  0
  3  2  1  0
  4  1  1  0
  5  3  1  0
  6  5  1  0
  8  5  1  0
  9  8  1  0
 10  4  1  0
 11 10  1  0
 12  7  1  0
 13  6  1  0
 13  7  1  0
 14  5  1  0
 14  6  1  0
 14 12  1  0
 14 13  1  0
 15 11  1  0
 16 15  1  0
 17  9  1  0
 18 15  1  0
 18 16  1  0
 19  8  1  0
 19  9  1  0
 19 17  1  0
 20 17  1  0
 21 20  1  0
 22 19  1  0
 22 20  1  0
 23 21  1  0
 24 23  1  0
 25 24  1  0
M  END
$$$$

     RDKit          3D

 25 28  0  0  0  0  0  0  0  0999 V2000
  -27.3069  -10.1960  150.5881 N   0  0  0  0  0  0  0  0  0  0  0  0
  -26.6510   -9.7169  149.3610 C   0  0  0  0  0  0  0  0  0  0  0  0
  -26.8101  -10.1792  151.8085 C   0  0  0  0  0  0  0  0  0  0  0  0
  -25.4913   -9.6804  152.0820 N   0  0  0  0  0  0  0  0  0  0  0  0
  -25.2200  -10.0488  149.3886 N   0  0  0  0  0  0  0  0  0  0  0  0
  -24.4100   -8.9276  149.8855 C   0  0  0  0  0  0  0  0  0  0  0  0
  -27.7119  -10.4470  152.9281 N   0  0  0  0  0  0  0  0  0  0  0  0
  -24.8975   -8.5635  151.3101 C   0  0  0  0  0  0  0  0  0  0  0  0
  -27.2372  -11.0723  154.1791 C   0  0  0  0  0  0  0  0  0  0  0  0
  -25.2558   -7.0850  151.6752 C   0  0  0  0  0  0  0  0  0  0  0  0
  -25.9017  -10.5710  154.8467 C   0  0  0  0  0  0  0  0  0  0  0  0
  -23.4059  -11.9707  155.0546 C   0  0  0  0  0  0  0  0  0  0  0  0
  -24.9694  -11.8624  154.9209 C   0  0  0  0  0  0  0  0  0  0  0  0
  -22.6115  -10.9270  154.2188 C   0  0  0  0  0  0  0  0  0  0  0  0
  -21.1477  -11.3334  154.1540 C   0  0  0  0  0  0  0  0  0  0  0  0
  -20.8200  -12.5672  153.3910 C   0  0  0  0  0  0  0  0  0  0  0  0
  -20.2302  -10.6567  154.8490 C   0  0  0  0  0  0  0  0  0  0  0  0
  -19.6178  -13.0681  153.1453 C   0  0  0  0  0  0  0  0  0  0  0  0
  -23.9244   -7.7514  152.0987 C   0  0  0  0  0  0  0  0  0  0  0  0
  -26.7365   -7.1403  151.9608 C   0  0  0  0  0  0  0  0  0  0  0  0
  -26.7059  -10.2335  156.1033 C   0  0  0  0  0  0  0  0  0  0  0  0
  -29.1654  -10.5749  152.6504 C   0  0  0  0  0  0  0  0  0  0  0  0
  -28.0211  -10.6766  155.4287 C   0  0  0  0  0  0  0  0  0  0  0  0
  -29.8726   -9.2340  152.6327 C   0  0  0  0  0  0  0  0  0  0  0  0
  -25.8213   -6.7762  152.9418 O   0  0  0  0  0  0  0  0  0  0  0  0
  2  1  1  0
  3  1  2  0
  4  3  1  0
  5  2  1  0
  6  5  1  0
  7  3  1  0
  8  4  1  0
  8  6  1  0
  9  7  1  0
 10  8  1  0
 11  9  1  0
 13 11  1  0
 13 12  1  0
 14 12  1  0
 15 14  1  0
 16 15  1  0
 17 15  2  0
 18 16  2  0
 19  8  1  0
 19 10  1  0
 20 10  1  0
 21 11  1  0
 22  7  1  0
 23  9  1  0
 23 21  1  0
 24 22  1  0
 25 10  1  0
 25 20  1  0
M  END
$$$$

     RDKit          3D

 25 30  0  0  0  0  0  0  0  0999 V2000
  -23.8582  -23.2606  136.7926 O   0  0  0  0  0  0  0  0  0  0  0  0
  -22.6016  -22.8844  137.2904 C   0  0  0  0  0  0  0  0  0  0  0  0
  -22.5691  -22.1369  138.3033 O   0  0  0  0  0  0  0  0  0  0  0  0
  -21.3032  -23.4788  136.7464 C   0  0  0  0  0  0  0  0  0  0  0  0
  -20.2204  -22.4396  136.3144 C   0  0  0  0  0  0  0  0  0  0  0  0
  -19.6477  -21.5712  137.4319 C   0  0  0  0  0  0  0  0  0  0  0  0
  -21.5850  -24.4194  135.5406 C   0  0  0  0  0  0  0  0  0  0  0  0
  -20.5202  -20.9399  136.3495 C   0  0  0  0  0  0  0  0  0  0  0  0
  -20.6849  -20.0766  133.7956 Cl  0  0  0  0  0  0  0  0  0  0  0  0
  -20.4323  -25.3576  135.1385 C   0  0  0  0  0  0  0  0  0  0  0  0
  -24.0486  -24.2044  135.7404 C   0  0  0  0  0  0  0  0  0  0  0  0
  -19.7609  -20.1075  135.3153 C   0  0  0  0  0  0  0  0  0  0  0  0
  -20.2709  -26.5280  136.1220 C   0  0  0  0  0  0  0  0  0  0  0  0
  -21.2832  -27.7105  135.8972 C   0  0  0  0  0  0  0  0  0  0  0  0
  -22.1408  -27.5309  134.6131 C   0  0  0  0  0  0  0  0  0  0  0  0
  -23.1408  -26.3247  134.6502 C   0  0  0  0  0  0  0  0  0  0  0  0
  -22.9010  -25.2195  135.7289 C   0  0  0  0  0  0  0  0  0  0  0  0
  -18.8529  -27.0644  135.8852 C   0  0  0  0  0  0  0  0  0  0  0  0
  -18.5254  -27.8872  137.1124 C   0  0  0  0  0  0  0  0  0  0  0  0
  -19.5275  -29.0635  137.2283 C   0  0  0  0  0  0  0  0  0  0  0  0
  -19.1166  -25.5809  135.8704 C   0  0  0  0  0  0  0  0  0  0  0  0
  -20.6228  -29.1310  136.1034 C   0  0  0  0  0  0  0  0  0  0  0  0
  -21.6250  -30.2554  136.5199 C   0  0  0  0  0  0  0  0  0  0  0  0
  -22.5169  -30.8492  135.4207 C   0  0  0  0  0  0  0  0  0  0  0  0
  -21.8174  -30.9812  134.2139 O   0  0  0  0  0  0  0  0  0  0  0  0
  2  1  1  0
  3  2  2  0
  4  2  1  0
  5  4  1  0
  6  5  1  0
  7  4  1  0
  8  5  1  0
  8  6  1  0
 10  7  1  0
 11  1  1  0
 12  8  1  0
 12  9  1  0
 13 10  1  0
 14 13  1  0
 15 14  1  0
 16 15  1  0
 17  7  1  0
 17 11  1  0
 17 16  1  0
 18 13  1  0
 19 18  1  0
 20 19  1  0
 21 10  1  0
 21 13  1  0
 21 18  1  0
 22 14  1  0
 22 20  1  0
 23 22  1  0
 24 23  1  0
 25 24  1  0
M  END
$$$$

     RDKit          3D

 23 27  0  0  0  0  0  0  0  0999 V2000
  -26.9370  -16.5250  143.5808 O   0  0  0  0  0  0  0  0  0  0  0  0
  -26.4130  -16.7360  144.8619 C   0  0  0  0  0  0  0  0  0  0  0  0
  -27.3384  -16.7184  145.9256 O   0  0  0  0  0  0  0  0  0  0  0  0
  -25.0212  -16.1477  145.1004 C   0  0  0  0  0  0  0  0  0  0  0  0
  -24.8085  -15.5754  146.4810 C   0  0  0  0  0  0  0  0  0  0  0  0
  -23.8124  -15.9245  147.3254 C   0  0  0  0  0  0  0  0  0  0  0  0
  -22.9070  -17.1102  147.0532 C   0  0  0  0  0  0  0  0  0  0  0  0
  -25.2171  -17.6664  144.9484 C   0  0  0  0  0  0  0  0  0  0  0  0
  -21.4172  -16.9006  147.3405 C   0  0  0  0  0  0  0  0  0  0  0  0
  -21.8905  -17.0926  145.9036 C   0  0  0  0  0  0  0  0  0  0  0  0
  -23.7823  -15.3010  148.7099 C   0  0  0  0  0  0  0  0  0  0  0  0
  -21.6781  -15.8902  144.9376 C   0  0  0  0  0  0  0  0  0  0  0  0
  -24.6937  -16.0453  149.7063 C   0  0  0  0  0  0  0  0  0  0  0  0
  -21.8186  -14.3942  145.4607 C   0  0  0  0  0  0  0  0  0  0  0  0
  -20.4693  -13.7615  145.1221 C   0  0  0  0  0  0  0  0  0  0  0  0
  -20.0316  -14.5240  143.9006 C   0  0  0  0  0  0  0  0  0  0  0  0
  -26.1865  -15.6783  149.6114 C   0  0  0  0  0  0  0  0  0  0  0  0
  -26.4787  -14.2413  150.0689 C   0  0  0  0  0  0  0  0  0  0  0  0
  -18.8168  -14.1270  143.0370 C   0  0  0  0  0  0  0  0  0  0  0  0
  -19.5396  -14.9318  145.2700 C   0  0  0  0  0  0  0  0  0  0  0  0
  -20.2452  -15.9272  144.3923 C   0  0  0  0  0  0  0  0  0  0  0  0
  -28.2829  -12.5818  150.6660 C   0  0  0  0  0  0  0  0  0  0  0  0
  -27.9889  -13.9951  150.1739 C   0  0  0  0  0  0  0  0  0  0  0  0
  2  1  1  0
  3  2  1  0
  4  2  1  0
  5  4  1  0
  6  5  2  3
  7  6  1  0
  8  2  1  0
  8  4  1  0
  9  7  1  0
 10  7  1  0
 10  9  1  0
 11  6  1  0
 12 10  1  0
 13 11  1  0
 14 12  1  0
 15 14  1  0
 16 15  1  0
 17 13  1  0
 18 17  1  0
 19 16  1  0
 20 15  1  0
 20 16  1  0
 21 12  1  0
 21 16  1  0
 21 20  1  0
 23 18  1  0
 23 22  1  0
M  END
$$$$

     RDKit          3D

 11 13  0  0  0  0  0  0  0  0999 V2000
  -23.7383  -15.0086  140.7087 O   0  0  0  0  0  0  0  0  0  0  0  0
  -24.9962  -15.5030  141.1727 C   0  0  0  0  0  0  0  0  0  0  0  0
  -24.8369  -14.3707  140.1812 C   0  0  0  0  0  0  0  0  0  0  0  0
  -24.6185  -15.9215  142.5476 C   0  0  0  0  0  0  0  0  0  0  0  0
  -25.5311  -14.8116  142.3984 N   0  0  0  0  0  0  0  0  0  0  0  0
  -25.3213  -17.1954  143.0144 C   0  0  0  0  0  0  0  0  0  0  0  0
  -24.0507  -17.7689  145.2523 C   0  0  0  0  0  0  0  0  0  0  0  0
  -22.7806  -18.1298  144.4676 C   0  0  0  0  0  0  0  0  0  0  0  0
  -25.2759  -17.3030  144.5421 C   0  0  0  0  0  0  0  0  0  0  0  0
  -25.1178  -18.6416  144.9595 O   0  0  0  0  0  0  0  0  0  0  0  0
  -21.8556  -18.9933  145.3191 C   0  0  0  0  0  0  0  0  0  0  0  0
  2  1  1  0
  3  1  1  0
  3  2  1  0
  4  2  1  0
  5  2  1  0
  5  4  1  0
  6  4  1  0
  8  7  1  0
  9  6  1  0
  9  7  1  0
 10  7  1  0
 10  9  1  0
 11  8  1  0
M  END
$$$$

     RDKit          3D

 23 27  0  0  0  0  0  0  0  0999 V2000
  -29.6985   -8.4461  140.2654 C   0  0  0  0  0  0  0  0  0  0  0  0
  -30.0219   -7.4606  139.1509 C   0  0  0  0  0  0  0  0  0  0  0  0
  -28.5965   -6.9738  141.9834 C   0  0  0  0  0  0  0  0  0  0  0  0
  -29.2890   -7.6450  137.8220 C   0  0  0  0  0  0  0  0  0  0  0  0
  -31.4491   -7.0394  139.5244 C   0  0  0  0  0  0  0  0  0  0  0  0
  -28.6545   -6.2993  137.2306 C   0  0  0  0  0  0  0  0  0  0  0  0
  -27.7763   -6.3320  135.8772 C   0  0  0  0  0  0  0  0  0  0  0  0
  -31.1768   -6.9294  141.1431 C   0  0  0  0  0  0  0  0  0  0  0  0
  -29.5950   -8.8880  136.9872 C   0  0  0  0  0  0  0  0  0  0  0  0
  -27.2894   -5.0657  133.3821 C   0  0  0  0  0  0  0  0  0  0  0  0
  -29.9155   -7.7838  141.5507 C   0  0  0  0  0  0  0  0  0  0  0  0
  -30.2025  -10.0525  137.8164 C   0  0  0  0  0  0  0  0  0  0  0  0
  -28.2486   -5.2857  134.6356 C   0  0  0  0  0  0  0  0  0  0  0  0
  -29.5204   -5.1287  137.2023 N   0  0  0  0  0  0  0  0  0  0  0  0
  -30.8459   -9.6273  136.4749 C   0  0  0  0  0  0  0  0  0  0  0  0
  -32.3611   -9.3135  136.7466 C   0  0  0  0  0  0  0  0  0  0  0  0
  -26.1043   -4.0789  133.5630 C   0  0  0  0  0  0  0  0  0  0  0  0
  -33.1562   -8.2760  137.6767 C   0  0  0  0  0  0  0  0  0  0  0  0
  -33.8455   -7.1259  136.9367 C   0  0  0  0  0  0  0  0  0  0  0  0
  -32.7226   -7.9743  139.1574 C   0  0  0  0  0  0  0  0  0  0  0  0
  -31.6024   -8.5226  135.7290 C   0  0  0  0  0  0  0  0  0  0  0  0
  -34.6365   -8.3366  137.4739 C   0  0  0  0  0  0  0  0  0  0  0  0
  -24.9834   -4.8085  134.3524 C   0  0  0  0  0  0  0  0  0  0  0  0
  2  1  1  0
  4  2  1  0
  5  2  1  0
  6  4  1  0
  7  6  1  0
  8  5  1  0
  9  4  1  0
 11  1  1  0
 11  3  1  0
 11  8  1  0
 12  9  1  0
 13  7  1  0
 13 10  1  0
 14  6  1  0
 15  9  1  0
 15 12  1  0
 16 15  1  0
 17 10  1  0
 18 16  1  0
 19 18  1  0
 20  5  1  0
 20 18  1  0
 21 15  1  0
 21 16  1  0
 22 18  1  0
 22 19  1  0
 23 17  1  0
M  END
$$$$

     RDKit          3D

 25 30  0  0  0  0  0  0  0  0999 V2000
  -27.2904  -15.7046  143.9716 Cl  0  0  0  0  0  0  0  0  0  0  0  0
  -26.6347  -14.1649  143.3483 C   0  0  0  0  0  0  0  0  0  0  0  0
  -26.2862  -14.2869  141.8549 C   0  0  0  0  0  0  0  0  0  0  0  0
  -27.6534  -13.0453  143.6114 C   0  0  0  0  0  0  0  0  0  0  0  0
  -27.1097  -11.6791  143.5951 C   0  0  0  0  0  0  0  0  0  0  0  0
  -27.4516  -12.3127  144.9788 C   0  0  0  0  0  0  0  0  0  0  0  0
  -27.5219  -14.5515  140.9745 C   0  0  0  0  0  0  0  0  0  0  0  0
  -27.3086  -14.3320  139.4890 C   0  0  0  0  0  0  0  0  0  0  0  0
  -28.2858  -11.1309  145.5026 C   0  0  0  0  0  0  0  0  0  0  0  0
  -29.7459  -11.3818  145.7726 C   0  0  0  0  0  0  0  0  0  0  0  0
  -27.5843  -10.5295  146.7423 C   0  0  0  0  0  0  0  0  0  0  0  0
  -30.6469  -11.1474  144.5458 C   0  0  0  0  0  0  0  0  0  0  0  0
  -28.4894  -13.6236  138.8633 C   0  0  0  0  0  0  0  0  0  0  0  0
  -27.8983   -9.0297  146.9258 C   0  0  0  0  0  0  0  0  0  0  0  0
  -27.3145   -8.0938  145.8407 C   0  0  0  0  0  0  0  0  0  0  0  0
  -31.9435  -11.9937  144.6169 C   0  0  0  0  0  0  0  0  0  0  0  0
  -25.8201   -8.2844  145.6923 C   0  0  0  0  0  0  0  0  0  0  0  0
  -28.7886  -12.5584  145.7504 C   0  0  0  0  0  0  0  0  0  0  0  0
  -33.0678  -11.1676  144.4622 O   0  0  0  0  0  0  0  0  0  0  0  0
  -25.2101   -8.2838  144.5003 C   0  0  0  0  0  0  0  0  0  0  0  0
  -31.9732  -13.0641  143.5236 C   0  0  0  0  0  0  0  0  0  0  0  0
  -25.9534   -8.0516  143.2128 C   0  0  0  0  0  0  0  0  0  0  0  0
  -27.4456   -8.2002  143.3459 C   0  0  0  0  0  0  0  0  0  0  0  0
  -28.1505  -13.3408  140.3085 C   0  0  0  0  0  0  0  0  0  0  0  0
  -28.0636   -8.2273  144.5335 C   0  0  0  0  0  0  0  0  0  0  0  0
  2  1  1  0
  3  2  1  0
  4  2  1  0
  5  4  1  0
  6  4  1  0
  6  5  1  0
  7  3  1  0
  8  7  1  0
  9  6  1  0
 10  9  1  0
 11  9  1  0
 12 10  1  0
 13  8  1  0
 14 11  1  0
 15 14  1  0
 16 12  1  0
 17 15  1  0
 18  6  1  0
 18  9  1  0
 18 10  1  0
 19 16  1  0
 20 17  2  0
 21 16  1  0
 22 20  1  0
 23 22  1  0
 24  7  1  0
 24  8  1  0
 24 13  1  0
 25 15  1  0
 25 23  2  0
M  END
$$$$

     RDKit          3D

 25 30  0  0  0  0  0  0  0  0999 V2000
  -30.1422  -11.1112  137.5266 As  0  0  0  0  0  3  0  0  0  0  0  0
  -33.3839  -10.3467  136.7834 C   0  0  0  0  0  0  0  0  0  0  0  0
  -31.7562  -10.2840  136.1854 C   0  0  0  0  0  0  0  0  0  0  0  0
  -28.3801  -12.4672  137.2466 C   0  0  0  0  0  0  0  0  0  0  0  0
  -26.7866  -12.2928  137.8068 C   0  0  0  0  0  0  0  0  0  0  0  0
  -25.4833  -12.6841  138.4569 C   0  0  0  0  0  0  0  0  0  0  0  0
  -34.3862   -9.1795  136.1177 C   0  0  0  0  0  0  0  0  0  0  0  0
  -24.3657  -13.3330  137.5635 C   0  0  0  0  0  0  0  0  0  0  0  0
  -31.7088  -10.9475  134.8402 C   0  0  0  0  0  0  0  0  0  0  0  0
  -26.7978  -13.1450  139.1536 C   0  0  0  0  0  0  0  0  0  0  0  0
  -33.9490   -7.7359  136.4805 C   0  0  0  0  0  0  0  0  0  0  0  0
  -35.8997   -8.8808  136.7096 C   0  0  0  0  0  0  0  0  0  0  0  0
  -35.4184   -7.4696  137.1336 C   0  0  0  0  0  0  0  0  0  0  0  0
  -23.6844  -14.7214  138.1411 C   0  0  0  0  0  0  0  0  0  0  0  0
  -25.7083  -13.1143  136.9616 C   0  0  0  0  0  0  0  0  0  0  0  0
  -22.4320  -15.3375  136.7604 Se  0  0  0  0  0  2  0  0  0  0  0  0
  -22.7346  -14.4806  139.4003 C   0  0  0  0  0  0  0  0  0  0  0  0
  -28.7828  -11.6540  136.0857 C   0  0  0  0  0  0  0  0  0  0  0  0
  -37.0800  -10.9654  137.2553 C   0  0  0  0  0  0  0  0  0  0  0  0
  -36.5036   -9.7262  137.7203 O   0  0  0  0  0  0  0  0  0  0  0  0
  -37.6176  -10.7110  134.5652 C   0  0  0  0  0  0  0  0  0  0  0  0
  -22.1200  -13.0466  139.4175 C   0  0  0  0  0  0  0  0  0  0  0  0
  -20.9028  -14.0293  137.0594 C   0  0  0  0  0  0  0  0  0  0  0  0
  -38.1633  -10.9203  136.0001 C   0  0  0  0  0  0  0  0  0  0  0  0
  -21.2675  -12.8699  138.1088 C   0  0  0  0  0  0  0  0  0  0  0  0
  3  1  1  0
  3  2  1  0
  4  1  1  0
  5  4  1  0
  6  5  1  0
  7  2  1  0
  8  6  1  0
  9  3  1  0
 10  5  1  0
 10  6  1  0
 11  7  1  0
 12  7  1  0
 13 11  1  0
 13 12  1  0
 14  8  1  0
 15  5  1  0
 15  6  1  0
 15  8  1  0
 16 14  1  0
 17 14  1  0
 18  1  1  0
 18  4  1  0
 20 12  1  0
 20 19  1  0
 22 17  1  0
 23 16  1  0
 24 19  1  0
 24 21  1  0
 25 22  1  0
 25 23  1  0
M  END
$$$$

     RDKit          3D

 25 29  0  0  0  0  0  0  0  0999 V2000
  -23.7878  -10.5945  152.1909 C   0  0  0  0  0  0  0  0  0  0  0  0
  -23.0959  -11.4237  151.0960 C   0  0  0  0  0  0  0  0  0  0  0  0
  -23.8166   -9.1029  151.7685 C   0  0  0  0  0  0  0  0  0  0  0  0
  -22.6602   -8.3163  152.2624 C   0  0  0  0  0  0  0  0  0  0  0  0
  -23.2140  -12.9270  151.3541 C   0  0  0  0  0  0  0  0  0  0  0  0
  -22.3632  -13.6956  150.3319 C   0  0  0  0  0  0  0  0  0  0  0  0
  -24.0832   -7.8780  152.7129 C   0  0  0  0  0  0  0  0  0  0  0  0
  -21.0581  -14.2540  150.8181 C   0  0  0  0  0  0  0  0  0  0  0  0
  -20.8187  -15.7192  150.3942 C   0  0  0  0  0  0  0  0  0  0  0  0
  -19.6557  -16.1391  151.3464 C   0  0  0  0  0  0  0  0  0  0  0  0
  -18.5460  -16.9644  150.7401 C   0  0  0  0  0  0  0  0  0  0  0  0
  -17.3125  -16.5288  150.3993 C   0  0  0  0  0  0  0  0  0  0  0  0
  -17.4131  -13.9678  151.0645 C   0  0  0  0  0  0  0  0  0  0  0  0
  -17.1587  -13.9158  152.6071 C   0  0  0  0  0  0  0  0  0  0  0  0
  -20.9281  -16.8951  151.3996 C   0  0  0  0  0  0  0  0  0  0  0  0
  -16.2703  -12.7077  152.9927 C   0  0  0  0  0  0  0  0  0  0  0  0
  -16.2907  -10.1607  153.3608 C   0  0  0  0  0  0  0  0  0  0  0  0
  -16.7738  -15.1129  150.2645 C   0  0  0  0  0  0  0  0  0  0  0  0
  -18.1139  -11.3035  152.3543 O   0  0  0  0  0  0  0  0  0  0  0  0
  -16.5581  -15.1946  153.2125 C   0  0  0  0  0  0  0  0  0  0  0  0
  -16.9727  -11.3821  152.8873 C   0  0  0  0  0  0  0  0  0  0  0  0
  -16.9267   -9.0024  153.5019 C   0  0  0  0  0  0  0  0  0  0  0  0
  -24.7601   -8.5024  153.9704 C   0  0  0  0  0  0  0  0  0  0  0  0
  -23.7831   -7.4019  154.1641 C   0  0  0  0  0  0  0  0  0  0  0  0
  -22.2464  -15.1794  150.6136 C   0  0  0  0  0  0  0  0  0  0  0  0
  2  1  1  0
  3  1  1  0
  4  3  1  0
  5  2  1  0
  6  5  1  0
  7  3  1  0
  7  4  1  0
  8  6  1  0
  9  8  1  0
 10  9  1  0
 11 10  1  0
 12 11  2  3
 14 13  1  0
 15  9  1  0
 15 10  1  0
 16 14  1  0
 18 12  1  0
 18 13  1  0
 20 14  1  0
 21 16  1  0
 21 17  1  0
 21 19  2  0
 22 17  2  0
 23  7  1  0
 24  7  1  0
 24 23  1  0
 25  6  1  0
 25  8  1  0
 25  9  1  0
M  END
$$$$

     RDKit          3D

 25 33  0  0  0  0  0  0  0  0999 V2000
  -26.4003   -4.0747  139.7922 O   0  0  0  0  0  0  0  0  0  0  0  0
  -28.4892   -4.3329  138.5619 C   0  0  0  0  0  0  0  0  0  0  0  0
  -29.8249   -4.7393  139.2115 C   0  0  0  0  0  0  0  0  0  0  0  0
  -29.8046   -5.7210  140.3897 C   0  0  0  0  0  0  0  0  0  0  0  0
  -28.5040   -6.0343  141.1385 C   0  0  0  0  0  0  0  0  0  0  0  0
  -28.1930   -4.9701  143.4327 C   0  0  0  0  0  0  0  0  0  0  0  0
  -26.8360   -5.4712  143.9056 C   0  0  0  0  0  0  0  0  0  0  0  0
  -26.2857   -4.8211  145.1832 C   0  0  0  0  0  0  0  0  0  0  0  0
  -28.1868   -2.7147  140.5077 N   0  0  0  0  0  0  0  0  0  0  0  0
  -24.7797   -4.5602  145.0727 C   0  0  0  0  0  0  0  0  0  0  0  0
  -28.2075   -4.7736  141.9257 C   0  0  0  0  0  0  0  0  0  0  0  0
  -30.1315   -4.2324  140.6051 C   0  0  0  0  0  0  0  0  0  0  0  0
  -27.5489   -3.3896  139.3604 C   0  0  0  0  0  0  0  0  0  0  0  0
  -26.9041   -4.5829  142.6766 C   0  0  0  0  0  0  0  0  0  0  0  0
  -24.2330   -4.0798  146.4324 C   0  0  0  0  0  0  0  0  0  0  0  0
  -23.0824   -4.8289  147.1121 C   0  0  0  0  0  0  0  0  0  0  0  0
  -22.5075   -6.0752  146.4270 C   0  0  0  0  0  0  0  0  0  0  0  0
  -22.0213   -7.1585  147.3818 C   0  0  0  0  0  0  0  0  0  0  0  0
  -20.8776   -8.0200  146.8289 C   0  0  0  0  0  0  0  0  0  0  0  0
  -23.3354   -7.3408  146.6315 C   0  0  0  0  0  0  0  0  0  0  0  0
  -19.5226   -7.3338  146.8279 C   0  0  0  0  0  0  0  0  0  0  0  0
  -18.4374   -8.2816  147.2759 C   0  0  0  0  0  0  0  0  0  0  0  0
  -19.8316   -8.4443  147.8387 C   0  0  0  0  0  0  0  0  0  0  0  0
  -22.8139   -3.5365  146.3551 C   0  0  0  0  0  0  0  0  0  0  0  0
  -28.9927   -3.5871  141.3794 C   0  0  0  0  0  0  0  0  0  0  0  0
  3  2  1  0
  4  3  1  0
  5  4  1  0
  7  6  1  0
  8  7  1  0
 10  8  1  0
 11  5  1  0
 11  6  1  0
 12  3  1  0
 12  4  1  0
 13  1  1  0
 13  2  1  0
 13  9  1  0
 14  6  1  0
 14  7  1  0
 14 11  1  0
 15 10  1  0
 16 15  1  0
 17 16  1  0
 18 17  1  0
 19 18  1  0
 20 17  1  0
 20 18  1  0
 21 19  1  0
 22 21  1  0
 23 19  1  0
 23 21  1  0
 23 22  1  0
 24 15  1  0
 24 16  1  0
 25  9  1  0
 25 11  1  0
 25 12  1  0
M  END
$$$$

     RDKit          3D

 25 25  0  0  0  0  0  0  0  0999 V2000
  -14.1978   -3.7671  128.1628 O   0  0  0  0  0  0  0  0  0  0  0  0
  -15.5839   -3.8611  128.2678 C   0  0  0  0  0  0  0  0  0  0  0  0
  -16.1031   -4.7619  127.3086 O   0  0  0  0  0  0  0  0  0  0  0  0
  -15.9885   -4.3000  129.6890 C   0  0  0  0  0  0  0  0  0  0  0  0
  -15.2100   -6.0330  130.1338 Se  0  0  0  0  0  2  0  0  0  0  0  0
  -15.5756   -3.2375  130.7390 C   0  0  0  0  0  0  0  0  0  0  0  0
  -16.1137   -3.5747  132.1320 C   0  0  0  0  0  0  0  0  0  0  0  0
  -16.3553   -2.6943  134.5730 C   0  0  0  0  0  0  0  0  0  0  0  0
  -17.8171   -3.1733  134.6773 C   0  0  0  0  0  0  0  0  0  0  0  0
  -17.9463   -4.7072  134.6100 C   0  0  0  0  0  0  0  0  0  0  0  0
  -19.3914   -5.1903  134.4475 C   0  0  0  0  0  0  0  0  0  0  0  0
  -20.0121   -5.0208  133.0251 C   0  0  0  0  0  0  0  0  0  0  0  0
  -20.6490   -3.6343  132.6837 C   0  0  0  0  0  0  0  0  0  0  0  0
  -21.1695   -2.8088  133.8943 C   0  0  0  0  0  0  0  0  0  0  0  0
  -15.8521   -2.4416  133.1240 C   0  0  0  0  0  0  0  0  0  0  0  0
  -22.2448   -3.4732  134.7456 C   0  0  0  0  0  0  0  0  0  0  0  0
  -22.1028   -3.1440  136.2496 C   0  0  0  0  0  0  0  0  0  0  0  0
  -22.6269   -2.3291  133.8246 C   0  0  0  0  0  0  0  0  0  0  0  0
  -22.2684   -4.4013  137.1198 C   0  0  0  0  0  0  0  0  0  0  0  0
  -21.5851   -4.2999  138.4917 C   0  0  0  0  0  0  0  0  0  0  0  0
  -19.3071   -5.1158  137.8087 C   0  0  0  0  0  0  0  0  0  0  0  0
  -19.3393   -3.0074  139.1934 B   0  0  0  0  0  0  0  0  0  0  0  0
  -17.7869   -2.9088  139.3522 C   0  0  0  0  0  0  0  0  0  0  0  0
  -20.0618   -4.1783  138.4110 C   0  0  0  0  0  0  0  0  0  0  0  0
  -16.9195   -3.3804  138.4459 C   0  0  0  0  0  0  0  0  0  0  0  0
  2  1  1  0
  3  2  1  0
  4  2  1  0
  5  4  1  0
  6  4  1  0
  7  6  1  0
  9  8  1  0
 10  9  1  0
 11 10  1  0
 12 11  1  0
 13 12  1  0
 14 13  1  0
 15  7  1  0
 15  8  1  0
 16 14  1  0
 17 16  1  0
 18 14  1  0
 18 16  1  0
 19 17  1  0
 20 19  1  0
 23 22  1  0
 24 20  1  0
 24 21  2  0
 24 22  1  0
 25 23  2  0
M  END
$$$$

     RDKit          3D

 25 27  0  0  0  0  0  0  0  0999 V2000
  -16.7732   -5.5083  138.3146 C   0  0  0  0  0  0  0  0  0  0  0  0
  -16.7274   -4.0220  137.9996 C   0  0  0  0  0  0  0  0  0  0  0  0
  -15.4617   -5.7960  139.0389 C   0  0  0  0  0  0  0  0  0  0  0  0
  -16.7683   -6.2444  139.6513 C   0  0  0  0  0  0  0  0  0  0  0  0
  -15.7162   -3.7268  136.8506 C   0  0  0  0  0  0  0  0  0  0  0  0
  -14.2163   -4.1479  137.0918 C   0  0  0  0  0  0  0  0  0  0  0  0
  -13.4507   -6.2717  135.7937 C   0  0  0  0  0  0  0  0  0  0  0  0
  -12.0563   -6.3977  135.6197 O   0  0  0  0  0  0  0  0  0  0  0  0
  -14.5931   -6.6146  138.0895 C   0  0  0  0  0  0  0  0  0  0  0  0
  -13.7604   -5.6578  137.1821 C   0  0  0  0  0  0  0  0  0  0  0  0
  -16.2660   -4.0082  135.4465 C   0  0  0  0  0  0  0  0  0  0  0  0
  -16.4631   -2.9650  134.6238 C   0  0  0  0  0  0  0  0  0  0  0  0
  -16.6672   -5.4197  135.0083 C   0  0  0  0  0  0  0  0  0  0  0  0
  -18.0365   -5.6360  135.2478 O   0  0  0  0  0  0  0  0  0  0  0  0
  -12.1594   -5.7540  132.3972 C   0  0  0  0  0  0  0  0  0  0  0  0
  -11.5359   -4.8741  131.2940 C   0  0  0  0  0  0  0  0  0  0  0  0
  -16.2706   -5.8001  133.5576 C   0  0  0  0  0  0  0  0  0  0  0  0
  -11.7425   -7.1726  134.4738 C   0  0  0  0  0  0  0  0  0  0  0  0
  -12.3557   -3.7956  130.5437 C   0  0  0  0  0  0  0  0  0  0  0  0
  -11.1115   -6.2866  133.3917 C   0  0  0  0  0  0  0  0  0  0  0  0
  -13.6313   -3.2471  131.1965 C   0  0  0  0  0  0  0  0  0  0  0  0
  -12.4595   -1.4316  132.5665 C   0  0  0  0  0  0  0  0  0  0  0  0
  -12.0539   -6.2837  130.9839 C   0  0  0  0  0  0  0  0  0  0  0  0
  -17.3932   -5.6784  132.6314 N   0  0  0  0  0  0  0  0  0  0  0  0
  -13.4358   -2.6063  132.5801 C   0  0  0  0  0  0  0  0  0  0  0  0
  2  1  1  0
  3  1  1  0
  4  1  1  0
  4  3  1  0
  5  2  1  0
  6  5  1  0
  8  7  1  0
  9  3  1  0
 10  6  1  0
 10  7  1  0
 10  9  1  0
 11  5  1  0
 12 11  2  0
 13 11  1  0
 14 13  1  0
 16 15  1  0
 17 13  1  0
 18  8  1  0
 19 16  1  0
 20 15  1  0
 20 18  1  0
 21 19  1  0
 23 15  1  0
 23 16  1  0
 24 17  1  0
 25 21  1  0
 25 22  1  0
M  END
$$$$

     RDKit          3D

 25 30  0  0  0  0  0  0  0  0999 V2000
  -21.9872  -18.9788  144.5129 O   0  0  0  0  0  0  0  0  0  0  0  0
  -21.1868  -18.2247  143.6545 C   0  0  0  0  0  0  0  0  0  0  0  0
  -19.8938  -18.6669  143.3379 C   0  0  0  0  0  0  0  0  0  0  0  0
  -21.6751  -17.0236  143.0966 C   0  0  0  0  0  0  0  0  0  0  0  0
  -23.0812  -16.5333  143.3752 C   0  0  0  0  0  0  0  0  0  0  0  0
  -19.0717  -17.9067  142.5041 C   0  0  0  0  0  0  0  0  0  0  0  0
  -19.5360  -16.7033  141.9757 C   0  0  0  0  0  0  0  0  0  0  0  0
  -20.8312  -16.2656  142.2659 C   0  0  0  0  0  0  0  0  0  0  0  0
  -24.1953  -17.5004  142.9180 C   0  0  0  0  0  0  0  0  0  0  0  0
  -23.9071  -18.1873  141.5614 C   0  0  0  0  0  0  0  0  0  0  0  0
  -25.1861  -18.6447  140.7818 C   0  0  0  0  0  0  0  0  0  0  0  0
  -25.9050  -17.4013  140.1195 C   0  0  0  0  0  0  0  0  0  0  0  0
  -27.0918  -17.7728  139.3385 N   0  0  0  0  0  0  0  0  0  0  0  0
  -24.9711  -16.5682  139.2085 C   0  0  0  0  0  0  0  0  0  0  0  0
  -24.7393  -19.6935  139.7236 C   0  0  0  0  0  0  0  0  0  0  0  0
  -26.1135  -19.2897  141.7257 N   0  0  0  0  0  0  0  0  0  0  0  0
  -24.4509  -15.2540  139.7797 C   0  0  0  0  0  0  0  0  0  0  0  0
  -25.5750  -15.2387  138.7457 C   0  0  0  0  0  0  0  0  0  0  0  0
  -25.1658  -14.6433  137.3790 C   0  0  0  0  0  0  0  0  0  0  0  0
  -25.2117  -15.6823  136.2136 C   0  0  0  0  0  0  0  0  0  0  0  0
  -23.8595  -16.3980  136.1230 C   0  0  0  0  0  0  0  0  0  0  0  0
  -22.5059  -15.7895  136.4524 C   0  0  0  0  0  0  0  0  0  0  0  0
  -23.0271  -15.5806  135.0586 C   0  0  0  0  0  0  0  0  0  0  0  0
  -25.4867  -14.8755  135.0051 N   0  0  0  0  0  0  0  0  0  0  0  0
  -24.4946  -15.9448  134.8788 C   0  0  0  0  0  0  0  0  0  0  0  0
  2  1  1  0
  3  2  4  0
  4  2  4  0
  5  4  1  0
  6  3  4  0
  7  6  4  0
  8  4  4  0
  8  7  4  0
  9  5  1  0
 10  9  1  0
 11 10  1  0
 12 11  1  0
 13 12  1  0
 14 12  1  0
 15 11  1  0
 16 11  1  0
 17 14  1  0
 18 14  1  0
 18 17  1  0
 19 18  1  0
 20 19  1  0
 21 20  1  0
 22 21  1  0
 23 21  1  0
 23 22  1  0
 24 20  1  0
 25 20  1  0
 25 21  1  0
 25 23  1  0
 25 24  1  0
M  END
$$$$

     RDKit          3D

 25 30  0  0  0  0  0  0  0  0999 V2000
  -19.4617  -19.6627  134.7881 O   0  0  0  0  0  0  0  0  0  0  0  0
  -19.6253  -20.7951  133.9360 C   0  0  0  0  0  0  0  0  0  0  0  0
  -21.0711  -20.7980  133.4081 C   0  0  0  0  0  0  0  0  0  0  0  0
  -21.4025  -20.4274  132.0185 C   0  0  0  0  0  0  0  0  0  0  0  0
  -21.4705  -21.9066  134.3189 C   0  0  0  0  0  0  0  0  0  0  0  0
  -19.9238  -22.0991  134.8017 C   0  0  0  0  0  0  0  0  0  0  0  0
  -22.2592  -21.4335  131.2427 C   0  0  0  0  0  0  0  0  0  0  0  0
  -23.1155  -20.8646  130.0904 C   0  0  0  0  0  0  0  0  0  0  0  0
  -22.0582  -19.6424  133.1935 C   0  0  0  0  0  0  0  0  0  0  0  0
  -23.5676  -19.9545  133.4737 C   0  0  0  0  0  0  0  0  0  0  0  0
  -24.4673  -19.2720  132.4943 C   0  0  0  0  0  0  0  0  0  0  0  0
  -21.4099  -22.5785  130.7529 C   0  0  0  0  0  0  0  0  0  0  0  0
  -19.7292  -23.5413  134.3634 C   0  0  0  0  0  0  0  0  0  0  0  0
  -19.0397  -23.9470  133.2672 C   0  0  0  0  0  0  0  0  0  0  0  0
  -19.7162  -24.9844  136.4439 C   0  0  0  0  0  0  0  0  0  0  0  0
  -21.7911  -22.9245  129.3399 C   0  0  0  0  0  0  0  0  0  0  0  0
  -18.4534  -25.8751  136.3806 C   0  0  0  0  0  0  0  0  0  0  0  0
  -25.6290  -19.8378  132.1348 C   0  0  0  0  0  0  0  0  0  0  0  0
  -20.6883  -23.3417  128.5343 O   0  0  0  0  0  0  0  0  0  0  0  0
  -21.7557  -21.4481  129.7888 C   0  0  0  0  0  0  0  0  0  0  0  0
  -20.5231  -24.5406  135.2029 C   0  0  0  0  0  0  0  0  0  0  0  0
  -16.5420  -24.9312  137.6804 C   0  0  0  0  0  0  0  0  0  0  0  0
  -16.8234  -23.5375  137.7093 O   0  0  0  0  0  0  0  0  0  0  0  0
  -17.7469  -25.8490  137.7673 C   0  0  0  0  0  0  0  0  0  0  0  0
  -16.2919  -24.1083  138.9175 C   0  0  0  0  0  0  0  0  0  0  0  0
  2  1  1  0
  3  2  1  0
  4  3  1  0
  5  3  1  0
  6  2  1  0
  6  5  1  0
  7  4  1  0
  8  7  1  0
  9  3  1  0
  9  4  1  0
 10  9  1  0
 11 10  1  0
 12  7  1  0
 13  6  1  0
 14 13  2  0
 16 12  1  0
 17 15  1  0
 18 11  2  0
 19 16  1  0
 20  7  1  0
 20  8  1  0
 20 12  1  0
 20 16  1  0
 21 13  1  0
 21 15  1  0
 23 22  1  0
 24 17  1  0
 24 22  1  0
 25 22  1  0
 25 23  1  0
M  END
$$$$

     RDKit          3D

 25 30  0  0  0  0  0  0  0  0999 V2000
  -27.8128   -0.4324  141.5715 Sb  0  0  0  0  0  3  0  0  0  0  0  0
  -29.2737   -1.7875  143.5996 C   0  0  0  0  0  0  0  0  0  0  0  0
  -29.1553    2.2099  141.6999 N   0  0  0  0  0  0  0  0  0  0  0  0
  -29.9643   -1.8472  144.9092 N   0  0  0  0  0  0  0  0  0  0  0  0
  -28.9509    1.7563  142.8950 C   0  0  0  0  0  0  0  0  0  0  0  0
  -29.0360    0.2980  143.2284 C   0  0  0  0  0  0  0  0  0  0  0  0
  -28.0947   -0.7981  143.6292 C   0  0  0  0  0  0  0  0  0  0  0  0
  -29.2433   -3.0000  145.5545 C   0  0  0  0  0  0  0  0  0  0  0  0
  -29.8539   -0.7177  142.5565 C   0  0  0  0  0  0  0  0  0  0  0  0
  -29.6669   -4.3392  144.9794 C   0  0  0  0  0  0  0  0  0  0  0  0
  -31.3427   -0.3557  142.1974 C   0  0  0  0  0  0  0  0  0  0  0  0
  -27.6672   -2.9615  145.7979 C   0  0  0  0  0  0  0  0  0  0  0  0
  -31.7206   -0.0169  140.9439 C   0  0  0  0  0  0  0  0  0  0  0  0
  -27.3413   -3.1082  147.2877 C   0  0  0  0  0  0  0  0  0  0  0  0
  -26.2117   -2.2691  147.9206 C   0  0  0  0  0  0  0  0  0  0  0  0
  -30.7357    0.1487  139.8495 C   0  0  0  0  0  0  0  0  0  0  0  0
  -30.0749   -3.9242  146.3936 C   0  0  0  0  0  0  0  0  0  0  0  0
  -25.2288   -1.6340  146.9838 C   0  0  0  0  0  0  0  0  0  0  0  0
  -28.6281    3.4903  141.3145 C   0  0  0  0  0  0  0  0  0  0  0  0
  -25.9212   -0.2675  147.2627 C   0  0  0  0  0  0  0  0  0  0  0  0
  -30.1732   -1.1376  139.2562 C   0  0  0  0  0  0  0  0  0  0  0  0
  -26.5397   -0.8650  148.4726 C   0  0  0  0  0  0  0  0  0  0  0  0
  -29.0934   -0.6540  138.3432 C   0  0  0  0  0  0  0  0  0  0  0  0
  -29.1908    0.9078  138.2394 C   0  0  0  0  0  0  0  0  0  0  0  0
  -30.6609    1.2174  138.7043 C   0  0  0  0  0  0  0  0  0  0  0  0
  4  2  1  0
  5  3  2  3
  6  1  1  0
  6  5  1  0
  7  1  1  0
  7  2  1  0
  7  6  1  0
  8  4  1  0
  9  1  1  0
  9  2  1  0
  9  6  1  0
 10  8  1  0
 11  9  1  0
 12  8  1  0
 13 11  2  3
 14 12  1  0
 15 14  1  0
 16 13  1  0
 17  8  1  0
 17 10  1  0
 18 15  1  0
 19  3  1  0
 20 18  1  0
 21 16  1  0
 22 15  1  0
 22 20  1  0
 23 21  1  0
 24 23  1  0
 25 16  1  0
 25 24  1  0
M  END
$$$$

     RDKit          3D

 11 14  0  0  0  0  0  0  0  0999 V2000
  -27.3634   -4.4231  140.2630 C   0  0  0  0  0  0  0  0  0  0  0  0
  -28.7227   -4.0614  140.7236 N   0  0  0  0  0  0  0  0  0  0  0  0
  -29.2313   -4.9342  141.7880 C   0  0  0  0  0  0  0  0  0  0  0  0
  -27.0282   -3.5710  138.9863 C   0  0  0  0  0  0  0  0  0  0  0  0
  -28.1648   -3.4032  137.9889 C   0  0  0  0  0  0  0  0  0  0  0  0
  -27.1454   -5.9741  140.2073 C   0  0  0  0  0  0  0  0  0  0  0  0
  -25.7086   -3.8732  138.3056 C   0  0  0  0  0  0  0  0  0  0  0  0
  -29.2425   -6.4262  141.4602 C   0  0  0  0  0  0  0  0  0  0  0  0
  -28.4750   -6.7278  140.1686 C   0  0  0  0  0  0  0  0  0  0  0  0
  -30.5275   -5.6124  141.3734 C   0  0  0  0  0  0  0  0  0  0  0  0
  -26.9971   -4.2811  137.6105 C   0  0  0  0  0  0  0  0  0  0  0  0
  2  1  1  0
  3  2  1  0
  4  1  1  0
  5  4  1  0
  6  1  1  0
  7  4  1  0
  8  3  1  0
  9  6  1  0
  9  8  1  0
 10  3  1  0
 10  8  1  0
 11  4  1  0
 11  5  1  0
 11  7  1  0
M  END
$$$$

     RDKit          3D

 24 29  0  0  0  0  0  0  0  0999 V2000
  -25.9606  -12.3413  146.7209 O   0  0  0  0  0  0  0  0  0  0  0  0
  -21.0911  -14.4966  147.0090 O   0  0  0  0  0  0  0  0  0  0  0  0
  -21.8978  -14.1123  149.1387 O   0  0  0  0  0  0  0  0  0  0  0  0
  -21.3877  -15.0967  148.2589 C   0  0  0  0  0  0  0  0  0  0  0  0
  -25.8865  -11.2693  147.5558 N   0  0  0  0  0  0  0  0  0  0  0  0
  -25.8740  -13.4852  147.5399 C   0  0  0  0  0  0  0  0  0  0  0  0
  -19.8214  -13.8680  147.0241 C   0  0  0  0  0  0  0  0  0  0  0  0
  -22.9227  -14.6578  149.9366 C   0  0  0  0  0  0  0  0  0  0  0  0
  -20.2670  -11.3361  147.2458 C   0  0  0  0  0  0  0  0  0  0  0  0
  -18.8036  -11.5830  147.5395 C   0  0  0  0  0  0  0  0  0  0  0  0
  -24.4648  -13.8293  148.0197 C   0  0  0  0  0  0  0  0  0  0  0  0
  -19.8332  -12.6132  147.9346 C   0  0  0  0  0  0  0  0  0  0  0  0
  -24.3498  -14.4750  149.4178 C   0  0  0  0  0  0  0  0  0  0  0  0
  -23.8075  -13.5588  150.5009 C   0  0  0  0  0  0  0  0  0  0  0  0
  -25.1269  -14.6653  146.9124 C   0  0  0  0  0  0  0  0  0  0  0  0
  -26.9203  -13.7276  148.4641 O   0  0  0  0  0  0  0  0  0  0  0  0
  -25.5682  -16.0940  147.2663 C   0  0  0  0  0  0  0  0  0  0  0  0
  -28.1516  -13.8033  147.7787 C   0  0  0  0  0  0  0  0  0  0  0  0
  -18.5519  -12.4681  148.7750 C   0  0  0  0  0  0  0  0  0  0  0  0
  -29.2721  -13.9527  148.8068 C   0  0  0  0  0  0  0  0  0  0  0  0
  -30.6346  -13.5538  148.3867 C   0  0  0  0  0  0  0  0  0  0  0  0
  -29.8174  -12.7027  149.1563 O   0  0  0  0  0  0  0  0  0  0  0  0
  -18.1023  -11.3697  149.7149 C   0  0  0  0  0  0  0  0  0  0  0  0
  -19.1689  -12.1718  150.0271 O   0  0  0  0  0  0  0  0  0  0  0  0
  4  2  1  0
  4  3  1  0
  5  1  1  0
  6  1  1  0
  7  2  1  0
  8  3  1  0
 10  9  1  0
 11  6  1  0
 12  7  1  0
 12  9  1  0
 12 10  1  0
 13  8  1  0
 13 11  1  0
 14  8  1  0
 14 13  1  0
 15  6  1  0
 15 11  1  0
 16  6  1  0
 17 15  1  0
 18 16  1  0
 19 10  1  0
 19 12  1  0
 20 18  1  0
 21 20  1  0
 22 20  1  0
 22 21  1  0
 23 19  1  0
 24 19  1  0
 24 23  1  0
M  END
$$$$

     RDKit          3D

 24 28  0  0  0  0  0  0  0  0999 V2000
  -27.7175   -2.2597  136.0151 N   0  0  0  0  0  0  0  0  0  0  0  0
  -26.3142   -2.7425  136.0909 C   0  0  0  0  0  0  0  0  0  0  0  0
  -28.6412   -3.4080  136.0256 C   0  0  0  0  0  0  0  0  0  0  0  0
  -30.0872   -3.2977  135.6594 C   0  0  0  0  0  0  0  0  0  0  0  0
  -30.6867   -1.9014  135.4594 C   0  0  0  0  0  0  0  0  0  0  0  0
  -25.3495   -1.6151  136.3751 C   0  0  0  0  0  0  0  0  0  0  0  0
  -25.7839   -3.6588  134.9710 C   0  0  0  0  0  0  0  0  0  0  0  0
  -26.6103   -4.0231  133.8033 N   0  0  0  0  0  0  0  0  0  0  0  0
  -25.3910   -2.1843  134.9752 C   0  0  0  0  0  0  0  0  0  0  0  0
  -28.4381   -4.5045  137.1371 C   0  0  0  0  0  0  0  0  0  0  0  0
  -29.1009   -3.6422  134.6248 N   0  0  0  0  0  0  0  0  0  0  0  0
  -31.1402   -1.7634  134.1439 O   0  0  0  0  0  0  0  0  0  0  0  0
  -27.3821   -5.2730  133.9911 C   0  0  0  0  0  0  0  0  0  0  0  0
  -27.4514   -2.7274  139.5763 C   0  0  0  0  0  0  0  0  0  0  0  0
  -28.0237   -0.4680  139.9038 N   0  0  0  0  0  0  0  0  0  0  0  0
  -26.9882    0.2623  140.6529 C   0  0  0  0  0  0  0  0  0  0  0  0
  -28.8673   -3.3265  139.5181 C   0  0  0  0  0  0  0  0  0  0  0  0
  -27.4497   -1.3818  138.9885 N   0  0  0  0  0  0  0  0  0  0  0  0
  -29.3395   -4.2152  138.3603 C   0  0  0  0  0  0  0  0  0  0  0  0
  -28.8948   -4.8445  139.6766 C   0  0  0  0  0  0  0  0  0  0  0  0
  -28.8967   -5.0266  134.2126 C   0  0  0  0  0  0  0  0  0  0  0  0
  -27.6163    1.1070  141.7661 C   0  0  0  0  0  0  0  0  0  0  0  0
  -28.3331    2.3166  141.2276 C   0  0  0  0  0  0  0  0  0  0  0  0
  -27.6630    3.3410  140.6862 C   0  0  0  0  0  0  0  0  0  0  0  0
  2  1  1  0
  3  1  1  0
  4  3  1  0
  5  4  1  0
  6  2  1  0
  7  2  1  0
  8  7  1  0
  9  2  1  0
  9  6  1  0
  9  7  1  0
 10  3  1  0
 11  3  1  0
 11  4  1  0
 12  5  1  0
 13  8  1  0
 16 15  1  0
 17 14  1  0
 18 14  1  0
 18 15  1  0
 19 10  1  0
 19 17  1  0
 20 17  1  0
 20 19  1  0
 21 11  1  0
 21 13  1  0
 22 16  1  0
 23 22  1  0
 24 23  2  0
M  END
$$$$

     RDKit          3D

 25 32  0  0  0  0  0  0  0  0999 V2000
  -30.9928  -11.0932  139.6423 O   0  0  0  0  0  0  0  0  0  0  0  0
  -30.6474  -12.3881  140.0962 C   0  0  0  0  0  0  0  0  0  0  0  0
  -31.6731  -13.1547  140.6942 O   0  0  0  0  0  0  0  0  0  0  0  0
  -29.3910  -13.1138  139.5357 C   0  0  0  0  0  0  0  0  0  0  0  0
  -28.4264  -13.2463  140.5703 O   0  0  0  0  0  0  0  0  0  0  0  0
  -30.8390  -12.4518  141.5738 C   0  0  0  0  0  0  0  0  0  0  0  0
  -31.0649  -10.5291  137.2625 C   0  0  0  0  0  0  0  0  0  0  0  0
  -33.1145  -10.2577  138.8728 C   0  0  0  0  0  0  0  0  0  0  0  0
  -34.0137  -10.1327  137.6214 C   0  0  0  0  0  0  0  0  0  0  0  0
  -34.1509  -11.6629  137.6544 C   0  0  0  0  0  0  0  0  0  0  0  0
  -33.7859  -11.5771  139.0835 C   0  0  0  0  0  0  0  0  0  0  0  0
  -29.8027  -14.4735  138.9364 C   0  0  0  0  0  0  0  0  0  0  0  0
  -32.7931  -12.2336  138.1978 C   0  0  0  0  0  0  0  0  0  0  0  0
  -27.1539  -15.2723  140.6821 C   0  0  0  0  0  0  0  0  0  0  0  0
  -26.3920  -15.4852  141.9802 C   0  0  0  0  0  0  0  0  0  0  0  0
  -26.7827  -16.3354  139.6593 C   0  0  0  0  0  0  0  0  0  0  0  0
  -27.2067  -13.8293  140.1414 C   0  0  0  0  0  0  0  0  0  0  0  0
  -25.6438  -17.1793  140.1948 C   0  0  0  0  0  0  0  0  0  0  0  0
  -25.7229  -15.7465  140.6423 C   0  0  0  0  0  0  0  0  0  0  0  0
  -24.5770  -17.7705  139.2999 C   0  0  0  0  0  0  0  0  0  0  0  0
  -23.1886  -17.1310  139.4915 C   0  0  0  0  0  0  0  0  0  0  0  0
  -24.7547  -19.0832  140.1181 C   0  0  0  0  0  0  0  0  0  0  0  0
  -25.8154  -18.4240  141.0304 C   0  0  0  0  0  0  0  0  0  0  0  0
  -24.9839  -17.9134  137.8255 C   0  0  0  0  0  0  0  0  0  0  0  0
  -31.8371  -11.0506  138.4930 C   0  0  0  0  0  0  0  0  0  0  0  0
  2  1  1  0
  3  2  1  0
  4  2  1  0
  5  4  1  0
  6  2  1  0
  6  3  1  0
  9  8  1  0
 10  9  1  0
 11  8  1  0
 11 10  1  0
 12  4  1  0
 13 10  1  0
 13 11  1  0
 15 14  1  0
 16 14  1  0
 17  5  1  0
 17 14  1  0
 18 16  1  0
 19 14  1  0
 19 15  1  0
 19 16  1  0
 19 18  1  0
 20 18  1  0
 21 20  1  0
 22 20  1  0
 23 18  1  0
 23 22  1  0
 24 20  1  0
 25  1  1  0
 25  7  1  0
 25  8  1  0
 25 13  1  0
M  END
$$$$

     RDKit          3D

 25 31  0  0  0  0  0  0  0  0999 V2000
  -25.8141  -22.2226  134.8809 O   0  0  0  0  0  0  0  0  0  0  0  0
  -26.2882  -24.2641  135.8863 C   0  0  0  0  0  0  0  0  0  0  0  0
  -25.6518  -25.3168  136.1555 O   0  0  0  0  0  0  0  0  0  0  0  0
  -25.5376  -22.9459  136.0804 C   0  0  0  0  0  0  0  0  0  0  0  0
  -27.1544  -21.6654  136.6045 C   0  0  0  0  0  0  0  0  0  0  0  0
  -27.7106  -24.3730  135.3212 C   0  0  0  0  0  0  0  0  0  0  0  0
  -28.5207  -25.2867  135.7959 N   0  0  0  0  0  0  0  0  0  0  0  0
  -27.6624  -23.3952  132.8950 C   0  0  0  0  0  0  0  0  0  0  0  0
  -28.0230  -21.9121  132.7518 C   0  0  0  0  0  0  0  0  0  0  0  0
  -28.3704  -23.4481  134.2398 C   0  0  0  0  0  0  0  0  0  0  0  0
  -28.2958  -20.7777  136.5895 C   0  0  0  0  0  0  0  0  0  0  0  0
  -28.6445  -21.8808  134.1612 C   0  0  0  0  0  0  0  0  0  0  0  0
  -28.2685  -26.2760  136.8489 C   0  0  0  0  0  0  0  0  0  0  0  0
  -27.9717  -20.7377  135.0309 C   0  0  0  0  0  0  0  0  0  0  0  0
  -26.5705  -21.1429  135.3439 C   0  0  0  0  0  0  0  0  0  0  0  0
  -29.4231  -27.2562  136.9604 C   0  0  0  0  0  0  0  0  0  0  0  0
  -30.5683  -28.4580  138.8857 C   0  0  0  0  0  0  0  0  0  0  0  0
  -28.1661  -25.6372  138.2367 C   0  0  0  0  0  0  0  0  0  0  0  0
  -29.2812  -27.8079  138.3718 C   0  0  0  0  0  0  0  0  0  0  0  0
  -28.8362  -26.6112  139.2108 C   0  0  0  0  0  0  0  0  0  0  0  0
  -25.9563  -21.9680  137.2931 C   0  0  0  0  0  0  0  0  0  0  0  0
  -26.4946  -21.8088  138.7355 C   0  0  0  0  0  0  0  0  0  0  0  0
  -28.0319  -19.8375  137.8144 C   0  0  0  0  0  0  0  0  0  0  0  0
  -27.3191  -20.5380  138.9678 N   0  0  0  0  0  0  0  0  0  0  0  0
  -26.7500  -19.3215  138.3219 C   0  0  0  0  0  0  0  0  0  0  0  0
  3  2  2  0
  4  1  1  0
  4  2  1  0
  6  2  1  0
  7  6  2  3
  9  8  1  0
 10  6  1  0
 10  8  1  0
 11  5  1  0
 12  9  1  0
 12 10  1  0
 13  7  1  0
 14 11  1  0
 14 12  1  0
 15  1  1  0
 15  5  1  0
 15 14  1  0
 16 13  1  0
 18 13  1  0
 19 16  1  0
 19 17  1  0
 20 18  1  0
 20 19  1  0
 21  4  1  0
 21  5  1  0
 22 21  1  0
 23 11  1  0
 24 22  1  0
 24 23  1  0
 25 23  1  0
 25 24  1  0
M  END
$$$$

     RDKit          3D

 24 25  0  0  0  0  0  0  0  0999 V2000
  -29.0337    4.9673  150.8016 O   0  0  0  0  0  0  0  0  0  0  0  0
  -28.6416    3.8075  150.2657 C   0  0  0  0  0  0  0  0  0  0  0  0
  -27.5818    3.0858  150.8418 O   0  0  0  0  0  0  0  0  0  0  0  0
  -29.3901    3.0925  148.8880 C   0  0  0  0  0  0  0  0  0  0  0  0
  -26.8161    2.7174  147.6044 C   0  0  0  0  0  0  0  0  0  0  0  0
  -28.7950    1.6475  145.9629 C   0  0  0  0  0  0  0  0  0  0  0  0
  -27.9325    2.0845  144.7907 C   0  0  0  0  0  0  0  0  0  0  0  0
  -30.7552    4.1958  148.5412 C   0  0  0  0  0  0  0  0  0  0  0  0
  -28.1771    1.1664  143.4754 C   0  0  0  0  0  0  0  0  0  0  0  0
  -31.9049    3.3837  147.7535 C   0  0  0  0  0  0  0  0  0  0  0  0
  -28.2863    2.2478  147.5397 C   0  0  0  0  0  0  0  0  0  0  0  0
  -32.4075    2.4488  148.7208 O   0  0  0  0  0  0  0  0  0  0  0  0
  -26.9146    0.4356  143.8650 C   0  0  0  0  0  0  0  0  0  0  0  0
  -33.0059    5.1655  145.6625 C   0  0  0  0  0  0  0  0  0  0  0  0
  -33.2220    4.3145  147.0625 C   0  0  0  0  0  0  0  0  0  0  0  0
  -25.6361   -0.6327  143.6931 C   0  0  0  0  0  0  0  0  0  0  0  0
  -25.7733   -1.2011  142.3137 C   0  0  0  0  0  0  0  0  0  0  0  0
  -25.9586   -2.7475  142.0886 C   0  0  0  0  0  0  0  0  0  0  0  0
  -25.9611   -2.9271  140.6080 C   0  0  0  0  0  0  0  0  0  0  0  0
  -26.7862   -2.3275  139.7474 C   0  0  0  0  0  0  0  0  0  0  0  0
  -24.4204   -0.5576  142.5681 C   0  0  0  0  0  0  0  0  0  0  0  0
  -31.5787    4.7523  149.8244 C   0  0  0  0  0  0  0  0  0  0  0  0
  -25.1976   -0.1322  141.2620 C   0  0  0  0  0  0  0  0  0  0  0  0
  -23.1171   -1.5634  142.1250 C   0  0  0  0  0  0  0  0  0  0  0  0
  2  1  2  0
  3  2  1  0
  4  2  1  0
  7  6  1  0
  8  4  1  0
  9  7  1  0
 10  8  1  0
 11  4  1  0
 11  5  1  0
 11  6  1  0
 12 10  1  0
 13  9  2  3
 15 10  1  0
 15 14  1  0
 16 13  1  0
 17 16  1  0
 18 17  1  0
 19 18  1  0
 20 19  2  0
 21 16  1  0
 21 17  1  0
 22  8  1  0
 23 17  1  0
 23 21  1  0
 24 21  1  0
M  END
$$$$

     RDKit          3D

 20 24  0  0  0  0  0  0  0  0999 V2000
  -31.4701  -18.9965  148.1240 C   0  0  0  0  0  0  0  0  0  0  0  0
  -31.2499  -19.2715  149.4767 O   0  0  0  0  0  0  0  0  0  0  0  0
  -32.2412  -20.0256  147.5814 O   0  0  0  0  0  0  0  0  0  0  0  0
  -32.1551  -17.6828  147.8625 C   0  0  0  0  0  0  0  0  0  0  0  0
  -31.2454  -16.4311  147.6548 C   0  0  0  0  0  0  0  0  0  0  0  0
  -30.8972  -14.5226  145.9045 C   0  0  0  0  0  0  0  0  0  0  0  0
  -32.0319  -13.4781  145.9709 C   0  0  0  0  0  0  0  0  0  0  0  0
  -29.7693  -16.6453  148.0682 C   0  0  0  0  0  0  0  0  0  0  0  0
  -32.4122  -13.0156  147.3851 C   0  0  0  0  0  0  0  0  0  0  0  0
  -31.2244  -12.3749  148.1061 C   0  0  0  0  0  0  0  0  0  0  0  0
  -31.3497  -15.9754  146.1765 C   0  0  0  0  0  0  0  0  0  0  0  0
  -30.5803  -13.2654  149.1631 C   0  0  0  0  0  0  0  0  0  0  0  0
  -32.2264  -18.2909  149.2518 C   0  0  0  0  0  0  0  0  0  0  0  0
  -29.1715  -13.0225  149.5786 N   0  0  0  0  0  0  0  0  0  0  0  0
  -31.4994  -12.1038  149.5751 C   0  0  0  0  0  0  0  0  0  0  0  0
  -28.4205  -11.9829  148.8289 C   0  0  0  0  0  0  0  0  0  0  0  0
  -28.3384   -9.7026  148.2677 N   0  0  0  0  0  0  0  0  0  0  0  0
  -28.7815  -10.6138  149.2450 N   0  0  0  0  0  0  0  0  0  0  0  0
  -26.9226  -12.2331  149.0415 C   0  0  0  0  0  0  0  0  0  0  0  0
  -30.3034  -12.5333  150.4037 C   0  0  0  0  0  0  0  0  0  0  0  0
  2  1  1  0
  3  1  1  0
  4  1  1  0
  5  4  1  0
  7  6  1  0
  8  5  1  0
  9  7  1  0
 10  9  1  0
 11  5  1  0
 11  6  1  0
 12 10  1  0
 13  1  1  0
 13  2  1  0
 13  4  1  0
 14 12  1  0
 15 10  1  0
 15 12  1  0
 16 14  1  0
 18 16  1  0
 18 17  1  0
 19 16  1  0
 20 12  1  0
 20 14  1  0
 20 15  1  0
M  END
$$$$

     RDKit          3D

 25 29  0  0  0  0  0  0  0  0999 V2000
  -26.8268  -12.5224  141.4031 N   0  0  0  0  0  0  0  0  0  0  0  0
  -26.3025  -13.1619  142.6478 C   0  0  0  0  0  0  0  0  0  0  0  0
  -28.0401  -11.6655  141.6636 C   0  0  0  0  0  0  0  0  0  0  0  0
  -27.2592  -14.2069  143.1434 N   0  0  0  0  0  0  0  0  0  0  0  0
  -28.5808  -12.5552  144.7544 C   0  0  0  0  0  0  0  0  0  0  0  0
  -26.5141  -11.8648  146.2858 N   0  0  0  0  0  0  0  0  0  0  0  0
  -26.4302  -10.9873  147.4879 C   0  0  0  0  0  0  0  0  0  0  0  0
  -28.8363  -11.1909  144.0027 C   0  0  0  0  0  0  0  0  0  0  0  0
  -27.8532  -10.9398  142.9550 N   0  0  0  0  0  0  0  0  0  0  0  0
  -25.9759  -10.5590  139.9775 C   0  0  0  0  0  0  0  0  0  0  0  0
  -27.3286  -11.3389  148.6494 N   0  0  0  0  0  0  0  0  0  0  0  0
  -28.7814  -10.9766  148.6196 C   0  0  0  0  0  0  0  0  0  0  0  0
  -25.3411  -10.7588  141.3941 C   0  0  0  0  0  0  0  0  0  0  0  0
  -24.5246  -10.9623  140.2429 C   0  0  0  0  0  0  0  0  0  0  0  0
  -27.1763   -8.7149  146.3061 C   0  0  0  0  0  0  0  0  0  0  0  0
  -29.5788  -10.9494  151.2036 C   0  0  0  0  0  0  0  0  0  0  0  0
  -29.3794  -12.4937  151.2287 C   0  0  0  0  0  0  0  0  0  0  0  0
  -27.7088  -12.7276  146.0772 C   0  0  0  0  0  0  0  0  0  0  0  0
  -30.6319  -13.3388  151.0375 C   0  0  0  0  0  0  0  0  0  0  0  0
  -24.7672   -9.0876  146.7823 C   0  0  0  0  0  0  0  0  0  0  0  0
  -28.5365  -13.8279  143.8357 C   0  0  0  0  0  0  0  0  0  0  0  0
  -26.2136   -9.4651  147.2427 C   0  0  0  0  0  0  0  0  0  0  0  0
  -29.1999  -10.2099  149.9133 C   0  0  0  0  0  0  0  0  0  0  0  0
  -25.7697  -11.9381  140.5270 C   0  0  0  0  0  0  0  0  0  0  0  0
  -30.6655  -10.3291  150.3244 C   0  0  0  0  0  0  0  0  0  0  0  0
  2  1  1  0
  3  1  1  0
  4  2  1  0
  7  6  1  0
  8  5  1  0
  9  3  1  0
  9  8  1  0
 11  7  1  0
 12 11  1  0
 13 10  1  0
 14 10  1  0
 14 13  1  0
 17 16  1  0
 18  5  1  0
 18  6  1  0
 19 17  1  0
 21  4  1  0
 21  5  1  0
 22  7  1  0
 22 15  1  0
 22 20  1  0
 23 12  1  0
 23 16  1  0
 24  1  1  0
 24 10  1  0
 24 13  1  0
 24 14  1  0
 25 16  1  0
 25 23  1  0
M  END
$$$$

     RDKit          3D

 25 29  0  0  0  0  0  0  0  0999 V2000
  -24.3204  -16.8728  139.8040 C   0  0  0  0  0  0  0  0  0  0  0  0
  -26.2112  -18.7077  140.2085 C   0  0  0  0  0  0  0  0  0  0  0  0
  -27.2767  -17.9025  140.9731 C   0  0  0  0  0  0  0  0  0  0  0  0
  -27.3432  -18.2623  142.4917 C   0  0  0  0  0  0  0  0  0  0  0  0
  -23.8699  -16.7162  141.3504 C   0  0  0  0  0  0  0  0  0  0  0  0
  -25.0693  -18.3126  143.3810 C   0  0  0  0  0  0  0  0  0  0  0  0
  -26.3283  -17.4471  143.2867 C   0  0  0  0  0  0  0  0  0  0  0  0
  -25.5326  -19.7768  143.2296 C   0  0  0  0  0  0  0  0  0  0  0  0
  -26.0437  -17.6585  137.9017 C   0  0  0  0  0  0  0  0  0  0  0  0
  -23.8540  -17.7802  142.5094 C   0  0  0  0  0  0  0  0  0  0  0  0
  -25.3028  -17.9799  139.2336 C   0  0  0  0  0  0  0  0  0  0  0  0
  -27.0137  -19.7333  142.8220 C   0  0  0  0  0  0  0  0  0  0  0  0
  -24.7207  -15.4517  139.3289 C   0  0  0  0  0  0  0  0  0  0  0  0
  -26.3982  -16.1919  137.6995 C   0  0  0  0  0  0  0  0  0  0  0  0
  -22.3642  -16.3065  141.3652 C   0  0  0  0  0  0  0  0  0  0  0  0
  -21.5513  -17.5570  141.8070 C   0  0  0  0  0  0  0  0  0  0  0  0
  -26.1748  -13.6451  136.1730 C   0  0  0  0  0  0  0  0  0  0  0  0
  -23.0927  -13.5271  136.0955 C   0  0  0  0  0  0  0  0  0  0  0  0
  -25.1270  -15.3540  137.8427 C   0  0  0  0  0  0  0  0  0  0  0  0
  -25.3066  -13.8525  137.4354 C   0  0  0  0  0  0  0  0  0  0  0  0
  -23.9610  -13.0843  137.2831 C   0  0  0  0  0  0  0  0  0  0  0  0
  -20.7929  -18.2316  140.6618 C   0  0  0  0  0  0  0  0  0  0  0  0
  -22.5575  -18.5787  142.3629 C   0  0  0  0  0  0  0  0  0  0  0  0
  -22.5912  -19.7326  141.3595 C   0  0  0  0  0  0  0  0  0  0  0  0
  -21.2927  -19.6682  140.5792 C   0  0  0  0  0  0  0  0  0  0  0  0
  3  2  1  0
  4  3  1  0
  5  1  1  0
  7  4  1  0
  7  6  1  0
  8  6  1  0
 10  5  1  0
 10  6  1  0
 11  1  1  0
 11  2  1  0
 11  9  1  0
 12  4  1  0
 12  8  1  0
 13  1  1  0
 14  9  1  0
 15  5  1  0
 16 15  1  0
 19 13  1  0
 19 14  1  0
 20 17  1  0
 20 19  1  0
 21 18  1  0
 21 20  1  0
 22 16  1  0
 23 10  1  0
 23 16  1  0
 24 23  1  0
 25 22  1  0
 25 24  1  0
M  END
$$$$

     RDKit          3D

 14 15  0  0  0  0  0  0  0  0999 V2000
  -28.1904  -10.7424  148.6932 O   0  0  0  0  0  0  0  0  0  0  0  0
  -29.7431   -9.5894  147.2540 C   0  0  0  0  0  0  0  0  0  0  0  0
  -30.6787  -10.2986  147.5903 O   0  0  0  0  0  0  0  0  0  0  0  0
  -28.4955   -9.5031  148.0977 C   0  0  0  0  0  0  0  0  0  0  0  0
  -28.2814  -10.1786  149.9819 C   0  0  0  0  0  0  0  0  0  0  0  0
  -29.8181   -8.8882  146.0936 F   0  0  0  0  0  0  0  0  0  0  0  0
  -28.6166   -8.8032  149.4447 C   0  0  0  0  0  0  0  0  0  0  0  0
  -30.0198   -8.3204  149.8584 C   0  0  0  0  0  0  0  0  0  0  0  0
  -30.0247   -7.1667  150.8570 C   0  0  0  0  0  0  0  0  0  0  0  0
  -30.3668   -6.9125  149.3933 C   0  0  0  0  0  0  0  0  0  0  0  0
  -31.5176  -10.0073  153.0545 C   0  0  0  0  0  0  0  0  0  0  0  0
  -30.3954   -9.0082  153.3325 C   0  0  0  0  0  0  0  0  0  0  0  0
  -31.2315   -7.1032  151.8046 C   0  0  0  0  0  0  0  0  0  0  0  0
  -30.8582   -7.5446  153.2281 C   0  0  0  0  0  0  0  0  0  0  0  0
  3  2  2  0
  4  1  1  0
  4  2  1  0
  5  1  1  0
  6  2  1  0
  7  4  1  0
  7  5  1  0
  8  7  1  0
  9  8  1  0
 10  8  1  0
 10  9  1  0
 12 11  1  0
 13  9  1  0
 14 12  1  0
 14 13  1  0
M  END
$$$$

     RDKit          3D

 25 28  0  0  0  0  0  0  0  0999 V2000
  -19.5285  -20.9049  142.9476 O   0  0  0  0  0  0  0  0  0  0  0  0
  -20.2822  -19.7886  142.5155 C   0  0  0  0  0  0  0  0  0  0  0  0
  -21.1373  -19.4340  143.6169 O   0  0  0  0  0  0  0  0  0  0  0  0
  -18.3093  -20.2325  142.7287 C   0  0  0  0  0  0  0  0  0  0  0  0
  -17.6303  -20.5952  141.3945 C   0  0  0  0  0  0  0  0  0  0  0  0
  -18.2478  -19.3344  140.8527 C   0  0  0  0  0  0  0  0  0  0  0  0
  -17.3525  -18.3877  140.0473 C   0  0  0  0  0  0  0  0  0  0  0  0
  -17.4006  -16.8353  140.2128 C   0  0  0  0  0  0  0  0  0  0  0  0
  -18.6977  -16.2141  140.8057 C   0  0  0  0  0  0  0  0  0  0  0  0
  -16.1542  -16.2536  140.9957 C   0  0  0  0  0  0  0  0  0  0  0  0
  -14.9595  -16.2732  140.1478 N   0  0  0  0  0  0  0  0  0  0  0  0
  -19.0038  -19.0074  142.1481 C   0  0  0  0  0  0  0  0  0  0  0  0
  -18.6105  -19.0211  139.3899 C   0  0  0  0  0  0  0  0  0  0  0  0
  -20.7654  -16.3415  147.9901 O   0  0  0  0  0  0  0  0  0  0  0  0
  -19.7363  -17.2917  147.6150 C   0  0  0  0  0  0  0  0  0  0  0  0
  -18.8607  -16.4513  145.2949 C   0  0  0  0  0  0  0  0  0  0  0  0
  -19.6542  -17.5547  146.0675 C   0  0  0  0  0  0  0  0  0  0  0  0
  -15.8080  -16.9841  142.3134 C   0  0  0  0  0  0  0  0  0  0  0  0
  -14.9718  -16.1283  143.3042 C   0  0  0  0  0  0  0  0  0  0  0  0
  -21.0608  -17.7577  145.4797 C   0  0  0  0  0  0  0  0  0  0  0  0
  -14.9725  -16.6745  144.6744 N   0  0  0  0  0  0  0  0  0  0  0  0
  -16.0613  -18.9555  139.4334 C   0  0  0  0  0  0  0  0  0  0  0  0
  -21.2076  -18.0566  143.9151 C   0  0  0  0  0  0  0  0  0  0  0  0
  -21.4079  -17.0632  142.7268 C   0  0  0  0  0  0  0  0  0  0  0  0
  -22.6041  -17.5311  143.5098 C   0  0  0  0  0  0  0  0  0  0  0  0
  2  1  1  0
  3  2  1  0
  4  1  1  0
  5  4  1  0
  6  5  1  0
  7  6  1  0
  8  7  1  0
  9  8  1  0
 10  8  1  0
 11 10  1  0
 12  2  1  0
 12  4  1  0
 12  6  1  0
 13  6  1  0
 13  7  1  0
 15 14  1  0
 17 15  1  0
 17 16  1  0
 18 10  1  0
 19 18  1  0
 20 17  1  0
 21 19  1  0
 22  7  1  0
 23  3  1  0
 23 20  1  0
 24 23  1  0
 25 23  1  0
 25 24  1  0
M  END
$$$$

     RDKit          3D

 11 13  0  0  0  0  0  0  0  0999 V2000
  -33.5659   -2.7340  140.7485 C   0  0  0  0  0  0  0  0  0  0  0  0
  -33.7196   -2.9138  142.2812 C   0  0  0  0  0  0  0  0  0  0  0  0
  -34.6927   -1.9261  142.8626 C   0  0  0  0  0  0  0  0  0  0  0  0
  -34.7496   -3.2099  139.8812 C   0  0  0  0  0  0  0  0  0  0  0  0
  -34.4596   -2.9932  138.3889 C   0  0  0  0  0  0  0  0  0  0  0  0
  -35.5806   -3.5369  137.4942 C   0  0  0  0  0  0  0  0  0  0  0  0
  -35.0988   -3.3772  142.7671 C   0  0  0  0  0  0  0  0  0  0  0  0
  -36.8674   -2.7094  137.6335 C   0  0  0  0  0  0  0  0  0  0  0  0
  -37.9450   -3.2900  138.5382 C   0  0  0  0  0  0  0  0  0  0  0  0
  -34.0159   -4.2497  142.5661 O   0  0  0  0  0  0  0  0  0  0  0  0
  -38.1005   -3.3631  137.0278 C   0  0  0  0  0  0  0  0  0  0  0  0
  2  1  1  0
  3  2  1  0
  4  1  1  0
  5  4  1  0
  6  5  1  0
  7  2  1  0
  7  3  1  0
  8  6  1  0
  9  8  1  0
 10  2  1  0
 10  7  1  0
 11  8  1  0
 11  9  1  0
M  END
$$$$

     RDKit          3D

 25 30  0  0  0  0  0  0  0  0999 V2000
  -30.6326   -8.4405  134.5932 O   0  0  0  0  0  0  0  0  0  0  0  0
  -32.2324   -7.1199  135.5634 C   0  0  0  0  0  0  0  0  0  0  0  0
  -32.1330   -6.6889  138.0863 O   0  0  0  0  0  0  0  0  0  0  0  0
  -32.2228   -6.1061  134.0059 C   0  0  0  0  0  0  0  0  0  0  0  0
  -32.9859   -5.8648  135.4914 C   0  0  0  0  0  0  0  0  0  0  0  0
  -31.2061   -9.1514  137.3342 C   0  0  0  0  0  0  0  0  0  0  0  0
  -32.9370  -10.9233  135.6297 O   0  0  0  0  0  0  0  0  0  0  0  0
  -34.0542  -10.9622  136.5516 C   0  0  0  0  0  0  0  0  0  0  0  0
  -35.3950  -10.4476  135.9251 C   0  0  0  0  0  0  0  0  0  0  0  0
  -35.3479   -9.6385  134.6160 C   0  0  0  0  0  0  0  0  0  0  0  0
  -32.4412   -8.9138  139.6063 C   0  0  0  0  0  0  0  0  0  0  0  0
  -33.1678   -8.3873  135.3079 C   0  0  0  0  0  0  0  0  0  0  0  0
  -32.5840  -10.4077  139.0600 C   0  0  0  0  0  0  0  0  0  0  0  0
  -31.0944   -9.4428  135.5641 C   0  0  0  0  0  0  0  0  0  0  0  0
  -34.5774   -8.2644  134.7093 C   0  0  0  0  0  0  0  0  0  0  0  0
  -33.2760   -6.1059  137.2131 C   0  0  0  0  0  0  0  0  0  0  0  0
  -30.3833  -10.6404  135.3111 O   0  0  0  0  0  0  0  0  0  0  0  0
  -31.2637  -10.4654  138.1853 C   0  0  0  0  0  0  0  0  0  0  0  0
  -32.1307   -8.1364  138.2607 C   0  0  0  0  0  0  0  0  0  0  0  0
  -31.1680   -7.1064  134.6246 C   0  0  0  0  0  0  0  0  0  0  0  0
  -34.9953  -11.6317  139.0543 C   0  0  0  0  0  0  0  0  0  0  0  0
  -36.3732  -10.9718  139.1400 N   0  0  0  0  0  0  0  0  0  0  0  0
  -34.8751  -13.1583  138.5593 C   0  0  0  0  0  0  0  0  0  0  0  0
  -33.9656  -10.6859  138.2053 C   0  0  0  0  0  0  0  0  0  0  0  0
  -32.4866   -9.7208  134.9753 C   0  0  0  0  0  0  0  0  0  0  0  0
  5  2  1  0
  5  4  1  0
  8  7  1  0
  9  8  1  0
 10  9  1  0
 12  2  1  0
 13 11  1  0
 14  1  1  0
 14  6  1  0
 15 10  1  0
 15 12  1  0
 16  3  1  0
 16  5  1  0
 17 14  1  0
 18  6  1  0
 18 13  1  0
 19  3  1  0
 19  6  1  0
 19 11  1  0
 20  1  1  0
 20  2  1  0
 20  4  1  0
 22 21  1  0
 23 21  1  0
 24  8  1  0
 24 13  1  0
 24 21  1  0
 25  7  1  0
 25 12  1  0
 25 14  1  0
M  END
$$$$

     RDKit          3D

 25 29  0  0  0  0  0  0  0  0999 V2000
  -16.3819    0.0899  138.4995 O   0  0  0  0  0  0  0  0  0  0  0  0
  -15.2265   -0.2259  139.0352 C   0  0  0  0  0  0  0  0  0  0  0  0
  -14.0721    0.1639  138.4394 N   0  0  0  0  0  2  0  0  0  0  0  0
  -13.5061    1.3926  138.6768 C   0  0  0  0  0  0  0  0  0  0  0  0
  -14.5631   -1.3463  138.5922 N   0  0  0  0  0  2  0  0  0  0  0  0
  -14.0998    2.6215  138.2818 C   0  0  0  0  0  0  0  0  0  0  0  0
  -13.5630    1.9595  139.9560 N   0  0  0  0  0  0  0  0  0  0  0  0
  -12.2576    2.1969  140.6162 C   0  0  0  0  0  0  0  0  0  0  0  0
  -11.4816    3.3613  140.0976 C   0  0  0  0  0  0  0  0  0  0  0  0
  -11.2660    2.5022  139.4807 C   0  0  0  0  0  0  0  0  0  0  0  0
  -13.1723    3.4393  137.5011 C   0  0  0  0  0  0  0  0  0  0  0  0
  -12.6228    2.9738  136.3153 C   0  0  0  0  0  0  0  0  0  0  0  0
  -13.0523    1.7532  135.8035 C   0  0  0  0  0  0  0  0  0  0  0  0
  -13.0592    0.6111  136.6135 C   0  0  0  0  0  0  0  0  0  0  0  0
  -12.9737   -0.6500  135.9497 C   0  0  0  0  0  0  0  0  0  0  0  0
  -12.4084    0.3049  137.8609 C   0  0  0  0  0  0  0  0  0  0  0  0
  -11.8466   -1.4032  135.8999 C   0  0  0  0  0  0  0  0  0  0  0  0
  -10.6985   -0.9528  136.5772 C   0  0  0  0  0  0  0  0  0  0  0  0
  -10.2635    0.3521  136.3646 C   0  0  0  0  0  0  0  0  0  0  0  0
  -11.6347    1.3272  138.6842 C   0  0  0  0  0  0  0  0  0  0  0  0
  -10.8952    0.4328  138.0981 C   0  0  0  0  0  0  0  0  0  0  0  0
   -9.8177   -1.9783  136.2077 N   0  0  0  0  0  0  0  0  0  0  0  0
   -8.9926    0.4699  135.6260 C   0  0  0  0  0  0  0  0  0  0  0  0
  -10.5310   -2.8353  135.4241 C   0  0  0  0  0  0  0  0  0  0  0  0
   -8.2828   -1.4061  136.1340 C   0  0  0  0  0  0  0  0  0  0  0  0
  2  1  1  0
  3  2  1  0
  4  3  1  0
  5  2  1  0
  6  4  1  0
  7  4  1  0
  7  6  1  0
  8  7  1  0
  9  8  1  0
 10  9  1  0
 11  6  1  0
 12 11  2  0
 13 12  1  0
 14 13  1  0
 15 14  1  0
 16  4  1  0
 16 14  1  0
 17 15  2  0
 18 17  1  0
 19 18  1  0
 20 10  1  0
 20 16  1  0
 21 16  1  0
 21 19  1  0
 21 20  1  0
 22 18  1  0
 23 19  1  0
 24 22  1  0
 25 22  1  0
M  RAD  2   3   2   5   2
M  END
$$$$

     RDKit          3D

 25 31  0  0  0  0  0  0  0  0999 V2000
  -22.3404   -2.0125  144.6060 O   0  0  0  0  0  0  0  0  0  0  0  0
  -23.1475   -2.1854  143.4632 C   0  0  0  0  0  0  0  0  0  0  0  0
  -22.4571   -3.0376  142.4836 N   0  0  0  0  0  0  0  0  0  0  0  0
  -21.3514   -2.2960  141.8496 C   0  0  0  0  0  0  0  0  0  0  0  0
  -20.2431   -3.1537  141.2622 C   0  0  0  0  0  0  0  0  0  0  0  0
  -19.6609   -3.9034  142.5362 C   0  0  0  0  0  0  0  0  0  0  0  0
  -18.5141   -4.6876  141.9427 C   0  0  0  0  0  0  0  0  0  0  0  0
  -24.3419   -2.8135  143.8358 O   0  0  0  0  0  0  0  0  0  0  0  0
  -18.2123   -6.0061  142.6583 C   0  0  0  0  0  0  0  0  0  0  0  0
  -17.1393   -5.7861  143.7295 C   0  0  0  0  0  0  0  0  0  0  0  0
  -19.9037   -4.6276  141.2820 C   0  0  0  0  0  0  0  0  0  0  0  0
  -19.9682   -2.4246  142.5162 C   0  0  0  0  0  0  0  0  0  0  0  0
  -17.6557   -5.3252  145.0880 C   0  0  0  0  0  0  0  0  0  0  0  0
  -17.1873   -6.7643  144.8993 C   0  0  0  0  0  0  0  0  0  0  0  0
  -15.8171   -7.1130  145.4983 C   0  0  0  0  0  0  0  0  0  0  0  0
  -15.9811   -7.7078  146.9054 C   0  0  0  0  0  0  0  0  0  0  0  0
  -16.0926   -6.6874  148.0250 C   0  0  0  0  0  0  0  0  0  0  0  0
  -14.7764   -7.1773  148.6192 C   0  0  0  0  0  0  0  0  0  0  0  0
  -13.5297   -7.2916  147.7687 C   0  0  0  0  0  0  0  0  0  0  0  0
  -14.8168   -7.8486  149.8579 O   0  0  0  0  0  0  0  0  0  0  0  0
  -14.6757   -8.2368  147.4908 C   0  0  0  0  0  0  0  0  0  0  0  0
  -14.7064   -6.9019  150.9038 C   0  0  0  0  0  0  0  0  0  0  0  0
  -13.2340   -6.6665  151.2872 C   0  0  0  0  0  0  0  0  0  0  0  0
  -12.6750   -5.3760  150.6658 C   0  0  0  0  0  0  0  0  0  0  0  0
  -11.1699   -5.2640  150.8925 C   0  0  0  0  0  0  0  0  0  0  0  0
  2  1  1  0
  3  2  1  0
  4  3  1  0
  5  4  1  0
  6  5  1  0
  7  6  1  0
  8  2  1  0
  9  7  1  0
 10  9  1  0
 11  5  1  0
 11  6  1  0
 11  7  1  0
 12  4  1  0
 12  5  1  0
 12  6  1  0
 13 10  1  0
 14 10  1  0
 14 13  1  0
 15 14  1  0
 16 15  1  0
 17 16  1  0
 18 17  1  0
 19 18  1  0
 20 18  1  0
 21 16  1  0
 21 18  1  0
 21 19  1  0
 22 20  1  0
 23 22  1  0
 24 23  1  0
 25 24  1  0
M  END
$$$$

     RDKit          3D

 25 29  0  0  0  0  0  0  0  0999 V2000
  -28.3472  -10.4035  147.0041 C   0  0  0  0  0  0  0  0  0  0  0  0
  -27.8126  -10.3084  145.7015 C   0  0  0  0  0  0  0  0  0  0  0  0
  -27.7872   -9.5349  148.0221 C   0  0  0  0  0  0  0  0  0  0  0  0
  -26.0222  -10.0886  148.0179 C   0  0  0  0  0  0  0  0  0  0  0  0
  -25.0620   -9.5541  146.4658 C   0  0  0  0  0  0  0  0  0  0  0  0
  -27.0396  -14.2734  145.9064 C   0  0  0  0  0  0  0  0  0  0  0  0
  -24.5835   -8.5943  147.4587 C   0  0  0  0  0  0  0  0  0  0  0  0
  -25.3440  -11.6129  148.3229 C   0  0  0  0  0  0  0  0  0  0  0  0
  -25.5715  -14.9623  145.2055 C   0  0  0  0  0  0  0  0  0  0  0  0
  -24.2276  -12.2103  149.1957 C   0  0  0  0  0  0  0  0  0  0  0  0
  -27.9538   -8.4930  146.9915 C   0  0  0  0  0  0  0  0  0  0  0  0
  -27.1747  -13.6434  147.4154 C   0  0  0  0  0  0  0  0  0  0  0  0
  -27.4520  -11.9399  147.3915 O   0  0  0  0  0  0  0  0  0  0  0  0
  -23.7098  -13.8220  149.3139 C   0  0  0  0  0  0  0  0  0  0  0  0
  -23.8562   -7.8774  148.9328 C   0  0  0  0  0  0  0  0  0  0  0  0
  -27.8461  -12.4637  145.2171 C   0  0  0  0  0  0  0  0  0  0  0  0
  -23.3057   -9.3787  147.5146 C   0  0  0  0  0  0  0  0  0  0  0  0
  -27.3463   -6.2810  148.0827 C   0  0  0  0  0  0  0  0  0  0  0  0
  -25.6302  -12.1082  149.6832 N   0  0  0  0  0  0  0  0  0  0  0  0
  -22.5092   -8.3824  148.4370 C   0  0  0  0  0  0  0  0  0  0  0  0
  -24.2837   -6.6017  149.9511 C   0  0  0  0  0  0  0  0  0  0  0  0
  -24.5987   -6.7633  151.7144 Cl  0  0  0  0  0  0  0  0  0  0  0  0
  -26.9548   -3.8807  148.8285 C   0  0  0  0  0  0  0  0  0  0  0  0
  -25.8986   -9.7103  149.5097 N   0  0  0  0  0  0  0  0  0  0  0  0
  -26.5800   -1.6016  149.8461 C   0  0  0  0  0  0  0  0  0  0  0  0
  2  1  1  0
  3  1  1  0
  4  3  1  0
  5  4  1  0
  7  5  1  0
  8  4  1  0
  9  6  1  0
 10  8  1  0
 11  1  1  0
 11  2  1  0
 11  3  1  0
 12  6  1  0
 13  1  1  0
 13 12  1  0
 14 10  1  0
 15  7  1  0
 16  2  1  0
 16  6  1  0
 17  7  1  0
 18 11  1  0
 19  8  1  0
 19 10  1  0
 20 15  1  0
 20 17  1  0
 21 15  1  0
 22 21  1  0
 23 18  1  0
 24  4  1  0
 25 23  1  0
M  END
$$$$

     RDKit          3D

 24 30  0  0  0  0  0  0  0  0999 V2000
  -24.7331   -1.1705  136.2515 C   0  0  0  0  0  0  0  0  0  0  0  0
  -26.3955   -0.8520  135.6362 C   0  0  0  0  0  0  0  0  0  0  0  0
  -27.4859   -1.5819  134.4461 C   0  0  0  0  0  0  0  0  0  0  0  0
  -28.1290   -2.6141  133.4296 C   0  0  0  0  0  0  0  0  0  0  0  0
  -27.1498   -3.2912  134.2793 C   0  0  0  0  0  0  0  0  0  0  0  0
  -23.5684   -2.9678  136.1875 C   0  0  0  0  0  0  0  0  0  0  0  0
  -22.3164   -3.7625  135.6336 C   0  0  0  0  0  0  0  0  0  0  0  0
  -25.7878   -3.5354  133.5337 C   0  0  0  0  0  0  0  0  0  0  0  0
  -27.2581   -3.9396  135.7070 C   0  0  0  0  0  0  0  0  0  0  0  0
  -23.6383   -4.1639  135.2393 N   0  0  0  0  0  0  0  0  0  0  0  0
  -23.6156   -1.5905  134.0319 C   0  0  0  0  0  0  0  0  0  0  0  0
  -24.3684   -2.5605  138.8427 C   0  0  0  0  0  0  0  0  0  0  0  0
  -21.0772   -3.7193  134.4929 C   0  0  0  0  0  0  0  0  0  0  0  0
  -21.2418   -2.6695  132.5828 C   0  0  0  0  0  0  0  0  0  0  0  0
  -26.0840   -3.1564  136.3157 C   0  0  0  0  0  0  0  0  0  0  0  0
  -20.5321   -2.3663  134.0147 C   0  0  0  0  0  0  0  0  0  0  0  0
  -25.7489    1.0433  134.6245 C   0  0  0  0  0  0  0  0  0  0  0  0
  -25.2226   -0.1490  135.1693 N   0  0  0  0  0  0  0  0  0  0  0  0
  -20.7839   -3.6904  131.6063 C   0  0  0  0  0  0  0  0  0  0  0  0
  -25.1338   -2.6164  134.4077 C   0  0  0  0  0  0  0  0  0  0  0  0
  -20.4657   -3.9321  133.0932 C   0  0  0  0  0  0  0  0  0  0  0  0
  -19.2789   -2.9958  133.4647 C   0  0  0  0  0  0  0  0  0  0  0  0
  -23.7992   -3.5248  139.6141 C   0  0  0  0  0  0  0  0  0  0  0  0
  -25.7487   -2.7992  138.1412 C   0  0  0  0  0  0  0  0  0  0  0  0
  2  1  1  0
  3  2  1  0
  4  3  1  0
  5  3  1  0
  5  4  1  0
  6  1  1  0
  7  6  1  0
  8  5  1  0
  9  5  1  0
 10  6  1  0
 10  7  1  0
 13  7  1  0
 15  9  1  0
 16 13  1  0
 16 14  1  0
 18  1  1  0
 18  2  1  0
 18 17  1  0
 19 14  1  0
 20  8  1  0
 20 11  1  0
 20 15  1  0
 21 13  1  0
 21 14  1  0
 21 19  1  0
 22 16  1  0
 22 21  1  0
 23 12  2  0
 24 12  1  0
 24 15  1  0
M  END
$$$$

     RDKit          3D

 25 27  0  0  0  0  0  0  0  0999 V2000
  -31.8385   -6.3044  136.9140 O   0  0  0  0  0  0  0  0  0  0  0  0
  -32.6850   -7.0144  137.7904 C   0  0  0  0  0  0  0  0  0  0  0  0
  -32.4717   -6.5673  139.1078 O   0  0  0  0  0  0  0  0  0  0  0  0
  -31.0130   -8.9938  137.6774 C   0  0  0  0  0  0  0  0  0  0  0  0
  -33.4131   -9.4301  138.5494 C   0  0  0  0  0  0  0  0  0  0  0  0
  -34.4582  -10.2937  137.7888 C   0  0  0  0  0  0  0  0  0  0  0  0
  -30.2109   -8.5690  138.9406 C   0  0  0  0  0  0  0  0  0  0  0  0
  -35.8012   -9.6099  137.4910 C   0  0  0  0  0  0  0  0  0  0  0  0
  -29.2311   -7.3928  138.8795 C   0  0  0  0  0  0  0  0  0  0  0  0
  -29.1554   -6.7213  137.6539 O   0  0  0  0  0  0  0  0  0  0  0  0
  -28.7069   -8.8153  138.7729 C   0  0  0  0  0  0  0  0  0  0  0  0
  -32.5073   -8.5568  137.6174 C   0  0  0  0  0  0  0  0  0  0  0  0
  -32.9377   -5.6906  136.2881 C   0  0  0  0  0  0  0  0  0  0  0  0
  -36.8002  -10.7771  137.3058 C   0  0  0  0  0  0  0  0  0  0  0  0
  -36.1560  -12.0196  137.9503 C   0  0  0  0  0  0  0  0  0  0  0  0
  -30.6995   -8.9835  140.3351 C   0  0  0  0  0  0  0  0  0  0  0  0
  -39.3536  -11.7706  137.0291 S   0  0  0  0  0  0  0  0  0  0  0  0
  -38.2604  -10.4917  137.7693 C   0  0  0  0  0  0  0  0  0  0  0  0
  -38.4406  -10.4604  139.3184 C   0  0  0  0  0  0  0  0  0  0  0  0
  -39.1722   -9.2072  139.7996 C   0  0  0  0  0  0  0  0  0  0  0  0
  -34.8437  -11.5515  138.5631 C   0  0  0  0  0  0  0  0  0  0  0  0
  -36.1858   -8.7816  138.5609 O   0  0  0  0  0  0  0  0  0  0  0  0
  -33.9336   -6.4169  137.1518 C   0  0  0  0  0  0  0  0  0  0  0  0
  -40.6077   -9.6090  134.6572 I   0  0  0  0  0  0  0  0  0  0  0  0
  -41.2249  -10.5011  136.9918 Se  0  0  0  0  0  2  0  0  0  0  0  0
  2  1  1  0
  3  2  1  0
  6  5  1  0
  7  4  1  0
  8  6  1  0
  9  7  1  0
 10  9  1  0
 11  7  1  0
 11  9  1  0
 12  2  1  0
 12  4  1  0
 12  5  1  0
 13  1  1  0
 14  8  1  0
 15 14  1  0
 16  7  1  0
 18 14  1  0
 18 17  1  0
 19 18  1  0
 20 19  1  0
 21  6  1  0
 21 15  1  0
 22  8  1  0
 23  2  1  0
 23 13  1  0
 25 17  1  0
 25 24  1  0
M  END
$$$$

     RDKit          3D

 24 30  0  0  0  0  0  0  0  0999 V2000
  -21.4849   -1.4083  144.0248 C   0  0  0  0  0  0  0  0  0  0  0  0
  -21.1721   -0.0414  144.2527 O   0  0  0  0  0  0  0  0  0  0  0  0
  -22.2898   -1.8902  145.1911 N   0  0  0  0  0  2  0  0  0  0  0  0
  -23.6701   -1.5001  145.5651 C   0  0  0  0  0  0  0  0  0  0  0  0
  -20.2398   -2.1830  144.0711 N   0  0  0  0  0  2  0  0  0  0  0  0
  -24.6518   -2.0163  144.5622 C   0  0  0  0  0  0  0  0  0  0  0  0
  -23.4974   -2.0052  142.3604 C   0  0  0  0  0  0  0  0  0  0  0  0
  -22.1055   -1.5948  142.6556 N   0  0  0  0  0  0  0  0  0  0  0  0
  -20.1924    0.5921  143.4263 C   0  0  0  0  0  0  0  0  0  0  0  0
  -24.2435    0.2279  143.2261 C   0  0  0  0  0  0  0  0  0  0  0  0
  -26.5452   -0.0819  143.4433 O   0  0  0  0  0  0  0  0  0  0  0  0
  -25.9655   -1.1484  142.6924 C   0  0  0  0  0  0  0  0  0  0  0  0
  -19.5018   -0.0520  142.2019 C   0  0  0  0  0  0  0  0  0  0  0  0
  -19.6633    1.9006  144.0004 C   0  0  0  0  0  0  0  0  0  0  0  0
  -24.5355   -1.2710  143.2075 C   0  0  0  0  0  0  0  0  0  0  0  0
  -18.9991    0.9095  141.1206 C   0  0  0  0  0  0  0  0  0  0  0  0
  -23.9896   -0.0327  146.0811 C   0  0  0  0  0  0  0  0  0  0  0  0
  -18.8117    0.6538  144.1469 C   0  0  0  0  0  0  0  0  0  0  0  0
  -18.1681    0.0213  142.9015 C   0  0  0  0  0  0  0  0  0  0  0  0
  -17.7379    0.5046  140.3872 C   0  0  0  0  0  0  0  0  0  0  0  0
  -25.3011    0.6383  145.4865 C   0  0  0  0  0  0  0  0  0  0  0  0
  -17.6286    0.9638  141.8270 C   0  0  0  0  0  0  0  0  0  0  0  0
  -22.9004    0.8417  145.9650 O   0  0  0  0  0  0  0  0  0  0  0  0
  -25.4668    0.7258  143.9224 C   0  0  0  0  0  0  0  0  0  0  0  0
  2  1  1  0
  3  1  1  0
  4  3  1  0
  5  1  1  0
  6  4  1  0
  8  1  1  0
  8  7  1  0
  9  2  1  0
 12 11  1  0
 13  9  1  0
 14  9  1  0
 15  6  1  0
 15  7  1  0
 15 10  1  0
 15 12  1  0
 16 13  1  0
 17  4  1  0
 18  9  1  0
 18 14  1  0
 19 13  1  0
 19 18  1  0
 20 16  1  0
 21 17  1  0
 22 16  1  0
 22 19  1  0
 22 20  1  0
 23 17  1  0
 24 10  1  0
 24 11  1  0
 24 21  1  0
M  RAD  2   3   2   5   2
M  END
$$$$

     RDKit          3D

 25 31  0  0  0  0  0  0  0  0999 V2000
  -31.0911   -6.5568  147.5646 C   0  0  0  0  0  0  0  0  0  0  0  0
  -30.2921   -6.7408  148.8428 C   0  0  0  0  0  0  0  0  0  0  0  0
  -30.4764   -5.6487  146.4735 C   0  0  0  0  0  0  0  0  0  0  0  0
  -29.3168   -6.3202  145.6066 C   0  0  0  0  0  0  0  0  0  0  0  0
  -31.5174   -5.8443  148.8389 C   0  0  0  0  0  0  0  0  0  0  0  0
  -29.1351   -7.8675  145.7518 C   0  0  0  0  0  0  0  0  0  0  0  0
  -31.5976   -5.2361  145.5004 C   0  0  0  0  0  0  0  0  0  0  0  0
  -31.4243   -3.7782  145.0416 C   0  0  0  0  0  0  0  0  0  0  0  0
  -30.2653   -8.7673  145.2118 C   0  0  0  0  0  0  0  0  0  0  0  0
  -26.9945   -5.7718  144.5555 C   0  0  0  0  0  0  0  0  0  0  0  0
  -33.1818   -3.9484  143.3057 C   0  0  0  0  0  0  0  0  0  0  0  0
  -30.6769   -8.5041  143.7441 C   0  0  0  0  0  0  0  0  0  0  0  0
  -26.6695   -4.4645  143.7753 C   0  0  0  0  0  0  0  0  0  0  0  0
  -27.0835   -4.4398  142.2681 C   0  0  0  0  0  0  0  0  0  0  0  0
  -28.5859   -4.6507  141.9334 C   0  0  0  0  0  0  0  0  0  0  0  0
  -31.7227   -3.6348  143.5716 C   0  0  0  0  0  0  0  0  0  0  0  0
  -29.4953   -3.8964  142.8912 C   0  0  0  0  0  0  0  0  0  0  0  0
  -30.8250   -9.7313  142.8501 C   0  0  0  0  0  0  0  0  0  0  0  0
  -30.8102   -4.5596  142.9010 N   0  0  0  0  0  0  0  0  0  0  0  0
  -32.6675   -4.1756  145.7745 C   0  0  0  0  0  0  0  0  0  0  0  0
  -30.6091   -9.4940  141.3549 C   0  0  0  0  0  0  0  0  0  0  0  0
  -33.7983   -4.0902  144.7267 C   0  0  0  0  0  0  0  0  0  0  0  0
  -30.7283   -3.1206  142.5755 C   0  0  0  0  0  0  0  0  0  0  0  0
  -27.9449   -5.6048  145.7902 C   0  0  0  0  0  0  0  0  0  0  0  0
  -32.0658   -9.0596  143.4194 C   0  0  0  0  0  0  0  0  0  0  0  0
  2  1  1  0
  3  1  1  0
  4  3  1  0
  5  1  1  0
  5  2  1  0
  6  4  1  0
  7  3  1  0
  8  7  1  0
  9  6  1  0
 12  9  1  0
 13 10  1  0
 14 13  1  0
 15 14  1  0
 16  8  1  0
 16 11  1  0
 17 15  1  0
 18 12  1  0
 19 16  1  0
 19 17  1  0
 20  7  1  0
 20  8  1  0
 21 18  1  0
 22 11  1  0
 22 20  1  0
 23 16  1  0
 23 17  1  0
 23 19  1  0
 24  4  1  0
 24 10  1  0
 25 12  1  0
 25 18  1  0
M  END
$$$$

     RDKit          3D

 25 27  0  0  0  0  0  0  0  0999 V2000
  -30.8979  -19.1195  146.3167 F   0  0  0  0  0  0  0  0  0  0  0  0
  -30.3017  -17.6310  148.1982 C   0  0  0  0  0  0  0  0  0  0  0  0
  -30.1896  -17.9221  149.6833 C   0  0  0  0  0  0  0  0  0  0  0  0
  -31.7040  -16.8653  148.0137 C   0  0  0  0  0  0  0  0  0  0  0  0
  -32.8222  -17.3885  148.7636 O   0  0  0  0  0  0  0  0  0  0  0  0
  -32.6074  -17.9851  150.0412 C   0  0  0  0  0  0  0  0  0  0  0  0
  -31.3499  -18.8494  150.0149 C   0  0  0  0  0  0  0  0  0  0  0  0
  -32.1752  -16.7437  146.5352 C   0  0  0  0  0  0  0  0  0  0  0  0
  -32.7031  -16.9714  151.2291 C   0  0  0  0  0  0  0  0  0  0  0  0
  -32.7209  -15.4569  150.8821 C   0  0  0  0  0  0  0  0  0  0  0  0
  -31.0567  -19.8362  151.1569 C   0  0  0  0  0  0  0  0  0  0  0  0
  -29.9500  -18.9112  147.3082 C   0  0  0  0  0  0  0  0  0  0  0  0
  -33.0123  -15.4680  146.2077 C   0  0  0  0  0  0  0  0  0  0  0  0
  -30.1257  -21.0350  150.7253 C   0  0  0  0  0  0  0  0  0  0  0  0
  -28.7164  -20.7159  150.1664 C   0  0  0  0  0  0  0  0  0  0  0  0
  -34.5325  -15.7171  146.0256 C   0  0  0  0  0  0  0  0  0  0  0  0
  -29.8538  -20.1489  148.0237 O   0  0  0  0  0  0  0  0  0  0  0  0
  -35.2757  -15.7130  147.3762 C   0  0  0  0  0  0  0  0  0  0  0  0
  -28.5898  -20.3769  148.6398 C   0  0  0  0  0  0  0  0  0  0  0  0
  -36.5704  -16.5733  147.3429 C   0  0  0  0  0  0  0  0  0  0  0  0
  -37.2360  -17.0138  148.6467 C   0  0  0  0  0  0  0  0  0  0  0  0
  -36.4735  -16.7276  149.9885 C   0  0  0  0  0  0  0  0  0  0  0  0
  -36.6221  -15.3110  150.5736 C   0  0  0  0  0  0  0  0  0  0  0  0
  -38.0098  -15.0697  151.1467 C   0  0  0  0  0  0  0  0  0  0  0  0
  -37.8306  -15.8712  147.8050 C   0  0  0  0  0  0  0  0  0  0  0  0
  3  2  1  0
  4  2  1  0
  5  4  1  0
  6  5  1  0
  7  3  1  0
  7  6  1  0
  8  4  1  0
  9  6  1  0
 10  9  1  0
 11  7  1  0
 12  1  1  0
 12  2  1  0
 13  8  1  0
 14 11  1  0
 15 14  1  0
 16 13  1  0
 17 12  1  0
 18 16  1  0
 19 15  1  0
 19 17  1  0
 20 18  1  0
 21 20  1  0
 22 21  1  0
 23 22  1  0
 24 23  1  0
 25 20  1  0
 25 21  1  0
M  END
$$$$

     RDKit          3D

 25 32  0  0  0  0  0  0  0  0999 V2000
  -25.3119  -14.7698  141.6912 C   0  0  0  0  0  0  0  0  0  0  0  0
  -24.4194  -15.7922  141.3572 O   0  0  0  0  0  0  0  0  0  0  0  0
  -25.7593  -14.0325  140.7943 O   0  0  0  0  0  0  0  0  0  0  0  0
  -23.9499  -16.6442  142.3761 C   0  0  0  0  0  0  0  0  0  0  0  0
  -21.4860  -17.1217  142.2885 C   0  0  0  0  0  0  0  0  0  0  0  0
  -23.0545  -18.0782  140.2645 C   0  0  0  0  0  0  0  0  0  0  0  0
  -22.9509  -19.6180  139.9725 C   0  0  0  0  0  0  0  0  0  0  0  0
  -20.9709  -15.9227  141.8583 C   0  0  0  0  0  0  0  0  0  0  0  0
  -22.8780  -17.6542  141.8299 C   0  0  0  0  0  0  0  0  0  0  0  0
  -21.5177  -19.4664  139.5200 C   0  0  0  0  0  0  0  0  0  0  0  0
  -24.0765  -20.2818  138.9595 C   0  0  0  0  0  0  0  0  0  0  0  0
  -23.7965  -21.1588  137.7309 C   0  0  0  0  0  0  0  0  0  0  0  0
  -21.5156  -17.6238  139.2185 P   0  0  0  0  0  0  0  0  0  0  0  0
  -23.9724  -18.7118  136.6430 C   0  0  0  0  0  0  0  0  0  0  0  0
  -22.3344  -21.4589  137.2481 C   0  0  0  0  0  0  0  0  0  0  0  0
  -24.5592  -19.8285  137.5225 C   0  0  0  0  0  0  0  0  0  0  0  0
  -21.3935  -20.8834  135.5086 C   0  0  0  0  0  0  0  0  0  0  0  0
  -23.6203  -17.6018  137.5899 C   0  0  0  0  0  0  0  0  0  0  0  0
  -23.3078  -16.2870  136.8675 C   0  0  0  0  0  0  0  0  0  0  0  0
  -21.5695  -20.3589  136.7915 O   0  0  0  0  0  0  0  0  0  0  0  0
  -22.1232  -15.6508  137.5294 C   0  0  0  0  0  0  0  0  0  0  0  0
  -24.5595  -16.3958  137.7013 C   0  0  0  0  0  0  0  0  0  0  0  0
  -22.1586  -17.1702  137.4835 C   0  0  0  0  0  0  0  0  0  0  0  0
  -24.2324  -21.7905  139.0390 C   0  0  0  0  0  0  0  0  0  0  0  0
  -22.2264  -22.1037  135.8440 C   0  0  0  0  0  0  0  0  0  0  0  0
  2  1  1  0
  3  1  2  0
  4  2  1  0
  7  6  1  0
  8  5  2  0
  9  4  1  0
  9  5  1  0
  9  6  1  0
 10  7  1  0
 11  7  1  0
 12 11  1  0
 13  6  1  0
 13 10  1  0
 15 12  1  0
 16 11  1  0
 16 12  1  0
 16 14  1  0
 18 14  1  0
 19 18  1  0
 20 15  1  0
 20 17  1  0
 21 19  1  0
 22 18  1  0
 22 19  1  0
 23 13  1  0
 23 18  1  0
 23 19  1  0
 23 21  1  0
 24 11  1  0
 24 12  1  0
 25 15  1  0
 25 17  1  0
M  END
$$$$

     RDKit          3D

 11 13  0  0  0  0  0  0  0  0999 V2000
  -30.8374  -10.4066  149.2028 O   0  0  0  0  0  0  0  0  0  0  0  0
  -32.2278  -10.1648  149.1788 C   0  0  0  0  0  0  0  0  0  0  0  0
  -32.5838   -9.5004  147.9955 O   0  0  0  0  0  0  0  0  0  0  0  0
  -31.6704  -11.5199  148.9942 C   0  0  0  0  0  0  0  0  0  0  0  0
  -31.6709  -12.3773  150.0778 F   0  0  0  0  0  0  0  0  0  0  0  0
  -31.5490  -12.0258  147.7129 F   0  0  0  0  0  0  0  0  0  0  0  0
  -33.9802   -9.5998  147.8795 C   0  0  0  0  0  0  0  0  0  0  0  0
  -34.7202   -8.3854  148.3990 C   0  0  0  0  0  0  0  0  0  0  0  0
  -35.6604   -7.7760  147.3801 C   0  0  0  0  0  0  0  0  0  0  0  0
  -35.4797   -6.2709  147.1857 C   0  0  0  0  0  0  0  0  0  0  0  0
  -34.5442   -8.6451  146.8658 C   0  0  0  0  0  0  0  0  0  0  0  0
  2  1  1  0
  3  2  1  0
  4  1  1  0
  4  2  1  0
  5  4  1  0
  6  4  1  0
  7  3  1  0
  8  7  1  0
  9  8  1  0
 10  9  1  0
 11  7  1  0
 11  8  1  0
 11  9  1  0
M  END
$$$$

     RDKit          3D

 25 29  0  0  0  0  0  0  0  0999 V2000
  -21.3595   -0.3826  140.9275 O   0  0  0  0  0  0  0  0  0  0  0  0
  -20.1826    0.0816  141.5353 C   0  0  0  0  0  0  0  0  0  0  0  0
  -19.5837    2.5230  142.7106 C   0  0  0  0  0  0  0  0  0  0  0  0
  -21.0489    2.6216  141.0352 C   0  0  0  0  0  0  0  0  0  0  0  0
  -20.5816    2.7367  139.5797 C   0  0  0  0  0  0  0  0  0  0  0  0
  -19.7366    1.4828  139.3126 C   0  0  0  0  0  0  0  0  0  0  0  0
  -20.2078    1.5853  141.7132 C   0  0  0  0  0  0  0  0  0  0  0  0
  -20.4499    3.6284  142.0550 C   0  0  0  0  0  0  0  0  0  0  0  0
  -18.5699    1.7023  138.2854 C   0  0  0  0  0  0  0  0  0  0  0  0
  -18.9218    1.1754  136.8766 C   0  0  0  0  0  0  0  0  0  0  0  0
  -17.6662    2.9699  138.3143 C   0  0  0  0  0  0  0  0  0  0  0  0
  -19.2631    0.9740  140.6814 C   0  0  0  0  0  0  0  0  0  0  0  0
  -17.2655    3.4048  139.7387 C   0  0  0  0  0  0  0  0  0  0  0  0
  -15.8133    3.6381  140.1868 C   0  0  0  0  0  0  0  0  0  0  0  0
  -16.6576    4.8097  139.7253 C   0  0  0  0  0  0  0  0  0  0  0  0
  -18.3281    1.8714  135.6809 C   0  0  0  0  0  0  0  0  0  0  0  0
  -14.6652    3.2891  139.2631 C   0  0  0  0  0  0  0  0  0  0  0  0
  -14.4543    1.8807  138.7838 C   0  0  0  0  0  0  0  0  0  0  0  0
  -17.9151    0.4278  137.7509 C   0  0  0  0  0  0  0  0  0  0  0  0
  -18.7953    3.0460  135.2179 C   0  0  0  0  0  0  0  0  0  0  0  0
  -19.9177    3.6778  135.7562 O   0  0  0  0  0  0  0  0  0  0  0  0
  -14.9778    0.6959  139.5282 C   0  0  0  0  0  0  0  0  0  0  0  0
  -13.7201    4.2254  139.0592 C   0  0  0  0  0  0  0  0  0  0  0  0
  -15.3772    0.7608  140.7957 C   0  0  0  0  0  0  0  0  0  0  0  0
  -13.8126    1.6527  137.6250 C   0  0  0  0  0  0  0  0  0  0  0  0
  2  1  1  0
  5  4  1  0
  6  5  1  0
  7  2  1  0
  7  3  1  0
  7  4  1  0
  8  3  1  0
  8  4  1  0
  9  6  1  0
 10  9  1  0
 11  9  1  0
 12  2  1  0
 12  6  1  0
 12  7  1  0
 13 11  1  0
 14 13  1  0
 15 13  1  0
 15 14  1  0
 16 10  1  0
 17 14  1  0
 18 17  1  0
 19  9  1  0
 19 10  1  0
 20 16  2  3
 21 20  1  0
 22 18  1  0
 23 17  2  0
 24 22  2  0
 25 18  2  0
M  END
$$$$

     RDKit          3D

 25 29  0  0  0  0  0  0  0  0999 V2000
  -23.8121   -3.2813  145.0674 O   0  0  0  0  0  0  0  0  0  0  0  0
  -25.1202   -3.7849  145.1687 C   0  0  0  0  0  0  0  0  0  0  0  0
  -25.8775   -2.9649  146.2139 C   0  0  0  0  0  0  0  0  0  0  0  0
  -25.9824   -1.4365  145.9888 C   0  0  0  0  0  0  0  0  0  0  0  0
  -23.8360   -0.6029  147.5298 C   0  0  0  0  0  0  0  0  0  0  0  0
  -24.1190   -1.6089  148.6772 C   0  0  0  0  0  0  0  0  0  0  0  0
  -25.7129   -3.8424  143.7349 C   0  0  0  0  0  0  0  0  0  0  0  0
  -22.9829   -1.7541  149.6701 C   0  0  0  0  0  0  0  0  0  0  0  0
  -24.6960   -0.5952  146.2520 C   0  0  0  0  0  0  0  0  0  0  0  0
  -24.9463    0.4101  147.3867 C   0  0  0  0  0  0  0  0  0  0  0  0
  -23.2113   -2.8239  148.6281 C   0  0  0  0  0  0  0  0  0  0  0  0
  -27.1232   -4.4872  143.5761 C   0  0  0  0  0  0  0  0  0  0  0  0
  -27.2509   -5.1454  142.1456 C   0  0  0  0  0  0  0  0  0  0  0  0
  -29.3561   -3.7633  144.7314 C   0  0  0  0  0  0  0  0  0  0  0  0
  -27.8843   -6.5315  141.9441 C   0  0  0  0  0  0  0  0  0  0  0  0
  -28.6165   -7.2375  143.0034 C   0  0  0  0  0  0  0  0  0  0  0  0
  -29.7983   -8.0676  142.4504 C   0  0  0  0  0  0  0  0  0  0  0  0
  -30.5871   -8.8499  143.5275 C   0  0  0  0  0  0  0  0  0  0  0  0
  -26.9085   -7.8966  142.7009 S   0  0  0  0  0  0  0  0  0  0  0  0
  -31.2313   -7.9613  144.5285 C   0  0  0  0  0  0  0  0  0  0  0  0
  -30.3243   -2.7756  144.6820 F   0  0  0  0  0  0  0  0  0  0  0  0
  -28.2275   -3.3891  143.7856 C   0  0  0  0  0  0  0  0  0  0  0  0
  -31.8048   -8.0223  143.0927 C   0  0  0  0  0  0  0  0  0  0  0  0
  -33.2392   -7.7285  143.3418 N   0  0  0  0  0  0  0  0  0  0  0  0
  -31.0296   -7.1748  142.1463 C   0  0  0  0  0  0  0  0  0  0  0  0
  2  1  1  0
  3  2  1  0
  4  3  1  0
  6  5  1  0
  7  2  1  0
  8  6  1  0
  9  4  1  0
  9  5  1  0
 10  5  1  0
 10  9  1  0
 11  6  1  0
 11  8  1  0
 12  7  1  0
 13 12  1  0
 15 13  1  0
 16 15  1  0
 17 16  1  0
 18 17  1  0
 19 15  1  0
 19 16  1  0
 20 18  1  0
 21 14  1  0
 22 12  1  0
 22 14  1  0
 23 18  1  0
 23 20  1  0
 24 23  1  0
 25 17  1  0
 25 23  1  0
M  END
$$$$

     RDKit          3D

 25 34  0  0  0  0  0  0  0  0999 V2000
  -23.0717  -19.1626  143.3972 C   0  0  0  0  0  0  0  0  0  0  0  0
  -23.5392  -18.5509  142.0314 C   0  0  0  0  0  0  0  0  0  0  0  0
  -21.6913  -18.5239  143.6741 C   0  0  0  0  0  0  0  0  0  0  0  0
  -21.4619  -17.8082  144.9401 C   0  0  0  0  0  0  0  0  0  0  0  0
  -21.2708  -16.2908  144.8282 C   0  0  0  0  0  0  0  0  0  0  0  0
  -22.4426  -15.3429  144.7912 C   0  0  0  0  0  0  0  0  0  0  0  0
  -23.5154  -17.0199  141.7521 C   0  0  0  0  0  0  0  0  0  0  0  0
  -23.1494  -14.9882  145.8792 C   0  0  0  0  0  0  0  0  0  0  0  0
  -24.3787  -16.5989  140.5552 C   0  0  0  0  0  0  0  0  0  0  0  0
  -22.9009  -15.5329  147.2737 C   0  0  0  0  0  0  0  0  0  0  0  0
  -22.8444  -18.3966  144.7131 C   0  0  0  0  0  0  0  0  0  0  0  0
  -21.1267  -17.1195  143.5787 C   0  0  0  0  0  0  0  0  0  0  0  0
  -24.8156  -19.1663  141.6267 N   0  0  0  0  0  0  0  0  0  0  0  0
  -25.2800  -20.0166  142.7300 C   0  0  0  0  0  0  0  0  0  0  0  0
  -21.8804  -14.7675  148.1649 C   0  0  0  0  0  0  0  0  0  0  0  0
  -24.5290  -18.8011  143.0403 C   0  0  0  0  0  0  0  0  0  0  0  0
  -24.1848  -15.1592  140.3092 N   0  0  0  0  0  0  0  0  0  0  0  0
  -23.8637  -14.9080  138.8919 C   0  0  0  0  0  0  0  0  0  0  0  0
  -25.2426  -14.6632  139.4111 C   0  0  0  0  0  0  0  0  0  0  0  0
  -20.7785  -13.9484  147.4978 C   0  0  0  0  0  0  0  0  0  0  0  0
  -21.8654  -13.2391  148.3071 C   0  0  0  0  0  0  0  0  0  0  0  0
  -24.2281  -15.6893  148.0213 C   0  0  0  0  0  0  0  0  0  0  0  0
  -22.8176  -12.3526  147.4832 C   0  0  0  0  0  0  0  0  0  0  0  0
  -22.6220  -10.8855  147.8500 C   0  0  0  0  0  0  0  0  0  0  0  0
  -25.0490  -15.0839  137.9758 C   0  0  0  0  0  0  0  0  0  0  0  0
  2  1  1  0
  3  1  1  0
  4  3  1  0
  5  4  1  0
  6  5  1  0
  7  2  1  0
  8  6  2  3
  9  7  1  0
 10  8  1  0
 11  1  1  0
 11  3  1  0
 11  4  1  0
 12  3  1  0
 12  4  1  0
 12  5  1  0
 13  2  1  0
 14 13  1  0
 15 10  1  0
 16  1  1  0
 16  2  1  0
 16 13  1  0
 16 14  1  0
 17  9  1  0
 18 17  1  0
 19 17  1  0
 19 18  1  0
 20 15  1  0
 21 15  1  0
 21 20  1  0
 22 10  1  0
 23 21  1  0
 24 23  1  0
 25 18  1  0
 25 19  1  0
M  END
$$$$

     RDKit          3D

 19 23  0  0  0  0  0  0  0  0999 V2000
  -28.8421  -18.4054  147.8008 O   0  0  0  0  0  0  0  0  0  0  0  0
  -29.5989  -19.4533  148.4237 C   0  0  0  0  0  0  0  0  0  0  0  0
  -30.6730  -18.8395  149.3728 C   0  0  0  0  0  0  0  0  0  0  0  0
  -31.2431  -17.5153  148.9158 C   0  0  0  0  0  0  0  0  0  0  0  0
  -28.8682  -20.6115  149.1773 C   0  0  0  0  0  0  0  0  0  0  0  0
  -30.4899  -16.2989  149.3983 C   0  0  0  0  0  0  0  0  0  0  0  0
  -26.8208  -17.0834  147.7904 C   0  0  0  0  0  0  0  0  0  0  0  0
  -26.9266  -19.3470  146.7031 C   0  0  0  0  0  0  0  0  0  0  0  0
  -25.4769  -19.4997  146.8486 C   0  0  0  0  0  0  0  0  0  0  0  0
  -32.7324  -17.3985  149.2853 C   0  0  0  0  0  0  0  0  0  0  0  0
  -24.7683  -19.0610  145.5698 C   0  0  0  0  0  0  0  0  0  0  0  0
  -27.4382  -18.5031  147.8855 C   0  0  0  0  0  0  0  0  0  0  0  0
  -24.4245  -17.5841  145.6106 C   0  0  0  0  0  0  0  0  0  0  0  0
  -25.2350  -16.5159  145.8684 C   0  0  0  0  0  0  0  0  0  0  0  0
  -26.6746  -16.5241  146.3466 C   0  0  0  0  0  0  0  0  0  0  0  0
  -30.3135  -17.5913  150.1677 C   0  0  0  0  0  0  0  0  0  0  0  0
  -28.1349  -21.6160  148.2617 C   0  0  0  0  0  0  0  0  0  0  0  0
  -26.6214  -21.3446  148.0907 C   0  0  0  0  0  0  0  0  0  0  0  0
  -26.3440  -20.7047  146.7900 N   0  0  0  0  0  0  0  0  0  0  0  0
  2  1  1  0
  3  2  1  0
  4  3  1  0
  5  2  1  0
  6  4  1  0
  9  8  1  0
 10  4  1  0
 11  9  1  0
 12  1  1  0
 12  7  1  0
 12  8  1  0
 13 11  1  0
 14 13  2  3
 15  7  1  0
 15 14  1  0
 16  3  1  0
 16  4  1  0
 16  6  1  0
 17  5  1  0
 18 17  1  0
 19  8  1  0
 19  9  1  0
 19 18  1  0
M  END
$$$$

     RDKit          3D

 25 33  0  0  0  0  0  0  0  0999 V2000
  -33.2716   -9.6413  147.3900 C   0  0  0  0  0  0  0  0  0  0  0  0
  -34.0609   -9.4503  145.9389 C   0  0  0  0  0  0  0  0  0  0  0  0
  -31.9892   -8.7435  147.8224 C   0  0  0  0  0  0  0  0  0  0  0  0
  -31.7291   -8.3938  146.5823 C   0  0  0  0  0  0  0  0  0  0  0  0
  -33.6576  -10.5038  144.9886 C   0  0  0  0  0  0  0  0  0  0  0  0
  -29.2152  -10.3411  145.7462 C   0  0  0  0  0  0  0  0  0  0  0  0
  -30.7609   -9.0575  144.7230 C   0  0  0  0  0  0  0  0  0  0  0  0
  -32.3836   -9.7584  144.3843 C   0  0  0  0  0  0  0  0  0  0  0  0
  -28.1389   -9.7493  144.7315 C   0  0  0  0  0  0  0  0  0  0  0  0
  -26.8313   -9.7270  145.1635 C   0  0  0  0  0  0  0  0  0  0  0  0
  -30.7148   -9.7249  145.8392 C   0  0  0  0  0  0  0  0  0  0  0  0
  -25.5422   -9.7892  147.2968 C   0  0  0  0  0  0  0  0  0  0  0  0
  -24.3736   -7.5717  146.6209 C   0  0  0  0  0  0  0  0  0  0  0  0
  -26.3543  -12.0953  145.7642 C   0  0  0  0  0  0  0  0  0  0  0  0
  -33.4339  -10.7692  146.4133 C   0  0  0  0  0  0  0  0  0  0  0  0
  -26.9531  -12.4551  144.3636 C   0  0  0  0  0  0  0  0  0  0  0  0
  -33.5111   -8.7031  144.6403 C   0  0  0  0  0  0  0  0  0  0  0  0
  -30.3914   -8.7396  148.2542 C   0  0  0  0  0  0  0  0  0  0  0  0
  -32.4693  -11.1050  145.2524 C   0  0  0  0  0  0  0  0  0  0  0  0
  -24.2207   -9.0995  146.7306 C   0  0  0  0  0  0  0  0  0  0  0  0
  -25.4537  -12.4577  144.5679 C   0  0  0  0  0  0  0  0  0  0  0  0
  -31.2872  -11.1496  145.8817 C   0  0  0  0  0  0  0  0  0  0  0  0
  -26.3852  -10.5883  146.2784 C   0  0  0  0  0  0  0  0  0  0  0  0
  -29.2389   -7.9971  147.2191 C   0  0  0  0  0  0  0  0  0  0  0  0
  -29.6814   -7.7924  145.5387 C   0  0  0  0  0  0  0  0  0  0  0  0
  2  1  1  0
  3  1  1  0
  4  3  1  0
  5  2  1  0
  8  5  1  0
  8  7  1  0
  9  6  1  0
 10  9  2  3
 11  4  1  0
 11  6  1  0
 11  7  1  0
 15  1  1  0
 15  2  1  0
 15  5  1  0
 16 14  1  0
 17  2  1  0
 17  8  1  0
 18  3  1  0
 19  5  1  0
 19  8  1  0
 19 15  1  0
 20 12  1  0
 20 13  1  0
 21 14  1  0
 21 16  1  0
 22 11  1  0
 22 19  1  0
 23 10  1  0
 23 12  1  0
 23 14  1  0
 24 18  1  0
 25  7  1  0
 25 24  1  0
M  END
$$$$

     RDKit          3D

 25 32  0  0  0  0  0  0  0  0999 V2000
  -33.1018   -9.5519  142.3764 O   0  0  0  0  0  0  0  0  0  0  0  0
  -31.9448   -9.9222  141.6799 C   0  0  0  0  0  0  0  0  0  0  0  0
  -32.0533  -10.0017  140.2816 O   0  0  0  0  0  0  0  0  0  0  0  0
  -31.4312   -8.8499  140.8169 C   0  0  0  0  0  0  0  0  0  0  0  0
  -29.8909   -8.9091  140.8175 C   0  0  0  0  0  0  0  0  0  0  0  0
  -29.2265   -7.4743  140.8951 C   0  0  0  0  0  0  0  0  0  0  0  0
  -28.0733   -7.4165  141.9629 C   0  0  0  0  0  0  0  0  0  0  0  0
  -26.9610   -6.3419  141.7167 C   0  0  0  0  0  0  0  0  0  0  0  0
  -28.8146   -6.8848  139.4775 C   0  0  0  0  0  0  0  0  0  0  0  0
  -27.0959   -5.3249  142.8956 C   0  0  0  0  0  0  0  0  0  0  0  0
  -27.6999   -5.8262  144.1421 N   0  0  0  0  0  0  0  0  0  0  0  0
  -25.8239   -4.5756  143.1764 C   0  0  0  0  0  0  0  0  0  0  0  0
  -26.7241   -7.8797  141.5905 C   0  0  0  0  0  0  0  0  0  0  0  0
  -25.5696   -3.5443  142.1757 N   0  0  0  0  0  0  0  0  0  0  0  0
  -25.7606   -6.0062  142.6457 C   0  0  0  0  0  0  0  0  0  0  0  0
  -29.8562   -6.3807  138.4218 C   0  0  0  0  0  0  0  0  0  0  0  0
  -31.2421   -6.0770  138.9143 C   0  0  0  0  0  0  0  0  0  0  0  0
  -29.5011   -9.9148  141.9304 C   0  0  0  0  0  0  0  0  0  0  0  0
  -29.9538   -7.0379  137.0532 C   0  0  0  0  0  0  0  0  0  0  0  0
  -30.7826  -10.6048  142.3672 C   0  0  0  0  0  0  0  0  0  0  0  0
  -29.0793   -8.1716  136.4554 C   0  0  0  0  0  0  0  0  0  0  0  0
  -28.9391   -9.5005  137.2196 C   0  0  0  0  0  0  0  0  0  0  0  0
  -30.0480   -9.7166  143.3461 C   0  0  0  0  0  0  0  0  0  0  0  0
  -30.9680   -7.3845  138.1553 C   0  0  0  0  0  0  0  0  0  0  0  0
  -27.7084   -7.6122  136.0474 C   0  0  0  0  0  0  0  0  0  0  0  0
  2  1  1  0
  3  2  1  0
  4  2  1  0
  4  3  1  0
  5  4  1  0
  6  5  1  0
  7  6  1  0
  8  7  1  0
  9  6  1  0
 10  8  1  0
 11 10  1  0
 12 10  1  0
 13  7  1  0
 13  8  1  0
 14 12  1  0
 15  8  1  0
 15 10  1  0
 15 12  1  0
 16  9  1  0
 17 16  1  0
 18  5  1  0
 19 16  1  0
 20  2  1  0
 20 18  1  0
 21 19  1  0
 22 21  1  0
 23 18  1  0
 23 20  1  0
 24 16  1  0
 24 17  1  0
 24 19  1  0
 25 21  1  0
M  END
$$$$

     RDKit          3D

 25 32  0  0  0  0  0  0  0  0999 V2000
  -24.5048  -12.5638  151.4196 Mg  0  0  0  0  0  2  0  0  0  0  0  0
  -27.4489  -18.7060  144.3420 C   0  0  0  0  0  0  0  0  0  0  0  0
  -27.2743  -18.4647  142.8475 C   0  0  0  0  0  0  0  0  0  0  0  0
  -27.3911  -17.3692  145.0966 C   0  0  0  0  0  0  0  0  0  0  0  0
  -26.1942  -16.3781  145.0693 C   0  0  0  0  0  0  0  0  0  0  0  0
  -26.2002  -19.1903  143.6318 C   0  0  0  0  0  0  0  0  0  0  0  0
  -26.8707  -13.2314  150.3816 C   0  0  0  0  0  0  0  0  0  0  0  0
  -24.4398  -17.2264  146.8601 C   0  0  0  0  0  0  0  0  0  0  0  0
  -24.1915  -16.9110  148.3197 C   0  0  0  0  0  0  0  0  0  0  0  0
  -27.9923  -17.4472  143.7054 C   0  0  0  0  0  0  0  0  0  0  0  0
  -25.8235  -12.2453  149.8131 C   0  0  0  0  0  0  0  0  0  0  0  0
  -26.5716  -14.7179  150.5804 C   0  0  0  0  0  0  0  0  0  0  0  0
  -25.5819  -16.4314  148.8873 C   0  0  0  0  0  0  0  0  0  0  0  0
  -24.5918  -19.0670  148.3615 C   0  0  0  0  0  0  0  0  0  0  0  0
  -25.2951  -15.3433  149.9798 C   0  0  0  0  0  0  0  0  0  0  0  0
  -26.2382  -13.7453  151.6912 C   0  0  0  0  0  0  0  0  0  0  0  0
  -23.7396  -18.0985  148.9098 O   0  0  0  0  0  0  0  0  0  0  0  0
  -26.4012  -17.6627  149.5426 C   0  0  0  0  0  0  0  0  0  0  0  0
  -25.4297  -16.1470  146.4035 C   0  0  0  0  0  0  0  0  0  0  0  0
  -25.8363  -19.0949  149.2411 C   0  0  0  0  0  0  0  0  0  0  0  0
  -24.9459  -18.6486  146.9286 C   0  0  0  0  0  0  0  0  0  0  0  0
  -27.9506  -17.6617  149.3471 C   0  0  0  0  0  0  0  0  0  0  0  0
  -26.2676  -15.7705  147.6359 C   0  0  0  0  0  0  0  0  0  0  0  0
  -28.6459  -18.4640  150.4622 C   0  0  0  0  0  0  0  0  0  0  0  0
  -30.1555  -18.5515  150.2708 C   0  0  0  0  0  0  0  0  0  0  0  0
  3  2  1  0
  4  2  1  0
  5  4  1  0
  6  2  1  0
  6  3  1  0
  9  8  1  0
 10  2  1  0
 10  3  1  0
 10  4  1  0
 11  1  1  0
 11  7  1  0
 12  7  1  0
 13  9  1  0
 15 12  1  0
 15 13  1  0
 16  1  1  0
 16  7  1  0
 16 12  1  0
 17  9  1  0
 17 14  1  0
 18 13  1  0
 19  5  1  0
 19  8  1  0
 20 14  1  0
 20 18  1  0
 21  8  1  0
 21 14  1  0
 22 18  1  0
 23 13  1  0
 23 19  1  0
 24 22  1  0
 25 24  1  0
M  END
$$$$

     RDKit          3D

 25 34  0  0  0  0  0  0  0  0999 V2000
  -25.2828   -7.0748  144.1434 C   0  0  0  0  0  0  0  0  0  0  0  0
  -26.2680   -7.3312  143.1887 C   0  0  0  0  0  0  0  0  0  0  0  0
  -26.9558   -8.6882  143.2727 C   0  0  0  0  0  0  0  0  0  0  0  0
  -27.9404   -9.0643  144.4297 C   0  0  0  0  0  0  0  0  0  0  0  0
  -24.4684   -5.7620  144.3443 C   0  0  0  0  0  0  0  0  0  0  0  0
  -24.8525   -4.9276  145.6241 C   0  0  0  0  0  0  0  0  0  0  0  0
  -23.8999   -5.2210  146.8115 C   0  0  0  0  0  0  0  0  0  0  0  0
  -24.1533   -6.5360  147.5802 C   0  0  0  0  0  0  0  0  0  0  0  0
  -24.9166   -6.3096  148.8869 C   0  0  0  0  0  0  0  0  0  0  0  0
  -26.3645   -5.0038  146.0180 C   0  0  0  0  0  0  0  0  0  0  0  0
  -25.2961   -8.1790  149.8488 I   0  0  0  0  0  0  0  0  0  0  0  0
  -27.6777   -8.0566  145.4004 O   0  0  0  0  0  0  0  0  0  0  0  0
  -29.0076   -8.3702  145.2534 C   0  0  0  0  0  0  0  0  0  0  0  0
  -26.4689   -6.5972  141.7961 C   0  0  0  0  0  0  0  0  0  0  0  0
  -26.7570   -5.1199  141.7502 C   0  0  0  0  0  0  0  0  0  0  0  0
  -25.4113   -5.5836  141.1665 C   0  0  0  0  0  0  0  0  0  0  0  0
  -23.2072   -5.0487  143.5316 C   0  0  0  0  0  0  0  0  0  0  0  0
  -22.7442   -5.5765  142.1664 C   0  0  0  0  0  0  0  0  0  0  0  0
  -24.1416   -6.0785  141.8926 C   0  0  0  0  0  0  0  0  0  0  0  0
  -24.5519   -5.1421  143.0144 C   0  0  0  0  0  0  0  0  0  0  0  0
  -27.1966   -4.7455  144.8029 C   0  0  0  0  0  0  0  0  0  0  0  0
  -26.7372   -3.8400  144.0295 N   0  0  0  0  0  0  0  0  0  0  0  0
  -25.4451   -4.3406  142.0632 C   0  0  0  0  0  0  0  0  0  0  0  0
  -26.7783   -3.8578  142.5999 C   0  0  0  0  0  0  0  0  0  0  0  0
  -28.4112   -8.6469  143.0089 C   0  0  0  0  0  0  0  0  0  0  0  0
  2  1  2  0
  3  2  1  0
  4  3  1  0
  5  1  1  0
  6  5  1  0
  7  6  1  0
  8  7  1  0
  9  8  1  0
 10  6  1  0
 11  9  1  0
 12  4  1  0
 13  4  1  0
 13 12  1  0
 14  2  1  0
 15 14  1  0
 16 14  1  0
 16 15  1  0
 17  5  1  0
 18 17  1  0
 19 16  1  0
 19 18  1  0
 20  5  1  0
 20 17  1  0
 20 19  1  0
 21 10  1  0
 22 21  2  3
 23 15  1  0
 23 16  1  0
 23 20  1  0
 24 15  1  0
 24 22  1  0
 24 23  1  0
 25  3  1  0
 25  4  1  0
M  END
$$$$

     RDKit          3D

 25 29  0  0  0  0  0  0  0  0999 V2000
  -29.8299  -16.2333  143.2645 O   0  0  0  0  0  0  0  0  0  0  0  0
  -28.7513  -15.5728  142.6648 C   0  0  0  0  0  0  0  0  0  0  0  0
  -27.2906  -15.8186  143.2152 C   0  0  0  0  0  0  0  0  0  0  0  0
  -26.3969  -14.6634  143.4487 C   0  0  0  0  0  0  0  0  0  0  0  0
  -27.0604  -16.7459  144.3570 C   0  0  0  0  0  0  0  0  0  0  0  0
  -27.1036  -15.2847  144.5851 N   0  0  0  0  0  0  0  0  0  0  0  0
  -28.1020  -17.4491  145.2628 C   0  0  0  0  0  0  0  0  0  0  0  0
  -30.4760  -15.0033  143.5016 C   0  0  0  0  0  0  0  0  0  0  0  0
  -27.5984  -17.4248  146.7297 C   0  0  0  0  0  0  0  0  0  0  0  0
  -28.4191  -18.2977  147.6993 C   0  0  0  0  0  0  0  0  0  0  0  0
  -28.2991  -18.8351  144.8114 N   0  0  0  0  0  0  0  0  0  0  0  0
  -29.0869  -14.7887  141.3967 C   0  0  0  0  0  0  0  0  0  0  0  0
  -29.8823  -17.8370  147.8979 C   0  0  0  0  0  0  0  0  0  0  0  0
  -30.9026  -18.7706  147.2151 C   0  0  0  0  0  0  0  0  0  0  0  0
  -30.9556  -20.2617  147.5363 C   0  0  0  0  0  0  0  0  0  0  0  0
  -28.0215  -13.9880  140.6259 C   0  0  0  0  0  0  0  0  0  0  0  0
  -31.9972  -19.3254  148.1294 C   0  0  0  0  0  0  0  0  0  0  0  0
  -29.4285  -14.2091  142.7718 C   0  0  0  0  0  0  0  0  0  0  0  0
  -31.4183  -18.3797  145.9741 O   0  0  0  0  0  0  0  0  0  0  0  0
  -27.3221  -14.8564  139.5370 C   0  0  0  0  0  0  0  0  0  0  0  0
  -27.6543  -14.4507  138.0658 C   0  0  0  0  0  0  0  0  0  0  0  0
  -25.7998  -14.9172  139.7686 C   0  0  0  0  0  0  0  0  0  0  0  0
  -29.1578  -14.5604  137.7282 C   0  0  0  0  0  0  0  0  0  0  0  0
  -27.1174  -13.0484  137.6910 C   0  0  0  0  0  0  0  0  0  0  0  0
  -29.6584  -15.9093  137.9984 N   0  0  0  0  0  0  0  0  0  0  0  0
  2  1  1  0
  3  2  1  0
  4  3  1  0
  5  3  1  0
  6  3  1  0
  6  4  1  0
  6  5  1  0
  7  5  1  0
  8  1  1  0
  9  7  1  0
 10  9  1  0
 11  7  1  0
 12  2  1  0
 13 10  1  0
 14 13  1  0
 15 14  1  0
 16 12  1  0
 17 14  1  0
 17 15  1  0
 18  2  1  0
 18  8  1  0
 18 12  1  0
 19 14  1  0
 20 16  1  0
 21 20  1  0
 22 20  1  0
 23 21  1  0
 24 21  1  0
 25 23  1  0
M  END
$$$$

     RDKit          3D

 25 27  0  0  0  0  0  0  0  0999 V2000
  -25.7951   -5.7166  148.7137 C   0  0  0  0  0  0  0  0  0  0  0  0
  -26.9929   -3.6887  146.9713 C   0  0  0  0  0  0  0  0  0  0  0  0
  -28.3862   -3.2259  147.3844 C   0  0  0  0  0  0  0  0  0  0  0  0
  -24.4037   -4.9448  149.2621 C   0  0  0  0  0  0  0  0  0  0  0  0
  -28.7559   -1.8198  146.7489 C   0  0  0  0  0  0  0  0  0  0  0  0
  -28.9672   -3.9269  148.7032 C   0  0  0  0  0  0  0  0  0  0  0  0
  -26.4300   -5.2671  147.2544 C   0  0  0  0  0  0  0  0  0  0  0  0
  -29.6403   -5.2840  148.1596 C   0  0  0  0  0  0  0  0  0  0  0  0
  -28.6878   -5.3483  149.4134 C   0  0  0  0  0  0  0  0  0  0  0  0
  -22.1787   -6.5316  149.0191 C   0  0  0  0  0  0  0  0  0  0  0  0
  -21.9956   -7.5750  147.8847 C   0  0  0  0  0  0  0  0  0  0  0  0
  -27.1375   -5.8753  149.6070 C   0  0  0  0  0  0  0  0  0  0  0  0
  -23.1335   -8.6104  147.8886 C   0  0  0  0  0  0  0  0  0  0  0  0
  -22.9523   -5.2020  148.6662 C   0  0  0  0  0  0  0  0  0  0  0  0
  -23.8026   -9.1112  146.6223 C   0  0  0  0  0  0  0  0  0  0  0  0
  -25.3657   -9.4851  146.8215 C   0  0  0  0  0  0  0  0  0  0  0  0
  -26.3808   -8.7417  145.8100 C   0  0  0  0  0  0  0  0  0  0  0  0
  -22.7051   -9.9676  147.3517 C   0  0  0  0  0  0  0  0  0  0  0  0
  -27.7744  -10.6576  144.5409 C   0  0  0  0  0  0  0  0  0  0  0  0
  -25.6807  -10.9725  147.2374 C   0  0  0  0  0  0  0  0  0  0  0  0
  -25.3695  -12.0836  146.2819 N   0  0  0  0  0  0  0  0  0  0  0  0
  -28.9226  -10.5561  145.2700 C   0  0  0  0  0  0  0  0  0  0  0  0
  -26.4548  -13.0736  146.3966 N   0  0  0  0  0  0  0  0  0  0  0  0
  -26.8631   -9.4333  144.4387 C   0  0  0  0  0  0  0  0  0  0  0  0
  -25.6491   -9.5723  143.4661 C   0  0  0  0  0  0  0  0  0  0  0  0
  3  2  1  0
  4  1  1  0
  5  3  1  0
  6  3  1  0
  7  1  1  0
  7  2  1  0
  8  6  1  0
  9  6  1  0
  9  8  1  0
 11 10  1  0
 12  1  1  0
 12  9  1  0
 13 11  1  0
 14  4  1  0
 14 10  1  0
 15 13  1  0
 16 15  1  0
 17 16  1  0
 18 13  1  0
 18 15  1  0
 20 16  1  0
 21 20  1  0
 22 19  2  0
 23 21  1  0
 24 17  1  0
 24 19  1  0
 25 24  1  0
M  END
$$$$

     RDKit          3D

 11 12  0  0  0  0  0  0  0  0999 V2000
  -24.9506  -18.3754  145.7468 O   0  0  0  0  0  0  0  0  0  0  0  0
  -24.5735  -17.1287  145.2121 C   0  0  0  0  0  0  0  0  0  0  0  0
  -23.4547  -16.6183  145.8797 O   0  0  0  0  0  0  0  0  0  0  0  0
  -25.8024  -17.2867  146.0292 C   0  0  0  0  0  0  0  0  0  0  0  0
  -25.7303  -16.8992  147.4742 C   0  0  0  0  0  0  0  0  0  0  0  0
  -25.5793  -15.6861  147.7820 O   0  0  0  0  0  0  0  0  0  0  0  0
  -25.8791  -17.8926  148.4959 N   0  0  0  0  0  0  0  0  0  0  0  0
  -25.7439  -17.5609  149.9133 C   0  0  0  0  0  0  0  0  0  0  0  0
  -26.7510  -18.2202  150.8552 C   0  0  0  0  0  0  0  0  0  0  0  0
  -27.7956  -19.1691  150.2577 C   0  0  0  0  0  0  0  0  0  0  0  0
  -26.9185  -16.7573  150.4615 C   0  0  0  0  0  0  0  0  0  0  0  0
  2  1  1  0
  3  2  1  0
  4  1  1  0
  4  2  1  0
  5  4  1  0
  6  5  2  0
  7  5  1  0
  8  7  1  0
  9  8  1  0
 10  9  1  0
 11  8  1  0
 11  9  1  0
M  END
$$$$

     RDKit          3D

 23 27  0  0  0  0  0  0  0  0999 V2000
  -29.4003   -0.6327  136.6572 O   0  0  0  0  0  0  0  0  0  0  0  0
  -31.1461    3.3781  138.2588 O   0  0  0  0  0  0  0  0  0  0  0  0
  -28.9001    0.5200  136.2459 O   0  0  0  0  0  0  0  0  0  0  0  0
  -29.9057    1.1438  135.4772 C   0  0  0  0  0  0  0  0  0  0  0  0
  -30.8911    1.9137  136.3709 C   0  0  0  0  0  0  0  0  0  0  0  0
  -30.2196    2.9613  137.2875 C   0  0  0  0  0  0  0  0  0  0  0  0
  -29.7515    4.1932  136.4908 C   0  0  0  0  0  0  0  0  0  0  0  0
  -29.0093    5.2005  137.3845 C   0  0  0  0  0  0  0  0  0  0  0  0
  -28.4375    6.3764  136.5814 C   0  0  0  0  0  0  0  0  0  0  0  0
  -29.5576    7.2267  135.9453 C   0  0  0  0  0  0  0  0  0  0  0  0
  -29.1627    8.4493  135.1013 C   0  0  0  0  0  0  0  0  0  0  0  0
  -27.7295    8.7189  134.9083 N   0  0  0  0  0  0  0  0  0  0  0  0
  -29.6466    7.1731  134.4179 C   0  0  0  0  0  0  0  0  0  0  0  0
  -31.0685    7.2386  133.8613 C   0  0  0  0  0  0  0  0  0  0  0  0
  -27.2302    9.5378  136.0252 C   0  0  0  0  0  0  0  0  0  0  0  0
  -26.4562   10.7632  135.5844 C   0  0  0  0  0  0  0  0  0  0  0  0
  -26.0059   10.8719  134.1250 C   0  0  0  0  0  0  0  0  0  0  0  0
  -25.8177   12.2752  133.5995 C   0  0  0  0  0  0  0  0  0  0  0  0
  -25.1155   13.2129  134.2529 C   0  0  0  0  0  0  0  0  0  0  0  0
  -24.5747   12.9666  135.6331 C   0  0  0  0  0  0  0  0  0  0  0  0
  -24.0770   11.5196  135.7930 C   0  0  0  0  0  0  0  0  0  0  0  0
  -25.7172    9.5696  136.2448 C   0  0  0  0  0  0  0  0  0  0  0  0
  -25.0238   10.4408  135.2100 C   0  0  0  0  0  0  0  0  0  0  0  0
  3  1  1  0
  4  3  1  0
  5  4  1  0
  6  2  1  0
  6  5  1  0
  7  6  1  0
  8  7  1  0
  9  8  1  0
 10  9  1  0
 11 10  1  0
 12 11  1  0
 13 10  1  0
 13 11  1  0
 14 13  1  0
 15 12  1  0
 16 15  1  0
 17 16  1  0
 18 17  1  0
 19 18  2  0
 20 19  1  0
 21 20  1  0
 22 15  1  0
 22 16  1  0
 23 16  1  0
 23 17  1  0
 23 21  1  0
 23 22  1  0
M  END
$$$$

     RDKit          3D

 24 27  0  0  0  0  0  0  0  0999 V2000
  -11.5538   -8.8489  141.8320 N   0  0  0  0  0  2  0  0  0  0  0  0
  -12.3794   -8.1146  140.7941 C   0  0  0  0  0  0  0  0  0  0  0  0
  -11.8195   -8.3701  143.2252 C   0  0  0  0  0  0  0  0  0  0  0  0
  -12.7355   -9.1318  144.0685 N   0  0  0  0  0  2  0  0  0  0  0  0
  -13.1145   -6.8602  141.4677 C   0  0  0  0  0  0  0  0  0  0  0  0
  -11.8011   -6.8986  143.5104 C   0  0  0  0  0  0  0  0  0  0  0  0
  -10.6554   -7.7967  143.9537 N   0  0  0  0  0  0  0  0  0  0  0  0
  -11.7970   -6.2007  142.1655 C   0  0  0  0  0  0  0  0  0  0  0  0
  -13.9298   -5.8183  140.6541 C   0  0  0  0  0  0  0  0  0  0  0  0
  -15.5258   -5.3872  140.4181 C   0  0  0  0  0  0  0  0  0  0  0  0
  -16.0564   -3.9495  141.0376 C   0  0  0  0  0  0  0  0  0  0  0  0
  -16.4466   -4.0011  142.6403 C   0  0  0  0  0  0  0  0  0  0  0  0
  -17.1218   -3.1156  140.1727 C   0  0  0  0  0  0  0  0  0  0  0  0
  -17.5439   -3.2750  143.6194 C   0  0  0  0  0  0  0  0  0  0  0  0
  -16.8332   -2.9182  138.5901 C   0  0  0  0  0  0  0  0  0  0  0  0
  -16.8959   -1.4613  137.9944 C   0  0  0  0  0  0  0  0  0  0  0  0
  -17.7330   -1.8575  140.7520 C   0  0  0  0  0  0  0  0  0  0  0  0
  -16.6916   -1.1557  141.6738 C   0  0  0  0  0  0  0  0  0  0  0  0
  -18.5762   -3.1737  140.7743 C   0  0  0  0  0  0  0  0  0  0  0  0
  -17.0837   -0.8100  143.1499 C   0  0  0  0  0  0  0  0  0  0  0  0
  -15.5553   -0.6364  137.9776 C   0  0  0  0  0  0  0  0  0  0  0  0
  -19.1511   -3.1733  143.5786 C   0  0  0  0  0  0  0  0  0  0  0  0
  -14.2564   -1.4695  137.9440 C   0  0  0  0  0  0  0  0  0  0  0  0
  -16.9880   -1.9397  144.1987 C   0  0  0  0  0  0  0  0  0  0  0  0
  2  1  1  0
  3  1  1  0
  4  3  1  0
  5  2  1  0
  6  3  1  0
  7  3  1  0
  7  6  1  0
  8  5  1  0
  8  6  1  0
  9  5  1  0
 10  9  1  0
 11 10  1  0
 12 11  1  0
 13 11  1  0
 14 12  1  0
 15 13  1  0
 16 15  1  0
 17 13  1  0
 18 17  1  0
 19 13  1  0
 19 17  1  0
 20 18  1  0
 21 16  1  0
 22 14  1  0
 23 21  1  0
 24 14  1  0
 24 20  1  0
M  RAD  2   1   2   4   2
M  END
$$$$

     RDKit          3D

 24 28  0  0  0  0  0  0  0  0999 V2000
  -30.0034  -15.9910  139.2104 C   0  0  0  0  0  0  0  0  0  0  0  0
  -26.9967  -19.3023  138.1315 N   0  0  0  0  0  0  0  0  0  0  0  0
  -30.4222  -22.0150  138.5979 N   0  0  0  0  0  0  0  0  0  0  0  0
  -27.2540  -15.7045  139.7335 P   0  0  0  0  0  0  0  0  0  0  0  0
  -30.1044  -16.8165  140.3373 O   0  0  0  0  0  0  0  0  0  0  0  0
  -26.0603  -18.6636  139.0951 C   0  0  0  0  0  0  0  0  0  0  0  0
  -24.9429  -19.6133  139.6819 C   0  0  0  0  0  0  0  0  0  0  0  0
  -30.6002  -20.6054  138.2586 C   0  0  0  0  0  0  0  0  0  0  0  0
  -24.1082  -20.2430  138.5950 C   0  0  0  0  0  0  0  0  0  0  0  0
  -25.5423  -20.5628  140.6864 C   0  0  0  0  0  0  0  0  0  0  0  0
  -25.3850  -17.4108  138.4547 C   0  0  0  0  0  0  0  0  0  0  0  0
  -26.2848  -16.1530  138.1754 C   0  0  0  0  0  0  0  0  0  0  0  0
  -25.0750  -21.1532  139.3542 C   0  0  0  0  0  0  0  0  0  0  0  0
  -24.1505  -22.2216  139.8696 C   0  0  0  0  0  0  0  0  0  0  0  0
  -27.2384  -16.4788  136.9773 C   0  0  0  0  0  0  0  0  0  0  0  0
  -29.3032  -20.0164  137.6820 C   0  0  0  0  0  0  0  0  0  0  0  0
  -23.9070  -22.1758  141.1669 C   0  0  0  0  0  0  0  0  0  0  0  0
  -28.2095  -19.8590  138.7469 C   0  0  0  0  0  0  0  0  0  0  0  0
  -24.6303  -21.0589  141.8046 C   0  0  0  0  0  0  0  0  0  0  0  0
  -28.0374  -15.3619  136.4408 N   0  0  0  0  0  0  0  0  0  0  0  0
  -27.3415  -14.6172  135.3807 C   0  0  0  0  0  0  0  0  0  0  0  0
  -25.3337  -14.9664  137.8961 C   0  0  0  0  0  0  0  0  0  0  0  0
  -26.8994  -15.9811  135.6462 C   0  0  0  0  0  0  0  0  0  0  0  0
  -28.9214  -14.9232  139.4063 C   0  0  0  0  0  0  0  0  0  0  0  0
  5  1  1  0
  6  2  1  0
  7  6  1  0
  8  3  1  0
  9  7  1  0
 10  7  1  0
 11  6  1  0
 12  4  1  0
 12 11  1  0
 13  7  1  0
 13  9  1  0
 13 10  1  0
 14 13  1  0
 15 12  1  0
 16  8  1  0
 17 14  2  0
 18  2  1  0
 18 16  1  0
 19 10  1  0
 19 17  1  0
 20 15  1  0
 21 20  1  0
 22 12  1  0
 23 15  1  0
 23 20  1  0
 23 21  1  0
 24  1  1  0
 24  4  1  0
M  END
$$$$

     RDKit          3D

 24 27  0  0  0  0  0  0  0  0999 V2000
  -26.7813  -19.4385  145.8122 N   0  0  0  0  0  0  0  0  0  0  0  0
  -26.0828  -18.8259  143.2454 C   0  0  0  0  0  0  0  0  0  0  0  0
  -24.4700  -20.6454  142.0436 N   0  0  0  0  0  0  0  0  0  0  0  0
  -22.7727  -18.0520  145.2460 C   0  0  0  0  0  0  0  0  0  0  0  0
  -25.2973  -17.1634  145.3880 C   0  0  0  0  0  0  0  0  0  0  0  0
  -25.9061  -15.9935  144.8729 O   0  0  0  0  0  0  0  0  0  0  0  0
  -25.3875  -21.5157  142.5745 O   0  0  0  0  0  0  0  0  0  0  0  0
  -21.6358  -23.8407  147.1729 O   0  0  0  0  0  0  0  0  0  0  0  0
  -24.9134  -20.3078  147.0152 C   0  0  0  0  0  0  0  0  0  0  0  0
  -26.1493  -18.4096  144.8361 C   0  0  0  0  0  0  0  0  0  0  0  0
  -26.1380  -19.6373  147.0693 O   0  0  0  0  0  0  0  0  0  0  0  0
  -24.9441  -19.2448  142.1585 C   0  0  0  0  0  0  0  0  0  0  0  0
  -23.1198  -21.4507  148.0939 C   0  0  0  0  0  0  0  0  0  0  0  0
  -22.1913  -19.8994  148.4924 Al  0  0  0  0  0  3  0  0  0  0  0  0
  -22.8185  -19.4365  144.4552 C   0  0  0  0  0  0  0  0  0  0  0  0
  -22.4374  -22.2243  149.3143 C   0  0  0  0  0  0  0  0  0  0  0  0
  -22.6658  -23.6529  149.1966 C   0  0  0  0  0  0  0  0  0  0  0  0
  -26.2559  -21.9402  141.4957 C   0  0  0  0  0  0  0  0  0  0  0  0
  -20.0856  -21.5654  147.7411 C   0  0  0  0  0  0  0  0  0  0  0  0
  -20.9466  -23.0959  148.5589 Si  0  0  0  0  0  4  0  0  0  0  0  0
  -24.1347  -20.4134  148.3682 C   0  0  0  0  0  0  0  0  0  0  0  0
  -22.8711  -24.2229  147.7734 C   0  0  0  0  0  0  0  0  0  0  0  0
  -23.8936  -17.0175  144.8205 C   0  0  0  0  0  0  0  0  0  0  0  0
  -20.2384  -20.1810  148.3978 C   0  0  0  0  0  0  0  0  0  0  0  0
  6  5  1  0
  7  3  1  0
 10  1  1  0
 10  2  1  0
 10  5  1  0
 11  1  1  0
 11  9  1  0
 12  2  1  0
 12  3  1  0
 14 13  1  0
 15  4  1  0
 16 13  1  0
 17 16  1  0
 18  7  1  0
 20  8  1  0
 20 16  1  0
 20 17  1  0
 20 19  1  0
 21  9  1  0
 21 13  1  0
 21 14  1  0
 22  8  1  0
 22 17  1  0
 23  4  1  0
 23  5  1  0
 24 14  1  0
 24 19  1  0
M  END
$$$$

     RDKit          3D

 24 25  0  0  0  0  0  0  0  0999 V2000
  -23.5766   -1.8001  143.9388 O   0  0  0  0  0  0  0  0  0  0  0  0
  -23.0852   -0.5399  144.3181 C   0  0  0  0  0  0  0  0  0  0  0  0
  -22.1308   -0.1044  143.3841 O   0  0  0  0  0  0  0  0  0  0  0  0
  -24.2428    0.4749  144.3653 C   0  0  0  0  0  0  0  0  0  0  0  0
  -24.8954    0.5059  143.1206 O   0  0  0  0  0  0  0  0  0  0  0  0
  -25.2696    0.1256  145.4714 C   0  0  0  0  0  0  0  0  0  0  0  0
  -25.2647    1.1726  146.5959 C   0  0  0  0  0  0  0  0  0  0  0  0
  -25.7303    0.6691  147.9573 C   0  0  0  0  0  0  0  0  0  0  0  0
  -24.2491    0.9399  147.7098 C   0  0  0  0  0  0  0  0  0  0  0  0
  -23.6969    2.2232  148.3540 C   0  0  0  0  0  0  0  0  0  0  0  0
  -22.5932    2.8555  147.4931 C   0  0  0  0  0  0  0  0  0  0  0  0
  -21.2782    2.0617  147.5551 C   0  0  0  0  0  0  0  0  0  0  0  0
  -20.2044    2.6395  146.6200 C   0  0  0  0  0  0  0  0  0  0  0  0
  -20.4387    2.2302  145.1535 C   0  0  0  0  0  0  0  0  0  0  0  0
  -19.2956    2.6666  144.2079 C   0  0  0  0  0  0  0  0  0  0  0  0
  -17.9416    1.9455  144.4679 C   0  0  0  0  0  0  0  0  0  0  0  0
  -17.9734    0.4012  144.3601 C   0  0  0  0  0  0  0  0  0  0  0  0
  -19.7385    2.5261  142.7397 C   0  0  0  0  0  0  0  0  0  0  0  0
  -18.0633   -0.2860  145.7326 C   0  0  0  0  0  0  0  0  0  0  0  0
  -18.0460   -1.8233  145.5918 C   0  0  0  0  0  0  0  0  0  0  0  0
  -18.5929   -2.6152  146.8062 C   0  0  0  0  0  0  0  0  0  0  0  0
  -20.0732   -2.3841  147.1070 C   0  0  0  0  0  0  0  0  0  0  0  0
  -19.7056   -1.8597  148.4898 C   0  0  0  0  0  0  0  0  0  0  0  0
  -18.2288   -2.0974  148.1995 C   0  0  0  0  0  0  0  0  0  0  0  0
  2  1  1  0
  3  2  1  0
  4  2  1  0
  5  4  1  0
  6  4  1  0
  7  6  1  0
  8  7  1  0
  9  7  1  0
  9  8  1  0
 10  9  1  0
 11 10  1  0
 12 11  1  0
 13 12  1  0
 14 13  1  0
 15 14  1  0
 16 15  1  0
 17 16  1  0
 18 15  1  0
 19 17  1  0
 20 19  1  0
 21 20  1  0
 22 21  1  0
 23 22  1  0
 24 21  1  0
 24 23  1  0
M  END
$$$$

     RDKit          3D

 25 28  0  0  0  0  0  0  0  0999 V2000
  -20.1034   -5.2647  138.2800 O   0  0  0  0  0  0  0  0  0  0  0  0
  -20.3491   -5.4322  139.6757 C   0  0  0  0  0  0  0  0  0  0  0  0
  -19.3251   -4.2764  141.1127 O   0  0  0  0  0  0  0  0  0  0  0  0
  -19.0891   -5.5184  140.4990 C   0  0  0  0  0  0  0  0  0  0  0  0
  -21.7449   -3.7741  141.2234 C   0  0  0  0  0  0  0  0  0  0  0  0
  -20.4965   -4.0836  140.3492 C   0  0  0  0  0  0  0  0  0  0  0  0
  -22.6748   -4.9385  141.6280 C   0  0  0  0  0  0  0  0  0  0  0  0
  -22.1484   -5.7320  142.8554 C   0  0  0  0  0  0  0  0  0  0  0  0
  -22.9595   -5.4082  144.1116 C   0  0  0  0  0  0  0  0  0  0  0  0
  -21.9373   -6.5132  137.4608 C   0  0  0  0  0  0  0  0  0  0  0  0
  -21.2734   -4.4609  136.2201 C   0  0  0  0  0  0  0  0  0  0  0  0
  -22.1856   -7.2438  142.5929 C   0  0  0  0  0  0  0  0  0  0  0  0
  -19.9321   -4.2241  135.4929 C   0  0  0  0  0  0  0  0  0  0  0  0
  -19.3839   -5.4147  134.9372 O   0  0  0  0  0  0  0  0  0  0  0  0
  -19.9271   -5.0212  133.7102 C   0  0  0  0  0  0  0  0  0  0  0  0
  -21.1159   -5.4577  137.3371 C   0  0  0  0  0  0  0  0  0  0  0  0
  -19.2749   -4.9503  132.3495 C   0  0  0  0  0  0  0  0  0  0  0  0
  -20.0684   -3.5692  134.1157 C   0  0  0  0  0  0  0  0  0  0  0  0
  -17.9741   -4.3883  132.3669 O   0  0  0  0  0  0  0  0  0  0  0  0
  -20.8436   -3.0773  132.8826 C   0  0  0  0  0  0  0  0  0  0  0  0
  -20.2882   -3.9581  131.7017 C   0  0  0  0  0  0  0  0  0  0  0  0
  -22.3849   -3.0960  133.0241 C   0  0  0  0  0  0  0  0  0  0  0  0
  -23.0491   -2.0346  133.9421 C   0  0  0  0  0  0  0  0  0  0  0  0
  -22.2120   -1.1722  134.8816 C   0  0  0  0  0  0  0  0  0  0  0  0
  -22.7618   -0.5783  133.5910 C   0  0  0  0  0  0  0  0  0  0  0  0
  2  1  1  0
  4  2  1  0
  4  3  1  0
  6  2  1  0
  6  3  1  0
  6  5  1  0
  7  5  1  0
  8  7  1  0
  9  8  1  0
 12  8  1  0
 13 11  1  0
 14 13  1  0
 15 14  1  0
 16  1  1  0
 16 10  2  0
 16 11  1  0
 17 15  1  0
 18 13  1  0
 18 15  1  0
 19 17  1  0
 20 18  1  0
 21 17  1  0
 21 20  1  0
 22 20  1  0
 23 22  1  0
 24 23  1  0
 25 23  1  0
 25 24  1  0
M  END
$$$$

     RDKit          3D

 25 28  0  0  0  0  0  0  0  0999 V2000
  -22.7063  -16.2455  141.2094 C   0  0  0  0  0  0  0  0  0  0  0  0
  -23.1932  -16.1784  142.6790 C   0  0  0  0  0  0  0  0  0  0  0  0
  -23.6857  -15.8281  140.1539 C   0  0  0  0  0  0  0  0  0  0  0  0
  -24.6629  -15.4325  142.7435 C   0  0  0  0  0  0  0  0  0  0  0  0
  -22.3602  -17.7584  141.2154 C   0  0  0  0  0  0  0  0  0  0  0  0
  -21.0408  -18.0387  140.6314 N   0  0  0  0  0  0  0  0  0  0  0  0
  -23.6422  -14.1324  139.9412 C   0  0  0  0  0  0  0  0  0  0  0  0
  -25.5667  -16.5977  144.8671 C   0  0  0  0  0  0  0  0  0  0  0  0
  -25.0165  -16.9143  140.4109 C   0  0  0  0  0  0  0  0  0  0  0  0
  -23.5206  -13.1731  141.1536 C   0  0  0  0  0  0  0  0  0  0  0  0
  -26.0050  -19.4166  141.6205 C   0  0  0  0  0  0  0  0  0  0  0  0
  -22.3567  -13.3473  139.3326 C   0  0  0  0  0  0  0  0  0  0  0  0
  -22.4714  -17.7163  142.7250 C   0  0  0  0  0  0  0  0  0  0  0  0
  -27.6422  -19.5409  141.7421 C   0  0  0  0  0  0  0  0  0  0  0  0
  -25.4975  -15.2420  144.0511 C   0  0  0  0  0  0  0  0  0  0  0  0
  -25.2881  -17.8701  143.8050 C   0  0  0  0  0  0  0  0  0  0  0  0
  -26.9983  -14.8234  143.7672 C   0  0  0  0  0  0  0  0  0  0  0  0
  -22.7207  -12.3409  138.1796 C   0  0  0  0  0  0  0  0  0  0  0  0
  -25.4883  -17.9759  141.8922 C   0  0  0  0  0  0  0  0  0  0  0  0
  -21.0932  -12.7622  141.7392 C   0  0  0  0  0  0  0  0  0  0  0  0
  -22.2210  -12.5135  140.6870 C   0  0  0  0  0  0  0  0  0  0  0  0
  -21.1314  -14.1087  138.7981 C   0  0  0  0  0  0  0  0  0  0  0  0
  -19.8534  -13.7023  138.9540 C   0  0  0  0  0  0  0  0  0  0  0  0
  -19.4291  -12.5864  139.8870 C   0  0  0  0  0  0  0  0  0  0  0  0
  -19.6728  -13.0504  141.3036 C   0  0  0  0  0  0  0  0  0  0  0  0
  2  1  1  0
  3  1  1  0
  4  2  1  0
  5  1  1  0
  6  5  1  0
  7  3  1  0
  9  3  1  0
 10  7  1  0
 12  7  1  0
 13  2  1  0
 13  5  1  0
 14 11  1  0
 15  4  1  0
 15  8  1  0
 16  8  1  0
 17 15  1  0
 18 12  1  0
 19  9  1  0
 19 11  1  0
 19 16  1  0
 21 10  1  0
 21 12  1  0
 21 20  1  0
 22 12  1  0
 23 22  2  0
 24 23  1  0
 25 20  1  0
 25 24  1  0
M  END
$$$$

     RDKit          3D

 25 28  0  0  0  0  0  0  0  0999 V2000
  -22.7401   -0.4102  142.8687 Cl  0  0  0  0  0  0  0  0  0  0  0  0
  -24.2221    0.0328  140.5537 C   0  0  0  0  0  0  0  0  0  0  0  0
  -23.9582    0.5246  141.9630 C   0  0  0  0  0  0  0  0  0  0  0  0
  -24.0479    2.0064  142.1842 C   0  0  0  0  0  0  0  0  0  0  0  0
  -23.1420    2.8332  141.6445 C   0  0  0  0  0  0  0  0  0  0  0  0
  -25.2548   -0.2036  141.6701 C   0  0  0  0  0  0  0  0  0  0  0  0
  -23.1446    4.3074  141.9521 C   0  0  0  0  0  0  0  0  0  0  0  0
  -25.0871   -1.2090  140.5477 C   0  0  0  0  0  0  0  0  0  0  0  0
  -23.1832    5.3397  140.8118 C   0  0  0  0  0  0  0  0  0  0  0  0
  -24.1912    4.0362  138.7204 C   0  0  0  0  0  0  0  0  0  0  0  0
  -25.4616    4.8312  138.3777 C   0  0  0  0  0  0  0  0  0  0  0  0
  -21.6689    4.3982  138.9303 C   0  0  0  0  0  0  0  0  0  0  0  0
  -26.6282    3.8895  138.0540 C   0  0  0  0  0  0  0  0  0  0  0  0
  -20.4909    5.3012  139.3564 C   0  0  0  0  0  0  0  0  0  0  0  0
  -27.8270    4.6619  137.5102 C   0  0  0  0  0  0  0  0  0  0  0  0
  -24.4503    5.0179  141.6021 C   0  0  0  0  0  0  0  0  0  0  0  0
  -23.0716    4.9413  139.3021 C   0  0  0  0  0  0  0  0  0  0  0  0
  -19.7331    4.7539  140.5744 C   0  0  0  0  0  0  0  0  0  0  0  0
  -18.4565    5.5574  140.9227 C   0  0  0  0  0  0  0  0  0  0  0  0
  -18.5920    6.9955  141.5307 C   0  0  0  0  0  0  0  0  0  0  0  0
  -19.8504    7.2650  142.3784 C   0  0  0  0  0  0  0  0  0  0  0  0
  -20.1714    8.7366  142.1861 C   0  0  0  0  0  0  0  0  0  0  0  0
  -19.6930    9.0658  140.7850 C   0  0  0  0  0  0  0  0  0  0  0  0
  -18.4279    8.2309  140.5958 C   0  0  0  0  0  0  0  0  0  0  0  0
  -18.1157    7.9870  139.1145 C   0  0  0  0  0  0  0  0  0  0  0  0
  3  1  1  0
  3  2  1  0
  4  3  1  0
  5  4  2  3
  6  2  1  0
  6  3  1  0
  7  5  1  0
  8  2  1  0
  8  6  1  0
  9  7  1  0
 11 10  1  0
 13 11  1  0
 14 12  1  0
 15 13  1  0
 16  7  1  0
 16  9  1  0
 17  9  1  0
 17 10  1  0
 17 12  1  0
 18 14  1  0
 19 18  1  0
 20 19  1  0
 21 20  1  0
 22 21  1  0
 23 22  1  0
 24 20  1  0
 24 23  1  0
 25 24  1  0
M  END
$$$$

     RDKit          3D

 24 28  0  0  0  0  0  0  0  0999 V2000
  -24.8179   -3.1809  136.2078 C   0  0  0  0  0  0  0  0  0  0  0  0
  -26.1852   -3.4572  135.5034 C   0  0  0  0  0  0  0  0  0  0  0  0
  -23.9675   -4.4712  136.1777 C   0  0  0  0  0  0  0  0  0  0  0  0
  -27.1662   -3.3852  136.6263 C   0  0  0  0  0  0  0  0  0  0  0  0
  -26.5652   -2.4348  134.4060 C   0  0  0  0  0  0  0  0  0  0  0  0
  -22.4611   -4.3824  136.2203 C   0  0  0  0  0  0  0  0  0  0  0  0
  -25.1595   -2.8058  137.6655 C   0  0  0  0  0  0  0  0  0  0  0  0
  -26.6169   -3.0421  137.7798 C   0  0  0  0  0  0  0  0  0  0  0  0
  -25.6258   -2.3942  133.1698 C   0  0  0  0  0  0  0  0  0  0  0  0
  -21.7221   -4.1701  134.8738 C   0  0  0  0  0  0  0  0  0  0  0  0
  -25.6387   -3.7415  132.3715 C   0  0  0  0  0  0  0  0  0  0  0  0
  -25.8111   -1.0717  132.3463 C   0  0  0  0  0  0  0  0  0  0  0  0
  -24.5026   -3.8899  131.3529 C   0  0  0  0  0  0  0  0  0  0  0  0
  -25.9461   -3.8004  130.8736 C   0  0  0  0  0  0  0  0  0  0  0  0
  -27.1254   -0.7914  131.5567 C   0  0  0  0  0  0  0  0  0  0  0  0
  -21.6615   -3.3968  133.5312 C   0  0  0  0  0  0  0  0  0  0  0  0
  -28.3600   -1.6563  131.8463 C   0  0  0  0  0  0  0  0  0  0  0  0
  -23.2009   -4.6405  134.8787 C   0  0  0  0  0  0  0  0  0  0  0  0
  -21.4798   -2.6304  134.7796 C   0  0  0  0  0  0  0  0  0  0  0  0
  -23.2105   -6.1073  134.3314 C   0  0  0  0  0  0  0  0  0  0  0  0
  -24.2159   -7.1030  134.9527 C   0  0  0  0  0  0  0  0  0  0  0  0
  -25.7874   -8.7142  133.6957 C   0  0  0  0  0  0  0  0  0  0  0  0
  -26.1574   -7.8953  132.4628 C   0  0  0  0  0  0  0  0  0  0  0  0
  -24.3348   -8.4331  134.1507 C   0  0  0  0  0  0  0  0  0  0  0  0
  2  1  1  0
  3  1  1  0
  4  2  1  0
  5  2  1  0
  6  3  1  0
  7  1  1  0
  8  4  2  0
  8  7  1  0
  9  5  1  0
 10  6  1  0
 11  9  1  0
 12  9  1  0
 13 11  1  0
 14 11  1  0
 14 13  1  0
 15 12  1  0
 16 10  1  0
 17 15  1  0
 18  3  1  0
 18  6  1  0
 18 10  1  0
 19 10  1  0
 19 16  1  0
 20 18  1  0
 21 20  1  0
 23 22  1  0
 24 21  1  0
 24 22  1  0
M  END
$$$$

     RDKit          3D

 25 29  0  0  0  0  0  0  0  0999 V2000
  -29.5868  -16.7887  140.3650 O   0  0  0  0  0  0  0  0  0  0  0  0
  -29.7281  -15.6206  141.1143 C   0  0  0  0  0  0  0  0  0  0  0  0
  -29.2773  -15.5648  142.3775 C   0  0  0  0  0  0  0  0  0  0  0  0
  -30.4559  -14.4284  140.5280 C   0  0  0  0  0  0  0  0  0  0  0  0
  -31.9634  -14.5960  140.4997 C   0  0  0  0  0  0  0  0  0  0  0  0
  -31.7635  -14.5733  139.0044 C   0  0  0  0  0  0  0  0  0  0  0  0
  -28.5684  -16.7227  143.0496 C   0  0  0  0  0  0  0  0  0  0  0  0
  -27.1374  -16.4318  143.6300 C   0  0  0  0  0  0  0  0  0  0  0  0
  -30.3666  -14.4133  139.1205 O   0  0  0  0  0  0  0  0  0  0  0  0
  -26.3022  -15.5217  142.6895 C   0  0  0  0  0  0  0  0  0  0  0  0
  -26.3681  -14.4042  143.7323 C   0  0  0  0  0  0  0  0  0  0  0  0
  -25.0059  -13.9373  144.2426 C   0  0  0  0  0  0  0  0  0  0  0  0
  -26.4602  -17.7851  144.0986 C   0  0  0  0  0  0  0  0  0  0  0  0
  -27.4577  -18.5615  144.9011 N   0  0  0  0  0  0  0  0  0  0  0  0
  -27.2108  -18.8905  146.3235 C   0  0  0  0  0  0  0  0  0  0  0  0
  -27.1510  -15.3141  144.6874 C   0  0  0  0  0  0  0  0  0  0  0  0
  -24.9154  -17.8170  144.4614 C   0  0  0  0  0  0  0  0  0  0  0  0
  -24.3818  -17.2684  145.8030 C   0  0  0  0  0  0  0  0  0  0  0  0
  -23.8384  -18.2498  146.7704 C   0  0  0  0  0  0  0  0  0  0  0  0
  -28.5328  -18.8891  147.1110 C   0  0  0  0  0  0  0  0  0  0  0  0
  -23.9177  -17.8311  148.1733 N   0  0  0  0  0  0  0  0  0  0  0  0
  -27.0039  -19.9138  145.2843 C   0  0  0  0  0  0  0  0  0  0  0  0
  -22.5247  -17.3617  145.8242 S   0  0  0  0  0  0  0  0  0  0  0  0
  -29.2359  -20.2186  147.4015 C   0  0  0  0  0  0  0  0  0  0  0  0
  -28.3960  -19.5538  148.4831 C   0  0  0  0  0  0  0  0  0  0  0  0
  2  1  1  0
  3  2  2  3
  4  2  1  0
  5  4  1  0
  6  5  1  0
  7  3  1  0
  8  7  1  0
  9  4  1  0
  9  6  1  0
 10  8  1  0
 11 10  1  0
 12 11  1  0
 13  8  1  0
 14 13  1  0
 15 14  1  0
 16  8  1  0
 16 11  1  0
 17 13  1  0
 18 17  1  0
 19 18  1  0
 20 15  1  0
 21 19  1  0
 22 14  1  0
 22 15  1  0
 23 18  1  0
 23 19  1  0
 24 20  1  0
 25 20  1  0
 25 24  1  0
M  END
$$$$

     RDKit          3D

 11 12  0  0  0  0  0  0  0  0999 V2000
  -20.7554  -15.4236  140.9976 C   0  0  0  0  0  0  0  0  0  0  0  0
  -21.6493  -16.6455  140.8012 C   0  0  0  0  0  0  0  0  0  0  0  0
  -19.9832  -15.0156  139.7276 C   0  0  0  0  0  0  0  0  0  0  0  0
  -22.2798  -15.2875  141.0865 C   0  0  0  0  0  0  0  0  0  0  0  0
  -23.0630  -14.6698  139.9172 C   0  0  0  0  0  0  0  0  0  0  0  0
  -20.0396  -12.5277  140.1305 C   0  0  0  0  0  0  0  0  0  0  0  0
  -19.1651  -13.7401  139.9626 C   0  0  0  0  0  0  0  0  0  0  0  0
  -20.6620  -11.9630  139.0918 C   0  0  0  0  0  0  0  0  0  0  0  0
  -24.5661  -14.7860  140.1950 C   0  0  0  0  0  0  0  0  0  0  0  0
  -25.2278  -16.0618  139.6965 C   0  0  0  0  0  0  0  0  0  0  0  0
  -25.4591  -14.7484  138.9640 C   0  0  0  0  0  0  0  0  0  0  0  0
  2  1  1  0
  3  1  1  0
  4  1  1  0
  4  2  1  0
  5  4  1  0
  7  3  1  0
  7  6  1  0
  8  6  2  0
  9  5  1  0
 10  9  1  0
 11  9  1  0
 11 10  1  0
M  END
$$$$

     RDKit          3D

 25 29  0  0  0  0  0  0  0  0999 V2000
  -21.3263  -21.0648  138.4665 O   0  0  0  0  0  0  0  0  0  0  0  0
  -21.8865  -21.3752  139.7438 C   0  0  0  0  0  0  0  0  0  0  0  0
  -22.8873  -20.3014  140.2936 C   0  0  0  0  0  0  0  0  0  0  0  0
  -24.0919  -19.9062  139.3777 C   0  0  0  0  0  0  0  0  0  0  0  0
  -22.2878  -19.2141  141.1965 C   0  0  0  0  0  0  0  0  0  0  0  0
  -24.1940  -18.4389  138.8857 C   0  0  0  0  0  0  0  0  0  0  0  0
  -24.1199  -17.1593  138.0569 C   0  0  0  0  0  0  0  0  0  0  0  0
  -23.7467  -19.6187  137.9582 C   0  0  0  0  0  0  0  0  0  0  0  0
  -25.4339  -17.9370  138.1221 C   0  0  0  0  0  0  0  0  0  0  0  0
  -25.7098  -18.7379  136.8617 C   0  0  0  0  0  0  0  0  0  0  0  0
  -21.0844  -22.2892  137.7807 C   0  0  0  0  0  0  0  0  0  0  0  0
  -24.8753  -19.9860  136.9682 C   0  0  0  0  0  0  0  0  0  0  0  0
  -19.9518  -23.2293  138.2937 C   0  0  0  0  0  0  0  0  0  0  0  0
  -18.9530  -23.5679  137.1748 C   0  0  0  0  0  0  0  0  0  0  0  0
  -19.3730  -23.7567  135.9030 C   0  0  0  0  0  0  0  0  0  0  0  0
  -21.4171  -22.4167  136.3273 C   0  0  0  0  0  0  0  0  0  0  0  0
  -21.4728  -18.1088  140.5135 C   0  0  0  0  0  0  0  0  0  0  0  0
  -20.5228  -24.4256  139.0029 C   0  0  0  0  0  0  0  0  0  0  0  0
  -20.8307  -23.6488  135.6022 C   0  0  0  0  0  0  0  0  0  0  0  0
  -21.2370  -23.8274  134.1255 C   0  0  0  0  0  0  0  0  0  0  0  0
  -20.4585  -23.0360  133.0453 C   0  0  0  0  0  0  0  0  0  0  0  0
  -20.6624  -23.7267  131.6744 C   0  0  0  0  0  0  0  0  0  0  0  0
  -22.3094  -22.8469  137.3294 O   0  0  0  0  0  0  0  0  0  0  0  0
  -19.9517  -23.0060  130.4980 C   0  0  0  0  0  0  0  0  0  0  0  0
  -20.4847  -25.6956  138.5999 C   0  0  0  0  0  0  0  0  0  0  0  0
  2  1  1  0
  3  2  1  0
  4  3  1  0
  5  3  1  0
  6  4  1  0
  7  6  1  0
  8  4  1  0
  8  6  1  0
  9  6  1  0
  9  7  1  0
 10  9  1  0
 11  1  1  0
 12  8  1  0
 12 10  1  0
 13 11  1  0
 14 13  1  0
 15 14  2  0
 16 11  1  0
 17  5  1  0
 18 13  1  0
 19 15  1  0
 19 16  1  0
 20 19  1  0
 21 20  1  0
 22 21  1  0
 23 11  1  0
 23 16  1  0
 24 22  1  0
 25 18  2  0
M  END
$$$$

     RDKit          3D

 25 27  0  0  0  0  0  0  0  0999 V2000
  -22.9652   -9.8789  148.2797 C   0  0  0  0  0  0  0  0  0  0  0  0
  -24.4732   -8.1780  148.6483 C   0  0  0  0  0  0  0  0  0  0  0  0
  -24.2855   -7.1812  147.4776 C   0  0  0  0  0  0  0  0  0  0  0  0
  -23.4922   -8.0521  149.6468 O   0  0  0  0  0  0  0  0  0  0  0  0
  -23.1839   -6.1141  147.6723 C   0  0  0  0  0  0  0  0  0  0  0  0
  -23.5905   -4.8925  148.5553 C   0  0  0  0  0  0  0  0  0  0  0  0
  -21.9367   -5.4204  150.4998 C   0  0  0  0  0  0  0  0  0  0  0  0
  -22.8731   -3.6400  148.0563 C   0  0  0  0  0  0  0  0  0  0  0  0
  -23.8508   -3.7788  150.8473 C   0  0  0  0  0  0  0  0  0  0  0  0
  -23.4258   -2.6329  147.3564 C   0  0  0  0  0  0  0  0  0  0  0  0
  -24.8265   -2.5963  146.7909 C   0  0  0  0  0  0  0  0  0  0  0  0
  -23.1957  -11.3142  148.7405 C   0  0  0  0  0  0  0  0  0  0  0  0
  -24.1013   -3.9622  152.3598 C   0  0  0  0  0  0  0  0  0  0  0  0
  -24.7785   -2.4609  145.2573 C   0  0  0  0  0  0  0  0  0  0  0  0
  -23.3817   -5.0596  150.0970 C   0  0  0  0  0  0  0  0  0  0  0  0
  -24.3970   -9.5697  148.1769 N   0  0  0  0  0  0  0  0  0  0  0  0
  -26.1228   -2.8110  144.6010 C   0  0  0  0  0  0  0  0  0  0  0  0
  -26.3003   -4.3284  144.4051 C   0  0  0  0  0  0  0  0  0  0  0  0
  -25.3708   -4.7558  152.7042 C   0  0  0  0  0  0  0  0  0  0  0  0
  -26.9748   -3.7432  152.3059 Br  0  0  0  0  0  0  0  0  0  0  0  0
  -27.6353   -4.6206  144.0501 O   0  0  0  0  0  0  0  0  0  0  0  0
  -25.4241   -4.8065  143.4173 O   0  0  0  0  0  0  0  0  0  0  0  0
  -24.1232  -10.3089  149.4043 C   0  0  0  0  0  0  0  0  0  0  0  0
  -22.9989   -9.3569  149.7070 C   0  0  0  0  0  0  0  0  0  0  0  0
  -25.2650  -10.6785  150.3561 C   0  0  0  0  0  0  0  0  0  0  0  0
  3  2  1  0
  4  2  1  0
  5  3  1  0
  6  5  1  0
  8  6  1  0
 10  8  2  3
 11 10  1  0
 12  1  1  0
 13  9  1  0
 14 11  1  0
 15  6  1  0
 15  7  1  0
 15  9  1  0
 16  1  1  0
 16  2  1  0
 17 14  1  0
 18 17  1  0
 19 13  1  0
 20 19  1  0
 21 18  1  0
 22 18  1  0
 23 12  1  0
 23 16  1  0
 24  1  1  0
 24  4  1  0
 24 23  1  0
 25 23  1  0
M  END
$$$$

     RDKit          3D

 25 34  0  0  0  0  0  0  0  0999 V2000
  -25.5896    0.2008  143.3036 C   0  0  0  0  0  0  0  0  0  0  0  0
  -25.8307    1.6828  143.5967 C   0  0  0  0  0  0  0  0  0  0  0  0
  -27.0844    0.0637  143.1361 C   0  0  0  0  0  0  0  0  0  0  0  0
  -27.9805   -1.0285  143.6475 C   0  0  0  0  0  0  0  0  0  0  0  0
  -24.9161   -0.5737  144.4631 C   0  0  0  0  0  0  0  0  0  0  0  0
  -23.5674   -1.2120  144.1721 C   0  0  0  0  0  0  0  0  0  0  0  0
  -29.2318   -0.3231  144.2534 C   0  0  0  0  0  0  0  0  0  0  0  0
  -22.4004   -0.5281  143.4425 C   0  0  0  0  0  0  0  0  0  0  0  0
  -22.4755    0.9070  142.9502 C   0  0  0  0  0  0  0  0  0  0  0  0
  -29.9731   -1.5483  144.8585 C   0  0  0  0  0  0  0  0  0  0  0  0
  -23.2479   -2.5436  144.8844 C   0  0  0  0  0  0  0  0  0  0  0  0
  -31.4291   -1.6518  144.3815 C   0  0  0  0  0  0  0  0  0  0  0  0
  -32.0306   -2.9949  144.8119 C   0  0  0  0  0  0  0  0  0  0  0  0
  -33.5440   -3.0205  144.9761 C   0  0  0  0  0  0  0  0  0  0  0  0
  -26.5482    2.1164  144.8186 C   0  0  0  0  0  0  0  0  0  0  0  0
  -23.4169   -3.7352  143.9085 C   0  0  0  0  0  0  0  0  0  0  0  0
  -22.1150   -4.5355  143.7879 C   0  0  0  0  0  0  0  0  0  0  0  0
  -32.6454   -3.0154  146.2046 C   0  0  0  0  0  0  0  0  0  0  0  0
  -23.6663   -0.0158  145.1434 C   0  0  0  0  0  0  0  0  0  0  0  0
  -22.4800    0.6436  144.4337 C   0  0  0  0  0  0  0  0  0  0  0  0
  -27.7859    0.1570  144.4742 C   0  0  0  0  0  0  0  0  0  0  0  0
  -24.4432   -4.5764  144.3851 O   0  0  0  0  0  0  0  0  0  0  0  0
  -27.3802    1.4383  143.7167 C   0  0  0  0  0  0  0  0  0  0  0  0
  -29.6579   -0.4006  145.7436 C   0  0  0  0  0  0  0  0  0  0  0  0
  -25.2792   -5.4072  142.9400 Br  0  0  0  0  0  0  0  0  0  0  0  0
  2  1  1  0
  3  1  1  0
  4  3  1  0
  5  1  1  0
  6  5  1  0
  7  4  1  0
  8  6  1  0
  9  8  1  0
 10  7  1  0
 11  6  1  0
 12 10  1  0
 13 12  1  0
 14 13  1  0
 15  2  1  0
 16 11  1  0
 17 16  1  0
 18 13  1  0
 18 14  1  0
 19  5  1  0
 19  6  1  0
 20  8  1  0
 20  9  1  0
 20 19  1  0
 21  3  1  0
 21  4  1  0
 21  7  1  0
 22 16  1  0
 23  2  1  0
 23  3  1  0
 23 15  1  0
 23 21  1  0
 24  7  1  0
 24 10  1  0
 25 22  1  0
M  END
$$$$

     RDKit          3D

 24 28  0  0  0  0  0  0  0  0999 V2000
  -27.5178   -5.8884  144.3078 O   0  0  0  0  0  0  0  0  0  0  0  0
  -28.4169   -5.8257  143.3285 C   0  0  0  0  0  0  0  0  0  0  0  0
  -28.5577   -6.7875  142.4224 N   0  0  0  0  0  2  0  0  0  0  0  0
  -29.7288   -7.4078  142.4029 C   0  0  0  0  0  0  0  0  0  0  0  0
  -27.9586   -4.6065  142.9752 N   0  0  0  0  0  0  0  0  0  0  0  0
  -30.0865   -8.2068  143.4780 C   0  0  0  0  0  0  0  0  0  0  0  0
  -27.8081   -4.4314  141.6464 C   0  0  0  0  0  0  0  0  0  0  0  0
  -29.1647   -9.1115  143.9988 C   0  0  0  0  0  0  0  0  0  0  0  0
  -27.9039   -8.6415  144.3455 C   0  0  0  0  0  0  0  0  0  0  0  0
  -28.7403   -3.7354  140.9137 C   0  0  0  0  0  0  0  0  0  0  0  0
  -29.3331   -4.3366  139.8161 C   0  0  0  0  0  0  0  0  0  0  0  0
  -31.4105   -8.1982  143.9159 C   0  0  0  0  0  0  0  0  0  0  0  0
  -27.5597   -7.3020  144.1411 C   0  0  0  0  0  0  0  0  0  0  0  0
  -27.0346   -5.3097  140.9119 C   0  0  0  0  0  0  0  0  0  0  0  0
  -29.1060   -5.6701  139.5364 C   0  0  0  0  0  0  0  0  0  0  0  0
  -27.3115   -3.9662  141.1055 C   0  0  0  0  0  0  0  0  0  0  0  0
  -28.7427   -4.9181  140.8846 C   0  0  0  0  0  0  0  0  0  0  0  0
  -27.1179   -6.9474  142.8729 N   0  0  0  0  0  2  0  0  0  0  0  0
  -32.1539   -9.3784  143.9005 C   0  0  0  0  0  0  0  0  0  0  0  0
  -32.3297   -7.1671  141.5403 C   0  0  0  0  0  0  0  0  0  0  0  0
  -31.7706  -10.5560  144.5875 C   0  0  0  0  0  0  0  0  0  0  0  0
  -32.1851   -9.9638  145.4644 C   0  0  0  0  0  0  0  0  0  0  0  0
  -33.3218   -6.2350  140.8877 C   0  0  0  0  0  0  0  0  0  0  0  0
  -33.0032   -5.3499  140.0359 C   0  0  0  0  0  0  0  0  0  0  0  0
  2  1  1  0
  3  2  1  0
  4  3  1  0
  5  2  1  0
  6  4  1  0
  8  6  1  0
  9  8  2  3
 10  7  1  0
 11 10  1  0
 12  6  1  0
 13  1  1  0
 13  9  1  0
 14  7  1  0
 15 11  1  0
 16  5  1  0
 16  7  1  0
 17  7  1  0
 17 10  1  0
 17 11  1  0
 17 15  1  0
 18  2  1  0
 18 13  1  0
 19 12  1  0
 20 19  1  0
 21 19  1  0
 22 21  1  0
 23 20  1  0
 24 23  2  0
M  RAD  2   3   2  18   2
M  END
$$$$

     RDKit          3D

 25 28  0  0  0  0  0  0  0  0999 V2000
  -25.9505   -2.1889  146.0318 O   0  0  0  0  0  0  0  0  0  0  0  0
  -26.1527   -1.2136  145.0332 C   0  0  0  0  0  0  0  0  0  0  0  0
  -24.9803   -1.1956  144.2444 O   0  0  0  0  0  0  0  0  0  0  0  0
  -27.4116   -1.4761  144.1082 C   0  0  0  0  0  0  0  0  0  0  0  0
  -28.8143   -1.4879  144.8639 C   0  0  0  0  0  0  0  0  0  0  0  0
  -27.5229   -0.4104  142.9501 C   0  0  0  0  0  0  0  0  0  0  0  0
  -29.9778   -1.8820  143.8847 C   0  0  0  0  0  0  0  0  0  0  0  0
  -31.0313   -0.7729  143.6124 C   0  0  0  0  0  0  0  0  0  0  0  0
  -28.8244   -2.3823  146.1379 C   0  0  0  0  0  0  0  0  0  0  0  0
  -32.0080   -0.4493  144.7673 C   0  0  0  0  0  0  0  0  0  0  0  0
  -30.1227   -2.5252  146.9097 C   0  0  0  0  0  0  0  0  0  0  0  0
  -30.9592   -3.5310  146.6066 C   0  0  0  0  0  0  0  0  0  0  0  0
  -31.4712    0.6689  145.6894 C   0  0  0  0  0  0  0  0  0  0  0  0
  -31.5041    2.1334  145.2167 C   0  0  0  0  0  0  0  0  0  0  0  0
  -32.3962    2.5413  144.0580 C   0  0  0  0  0  0  0  0  0  0  0  0
  -30.3053   -1.7480  148.1881 C   0  0  0  0  0  0  0  0  0  0  0  0
  -33.8297    2.4438  144.5732 C   0  0  0  0  0  0  0  0  0  0  0  0
  -27.0724   -0.8519  141.5406 C   0  0  0  0  0  0  0  0  0  0  0  0
  -33.8260    1.6492  145.8015 N   0  0  0  0  0  0  0  0  0  0  0  0
  -32.4488    1.6633  146.3105 C   0  0  0  0  0  0  0  0  0  0  0  0
  -26.1026   -2.0420  141.3561 C   0  0  0  0  0  0  0  0  0  0  0  0
  -26.3027   -2.8740  140.0923 C   0  0  0  0  0  0  0  0  0  0  0  0
  -25.1668   -1.8719  140.1657 C   0  0  0  0  0  0  0  0  0  0  0  0
  -26.3702    0.3100  142.2406 C   0  0  0  0  0  0  0  0  0  0  0  0
  -23.9349   -0.5402  144.9409 C   0  0  0  0  0  0  0  0  0  0  0  0
  2  1  1  0
  3  2  1  0
  4  2  1  0
  5  4  1  0
  6  4  1  0
  7  5  1  0
  8  7  1  0
  9  5  1  0
 10  8  1  0
 11  9  1  0
 12 11  2  0
 13 10  1  0
 14 13  1  0
 15 14  1  0
 16 11  1  0
 17 15  1  0
 18  6  1  0
 19 17  1  0
 20 13  1  0
 20 14  1  0
 20 19  1  0
 21 18  1  0
 22 21  1  0
 23 21  1  0
 23 22  1  0
 24  6  1  0
 24 18  1  0
 25  3  1  0
M  END
$$$$

     RDKit          3D

 25 28  0  0  0  0  0  0  0  0999 V2000
  -31.4187   -7.1005  150.9708 C   0  0  0  0  0  0  0  0  0  0  0  0
  -32.0507   -7.9447  149.8344 C   0  0  0  0  0  0  0  0  0  0  0  0
  -31.9583   -9.5061  150.0253 C   0  0  0  0  0  0  0  0  0  0  0  0
  -33.2835  -10.3221  150.1296 C   0  0  0  0  0  0  0  0  0  0  0  0
  -33.2725  -11.6150  150.9795 C   0  0  0  0  0  0  0  0  0  0  0  0
  -30.9174  -10.2458  149.1424 C   0  0  0  0  0  0  0  0  0  0  0  0
  -34.1852  -10.6952  153.0552 C   0  0  0  0  0  0  0  0  0  0  0  0
  -29.9401   -9.4780  148.2320 C   0  0  0  0  0  0  0  0  0  0  0  0
  -35.1554  -10.0385  153.6494 C   0  0  0  0  0  0  0  0  0  0  0  0
  -35.5849   -8.7059  153.0956 C   0  0  0  0  0  0  0  0  0  0  0  0
  -33.2116  -11.3503  152.4672 C   0  0  0  0  0  0  0  0  0  0  0  0
  -31.6106   -7.5768  152.4215 C   0  0  0  0  0  0  0  0  0  0  0  0
  -32.4866   -6.3627  152.7046 C   0  0  0  0  0  0  0  0  0  0  0  0
  -30.6498  -10.0593  150.6256 C   0  0  0  0  0  0  0  0  0  0  0  0
  -37.0406   -8.7427  152.5978 C   0  0  0  0  0  0  0  0  0  0  0  0
  -35.7036  -10.4978  154.9499 C   0  0  0  0  0  0  0  0  0  0  0  0
  -32.3826   -5.9496  151.2399 C   0  0  0  0  0  0  0  0  0  0  0  0
  -37.3292   -9.5426  151.3331 C   0  0  0  0  0  0  0  0  0  0  0  0
  -28.7634  -10.3668  147.8435 C   0  0  0  0  0  0  0  0  0  0  0  0
  -35.5476  -11.7367  155.4176 C   0  0  0  0  0  0  0  0  0  0  0  0
  -32.1620  -11.9906  153.3259 C   0  0  0  0  0  0  0  0  0  0  0  0
  -37.3186   -8.0215  151.2863 C   0  0  0  0  0  0  0  0  0  0  0  0
  -33.6008   -6.2872  150.4437 C   0  0  0  0  0  0  0  0  0  0  0  0
  -33.4376   -7.3906  149.7236 C   0  0  0  0  0  0  0  0  0  0  0  0
  -38.3751   -8.6703  153.7822 Cl  0  0  0  0  0  0  0  0  0  0  0  0
  2  1  1  0
  3  2  1  0
  4  3  1  0
  5  4  1  0
  6  3  1  0
  8  6  1  0
  9  7  2  0
 10  9  1  0
 11  5  1  0
 11  7  2  0
 12  1  1  0
 13 12  1  0
 14  3  1  0
 14  6  1  0
 15 10  1  0
 16  9  1  0
 17  1  1  0
 17 13  1  0
 18 15  1  0
 19  8  1  0
 20 16  2  0
 21 11  1  0
 22 15  1  0
 22 18  1  0
 23 17  1  0
 24  2  1  0
 24 23  2  0
 25 15  1  0
M  END
$$$$

     RDKit          3D

 23 27  0  0  0  0  0  0  0  0999 V2000
  -19.3408  -12.2567  141.4540 O   0  0  0  0  0  0  0  0  0  0  0  0
  -21.8787  -13.3292  141.7244 O   0  0  0  0  0  0  0  0  0  0  0  0
  -19.4376  -11.0017  141.8591 O   0  0  0  0  0  0  0  0  0  0  0  0
  -20.4637  -10.9326  142.8332 C   0  0  0  0  0  0  0  0  0  0  0  0
  -21.9056  -10.8652  142.1943 C   0  0  0  0  0  0  0  0  0  0  0  0
  -22.6169  -12.1400  141.7034 C   0  0  0  0  0  0  0  0  0  0  0  0
  -22.0637  -11.1480  140.6844 C   0  0  0  0  0  0  0  0  0  0  0  0
  -20.2938  -11.9592  144.0085 C   0  0  0  0  0  0  0  0  0  0  0  0
  -18.8901  -11.8716  144.6822 C   0  0  0  0  0  0  0  0  0  0  0  0
  -17.7697  -12.6660  143.9654 C   0  0  0  0  0  0  0  0  0  0  0  0
  -17.0339  -13.8184  144.6803 C   0  0  0  0  0  0  0  0  0  0  0  0
  -17.3178  -14.1852  146.1792 C   0  0  0  0  0  0  0  0  0  0  0  0
  -18.0438  -14.1258  143.5819 C   0  0  0  0  0  0  0  0  0  0  0  0
  -16.3379  -15.2735  146.6177 C   0  0  0  0  0  0  0  0  0  0  0  0
  -18.7600  -14.5021  146.6126 C   0  0  0  0  0  0  0  0  0  0  0  0
  -17.7892  -15.6545  146.3958 C   0  0  0  0  0  0  0  0  0  0  0  0
  -19.1896  -14.1682  148.0727 C   0  0  0  0  0  0  0  0  0  0  0  0
  -18.1584  -13.6033  149.8849 C   0  0  0  0  0  0  0  0  0  0  0  0
  -18.6081  -14.9340  149.2667 C   0  0  0  0  0  0  0  0  0  0  0  0
  -18.6386  -12.8544  148.6403 C   0  0  0  0  0  0  0  0  0  0  0  0
  -16.6528  -13.4953  150.1607 C   0  0  0  0  0  0  0  0  0  0  0  0
  -22.8241   -9.7214  142.6528 C   0  0  0  0  0  0  0  0  0  0  0  0
  -21.3885  -11.7879  145.0804 C   0  0  0  0  0  0  0  0  0  0  0  0
  3  1  1  0
  4  3  1  0
  5  4  1  0
  6  2  1  0
  6  5  1  0
  7  5  1  0
  7  6  1  0
  8  4  1  0
  9  8  1  0
 10  9  1  0
 11 10  1  0
 12 11  1  0
 13 10  1  0
 13 11  1  0
 14 12  1  0
 15 12  1  0
 16 12  1  0
 16 14  1  0
 16 15  1  0
 17 15  1  0
 19 17  1  0
 19 18  1  0
 20 17  1  0
 20 18  1  0
 21 18  1  0
 22  5  1  0
 23  8  1  0
M  END
$$$$

     RDKit          3D

 24 27  0  0  0  0  0  0  0  0999 V2000
  -27.7572   -3.2229  134.1125 O   0  0  0  0  0  0  0  0  0  0  0  0
  -29.0999   -2.9966  134.4186 C   0  0  0  0  0  0  0  0  0  0  0  0
  -29.4496   -2.2218  135.7285 C   0  0  0  0  0  0  0  0  0  0  0  0
  -30.4122   -3.0627  138.3408 C   0  0  0  0  0  0  0  0  0  0  0  0
  -30.1150   -3.6733  133.7133 C   0  0  0  0  0  0  0  0  0  0  0  0
  -30.1997   -3.2222  136.8269 C   0  0  0  0  0  0  0  0  0  0  0  0
  -29.3348   -4.7613  136.6178 C   0  0  0  0  0  0  0  0  0  0  0  0
  -31.5230   -2.6830  136.4286 C   0  0  0  0  0  0  0  0  0  0  0  0
  -31.6554   -3.8240  133.8313 C   0  0  0  0  0  0  0  0  0  0  0  0
  -32.4336   -4.9371  134.8468 C   0  0  0  0  0  0  0  0  0  0  0  0
  -33.7111   -5.5970  134.1961 C   0  0  0  0  0  0  0  0  0  0  0  0
  -33.9863   -7.2281  134.3316 C   0  0  0  0  0  0  0  0  0  0  0  0
  -32.4653   -5.3377  136.4973 C   0  0  0  0  0  0  0  0  0  0  0  0
  -31.4090   -6.0322  137.3888 C   0  0  0  0  0  0  0  0  0  0  0  0
  -31.0607   -7.1795  136.4770 C   0  0  0  0  0  0  0  0  0  0  0  0
  -35.4202   -7.5433  133.7951 C   0  0  0  0  0  0  0  0  0  0  0  0
  -33.0830   -8.2821  133.5920 C   0  0  0  0  0  0  0  0  0  0  0  0
  -29.5198   -6.5697  136.8938 C   0  0  0  0  0  0  0  0  0  0  0  0
  -31.8504   -8.6416  136.9664 C   0  0  0  0  0  0  0  0  0  0  0  0
  -32.2564   -9.2092  138.4152 C   0  0  0  0  0  0  0  0  0  0  0  0
  -32.8086   -8.1689  139.3735 C   0  0  0  0  0  0  0  0  0  0  0  0
  -33.1315   -8.1136  137.8195 C   0  0  0  0  0  0  0  0  0  0  0  0
  -30.1488   -6.5204  138.2427 C   0  0  0  0  0  0  0  0  0  0  0  0
  -28.2216   -7.6465  136.3539 C   0  0  0  0  0  0  0  0  0  0  0  0
  2  1  1  0
  3  2  1  0
  5  2  2  3
  6  3  1  0
  6  4  1  0
  7  6  1  0
  8  6  1  0
  9  5  1  0
 10  9  1  0
 11 10  1  0
 12 11  1  0
 13 10  1  0
 14 13  1  0
 15 14  1  0
 16 12  1  0
 17 12  1  0
 18  7  1  0
 18 15  1  0
 19 15  1  0
 20 19  1  0
 21 20  1  0
 22 19  1  0
 22 20  1  0
 22 21  1  0
 23 14  1  0
 23 18  1  0
 24 18  1  0
M  END
$$$$

     RDKit          3D

 25 29  0  0  0  0  0  0  0  0999 V2000
  -29.5507   -3.2216  136.2249 C   0  0  0  0  0  0  0  0  0  0  0  0
  -30.4076   -4.3270  136.6836 N   0  0  0  0  0  0  0  0  0  0  0  0
  -28.4978   -2.4948  136.8893 C   0  0  0  0  0  0  0  0  0  0  0  0
  -28.6482   -2.4211  135.2786 C   0  0  0  0  0  0  0  0  0  0  0  0
  -26.2424   -3.8141  136.3328 C   0  0  0  0  0  0  0  0  0  0  0  0
  -24.3331   -2.4242  135.8592 O   0  0  0  0  0  0  0  0  0  0  0  0
  -24.7001   -3.5533  136.6020 C   0  0  0  0  0  0  0  0  0  0  0  0
  -31.7720   -3.9220  136.2840 C   0  0  0  0  0  0  0  0  0  0  0  0
  -22.6989   -3.4022  138.3389 C   0  0  0  0  0  0  0  0  0  0  0  0
  -29.6088   -2.1675  134.0584 C   0  0  0  0  0  0  0  0  0  0  0  0
  -24.2580   -3.3840  138.0740 C   0  0  0  0  0  0  0  0  0  0  0  0
  -22.3146   -4.2366  139.5777 C   0  0  0  0  0  0  0  0  0  0  0  0
  -28.8473   -2.9126  132.8998 C   0  0  0  0  0  0  0  0  0  0  0  0
  -27.4258   -2.3204  132.5189 C   0  0  0  0  0  0  0  0  0  0  0  0
  -27.2601   -3.3133  137.3911 C   0  0  0  0  0  0  0  0  0  0  0  0
  -29.7346   -3.5658  131.7849 C   0  0  0  0  0  0  0  0  0  0  0  0
  -21.6117   -2.6487  137.5287 C   0  0  0  0  0  0  0  0  0  0  0  0
  -27.3393   -1.7481  130.0290 C   0  0  0  0  0  0  0  0  0  0  0  0
  -29.0502   -1.0046  134.8606 C   0  0  0  0  0  0  0  0  0  0  0  0
  -22.2997   -1.9341  138.6310 C   0  0  0  0  0  0  0  0  0  0  0  0
  -26.4428    0.0085  131.8068 C   0  0  0  0  0  0  0  0  0  0  0  0
  -27.4450   -1.1562  131.5096 C   0  0  0  0  0  0  0  0  0  0  0  0
  -26.6982    1.2818  131.0024 C   0  0  0  0  0  0  0  0  0  0  0  0
  -30.8683   -2.8888  136.7342 C   0  0  0  0  0  0  0  0  0  0  0  0
  -30.4516   -2.6249  130.7964 C   0  0  0  0  0  0  0  0  0  0  0  0
  2  1  1  0
  3  1  1  0
  4  1  1  0
  4  3  1  0
  7  5  1  0
  7  6  1  0
  8  2  1  0
 10  4  1  0
 11  7  1  0
 11  9  1  0
 12  9  1  0
 13 10  1  0
 14 13  1  0
 15  3  1  0
 15  5  1  0
 16 13  1  0
 17  9  1  0
 19  4  1  0
 19 10  1  0
 20  9  1  0
 20 17  1  0
 22 14  1  0
 22 18  1  0
 22 21  1  0
 23 21  1  0
 24  1  1  0
 24  2  1  0
 24  8  1  0
 25 16  1  0
M  END
$$$$

     RDKit          3D

 25 28  0  0  0  0  0  0  0  0999 V2000
  -32.6405  -10.1921  136.4558 C   0  0  0  0  0  0  0  0  0  0  0  0
  -32.3527   -9.7728  135.0910 N   0  0  0  0  0  0  0  0  0  0  0  0
  -31.7555   -9.5473  137.4593 N   0  0  0  0  0  0  0  0  0  0  0  0
  -32.9468  -10.4301  133.9495 C   0  0  0  0  0  0  0  0  0  0  0  0
  -31.4430   -8.1137  137.2180 C   0  0  0  0  0  0  0  0  0  0  0  0
  -32.4140  -10.2959  132.7216 C   0  0  0  0  0  0  0  0  0  0  0  0
  -31.0657   -9.6550  132.5710 C   0  0  0  0  0  0  0  0  0  0  0  0
  -30.2567   -7.6883  138.0217 N   0  0  0  0  0  0  0  0  0  0  0  0
  -30.1776   -7.6992  136.5416 C   0  0  0  0  0  0  0  0  0  0  0  0
  -29.9653   -9.8576  133.2667 N   0  0  0  0  0  0  0  0  0  0  0  0
  -29.3691  -11.0138  133.9895 C   0  0  0  0  0  0  0  0  0  0  0  0
  -29.0857  -12.1909  133.1060 C   0  0  0  0  0  0  0  0  0  0  0  0
  -29.2821  -11.1802  135.6052 C   0  0  0  0  0  0  0  0  0  0  0  0
  -28.0023  -11.1632  133.3556 C   0  0  0  0  0  0  0  0  0  0  0  0
  -27.2640  -12.9072  136.5310 C   0  0  0  0  0  0  0  0  0  0  0  0
  -25.9756  -13.0352  135.6489 C   0  0  0  0  0  0  0  0  0  0  0  0
  -28.6215  -10.0120  136.3973 C   0  0  0  0  0  0  0  0  0  0  0  0
  -28.2502   -8.0486  135.0407 C   0  0  0  0  0  0  0  0  0  0  0  0
  -29.0553   -8.6062  135.9813 C   0  0  0  0  0  0  0  0  0  0  0  0
  -32.6204   -7.1191  137.2142 C   0  0  0  0  0  0  0  0  0  0  0  0
  -25.9979  -13.2710  134.1152 C   0  0  0  0  0  0  0  0  0  0  0  0
  -28.7647  -12.5939  136.2023 C   0  0  0  0  0  0  0  0  0  0  0  0
  -25.2114  -14.4497  133.4809 C   0  0  0  0  0  0  0  0  0  0  0  0
  -26.7381  -14.4274  133.5244 C   0  0  0  0  0  0  0  0  0  0  0  0
  -24.6242  -15.6876  134.2984 C   0  0  0  0  0  0  0  0  0  0  0  0
  2  1  1  0
  3  1  1  0
  4  2  1  0
  5  3  1  0
  6  4  2  3
  7  6  1  0
  8  5  1  0
  9  5  1  0
  9  8  1  0
 10  7  2  3
 11 10  1  0
 12 11  1  0
 13 11  1  0
 14 11  1  0
 14 12  1  0
 16 15  1  0
 17 13  1  0
 19  9  1  0
 19 17  1  0
 19 18  2  0
 20  5  1  0
 21 16  1  0
 22 13  1  0
 22 15  1  0
 23 21  1  0
 24 21  1  0
 24 23  1  0
 25 23  1  0
M  END
$$$$

     RDKit          3D

 11 12  0  0  0  0  0  0  0  0999 V2000
  -19.2510  -11.3968  139.9812 C   0  0  0  0  0  0  0  0  0  0  0  0
  -21.8254  -11.3555  139.8027 C   0  0  0  0  0  0  0  0  0  0  0  0
  -17.9123  -11.1689  139.2141 C   0  0  0  0  0  0  0  0  0  0  0  0
  -20.6128  -13.0536  138.3098 C   0  0  0  0  0  0  0  0  0  0  0  0
  -19.0290  -12.3345  141.1701 C   0  0  0  0  0  0  0  0  0  0  0  0
  -23.0232  -12.2153  139.8164 N   0  0  0  0  0  0  0  0  0  0  0  0
  -20.5415  -12.2102  139.6071 C   0  0  0  0  0  0  0  0  0  0  0  0
  -20.2965  -13.1123  140.8327 C   0  0  0  0  0  0  0  0  0  0  0  0
  -18.0422  -10.8446  137.7749 N   0  0  0  0  0  0  0  0  0  0  0  0
  -24.0639  -11.6629  140.6982 C   0  0  0  0  0  0  0  0  0  0  0  0
  -17.3567  -12.0820  138.2204 C   0  0  0  0  0  0  0  0  0  0  0  0
  3  1  1  0
  5  1  1  0
  6  2  1  0
  7  1  1  0
  7  2  1  0
  7  4  1  0
  8  5  1  0
  8  7  1  0
  9  3  1  0
 10  6  1  0
 11  3  1  0
 11  9  1  0
M  END
$$$$

     RDKit          3D

 11 11  0  0  0  0  0  0  0  0999 V2000
  -23.0212  -16.4961  144.2178 O   0  0  0  0  0  1  0  0  0  0  0  0
  -24.0536  -16.5284  145.0614 C   0  0  0  0  0  0  0  0  0  0  0  0
  -24.4520  -17.6736  145.6145 N   0  0  0  0  0  0  0  0  0  0  0  0
  -23.5605  -18.4407  146.2579 C   0  0  0  0  0  0  0  0  0  0  0  0
  -23.3205  -15.6025  145.7215 N   0  0  0  0  0  2  0  0  0  0  0  0
  -23.8103  -18.9166  147.5662 C   0  0  0  0  0  0  0  0  0  0  0  0
  -23.2486  -19.7137  145.7543 C   0  0  0  0  0  0  0  0  0  0  0  0
  -24.2789  -20.2698  144.9499 C   0  0  0  0  0  0  0  0  0  0  0  0
  -25.5925  -20.2364  145.3858 C   0  0  0  0  0  0  0  0  0  0  0  0
  -25.8450  -19.8275  146.6981 C   0  0  0  0  0  0  0  0  0  0  0  0
  -25.3745  -18.6134  147.2000 C   0  0  0  0  0  0  0  0  0  0  0  0
  2  1  1  0
  3  2  1  0
  4  3  1  0
  5  2  1  0
  6  4  1  0
  7  4  1  0
  8  7  1  0
  9  8  2  0
 10  9  1  0
 11  6  1  0
 11 10  1  0
M  RAD  2   1   2   5   2
M  END
$$$$

     RDKit          3D

  7  6  0  0  0  0  0  0  0  0999 V2000
  -26.7833  -18.2258  139.6195 O   0  0  0  0  0  0  0  0  0  0  0  0
  -24.7745  -18.6452  140.8746 C   0  0  0  0  0  0  0  0  0  0  0  0
  -25.6379  -16.2629  140.4879 C   0  0  0  0  0  0  0  0  0  0  0  0
  -26.0135  -17.7549  140.6980 C   0  0  0  0  0  0  0  0  0  0  0  0
  -25.8056  -15.3899  141.7549 C   0  0  0  0  0  0  0  0  0  0  0  0
  -25.5938  -13.9107  141.4050 C   0  0  0  0  0  0  0  0  0  0  0  0
  -24.8426  -15.8019  142.8771 C   0  0  0  0  0  0  0  0  0  0  0  0
  4  1  1  0
  4  2  1  0
  4  3  1  0
  5  3  1  0
  6  5  1  0
  7  5  1  0
M  END
$$$$

     RDKit          3D

 25 29  0  0  0  0  0  0  0  0999 V2000
  -21.4931    1.3580  143.9159 C   0  0  0  0  0  0  0  0  0  0  0  0
  -22.7827    0.5768  143.6750 C   0  0  0  0  0  0  0  0  0  0  0  0
  -22.6943   -0.9154  144.0138 C   0  0  0  0  0  0  0  0  0  0  0  0
  -23.6126   -1.5027  145.0822 C   0  0  0  0  0  0  0  0  0  0  0  0
  -20.6724    1.3602  145.2252 C   0  0  0  0  0  0  0  0  0  0  0  0
  -22.7770    1.6276  144.7654 C   0  0  0  0  0  0  0  0  0  0  0  0
  -23.9778   -1.6482  143.6205 C   0  0  0  0  0  0  0  0  0  0  0  0
  -19.8673    0.1072  145.6702 C   0  0  0  0  0  0  0  0  0  0  0  0
  -18.6343   -0.2579  144.8614 C   0  0  0  0  0  0  0  0  0  0  0  0
  -19.6614    0.0370  147.2181 C   0  0  0  0  0  0  0  0  0  0  0  0
  -17.9511    0.5302  144.0198 C   0  0  0  0  0  0  0  0  0  0  0  0
  -18.1305    2.0305  143.8618 C   0  0  0  0  0  0  0  0  0  0  0  0
  -19.6788    1.3499  147.9933 C   0  0  0  0  0  0  0  0  0  0  0  0
  -16.7961    2.6694  143.3413 C   0  0  0  0  0  0  0  0  0  0  0  0
  -16.9764    7.1706  142.8924 I   0  0  0  0  0  0  0  0  0  0  0  0
  -20.6810    2.2719  148.0637 C   0  0  0  0  0  0  0  0  0  0  0  0
  -16.9579    4.1267  142.7926 C   0  0  0  0  0  0  0  0  0  0  0  0
  -15.6253    2.5060  144.3421 C   0  0  0  0  0  0  0  0  0  0  0  0
  -21.9746    2.3418  147.2444 C   0  0  0  0  0  0  0  0  0  0  0  0
  -22.2280    3.7823  146.8444 C   0  0  0  0  0  0  0  0  0  0  0  0
  -21.9664    1.3751  146.0345 C   0  0  0  0  0  0  0  0  0  0  0  0
  -18.6183    2.6536  145.1826 C   0  0  0  0  0  0  0  0  0  0  0  0
  -20.0279    2.6362  145.3163 O   0  0  0  0  0  0  0  0  0  0  0  0
  -23.4617    4.2766  146.7224 C   0  0  0  0  0  0  0  0  0  0  0  0
  -16.4302    5.2605  143.6966 C   0  0  0  0  0  0  0  0  0  0  0  0
  2  1  1  0
  3  2  1  0
  4  3  1  0
  5  1  1  0
  6  1  1  0
  6  2  1  0
  7  3  1  0
  7  4  1  0
  8  5  1  0
  9  8  1  0
 10  8  1  0
 11  9  2  0
 12 11  1  0
 13 10  1  0
 14 12  1  0
 16 13  2  0
 17 14  1  0
 18 14  1  0
 19 16  1  0
 20 19  1  0
 21  5  1  0
 21  6  1  0
 21 19  1  0
 22 12  1  0
 23  5  1  0
 23 22  1  0
 24 20  2  0
 25 15  1  0
 25 17  1  0
M  END
$$$$

     RDKit          3D

 24 31  0  0  0  0  0  0  0  0999 V2000
  -30.3733   -8.5308  137.8915 C   0  0  0  0  0  0  0  0  0  0  0  0
  -29.8042   -8.7753  139.2562 C   0  0  0  0  0  0  0  0  0  0  0  0
  -31.8382   -8.8604  137.7476 C   0  0  0  0  0  0  0  0  0  0  0  0
  -31.0733   -9.5096  138.8804 C   0  0  0  0  0  0  0  0  0  0  0  0
  -32.2953  -11.2132  136.3515 C   0  0  0  0  0  0  0  0  0  0  0  0
  -32.1102   -8.7875  134.9391 S   0  0  0  0  0  5  0  0  0  0  0  0
  -31.8661  -12.1738  137.4779 C   0  0  0  0  0  0  0  0  0  0  0  0
  -33.5291  -10.3825  136.6661 C   0  0  0  0  0  0  0  0  0  0  0  0
  -30.3565  -12.5145  137.4329 C   0  0  0  0  0  0  0  0  0  0  0  0
  -30.0291  -13.4682  138.6055 C   0  0  0  0  0  0  0  0  0  0  0  0
  -29.9728  -13.1845  136.0902 C   0  0  0  0  0  0  0  0  0  0  0  0
  -28.6644  -13.2815  139.2588 C   0  0  0  0  0  0  0  0  0  0  0  0
  -28.4769  -13.4773  135.9716 C   0  0  0  0  0  0  0  0  0  0  0  0
  -29.9181  -12.8236  139.9812 C   0  0  0  0  0  0  0  0  0  0  0  0
  -32.1757   -9.6854  136.4869 C   0  0  0  0  0  0  0  0  0  0  0  0
  -30.3190   -8.5843  134.3702 S   0  0  0  0  0  4  0  0  0  0  0  0
  -30.3677   -8.0158  132.6437 C   0  0  0  0  0  0  0  0  0  0  0  0
  -30.7501   -9.1990  131.6939 C   0  0  0  0  0  0  0  0  0  0  0  0
  -31.7448   -8.8562  130.5707 C   0  0  0  0  0  0  0  0  0  0  0  0
  -31.6511   -7.4337  130.0989 C   0  0  0  0  0  0  0  0  0  0  0  0
  -32.7926   -7.8415  130.9828 C   0  0  0  0  0  0  0  0  0  0  0  0
  -31.2462   -6.7225  132.5170 C   0  0  0  0  0  0  0  0  0  0  0  0
  -30.7295   -5.7703  131.5012 C   0  0  0  0  0  0  0  0  0  0  0  0
  -32.0767   -6.4771  131.2092 C   0  0  0  0  0  0  0  0  0  0  0  0
  2  1  1  0
  3  1  1  0
  4  1  1  0
  4  2  1  0
  4  3  1  0
  7  5  1  0
  8  5  1  0
  9  7  1  0
 10  9  1  0
 11  9  1  0
 12 10  1  0
 13 11  1  0
 14 10  1  0
 14 12  1  0
 15  3  1  0
 15  5  1  0
 15  6  1  0
 15  8  1  0
 16  6  2  0
 17 16  1  0
 18 17  1  0
 19 18  1  0
 20 19  1  0
 21 19  1  0
 21 20  1  0
 22 17  1  0
 23 22  1  0
 24 20  1  0
 24 21  1  0
 24 22  1  0
 24 23  1  0
M  RAD  1   6   2
M  END
$$$$

     RDKit          3D

 24 26  0  0  0  0  0  0  0  0999 V2000
  -31.3544  -11.7336  149.4351 N   0  0  0  0  0  0  0  0  0  0  0  0
  -32.4760  -12.3203  148.7026 C   0  0  0  0  0  0  0  0  0  0  0  0
  -30.0107  -11.5336  148.9569 C   0  0  0  0  0  0  0  0  0  0  0  0
  -34.2547  -11.6943  146.9822 N   0  0  0  0  0  0  0  0  0  0  0  0
  -29.5977  -11.6680  147.6737 C   0  0  0  0  0  0  0  0  0  0  0  0
  -30.5316  -12.1582  146.5754 C   0  0  0  0  0  0  0  0  0  0  0  0
  -31.8433  -11.3780  146.3321 C   0  0  0  0  0  0  0  0  0  0  0  0
  -28.1237  -11.3963  147.2903 C   0  0  0  0  0  0  0  0  0  0  0  0
  -32.8769  -11.5112  147.4519 C   0  0  0  0  0  0  0  0  0  0  0  0
  -27.7373   -9.8747  147.2745 C   0  0  0  0  0  0  0  0  0  0  0  0
  -27.0726  -12.2847  148.0447 C   0  0  0  0  0  0  0  0  0  0  0  0
  -28.7068   -9.0854  146.3472 C   0  0  0  0  0  0  0  0  0  0  0  0
  -28.2012   -7.7018  145.8969 C   0  0  0  0  0  0  0  0  0  0  0  0
  -32.2477  -10.1478  147.1603 C   0  0  0  0  0  0  0  0  0  0  0  0
  -26.7255  -13.6011  147.3217 C   0  0  0  0  0  0  0  0  0  0  0  0
  -27.6188   -9.2498  148.6957 C   0  0  0  0  0  0  0  0  0  0  0  0
  -27.9049  -14.5638  147.2032 C   0  0  0  0  0  0  0  0  0  0  0  0
  -28.7650   -6.5765  146.7826 C   0  0  0  0  0  0  0  0  0  0  0  0
  -30.1435   -6.0632  146.3757 C   0  0  0  0  0  0  0  0  0  0  0  0
  -28.9031   -5.2213  146.0981 C   0  0  0  0  0  0  0  0  0  0  0  0
  -28.7365   -4.0067  147.0108 C   0  0  0  0  0  0  0  0  0  0  0  0
  -27.4445  -12.5716  149.3469 F   0  0  0  0  0  0  0  0  0  0  0  0
  -26.4074   -8.3123  148.8397 C   0  0  0  0  0  0  0  0  0  0  0  0
  -26.3709   -7.6679  150.2227 C   0  0  0  0  0  0  0  0  0  0  0  0
  2  1  1  0
  3  1  1  0
  5  3  2  0
  6  5  1  0
  7  6  1  0
  8  5  1  0
  9  2  1  0
  9  4  1  0
  9  7  1  0
 10  8  1  0
 11  8  1  0
 12 10  1  0
 13 12  1  0
 14  7  1  0
 14  9  1  0
 15 11  1  0
 16 10  1  0
 17 15  1  0
 18 13  1  0
 19 18  1  0
 20 18  1  0
 20 19  1  0
 21 20  1  0
 22 11  1  0
 23 16  1  0
 24 23  1  0
M  END
$$$$

     RDKit          3D

 25 29  0  0  0  0  0  0  0  0999 V2000
  -25.0944  -20.7561  139.8049 O   0  0  0  0  0  0  0  0  0  0  0  0
  -25.9691  -21.8642  139.8202 C   0  0  0  0  0  0  0  0  0  0  0  0
  -27.4018  -21.4084  140.1685 C   0  0  0  0  0  0  0  0  0  0  0  0
  -27.6497  -20.1145  140.0965 C   0  0  0  0  0  0  0  0  0  0  0  0
  -29.2287  -18.4070  139.6262 N   0  0  0  0  0  0  0  0  0  0  0  0
  -25.4084  -22.8643  140.8190 C   0  0  0  0  0  0  0  0  0  0  0  0
  -29.5465  -16.9924  139.4316 C   0  0  0  0  0  0  0  0  0  0  0  0
  -28.6714  -23.3591  141.2640 C   0  0  0  0  0  0  0  0  0  0  0  0
  -25.6038  -24.2001  140.8124 C   0  0  0  0  0  0  0  0  0  0  0  0
  -29.6943  -16.2475  140.7726 C   0  0  0  0  0  0  0  0  0  0  0  0
  -27.9128  -18.8349  139.9865 C   0  0  0  0  0  0  0  0  0  0  0  0
  -26.5333  -25.0017  139.9212 C   0  0  0  0  0  0  0  0  0  0  0  0
  -30.7093  -16.7933  141.8143 C   0  0  0  0  0  0  0  0  0  0  0  0
  -31.9328  -17.5709  141.3298 C   0  0  0  0  0  0  0  0  0  0  0  0
  -31.4904  -18.7774  142.1617 C   0  0  0  0  0  0  0  0  0  0  0  0
  -27.4162  -24.1656  139.1078 N   0  0  0  0  0  0  0  0  0  0  0  0
  -32.5975  -19.3306  143.1153 C   0  0  0  0  0  0  0  0  0  0  0  0
  -28.6585  -23.7657  139.7849 C   0  0  0  0  0  0  0  0  0  0  0  0
  -28.6579  -22.2856  140.1728 C   0  0  0  0  0  0  0  0  0  0  0  0
  -30.2560  -18.0053  142.6260 C   0  0  0  0  0  0  0  0  0  0  0  0
  -33.3506  -18.4540  144.0963 C   0  0  0  0  0  0  0  0  0  0  0  0
  -32.4552  -19.5728  144.6348 C   0  0  0  0  0  0  0  0  0  0  0  0
  -32.7544  -17.1583  144.4148 N   0  0  0  0  0  0  0  0  0  0  0  0
  -31.8957  -17.3747  145.5807 C   0  0  0  0  0  0  0  0  0  0  0  0
  -31.5332  -18.8514  145.6058 C   0  0  0  0  0  0  0  0  0  0  0  0
  2  1  1  0
  3  2  1  0
  4  3  2  0
  6  2  1  0
  7  5  1  0
  9  6  2  3
 10  7  1  0
 11  4  2  0
 11  5  1  0
 12  9  1  0
 13 10  1  0
 14 13  1  0
 15 14  1  0
 16 12  1  0
 17 15  1  0
 18  8  1  0
 18 16  1  0
 19  3  1  0
 19  8  1  0
 19 18  1  0
 20 13  1  0
 20 15  1  0
 21 17  1  0
 22 17  1  0
 22 21  1  0
 23 21  1  0
 24 23  1  0
 25 22  1  0
 25 24  1  0
M  END
$$$$

     RDKit          3D

 25 30  0  0  0  0  0  0  0  0999 V2000
  -18.6730  -10.8544  150.5375 O   0  0  0  0  0  0  0  0  0  0  0  0
  -19.2765  -12.0304  151.0536 C   0  0  0  0  0  0  0  0  0  0  0  0
  -18.7603  -12.3096  152.4440 C   0  0  0  0  0  0  0  0  0  0  0  0
  -18.9222  -13.2791  150.2400 C   0  0  0  0  0  0  0  0  0  0  0  0
  -19.7070  -13.4901  148.9007 C   0  0  0  0  0  0  0  0  0  0  0  0
  -20.6939  -12.4212  148.3536 C   0  0  0  0  0  0  0  0  0  0  0  0
  -19.2586  -12.4730  147.8321 C   0  0  0  0  0  0  0  0  0  0  0  0
  -21.7026  -12.7727  147.2671 C   0  0  0  0  0  0  0  0  0  0  0  0
  -23.1298  -12.8955  147.8287 C   0  0  0  0  0  0  0  0  0  0  0  0
  -19.8730  -14.9471  148.3636 C   0  0  0  0  0  0  0  0  0  0  0  0
  -19.9937  -14.2601  153.6316 N   0  0  0  0  0  0  0  0  0  0  0  0
  -17.5597  -14.3840  153.2995 C   0  0  0  0  0  0  0  0  0  0  0  0
  -20.5001  -13.2075  154.5404 C   0  0  0  0  0  0  0  0  0  0  0  0
  -21.9313  -13.3432  155.0375 C   0  0  0  0  0  0  0  0  0  0  0  0
  -21.5756  -12.3870  153.9007 C   0  0  0  0  0  0  0  0  0  0  0  0
  -24.1075  -13.9289  147.2515 C   0  0  0  0  0  0  0  0  0  0  0  0
  -23.0592  -14.0320  153.0444 F   0  0  0  0  0  0  0  0  0  0  0  0
  -18.8903  -13.8528  152.7023 C   0  0  0  0  0  0  0  0  0  0  0  0
  -23.6704  -14.7736  146.0788 C   0  0  0  0  0  0  0  0  0  0  0  0
  -23.5794  -14.3029  144.8296 C   0  0  0  0  0  0  0  0  0  0  0  0
  -23.6805  -12.8702  144.5573 C   0  0  0  0  0  0  0  0  0  0  0  0
  -23.9834  -11.9798  145.5279 C   0  0  0  0  0  0  0  0  0  0  0  0
  -24.2925  -12.4272  146.9310 C   0  0  0  0  0  0  0  0  0  0  0  0
  -19.1214  -14.4220  151.2651 C   0  0  0  0  0  0  0  0  0  0  0  0
  -22.9647  -13.0033  153.9730 C   0  0  0  0  0  0  0  0  0  0  0  0
  2  1  1  0
  3  2  1  0
  4  2  1  0
  5  4  1  0
  6  5  1  0
  7  5  1  0
  7  6  1  0
  8  6  1  0
  9  8  1  0
 10  5  1  0
 13 11  1  0
 14 13  1  0
 15 13  1  0
 15 14  1  0
 16  9  1  0
 18  3  1  0
 18 11  1  0
 18 12  1  0
 19 16  1  0
 20 19  2  0
 21 20  1  0
 22 21  2  0
 23  9  1  0
 23 16  1  0
 23 22  1  0
 24  4  1  0
 24 18  1  0
 25 14  1  0
 25 15  1  0
 25 17  1  0
M  END
$$$$

     RDKit          3D

 25 25  0  0  0  0  0  0  0  0999 V2000
  -28.5225  -12.1845  139.5865 O   0  0  0  0  0  0  0  0  0  0  0  0
  -28.1155  -12.2985  138.3972 C   0  0  0  0  0  0  0  0  0  0  0  0
  -27.1566  -11.4226  137.9019 O   0  0  0  0  0  0  0  0  0  0  0  0
  -28.6910  -13.3543  137.5046 C   0  0  0  0  0  0  0  0  0  0  0  0
  -29.9066  -11.6657  135.9516 C   0  0  0  0  0  0  0  0  0  0  0  0
  -28.9889  -11.8514  134.7180 C   0  0  0  0  0  0  0  0  0  0  0  0
  -29.7234  -11.6916  133.3692 C   0  0  0  0  0  0  0  0  0  0  0  0
  -30.4984  -12.9511  132.9269 C   0  0  0  0  0  0  0  0  0  0  0  0
  -30.0151  -12.9097  136.8536 C   0  0  0  0  0  0  0  0  0  0  0  0
  -29.6048  -14.1328  132.4482 C   0  0  0  0  0  0  0  0  0  0  0  0
  -30.4571  -15.4346  132.2628 C   0  0  0  0  0  0  0  0  0  0  0  0
  -29.5749  -16.7199  132.4599 C   0  0  0  0  0  0  0  0  0  0  0  0
  -30.0084  -17.8053  131.6718 O   0  0  0  0  0  0  0  0  0  0  0  0
  -29.1757  -17.2166  133.8031 N   0  0  0  0  0  0  0  0  0  0  0  0
  -28.7563  -17.2555  131.3316 C   0  0  0  0  0  0  0  0  0  0  0  0
  -30.2900  -17.2618  136.0107 C   0  0  0  0  0  0  0  0  0  0  0  0
  -29.5093  -16.4151  134.9968 C   0  0  0  0  0  0  0  0  0  0  0  0
  -31.7966  -17.3685  135.7028 C   0  0  0  0  0  0  0  0  0  0  0  0
  -32.1070  -18.3650  134.5791 C   0  0  0  0  0  0  0  0  0  0  0  0
  -33.6081  -18.4957  134.3456 C   0  0  0  0  0  0  0  0  0  0  0  0
  -27.2824  -13.5379  131.5188 C   0  0  0  0  0  0  0  0  0  0  0  0
  -25.8895  -14.8221  132.8755 C   0  0  0  0  0  0  0  0  0  0  0  0
  -28.7652  -13.7603  131.1895 C   0  0  0  0  0  0  0  0  0  0  0  0
  -26.6316  -14.7893  131.6764 O   0  0  0  0  0  0  0  0  0  0  0  0
  -31.3258  -15.4178  130.9720 C   0  0  0  0  0  0  0  0  0  0  0  0
  2  1  2  0
  3  2  1  0
  4  2  1  0
  6  5  1  0
  7  6  1  0
  8  7  1  0
  9  4  1  0
  9  5  1  0
 10  8  1  0
 11 10  1  0
 12 11  1  0
 13 12  1  0
 14 12  1  0
 15 12  1  0
 15 13  1  0
 17 14  1  0
 17 16  1  0
 18 16  1  0
 19 18  1  0
 20 19  1  0
 23 10  1  0
 23 21  1  0
 24 21  1  0
 24 22  1  0
 25 11  1  0
M  END
$$$$

     RDKit          3D

 24 29  0  0  0  0  0  0  0  0999 V2000
  -32.4175   -9.1724  137.3374 C   0  0  0  0  0  0  0  0  0  0  0  0
  -32.0355   -8.6490  138.7321 C   0  0  0  0  0  0  0  0  0  0  0  0
  -30.8954   -9.3138  139.3905 C   0  0  0  0  0  0  0  0  0  0  0  0
  -33.5535  -10.1136  137.3758 C   0  0  0  0  0  0  0  0  0  0  0  0
  -30.0638  -10.4141  138.7115 C   0  0  0  0  0  0  0  0  0  0  0  0
  -30.7231  -11.7464  138.3618 C   0  0  0  0  0  0  0  0  0  0  0  0
  -31.8727   -7.1940  138.7611 C   0  0  0  0  0  0  0  0  0  0  0  0
  -33.8164   -8.6780  136.8553 C   0  0  0  0  0  0  0  0  0  0  0  0
  -30.6671   -8.0369  138.6814 N   0  0  0  0  0  0  0  0  0  0  0  0
  -34.8069   -9.0911  135.7058 C   0  0  0  0  0  0  0  0  0  0  0  0
  -35.9142   -8.3773  134.8715 C   0  0  0  0  0  0  0  0  0  0  0  0
  -33.3667   -5.8247  140.2438 C   0  0  0  0  0  0  0  0  0  0  0  0
  -29.9099  -11.6190  139.6380 C   0  0  0  0  0  0  0  0  0  0  0  0
  -28.5959  -12.2669  139.5562 N   0  0  0  0  0  0  0  0  0  0  0  0
  -28.2003  -12.0962  142.0759 C   0  0  0  0  0  0  0  0  0  0  0  0
  -31.9963   -6.4944  140.1220 C   0  0  0  0  0  0  0  0  0  0  0  0
  -28.5557  -13.5732  142.3011 C   0  0  0  0  0  0  0  0  0  0  0  0
  -27.7004  -11.8053  140.6336 C   0  0  0  0  0  0  0  0  0  0  0  0
  -33.4821   -6.7689  135.2568 C   0  0  0  0  0  0  0  0  0  0  0  0
  -36.7949   -9.3336  134.0673 C   0  0  0  0  0  0  0  0  0  0  0  0
  -33.5183   -5.1315  141.5996 C   0  0  0  0  0  0  0  0  0  0  0  0
  -36.0910   -8.4843  136.3355 C   0  0  0  0  0  0  0  0  0  0  0  0
  -33.5391   -8.2979  135.4128 C   0  0  0  0  0  0  0  0  0  0  0  0
  -27.1362  -11.6596  143.0959 C   0  0  0  0  0  0  0  0  0  0  0  0
  2  1  1  0
  3  2  1  0
  4  1  1  0
  5  3  1  0
  6  5  1  0
  7  2  1  0
  8  1  1  0
  8  4  1  0
  9  2  1  0
  9  3  1  0
  9  7  1  0
 10  8  1  0
 11 10  1  0
 13  5  1  0
 13  6  1  0
 14 13  1  0
 16  7  1  0
 16 12  1  0
 17 15  1  0
 18 14  1  0
 18 15  1  0
 20 11  1  0
 21 12  1  0
 22 10  1  0
 22 11  1  0
 23  8  1  0
 23 10  1  0
 23 19  1  0
 24 15  1  0
M  END
$$$$

     RDKit          3D

 25 34  0  0  0  0  0  0  0  0999 V2000
  -23.7937    6.7013  144.4457 C   0  0  0  0  0  0  0  0  0  0  0  0
  -23.9790    7.1913  142.9580 C   0  0  0  0  0  0  0  0  0  0  0  0
  -23.0048    6.5207  141.9458 C   0  0  0  0  0  0  0  0  0  0  0  0
  -23.3590    5.8244  140.6483 C   0  0  0  0  0  0  0  0  0  0  0  0
  -23.4278    4.8315  139.4855 C   0  0  0  0  0  0  0  0  0  0  0  0
  -21.7247    7.3845  141.6970 C   0  0  0  0  0  0  0  0  0  0  0  0
  -22.3710    6.2072  144.9471 C   0  0  0  0  0  0  0  0  0  0  0  0
  -21.9721    8.4741  140.6376 C   0  0  0  0  0  0  0  0  0  0  0  0
  -22.2057    8.0114  139.1634 C   0  0  0  0  0  0  0  0  0  0  0  0
  -21.6741    6.6406  138.7303 C   0  0  0  0  0  0  0  0  0  0  0  0
  -21.5247    5.3863  143.9384 C   0  0  0  0  0  0  0  0  0  0  0  0
  -22.2827    6.4866  137.2877 C   0  0  0  0  0  0  0  0  0  0  0  0
  -23.4617    7.4489  137.2746 C   0  0  0  0  0  0  0  0  0  0  0  0
  -22.5905    4.5447  143.2714 C   0  0  0  0  0  0  0  0  0  0  0  0
  -24.0742    5.3042  138.1741 C   0  0  0  0  0  0  0  0  0  0  0  0
  -23.6629    8.0535  138.6430 C   0  0  0  0  0  0  0  0  0  0  0  0
  -22.9959    5.1698  137.1035 C   0  0  0  0  0  0  0  0  0  0  0  0
  -24.3687    9.4205  138.6337 C   0  0  0  0  0  0  0  0  0  0  0  0
  -23.2520    4.9600  141.9307 C   0  0  0  0  0  0  0  0  0  0  0  0
  -23.9244    8.1206  135.9713 C   0  0  0  0  0  0  0  0  0  0  0  0
  -24.5195    6.8106  138.1465 C   0  0  0  0  0  0  0  0  0  0  0  0
  -22.1112    5.5176  139.7445 C   0  0  0  0  0  0  0  0  0  0  0  0
  -24.5970    4.6073  142.1334 O   0  0  0  0  0  0  0  0  0  0  0  0
  -21.2876    3.8861  143.6236 C   0  0  0  0  0  0  0  0  0  0  0  0
  -22.5619    3.0723  143.5980 C   0  0  0  0  0  0  0  0  0  0  0  0
  2  1  1  0
  3  2  1  0
  4  3  1  0
  5  4  1  0
  6  3  1  0
  7  1  1  0
  8  6  1  0
  9  8  1  0
 10  9  1  0
 11  7  1  0
 12 10  1  0
 13 12  1  0
 14 11  1  0
 15  5  1  0
 16  9  1  0
 16 13  1  0
 17 12  1  0
 17 15  1  0
 18 16  1  0
 19  3  1  0
 19  4  1  0
 19 14  1  0
 20 13  1  0
 21 13  1  0
 21 15  1  0
 21 16  1  0
 22  4  1  0
 22  5  1  0
 22 10  1  0
 23 19  1  0
 24 11  1  0
 24 14  1  0
 25 14  1  0
 25 24  1  0
M  END
$$$$

     RDKit          3D

 25 31  0  0  0  0  0  0  0  0999 V2000
  -20.4437    0.1793  142.7936 C   0  0  0  0  0  0  0  0  0  0  0  0
  -20.5017    1.6819  142.4754 C   0  0  0  0  0  0  0  0  0  0  0  0
  -20.0851    2.5472  143.6802 C   0  0  0  0  0  0  0  0  0  0  0  0
  -21.2915    2.9517  144.5498 C   0  0  0  0  0  0  0  0  0  0  0  0
  -21.6064   -0.3393  143.6160 C   0  0  0  0  0  0  0  0  0  0  0  0
  -20.9116    4.0033  145.6226 C   0  0  0  0  0  0  0  0  0  0  0  0
  -22.1623    4.7931  146.0480 C   0  0  0  0  0  0  0  0  0  0  0  0
  -22.4472    6.2470  146.1207 C   0  0  0  0  0  0  0  0  0  0  0  0
  -21.4184    8.5883  145.9123 C   0  0  0  0  0  0  0  0  0  0  0  0
  -22.8610   -0.5552  142.7966 C   0  0  0  0  0  0  0  0  0  0  0  0
  -21.5182   -0.6345  142.0937 C   0  0  0  0  0  0  0  0  0  0  0  0
  -20.2442    3.3480  146.8807 C   0  0  0  0  0  0  0  0  0  0  0  0
  -21.2094    2.8618  147.9581 C   0  0  0  0  0  0  0  0  0  0  0  0
  -20.6437    9.5499  144.9789 C   0  0  0  0  0  0  0  0  0  0  0  0
  -20.7669    8.5157  147.3112 C   0  0  0  0  0  0  0  0  0  0  0  0
  -19.1979    9.0760  144.7095 C   0  0  0  0  0  0  0  0  0  0  0  0
  -22.0856    3.6328  148.6565 C   0  0  0  0  0  0  0  0  0  0  0  0
  -22.4171    5.0992  148.3869 C   0  0  0  0  0  0  0  0  0  0  0  0
  -21.6939    5.6023  147.2121 N   0  0  0  0  0  0  0  0  0  0  0  0
  -21.0826   -2.0787  141.7741 C   0  0  0  0  0  0  0  0  0  0  0  0
  -21.5768    7.1889  145.2755 C   0  0  0  0  0  0  0  0  0  0  0  0
  -19.0120    8.3906  143.3667 C   0  0  0  0  0  0  0  0  0  0  0  0
  -18.9631    9.4131  142.2387 C   0  0  0  0  0  0  0  0  0  0  0  0
  -18.3441    9.7219  143.6192 C   0  0  0  0  0  0  0  0  0  0  0  0
  -18.9141   10.8362  142.7736 C   0  0  0  0  0  0  0  0  0  0  0  0
  2  1  1  0
  3  2  1  0
  4  3  1  0
  5  1  1  0
  6  4  1  0
  7  6  1  0
  8  7  1  0
 10  5  1  0
 11  1  1  0
 11  5  1  0
 11 10  1  0
 12  6  1  0
 13 12  1  0
 14  9  1  0
 15  9  1  0
 16 14  1  0
 17 13  2  0
 18 17  1  0
 19  7  1  0
 19  8  1  0
 19 18  1  0
 20 11  1  0
 21  8  1  0
 21  9  1  0
 22 16  1  0
 23 22  1  0
 24 16  1  0
 24 22  1  0
 24 23  1  0
 25 23  1  0
 25 24  1  0
M  END
$$$$

     RDKit          3D

 11 14  0  0  0  0  0  0  0  0999 V2000
  -21.1179   -5.9331  134.6757 N   0  0  0  0  0  0  0  0  0  0  0  0
  -21.3448   -5.0482  133.5258 C   0  0  0  0  0  0  0  0  0  0  0  0
  -22.7773   -4.8004  133.3020 N   0  0  0  0  0  0  0  0  0  0  0  0
  -23.5227   -5.5733  134.3075 C   0  0  0  0  0  0  0  0  0  0  0  0
  -26.6050   -7.3024  135.0328 N   0  0  0  0  0  0  0  0  0  0  0  0
  -24.8413   -6.9010  132.4347 C   0  0  0  0  0  0  0  0  0  0  0  0
  -25.3141   -8.1313  133.0943 N   0  0  0  0  0  0  0  0  0  0  0  0
  -24.8562   -6.0988  133.7389 C   0  0  0  0  0  0  0  0  0  0  0  0
  -26.6336   -8.4528  132.6846 N   0  0  0  0  0  0  0  0  0  0  0  0
  -25.2941   -7.4099  134.3852 C   0  0  0  0  0  0  0  0  0  0  0  0
  -22.2647   -6.1142  133.7671 C   0  0  0  0  0  0  0  0  0  0  0  0
  2  1  1  0
  3  2  1  0
  4  3  1  0
  7  6  1  0
  8  4  1  0
  8  6  1  0
  9  7  1  0
 10  5  1  0
 10  7  1  0
 10  8  1  0
 11  1  1  0
 11  2  1  0
 11  3  1  0
 11  4  1  0
M  END
$$$$

     RDKit          3D

 25 29  0  0  0  0  0  0  0  0999 V2000
  -31.5775  -24.3870  147.3331 O   0  0  0  0  0  0  0  0  0  0  0  0
  -29.9923  -22.6128  146.7900 C   0  0  0  0  0  0  0  0  0  0  0  0
  -28.8266  -21.7879  147.2221 C   0  0  0  0  0  0  0  0  0  0  0  0
  -30.5526  -22.3724  145.3509 C   0  0  0  0  0  0  0  0  0  0  0  0
  -27.9505  -22.3349  148.2632 N   0  0  0  0  0  0  0  0  0  0  0  0
  -32.0155  -22.3538  145.3120 N   0  0  0  0  0  0  0  0  0  0  0  0
  -30.1925  -21.4774  147.7244 N   0  0  0  0  0  0  0  0  0  0  0  0
  -30.4567  -23.5625  144.4074 C   0  0  0  0  0  0  0  0  0  0  0  0
  -31.9700  -23.4632  144.3509 C   0  0  0  0  0  0  0  0  0  0  0  0
  -28.1946  -20.6789  146.3544 C   0  0  0  0  0  0  0  0  0  0  0  0
  -32.3741  -23.0658  143.0533 O   0  0  0  0  0  0  0  0  0  0  0  0
  -30.2521  -23.9643  147.5060 C   0  0  0  0  0  0  0  0  0  0  0  0
  -33.7822  -23.1120  142.8950 C   0  0  0  0  0  0  0  0  0  0  0  0
  -34.1149  -21.9362  141.9526 C   0  0  0  0  0  0  0  0  0  0  0  0
  -34.1721  -24.5108  142.2998 C   0  0  0  0  0  0  0  0  0  0  0  0
  -33.8184  -24.7194  140.7972 C   0  0  0  0  0  0  0  0  0  0  0  0
  -34.9012  -24.3425  139.7856 C   0  0  0  0  0  0  0  0  0  0  0  0
  -34.2884  -20.6031  142.6735 C   0  0  0  0  0  0  0  0  0  0  0  0
  -36.7434  -24.0984  142.6007 C   0  0  0  0  0  0  0  0  0  0  0  0
  -38.0851  -24.8276  142.7540 C   0  0  0  0  0  0  0  0  0  0  0  0
  -35.4857  -21.2763  142.0305 C   0  0  0  0  0  0  0  0  0  0  0  0
  -39.2531  -23.8495  142.6547 C   0  0  0  0  0  0  0  0  0  0  0  0
  -35.5573  -25.0657  142.7357 C   0  0  0  0  0  0  0  0  0  0  0  0
  -35.8556  -20.5446  140.7532 C   0  0  0  0  0  0  0  0  0  0  0  0
  -35.3298  -19.7710  141.9447 C   0  0  0  0  0  0  0  0  0  0  0  0
  3  2  1  0
  4  2  1  0
  5  3  1  0
  6  4  1  0
  7  2  1  0
  7  3  1  0
  8  4  1  0
  9  6  1  0
  9  8  1  0
 10  3  1  0
 11  9  1  0
 12  1  1  0
 12  2  1  0
 13 11  1  0
 14 13  1  0
 15 13  1  0
 16 15  1  0
 17 16  1  0
 18 14  1  0
 20 19  1  0
 21 14  1  0
 21 18  1  0
 22 20  1  0
 23 15  1  0
 23 19  1  0
 24 21  1  0
 25 18  1  0
 25 21  1  0
 25 24  1  0
M  END
$$$$

     RDKit          3D

 25 29  0  0  0  0  0  0  0  0999 V2000
  -24.9288  -14.9053  143.2001 N   0  0  0  0  0  0  0  0  0  0  0  0
  -24.3236  -15.1166  144.5288 C   0  0  0  0  0  0  0  0  0  0  0  0
  -25.1148  -14.6533  145.6956 N   0  0  0  0  0  0  0  0  0  0  0  0
  -23.7522  -16.5133  144.7683 C   0  0  0  0  0  0  0  0  0  0  0  0
  -23.7984  -17.5589  143.6290 C   0  0  0  0  0  0  0  0  0  0  0  0
  -22.7745  -15.2969  144.7112 C   0  0  0  0  0  0  0  0  0  0  0  0
  -26.2412  -13.7542  145.3715 C   0  0  0  0  0  0  0  0  0  0  0  0
  -26.9954  -13.3379  146.6107 C   0  0  0  0  0  0  0  0  0  0  0  0
  -25.8166  -12.4150  144.8101 C   0  0  0  0  0  0  0  0  0  0  0  0
  -26.7956  -11.4351  145.2818 N   0  0  0  0  0  0  0  0  0  0  0  0
  -22.2375  -15.1372  146.0818 N   0  0  0  0  0  0  0  0  0  0  0  0
  -27.5377  -12.0084  146.3395 N   0  0  0  0  0  0  0  0  0  0  0  0
  -21.4777  -13.9051  146.3350 C   0  0  0  0  0  0  0  0  0  0  0  0
  -21.7140  -15.4827  143.5789 C   0  0  0  0  0  0  0  0  0  0  0  0
  -25.2022  -18.0176  143.4873 N   0  0  0  0  0  0  0  0  0  0  0  0
  -22.2264  -12.7282  145.9015 N   0  0  0  0  0  2  0  0  0  0  0  0
  -25.7052  -18.9157  142.3703 C   0  0  0  0  0  0  0  0  0  0  0  0
  -25.1861  -18.3233  141.0317 C   0  0  0  0  0  0  0  0  0  0  0  0
  -26.1747  -18.2859  140.0653 F   0  0  0  0  0  0  0  0  0  0  0  0
  -21.1941  -13.8065  147.7625 N   0  0  0  0  0  2  0  0  0  0  0  0
  -25.3092  -19.4605  143.6963 C   0  0  0  0  0  0  0  0  0  0  0  0
  -20.8163  -14.2905  143.2518 C   0  0  0  0  0  0  0  0  0  0  0  0
  -21.8819  -14.7082  142.2708 C   0  0  0  0  0  0  0  0  0  0  0  0
  -24.7832  -19.7107  141.3690 C   0  0  0  0  0  0  0  0  0  0  0  0
  -23.2576  -19.8991  141.4547 C   0  0  0  0  0  0  0  0  0  0  0  0
  2  1  1  0
  3  2  1  0
  4  2  1  0
  5  4  1  0
  6  2  1  0
  6  4  1  0
  7  3  1  0
  8  7  1  0
  9  7  1  0
 10  9  1  0
 11  6  1  0
 12  8  1  0
 12 10  1  0
 13 11  1  0
 14  6  1  0
 15  5  1  0
 16 13  1  0
 17 15  1  0
 18 17  1  0
 19 18  1  0
 20 13  1  0
 21 15  1  0
 21 17  1  0
 22 14  1  0
 23 14  1  0
 23 22  1  0
 24 17  1  0
 24 18  1  0
 25 24  1  0
M  RAD  2  16   2  20   2
M  END
$$$$

     RDKit          3D

 25 29  0  0  0  0  0  0  0  0999 V2000
  -28.2619  -19.8841  150.7375 O   0  0  0  0  0  0  0  0  0  0  0  0
  -28.2468  -22.2794  150.3488 C   0  0  0  0  0  0  0  0  0  0  0  0
  -29.0331  -20.9408  150.2314 C   0  0  0  0  0  0  0  0  0  0  0  0
  -29.4535  -20.6286  148.7633 C   0  0  0  0  0  0  0  0  0  0  0  0
  -28.1777  -23.0455  151.7134 C   0  0  0  0  0  0  0  0  0  0  0  0
  -28.2213  -20.4697  147.8298 C   0  0  0  0  0  0  0  0  0  0  0  0
  -28.4456  -19.7956  146.5022 C   0  0  0  0  0  0  0  0  0  0  0  0
  -29.5247  -23.3567  152.3421 C   0  0  0  0  0  0  0  0  0  0  0  0
  -27.6895  -18.5151  146.2698 C   0  0  0  0  0  0  0  0  0  0  0  0
  -27.6760  -19.0674  147.6741 C   0  0  0  0  0  0  0  0  0  0  0  0
  -30.3516  -19.4612  148.7146 N   0  0  0  0  0  0  0  0  0  0  0  0
  -27.1580  -22.6391  152.7865 C   0  0  0  0  0  0  0  0  0  0  0  0
  -26.1910  -21.4426  152.6059 C   0  0  0  0  0  0  0  0  0  0  0  0
  -28.5433  -17.2395  146.1184 C   0  0  0  0  0  0  0  0  0  0  0  0
  -28.6306  -22.3089  152.9837 C   0  0  0  0  0  0  0  0  0  0  0  0
  -29.2800  -17.0926  144.7600 C   0  0  0  0  0  0  0  0  0  0  0  0
  -26.4238  -20.2604  153.5706 C   0  0  0  0  0  0  0  0  0  0  0  0
  -28.9505  -18.1783  143.7147 C   0  0  0  0  0  0  0  0  0  0  0  0
  -29.1132  -17.7448  142.2664 C   0  0  0  0  0  0  0  0  0  0  0  0
  -27.7192  -18.0108  142.8210 C   0  0  0  0  0  0  0  0  0  0  0  0
  -26.5771  -20.6529  155.0600 C   0  0  0  0  0  0  0  0  0  0  0  0
  -27.8415  -20.0253  155.6777 C   0  0  0  0  0  0  0  0  0  0  0  0
  -28.0926  -20.4827  157.1213 C   0  0  0  0  0  0  0  0  0  0  0  0
  -26.9459  -16.7821  142.9631 N   0  0  0  0  0  0  0  0  0  0  0  0
  -28.6769  -21.8929  157.1916 C   0  0  0  0  0  0  0  0  0  0  0  0
  3  1  1  0
  3  2  1  0
  4  3  1  0
  5  2  1  0
  6  4  1  0
  7  6  1  0
  8  5  1  0
  9  7  1  0
 10  6  1  0
 10  7  1  0
 10  9  1  0
 11  4  1  0
 12  5  1  0
 13 12  1  0
 14  9  1  0
 15  5  1  0
 15  8  1  0
 15 12  1  0
 16 14  1  0
 17 13  1  0
 18 16  1  0
 19 18  1  0
 20 18  1  0
 20 19  1  0
 21 17  1  0
 22 21  1  0
 23 22  1  0
 24 20  1  0
 25 23  1  0
M  END
$$$$

     RDKit          3D

 25 31  0  0  0  0  0  0  0  0999 V2000
  -18.9687   -4.1294  143.8729 N   0  0  0  0  0  0  0  0  0  0  0  0
  -18.8963   -2.8655  143.1580 C   0  0  0  0  0  0  0  0  0  0  0  0
  -18.0729   -1.8092  143.8494 N   0  0  0  0  0  0  0  0  0  0  0  0
  -20.2934   -2.4615  142.8829 N   0  0  0  0  0  0  0  0  0  0  0  0
  -17.8156   -0.5381  143.1120 C   0  0  0  0  0  0  0  0  0  0  0  0
  -20.7390   -1.3695  143.7683 C   0  0  0  0  0  0  0  0  0  0  0  0
  -19.0307   -5.7648  142.5902 Mg  0  0  0  0  0  2  0  0  0  0  0  0
  -16.6553   -0.8604  142.2626 N   0  0  0  0  0  0  0  0  0  0  0  0
  -17.6047    0.8073  143.8389 C   0  0  0  0  0  0  0  0  0  0  0  0
  -21.5523   -2.2241  144.7137 C   0  0  0  0  0  0  0  0  0  0  0  0
  -18.6402    1.4537  144.8223 C   0  0  0  0  0  0  0  0  0  0  0  0
  -15.6464    0.1216  142.7133 C   0  0  0  0  0  0  0  0  0  0  0  0
  -16.1107    0.8364  144.0362 C   0  0  0  0  0  0  0  0  0  0  0  0
  -19.8534    1.7263  143.8695 C   0  0  0  0  0  0  0  0  0  0  0  0
  -20.1333    1.2762  145.2734 C   0  0  0  0  0  0  0  0  0  0  0  0
  -20.3773   -0.0932  145.9367 C   0  0  0  0  0  0  0  0  0  0  0  0
  -20.3174   -1.4342  145.1815 C   0  0  0  0  0  0  0  0  0  0  0  0
  -19.9287   -7.0362  141.3913 F   0  0  0  0  0  0  0  0  0  0  0  0
  -17.0377   -2.2581  144.7868 C   0  0  0  0  0  0  0  0  0  0  0  0
  -17.1571   -3.1797  145.7731 C   0  0  0  0  0  0  0  0  0  0  0  0
  -17.7028    0.7961  140.9362 F   0  0  0  0  0  0  0  0  0  0  0  0
  -17.9272   -0.3720  141.6467 C   0  0  0  0  0  0  0  0  0  0  0  0
  -18.6875   -1.3148  140.9903 F   0  0  0  0  0  0  0  0  0  0  0  0
  -20.2062   -4.2377  144.4623 O   0  0  0  0  0  0  0  0  0  0  0  0
  -21.0540   -3.3524  143.7763 C   0  0  0  0  0  0  0  0  0  0  0  0
  2  1  1  0
  3  2  1  0
  4  2  1  0
  5  3  1  0
  6  4  1  0
  7  1  1  0
  8  5  1  0
  9  5  1  0
 10  6  1  0
 11  9  1  0
 12  8  1  0
 13  9  1  0
 13 12  1  0
 14 11  1  0
 15 11  1  0
 15 14  1  0
 16 15  1  0
 17  6  1  0
 17 10  1  0
 17 16  1  0
 18  7  1  0
 19  3  1  0
 20 19  2  0
 22  5  1  0
 22  8  1  0
 22 21  1  0
 23 22  1  0
 24  1  1  0
 25  4  1  0
 25 10  1  0
 25 24  1  0
M  END
$$$$

     RDKit          3D

 25 30  0  0  0  0  0  0  0  0999 V2000
  -21.1616  -26.8361  137.0187 N   0  0  0  0  0  0  0  0  0  0  0  0
  -21.7369  -25.5200  136.7229 C   0  0  0  0  0  0  0  0  0  0  0  0
  -22.7688  -25.2846  137.6953 N   0  0  0  0  0  0  0  0  0  0  0  0
  -21.5885  -24.3714  137.7096 C   0  0  0  0  0  0  0  0  0  0  0  0
  -21.2001  -24.5748  139.2052 C   0  0  0  0  0  0  0  0  0  0  0  0
  -21.3250  -23.3465  140.1226 C   0  0  0  0  0  0  0  0  0  0  0  0
  -22.7515  -23.1659  140.7045 C   0  0  0  0  0  0  0  0  0  0  0  0
  -22.9402  -23.6910  142.1564 C   0  0  0  0  0  0  0  0  0  0  0  0
  -20.1074  -24.5484  138.2192 C   0  0  0  0  0  0  0  0  0  0  0  0
  -24.5693  -25.2227  143.4662 C   0  0  0  0  0  0  0  0  0  0  0  0
  -25.7873  -24.3367  143.0555 C   0  0  0  0  0  0  0  0  0  0  0  0
  -22.2111  -25.8972  143.2547 C   0  0  0  0  0  0  0  0  0  0  0  0
  -21.2069  -26.5145  142.3544 C   0  0  0  0  0  0  0  0  0  0  0  0
  -21.6361  -27.3230  141.3812 C   0  0  0  0  0  0  0  0  0  0  0  0
  -26.0612  -23.2047  144.0503 C   0  0  0  0  0  0  0  0  0  0  0  0
  -26.8992  -21.9699  143.6183 C   0  0  0  0  0  0  0  0  0  0  0  0
  -23.1172  -27.4425  141.1376 C   0  0  0  0  0  0  0  0  0  0  0  0
  -23.7727  -26.0526  141.1892 C   0  0  0  0  0  0  0  0  0  0  0  0
  -26.8142  -20.9044  144.7380 C   0  0  0  0  0  0  0  0  0  0  0  0
  -23.3712  -25.1998  142.4595 C   0  0  0  0  0  0  0  0  0  0  0  0
  -25.4278  -20.3169  144.9432 C   0  0  0  0  0  0  0  0  0  0  0  0
  -26.5965  -21.4763  142.1947 C   0  0  0  0  0  0  0  0  0  0  0  0
  -26.9295  -24.4529  144.0866 C   0  0  0  0  0  0  0  0  0  0  0  0
  -27.0504  -25.1063  142.7154 C   0  0  0  0  0  0  0  0  0  0  0  0
  -26.5647  -19.4296  144.4408 C   0  0  0  0  0  0  0  0  0  0  0  0
  2  1  1  0
  3  2  1  0
  4  2  1  0
  4  3  1  0
  5  4  1  0
  6  5  1  0
  7  6  1  0
  8  7  1  0
  9  4  1  0
  9  5  1  0
 11 10  1  0
 13 12  1  0
 14 13  2  0
 15 11  1  0
 16 15  1  0
 17 14  1  0
 18 17  1  0
 19 16  1  0
 20  8  1  0
 20 10  1  0
 20 12  1  0
 20 18  1  0
 21 19  1  0
 22 16  1  0
 23 11  1  0
 23 15  1  0
 24 11  1  0
 24 23  1  0
 25 19  1  0
 25 21  1  0
M  END
$$$$

     RDKit          3D

 24 28  0  0  0  0  0  0  0  0999 V2000
  -27.5751  -17.1313  147.7063 C   0  0  0  0  0  0  0  0  0  0  0  0
  -28.1867  -18.4526  148.1219 C   0  0  0  0  0  0  0  0  0  0  0  0
  -27.8834  -19.6111  147.1929 C   0  0  0  0  0  0  0  0  0  0  0  0
  -26.6591  -21.6849  148.0429 C   0  0  0  0  0  0  0  0  0  0  0  0
  -26.1578  -21.0676  146.0376 C   0  0  0  0  0  0  0  0  0  0  0  0
  -26.1919  -16.8656  148.3248 C   0  0  0  0  0  0  0  0  0  0  0  0
  -26.3181  -22.4095  146.7452 C   0  0  0  0  0  0  0  0  0  0  0  0
  -25.3593  -15.8351  147.5190 C   0  0  0  0  0  0  0  0  0  0  0  0
  -24.0813  -16.2951  146.7815 C   0  0  0  0  0  0  0  0  0  0  0  0
  -23.7371  -17.7649  146.6786 C   0  0  0  0  0  0  0  0  0  0  0  0
  -26.5382  -20.3422  147.3331 C   0  0  0  0  0  0  0  0  0  0  0  0
  -25.2855  -14.3927  148.0607 C   0  0  0  0  0  0  0  0  0  0  0  0
  -27.7225  -18.2128  146.6553 C   0  0  0  0  0  0  0  0  0  0  0  0
  -23.2204  -18.3199  145.5700 C   0  0  0  0  0  0  0  0  0  0  0  0
  -21.3310  -17.0404  144.6728 C   0  0  0  0  0  0  0  0  0  0  0  0
  -20.7343  -16.1499  143.8779 C   0  0  0  0  0  0  0  0  0  0  0  0
  -24.0952  -18.1733  142.2866 C   0  0  0  0  0  0  0  0  0  0  0  0
  -26.6266  -18.5128  142.2931 C   0  0  0  0  0  0  0  0  0  0  0  0
  -27.7084  -18.4704  143.1799 O   0  0  0  0  0  0  0  0  0  0  0  0
  -22.7896  -18.3639  143.0781 C   0  0  0  0  0  0  0  0  0  0  0  0
  -25.3413  -15.9516  145.9933 C   0  0  0  0  0  0  0  0  0  0  0  0
  -22.7353  -17.5217  144.3793 C   0  0  0  0  0  0  0  0  0  0  0  0
  -26.0403  -19.9070  142.1488 C   0  0  0  0  0  0  0  0  0  0  0  0
  -25.2985  -18.8497  142.9658 C   0  0  0  0  0  0  0  0  0  0  0  0
  2  1  1  0
  3  2  1  0
  6  1  1  0
  7  4  1  0
  7  5  1  0
  8  6  1  0
  9  8  1  0
 10  9  1  0
 11  3  1  0
 11  4  1  0
 11  5  1  0
 12  8  1  0
 13  1  1  0
 13  2  1  0
 13  3  1  0
 14 10  2  3
 16 15  2  0
 19 18  1  0
 20 17  1  0
 21  8  1  0
 21  9  1  0
 22 14  1  0
 22 15  1  0
 22 20  1  0
 23 18  1  0
 24 17  1  0
 24 18  1  0
 24 23  1  0
M  END
$$$$

     RDKit          3D

 16 17  0  0  0  0  0  0  0  0999 V2000
  -25.2415   -6.8814  137.2723 O   0  0  0  0  0  0  0  0  0  0  0  0
  -23.3649   -4.8825  134.9936 C   0  0  0  0  0  0  0  0  0  0  0  0
  -22.2285   -4.1998  135.4759 O   0  0  0  0  0  0  0  0  0  0  0  0
  -24.6504   -5.6512  136.9414 C   0  0  0  0  0  0  0  0  0  0  0  0
  -23.0940   -7.1612  135.7322 F   0  0  0  0  0  0  0  0  0  0  0  0
  -27.0700    1.1936  134.5680 C   0  0  0  0  0  0  0  0  0  0  0  0
  -25.5757   -4.8568  136.0119 C   0  0  0  0  0  0  0  0  0  0  0  0
  -28.2598   -2.0901  136.3741 C   0  0  0  0  0  0  0  0  0  0  0  0
  -27.9060   -0.0789  134.7797 C   0  0  0  0  0  0  0  0  0  0  0  0
  -26.5682   -3.9613  136.7892 C   0  0  0  0  0  0  0  0  0  0  0  0
  -27.9355   -0.9069  133.4844 C   0  0  0  0  0  0  0  0  0  0  0  0
  -27.3640   -0.8917  135.9813 C   0  0  0  0  0  0  0  0  0  0  0  0
  -27.6982   -3.4365  135.8812 C   0  0  0  0  0  0  0  0  0  0  0  0
  -22.1329   -5.0830  136.5721 C   0  0  0  0  0  0  0  0  0  0  0  0
  -23.3583   -5.8604  136.1375 C   0  0  0  0  0  0  0  0  0  0  0  0
  -24.6417   -4.0487  135.1028 C   0  0  0  0  0  0  0  0  0  0  0  0
  3  2  1  0
  4  1  1  0
  7  4  1  0
  9  6  1  0
 10  7  1  0
 11  9  1  0
 12  8  1  0
 12  9  1  0
 13  8  1  0
 13 10  1  0
 14  3  1  0
 15  2  1  0
 15  4  1  0
 15  5  1  0
 15 14  1  0
 16  2  1  0
 16  7  1  0
M  END
$$$$

     RDKit          3D

 17 19  0  0  0  0  0  0  0  0999 V2000
  -23.9992    2.2779  138.1735 C   0  0  0  0  0  0  0  0  0  0  0  0
  -24.0287    1.4448  136.8627 C   0  0  0  0  0  0  0  0  0  0  0  0
  -25.4169    2.8541  138.4092 C   0  0  0  0  0  0  0  0  0  0  0  0
  -25.8148    4.1398  137.7966 C   0  0  0  0  0  0  0  0  0  0  0  0
  -23.6173    1.4178  139.4126 C   0  0  0  0  0  0  0  0  0  0  0  0
  -22.6450    1.1988  136.2403 C   0  0  0  0  0  0  0  0  0  0  0  0
  -24.5438    5.2003  136.7802 Br  0  0  0  0  0  0  0  0  0  0  0  0
  -22.0819    2.4361  135.5119 C   0  0  0  0  0  0  0  0  0  0  0  0
  -22.0990    1.2054  139.6134 C   0  0  0  0  0  0  0  0  0  0  0  0
  -21.6259    1.5004  141.0375 C   0  0  0  0  0  0  0  0  0  0  0  0
  -20.3775    4.4112  137.3405 C   0  0  0  0  0  0  0  0  0  0  0  0
  -20.5671    2.5816  135.6951 C   0  0  0  0  0  0  0  0  0  0  0  0
  -19.7535    2.4017  139.5271 C   0  0  0  0  0  0  0  0  0  0  0  0
  -19.4689    2.1866  138.0294 C   0  0  0  0  0  0  0  0  0  0  0  0
  -21.2516    2.4454  139.8975 C   0  0  0  0  0  0  0  0  0  0  0  0
  -20.2056    3.1047  137.0713 C   0  0  0  0  0  0  0  0  0  0  0  0
  -25.4481    4.2669  139.5981 S   0  0  0  0  0  0  0  0  0  0  0  0
  2  1  1  0
  3  1  1  0
  4  3  1  0
  5  1  1  0
  6  2  1  0
  7  4  1  0
  8  6  1  0
  9  5  1  0
 10  9  1  0
 12  8  1  0
 14 13  1  0
 15  9  1  0
 15 10  1  0
 15 13  1  0
 16 11  2  0
 16 12  1  0
 16 14  1  0
 17  3  1  0
 17  4  1  0
M  END
$$$$

     RDKit          3D

 25 32  0  0  0  0  0  0  0  0999 V2000
  -26.5160   -7.5291  148.5082 C   0  0  0  0  0  0  0  0  0  0  0  0
  -25.9688   -8.0636  147.3316 O   0  0  0  0  0  0  0  0  0  0  0  0
  -27.8598   -7.2007  148.2838 O   0  0  0  0  0  0  0  0  0  0  0  0
  -25.7368   -6.2684  148.9062 C   0  0  0  0  0  0  0  0  0  0  0  0
  -26.2855   -5.6479  150.1791 C   0  0  0  0  0  0  0  0  0  0  0  0
  -27.3087   -4.7567  150.0350 C   0  0  0  0  0  0  0  0  0  0  0  0
  -25.5443   -6.0389  151.4670 C   0  0  0  0  0  0  0  0  0  0  0  0
  -29.3356   -4.7818  151.4928 C   0  0  0  0  0  0  0  0  0  0  0  0
  -29.0845   -6.0811  152.2743 C   0  0  0  0  0  0  0  0  0  0  0  0
  -28.0994   -4.0125  151.0912 C   0  0  0  0  0  0  0  0  0  0  0  0
  -30.2112   -7.1361  152.1622 C   0  0  0  0  0  0  0  0  0  0  0  0
  -29.9133   -8.1173  150.9993 C   0  0  0  0  0  0  0  0  0  0  0  0
  -25.3556   -4.9119  152.4570 C   0  0  0  0  0  0  0  0  0  0  0  0
  -26.2398   -6.1264  152.8278 C   0  0  0  0  0  0  0  0  0  0  0  0
  -27.6938   -6.6395  152.6651 C   0  0  0  0  0  0  0  0  0  0  0  0
  -29.9354   -9.4727  151.8916 C   0  0  0  0  0  0  0  0  0  0  0  0
  -29.6682  -10.9654  152.1195 C   0  0  0  0  0  0  0  0  0  0  0  0
  -28.5547   -5.8955  153.6878 C   0  0  0  0  0  0  0  0  0  0  0  0
  -30.1010  -11.4264  153.4999 C   0  0  0  0  0  0  0  0  0  0  0  0
  -29.0743  -12.3529  154.1167 C   0  0  0  0  0  0  0  0  0  0  0  0
  -28.7631  -12.0533  155.5147 N   0  0  0  0  0  0  0  0  0  0  0  0
  -28.9511   -9.1823  150.8378 C   0  0  0  0  0  0  0  0  0  0  0  0
  -28.6080  -11.2728  153.1626 C   0  0  0  0  0  0  0  0  0  0  0  0
  -30.5252   -9.3788  150.5570 C   0  0  0  0  0  0  0  0  0  0  0  0
  -29.6905  -12.7778  156.3821 C   0  0  0  0  0  0  0  0  0  0  0  0
  2  1  1  0
  3  1  1  0
  4  1  1  0
  5  4  1  0
  6  5  2  3
  7  5  1  0
  9  8  1  0
 10  6  1  0
 10  8  1  0
 11  9  1  0
 12 11  1  0
 13  7  1  0
 14  7  1  0
 14 13  1  0
 15  9  1  0
 15 14  1  0
 16 12  1  0
 17 16  1  0
 18  9  1  0
 18 15  1  0
 19 17  1  0
 20 19  1  0
 21 20  1  0
 22 12  1  0
 22 16  1  0
 23 17  1  0
 23 19  1  0
 23 20  1  0
 24 12  1  0
 24 16  1  0
 24 22  1  0
 25 21  1  0
M  END
$$$$

     RDKit          3D

 27 30  0  0  0  0  0  0  0  0999 V2000
  -22.5241    2.1485  141.4007 C   0  0  0  0  0  0  0  0  0  0  0  0
  -23.1372    3.5387  141.3469 C   0  0  0  0  0  0  0  0  0  0  0  0
  -21.6428    1.9285  142.6512 C   0  0  0  0  0  0  0  0  0  0  0  0
  -22.9872    4.4737  140.3866 C   0  0  0  0  0  0  0  0  0  0  0  0
  -20.5205    2.9221  142.7995 C   0  0  0  0  0  0  0  0  0  0  0  0
  -19.2343    2.5371  142.7963 C   0  0  0  0  0  0  0  0  0  0  0  0
  -22.1296    4.3466  139.1538 C   0  0  0  0  0  0  0  0  0  0  0  0
  -20.6440    2.2709  139.5297 C   0  0  0  0  0  0  0  0  0  0  0  0
  -20.3380    1.6498  138.1504 C   0  0  0  0  0  0  0  0  0  0  0  0
  -18.1090    3.5300  142.9141 C   0  0  0  0  0  0  0  0  0  0  0  0
  -20.7166    3.8323  139.4951 C   0  0  0  0  0  0  0  0  0  0  0  0
  -17.0585    3.0120  143.8537 C   0  0  0  0  0  0  0  0  0  0  0  0
  -21.9230    1.5918  140.0900 C   0  0  0  0  0  0  0  0  0  0  0  0
  -19.6593    4.4732  138.5779 C   0  0  0  0  0  0  0  0  0  0  0  0
  -16.2071    2.0424  143.4889 C   0  0  0  0  0  0  0  0  0  0  0  0
  -15.2153    1.4418  144.4511 C   0  0  0  0  0  0  0  0  0  0  0  0
  -13.9212    2.2669  144.5700 C   0  0  0  0  0  0  0  0  0  0  0  0
  -14.0568    3.5883  145.3524 C   0  0  0  0  0  0  0  0  0  0  0  0
  -14.5827    3.4543  146.7974 C   0  0  0  0  0  0  0  0  0  0  0  0
  -13.7954    2.4841  147.7022 C   0  0  0  0  0  0  0  0  0  0  0  0
  -12.3554    2.9403  148.0126 C   0  0  0  0  0  0  0  0  0  0  0  0
  -12.2287    4.2060  148.8966 C   0  0  0  0  0  0  0  0  0  0  0  0
  -13.4326    4.6395  149.7101 C   0  0  0  0  0  0  0  0  0  0  0  0
  -13.2981    4.6342  151.2132 C   0  0  0  0  0  0  0  0  0  0  0  0
  -13.5102    3.2867  151.8752 C   0  0  0  0  0  0  0  0  0  0  0  0
  -12.3994    2.6994  151.0358 C   0  0  0  0  0  0  0  0  0  0  0  0
  -12.1463    4.0791  150.4108 C   0  0  0  0  0  0  0  0  0  0  0  0
  2  1  1  0
  3  1  1  0
  4  2  2  0
  5  3  1  0
  6  5  2  3
  7  4  1  0
  9  8  1  0
 10  6  1  0
 11  7  1  0
 11  8  1  0
 12 10  1  0
 13  1  1  0
 13  8  1  0
 14 11  1  0
 15 12  2  3
 16 15  1  0
 17 16  1  0
 18 17  1  0
 19 18  1  0
 20 19  1  0
 21 20  1  0
 22 21  1  0
 23 22  1  0
 24 23  1  0
 25 24  1  0
 26 25  1  0
 27 22  1  0
 27 23  1  0
 27 24  1  0
 27 26  1  0
M  END
$$$$

     RDKit          3D

 11 11  0  0  0  0  0  0  0  0999 V2000
  -30.2847    1.2537  137.8590 O   0  0  0  0  0  0  0  0  0  0  0  0
  -30.2192    0.1184  137.3182 C   0  0  0  0  0  0  0  0  0  0  0  0
  -30.8051   -0.0535  136.0632 O   0  0  0  0  0  0  0  0  0  0  0  0
  -29.5137   -1.0023  138.0499 C   0  0  0  0  0  0  0  0  0  0  0  0
  -28.9168   -0.6533  139.3470 N   0  0  0  0  0  0  0  0  0  0  0  0
  -28.6771   -1.9591  137.2039 C   0  0  0  0  0  0  0  0  0  0  0  0
  -29.9941   -2.4469  137.8345 C   0  0  0  0  0  0  0  0  0  0  0  0
  -29.9118   -3.4186  139.0292 C   0  0  0  0  0  0  0  0  0  0  0  0
  -28.3049   -4.9309  140.1518 C   0  0  0  0  0  0  0  0  0  0  0  0
  -29.1614   -5.2799  141.0078 O   0  0  0  0  0  0  0  0  0  0  0  0
  -28.6213   -4.0123  139.1487 O   0  0  0  0  0  0  0  0  0  0  0  0
  2  1  2  0
  3  2  1  0
  4  2  1  0
  5  4  1  0
  6  4  1  0
  7  4  1  0
  7  6  1  0
  8  7  1  0
 10  9  2  0
 11  8  1  0
 11  9  1  0
M  END
$$$$

     RDKit          3D

 26 28  0  0  0  0  0  0  0  0999 V2000
  -25.6613   -9.6383  141.9743 O   0  0  0  0  0  0  0  0  0  0  0  0
  -23.6364   -9.7241  140.6330 C   0  0  0  0  0  0  0  0  0  0  0  0
  -22.7622   -9.2178  139.9474 O   0  0  0  0  0  0  0  0  0  0  0  0
  -24.2361   -7.6786  142.0360 C   0  0  0  0  0  0  0  0  0  0  0  0
  -25.4207   -7.9282  140.2212 C   0  0  0  0  0  0  0  0  0  0  0  0
  -26.8325   -7.9963  140.2655 O   0  0  0  0  0  0  0  0  0  0  0  0
  -24.7429   -8.8816  141.2251 C   0  0  0  0  0  0  0  0  0  0  0  0
  -27.3299   -8.2793  138.9787 C   0  0  0  0  0  0  0  0  0  0  0  0
  -24.9307   -6.7338  141.0528 C   0  0  0  0  0  0  0  0  0  0  0  0
  -27.3089   -7.0960  137.9983 C   0  0  0  0  0  0  0  0  0  0  0  0
  -27.2397   -7.4748  136.4958 C   0  0  0  0  0  0  0  0  0  0  0  0
  -27.8881   -6.4191  135.5311 C   0  0  0  0  0  0  0  0  0  0  0  0
  -27.8607   -4.8960  135.8415 C   0  0  0  0  0  0  0  0  0  0  0  0
  -25.8583   -8.1303  136.1436 C   0  0  0  0  0  0  0  0  0  0  0  0
  -21.5625   -6.6364  136.8754 N   0  0  0  0  0  0  0  0  0  0  0  0
  -28.6082   -7.5054  138.6973 C   0  0  0  0  0  0  0  0  0  0  0  0
  -25.6487   -8.6884  134.7338 C   0  0  0  0  0  0  0  0  0  0  0  0
  -24.2745   -8.0216  134.6921 C   0  0  0  0  0  0  0  0  0  0  0  0
  -28.5828   -4.4464  137.1231 C   0  0  0  0  0  0  0  0  0  0  0  0
  -24.5910   -5.8358  135.9736 C   0  0  0  0  0  0  0  0  0  0  0  0
  -23.2093   -5.1597  135.8476 C   0  0  0  0  0  0  0  0  0  0  0  0
  -24.5265   -7.3689  136.0568 C   0  0  0  0  0  0  0  0  0  0  0  0
  -20.6118   -7.0499  137.6401 C   0  0  0  0  0  0  0  0  0  0  0  0
  -20.1232   -6.2785  138.8299 C   0  0  0  0  0  0  0  0  0  0  0  0
  -22.2859   -5.3997  137.0516 C   0  0  0  0  0  0  0  0  0  0  0  0
  -24.0447   -5.9056  140.3424 O   0  0  0  0  0  0  0  0  0  0  0  0
  3  2  2  0
  6  5  1  0
  7  1  1  0
  7  2  1  0
  7  4  1  0
  7  5  1  0
  8  6  1  0
  9  4  1  0
  9  5  1  0
 10  8  1  0
 11 10  1  0
 12 11  1  0
 13 12  1  0
 14 11  1  0
 16  8  1  0
 16 10  1  0
 17 14  1  0
 18 17  1  0
 19 13  1  0
 21 20  1  0
 22 14  1  0
 22 18  1  0
 22 20  1  0
 23 15  2  3
 24 23  1  0
 25 15  1  0
 25 21  1  0
 26  9  1  0
M  END
$$$$

     RDKit          3D

 22 24  0  0  0  0  0  0  0  0999 V2000
  -26.2229  -26.0777  141.8725 O   0  0  0  0  0  0  0  0  0  0  0  0
  -26.0113  -26.9644  140.7692 C   0  0  0  0  0  0  0  0  0  0  0  0
  -25.3177  -28.2118  141.2810 C   0  0  0  0  0  0  0  0  0  0  0  0
  -24.1226  -28.4152  140.5031 O   0  0  0  0  0  0  0  0  0  0  0  0
  -23.0121  -28.5174  141.3923 C   0  0  0  0  0  0  0  0  0  0  0  0
  -21.7527  -28.4907  140.6332 N   0  0  0  0  0  2  0  0  0  0  0  0
  -23.5797  -28.6353  142.7900 C   0  0  0  0  0  0  0  0  0  0  0  0
  -25.2749  -26.7270  141.6086 C   0  0  0  0  0  0  0  0  0  0  0  0
  -24.1230  -27.3602  143.1400 O   0  0  0  0  0  0  0  0  0  0  0  0
  -26.1553  -27.0523  140.6342 C   0  0  0  0  0  0  0  0  0  0  0  0
  -24.5600  -29.4349  141.9424 C   0  0  0  0  0  0  0  0  0  0  0  0
  -20.8079  -29.5479  140.6910 C   0  0  0  0  0  0  0  0  0  0  0  0
  -20.6512  -30.2074  141.8287 N   0  0  0  0  0  0  0  0  0  0  0  0
  -21.9191  -29.6898  139.8931 N   0  0  0  0  0  2  0  0  0  0  0  0
  -19.6699  -29.8729  142.8675 C   0  0  0  0  0  0  0  0  0  0  0  0
  -19.0527  -28.5516  142.5386 C   0  0  0  0  0  0  0  0  0  0  0  0
  -19.4340  -27.4296  143.2860 C   0  0  0  0  0  0  0  0  0  0  0  0
  -18.4916  -28.5719  141.2088 C   0  0  0  0  0  0  0  0  0  0  0  0
  -20.1648  -28.7244  143.6710 C   0  0  0  0  0  0  0  0  0  0  0  0
  -18.4975  -29.7127  140.3526 C   0  0  0  0  0  0  0  0  0  0  0  0
  -19.2064  -29.6815  139.1152 C   0  0  0  0  0  0  0  0  0  0  0  0
  -20.2799  -30.4823  138.8292 C   0  0  0  0  0  0  0  0  0  0  0  0
  3  2  1  0
  4  3  1  0
  5  4  1  0
  6  5  1  0
  7  5  1  0
  8  1  1  0
  8  2  1  0
  9  7  1  0
 10  2  1  0
 11  5  1  0
 11  7  1  0
 12  6  1  0
 13 12  1  0
 14 12  1  0
 15 13  1  0
 16 15  1  0
 17 16  1  0
 18 16  1  0
 19 15  1  0
 19 16  1  0
 19 17  1  0
 20 18  1  0
 21 20  1  0
 22 21  2  0
M  RAD  2   6   2  14   2
M  END
$$$$

     RDKit          3D

 27 29  0  0  0  0  0  0  0  0999 V2000
  -25.6256   -8.4063  132.2889 O   0  0  0  0  0  0  0  0  0  0  0  0
  -23.8954   -7.1522  132.9168 C   0  0  0  0  0  0  0  0  0  0  0  0
  -24.4849   -7.8955  131.8689 O   0  0  0  0  0  0  0  0  0  0  0  0
  -22.3472   -7.0328  132.6703 C   0  0  0  0  0  0  0  0  0  0  0  0
  -20.9488   -9.1508  130.8922 C   0  0  0  0  0  0  0  0  0  0  0  0
  -24.6671   -5.7509  132.9872 C   0  0  0  0  0  0  0  0  0  0  0  0
  -21.8120   -8.3010  131.9481 C   0  0  0  0  0  0  0  0  0  0  0  0
  -21.8986   -9.7552  129.8732 C   0  0  0  0  0  0  0  0  0  0  0  0
  -22.2730   -8.3971  130.4306 C   0  0  0  0  0  0  0  0  0  0  0  0
  -22.0872   -7.2306  129.2350 C   0  0  0  0  0  0  0  0  0  0  0  0
  -22.9967   -6.9758  127.8445 C   0  0  0  0  0  0  0  0  0  0  0  0
  -24.7051   -6.9098  127.6440 C   0  0  0  0  0  0  0  0  0  0  0  0
  -25.9031   -6.0484  128.4152 C   0  0  0  0  0  0  0  0  0  0  0  0
  -25.0905   -7.0625  126.0812 C   0  0  0  0  0  0  0  0  0  0  0  0
  -26.9558   -4.9860  127.7447 C   0  0  0  0  0  0  0  0  0  0  0  0
  -26.4554   -3.5774  127.7179 N   0  0  0  0  0  0  0  0  0  0  0  0
  -25.5187   -5.4757  129.8001 C   0  0  0  0  0  0  0  0  0  0  0  0
  -22.0360   -5.9826  127.2513 C   0  0  0  0  0  0  0  0  0  0  0  0
  -21.8471   -4.8340  128.2491 C   0  0  0  0  0  0  0  0  0  0  0  0
  -23.0166   -3.8819  127.7848 C   0  0  0  0  0  0  0  0  0  0  0  0
  -24.2551   -6.1067  125.0079 C   0  0  0  0  0  0  0  0  0  0  0  0
  -21.9716   -5.7630  129.6789 C   0  0  0  0  0  0  0  0  0  0  0  0
  -20.9759   -6.3399  126.4642 C   0  0  0  0  0  0  0  0  0  0  0  0
  -23.0253   -6.5853  124.2815 C   0  0  0  0  0  0  0  0  0  0  0  0
  -24.5890   -4.7357  124.6909 C   0  0  0  0  0  0  0  0  0  0  0  0
  -23.6844   -3.6532  123.8499 C   0  0  0  0  0  0  0  0  0  0  0  0
  -24.1093   -2.7772  122.8521 C   0  0  0  0  0  0  0  0  0  0  0  0
  3  1  1  0
  3  2  1  0
  4  2  1  0
  6  2  1  0
  7  4  1  0
  7  5  1  0
  8  5  1  0
  9  5  1  0
  9  7  1  0
  9  8  1  0
 10  9  1  0
 11 10  1  0
 12 11  1  0
 13 12  1  0
 14 12  1  0
 15 13  1  0
 16 15  1  0
 17 13  1  0
 18 11  1  0
 19 18  1  0
 20 19  1  0
 21 14  1  0
 22 10  1  0
 22 19  1  0
 23 18  2  0
 24 21  1  0
 25 21  2  3
 26 25  1  0
 27 26  2  0
M  END
$$$$

     RDKit          3D

 27 30  0  0  0  0  0  0  0  0999 V2000
  -25.4084    1.3311  144.6958 Al  0  0  0  0  0  3  0  0  0  0  0  0
  -25.8917    0.7276  140.9218 Mg  0  0  0  0  0  2  0  0  0  0  0  0
  -27.6018   -0.5674  138.4803 O   0  0  0  0  0  0  0  0  0  0  0  0
  -24.0378   -0.4761  146.7977 O   0  0  0  0  0  0  0  0  0  0  0  0
  -24.1429    6.2944  146.6713 O   0  0  0  0  0  0  0  0  0  0  0  0
  -24.9803    0.7509  142.8370 O   0  0  0  0  0  0  0  0  0  0  0  0
  -25.0713    5.6022  145.8356 C   0  0  0  0  0  0  0  0  0  0  0  0
  -25.8064    3.2229  145.1839 C   0  0  0  0  0  0  0  0  0  0  0  0
  -26.1572   -3.0917  138.0395 O   0  0  0  0  0  0  0  0  0  0  0  0
  -29.9638   -1.4244  137.2506 P   0  0  0  0  0  0  0  0  0  0  0  0
  -24.6969    4.0464  145.8571 C   0  0  0  0  0  0  0  0  0  0  0  0
  -22.7204    1.4234  146.0172 C   0  0  0  0  0  0  0  0  0  0  0  0
  -26.2208   -0.2184  138.7865 C   0  0  0  0  0  0  0  0  0  0  0  0
  -24.4326    3.3576  147.1745 C   0  0  0  0  0  0  0  0  0  0  0  0
  -23.4932    2.0739  147.1364 C   0  0  0  0  0  0  0  0  0  0  0  0
  -22.0634    2.0185  144.7021 C   0  0  0  0  0  0  0  0  0  0  0  0
  -24.0814    0.8874  146.2236 C   0  0  0  0  0  0  0  0  0  0  0  0
  -27.4034   -2.9240  137.3506 C   0  0  0  0  0  0  0  0  0  0  0  0
  -27.9866   -1.4145  137.3352 C   0  0  0  0  0  0  0  0  0  0  0  0
  -26.2408   -2.5370  139.2926 C   0  0  0  0  0  0  0  0  0  0  0  0
  -30.7218   -3.0648  137.2011 C   0  0  0  0  0  0  0  0  0  0  0  0
  -25.3319   -1.3295  139.2473 C   0  0  0  0  0  0  0  0  0  0  0  0
  -30.6845   -2.9163  134.6191 C   0  0  0  0  0  0  0  0  0  0  0  0
  -30.4485   -3.6259  135.9194 C   0  0  0  0  0  0  0  0  0  0  0  0
  -22.5326    3.0039  143.6134 C   0  0  0  0  0  0  0  0  0  0  0  0
  -29.9021   -3.9693  138.3039 C   0  0  0  0  0  0  0  0  0  0  0  0
  -28.2814   -4.2245  138.0046 C   0  0  0  0  0  0  0  0  0  0  0  0
  6  1  1  0
  6  2  1  0
  7  5  1  0
  8  1  1  0
 11  7  1  0
 11  8  1  0
 13  2  1  0
 13  3  1  0
 14 11  1  0
 15 12  1  0
 15 14  1  0
 16 12  1  0
 17  1  1  0
 17  4  1  0
 17 12  1  0
 17 15  1  0
 18  9  1  0
 19  3  1  0
 19 10  1  0
 19 18  1  0
 20  9  1  0
 21 10  1  0
 22 13  1  0
 22 20  1  0
 24 21  1  0
 24 23  1  0
 25 16  1  0
 26 21  1  0
 27 18  1  0
 27 26  1  0
M  END
$$$$

     RDKit          3D

 22 27  0  0  0  0  0  0  0  0999 V2000
  -28.4027  -12.5486  147.5077 C   0  0  0  0  0  0  0  0  0  0  0  0
  -27.1614  -12.5475  148.2920 N   0  0  0  0  0  0  0  0  0  0  0  0
  -28.0348   -4.2512  146.1919 C   0  0  0  0  0  0  0  0  0  0  0  0
  -28.1985   -5.7429  146.5213 C   0  0  0  0  0  0  0  0  0  0  0  0
  -29.0112  -11.1723  147.1845 C   0  0  0  0  0  0  0  0  0  0  0  0
  -28.3401   -5.9326  148.0396 C   0  0  0  0  0  0  0  0  0  0  0  0
  -28.2440  -11.9347  146.1007 C   0  0  0  0  0  0  0  0  0  0  0  0
  -30.5809  -10.9805  147.1612 C   0  0  0  0  0  0  0  0  0  0  0  0
  -31.0902   -9.6489  146.4841 C   0  0  0  0  0  0  0  0  0  0  0  0
  -30.8890   -9.6674  144.9536 C   0  0  0  0  0  0  0  0  0  0  0  0
  -28.2749  -10.1234  147.7516 O   0  0  0  0  0  0  0  0  0  0  0  0
  -31.5520  -12.1616  146.7575 C   0  0  0  0  0  0  0  0  0  0  0  0
  -31.0568  -13.5456  146.2708 C   0  0  0  0  0  0  0  0  0  0  0  0
  -31.3059  -13.7805  144.7734 C   0  0  0  0  0  0  0  0  0  0  0  0
  -29.8884  -13.7488  145.3123 C   0  0  0  0  0  0  0  0  0  0  0  0
  -32.1475   -9.7948  144.1128 C   0  0  0  0  0  0  0  0  0  0  0  0
  -29.5108   -7.8701  145.8651 C   0  0  0  0  0  0  0  0  0  0  0  0
  -29.3973   -6.3305  145.7414 C   0  0  0  0  0  0  0  0  0  0  0  0
  -30.0365   -8.4899  144.5676 C   0  0  0  0  0  0  0  0  0  0  0  0
  -31.5258   -8.4250  144.2703 C   0  0  0  0  0  0  0  0  0  0  0  0
  -29.0531  -12.5277  144.9401 C   0  0  0  0  0  0  0  0  0  0  0  0
  -30.4448   -8.3457  146.9931 C   0  0  0  0  0  0  0  0  0  0  0  0
  2  1  1  0
  4  3  1  0
  5  1  1  0
  6  4  1  0
  7  1  1  0
  7  5  1  0
  8  5  1  0
  9  8  1  0
 10  9  1  0
 11  5  1  0
 12  8  1  0
 13 12  1  0
 14 13  1  0
 15 13  1  0
 15 14  1  0
 16 10  1  0
 18  4  1  0
 18 17  1  0
 19 10  1  0
 19 17  1  0
 20 10  1  0
 20 16  1  0
 20 19  1  0
 21  7  1  0
 21 15  1  0
 22  9  1  0
 22 17  1  0
M  END
$$$$

     RDKit          3D

 27 33  0  0  0  0  0  0  0  0999 V2000
  -18.0352   -3.1034  137.5127 O   0  0  0  0  0  0  0  0  0  0  0  0
  -18.8721   -2.0274  137.8844 C   0  0  0  0  0  0  0  0  0  0  0  0
  -18.9385   -1.8504  139.2790 O   0  0  0  0  0  0  0  0  0  0  0  0
  -17.5363   -1.8097  137.2600 C   0  0  0  0  0  0  0  0  0  0  0  0
  -16.3093   -1.5105  138.1561 C   0  0  0  0  0  0  0  0  0  0  0  0
  -16.1664    0.0368  138.2990 C   0  0  0  0  0  0  0  0  0  0  0  0
  -15.9410    1.5699  136.1931 C   0  0  0  0  0  0  0  0  0  0  0  0
  -18.3170    2.5310  136.2925 C   0  0  0  0  0  0  0  0  0  0  0  0
  -15.1003   -2.3102  137.6071 C   0  0  0  0  0  0  0  0  0  0  0  0
  -15.3014    0.5567  139.4422 C   0  0  0  0  0  0  0  0  0  0  0  0
  -15.3878    2.0215  139.7543 C   0  0  0  0  0  0  0  0  0  0  0  0
  -15.2255    2.9594  138.5847 C   0  0  0  0  0  0  0  0  0  0  0  0
  -13.9100   -2.3276  138.5747 C   0  0  0  0  0  0  0  0  0  0  0  0
  -15.2720    0.7955  137.3397 C   0  0  0  0  0  0  0  0  0  0  0  0
  -18.6632    2.3718  134.7958 C   0  0  0  0  0  0  0  0  0  0  0  0
  -16.6166    3.2762  138.0107 C   0  0  0  0  0  0  0  0  0  0  0  0
  -12.8186   -3.2993  138.1588 C   0  0  0  0  0  0  0  0  0  0  0  0
  -14.6069    1.5562  138.4948 C   0  0  0  0  0  0  0  0  0  0  0  0
  -16.8174    2.7934  136.5637 C   0  0  0  0  0  0  0  0  0  0  0  0
  -11.9158   -3.7211  139.2278 N   0  0  0  0  0  0  0  0  0  0  0  0
  -11.2414   -2.7494  139.6788 N   0  0  0  0  0  0  0  0  0  0  0  0
  -11.5594   -1.5585  139.0380 N   0  0  0  0  0  0  0  0  0  0  0  0
  -21.1919    1.8763  134.9879 C   0  0  0  0  0  0  0  0  0  0  0  0
  -12.5834   -1.7894  138.0306 C   0  0  0  0  0  0  0  0  0  0  0  0
  -21.3534    1.9615  136.4855 C   0  0  0  0  0  0  0  0  0  0  0  0
  -19.8062    1.3694  134.5609 C   0  0  0  0  0  0  0  0  0  0  0  0
  -21.3578    0.8647  137.2428 C   0  0  0  0  0  0  0  0  0  0  0  0
  2  1  1  0
  3  2  1  0
  4  1  1  0
  4  2  1  0
  5  4  1  0
  6  5  1  0
  9  5  1  0
 10  6  1  0
 11 10  1  0
 12 11  1  0
 13  9  1  0
 14  6  1  0
 14  7  1  0
 15  8  1  0
 16 12  1  0
 17 13  1  0
 18 10  1  0
 18 11  1  0
 18 12  1  0
 18 14  1  0
 19  7  1  0
 19  8  1  0
 19 16  1  0
 20 17  1  0
 21 20  2  0
 22 21  1  0
 24 13  1  0
 24 17  1  0
 24 22  1  0
 25 23  1  0
 26 15  1  0
 26 23  1  0
 27 25  2  0
M  END
$$$$

     RDKit          3D

 27 32  0  0  0  0  0  0  0  0999 V2000
  -30.0858    1.2957  139.0277 O   0  0  0  0  0  0  0  0  0  0  0  0
  -29.8664    2.5289  138.3936 C   0  0  0  0  0  0  0  0  0  0  0  0
  -28.7536    2.3967  137.5291 O   0  0  0  0  0  0  0  0  0  0  0  0
  -31.1356    2.9638  137.5253 C   0  0  0  0  0  0  0  0  0  0  0  0
  -30.6864    3.9843  136.4310 C   0  0  0  0  0  0  0  0  0  0  0  0
  -31.4915    5.0055  136.0040 C   0  0  0  0  0  0  0  0  0  0  0  0
  -32.8672    5.2526  136.6182 C   0  0  0  0  0  0  0  0  0  0  0  0
  -33.2485    3.9548  137.3587 C   0  0  0  0  0  0  0  0  0  0  0  0
  -31.8320    1.3983  136.4469 As  0  0  0  0  0  3  0  0  0  0  0  0
  -32.1442    3.7887  138.3904 C   0  0  0  0  0  0  0  0  0  0  0  0
  -32.8039    0.5248  138.0330 C   0  0  0  0  0  0  0  0  0  0  0  0
  -33.5768    1.1635  139.2421 C   0  0  0  0  0  0  0  0  0  0  0  0
  -34.0103    2.6949  139.5046 C   0  0  0  0  0  0  0  0  0  0  0  0
  -33.5644    3.8966  138.7682 N   0  0  0  0  0  0  0  0  0  0  0  0
  -29.5028    3.6007  139.4604 C   0  0  0  0  0  0  0  0  0  0  0  0
  -32.3453   -0.9415  138.3568 C   0  0  0  0  0  0  0  0  0  0  0  0
  -31.9965   -1.7681  137.1049 C   0  0  0  0  0  0  0  0  0  0  0  0
  -33.1612   -1.7601  136.1622 C   0  0  0  0  0  0  0  0  0  0  0  0
  -30.1506    3.8568  140.6270 C   0  0  0  0  0  0  0  0  0  0  0  0
  -31.3002    3.0489  141.1982 C   0  0  0  0  0  0  0  0  0  0  0  0
  -33.9160   -0.6701  136.0344 C   0  0  0  0  0  0  0  0  0  0  0  0
  -33.6495    0.6007  136.8293 C   0  0  0  0  0  0  0  0  0  0  0  0
  -33.9000    3.0365  141.0325 C   0  0  0  0  0  0  0  0  0  0  0  0
  -32.6673    4.2912  142.9427 C   0  0  0  0  0  0  0  0  0  0  0  0
  -33.7441    5.3159  143.2177 C   0  0  0  0  0  0  0  0  0  0  0  0
  -34.1637    5.5879  144.4555 C   0  0  0  0  0  0  0  0  0  0  0  0
  -32.6104    3.8576  141.4584 C   0  0  0  0  0  0  0  0  0  0  0  0
  2  1  1  0
  3  2  1  0
  4  2  1  0
  5  4  1  0
  6  5  2  0
  7  6  1  0
  8  7  1  0
  9  4  1  0
 10  4  1  0
 10  8  1  0
 11  9  1  0
 12 11  1  0
 13 12  1  0
 14  8  1  0
 14 10  1  0
 14 13  1  0
 15  2  1  0
 16 11  1  0
 17 16  1  0
 18 17  1  0
 19 15  2  3
 20 19  1  0
 21 18  2  0
 22  9  1  0
 22 11  1  0
 22 21  1  0
 23 13  1  0
 25 24  1  0
 26 25  2  0
 27 20  1  0
 27 23  1  0
 27 24  1  0
M  END
$$$$

     RDKit          3D

 24 24  0  0  0  0  0  0  0  0999 V2000
  -20.1708    6.2934  138.5867 O   0  0  0  0  0  0  0  0  0  0  0  0
  -18.9538    7.1428  136.7594 C   0  0  0  0  0  0  0  0  0  0  0  0
  -18.7440    6.6768  135.6089 O   0  0  0  0  0  0  0  0  0  0  0  0
  -18.9839    8.6311  136.9656 C   0  0  0  0  0  0  0  0  0  0  0  0
  -17.5734    9.2549  137.0133 C   0  0  0  0  0  0  0  0  0  0  0  0
  -16.8971    8.1814  139.2709 C   0  0  0  0  0  0  0  0  0  0  0  0
  -16.4107    6.8055  139.7779 C   0  0  0  0  0  0  0  0  0  0  0  0
  -17.4861    5.6929  139.7572 C   0  0  0  0  0  0  0  0  0  0  0  0
  -16.5099    8.4315  137.7875 C   0  0  0  0  0  0  0  0  0  0  0  0
  -15.1358    9.1138  137.6894 C   0  0  0  0  0  0  0  0  0  0  0  0
  -17.9930    5.3056  138.3399 C   0  0  0  0  0  0  0  0  0  0  0  0
  -18.4673    3.8285  138.2969 C   0  0  0  0  0  0  0  0  0  0  0  0
  -19.1093    6.2371  137.9083 C   0  0  0  0  0  0  0  0  0  0  0  0
  -18.4368    3.2031  136.8765 C   0  0  0  0  0  0  0  0  0  0  0  0
  -15.8722    3.2815  136.2675 C   0  0  0  0  0  0  0  0  0  0  0  0
  -15.9812    4.4562  135.2672 C   0  0  0  0  0  0  0  0  0  0  0  0
  -17.1351    2.3990  136.5567 C   0  0  0  0  0  0  0  0  0  0  0  0
  -17.3898    1.1837  135.5981 C   0  0  0  0  0  0  0  0  0  0  0  0
  -18.0780    1.5524  134.3008 C   0  0  0  0  0  0  0  0  0  0  0  0
  -19.4077    1.4725  134.1516 C   0  0  0  0  0  0  0  0  0  0  0  0
  -15.7952    4.0823  133.7866 C   0  0  0  0  0  0  0  0  0  0  0  0
  -16.9974    4.5014  132.9329 C   0  0  0  0  0  0  0  0  0  0  0  0
  -16.1127    0.3456  135.3283 C   0  0  0  0  0  0  0  0  0  0  0  0
  -16.4368   -1.0422  134.7681 C   0  0  0  0  0  0  0  0  0  0  0  0
  3  2  2  0
  4  2  1  0
  5  4  1  0
  7  6  1  0
  8  7  1  0
  9  5  1  0
  9  6  1  0
 10  9  1  0
 11  8  1  0
 12 11  1  0
 13  1  2  0
 13  2  1  0
 13 11  1  0
 14 12  1  0
 16 15  1  0
 17 14  1  0
 17 15  1  0
 18 17  1  0
 19 18  1  0
 20 19  2  0
 21 16  1  0
 22 21  1  0
 23 18  1  0
 24 23  1  0
M  END
$$$$

     RDKit          3D

 27 31  0  0  0  0  0  0  0  0999 V2000
  -27.0442   -5.3008  137.5282 C   0  0  0  0  0  0  0  0  0  0  0  0
  -24.8722   -4.6257  138.0647 N   0  0  0  0  0  0  0  0  0  0  0  0
  -28.2139   -5.7087  138.3039 N   0  0  0  0  0  0  0  0  0  0  0  0
  -25.5060   -3.6929  137.1328 C   0  0  0  0  0  0  0  0  0  0  0  0
  -25.7769   -5.7405  138.1459 N   0  0  0  0  0  0  0  0  0  0  0  0
  -29.2395   -6.4666  137.5020 C   0  0  0  0  0  0  0  0  0  0  0  0
  -26.1540   -6.3081  139.4750 C   0  0  0  0  0  0  0  0  0  0  0  0
  -27.7167   -6.3143  139.5491 C   0  0  0  0  0  0  0  0  0  0  0  0
  -24.3710   -2.9399  136.3939 C   0  0  0  0  0  0  0  0  0  0  0  0
  -24.3936   -3.2548  134.9125 C   0  0  0  0  0  0  0  0  0  0  0  0
  -23.3909   -4.4100  134.5778 C   0  0  0  0  0  0  0  0  0  0  0  0
  -29.4231   -4.9037  135.3610 C   0  0  0  0  0  0  0  0  0  0  0  0
  -31.1019   -3.1879  134.5576 C   0  0  0  0  0  0  0  0  0  0  0  0
  -22.8413   -5.2089  135.8103 C   0  0  0  0  0  0  0  0  0  0  0  0
  -25.3731   -2.1124  137.0757 C   0  0  0  0  0  0  0  0  0  0  0  0
  -21.3343   -5.4288  135.4914 C   0  0  0  0  0  0  0  0  0  0  0  0
  -30.1132   -5.5336  136.6241 C   0  0  0  0  0  0  0  0  0  0  0  0
  -21.0125   -5.8438  134.1816 O   0  0  0  0  0  0  0  0  0  0  0  0
  -30.4339   -4.5334  134.2689 C   0  0  0  0  0  0  0  0  0  0  0  0
  -28.2964   -7.7202  139.9254 C   0  0  0  0  0  0  0  0  0  0  0  0
  -22.0721   -6.4799  136.2406 C   0  0  0  0  0  0  0  0  0  0  0  0
  -26.9558   -3.8273  137.5102 C   0  0  0  0  0  0  0  0  0  0  0  0
  -25.6053   -5.5927  140.7227 C   0  0  0  0  0  0  0  0  0  0  0  0
  -23.9015   -5.7846  134.8466 C   0  0  0  0  0  0  0  0  0  0  0  0
  -25.9395   -4.3184  140.9676 C   0  0  0  0  0  0  0  0  0  0  0  0
  -24.8797   -6.3703  141.8068 C   0  0  0  0  0  0  0  0  0  0  0  0
  -26.3160   -1.3689  136.0627 C   0  0  0  0  0  0  0  0  0  0  0  0
  3  1  1  0
  4  2  1  0
  5  1  1  0
  5  2  1  0
  6  3  1  0
  7  5  1  0
  8  3  1  0
  8  7  1  0
  9  4  1  0
 10  9  1  0
 11 10  1  0
 14 11  1  0
 15  4  1  0
 15  9  1  0
 16 14  1  0
 17  6  1  0
 17 12  1  0
 18 16  1  0
 19 12  1  0
 19 13  1  0
 20  8  1  0
 21 14  1  0
 21 16  1  0
 22  1  1  0
 22  4  1  0
 23  7  1  0
 24 11  1  0
 24 14  1  0
 25 23  2  0
 26 23  1  0
 27 15  1  0
M  END
$$$$

     RDKit          3D

 27 34  0  0  0  0  0  0  0  0999 V2000
  -20.5638  -13.5374  141.3856 C   0  0  0  0  0  0  0  0  0  0  0  0
  -18.3202  -14.8269  141.9015 C   0  0  0  0  0  0  0  0  0  0  0  0
  -21.0144  -12.2587  140.6113 C   0  0  0  0  0  0  0  0  0  0  0  0
  -17.8589  -15.8425  140.8502 C   0  0  0  0  0  0  0  0  0  0  0  0
  -22.6091  -14.6094  140.3388 N   0  0  0  0  0  0  0  0  0  0  0  0
  -21.1901  -14.7798  140.6660 C   0  0  0  0  0  0  0  0  0  0  0  0
  -17.1558  -17.0494  141.4951 C   0  0  0  0  0  0  0  0  0  0  0  0
  -21.6006  -14.5745  143.6528 C   0  0  0  0  0  0  0  0  0  0  0  0
  -20.9731  -13.3672  142.9099 C   0  0  0  0  0  0  0  0  0  0  0  0
  -19.0001  -13.5884  141.2640 C   0  0  0  0  0  0  0  0  0  0  0  0
  -17.4965  -17.7903  142.8286 C   0  0  0  0  0  0  0  0  0  0  0  0
  -16.6881  -19.0996  142.7689 C   0  0  0  0  0  0  0  0  0  0  0  0
  -18.1107  -18.1693  141.5577 C   0  0  0  0  0  0  0  0  0  0  0  0
  -22.4148  -14.0877  144.8837 C   0  0  0  0  0  0  0  0  0  0  0  0
  -23.7565  -13.3737  144.5372 C   0  0  0  0  0  0  0  0  0  0  0  0
  -22.3477  -14.8795  146.2143 C   0  0  0  0  0  0  0  0  0  0  0  0
  -23.5248  -14.7984  147.2203 C   0  0  0  0  0  0  0  0  0  0  0  0
  -15.2611  -18.6943  143.0530 C   0  0  0  0  0  0  0  0  0  0  0  0
  -15.6226  -19.0451  141.6282 C   0  0  0  0  0  0  0  0  0  0  0  0
  -16.2112  -17.9806  140.7337 C   0  0  0  0  0  0  0  0  0  0  0  0
  -23.8112  -11.4770  144.9965 Se  0  0  0  0  0  2  0  0  0  0  0  0
  -14.4456  -19.7793  143.7350 C   0  0  0  0  0  0  0  0  0  0  0  0
  -21.0201  -15.5697  146.6164 C   0  0  0  0  0  0  0  0  0  0  0  0
  -20.8937  -16.1152  148.0485 C   0  0  0  0  0  0  0  0  0  0  0  0
  -20.2844  -14.2489  146.4345 C   0  0  0  0  0  0  0  0  0  0  0  0
  -21.5881  -13.5423  146.0525 C   0  0  0  0  0  0  0  0  0  0  0  0
  -17.0614  -19.1897  141.2716 C   0  0  0  0  0  0  0  0  0  0  0  0
  3  1  1  0
  4  2  1  0
  6  1  1  0
  6  5  1  0
  7  4  1  0
  9  1  1  0
  9  8  1  0
 10  1  1  0
 10  2  1  0
 11  7  1  0
 12 11  1  0
 13  7  1  0
 13 11  1  0
 14  8  1  0
 15 14  1  0
 16 14  1  0
 17 16  1  0
 18 12  1  0
 19 12  1  0
 19 18  1  0
 20  7  1  0
 20 19  1  0
 21 15  1  0
 22 18  1  0
 23 16  1  0
 24 23  1  0
 25 23  1  0
 26 14  1  0
 26 16  1  0
 26 25  1  0
 27 12  1  0
 27 13  1  0
 27 19  1  0
 27 20  1  0
M  END
$$$$

     RDKit          3D

 11 13  0  0  0  0  0  0  0  0999 V2000
  -17.2600   -2.4546  145.8146 C   0  0  0  0  0  0  0  0  0  0  0  0
  -18.2047   -3.4755  145.9661 O   0  0  0  0  0  0  0  0  0  0  0  0
  -16.0996   -2.7490  145.0875 O   0  0  0  0  0  0  0  0  0  0  0  0
  -17.8379   -1.0561  145.6553 C   0  0  0  0  0  0  0  0  0  0  0  0
  -17.0522   -0.0647  144.7748 C   0  0  0  0  0  0  0  0  0  0  0  0
  -17.1326   -1.4589  146.9559 C   0  0  0  0  0  0  0  0  0  0  0  0
  -17.3886    1.3807  145.1617 C   0  0  0  0  0  0  0  0  0  0  0  0
  -17.4762   -0.2444  143.3171 C   0  0  0  0  0  0  0  0  0  0  0  0
  -18.2813    0.9683  142.9079 C   0  0  0  0  0  0  0  0  0  0  0  0
  -18.3648    1.8993  144.1102 C   0  0  0  0  0  0  0  0  0  0  0  0
  -16.8985    0.7417  142.3085 C   0  0  0  0  0  0  0  0  0  0  0  0
  2  1  1  0
  3  1  1  0
  4  1  1  0
  5  4  1  0
  6  1  1  0
  6  4  1  0
  7  5  1  0
  8  5  1  0
  9  8  1  0
 10  7  1  0
 10  9  1  0
 11  8  1  0
 11  9  1  0
M  END
$$$$

     RDKit          3D

 26 26  0  0  0  0  0  0  0  0999 V2000
  -33.6447  -11.6510  142.6386 O   0  0  0  0  0  0  0  0  0  0  0  0
  -33.2476  -10.8415  143.7105 C   0  0  0  0  0  0  0  0  0  0  0  0
  -33.7802  -11.3535  144.9043 O   0  0  0  0  0  0  0  0  0  0  0  0
  -31.7068  -10.7482  143.7714 C   0  0  0  0  0  0  0  0  0  0  0  0
  -31.4696  -13.1870  143.2222 N   0  0  0  0  0  0  0  0  0  0  0  0
  -30.5415  -13.9647  142.3560 C   0  0  0  0  0  0  0  0  0  0  0  0
  -30.6247  -13.5133  140.8659 C   0  0  0  0  0  0  0  0  0  0  0  0
  -30.9545  -12.4267  145.5463 C   0  0  0  0  0  0  0  0  0  0  0  0
  -29.1301  -14.2520  142.9468 C   0  0  0  0  0  0  0  0  0  0  0  0
  -27.9766  -13.3550  142.4698 C   0  0  0  0  0  0  0  0  0  0  0  0
  -25.9484  -13.0815  141.0220 C   0  0  0  0  0  0  0  0  0  0  0  0
  -29.5996  -14.2482  139.9384 C   0  0  0  0  0  0  0  0  0  0  0  0
  -30.1586  -14.3596  138.4762 C   0  0  0  0  0  0  0  0  0  0  0  0
  -30.6661  -11.9862  140.6454 C   0  0  0  0  0  0  0  0  0  0  0  0
  -25.0910  -13.4353  139.7899 C   0  0  0  0  0  0  0  0  0  0  0  0
  -24.6517  -14.9057  139.7025 C   0  0  0  0  0  0  0  0  0  0  0  0
  -30.3320  -15.8028  137.9272 C   0  0  0  0  0  0  0  0  0  0  0  0
  -22.9236  -16.5377  140.5940 C   0  0  0  0  0  0  0  0  0  0  0  0
  -30.9364  -12.0738  144.0434 C   0  0  0  0  0  0  0  0  0  0  0  0
  -23.8487  -15.3666  140.9334 C   0  0  0  0  0  0  0  0  0  0  0  0
  -30.6272  -17.8320  140.2958 O   0  0  0  0  0  0  0  0  0  0  0  0
  -29.0298  -16.6228  137.9346 C   0  0  0  0  0  0  0  0  0  0  0  0
  -27.3052  -13.8294  141.1604 C   0  0  0  0  0  0  0  0  0  0  0  0
  -28.1892  -13.5930  139.9123 C   0  0  0  0  0  0  0  0  0  0  0  0
  -31.5458  -16.5581  138.5212 C   0  0  0  0  0  0  0  0  0  0  0  0
  -31.4067  -16.9562  139.9623 C   0  0  0  0  0  0  0  0  0  0  0  0
  2  1  1  0
  3  2  1  0
  4  2  1  0
  6  5  1  0
  7  6  1  0
  9  6  1  0
 10  9  1  0
 12  7  1  0
 13 12  1  0
 14  7  1  0
 15 11  1  0
 16 15  1  0
 17 13  1  0
 19  4  1  0
 19  5  1  0
 19  8  1  0
 20 16  1  0
 20 18  1  0
 22 17  1  0
 23 10  1  0
 23 11  1  0
 24 12  1  0
 24 23  1  0
 25 17  1  0
 26 21  2  0
 26 25  1  0
M  END
$$$$

     RDKit          3D

 58 61  0  0  0  0  0  0  0  0999 V2000
  -25.5024  -12.8446  149.0470 C   0  0  0  0  0  0  0  0  0  0  0  0
  -26.5368  -12.6904  147.4583 Mg  0  0  0  0  0  2  0  0  0  0  0  0
  -28.3482  -11.9978  148.0764 N   0  0  0  0  0  2  0  0  0  0  0  0
  -27.9111  -13.9460  147.9031 C   0  0  0  0  0  0  0  0  0  0  0  0
  -28.2724  -13.9287  149.2191 N   0  0  0  0  0  0  0  0  0  0  0  0
  -27.2255  -11.2248  148.1030 C   0  0  0  0  0  0  0  0  0  0  0  0
  -28.3165  -12.8284  147.0058 C   0  0  0  0  0  0  0  0  0  0  0  0
  -29.1870  -13.8861  146.6587 C   0  0  0  0  0  0  0  0  0  0  0  0
  -28.9982  -15.2294  147.0333 C   0  0  0  0  0  0  0  0  0  0  0  0
  -26.1217  -11.6696  148.8530 N   0  0  0  0  0  2  0  0  0  0  0  0
  -26.4512  -12.7194  148.0953 N   0  0  0  0  0  2  0  0  0  0  0  0
  -27.3717  -14.0808  150.1059 O   0  0  0  0  0  0  0  0  0  0  0  0
  -25.1715  -12.4284  148.6996 O   0  0  0  0  0  0  0  0  0  0  0  0
  -27.7448  -15.9218  146.9467 C   0  0  0  0  0  0  0  0  0  0  0  0
  -26.8297  -14.8243  147.5619 C   0  0  0  0  0  0  0  0  0  0  0  0
  -24.9511  -12.3356  148.7952 C   0  0  0  0  0  0  0  0  0  0  0  0
  -27.7733  -17.3126  146.5399 C   0  0  0  0  0  0  0  0  0  0  0  0
  -27.4203  -16.0943  145.3723 C   0  0  0  0  0  0  0  0  0  0  0  0
  -28.6354  -13.8807  150.6224 O   0  0  0  0  0  0  0  0  0  0  0  0
  -28.4500  -10.7005  147.5829 N   0  0  0  0  0  2  0  0  0  0  0  0
  -28.5418  -15.5660  144.5646 C   0  0  0  0  0  0  0  0  0  0  0  0
  -28.2131  -14.7234  143.5431 C   0  0  0  0  0  0  0  0  0  0  0  0
  -26.2238  -15.1241  145.3922 C   0  0  0  0  0  0  0  0  0  0  0  0
  -27.2439  -15.2467  146.6492 C   0  0  0  0  0  0  0  0  0  0  0  0
  -27.2888  -17.8466  144.8732 C   0  0  0  0  0  0  0  0  0  0  0  0
  -27.8411  -15.2093  142.1425 C   0  0  0  0  0  0  0  0  0  0  0  0
  -24.9015  -15.7068  144.8591 C   0  0  0  0  0  0  0  0  0  0  0  0
  -25.1859  -13.6432  149.7341 H   0  0  0  0  0  0  0  0  0  0  0  0
  -26.4478  -10.5944  148.5588 H   0  0  0  0  0  0  0  0  0  0  0  0
  -28.0463  -12.1764  146.1620 H   0  0  0  0  0  0  0  0  0  0  0  0
  -30.0287  -13.7485  145.9640 H   0  0  0  0  0  0  0  0  0  0  0  0
  -29.2979  -15.2882  148.0900 H   0  0  0  0  0  0  0  0  0  0  0  0
  -29.5743  -15.7454  146.2511 H   0  0  0  0  0  0  0  0  0  0  0  0
  -26.3455  -11.2449  149.7642 H   0  0  0  0  0  0  0  0  0  0  0  0
  -27.6152  -14.0710  151.0655 H   0  0  0  0  0  0  0  0  0  0  0  0
  -27.2264  -16.3596  147.8125 H   0  0  0  0  0  0  0  0  0  0  0  0
  -25.8939  -14.2764  147.3770 H   0  0  0  0  0  0  0  0  0  0  0  0
  -26.5436  -15.5512  148.3364 H   0  0  0  0  0  0  0  0  0  0  0  0
  -24.9921  -12.3528  149.8943 H   0  0  0  0  0  0  0  0  0  0  0  0
  -24.1113  -12.9564  148.4497 H   0  0  0  0  0  0  0  0  0  0  0  0
  -24.8087  -11.3010  148.4497 H   0  0  0  0  0  0  0  0  0  0  0  0
  -28.8451  -17.2232  146.3092 H   0  0  0  0  0  0  0  0  0  0  0  0
  -29.2512  -14.5588  150.9979 H   0  0  0  0  0  0  0  0  0  0  0  0
  -29.0687  -10.4356  148.3626 H   0  0  0  0  0  0  0  0  0  0  0  0
  -29.0747  -16.4250  144.1307 H   0  0  0  0  0  0  0  0  0  0  0  0
  -29.1411  -14.9600  145.2601 H   0  0  0  0  0  0  0  0  0  0  0  0
  -29.0781  -14.0568  143.4114 H   0  0  0  0  0  0  0  0  0  0  0  0
  -27.2523  -14.3196  143.8952 H   0  0  0  0  0  0  0  0  0  0  0  0
  -25.7550  -14.1949  145.0362 H   0  0  0  0  0  0  0  0  0  0  0  0
  -26.5514  -18.6594  144.9485 H   0  0  0  0  0  0  0  0  0  0  0  0
  -28.1759  -18.2055  144.3308 H   0  0  0  0  0  0  0  0  0  0  0  0
  -26.8455  -16.9985  144.3308 H   0  0  0  0  0  0  0  0  0  0  0  0
  -27.1743  -16.0806  142.2218 H   0  0  0  0  0  0  0  0  0  0  0  0
  -28.7539  -15.4945  141.5989 H   0  0  0  0  0  0  0  0  0  0  0  0
  -27.3275  -14.4027  141.5989 H   0  0  0  0  0  0  0  0  0  0  0  0
  -24.2582  -15.9902  145.7051 H   0  0  0  0  0  0  0  0  0  0  0  0
  -25.1131  -16.5950  144.2456 H   0  0  0  0  0  0  0  0  0  0  0  0
  -24.3888  -14.9512  144.2456 H   0  0  0  0  0  0  0  0  0  0  0  0
  5  4  1  0
  6  2  1  0
  6  3  1  0
  7  3  1  0
  7  4  1  0
  8  4  1  0
  8  7  1  0
  9  8  1  0
 10  1  1  0
 11  1  1  0
 11  2  1  0
 12  5  4  0
 13  1  1  0
 14  9  1  0
 15  4  1  0
 16 13  1  0
 17 14  1  0
 18 17  1  0
 19  5  4  0
 20  6  1  0
 21 18  1  0
 22 21  1  0
 23 18  1  0
 24 14  1  0
 24 15  1  0
 24 18  1  0
 24 23  1  0
 25 17  1  0
 26 22  1  0
 27 23  1  0
  1 28  1  0
  6 29  1  0
  7 30  1  0
  8 31  1  0
  9 32  1  0
  9 33  1  0
 10 34  1  0
 12 35  1  0
 14 36  1  0
 15 37  1  0
 15 38  1  0
 16 39  1  0
 16 40  1  0
 16 41  1  0
 17 42  1  0
 19 43  1  0
 20 44  1  0
 21 45  1  0
 21 46  1  0
 22 47  1  0
 22 48  1  0
 23 49  1  0
 25 50  1  0
 25 51  1  0
 25 52  1  0
 26 53  1  0
 26 54  1  0
 26 55  1  0
 27 56  1  0
 27 57  1  0
 27 58  1  0
M  END
$$$$

     RDKit          3D

 27 32  0  0  0  0  0  0  0  0999 V2000
  -27.5000  -20.4111  149.0877 C   0  0  0  0  0  0  0  0  0  0  0  0
  -26.5741  -21.4026  149.8107 C   0  0  0  0  0  0  0  0  0  0  0  0
  -27.3060  -23.2283  149.7775 Br  0  0  0  0  0  0  0  0  0  0  0  0
  -24.3326  -20.2012  149.5665 C   0  0  0  0  0  0  0  0  0  0  0  0
  -22.9851  -19.7230  148.3790 S   0  0  0  0  0  0  0  0  0  0  0  0
  -23.1520  -17.9498  148.6413 C   0  0  0  0  0  0  0  0  0  0  0  0
  -23.7495  -20.4055  150.9954 C   0  0  0  0  0  0  0  0  0  0  0  0
  -24.1560  -17.2383  147.9483 C   0  0  0  0  0  0  0  0  0  0  0  0
  -22.3635  -17.3245  149.6553 C   0  0  0  0  0  0  0  0  0  0  0  0
  -22.5556  -15.9737  150.0336 C   0  0  0  0  0  0  0  0  0  0  0  0
  -26.7650  -20.0277  147.7729 C   0  0  0  0  0  0  0  0  0  0  0  0
  -23.5209  -15.3067  149.3229 C   0  0  0  0  0  0  0  0  0  0  0  0
  -25.6940  -21.0716  147.5483 C   0  0  0  0  0  0  0  0  0  0  0  0
  -24.3196  -15.9253  148.3188 C   0  0  0  0  0  0  0  0  0  0  0  0
  -27.1097  -21.2107  146.9083 C   0  0  0  0  0  0  0  0  0  0  0  0
  -25.0665  -14.6651  148.0992 C   0  0  0  0  0  0  0  0  0  0  0  0
  -24.2834  -14.0271  149.1537 C   0  0  0  0  0  0  0  0  0  0  0  0
  -22.5193  -21.3097  151.1216 C   0  0  0  0  0  0  0  0  0  0  0  0
  -25.2563  -21.3633  149.0165 C   0  0  0  0  0  0  0  0  0  0  0  0
  -22.8575  -22.8189  151.2800 C   0  0  0  0  0  0  0  0  0  0  0  0
  -27.5991  -19.7930  146.5128 C   0  0  0  0  0  0  0  0  0  0  0  0
  -21.8707  -23.7623  150.7438 C   0  0  0  0  0  0  0  0  0  0  0  0
  -21.9277  -23.5305  152.2045 N   0  0  0  0  0  0  0  0  0  0  0  0
  -26.7917  -19.1068  145.3835 C   0  0  0  0  0  0  0  0  0  0  0  0
  -28.9834  -19.1340  146.8419 C   0  0  0  0  0  0  0  0  0  0  0  0
  -28.6886  -16.5618  146.4100 C   0  0  0  0  0  0  0  0  0  0  0  0
  -28.8626  -17.6973  147.4254 C   0  0  0  0  0  0  0  0  0  0  0  0
  2  1  1  0
  3  2  1  0
  5  4  1  0
  6  5  1  0
  7  4  1  0
  8  6  4  0
  9  6  4  0
 10  9  4  0
 11  1  1  0
 12 10  4  0
 13 11  1  0
 14  8  4  0
 14 12  4  0
 15 11  1  0
 15 13  1  0
 16 14  1  0
 17 12  1  0
 17 16  1  0
 18  7  1  0
 19  2  1  0
 19  4  1  0
 19 13  1  0
 20 18  1  0
 21 11  1  0
 21 15  1  0
 22 20  1  0
 23 20  1  0
 23 22  1  0
 24 21  1  0
 25 21  1  0
 27 25  1  0
 27 26  1  0
M  END
$$$$

     RDKit          3D

 27 29  0  0  0  0  0  0  0  0999 V2000
  -26.9839  -16.9992  143.1891 C   0  0  0  0  0  0  0  0  0  0  0  0
  -26.5842  -18.3187  143.7918 N   0  0  0  0  0  0  0  0  0  0  0  0
  -26.5185  -15.7841  143.7047 O   0  0  0  0  0  0  0  0  0  0  0  0
  -25.1330  -18.6300  144.2603 C   0  0  0  0  0  0  0  0  0  0  0  0
  -24.8915  -19.8062  145.2098 C   0  0  0  0  0  0  0  0  0  0  0  0
  -28.0921  -16.6748  142.1995 C   0  0  0  0  0  0  0  0  0  0  0  0
  -27.1059  -21.4082  144.4950 C   0  0  0  0  0  0  0  0  0  0  0  0
  -25.5884  -19.3353  146.5045 C   0  0  0  0  0  0  0  0  0  0  0  0
  -25.3129  -20.3741  147.6153 C   0  0  0  0  0  0  0  0  0  0  0  0
  -23.8815  -20.8181  147.9020 C   0  0  0  0  0  0  0  0  0  0  0  0
  -25.5321  -21.1292  144.6234 C   0  0  0  0  0  0  0  0  0  0  0  0
  -22.7313  -19.8026  148.1282 C   0  0  0  0  0  0  0  0  0  0  0  0
  -21.8347  -19.3504  146.7341 C   0  0  0  0  0  0  0  0  0  0  0  0
  -26.8071  -17.2512  141.6728 C   0  0  0  0  0  0  0  0  0  0  0  0
  -23.6997  -22.0049  148.7492 N   0  0  0  0  0  0  0  0  0  0  0  0
  -22.0376  -17.6813  146.3366 C   0  0  0  0  0  0  0  0  0  0  0  0
  -24.2577  -18.7326  142.9479 C   0  0  0  0  0  0  0  0  0  0  0  0
  -22.5296  -16.2716  145.4773 C   0  0  0  0  0  0  0  0  0  0  0  0
  -23.5475  -15.3980  146.3207 C   0  0  0  0  0  0  0  0  0  0  0  0
  -25.4235  -18.9838  148.0026 C   0  0  0  0  0  0  0  0  0  0  0  0
  -21.0543  -17.0586  147.3896 C   0  0  0  0  0  0  0  0  0  0  0  0
  -24.5246  -14.3538  146.2454 C   0  0  0  0  0  0  0  0  0  0  0  0
  -25.1791  -13.1758  145.3779 C   0  0  0  0  0  0  0  0  0  0  0  0
  -26.5457  -12.4166  145.9126 C   0  0  0  0  0  0  0  0  0  0  0  0
  -26.5983  -11.0378  146.6505 C   0  0  0  0  0  0  0  0  0  0  0  0
  -26.5287  -12.1820  147.5205 C   0  0  0  0  0  0  0  0  0  0  0  0
  -27.7152  -12.1649  148.4636 C   0  0  0  0  0  0  0  0  0  0  0  0
  2  1  1  0
  3  1  1  0
  4  2  1  0
  5  4  1  0
  6  1  1  0
  8  5  1  0
  9  8  1  0
 10  9  1  0
 11  5  1  0
 11  7  1  0
 12 10  1  0
 13 12  1  0
 14  1  1  0
 14  6  1  0
 15 10  1  0
 16 13  1  0
 17  4  1  0
 18 16  1  0
 19 18  1  0
 20  8  1  0
 20  9  1  0
 21 16  1  0
 22 19  2  3
 23 22  1  0
 24 23  1  0
 25 24  1  0
 26 24  1  0
 26 25  1  0
 27 26  1  0
M  END
$$$$

     RDKit          3D

 27 32  0  0  0  0  0  0  0  0999 V2000
  -37.6929  -18.2293  140.5285 O   0  0  0  0  0  0  0  0  0  0  0  0
  -38.6864  -17.1088  142.2571 C   0  0  0  0  0  0  0  0  0  0  0  0
  -39.6015  -11.6675  143.3072 C   0  0  0  0  0  0  0  0  0  0  0  0
  -35.9125  -14.8298  143.0538 C   0  0  0  0  0  0  0  0  0  0  0  0
  -39.7639  -10.1332  143.9953 C   0  0  0  0  0  0  0  0  0  0  0  0
  -38.2461  -14.3605  142.9605 C   0  0  0  0  0  0  0  0  0  0  0  0
  -35.8228  -17.1260  142.4400 C   0  0  0  0  0  0  0  0  0  0  0  0
  -40.2465  -10.9892  144.9940 C   0  0  0  0  0  0  0  0  0  0  0  0
  -39.0611  -18.1896  140.7991 C   0  0  0  0  0  0  0  0  0  0  0  0
  -37.1943  -18.2793  141.8496 C   0  0  0  0  0  0  0  0  0  0  0  0
  -35.1080  -18.2752  143.3714 C   0  0  0  0  0  0  0  0  0  0  0  0
  -33.5003  -17.6785  143.5126 C   0  0  0  0  0  0  0  0  0  0  0  0
  -35.2555  -19.3586  144.7306 C   0  0  0  0  0  0  0  0  0  0  0  0
  -32.8446  -16.9397  142.2287 C   0  0  0  0  0  0  0  0  0  0  0  0
  -32.8079  -16.1701  143.6217 C   0  0  0  0  0  0  0  0  0  0  0  0
  -34.2060  -18.2963  145.8090 S   0  0  0  0  0  0  0  0  0  0  0  0
  -32.8709  -18.6098  144.5745 C   0  0  0  0  0  0  0  0  0  0  0  0
  -36.6488  -19.9130  145.4873 C   0  0  0  0  0  0  0  0  0  0  0  0
  -37.7007  -18.9623  146.2556 C   0  0  0  0  0  0  0  0  0  0  0  0
  -40.9727  -16.5713  145.5177 S   0  0  0  0  0  0  0  0  0  0  0  0
  -40.9277  -18.9336  144.3656 C   0  0  0  0  0  0  0  0  0  0  0  0
  -41.6400  -14.8536  146.1433 C   0  0  0  0  0  0  0  0  0  0  0  0
  -40.9483  -13.5469  145.8536 C   0  0  0  0  0  0  0  0  0  0  0  0
  -39.6955  -18.7575  145.6058 C   0  0  0  0  0  0  0  0  0  0  0  0
  -40.5383  -17.8366  146.6918 C   0  0  0  0  0  0  0  0  0  0  0  0
  -41.9648  -18.0512  147.5339 C   0  0  0  0  0  0  0  0  0  0  0  0
  -41.3123  -19.0732  147.0345 C   0  0  0  0  0  0  0  0  0  0  0  0
  5  3  1  0
  6  2  1  0
  6  3  1  0
  6  4  1  0
  7  4  1  0
  8  3  1  0
  8  5  1  0
  9  1  1  0
  9  2  1  0
 10  1  1  0
 10  2  1  0
 10  7  1  0
 11  7  1  0
 12 11  1  0
 13 11  1  0
 14 12  1  0
 15 12  1  0
 15 14  1  0
 16 13  1  0
 17 12  1  0
 17 16  1  0
 18 13  1  0
 19 18  1  0
 22 20  1  0
 23 22  1  0
 24 19  1  0
 24 21  2  0
 25 20  1  0
 25 24  1  0
 26 25  1  0
 27 25  1  0
 27 26  1  0
M  END
$$$$

     RDKit          3D

 26 29  0  0  0  0  0  0  0  0999 V2000
  -26.8404   -9.4320  138.8725 F   0  0  0  0  0  0  0  0  0  0  0  0
  -25.8835   -9.9796  139.7081 C   0  0  0  0  0  0  0  0  0  0  0  0
  -25.6389   -9.1384  140.9510 C   0  0  0  0  0  0  0  0  0  0  0  0
  -24.1322   -9.0516  141.2613 C   0  0  0  0  0  0  0  0  0  0  0  0
  -26.4498  -10.4510  141.0471 C   0  0  0  0  0  0  0  0  0  0  0  0
  -23.8477   -8.4546  142.6456 C   0  0  0  0  0  0  0  0  0  0  0  0
  -24.4422   -7.0422  142.8611 C   0  0  0  0  0  0  0  0  0  0  0  0
  -25.7430   -6.9091  143.6632 C   0  0  0  0  0  0  0  0  0  0  0  0
  -25.8167  -11.6537  141.8110 C   0  0  0  0  0  0  0  0  0  0  0  0
  -25.2602  -12.8064  140.9257 C   0  0  0  0  0  0  0  0  0  0  0  0
  -23.4193   -5.9340  143.1240 C   0  0  0  0  0  0  0  0  0  0  0  0
  -26.8055  -12.1498  142.8869 C   0  0  0  0  0  0  0  0  0  0  0  0
  -26.5667  -11.5849  144.2837 C   0  0  0  0  0  0  0  0  0  0  0  0
  -26.1685  -13.8050  140.1426 C   0  0  0  0  0  0  0  0  0  0  0  0
  -26.2298  -13.0326  143.9902 C   0  0  0  0  0  0  0  0  0  0  0  0
  -24.1839   -5.9670  141.8061 C   0  0  0  0  0  0  0  0  0  0  0  0
  -26.7474  -15.0051  140.9611 C   0  0  0  0  0  0  0  0  0  0  0  0
  -28.0359  -14.7685  141.7197 C   0  0  0  0  0  0  0  0  0  0  0  0
  -26.8421  -16.3011  140.1317 C   0  0  0  0  0  0  0  0  0  0  0  0
  -29.1972  -14.3343  141.2087 C   0  0  0  0  0  0  0  0  0  0  0  0
  -29.4083  -13.9228  139.7753 C   0  0  0  0  0  0  0  0  0  0  0  0
  -30.8838  -13.5458  139.5217 C   0  0  0  0  0  0  0  0  0  0  0  0
  -28.4819  -12.7404  139.4451 C   0  0  0  0  0  0  0  0  0  0  0  0
  -31.8569  -14.7353  139.6558 C   0  0  0  0  0  0  0  0  0  0  0  0
  -27.0680  -13.1900  139.0414 C   0  0  0  0  0  0  0  0  0  0  0  0
  -31.7273  -15.7391  138.5146 C   0  0  0  0  0  0  0  0  0  0  0  0
  2  1  1  0
  3  2  1  0
  4  3  1  0
  5  2  1  0
  5  3  1  0
  6  4  1  0
  7  6  1  0
  8  7  1  0
  9  5  1  0
 10  9  1  0
 11  7  1  0
 12  9  1  0
 13 12  1  0
 14 10  1  0
 15 12  1  0
 15 13  1  0
 16  7  1  0
 16 11  1  0
 17 14  1  0
 18 17  1  0
 19 17  1  0
 20 18  2  0
 21 20  1  0
 22 21  1  0
 23 21  1  0
 24 22  1  0
 25 14  1  0
 25 23  1  0
 26 24  1  0
M  END
$$$$

     RDKit          3D

 26 30  0  0  0  0  0  0  0  0999 V2000
  -27.3741   -7.6552  147.6144 C   0  0  0  0  0  0  0  0  0  0  0  0
  -25.9055   -7.4502  147.6193 N   0  0  0  0  0  0  0  0  0  0  0  0
  -25.0551   -7.8904  146.4965 C   0  0  0  0  0  0  0  0  0  0  0  0
  -24.2413   -6.7879  145.7883 C   0  0  0  0  0  0  0  0  0  0  0  0
  -24.5344   -5.2863  145.9674 C   0  0  0  0  0  0  0  0  0  0  0  0
  -27.7841   -7.9880  149.0674 C   0  0  0  0  0  0  0  0  0  0  0  0
  -24.1849   -4.6698  147.3092 C   0  0  0  0  0  0  0  0  0  0  0  0
  -25.4022   -7.4692  145.0742 C   0  0  0  0  0  0  0  0  0  0  0  0
  -27.7030   -9.4383  149.3593 N   0  0  0  0  0  0  0  0  0  0  0  0
  -23.2795   -3.4675  147.1945 C   0  0  0  0  0  0  0  0  0  0  0  0
  -28.6842  -10.2615  148.5879 C   0  0  0  0  0  0  0  0  0  0  0  0
  -27.8367   -8.8016  146.6580 C   0  0  0  0  0  0  0  0  0  0  0  0
  -27.9826  -11.5332  148.2099 N   0  0  0  0  0  0  0  0  0  0  0  0
  -28.4349  -12.8908  148.6195 C   0  0  0  0  0  0  0  0  0  0  0  0
  -23.2866   -4.4448  146.0566 C   0  0  0  0  0  0  0  0  0  0  0  0
  -28.0309   -6.3904  147.2489 N   0  0  0  0  0  0  0  0  0  0  0  0
  -29.8965  -10.5856  149.4315 N   0  0  0  0  0  0  0  0  0  0  0  0
  -27.6319  -13.8221  147.9656 F   0  0  0  0  0  0  0  0  0  0  0  0
  -29.9041  -13.2363  148.2081 C   0  0  0  0  0  0  0  0  0  0  0  0
  -28.1691  -13.1066  150.1194 C   0  0  0  0  0  0  0  0  0  0  0  0
  -30.7639  -10.6013  151.8275 C   0  0  0  0  0  0  0  0  0  0  0  0
  -29.0625   -9.5445  147.2273 C   0  0  0  0  0  0  0  0  0  0  0  0
  -30.1293  -13.2199  146.6949 C   0  0  0  0  0  0  0  0  0  0  0  0
  -30.0657  -10.3160  153.1668 C   0  0  0  0  0  0  0  0  0  0  0  0
  -30.0958   -9.8072  150.6849 C   0  0  0  0  0  0  0  0  0  0  0  0
  -30.9668   -9.5542  149.5262 C   0  0  0  0  0  0  0  0  0  0  0  0
  2  1  1  0
  3  2  1  0
  4  3  1  0
  5  4  1  0
  6  1  1  0
  7  5  1  0
  8  3  1  0
  8  4  1  0
  9  6  1  0
 10  7  1  0
 11  9  1  0
 12  1  1  0
 13 11  1  0
 14 13  1  0
 15  5  1  0
 15  7  1  0
 15 10  1  0
 16  1  1  0
 17 11  1  0
 18 14  1  0
 19 14  1  0
 20 14  1  0
 22 11  1  0
 22 12  1  0
 23 19  1  0
 24 21  1  0
 25 17  1  0
 25 21  1  0
 26 17  1  0
 26 25  1  0
M  END
$$$$

     RDKit          3D

 26 26  0  0  0  0  0  0  0  0999 V2000
  -30.8804   -2.6971  140.5538 F   0  0  0  0  0  0  0  0  0  0  0  0
  -32.3866   -4.4714  139.6820 C   0  0  0  0  0  0  0  0  0  0  0  0
  -33.4647   -5.0779  140.2554 F   0  0  0  0  0  0  0  0  0  0  0  0
  -28.8796   -7.0238  136.5057 C   0  0  0  0  0  0  0  0  0  0  0  0
  -35.3249   -3.9400  144.2128 F   0  0  0  0  0  0  0  0  0  0  0  0
  -32.6212   -4.2868  138.3038 F   0  0  0  0  0  0  0  0  0  0  0  0
  -30.1075   -8.1355  136.4116 C   0  0  0  0  0  0  0  0  0  0  0  0
  -30.5881   -8.6555  138.0670 C   0  0  0  0  0  0  0  0  0  0  0  0
  -30.3629   -7.5085  139.3228 C   0  0  0  0  0  0  0  0  0  0  0  0
  -31.4980   -6.4795  139.3581 N   0  0  0  0  0  0  0  0  0  0  0  0
  -31.0548   -5.1734  139.8280 C   0  0  0  0  0  0  0  0  0  0  0  0
  -32.4620   -2.9911  140.0945 C   0  0  0  0  0  0  0  0  0  0  0  0
  -34.0908   -3.1932  144.4942 C   0  0  0  0  0  0  0  0  0  0  0  0
  -30.8841   -3.4651  143.2990 C   0  0  0  0  0  0  0  0  0  0  0  0
  -29.0929   -7.5686  132.0107 C   0  0  0  0  0  0  0  0  0  0  0  0
  -34.1866   -1.3696  144.2447 C   0  0  0  0  0  0  0  0  0  0  0  0
  -29.2486   -3.0409  144.1000 N   0  0  0  0  0  0  0  0  0  0  0  0
  -32.6561   -3.3943  142.6471 C   0  0  0  0  0  0  0  0  0  0  0  0
  -27.0337   -3.7444  146.6120 C   0  0  0  0  0  0  0  0  0  0  0  0
  -25.5115   -4.5174  146.7783 C   0  0  0  0  0  0  0  0  0  0  0  0
  -28.2615   -1.5962  143.7967 C   0  0  0  0  0  0  0  0  0  0  0  0
  -28.9082   -8.0780  135.3126 C   0  0  0  0  0  0  0  0  0  0  0  0
  -28.0608   -3.8843  145.1883 C   0  0  0  0  0  0  0  0  0  0  0  0
  -27.6910   -4.9350  147.5493 C   0  0  0  0  0  0  0  0  0  0  0  0
  -29.2921   -7.3880  133.7319 C   0  0  0  0  0  0  0  0  0  0  0  0
  -24.1452   -4.1194  146.2217 C   0  0  0  0  0  0  0  0  0  0  0  0
  3  2  1  0
  6  2  1  0
  7  4  1  0
  8  7  1  0
  9  8  1  0
 10  9  1  0
 11  2  1  0
 11 10  1  0
 12  1  1  0
 12  2  1  0
 13  5  1  0
 16 13  1  0
 17 14  1  0
 18 12  1  0
 18 13  1  0
 18 14  1  0
 20 19  1  0
 21 17  1  0
 22  4  1  0
 22  7  1  0
 23 17  1  0
 23 19  1  0
 24 19  1  0
 25 15  1  0
 25 22  1  0
 26 20  1  0
M  END
$$$$

     RDKit          3D

 27 35  0  0  0  0  0  0  0  0999 V2000
  -21.1508    0.6082  136.3502 C   0  0  0  0  0  0  0  0  0  0  0  0
  -22.7746    1.6377  135.3085 C   0  0  0  0  0  0  0  0  0  0  0  0
  -23.7912    2.2337  136.2966 C   0  0  0  0  0  0  0  0  0  0  0  0
  -23.5884    3.7226  136.7255 C   0  0  0  0  0  0  0  0  0  0  0  0
  -24.3493    5.3886  138.7001 C   0  0  0  0  0  0  0  0  0  0  0  0
  -22.6821    0.4836  136.3106 C   0  0  0  0  0  0  0  0  0  0  0  0
  -21.2461    1.8676  135.4750 C   0  0  0  0  0  0  0  0  0  0  0  0
  -23.4917    1.1983  137.3001 N   0  0  0  0  0  0  0  0  0  0  0  0
  -23.2860    4.9920  139.7114 C   0  0  0  0  0  0  0  0  0  0  0  0
  -25.8347    5.3398  136.3422 S   0  0  0  0  0  0  0  0  0  0  0  0
  -24.7487    4.4360  137.5173 C   0  0  0  0  0  0  0  0  0  0  0  0
  -21.8675    4.7548  139.4554 C   0  0  0  0  0  0  0  0  0  0  0  0
  -20.6149    2.7742  138.7195 C   0  0  0  0  0  0  0  0  0  0  0  0
  -19.7109    1.5368  138.6424 C   0  0  0  0  0  0  0  0  0  0  0  0
  -20.6003   -0.4434  138.7932 C   0  0  0  0  0  0  0  0  0  0  0  0
  -25.6124    3.6000  138.4812 C   0  0  0  0  0  0  0  0  0  0  0  0
  -24.1868    4.3156  140.6756 C   0  0  0  0  0  0  0  0  0  0  0  0
  -20.6724    3.3667  141.2669 C   0  0  0  0  0  0  0  0  0  0  0  0
  -19.7717    0.4586  139.7241 C   0  0  0  0  0  0  0  0  0  0  0  0
  -20.1976    0.7912  141.1687 C   0  0  0  0  0  0  0  0  0  0  0  0
  -25.3184    4.5833  139.6274 C   0  0  0  0  0  0  0  0  0  0  0  0
  -20.1915    0.4632  137.6165 C   0  0  0  0  0  0  0  0  0  0  0  0
  -22.3245    5.7892  140.3338 O   0  0  0  0  0  0  0  0  0  0  0  0
  -21.4600    3.2979  139.9349 C   0  0  0  0  0  0  0  0  0  0  0  0
  -23.7760    2.9369  140.9911 N   0  0  0  0  0  0  0  0  0  0  0  0
  -22.7666    2.4204  140.0573 C   0  0  0  0  0  0  0  0  0  0  0  0
  -19.7245    2.1912  141.5996 C   0  0  0  0  0  0  0  0  0  0  0  0
  3  2  1  0
  4  3  1  0
  6  1  1  0
  6  2  1  0
  7  1  1  0
  7  2  1  0
  8  3  1  0
  8  6  1  0
  9  5  1  0
 11  4  1  0
 11  5  1  0
 11 10  1  0
 12  9  1  0
 14 13  1  0
 16 11  1  0
 17  9  1  0
 19 14  1  0
 19 15  1  0
 20 19  1  0
 21  5  1  0
 21 16  1  0
 21 17  1  0
 22  1  1  0
 22 14  1  0
 22 15  1  0
 23  9  1  0
 23 12  1  0
 24 12  1  0
 24 13  1  0
 24 18  1  0
 25 17  1  0
 26 24  1  0
 26 25  1  0
 27 18  1  0
 27 20  1  0
M  END
$$$$

     RDKit          3D

 14 17  0  0  0  0  0  0  0  0999 V2000
  -24.0722   -7.7229  136.4100 O   0  0  0  0  0  0  0  0  0  0  0  0
  -23.4955   -6.0857  135.7441 Br  0  0  0  0  0  0  0  0  0  0  0  0
  -25.3591   -7.5257  136.9515 C   0  0  0  0  0  0  0  0  0  0  0  0
  -25.5830   -8.4554  138.1221 C   0  0  0  0  0  0  0  0  0  0  0  0
  -25.4442   -6.8992  138.3338 C   0  0  0  0  0  0  0  0  0  0  0  0
  -25.4057   -7.8559  139.4919 C   0  0  0  0  0  0  0  0  0  0  0  0
  -26.6108   -7.7886  140.4684 C   0  0  0  0  0  0  0  0  0  0  0  0
  -26.5474   -7.4648  135.9597 C   0  0  0  0  0  0  0  0  0  0  0  0
  -28.6169   -8.6113  140.2331 C   0  0  0  0  0  0  0  0  0  0  0  0
  -27.6322   -6.4391  136.3490 C   0  0  0  0  0  0  0  0  0  0  0  0
  -28.0081   -7.2141  140.1187 C   0  0  0  0  0  0  0  0  0  0  0  0
  -27.2636   -9.1579  140.7031 C   0  0  0  0  0  0  0  0  0  0  0  0
  -28.5827   -6.9470  137.4744 C   0  0  0  0  0  0  0  0  0  0  0  0
  -28.3055   -6.3162  138.8746 C   0  0  0  0  0  0  0  0  0  0  0  0
  2  1  1  0
  3  1  1  0
  4  3  1  0
  5  3  1  0
  5  4  1  0
  6  4  1  0
  6  5  1  0
  7  6  1  0
  8  3  1  0
 10  8  1  0
 11  7  1  0
 11  9  1  0
 12  7  1  0
 12  9  1  0
 13 10  1  0
 14 11  1  0
 14 13  1  0
M  END
$$$$

     RDKit          3D

 11 13  0  0  0  0  0  0  0  0999 V2000
  -28.1481   -6.7744  132.6143 O   0  0  0  0  0  0  0  0  0  0  0  0
  -28.8814   -7.6622  133.4299 C   0  0  0  0  0  0  0  0  0  0  0  0
  -27.9919   -8.6405  134.0497 N   0  0  0  0  0  0  0  0  0  0  0  0
  -28.6821   -6.2376  133.8033 C   0  0  0  0  0  0  0  0  0  0  0  0
  -27.5817   -5.8764  134.8056 C   0  0  0  0  0  0  0  0  0  0  0  0
  -27.2306   -4.3856  134.6728 C   0  0  0  0  0  0  0  0  0  0  0  0
  -26.3084   -4.0620  133.5642 N   0  0  0  0  0  0  0  0  0  0  0  0
  -25.8494   -4.0134  134.9678 C   0  0  0  0  0  0  0  0  0  0  0  0
  -28.7308   -9.3403  135.0987 C   0  0  0  0  0  0  0  0  0  0  0  0
  -28.2476   -9.0060  136.4970 C   0  0  0  0  0  0  0  0  0  0  0  0
  -27.8861  -10.3398  135.8706 C   0  0  0  0  0  0  0  0  0  0  0  0
  2  1  1  0
  3  2  1  0
  4  1  1  0
  4  2  1  0
  5  4  1  0
  6  5  1  0
  7  6  1  0
  8  6  1  0
  8  7  1  0
  9  3  1  0
 10  9  1  0
 11  9  1  0
 11 10  1  0
M  END
$$$$

     RDKit          3D

 27 35  0  0  0  0  0  0  0  0999 V2000
  -26.1224   -5.7323  150.0224 C   0  0  0  0  0  0  0  0  0  0  0  0
  -25.2548   -7.0483  147.2838 C   0  0  0  0  0  0  0  0  0  0  0  0
  -24.3599   -5.8440  147.1455 C   0  0  0  0  0  0  0  0  0  0  0  0
  -27.5274   -5.4311  152.1067 C   0  0  0  0  0  0  0  0  0  0  0  0
  -25.8155   -7.3372  152.0524 C   0  0  0  0  0  0  0  0  0  0  0  0
  -24.5940   -4.3537  147.2982 C   0  0  0  0  0  0  0  0  0  0  0  0
  -24.9291   -7.3213  153.2129 O   0  0  0  0  0  0  0  0  0  0  0  0
  -27.5256   -4.1139  153.0112 C   0  0  0  0  0  0  0  0  0  0  0  0
  -26.2432   -5.9674  151.5058 N   0  0  0  0  0  0  0  0  0  0  0  0
  -26.2816   -3.1336  153.1529 C   0  0  0  0  0  0  0  0  0  0  0  0
  -25.9368   -8.7019  149.8708 C   0  0  0  0  0  0  0  0  0  0  0  0
  -25.1171   -8.2938  151.0670 C   0  0  0  0  0  0  0  0  0  0  0  0
  -25.1154   -3.9129  153.1188 C   0  0  0  0  0  0  0  0  0  0  0  0
  -26.2885   -7.1927  148.8809 Si  0  0  0  0  0  4  0  0  0  0  0  0
  -23.0821   -6.6301  147.0836 C   0  0  0  0  0  0  0  0  0  0  0  0
  -22.8323   -7.5362  148.2527 C   0  0  0  0  0  0  0  0  0  0  0  0
  -28.0088   -4.0669  151.5593 C   0  0  0  0  0  0  0  0  0  0  0  0
  -24.5639   -4.9822  145.9135 C   0  0  0  0  0  0  0  0  0  0  0  0
  -24.1585   -6.1423  153.3124 C   0  0  0  0  0  0  0  0  0  0  0  0
  -23.9690   -7.9003  147.3059 C   0  0  0  0  0  0  0  0  0  0  0  0
  -25.1516   -5.2318  153.8044 C   0  0  0  0  0  0  0  0  0  0  0  0
  -28.3454   -4.9990  155.2928 C   0  0  0  0  0  0  0  0  0  0  0  0
  -25.1844   -3.0318  154.3240 C   0  0  0  0  0  0  0  0  0  0  0  0
  -23.8975   -3.7860  154.8686 C   0  0  0  0  0  0  0  0  0  0  0  0
  -30.0909   -4.2239  153.6851 C   0  0  0  0  0  0  0  0  0  0  0  0
  -24.0162   -5.3378  154.6820 C   0  0  0  0  0  0  0  0  0  0  0  0
  -28.6296   -4.0333  154.1267 C   0  0  0  0  0  0  0  0  0  0  0  0
  3  2  1  0
  6  3  1  0
  7  5  1  0
  8  4  1  0
  9  1  1  0
  9  4  1  0
  9  5  1  0
 10  8  1  0
 12  5  1  0
 12 11  1  0
 13 10  1  0
 14  1  1  0
 14  2  1  0
 14 11  1  0
 15  3  1  0
 16 15  1  0
 17  4  1  0
 17  8  1  0
 18  3  1  0
 18  6  1  0
 19  7  1  0
 20  2  1  0
 20 15  1  0
 20 16  1  0
 21 13  1  0
 21 19  1  0
 23 10  1  0
 23 13  1  0
 24 23  1  0
 26 19  1  0
 26 21  1  0
 26 24  1  0
 27  8  1  0
 27 22  1  0
 27 25  1  0
M  END
$$$$

     RDKit          3D

 26 26  0  0  0  0  0  0  0  0999 V2000
  -18.3927  -14.9441  146.5464 Cl  0  0  0  0  0  0  0  0  0  0  0  0
  -20.8899  -14.4313  144.6820 C   0  0  0  0  0  0  0  0  0  0  0  0
  -20.8150  -14.2601  143.0900 C   0  0  0  0  0  0  0  0  0  0  0  0
  -19.2302  -16.3100  145.7030 C   0  0  0  0  0  0  0  0  0  0  0  0
  -21.8408  -15.0435  142.3193 C   0  0  0  0  0  0  0  0  0  0  0  0
  -23.1866  -14.6995  142.2079 C   0  0  0  0  0  0  0  0  0  0  0  0
  -23.6269  -13.3049  141.7614 C   0  0  0  0  0  0  0  0  0  0  0  0
  -25.0000  -12.9289  142.5401 C   0  0  0  0  0  0  0  0  0  0  0  0
  -26.2306  -12.5359  141.6485 C   0  0  0  0  0  0  0  0  0  0  0  0
  -28.5621  -13.5564  142.9353 C   0  0  0  0  0  0  0  0  0  0  0  0
  -29.6458  -12.4199  142.9202 C   0  0  0  0  0  0  0  0  0  0  0  0
  -30.0353  -12.0475  144.3634 C   0  0  0  0  0  0  0  0  0  0  0  0
  -27.4431  -13.5081  141.7751 C   0  0  0  0  0  0  0  0  0  0  0  0
  -20.7084  -15.8632  145.2530 C   0  0  0  0  0  0  0  0  0  0  0  0
  -24.5174  -16.0240  140.3129 C   0  0  0  0  0  0  0  0  0  0  0  0
  -23.8004  -12.0273  142.6715 C   0  0  0  0  0  0  0  0  0  0  0  0
  -25.9638  -15.8851  139.6072 C   0  0  0  0  0  0  0  0  0  0  0  0
  -19.2980  -17.3058  146.6500 O   0  0  0  0  0  0  0  0  0  0  0  0
  -24.2981  -17.0969  142.6082 C   0  0  0  0  0  0  0  0  0  0  0  0
  -26.0204  -14.8385  138.4207 C   0  0  0  0  0  0  0  0  0  0  0  0
  -25.3956  -17.1961  143.7345 C   0  0  0  0  0  0  0  0  0  0  0  0
  -24.9331  -16.9649  145.2263 C   0  0  0  0  0  0  0  0  0  0  0  0
  -24.3126  -15.7817  141.8350 C   0  0  0  0  0  0  0  0  0  0  0  0
  -24.1329  -15.6971  145.4141 C   0  0  0  0  0  0  0  0  0  0  0  0
  -26.6201  -16.5629  143.4744 O   0  0  0  0  0  0  0  0  0  0  0  0
  -27.1687  -13.8181  138.3597 C   0  0  0  0  0  0  0  0  0  0  0  0
  3  2  1  0
  4  1  1  0
  5  3  1  0
  6  5  2  3
  7  6  1  0
  8  7  1  0
  9  8  1  0
 11 10  1  0
 12 11  1  0
 13  9  1  0
 13 10  1  0
 14  2  1  0
 14  4  1  0
 16  7  1  0
 16  8  1  0
 17 15  1  0
 18  4  1  0
 20 17  1  0
 21 19  1  0
 22 21  1  0
 23  6  1  0
 23 15  1  0
 23 19  1  0
 24 22  1  0
 25 21  1  0
 26 20  1  0
M  END
$$$$

     RDKit          3D

 27 29  0  0  0  0  0  0  0  0999 V2000
  -16.7579   -6.3798  140.2607 O   0  0  0  0  0  0  0  0  0  0  0  0
  -17.1841   -5.6004  141.3718 C   0  0  0  0  0  0  0  0  0  0  0  0
  -18.1169   -6.3461  142.1318 O   0  0  0  0  0  0  0  0  0  0  0  0
  -15.5031   -5.9237  139.7942 C   0  0  0  0  0  0  0  0  0  0  0  0
  -17.9076   -4.3462  140.9061 C   0  0  0  0  0  0  0  0  0  0  0  0
  -17.4358   -3.0525  141.5973 C   0  0  0  0  0  0  0  0  0  0  0  0
  -17.6063   -3.0043  143.1272 C   0  0  0  0  0  0  0  0  0  0  0  0
  -19.3019   -4.7702  141.2222 C   0  0  0  0  0  0  0  0  0  0  0  0
  -17.1124   -1.6748  143.6173 C   0  0  0  0  0  0  0  0  0  0  0  0
  -17.9354   -0.6222  143.7367 C   0  0  0  0  0  0  0  0  0  0  0  0
  -20.4833   -3.8634  141.5245 C   0  0  0  0  0  0  0  0  0  0  0  0
  -17.4145    0.7745  143.9507 C   0  0  0  0  0  0  0  0  0  0  0  0
  -17.7788    1.6956  142.7706 C   0  0  0  0  0  0  0  0  0  0  0  0
  -19.3417   -6.0913  141.6679 O   0  0  0  0  0  0  0  0  0  0  0  0
  -15.5358    1.4178  141.5531 C   0  0  0  0  0  0  0  0  0  0  0  0
  -14.7035    0.1600  141.3065 C   0  0  0  0  0  0  0  0  0  0  0  0
  -15.0032   -0.5461  139.9781 C   0  0  0  0  0  0  0  0  0  0  0  0
  -14.0975   -1.8013  139.8306 C   0  0  0  0  0  0  0  0  0  0  0  0
  -17.0526    1.3497  141.4516 C   0  0  0  0  0  0  0  0  0  0  0  0
  -20.3457   -4.4894  140.1421 C   0  0  0  0  0  0  0  0  0  0  0  0
  -13.8075   -2.3358  138.4949 C   0  0  0  0  0  0  0  0  0  0  0  0
  -14.3945   -1.6119  137.3686 N   0  0  0  0  0  0  0  0  0  0  0  0
  -14.9897    2.6022  141.9373 C   0  0  0  0  0  0  0  0  0  0  0  0
  -12.7811   -1.5362  139.2036 N   0  0  0  0  0  0  0  0  0  0  0  0
  -13.5398    2.8714  142.2746 C   0  0  0  0  0  0  0  0  0  0  0  0
  -12.8620    3.6457  141.1397 C   0  0  0  0  0  0  0  0  0  0  0  0
  -11.4397    4.0412  141.5187 C   0  0  0  0  0  0  0  0  0  0  0  0
  2  1  1  0
  3  2  1  0
  4  1  1  0
  5  2  1  0
  6  5  1  0
  7  6  1  0
  8  5  1  0
  9  7  1  0
 10  9  2  3
 11  8  1  0
 12 10  1  0
 13 12  1  0
 14  3  1  0
 14  8  1  0
 16 15  1  0
 17 16  1  0
 18 17  1  0
 19 13  1  0
 19 15  1  0
 20  8  1  0
 20 11  1  0
 21 18  1  0
 22 21  1  0
 23 15  2  3
 24 18  1  0
 24 21  1  0
 25 23  1  0
 26 25  1  0
 27 26  1  0
M  END
$$$$

     RDKit          3D

 26 32  0  0  0  0  0  0  0  0999 V2000
  -24.2718  -13.0396  138.8622 C   0  0  0  0  0  0  0  0  0  0  0  0
  -26.0046   -8.2027  139.0784 Al  0  0  0  0  0  3  0  0  0  0  0  0
  -23.6758  -10.8972  138.5087 N   0  0  0  0  0  0  0  0  0  0  0  0
  -23.5467  -13.1349  137.6401 O   0  0  0  0  0  0  0  0  0  0  0  0
  -28.5925   -8.6959  138.0122 O   0  0  0  0  0  0  0  0  0  0  0  0
  -25.9526  -13.2988  140.1029 C   0  0  0  0  0  0  0  0  0  0  0  0
  -27.1266  -12.9577  140.7168 O   0  0  0  0  0  0  0  0  0  0  0  0
  -27.1963  -12.0176  139.6700 C   0  0  0  0  0  0  0  0  0  0  0  0
  -28.0924  -12.3365  138.5276 C   0  0  0  0  0  0  0  0  0  0  0  0
  -23.7941  -11.8618  139.6091 C   0  0  0  0  0  0  0  0  0  0  0  0
  -23.1980  -11.7657  137.3655 C   0  0  0  0  0  0  0  0  0  0  0  0
  -26.9660  -12.4139  137.5127 C   0  0  0  0  0  0  0  0  0  0  0  0
  -27.7681   -7.5262  138.0178 C   0  0  0  0  0  0  0  0  0  0  0  0
  -27.9220  -11.1809  137.5206 C   0  0  0  0  0  0  0  0  0  0  0  0
  -24.7620  -12.3195  140.8075 C   0  0  0  0  0  0  0  0  0  0  0  0
  -29.2011  -11.3352  138.2837 C   0  0  0  0  0  0  0  0  0  0  0  0
  -25.9070  -12.5404  138.8038 C   0  0  0  0  0  0  0  0  0  0  0  0
  -24.7249   -9.8576  138.1455 C   0  0  0  0  0  0  0  0  0  0  0  0
  -29.7579   -7.9632  138.3960 C   0  0  0  0  0  0  0  0  0  0  0  0
  -30.2818   -5.4774  140.5976 C   0  0  0  0  0  0  0  0  0  0  0  0
  -31.3225   -6.6379  140.8061 C   0  0  0  0  0  0  0  0  0  0  0  0
  -29.0154   -6.7041  138.5029 C   0  0  0  0  0  0  0  0  0  0  0  0
  -32.7860   -6.3237  141.4384 C   0  0  0  0  0  0  0  0  0  0  0  0
  -28.9045   -5.9258  139.8568 C   0  0  0  0  0  0  0  0  0  0  0  0
  -30.7576   -7.9641  141.3837 C   0  0  0  0  0  0  0  0  0  0  0  0
  -32.8102   -5.8614  142.9060 C   0  0  0  0  0  0  0  0  0  0  0  0
  4  1  1  0
  7  6  1  0
  8  7  1  0
  9  8  1  0
 10  1  1  0
 10  3  1  0
 11  3  1  0
 11  4  1  0
 12  9  1  0
 13  2  1  0
 13  5  1  0
 14  9  1  0
 14 12  1  0
 15  6  1  0
 15 10  1  0
 16  9  1  0
 16 14  1  0
 17  1  1  0
 17  6  1  0
 17  8  1  0
 17 12  1  0
 18  2  1  0
 18  3  1  0
 19  5  1  0
 21 20  1  0
 22 13  1  0
 22 19  1  0
 23 21  1  0
 24 20  1  0
 24 22  1  0
 25 21  1  0
 26 23  1  0
M  END
$$$$

     RDKit          3D

 27 32  0  0  0  0  0  0  0  0999 V2000
  -21.8533   -9.5433  147.6607 N   0  0  0  0  0  0  0  0  0  0  0  0
  -21.2164  -10.8299  147.3466 C   0  0  0  0  0  0  0  0  0  0  0  0
  -23.2179   -9.6935  148.1661 C   0  0  0  0  0  0  0  0  0  0  0  0
  -20.5406  -10.8782  146.1071 O   0  0  0  0  0  0  0  0  0  0  0  0
  -20.3249  -11.2902  148.4897 C   0  0  0  0  0  0  0  0  0  0  0  0
  -20.6242  -10.8286  149.9395 C   0  0  0  0  0  0  0  0  0  0  0  0
  -24.0672   -8.6066  147.6551 N   0  0  0  0  0  0  0  0  0  0  0  0
  -21.4641  -12.2061  148.0334 C   0  0  0  0  0  0  0  0  0  0  0  0
  -21.7772  -11.7094  150.4375 C   0  0  0  0  0  0  0  0  0  0  0  0
  -19.4143  -10.8427  150.9139 C   0  0  0  0  0  0  0  0  0  0  0  0
  -23.2033   -9.6779  149.7087 C   0  0  0  0  0  0  0  0  0  0  0  0
  -18.3898   -9.5026  152.8966 C   0  0  0  0  0  0  0  0  0  0  0  0
  -18.2495   -8.5421  150.5213 C   0  0  0  0  0  0  0  0  0  0  0  0
  -17.4542  -10.7123  153.2110 C   0  0  0  0  0  0  0  0  0  0  0  0
  -15.9725  -10.4455  153.5790 C   0  0  0  0  0  0  0  0  0  0  0  0
  -14.9149  -10.4497  152.4245 C   0  0  0  0  0  0  0  0  0  0  0  0
  -19.0357   -9.4486  151.4823 C   0  0  0  0  0  0  0  0  0  0  0  0
  -16.8290   -8.9611  150.2518 C   0  0  0  0  0  0  0  0  0  0  0  0
  -16.5807   -9.5906  149.0820 C   0  0  0  0  0  0  0  0  0  0  0  0
  -22.3254  -12.4893  149.2645 C   0  0  0  0  0  0  0  0  0  0  0  0
  -21.9534  -10.2015  150.4766 C   0  0  0  0  0  0  0  0  0  0  0  0
  -15.7695   -9.2834  154.5690 C   0  0  0  0  0  0  0  0  0  0  0  0
  -15.0162  -11.5493  151.3556 C   0  0  0  0  0  0  0  0  0  0  0  0
  -13.9570  -11.1753  150.3210 C   0  0  0  0  0  0  0  0  0  0  0  0
  -14.5577   -9.1677  151.6421 C   0  0  0  0  0  0  0  0  0  0  0  0
  -15.7046   -8.2874  151.0591 C   0  0  0  0  0  0  0  0  0  0  0  0
  -13.5957   -9.6845  150.5579 C   0  0  0  0  0  0  0  0  0  0  0  0
  2  1  1  0
  3  1  1  0
  4  2  1  0
  5  2  1  0
  6  5  1  0
  7  3  1  0
  8  2  1  0
  8  5  1  0
  9  6  1  0
 10  6  1  0
 11  3  1  0
 14 12  1  0
 15 14  1  0
 16 15  1  0
 17 10  1  0
 17 12  1  0
 17 13  1  0
 18 13  1  0
 19 18  2  0
 20  8  1  0
 20  9  1  0
 21  6  1  0
 21  9  1  0
 21 11  1  0
 22 15  1  0
 23 16  1  0
 24 23  1  0
 25 16  1  0
 26 18  1  0
 26 25  1  0
 27 24  1  0
 27 25  1  0
M  END
$$$$

     RDKit          3D

 27 33  0  0  0  0  0  0  0  0999 V2000
  -26.5774   -1.6402  143.1659 F   0  0  0  0  0  0  0  0  0  0  0  0
  -28.9258   -1.5951  140.0638 C   0  0  0  0  0  0  0  0  0  0  0  0
  -28.0787   -1.7433  138.7967 C   0  0  0  0  0  0  0  0  0  0  0  0
  -26.8829   -0.8639  138.5198 C   0  0  0  0  0  0  0  0  0  0  0  0
  -24.8201   -0.9980  135.1002 C   0  0  0  0  0  0  0  0  0  0  0  0
  -24.3743   -0.0078  133.9705 C   0  0  0  0  0  0  0  0  0  0  0  0
  -23.1197   -0.2981  133.2447 C   0  0  0  0  0  0  0  0  0  0  0  0
  -28.2376   -0.2255  138.5632 C   0  0  0  0  0  0  0  0  0  0  0  0
  -24.8007    1.5124  134.0247 C   0  0  0  0  0  0  0  0  0  0  0  0
  -25.0709    2.0359  135.4990 C   0  0  0  0  0  0  0  0  0  0  0  0
  -24.4104   -0.6097  132.6195 N   0  0  0  0  0  0  0  0  0  0  0  0
  -27.0830    0.8384  132.8858 C   0  0  0  0  0  0  0  0  0  0  0  0
  -25.8848    1.8414  132.9568 C   0  0  0  0  0  0  0  0  0  0  0  0
  -26.4169    3.3000  133.0723 C   0  0  0  0  0  0  0  0  0  0  0  0
  -24.7860    1.4312  138.0343 C   0  0  0  0  0  0  0  0  0  0  0  0
  -23.9956    2.7025  138.5269 C   0  0  0  0  0  0  0  0  0  0  0  0
  -25.5997   -0.2789  136.2091 C   0  0  0  0  0  0  0  0  0  0  0  0
  -26.1309   -1.3003  137.2372 C   0  0  0  0  0  0  0  0  0  0  0  0
  -26.9886    0.2395  141.6388 C   0  0  0  0  0  0  0  0  0  0  0  0
  -28.4696    0.0900  141.3314 C   0  0  0  0  0  0  0  0  0  0  0  0
  -23.8952    0.5868  138.9951 C   0  0  0  0  0  0  0  0  0  0  0  0
  -24.6856    0.9725  136.5738 C   0  0  0  0  0  0  0  0  0  0  0  0
  -26.8600   -1.2869  141.8215 C   0  0  0  0  0  0  0  0  0  0  0  0
  -29.0241   -0.1097  139.8985 C   0  0  0  0  0  0  0  0  0  0  0  0
  -28.3541   -1.4316  141.4823 C   0  0  0  0  0  0  0  0  0  0  0  0
  -22.9543    3.3595  137.6046 C   0  0  0  0  0  0  0  0  0  0  0  0
  -23.3041    1.8389  139.5912 C   0  0  0  0  0  0  0  0  0  0  0  0
  3  2  1  0
  4  3  1  0
  6  5  1  0
  7  6  1  0
  8  3  1  0
  8  4  1  0
  9  6  1  0
 10  9  1  0
 11  6  1  0
 11  7  1  0
 13  9  1  0
 13 12  1  0
 14 13  1  0
 16 15  1  0
 17  5  1  0
 18  4  1  0
 18 17  1  0
 20 19  1  0
 21 15  1  0
 22 10  1  0
 22 15  1  0
 22 17  1  0
 23  1  1  0
 23 19  1  0
 24  2  1  0
 24  8  1  0
 24 20  1  0
 25  2  1  0
 25 20  1  0
 25 23  1  0
 26 16  1  0
 27 16  1  0
 27 21  1  0
M  END
$$$$

     RDKit          3D

 27 33  0  0  0  0  0  0  0  0999 V2000
  -28.7792   -2.2202  131.7524 N   0  0  0  0  0  0  0  0  0  0  0  0
  -30.1468   -4.6289  131.5994 C   0  0  0  0  0  0  0  0  0  0  0  0
  -29.6069   -3.9167  127.9888 N   0  0  0  0  0  0  0  0  0  0  0  0
  -31.5212   -6.7092  135.8199 N   0  0  0  0  0  0  0  0  0  0  0  0
  -30.6778   -3.0831  125.8903 C   0  0  0  0  0  0  0  0  0  0  0  0
  -32.3070   -1.3166  125.7362 C   0  0  0  0  0  0  0  0  0  0  0  0
  -33.8995   -6.7605  142.3239 C   0  0  0  0  0  0  0  0  0  0  0  0
  -29.4633   -4.8873  124.2763 C   0  0  0  0  0  0  0  0  0  0  0  0
  -32.9455   -8.1048  143.8106 C   0  0  0  0  0  0  0  0  0  0  0  0
  -32.8445    0.4226  124.9667 N   0  0  0  0  0  0  0  0  0  0  0  0
  -34.4874   -6.8827  141.7283 N   0  0  0  0  0  0  0  0  0  0  0  0
  -28.3629   -0.1998  131.3827 C   0  0  0  0  0  0  0  0  0  0  0  0
  -32.4394   -0.8156  127.3047 C   0  0  0  0  0  0  0  0  0  0  0  0
  -35.4551   -7.1172  144.4346 C   0  0  0  0  0  0  0  0  0  0  0  0
  -29.0157   -3.4305  124.7511 C   0  0  0  0  0  0  0  0  0  0  0  0
  -33.2230   -7.5411  138.7912 C   0  0  0  0  0  0  0  0  0  0  0  0
  -32.5874   -1.2086  123.4593 C   0  0  0  0  0  0  0  0  0  0  0  0
  -30.4669    1.2141  133.8573 C   0  0  0  0  0  0  0  0  0  0  0  0
  -32.9811    1.0783  135.2804 C   0  0  0  0  0  0  0  0  0  0  0  0
  -35.3860   -1.2670  123.9379 C   0  0  0  0  0  0  0  0  0  0  0  0
  -32.3729    0.7890  134.1357 C   0  0  0  0  0  0  0  0  0  0  0  0
  -29.8100   -3.1880  121.7738 C   0  0  0  0  0  0  0  0  0  0  0  0
  -32.0066   -9.4350  143.5903 C   0  0  0  0  0  0  0  0  0  0  0  0
  -32.1713   -9.6751  142.2044 C   0  0  0  0  0  0  0  0  0  0  0  0
  -33.4985   -9.9187  144.6853 C   0  0  0  0  0  0  0  0  0  0  0  0
  -33.7671  -10.7120  142.7399 C   0  0  0  0  0  0  0  0  0  0  0  0
  -35.5900   -9.5241  142.8473 C   0  0  0  0  0  0  0  0  0  0  0  0
  2  1  1  0
  3  2  1  0
  4  2  1  0
  5  3  1  0
  6  5  1  0
  8  5  1  0
  9  7  1  0
 10  6  1  0
 12  1  1  0
 13  6  1  0
 14  7  1  0
 14 11  1  0
 15  3  1  0
 15  5  1  0
 15  8  1  0
 16  4  1  0
 16  7  1  0
 16 11  1  0
 17 10  1  0
 18 12  1  0
 19 18  1  0
 20 17  1  0
 21 18  1  0
 21 19  1  0
 22 15  1  0
 22 17  1  0
 23  9  1  0
 24 23  1  0
 25  9  1  0
 25 24  1  0
 26 23  1  0
 26 24  1  0
 27 26  1  0
M  END
$$$$

     RDKit          3D

 25 32  0  0  0  0  0  0  0  0999 V2000
  -26.4007  -25.6441  143.2701 O   0  0  0  0  0  0  0  0  0  0  0  0
  -26.2870  -25.4588  141.8929 C   0  0  0  0  0  0  0  0  0  0  0  0
  -26.2971  -26.7548  141.0541 C   0  0  0  0  0  0  0  0  0  0  0  0
  -25.1485  -26.6170  140.0638 C   0  0  0  0  0  0  0  0  0  0  0  0
  -24.0264  -25.5188  140.1396 C   0  0  0  0  0  0  0  0  0  0  0  0
  -27.5509  -25.8583  141.2360 C   0  0  0  0  0  0  0  0  0  0  0  0
  -27.7050  -25.6760  139.8162 N   0  0  0  0  0  0  0  0  0  0  0  0
  -23.9853  -24.4074  139.0878 C   0  0  0  0  0  0  0  0  0  0  0  0
  -26.5575  -26.5229  139.4983 C   0  0  0  0  0  0  0  0  0  0  0  0
  -23.6750  -24.8986  137.6281 C   0  0  0  0  0  0  0  0  0  0  0  0
  -28.9787  -24.1153  138.4173 C   0  0  0  0  0  0  0  0  0  0  0  0
  -28.5863  -23.6763  137.0780 N   0  0  0  0  0  0  0  0  0  0  0  0
  -27.7461  -24.2937  139.3288 C   0  0  0  0  0  0  0  0  0  0  0  0
  -22.5551  -24.0467  136.8777 C   0  0  0  0  0  0  0  0  0  0  0  0
  -23.0819  -22.7459  136.1916 C   0  0  0  0  0  0  0  0  0  0  0  0
  -24.2397  -23.2375  135.3172 C   0  0  0  0  0  0  0  0  0  0  0  0
  -25.7429  -22.9141  135.0876 C   0  0  0  0  0  0  0  0  0  0  0  0
  -21.2547  -23.8115  137.6707 C   0  0  0  0  0  0  0  0  0  0  0  0
  -25.3062  -23.5131  136.3797 C   0  0  0  0  0  0  0  0  0  0  0  0
  -24.9664  -24.9565  136.7611 C   0  0  0  0  0  0  0  0  0  0  0  0
  -25.6115  -22.3863  131.9249 C   0  0  0  0  0  0  0  0  0  0  0  0
  -23.8957  -23.9745  132.4613 C   0  0  0  0  0  0  0  0  0  0  0  0
  -24.4550  -22.6467  132.7644 C   0  0  0  0  0  0  0  0  0  0  0  0
  -25.3588  -23.7778  132.3753 N   0  0  0  0  0  0  0  0  0  0  0  0
  -24.6596  -22.2307  134.2596 C   0  0  0  0  0  0  0  0  0  0  0  0
  2  1  1  0
  3  2  1  0
  4  3  1  0
  5  4  1  0
  6  2  1  0
  6  3  1  0
  7  6  1  0
  8  5  1  0
  9  3  1  0
  9  4  1  0
  9  7  1  0
 10  8  1  0
 12 11  1  0
 13  7  1  0
 13 11  1  0
 14 10  1  0
 15 14  1  0
 16 15  1  0
 17 16  1  0
 18 14  1  0
 19 16  1  0
 19 17  1  0
 20 10  1  0
 20 19  1  0
 23 21  1  0
 23 22  1  0
 24 21  1  0
 24 22  1  0
 24 23  1  0
 25 16  1  0
 25 17  1  0
 25 23  1  0
M  END
$$$$

     RDKit          3D

 25 30  0  0  0  0  0  0  0  0999 V2000
  -18.4550  -11.7073  145.8044 O   0  0  0  0  0  0  0  0  0  0  0  0
  -19.6550  -11.2673  146.3908 C   0  0  0  0  0  0  0  0  0  0  0  0
  -20.7557  -11.1678  145.5102 O   0  0  0  0  0  0  0  0  0  0  0  0
  -19.6902  -10.3227  147.5923 C   0  0  0  0  0  0  0  0  0  0  0  0
  -20.8954  -10.7933  148.4443 C   0  0  0  0  0  0  0  0  0  0  0  0
  -18.3658  -10.3004  148.4089 C   0  0  0  0  0  0  0  0  0  0  0  0
  -20.8638  -12.2382  148.9891 C   0  0  0  0  0  0  0  0  0  0  0  0
  -21.8398   -9.7146  149.0758 C   0  0  0  0  0  0  0  0  0  0  0  0
  -16.7583   -8.3113  148.4879 C   0  0  0  0  0  0  0  0  0  0  0  0
  -21.5750  -11.9371  147.6851 C   0  0  0  0  0  0  0  0  0  0  0  0
  -16.1839   -7.2081  149.3531 C   0  0  0  0  0  0  0  0  0  0  0  0
  -16.8393   -7.9160  147.0235 C   0  0  0  0  0  0  0  0  0  0  0  0
  -18.0677   -8.9252  149.0535 C   0  0  0  0  0  0  0  0  0  0  0  0
  -16.8963   -6.8254  148.0750 C   0  0  0  0  0  0  0  0  0  0  0  0
  -22.9852   -9.2954  148.1024 C   0  0  0  0  0  0  0  0  0  0  0  0
  -23.3185   -7.7819  148.1084 C   0  0  0  0  0  0  0  0  0  0  0  0
  -21.2880   -6.6977  147.0146 C   0  0  0  0  0  0  0  0  0  0  0  0
  -21.3073   -5.9733  144.4807 C   0  0  0  0  0  0  0  0  0  0  0  0
  -20.9263   -5.2171  146.9266 C   0  0  0  0  0  0  0  0  0  0  0  0
  -22.3702  -10.1366  150.4782 C   0  0  0  0  0  0  0  0  0  0  0  0
  -23.0117   -9.0145  151.3137 C   0  0  0  0  0  0  0  0  0  0  0  0
  -22.0313   -8.0499  151.8185 N   0  0  0  0  0  0  0  0  0  0  0  0
  -20.5359   -6.1605  145.7954 C   0  0  0  0  0  0  0  0  0  0  0  0
  -20.7605  -12.2343  146.4364 C   0  0  0  0  0  0  0  0  0  0  0  0
  -22.7902   -7.0189  146.8827 C   0  0  0  0  0  0  0  0  0  0  0  0
  2  1  1  0
  3  2  1  0
  4  2  1  0
  5  4  1  0
  6  4  1  0
  7  5  1  0
  8  5  1  0
 10  5  1  0
 10  7  1  0
 11  9  1  0
 12  9  1  0
 13  6  1  0
 13  9  1  0
 14  9  1  0
 14 11  1  0
 14 12  1  0
 15  8  1  0
 16 15  1  0
 19 17  1  0
 20  8  1  0
 21 20  1  0
 22 21  1  0
 23 17  1  0
 23 18  1  0
 23 19  1  0
 24  2  1  0
 24  3  1  0
 24 10  1  0
 25 16  1  0
 25 17  1  0
M  END
$$$$

     RDKit          3D

 27 30  0  0  0  0  0  0  0  0999 V2000
  -27.8831   -9.2069  145.3812 F   0  0  0  0  0  0  0  0  0  0  0  0
  -27.3934   -8.6883  144.1880 C   0  0  0  0  0  0  0  0  0  0  0  0
  -28.3517   -8.5584  142.9883 C   0  0  0  0  0  0  0  0  0  0  0  0
  -27.7797   -7.6301  141.9205 C   0  0  0  0  0  0  0  0  0  0  0  0
  -26.0087   -9.1902  143.7831 C   0  0  0  0  0  0  0  0  0  0  0  0
  -25.3971  -10.2138  144.7587 C   0  0  0  0  0  0  0  0  0  0  0  0
  -26.5439   -7.9254  141.0649 C   0  0  0  0  0  0  0  0  0  0  0  0
  -25.2630   -7.8652  143.4062 C   0  0  0  0  0  0  0  0  0  0  0  0
  -24.2375   -6.5837  141.3470 C   0  0  0  0  0  0  0  0  0  0  0  0
  -25.9407  -11.5722  145.1007 C   0  0  0  0  0  0  0  0  0  0  0  0
  -27.2272  -11.4130  140.8688 As  0  0  0  0  0  3  0  0  0  0  0  0
  -25.1886   -7.6825  141.8604 C   0  0  0  0  0  0  0  0  0  0  0  0
  -27.2034  -12.3182  144.5655 C   0  0  0  0  0  0  0  0  0  0  0  0
  -28.7176  -11.9009  144.3076 C   0  0  0  0  0  0  0  0  0  0  0  0
  -25.1061  -11.4904  143.7810 C   0  0  0  0  0  0  0  0  0  0  0  0
  -29.2920  -13.2589  143.5126 C   0  0  0  0  0  0  0  0  0  0  0  0
  -30.4604  -13.6869  142.3052 C   0  0  0  0  0  0  0  0  0  0  0  0
  -26.8743  -12.5777  145.9300 C   0  0  0  0  0  0  0  0  0  0  0  0
  -29.3960  -14.4760  144.5048 C   0  0  0  0  0  0  0  0  0  0  0  0
  -30.7319  -14.5014  145.2076 C   0  0  0  0  0  0  0  0  0  0  0  0
  -30.8761  -13.3717  146.2369 C   0  0  0  0  0  0  0  0  0  0  0  0
  -30.1354  -13.6216  140.7562 C   0  0  0  0  0  0  0  0  0  0  0  0
  -29.7661  -12.2260  140.3757 C   0  0  0  0  0  0  0  0  0  0  0  0
  -31.7762  -12.0977  146.0482 C   0  0  0  0  0  0  0  0  0  0  0  0
  -30.0255  -11.1844  141.2372 C   0  0  0  0  0  0  0  0  0  0  0  0
  -32.3214  -11.7223  147.3595 N   0  0  0  0  0  0  0  0  0  0  0  0
  -31.1749  -10.9332  146.8236 C   0  0  0  0  0  0  0  0  0  0  0  0
  2  1  1  0
  3  2  1  0
  4  3  1  0
  5  2  1  0
  6  5  1  0
  7  4  1  0
  8  5  1  0
 10  6  1  0
 11  4  2  0
 12  7  1  0
 12  8  1  0
 12  9  1  0
 13 10  1  0
 14 13  1  0
 15  6  1  0
 15 10  1  0
 16 14  1  0
 17 16  1  0
 18 10  1  0
 18 13  1  0
 19 16  1  0
 20 19  1  0
 21 20  1  0
 22 17  1  0
 23 22  1  0
 24 21  1  0
 25 23  2  0
 26 24  1  0
 27 24  1  0
 27 26  1  0
M  END
$$$$

     RDKit          3D

 10 11  0  0  0  0  0  0  0  0999 V2000
  -32.4642   -4.6128  136.3702 C   0  0  0  0  0  0  0  0  0  0  0  0
  -33.7119   -3.5839  137.7964 C   0  0  0  0  0  0  0  0  0  0  0  0
  -29.5350   -2.1460  135.4728 C   0  0  0  0  0  0  0  0  0  0  0  0
  -32.5882   -4.6090  137.8945 C   0  0  0  0  0  0  0  0  0  0  0  0
  -33.6011   -3.5931  136.2766 C   0  0  0  0  0  0  0  0  0  0  0  0
  -31.0867   -4.1684  135.8008 C   0  0  0  0  0  0  0  0  0  0  0  0
  -31.1524   -4.0530  134.2660 C   0  0  0  0  0  0  0  0  0  0  0  0
  -28.8413   -3.1145  134.6185 N   0  0  0  0  0  0  0  0  0  0  0  0
  -29.7670   -3.7403  133.6569 C   0  0  0  0  0  0  0  0  0  0  0  0
  -30.4949   -2.8733  136.4287 C   0  0  0  0  0  0  0  0  0  0  0  0
  4  1  1  0
  4  2  1  0
  5  1  1  0
  5  2  1  0
  6  1  1  0
  7  6  1  0
  8  3  1  0
  9  7  1  0
  9  8  1  0
 10  3  1  0
 10  6  1  0
M  END
$$$$

     RDKit          3D

 27 34  0  0  0  0  0  0  0  0999 V2000
  -24.5569   -4.5669  140.4848 C   0  0  0  0  0  0  0  0  0  0  0  0
  -24.2405   -3.6483  141.7094 C   0  0  0  0  0  0  0  0  0  0  0  0
  -25.3839   -3.3436  142.6314 C   0  0  0  0  0  0  0  0  0  0  0  0
  -26.1635   -4.3825  143.4045 C   0  0  0  0  0  0  0  0  0  0  0  0
  -27.5350   -3.8835  143.9250 C   0  0  0  0  0  0  0  0  0  0  0  0
  -28.6478   -2.9612  145.9948 C   0  0  0  0  0  0  0  0  0  0  0  0
  -24.5599   -3.8329  139.1371 C   0  0  0  0  0  0  0  0  0  0  0  0
  -27.4672   -3.5972  145.4288 C   0  0  0  0  0  0  0  0  0  0  0  0
  -25.9476   -3.2987  138.8428 C   0  0  0  0  0  0  0  0  0  0  0  0
  -27.4299   -2.1570  145.7412 N   0  0  0  0  0  0  0  0  0  0  0  0
  -26.4701   -3.5241  137.4131 C   0  0  0  0  0  0  0  0  0  0  0  0
  -26.9254   -3.6768  139.8781 N   0  0  0  0  0  0  0  0  0  0  0  0
  -23.7581   -2.3226  141.3204 N   0  0  0  0  0  0  0  0  0  0  0  0
  -25.7989   -4.5916  139.5583 C   0  0  0  0  0  0  0  0  0  0  0  0
  -23.8118   -5.7559  140.4302 O   0  0  0  0  0  0  0  0  0  0  0  0
  -27.0678   -2.2138  136.8813 C   0  0  0  0  0  0  0  0  0  0  0  0
  -25.4497   -2.0272  142.7933 C   0  0  0  0  0  0  0  0  0  0  0  0
  -24.4573   -1.4286  141.9267 C   0  0  0  0  0  0  0  0  0  0  0  0
  -28.1501   -2.4071  135.7964 C   0  0  0  0  0  0  0  0  0  0  0  0
  -28.6406   -1.2754  134.9012 C   0  0  0  0  0  0  0  0  0  0  0  0
  -26.1867   -0.9358  137.0350 C   0  0  0  0  0  0  0  0  0  0  0  0
  -26.2268    0.0632  135.8758 C   0  0  0  0  0  0  0  0  0  0  0  0
  -27.5514    0.8535  135.7961 C   0  0  0  0  0  0  0  0  0  0  0  0
  -27.5284    1.7734  134.5614 C   0  0  0  0  0  0  0  0  0  0  0  0
  -28.8213   -0.0485  135.7886 C   0  0  0  0  0  0  0  0  0  0  0  0
  -29.1408   -0.6274  137.1743 C   0  0  0  0  0  0  0  0  0  0  0  0
  -28.5450   -2.0345  137.2200 C   0  0  0  0  0  0  0  0  0  0  0  0
  2  1  1  0
  3  2  1  0
  4  3  1  0
  5  4  1  0
  7  1  1  0
  8  5  1  0
  8  6  1  0
  9  7  1  0
 10  6  1  0
 10  8  1  0
 11  9  1  0
 12  9  1  0
 13  2  1  0
 14  1  1  0
 14  7  1  0
 14  9  1  0
 14 12  1  0
 15  1  1  0
 16 11  1  0
 17  3  2  0
 18 13  2  0
 18 17  1  0
 19 16  1  0
 20 19  1  0
 21 16  1  0
 22 21  1  0
 23 22  1  0
 24 23  1  0
 25 20  1  0
 25 23  1  0
 26 25  1  0
 27 16  1  0
 27 19  1  0
 27 26  1  0
M  END
$$$$

     RDKit          3D

 27 33  0  0  0  0  0  0  0  0999 V2000
  -33.2052   -6.9724  139.9235 C   0  0  0  0  0  0  0  0  0  0  0  0
  -30.9570   -5.5162  140.3904 C   0  0  0  0  0  0  0  0  0  0  0  0
  -30.8721   -7.4972  138.6929 C   0  0  0  0  0  0  0  0  0  0  0  0
  -31.7181   -4.2471  140.5617 C   0  0  0  0  0  0  0  0  0  0  0  0
  -32.4787   -3.9042  141.8433 C   0  0  0  0  0  0  0  0  0  0  0  0
  -32.0636   -4.3827  143.2510 C   0  0  0  0  0  0  0  0  0  0  0  0
  -31.6417   -6.9466  139.9067 C   0  0  0  0  0  0  0  0  0  0  0  0
  -30.9022   -5.3640  143.7257 C   0  0  0  0  0  0  0  0  0  0  0  0
  -33.6084   -7.8298  141.2252 C   0  0  0  0  0  0  0  0  0  0  0  0
  -30.9586   -6.9434  143.8050 C   0  0  0  0  0  0  0  0  0  0  0  0
  -30.3750   -7.7281  142.8500 C   0  0  0  0  0  0  0  0  0  0  0  0
  -35.1458   -7.8446  141.5681 C   0  0  0  0  0  0  0  0  0  0  0  0
  -29.5713   -9.0442  142.9707 C   0  0  0  0  0  0  0  0  0  0  0  0
  -29.9238  -10.2688  142.0705 C   0  0  0  0  0  0  0  0  0  0  0  0
  -32.1901   -3.6616  139.1654 C   0  0  0  0  0  0  0  0  0  0  0  0
  -30.8671  -10.3508  138.4489 C   0  0  0  0  0  0  0  0  0  0  0  0
  -34.0324   -4.0673  141.5981 C   0  0  0  0  0  0  0  0  0  0  0  0
  -36.8191   -9.0245  143.0583 N   0  0  0  0  0  0  0  0  0  0  0  0
  -34.9109   -7.8207  144.0285 C   0  0  0  0  0  0  0  0  0  0  0  0
  -29.6832  -10.3848  139.4409 C   0  0  0  0  0  0  0  0  0  0  0  0
  -30.3569   -8.9220  138.0838 C   0  0  0  0  0  0  0  0  0  0  0  0
  -29.0142   -9.3342  138.6341 N   0  0  0  0  0  0  0  0  0  0  0  0
  -35.4172   -8.6263  142.8631 C   0  0  0  0  0  0  0  0  0  0  0  0
  -33.3213   -4.5371  144.0335 C   0  0  0  0  0  0  0  0  0  0  0  0
  -33.2404   -4.9529  142.5241 C   0  0  0  0  0  0  0  0  0  0  0  0
  -30.3821   -9.8248  140.7376 C   0  0  0  0  0  0  0  0  0  0  0  0
  -29.1087  -10.6560  140.8405 C   0  0  0  0  0  0  0  0  0  0  0  0
  4  2  1  0
  5  4  1  0
  6  5  1  0
  7  1  1  0
  7  2  1  0
  7  3  1  0
  8  6  1  0
  9  1  1  0
 10  8  1  0
 11 10  2  3
 12  9  1  0
 13 11  1  0
 14 13  1  0
 15  4  1  0
 17  5  1  0
 20 16  1  0
 21  3  1  0
 21 16  1  0
 22 20  1  0
 22 21  1  0
 23 12  1  0
 23 18  1  0
 23 19  1  0
 24  6  1  0
 25  5  1  0
 25  6  1  0
 25 17  1  0
 25 24  1  0
 26 14  1  0
 26 20  1  0
 27 14  1  0
 27 20  1  0
 27 26  1  0
M  END
$$$$

     RDKit          3D

 25 29  0  0  0  0  0  0  0  0999 V2000
  -21.8640  -12.9840  140.5731 C   0  0  0  0  0  0  0  0  0  0  0  0
  -22.5422  -11.7083  140.9738 C   0  0  0  0  0  0  0  0  0  0  0  0
  -21.7904  -10.5368  140.2574 C   0  0  0  0  0  0  0  0  0  0  0  0
  -22.2793  -13.6755  139.5124 C   0  0  0  0  0  0  0  0  0  0  0  0
  -23.4819  -13.2902  138.6914 C   0  0  0  0  0  0  0  0  0  0  0  0
  -24.0585  -11.8140  140.7123 C   0  0  0  0  0  0  0  0  0  0  0  0
  -22.3190  -10.1605  138.8293 C   0  0  0  0  0  0  0  0  0  0  0  0
  -21.4641   -9.3026  141.1699 C   0  0  0  0  0  0  0  0  0  0  0  0
  -24.6692  -12.8387  141.7785 C   0  0  0  0  0  0  0  0  0  0  0  0
  -20.6463   -9.7194  142.4264 C   0  0  0  0  0  0  0  0  0  0  0  0
  -24.2317  -11.9862  139.1550 C   0  0  0  0  0  0  0  0  0  0  0  0
  -23.7647  -10.6584  138.4619 C   0  0  0  0  0  0  0  0  0  0  0  0
  -25.9317  -12.4330  142.5483 C   0  0  0  0  0  0  0  0  0  0  0  0
  -19.6807   -8.6343  143.0302 C   0  0  0  0  0  0  0  0  0  0  0  0
  -25.8018  -12.8343  144.0660 C   0  0  0  0  0  0  0  0  0  0  0  0
  -27.8425  -15.5571  140.8001 C   0  0  0  0  0  0  0  0  0  0  0  0
  -27.3848  -14.4460  139.8083 C   0  0  0  0  0  0  0  0  0  0  0  0
  -18.1436   -8.9640  142.8447 C   0  0  0  0  0  0  0  0  0  0  0  0
  -26.7237  -16.4167  141.0969 O   0  0  0  0  0  0  0  0  0  0  0  0
  -17.7335  -10.3633  143.3700 C   0  0  0  0  0  0  0  0  0  0  0  0
  -17.2010   -8.3366  143.8865 C   0  0  0  0  0  0  0  0  0  0  0  0
  -26.4635  -13.4363  140.2555 O   0  0  0  0  0  0  0  0  0  0  0  0
  -24.5897  -14.3450  141.6319 C   0  0  0  0  0  0  0  0  0  0  0  0
  -17.0247   -9.6836  144.5577 C   0  0  0  0  0  0  0  0  0  0  0  0
  -25.9588  -13.6476  141.5915 C   0  0  0  0  0  0  0  0  0  0  0  0
  2  1  1  0
  3  2  1  0
  4  1  2  0
  5  4  1  0
  6  2  1  0
  7  3  1  0
  8  3  1  0
  9  6  1  0
 10  8  1  0
 11  5  1  0
 11  6  1  0
 12  7  1  0
 12 11  1  0
 13  9  1  0
 14 10  1  0
 15 13  1  0
 17 16  1  0
 18 14  1  0
 19 16  1  0
 20 18  1  0
 21 18  1  0
 22 17  1  0
 23  9  1  0
 24 20  1  0
 24 21  1  0
 25  9  1  0
 25 13  1  0
 25 22  1  0
 25 23  1  0
M  END
$$$$

     RDKit          3D

 26 26  0  0  0  0  0  0  0  0999 V2000
  -26.7427  -22.3633  134.5602 O   0  0  0  0  0  0  0  0  0  0  0  0
  -28.5154  -23.3606  133.7899 O   0  0  0  0  0  0  0  0  0  0  0  0
  -25.2592  -21.4627  131.4507 S   0  0  0  0  0  4  0  0  0  0  0  0
  -24.4030  -23.0946  127.4174 C   0  0  0  0  0  0  0  0  0  0  0  0
  -23.0707  -23.6452  126.8697 C   0  0  0  0  0  0  0  0  0  0  0  0
  -22.9064  -25.1723  126.9253 C   0  0  0  0  0  0  0  0  0  0  0  0
  -22.5248  -21.9537  134.9779 C   0  0  0  0  0  0  0  0  0  0  0  0
  -22.0763  -25.5335  128.0090 O   0  0  0  0  0  0  0  0  0  0  0  0
  -25.1768  -24.7557  129.2286 C   0  0  0  0  0  0  0  0  0  0  0  0
  -22.0745  -19.5464  135.5413 C   0  0  0  0  0  0  0  0  0  0  0  0
  -23.2639  -16.2845  133.2013 C   0  0  0  0  0  0  0  0  0  0  0  0
  -26.2464  -22.5224  128.9500 C   0  0  0  0  0  0  0  0  0  0  0  0
  -24.0531  -22.6581  130.0578 C   0  0  0  0  0  0  0  0  0  0  0  0
  -22.6755  -19.1986  136.6951 C   0  0  0  0  0  0  0  0  0  0  0  0
  -22.6435  -20.5057  134.5258 C   0  0  0  0  0  0  0  0  0  0  0  0
  -27.3428  -22.7805  133.4229 N   0  0  0  0  0  0  0  0  0  0  0  0
  -24.8969  -23.2759  128.8968 C   0  0  0  0  0  0  0  0  0  0  0  0
  -22.5366  -22.8075  130.1301 C   0  0  0  0  0  0  0  0  0  0  0  0
  -23.9953  -19.7500  137.1896 C   0  0  0  0  0  0  0  0  0  0  0  0
  -23.4058  -20.0112  139.6564 C   0  0  0  0  0  0  0  0  0  0  0  0
  -23.7941  -20.7253  138.3590 C   0  0  0  0  0  0  0  0  0  0  0  0
  -22.0396  -26.9368  128.1286 C   0  0  0  0  0  0  0  0  0  0  0  0
  -23.1551  -21.4757  129.7047 C   0  0  0  0  0  0  0  0  0  0  0  0
  -23.0759  -20.4166  130.7637 C   0  0  0  0  0  0  0  0  0  0  0  0
  -28.4488  -24.6930  133.3458 C   0  0  0  0  0  0  0  0  0  0  0  0
  -22.1834  -19.4315  130.6656 C   0  0  0  0  0  0  0  0  0  0  0  0
  3  1  1  0
  4  3  1  0
  5  4  1  0
  6  5  1  0
  7  3  1  0
  8  6  1  0
 11  3  1  0
 14 10  2  3
 15  7  1  0
 15 10  1  0
 16  1  1  0
 16  2  1  0
 17  4  1  0
 17  9  1  0
 17 12  1  0
 17 13  1  0
 18 13  1  0
 19 14  1  0
 21 19  1  0
 21 20  1  0
 22  8  1  0
 23 13  1  0
 23 18  1  0
 24 23  1  0
 25  2  1  0
 26 24  2  0
M  END
$$$$

     RDKit          3D

 26 32  0  0  0  0  0  0  0  0999 V2000
  -29.4527   -9.2227  134.3227 N   0  0  0  0  0  0  0  0  0  0  0  0
  -29.5227   -7.7595  134.1088 C   0  0  0  0  0  0  0  0  0  0  0  0
  -30.6991   -9.9943  134.0991 C   0  0  0  0  0  0  0  0  0  0  0  0
  -30.1707   -9.7564  135.4949 C   0  0  0  0  0  0  0  0  0  0  0  0
  -30.6618   -6.9509  134.6889 C   0  0  0  0  0  0  0  0  0  0  0  0
  -30.9444  -11.0026  135.2040 C   0  0  0  0  0  0  0  0  0  0  0  0
  -31.5683   -7.7255  135.6415 C   0  0  0  0  0  0  0  0  0  0  0  0
  -30.9577   -8.8459  136.2692 O   0  0  0  0  0  0  0  0  0  0  0  0
  -33.8308   -8.4677  136.1212 C   0  0  0  0  0  0  0  0  0  0  0  0
  -32.9051   -8.0131  135.0800 N   0  0  0  0  0  0  0  0  0  0  0  0
  -30.6406   -7.2599  133.1886 C   0  0  0  0  0  0  0  0  0  0  0  0
  -35.2525   -7.9337  135.9302 C   0  0  0  0  0  0  0  0  0  0  0  0
  -36.3357   -9.0101  136.1963 C   0  0  0  0  0  0  0  0  0  0  0  0
  -34.3490   -7.3593  137.0184 C   0  0  0  0  0  0  0  0  0  0  0  0
  -36.4111   -9.7528  137.5071 C   0  0  0  0  0  0  0  0  0  0  0  0
  -38.7947   -9.7767  138.5702 N   0  0  0  0  0  0  0  0  0  0  0  0
  -37.8894   -9.4453  137.7239 C   0  0  0  0  0  0  0  0  0  0  0  0
  -37.7752   -8.5699  136.4770 C   0  0  0  0  0  0  0  0  0  0  0  0
  -38.1208   -7.1010  136.7508 C   0  0  0  0  0  0  0  0  0  0  0  0
  -38.4015   -6.5768  135.3472 C   0  0  0  0  0  0  0  0  0  0  0  0
  -37.1460   -6.3221  137.6080 C   0  0  0  0  0  0  0  0  0  0  0  0
  -39.0057   -7.6796  134.5924 N   0  0  0  0  0  0  0  0  0  0  0  0
  -36.8267   -5.0339  137.3941 C   0  0  0  0  0  0  0  0  0  0  0  0
  -38.7533   -8.9199  135.3479 C   0  0  0  0  0  0  0  0  0  0  0  0
  -35.9247   -4.2916  138.3354 C   0  0  0  0  0  0  0  0  0  0  0  0
  -36.6519   -3.9339  139.5501 N   0  0  0  0  0  0  0  0  0  0  0  0
  2  1  1  0
  3  1  1  0
  4  1  1  0
  4  3  1  0
  5  2  1  0
  6  3  1  0
  6  4  1  0
  7  5  1  0
  8  4  1  0
  8  7  1  0
 10  7  1  0
 10  9  1  0
 11  2  1  0
 11  5  1  0
 12  9  1  0
 13 12  1  0
 14  9  1  0
 14 12  1  0
 15 13  1  0
 17 15  1  0
 17 16  2  0
 18 13  1  0
 18 17  1  0
 19 18  1  0
 20 19  1  0
 21 19  1  0
 22 20  1  0
 23 21  2  3
 24 18  1  0
 24 22  1  0
 25 23  1  0
 26 25  1  0
M  END
$$$$

     RDKit          3D

 27 37  0  0  0  0  0  0  0  0999 V2000
  -19.4302   -1.1864  144.3392 O   0  0  0  0  0  0  0  0  0  0  0  0
  -20.8669   -2.5586  142.9255 C   0  0  0  0  0  0  0  0  0  0  0  0
  -22.1930   -5.2806  143.8275 C   0  0  0  0  0  0  0  0  0  0  0  0
  -23.1130   -4.7747  142.7593 C   0  0  0  0  0  0  0  0  0  0  0  0
  -20.1406   -3.9016  143.1176 C   0  0  0  0  0  0  0  0  0  0  0  0
  -24.3638   -5.5687  142.4794 C   0  0  0  0  0  0  0  0  0  0  0  0
  -20.9525   -5.1951  142.8155 C   0  0  0  0  0  0  0  0  0  0  0  0
  -20.9069   -5.3309  141.1567 C   0  0  0  0  0  0  0  0  0  0  0  0
  -23.8851   -6.6440  141.4215 C   0  0  0  0  0  0  0  0  0  0  0  0
  -22.1222   -5.2761  141.8440 C   0  0  0  0  0  0  0  0  0  0  0  0
  -24.8317   -4.7571  139.4058 Cl  0  0  0  0  0  0  0  0  0  0  0  0
  -21.9939    0.1729  142.8405 C   0  0  0  0  0  0  0  0  0  0  0  0
  -19.9319    0.1312  144.3518 C   0  0  0  0  0  0  0  0  0  0  0  0
  -25.4969   -4.6390  144.5870 C   0  0  0  0  0  0  0  0  0  0  0  0
  -24.6978   -7.3994  140.3657 C   0  0  0  0  0  0  0  0  0  0  0  0
  -24.7821   -7.1930  144.5204 C   0  0  0  0  0  0  0  0  0  0  0  0
  -24.0145   -6.0639  145.2074 C   0  0  0  0  0  0  0  0  0  0  0  0
  -20.4672    0.0266  142.9389 C   0  0  0  0  0  0  0  0  0  0  0  0
  -24.9819   -5.8786  143.8963 C   0  0  0  0  0  0  0  0  0  0  0  0
  -19.8825   -1.3791  143.0182 C   0  0  0  0  0  0  0  0  0  0  0  0
  -22.5135   -6.3106  139.3326 N   0  0  0  0  0  0  0  0  0  0  0  0
  -24.1809   -8.7907  139.9881 C   0  0  0  0  0  0  0  0  0  0  0  0
  -21.5591   -6.5950  140.4312 C   0  0  0  0  0  0  0  0  0  0  0  0
  -23.8879   -6.1842  139.9206 C   0  0  0  0  0  0  0  0  0  0  0  0
  -22.4348   -6.7550  141.5791 C   0  0  0  0  0  0  0  0  0  0  0  0
  -24.3765   -4.6743  145.5976 C   0  0  0  0  0  0  0  0  0  0  0  0
  -22.8668   -5.0271  145.1818 C   0  0  0  0  0  0  0  0  0  0  0  0
  4  3  1  0
  5  2  1  0
  6  4  1  0
  7  3  1  0
  7  5  1  0
  8  7  1  0
  9  6  1  0
 10  4  1  0
 10  7  1  0
 10  8  1  0
 13  1  1  0
 15  9  1  0
 17 16  1  0
 18 12  1  0
 18 13  1  0
 19  6  1  0
 19 14  1  0
 19 16  1  0
 19 17  1  0
 20  1  1  0
 20  2  1  0
 20 18  1  0
 22 15  1  0
 23  8  1  0
 23 21  1  0
 24  9  1  0
 24 11  1  0
 24 15  1  0
 24 21  1  0
 25  9  1  0
 25 10  1  0
 25 23  1  0
 26 14  1  0
 26 17  1  0
 27  3  1  0
 27 17  1  0
 27 26  1  0
M  END
$$$$

     RDKit          3D

 26 30  0  0  0  0  0  0  0  0999 V2000
  -18.8316   -2.4048  145.0460 C   0  0  0  0  0  0  0  0  0  0  0  0
  -19.7378   -1.3801  143.9877 C   0  0  0  0  0  0  0  0  0  0  0  0
  -19.6978   -3.5652  145.5318 C   0  0  0  0  0  0  0  0  0  0  0  0
  -19.9652   -1.9693  142.5293 C   0  0  0  0  0  0  0  0  0  0  0  0
  -18.6630   -3.0640  146.5861 C   0  0  0  0  0  0  0  0  0  0  0  0
  -21.0972   -2.0085  143.5442 C   0  0  0  0  0  0  0  0  0  0  0  0
  -19.3046   -0.2535  141.3965 C   0  0  0  0  0  0  0  0  0  0  0  0
  -16.9110    0.0929  140.1516 C   0  0  0  0  0  0  0  0  0  0  0  0
  -20.4783   -1.2199  141.2810 C   0  0  0  0  0  0  0  0  0  0  0  0
  -18.8758   -0.8831  142.7991 C   0  0  0  0  0  0  0  0  0  0  0  0
  -16.6791    1.6951  140.4571 C   0  0  0  0  0  0  0  0  0  0  0  0
  -21.4138   -2.9372  146.4191 Si  0  0  0  0  0  4  0  0  0  0  0  0
  -18.6470   -5.1530  148.5006 C   0  0  0  0  0  0  0  0  0  0  0  0
  -20.7324   -6.2609  147.3063 C   0  0  0  0  0  0  0  0  0  0  0  0
  -25.7419   -3.3217  146.1683 C   0  0  0  0  0  0  0  0  0  0  0  0
  -26.9790   -3.8922  146.8942 C   0  0  0  0  0  0  0  0  0  0  0  0
  -24.5160   -3.2556  146.8835 C   0  0  0  0  0  0  0  0  0  0  0  0
  -27.2408   -5.4812  146.7469 C   0  0  0  0  0  0  0  0  0  0  0  0
  -20.1465   -5.5007  148.5643 C   0  0  0  0  0  0  0  0  0  0  0  0
  -23.1246   -3.8440  146.4589 C   0  0  0  0  0  0  0  0  0  0  0  0
  -18.0338   -4.5639  147.0207 C   0  0  0  0  0  0  0  0  0  0  0  0
  -21.9341   -1.1379  146.3730 C   0  0  0  0  0  0  0  0  0  0  0  0
  -18.7164   -3.7105  144.2204 C   0  0  0  0  0  0  0  0  0  0  0  0
  -22.5965   -0.4399  147.4943 C   0  0  0  0  0  0  0  0  0  0  0  0
  -17.9150    2.3899  141.1521 C   0  0  0  0  0  0  0  0  0  0  0  0
  -18.3508   -0.5919  140.1859 C   0  0  0  0  0  0  0  0  0  0  0  0
  2  1  1  0
  3  1  1  0
  4  2  1  0
  5  1  1  0
  5  3  1  0
  6  2  1  0
  6  4  1  0
  9  4  1  0
  9  7  1  0
 10  2  1  0
 10  4  1  0
 10  7  1  0
 11  8  1  0
 12  3  1  0
 16 15  1  0
 17 15  2  3
 18 16  1  0
 19 13  1  0
 19 14  1  0
 20 12  1  0
 20 17  1  0
 21  5  1  0
 21 13  1  0
 22 12  1  0
 23  1  1  0
 23  3  1  0
 24 22  1  0
 25 11  1  0
 26  7  1  0
 26  8  1  0
M  END
$$$$

     RDKit          3D

 27 29  0  0  0  0  0  0  0  0999 V2000
  -23.8957  -16.7473  134.3299 C   0  0  0  0  0  0  0  0  0  0  0  0
  -25.4413  -16.8064  134.4408 C   0  0  0  0  0  0  0  0  0  0  0  0
  -23.1385  -15.5923  134.9709 C   0  0  0  0  0  0  0  0  0  0  0  0
  -23.0115  -16.9933  135.5688 C   0  0  0  0  0  0  0  0  0  0  0  0
  -26.1816  -15.9512  133.3650 C   0  0  0  0  0  0  0  0  0  0  0  0
  -26.1100  -14.4191  133.5609 C   0  0  0  0  0  0  0  0  0  0  0  0
  -26.6109  -13.8795  134.9160 C   0  0  0  0  0  0  0  0  0  0  0  0
  -28.8576  -12.7644  135.2917 C   0  0  0  0  0  0  0  0  0  0  0  0
  -28.3797  -14.9660  136.4582 C   0  0  0  0  0  0  0  0  0  0  0  0
  -28.1252  -14.1064  135.1913 C   0  0  0  0  0  0  0  0  0  0  0  0
  -25.6241  -16.3559  131.7113 Cl  0  0  0  0  0  0  0  0  0  0  0  0
  -24.6664  -16.4430  137.6370 C   0  0  0  0  0  0  0  0  0  0  0  0
  -25.8819  -18.2805  134.3276 C   0  0  0  0  0  0  0  0  0  0  0  0
  -23.4450  -17.2045  137.0638 C   0  0  0  0  0  0  0  0  0  0  0  0
  -23.6021  -15.0878  139.6408 C   0  0  0  0  0  0  0  0  0  0  0  0
  -25.1119  -14.8097  139.5886 C   0  0  0  0  0  0  0  0  0  0  0  0
  -22.8192  -14.1909  138.6515 C   0  0  0  0  0  0  0  0  0  0  0  0
  -24.5626  -16.1807  139.1515 C   0  0  0  0  0  0  0  0  0  0  0  0
  -25.0312  -13.6750  141.8880 C   0  0  0  0  0  0  0  0  0  0  0  0
  -21.5435  -13.6391  139.3055 C   0  0  0  0  0  0  0  0  0  0  0  0
  -20.2858  -14.4691  139.0286 C   0  0  0  0  0  0  0  0  0  0  0  0
  -25.8334  -12.6175  142.6445 C   0  0  0  0  0  0  0  0  0  0  0  0
  -19.6380  -13.2601  138.3827 C   0  0  0  0  0  0  0  0  0  0  0  0
  -20.9147  -12.4557  138.5652 C   0  0  0  0  0  0  0  0  0  0  0  0
  -27.3383  -14.3824  140.7219 C   0  0  0  0  0  0  0  0  0  0  0  0
  -27.6773  -13.0144  140.0919 C   0  0  0  0  0  0  0  0  0  0  0  0
  -25.8224  -14.6728  140.9536 C   0  0  0  0  0  0  0  0  0  0  0  0
  2  1  1  0
  3  1  1  0
  4  1  1  0
  4  3  1  0
  5  2  1  0
  6  5  1  0
  7  6  1  0
 10  7  1  0
 10  8  1  0
 10  9  1  0
 11  5  1  0
 13  2  1  0
 14  4  1  0
 14 12  1  0
 16 15  1  0
 17 15  1  0
 18 12  1  0
 18 15  1  0
 18 16  1  0
 20 17  1  0
 21 20  1  0
 22 19  1  0
 23 21  1  0
 24 20  1  0
 24 23  1  0
 26 25  1  0
 27 16  1  0
 27 19  1  0
 27 25  1  0
M  END
$$$$

     RDKit          3D

 26 31  0  0  0  0  0  0  0  0999 V2000
  -28.3487   -8.3695  140.6859 C   0  0  0  0  0  0  0  0  0  0  0  0
  -27.9951   -9.5612  141.5984 C   0  0  0  0  0  0  0  0  0  0  0  0
  -27.6889   -8.5108  139.2854 C   0  0  0  0  0  0  0  0  0  0  0  0
  -28.7245  -10.8654  141.2532 C   0  0  0  0  0  0  0  0  0  0  0  0
  -29.8266  -10.7881  140.1622 C   0  0  0  0  0  0  0  0  0  0  0  0
  -29.3781  -10.2304  138.8150 C   0  0  0  0  0  0  0  0  0  0  0  0
  -27.9660   -9.8440  138.7019 N   0  0  0  0  0  0  0  0  0  0  0  0
  -29.5425  -11.7255  138.9636 C   0  0  0  0  0  0  0  0  0  0  0  0
  -25.5261   -8.3173  137.9040 C   0  0  0  0  0  0  0  0  0  0  0  0
  -25.7559   -6.9253  139.9633 C   0  0  0  0  0  0  0  0  0  0  0  0
  -26.1397   -8.2705  139.3186 C   0  0  0  0  0  0  0  0  0  0  0  0
  -28.1446  -11.2097  144.0331 Br  0  0  0  0  0  0  0  0  0  0  0  0
  -30.5799  -12.0959  139.9969 C   0  0  0  0  0  0  0  0  0  0  0  0
  -30.3860   -9.5131  142.9172 C   0  0  0  0  0  0  0  0  0  0  0  0
  -30.4802   -8.6789  144.2251 C   0  0  0  0  0  0  0  0  0  0  0  0
  -29.2262   -8.2946  145.0317 C   0  0  0  0  0  0  0  0  0  0  0  0
  -31.6804  -10.3497  142.7066 C   0  0  0  0  0  0  0  0  0  0  0  0
  -29.3571   -6.9743  145.4796 O   0  0  0  0  0  0  0  0  0  0  0  0
  -30.5288   -7.9808  142.8731 C   0  0  0  0  0  0  0  0  0  0  0  0
  -28.9875  -10.1700  142.6088 C   0  0  0  0  0  0  0  0  0  0  0  0
  -31.8146   -7.5135  142.5626 O   0  0  0  0  0  0  0  0  0  0  0  0
  -31.5673  -11.7434  143.3543 C   0  0  0  0  0  0  0  0  0  0  0  0
  -32.2141  -11.8615  144.7346 C   0  0  0  0  0  0  0  0  0  0  0  0
  -31.4534  -12.7446  145.7190 C   0  0  0  0  0  0  0  0  0  0  0  0
  -32.8325  -12.5888  143.5399 C   0  0  0  0  0  0  0  0  0  0  0  0
  -34.1541  -12.0232  143.0130 C   0  0  0  0  0  0  0  0  0  0  0  0
  2  1  1  0
  3  1  1  0
  4  2  1  0
  5  4  1  0
  6  5  1  0
  7  3  1  0
  7  6  1  0
  8  5  1  0
  8  6  1  0
 11  3  1  0
 11  9  1  0
 11 10  1  0
 13  5  1  0
 13  8  1  0
 15 14  1  0
 16 15  1  0
 17 14  1  0
 18 16  1  0
 19 14  1  0
 19 15  1  0
 20  2  1  0
 20  4  1  0
 20 12  1  0
 20 14  1  0
 21 19  1  0
 22 17  1  0
 23 22  1  0
 24 23  1  0
 25 22  1  0
 25 23  1  0
 26 25  1  0
M  END
$$$$

     RDKit          3D

 27 31  0  0  0  0  0  0  0  0999 V2000
  -30.3858   -7.6981  139.0191 C   0  0  0  0  0  0  0  0  0  0  0  0
  -31.4503   -6.3910  141.1085 C   0  0  0  0  0  0  0  0  0  0  0  0
  -30.2319   -5.6584  141.6635 C   0  0  0  0  0  0  0  0  0  0  0  0
  -31.9729   -9.4684  137.4826 C   0  0  0  0  0  0  0  0  0  0  0  0
  -32.7536   -9.9986  138.7303 C   0  0  0  0  0  0  0  0  0  0  0  0
  -29.8184   -5.9514  143.2123 C   0  0  0  0  0  0  0  0  0  0  0  0
  -31.6190  -10.7702  139.5417 C   0  0  0  0  0  0  0  0  0  0  0  0
  -30.7609   -8.5381  137.7581 C   0  0  0  0  0  0  0  0  0  0  0  0
  -30.8273  -12.1253  139.6479 C   0  0  0  0  0  0  0  0  0  0  0  0
  -30.7216   -7.5068  145.3179 C   0  0  0  0  0  0  0  0  0  0  0  0
  -30.9920   -6.8503  146.8815 C   0  0  0  0  0  0  0  0  0  0  0  0
  -30.5373   -6.1559  148.3523 C   0  0  0  0  0  0  0  0  0  0  0  0
  -29.6450  -12.1375  138.7167 C   0  0  0  0  0  0  0  0  0  0  0  0
  -29.3882   -4.9019  148.2207 C   0  0  0  0  0  0  0  0  0  0  0  0
  -30.9779   -6.2396  144.4221 C   0  0  0  0  0  0  0  0  0  0  0  0
  -32.6129   -8.4763  140.3851 C   0  0  0  0  0  0  0  0  0  0  0  0
  -29.2034   -3.5849  149.2850 C   0  0  0  0  0  0  0  0  0  0  0  0
  -29.4243  -11.4662  140.0828 C   0  0  0  0  0  0  0  0  0  0  0  0
  -28.4551   -6.7709  143.3378 C   0  0  0  0  0  0  0  0  0  0  0  0
  -32.6305   -9.9680  140.2624 N   0  0  0  0  0  0  0  0  0  0  0  0
  -30.3452   -7.7038  147.9859 C   0  0  0  0  0  0  0  0  0  0  0  0
  -29.4994   -3.5984  150.8153 C   0  0  0  0  0  0  0  0  0  0  0  0
  -30.4251  -10.4111  140.4943 C   0  0  0  0  0  0  0  0  0  0  0  0
  -30.0005   -1.8803  151.7090 Br  0  0  0  0  0  0  0  0  0  0  0  0
  -31.5985   -7.3981  139.9113 C   0  0  0  0  0  0  0  0  0  0  0  0
  -29.3849   -4.0307  146.8087 C   0  0  0  0  0  0  0  0  0  0  0  0
  -27.8366   -4.1067  151.7104 Br  0  0  0  0  0  0  0  0  0  0  0  0
  3  2  1  0
  5  4  1  0
  6  3  1  0
  7  5  1  0
  8  1  1  0
  8  4  1  0
  9  7  1  0
 11 10  1  0
 12 11  1  0
 13  9  1  0
 14 12  1  0
 15  6  1  0
 15 10  1  0
 17 14  1  0
 18  9  1  0
 18 13  1  0
 19  6  1  0
 20  5  1  0
 20  7  1  0
 20 16  1  0
 21 11  1  0
 21 12  1  0
 22 17  1  0
 23  7  1  0
 23 18  1  0
 24 22  1  0
 25  1  1  0
 25  2  1  0
 25 16  1  0
 26 14  1  0
 27 22  1  0
M  END
$$$$

     RDKit          3D

 11 13  0  0  0  0  0  0  0  0999 V2000
  -22.0128   -8.2504  136.6235 F   0  0  0  0  0  0  0  0  0  0  0  0
  -22.5528   -7.4769  137.6363 C   0  0  0  0  0  0  0  0  0  0  0  0
  -24.0393   -7.0831  137.5522 C   0  0  0  0  0  0  0  0  0  0  0  0
  -22.0255   -7.8229  139.0355 C   0  0  0  0  0  0  0  0  0  0  0  0
  -23.0783   -7.6631  140.1749 C   0  0  0  0  0  0  0  0  0  0  0  0
  -22.6842   -8.3011  141.5281 C   0  0  0  0  0  0  0  0  0  0  0  0
  -24.8555   -7.9426  138.4797 C   0  0  0  0  0  0  0  0  0  0  0  0
  -24.4037   -8.2230  139.7110 C   0  0  0  0  0  0  0  0  0  0  0  0
  -21.6958   -9.3913  141.4266 N   0  0  0  0  0  0  0  0  0  0  0  0
  -21.3171   -8.0797  141.9959 C   0  0  0  0  0  0  0  0  0  0  0  0
  -21.5826   -6.5365  138.3356 C   0  0  0  0  0  0  0  0  0  0  0  0
  2  1  1  0
  3  2  1  0
  4  2  1  0
  5  4  1  0
  6  5  1  0
  7  3  1  0
  8  5  1  0
  8  7  2  0
  9  6  1  0
 10  6  1  0
 10  9  1  0
 11  2  1  0
 11  4  1  0
M  END
$$$$

     RDKit          3D

 27 33  0  0  0  0  0  0  0  0999 V2000
  -29.3882   -3.7871  136.9451 O   0  0  0  0  0  0  0  0  0  0  0  0
  -28.9577   -5.0270  136.6199 C   0  0  0  0  0  0  0  0  0  0  0  0
  -27.8722   -4.9180  137.5000 C   0  0  0  0  0  0  0  0  0  0  0  0
  -27.8990   -4.6929  138.8659 C   0  0  0  0  0  0  0  0  0  0  0  0
  -26.8796   -4.0185  139.5026 C   0  0  0  0  0  0  0  0  0  0  0  0
  -27.7797   -5.6997  138.6311 C   0  0  0  0  0  0  0  0  0  0  0  0
  -27.2410   -5.8790  137.1984 C   0  0  0  0  0  0  0  0  0  0  0  0
  -27.2007   -3.0922  140.3774 C   0  0  0  0  0  0  0  0  0  0  0  0
  -26.4390   -1.9637  140.4938 N   0  0  0  0  0  0  0  0  0  0  0  0
  -28.1354   -2.0945  140.0400 C   0  0  0  0  0  0  0  0  0  0  0  0
  -28.4514   -1.1649  140.9853 N   0  0  0  0  0  2  0  0  0  0  0  0
  -28.4983   -3.7959  136.0923 N   0  0  0  0  0  2  0  0  0  0  0  0
  -27.8451   -4.8093  138.7921 C   0  0  0  0  0  0  0  0  0  0  0  0
  -28.3044   -0.0038  140.3589 N   0  0  0  0  0  2  0  0  0  0  0  0
  -27.1231   -0.7706  140.5214 C   0  0  0  0  0  0  0  0  0  0  0  0
  -28.7183   -3.5473  134.7130 C   0  0  0  0  0  0  0  0  0  0  0  0
  -28.8587   -3.7126  134.7290 C   0  0  0  0  0  0  0  0  0  0  0  0
  -28.6179   -2.8201  133.5285 C   0  0  0  0  0  0  0  0  0  0  0  0
  -28.8765   -4.6071  135.5835 N   0  0  0  0  0  2  0  0  0  0  0  0
  -25.9411   -1.3557  141.7700 C   0  0  0  0  0  0  0  0  0  0  0  0
  -25.8601    0.1834  141.6556 C   0  0  0  0  0  0  0  0  0  0  0  0
  -24.6915    0.9131  141.8358 C   0  0  0  0  0  0  0  0  0  0  0  0
  -24.2684   -0.1886  142.6698 C   0  0  0  0  0  0  0  0  0  0  0  0
  -24.6963    2.2091  141.9314 C   0  0  0  0  0  0  0  0  0  0  0  0
  -23.5415    0.4061  141.3661 C   0  0  0  0  0  0  0  0  0  0  0  0
  -25.6113   -2.3110  142.8557 C   0  0  0  0  0  0  0  0  0  0  0  0
  -24.6080   -0.5159  141.0071 C   0  0  0  0  0  0  0  0  0  0  0  0
  2  1  1  0
  5  4  1  0
  7  2  1  0
  7  6  1  0
  8  5  1  0
  9  8  1  0
 10  8  1  0
 11 10  1  0
 12  1  1  0
 13  3  2  0
 13  4  1  0
 13  6  1  0
 15  9  1  0
 15 10  1  0
 15 11  1  0
 15 14  1  0
 17 12  1  0
 17 16  1  0
 18 16  1  0
 19  2  1  0
 19 17  1  0
 20  9  1  0
 21 20  1  0
 22 21  1  0
 23 21  1  0
 23 22  1  0
 24 22  1  0
 25 22  1  0
 25 23  1  0
 26 20  1  0
 27 21  1  0
 27 23  1  0
 27 25  1  0
M  RAD  4  11   2  12   2  14   2  19   2
M  END
$$$$

     RDKit          3D

 27 29  0  0  0  0  0  0  0  0999 V2000
  -26.1294    2.2525  146.9539 N   0  0  0  0  0  0  0  0  0  0  0  0
  -23.2433    0.9218  149.1142 C   0  0  0  0  0  0  0  0  0  0  0  0
  -27.9895   -1.8595  150.3563 N   0  0  0  0  0  0  0  0  0  0  0  0
  -29.6235   -3.8456  148.2218 C   0  0  0  0  0  0  0  0  0  0  0  0
  -20.3502    1.3139  148.7717 N   0  0  0  0  0  0  0  0  0  0  0  0
  -16.9972    1.2068  149.2423 C   0  0  0  0  0  0  0  0  0  0  0  0
  -26.4975   -0.0886  148.6948 C   0  0  0  0  0  0  0  0  0  0  0  0
  -13.1495    0.7374  149.4983 C   0  0  0  0  0  0  0  0  0  0  0  0
  -33.8308   -2.3268  144.2401 C   0  0  0  0  0  0  0  0  0  0  0  0
  -34.4002   -4.1376  145.6027 C   0  0  0  0  0  0  0  0  0  0  0  0
  -30.9433   -2.8649  145.6362 N   0  0  0  0  0  0  0  0  0  0  0  0
  -31.9084   -5.5046  143.1932 C   0  0  0  0  0  0  0  0  0  0  0  0
  -27.4480   -2.7997  148.0397 C   0  0  0  0  0  0  0  0  0  0  0  0
  -28.2883   -1.8492  139.5041 C   0  0  0  0  0  0  0  0  0  0  0  0
  -28.8790   -0.9659  137.9785 N   0  0  0  0  0  0  0  0  0  0  0  0
  -27.9062    0.0349  135.3258 C   0  0  0  0  0  0  0  0  0  0  0  0
  -29.3169   -1.5329  134.4981 C   0  0  0  0  0  0  0  0  0  0  0  0
  -32.8950   -5.1627  136.7508 C   0  0  0  0  0  0  0  0  0  0  0  0
  -31.3661   -3.2065  142.4158 C   0  0  0  0  0  0  0  0  0  0  0  0
  -21.2672    1.9834  147.4956 C   0  0  0  0  0  0  0  0  0  0  0  0
  -30.7755   -7.8965  142.9738 C   0  0  0  0  0  0  0  0  0  0  0  0
  -32.0413   -2.6487  146.8253 C   0  0  0  0  0  0  0  0  0  0  0  0
  -31.1881   -3.0504  136.0334 C   0  0  0  0  0  0  0  0  0  0  0  0
  -32.0840   -5.3156  139.7159 C   0  0  0  0  0  0  0  0  0  0  0  0
  -34.9926   -2.9140  137.9517 C   0  0  0  0  0  0  0  0  0  0  0  0
  -27.6679   -2.0629  132.8555 C   0  0  0  0  0  0  0  0  0  0  0  0
  -31.8805   -6.8098  135.8386 C   0  0  0  0  0  0  0  0  0  0  0  0
  4  3  1  0
  5  2  1  0
  6  5  1  0
  7  1  1  0
  7  2  1  0
  7  3  1  0
  8  6  1  0
 10  4  1  0
 10  9  1  0
 13  4  1  0
 13  7  1  0
 15 14  1  0
 16 15  1  0
 17 16  1  0
 19  9  1  0
 19 12  1  0
 19 14  1  0
 20  2  1  0
 20  5  1  0
 22  9  1  0
 22 11  1  0
 23 17  1  0
 23 18  1  0
 24 18  1  0
 24 21  1  0
 25 24  1  0
 26 16  1  0
 26 17  1  0
 27 18  1  0
M  END
$$$$

     RDKit          3D

 27 34  0  0  0  0  0  0  0  0999 V2000
  -27.6909   -3.1893  147.2384 C   0  0  0  0  0  0  0  0  0  0  0  0
  -27.2236   -3.9441  146.0729 N   0  0  0  0  0  0  0  0  0  0  0  0
  -27.9809   -4.0333  144.8068 C   0  0  0  0  0  0  0  0  0  0  0  0
  -27.0902   -4.4493  143.6370 C   0  0  0  0  0  0  0  0  0  0  0  0
  -26.2838   -3.1617  143.7990 C   0  0  0  0  0  0  0  0  0  0  0  0
  -26.8247   -3.1940  148.4727 N   0  0  0  0  0  0  0  0  0  0  0  0
  -25.4465   -3.4586  147.9832 C   0  0  0  0  0  0  0  0  0  0  0  0
  -24.7504   -4.7603  148.2927 C   0  0  0  0  0  0  0  0  0  0  0  0
  -25.3617   -5.7606  149.3388 C   0  0  0  0  0  0  0  0  0  0  0  0
  -27.0955   -2.8576  145.0678 C   0  0  0  0  0  0  0  0  0  0  0  0
  -29.1335   -2.8987  147.3212 N   0  0  0  0  0  0  0  0  0  0  0  0
  -24.4086   -6.4428  150.3423 C   0  0  0  0  0  0  0  0  0  0  0  0
  -22.0611   -5.2091  150.0325 C   0  0  0  0  0  0  0  0  0  0  0  0
  -24.2199   -3.4607  148.8923 C   0  0  0  0  0  0  0  0  0  0  0  0
  -22.9089   -2.9020  148.3250 C   0  0  0  0  0  0  0  0  0  0  0  0
  -22.7836   -7.4398  148.6717 C   0  0  0  0  0  0  0  0  0  0  0  0
  -28.1209   -1.8587  146.9795 C   0  0  0  0  0  0  0  0  0  0  0  0
  -27.7903   -1.6173  145.5145 C   0  0  0  0  0  0  0  0  0  0  0  0
  -22.9179   -6.5512  149.9487 C   0  0  0  0  0  0  0  0  0  0  0  0
  -24.0971   -3.6571  150.2964 O   0  0  0  0  0  0  0  0  0  0  0  0
  -21.7500   -7.0626  147.5708 C   0  0  0  0  0  0  0  0  0  0  0  0
  -20.9290   -8.2775  147.1528 C   0  0  0  0  0  0  0  0  0  0  0  0
  -22.6943   -3.8075  150.4691 C   0  0  0  0  0  0  0  0  0  0  0  0
  -26.5826   -2.1595  142.6515 C   0  0  0  0  0  0  0  0  0  0  0  0
  -20.2620   -7.1707  147.9184 C   0  0  0  0  0  0  0  0  0  0  0  0
  -24.7663   -3.4397  144.0733 C   0  0  0  0  0  0  0  0  0  0  0  0
  -22.1139   -2.6931  149.5683 C   0  0  0  0  0  0  0  0  0  0  0  0
  2  1  1  0
  3  2  1  0
  4  3  1  0
  5  4  1  0
  6  1  1  0
  7  6  1  0
  8  7  1  0
  9  8  1  0
 10  2  1  0
 10  3  1  0
 10  5  1  0
 11  1  1  0
 12  9  1  0
 14  7  1  0
 14  8  1  0
 15 14  1  0
 17  1  1  0
 17 11  1  0
 18 10  1  0
 18 17  1  0
 19 12  1  0
 19 13  1  0
 19 16  1  0
 20 14  1  0
 21 16  1  0
 22 21  1  0
 23 13  1  0
 23 20  1  0
 24  5  1  0
 25 21  1  0
 25 22  1  0
 26  5  1  0
 27 15  1  0
 27 23  1  0
M  END
$$$$

     RDKit          3D

 14 19  0  0  0  0  0  0  0  0999 V2000
  -30.8314   -3.0679  142.8024 C   0  0  0  0  0  0  0  0  0  0  0  0
  -29.5469   -3.8146  142.4859 C   0  0  0  0  0  0  0  0  0  0  0  0
  -29.3376   -5.1938  143.1420 C   0  0  0  0  0  0  0  0  0  0  0  0
  -29.0753   -5.2879  144.6588 C   0  0  0  0  0  0  0  0  0  0  0  0
  -31.7759   -3.6280  143.8681 C   0  0  0  0  0  0  0  0  0  0  0  0
  -29.7778   -6.6610  144.6054 C   0  0  0  0  0  0  0  0  0  0  0  0
  -29.4993   -2.5693  143.3615 C   0  0  0  0  0  0  0  0  0  0  0  0
  -30.2585   -7.7304  145.6227 C   0  0  0  0  0  0  0  0  0  0  0  0
  -30.5236   -5.5026  145.0239 C   0  0  0  0  0  0  0  0  0  0  0  0
  -29.2215   -8.1035  146.7057 C   0  0  0  0  0  0  0  0  0  0  0  0
  -27.8753   -8.5352  146.1082 C   0  0  0  0  0  0  0  0  0  0  0  0
  -31.6862   -5.1402  144.1120 C   0  0  0  0  0  0  0  0  0  0  0  0
  -30.6091   -6.0117  143.5364 C   0  0  0  0  0  0  0  0  0  0  0  0
  -29.0427   -6.9934  147.7491 C   0  0  0  0  0  0  0  0  0  0  0  0
  2  1  1  0
  3  2  1  0
  4  3  1  0
  5  1  1  0
  6  4  1  0
  7  1  1  0
  7  2  1  0
  8  6  1  0
  9  4  1  0
  9  6  1  0
 10  8  1  0
 11 10  1  0
 12  5  1  0
 12  9  1  0
 13  3  1  0
 13  6  1  0
 13  9  1  0
 13 12  1  0
 14 10  1  0
M  END
$$$$

     RDKit          3D

 26 30  0  0  0  0  0  0  0  0999 V2000
  -27.4817   -1.4666  144.3727 C   0  0  0  0  0  0  0  0  0  0  0  0
  -26.1274   -2.2459  146.2586 O   0  0  0  0  0  0  0  0  0  0  0  0
  -30.0057   -0.6167  143.1348 C   0  0  0  0  0  0  0  0  0  0  0  0
  -28.1164    1.0277  141.9942 C   0  0  0  0  0  0  0  0  0  0  0  0
  -27.3834    2.1067  139.9743 C   0  0  0  0  0  0  0  0  0  0  0  0
  -18.1666   -3.1269  150.5725 C   0  0  0  0  0  0  0  0  0  0  0  0
  -16.5095   -2.7095  151.9128 C   0  0  0  0  0  0  0  0  0  0  0  0
  -22.5768   -1.5600  146.4359 C   0  0  0  0  0  0  0  0  0  0  0  0
  -20.2821   -2.1166  147.3350 C   0  0  0  0  0  0  0  0  0  0  0  0
  -22.2146    0.7661  145.0392 C   0  0  0  0  0  0  0  0  0  0  0  0
  -24.3736    3.0447  142.5142 Cl  0  0  0  0  0  0  0  0  0  0  0  0
  -19.4013    3.3599  144.8333 C   0  0  0  0  0  0  0  0  0  0  0  0
  -17.7584    2.2173  144.0607 Br  0  0  0  0  0  0  0  0  0  0  0  0
  -24.5770    3.8690  140.9396 C   0  0  0  0  0  0  0  0  0  0  0  0
  -25.9701    3.5077  138.9393 C   0  0  0  0  0  0  0  0  0  0  0  0
  -24.1783   -3.5569  146.0367 C   0  0  0  0  0  0  0  0  0  0  0  0
  -17.2654    5.0040  143.1202 C   0  0  0  0  0  0  0  0  0  0  0  0
  -22.3183    5.0083  140.9013 C   0  0  0  0  0  0  0  0  0  0  0  0
  -23.5565    1.9995  144.8288 C   0  0  0  0  0  0  0  0  0  0  0  0
  -26.4329    1.7995  142.6155 C   0  0  0  0  0  0  0  0  0  0  0  0
  -27.9724    3.5424  140.6736 C   0  0  0  0  0  0  0  0  0  0  0  0
  -15.3302   -2.4663  153.8858 C   0  0  0  0  0  0  0  0  0  0  0  0
  -20.0616    4.2828  142.7982 C   0  0  0  0  0  0  0  0  0  0  0  0
  -21.8832    2.3764  143.2975 C   0  0  0  0  0  0  0  0  0  0  0  0
  -18.1917   -3.3035  148.0912 C   0  0  0  0  0  0  0  0  0  0  0  0
  -24.5101   -2.9091  147.4130 C   0  0  0  0  0  0  0  0  0  0  0  0
  2  1  1  0
  3  1  1  0
  4  3  1  0
  5  4  1  0
  7  6  1  0
  9  8  1  0
 10  8  1  0
 12 10  1  0
 13 12  1  0
 14 11  1  0
 15  5  1  0
 15 14  1  0
 16  8  1  0
 18 14  1  0
 19 10  1  0
 20  4  1  0
 20 19  1  0
 21  5  1  0
 21 20  1  0
 22  7  1  0
 23 12  1  0
 23 17  1  0
 23 18  1  0
 24 19  1  0
 24 23  1  0
 25  6  1  0
 25  9  1  0
 26  2  1  0
 26  8  1  0
 26 16  1  0
M  END
$$$$

     RDKit          3D

 27 35  0  0  0  0  0  0  0  0999 V2000
  -27.4126  -21.3219  137.7719 O   0  0  0  0  0  0  0  0  0  0  0  0
  -26.9544  -20.0986  137.3585 C   0  0  0  0  0  0  0  0  0  0  0  0
  -27.0405  -19.1372  138.2581 O   0  0  0  0  0  0  0  0  0  0  0  0
  -28.2318  -20.6406  136.7780 C   0  0  0  0  0  0  0  0  0  0  0  0
  -25.4515  -20.3879  136.7864 C   0  0  0  0  0  0  0  0  0  0  0  0
  -29.5900  -21.2981  137.2321 C   0  0  0  0  0  0  0  0  0  0  0  0
  -30.7355  -20.5301  137.8831 C   0  0  0  0  0  0  0  0  0  0  0  0
  -31.2056  -19.3930  136.8989 C   0  0  0  0  0  0  0  0  0  0  0  0
  -31.9451  -18.3232  137.6016 C   0  0  0  0  0  0  0  0  0  0  0  0
  -30.6027  -20.1472  139.4462 C   0  0  0  0  0  0  0  0  0  0  0  0
  -30.5343  -17.9813  137.1020 C   0  0  0  0  0  0  0  0  0  0  0  0
  -31.5994  -16.8389  137.4132 C   0  0  0  0  0  0  0  0  0  0  0  0
  -29.9254  -20.7447  140.6841 C   0  0  0  0  0  0  0  0  0  0  0  0
  -28.6761  -21.3893  140.1696 C   0  0  0  0  0  0  0  0  0  0  0  0
  -27.6777  -22.0236  141.2189 C   0  0  0  0  0  0  0  0  0  0  0  0
  -27.9684  -23.4830  141.2962 C   0  0  0  0  0  0  0  0  0  0  0  0
  -26.2245  -21.7593  140.6172 C   0  0  0  0  0  0  0  0  0  0  0  0
  -31.3585  -21.2008  140.4055 C   0  0  0  0  0  0  0  0  0  0  0  0
  -31.4594  -22.7183  139.8811 C   0  0  0  0  0  0  0  0  0  0  0  0
  -32.7690  -23.4779  140.4882 C   0  0  0  0  0  0  0  0  0  0  0  0
  -33.7878  -24.2782  139.6207 C   0  0  0  0  0  0  0  0  0  0  0  0
  -31.4390  -24.1970  140.5095 C   0  0  0  0  0  0  0  0  0  0  0  0
  -34.2642  -25.6159  140.2977 C   0  0  0  0  0  0  0  0  0  0  0  0
  -35.4262  -26.2820  139.5932 C   0  0  0  0  0  0  0  0  0  0  0  0
  -36.8621  -26.0252  140.2313 C   0  0  0  0  0  0  0  0  0  0  0  0
  -28.8181  -21.0474  141.7414 C   0  0  0  0  0  0  0  0  0  0  0  0
  -35.6502  -25.6493  141.0036 C   0  0  0  0  0  0  0  0  0  0  0  0
  2  1  1  0
  3  2  1  0
  4  1  1  0
  4  2  1  0
  5  2  1  0
  6  4  1  0
  7  6  1  0
  8  7  1  0
  9  8  1  0
 10  7  1  0
 11  8  1  0
 11  9  1  0
 12  9  1  0
 12 11  1  0
 13 10  1  0
 14 13  1  0
 15 14  1  0
 16 15  1  0
 17 15  1  0
 18 10  1  0
 18 13  1  0
 19 18  1  0
 20 19  1  0
 21 20  1  0
 22 19  1  0
 22 20  1  0
 23 21  1  0
 24 23  1  0
 25 24  1  0
 26 13  1  0
 26 14  1  0
 26 15  1  0
 27 23  1  0
 27 24  1  0
 27 25  1  0
M  END
$$$$

     RDKit          3D

 26 29  0  0  0  0  0  0  0  0999 V2000
  -26.5483  -18.3020  136.8836 N   0  0  0  0  0  0  0  0  0  0  0  0
  -27.5387  -18.2805  137.7061 C   0  0  0  0  0  0  0  0  0  0  0  0
  -28.6105  -17.3813  137.3280 N   0  0  0  0  0  0  0  0  0  0  0  0
  -30.0590  -17.0571  137.0106 C   0  0  0  0  0  0  0  0  0  0  0  0
  -27.2613  -18.6198  139.0863 N   0  0  0  0  0  0  0  0  0  0  0  0
  -30.8006  -16.4941  138.1986 N   0  0  0  0  0  0  0  0  0  0  0  0
  -30.5975  -15.0469  138.5706 C   0  0  0  0  0  0  0  0  0  0  0  0
  -27.0800  -17.5257  140.0464 C   0  0  0  0  0  0  0  0  0  0  0  0
  -29.0779  -16.3211  136.4388 C   0  0  0  0  0  0  0  0  0  0  0  0
  -26.3590  -17.8950  141.3266 C   0  0  0  0  0  0  0  0  0  0  0  0
  -31.1606  -14.9276  139.9190 N   0  0  0  0  0  0  0  0  0  0  0  0
  -30.2742  -14.5298  141.0557 C   0  0  0  0  0  0  0  0  0  0  0  0
  -27.9354  -18.5910  142.9804 N   0  0  0  0  0  0  0  0  0  0  0  0
  -29.2493  -19.1357  142.9185 C   0  0  0  0  0  0  0  0  0  0  0  0
  -28.9718  -13.6717  141.0144 C   0  0  0  0  0  0  0  0  0  0  0  0
  -29.4671  -20.2306  141.8164 C   0  0  0  0  0  0  0  0  0  0  0  0
  -28.3324  -16.9412  140.3511 C   0  0  0  0  0  0  0  0  0  0  0  0
  -27.0124  -19.0228  142.0182 N   0  0  0  0  0  0  0  0  0  0  0  0
  -28.8941  -21.5476  142.3891 C   0  0  0  0  0  0  0  0  0  0  0  0
  -31.4220  -13.6853  140.6417 C   0  0  0  0  0  0  0  0  0  0  0  0
  -27.9774  -14.1745  142.1687 C   0  0  0  0  0  0  0  0  0  0  0  0
  -29.0371  -21.3721  143.9108 C   0  0  0  0  0  0  0  0  0  0  0  0
  -30.0757  -22.3154  141.8473 C   0  0  0  0  0  0  0  0  0  0  0  0
  -29.5229  -19.9302  144.2226 C   0  0  0  0  0  0  0  0  0  0  0  0
  -32.6392  -13.8312  141.4926 C   0  0  0  0  0  0  0  0  0  0  0  0
  -30.7939  -20.9480  141.7495 C   0  0  0  0  0  0  0  0  0  0  0  0
  2  1  2  0
  3  2  1  0
  4  3  1  0
  5  2  1  0
  6  4  1  0
  7  6  1  0
  8  5  1  0
  9  3  1  0
  9  4  1  0
 10  8  1  0
 11  7  1  0
 12 11  1  0
 14 13  1  0
 15 12  1  0
 16 14  1  0
 17  8  1  0
 18 10  1  0
 18 13  1  0
 19 16  1  0
 20 11  1  0
 20 12  1  0
 21 15  1  0
 22 19  1  0
 23 19  1  0
 24 14  1  0
 24 22  1  0
 25 20  1  0
 26 16  1  0
 26 23  1  0
M  END
$$$$

     RDKit          3D

 27 32  0  0  0  0  0  0  0  0999 V2000
  -31.2139  -13.4665  134.6460 O   0  0  0  0  0  0  0  0  0  0  0  0
  -29.8286  -11.7184  134.1879 C   0  0  0  0  0  0  0  0  0  0  0  0
  -29.9291  -13.0704  134.5799 O   0  0  0  0  0  0  0  0  0  0  0  0
  -30.7984  -10.1058  136.6075 C   0  0  0  0  0  0  0  0  0  0  0  0
  -29.3512   -9.6176  136.0103 C   0  0  0  0  0  0  0  0  0  0  0  0
  -28.9592   -8.7986  138.7748 C   0  0  0  0  0  0  0  0  0  0  0  0
  -29.3062  -10.2160  139.2881 C   0  0  0  0  0  0  0  0  0  0  0  0
  -28.5140   -8.9179  137.2429 C   0  0  0  0  0  0  0  0  0  0  0  0
  -30.2179   -7.7656  138.8036 C   0  0  0  0  0  0  0  0  0  0  0  0
  -29.8877   -6.1203  138.7769 C   0  0  0  0  0  0  0  0  0  0  0  0
  -29.8171  -11.6115  132.7394 C   0  0  0  0  0  0  0  0  0  0  0  0
  -31.2300   -5.1597  138.6254 C   0  0  0  0  0  0  0  0  0  0  0  0
  -28.2166   -5.6659  139.1103 C   0  0  0  0  0  0  0  0  0  0  0  0
  -32.7807   -5.6199  138.4320 C   0  0  0  0  0  0  0  0  0  0  0  0
  -33.0953   -7.0108  138.6122 C   0  0  0  0  0  0  0  0  0  0  0  0
  -27.2023   -5.5371  137.9464 C   0  0  0  0  0  0  0  0  0  0  0  0
  -26.4205   -6.7098  138.6137 C   0  0  0  0  0  0  0  0  0  0  0  0
  -34.3367   -7.1774  139.2428 C   0  0  0  0  0  0  0  0  0  0  0  0
  -27.9383   -8.2571  139.9258 C   0  0  0  0  0  0  0  0  0  0  0  0
  -27.3546   -6.8085  139.6688 C   0  0  0  0  0  0  0  0  0  0  0  0
  -33.1455   -6.4838  137.1201 C   0  0  0  0  0  0  0  0  0  0  0  0
  -34.4611   -6.1494  136.4265 C   0  0  0  0  0  0  0  0  0  0  0  0
  -33.5320   -6.0666  139.6277 N   0  0  0  0  0  0  0  0  0  0  0  0
  -27.0841   -4.4082  138.9309 C   0  0  0  0  0  0  0  0  0  0  0  0
  -28.7507  -10.7815  134.9502 C   0  0  0  0  0  0  0  0  0  0  0  0
  -34.3438   -5.9487  134.9489 C   0  0  0  0  0  0  0  0  0  0  0  0
  -33.7784   -4.7285  134.6061 O   0  0  0  0  0  0  0  0  0  0  0  0
  3  1  1  0
  3  2  1  0
  5  4  1  0
  7  6  1  0
  8  5  1  0
  8  6  1  0
  9  6  1  0
 10  9  1  0
 11  2  1  0
 12 10  1  0
 13 10  1  0
 14 12  1  0
 15 14  1  0
 16 13  1  0
 17 16  1  0
 18 15  1  0
 19  6  1  0
 20 13  1  0
 20 17  1  0
 20 19  1  0
 21 14  1  0
 21 15  1  0
 22 21  1  0
 23 14  1  0
 23 15  1  0
 23 18  1  0
 24 13  1  0
 24 16  1  0
 25  2  1  0
 25  5  1  0
 26 22  1  0
 27 26  1  0
M  END
$$$$

     RDKit          3D

 27 27  0  0  0  0  0  0  0  0999 V2000
  -24.4823  -15.3157  136.6854 S   0  0  0  0  0  0  0  0  0  0  0  0
  -25.7637  -14.7996  135.4788 C   0  0  0  0  0  0  0  0  0  0  0  0
  -24.8687  -14.0586  137.9649 C   0  0  0  0  0  0  0  0  0  0  0  0
  -25.3241  -15.1147  134.0415 C   0  0  0  0  0  0  0  0  0  0  0  0
  -25.1791  -16.6278  133.7600 C   0  0  0  0  0  0  0  0  0  0  0  0
  -26.4867  -17.2918  133.3126 C   0  0  0  0  0  0  0  0  0  0  0  0
  -24.0645  -12.7829  137.7056 C   0  0  0  0  0  0  0  0  0  0  0  0
  -27.4349  -17.5321  134.4621 C   0  0  0  0  0  0  0  0  0  0  0  0
  -27.1797  -18.4091  135.4516 C   0  0  0  0  0  0  0  0  0  0  0  0
  -28.1842  -18.6322  136.5585 C   0  0  0  0  0  0  0  0  0  0  0  0
  -28.3207  -17.3657  137.4428 C   0  0  0  0  0  0  0  0  0  0  0  0
  -29.3796  -17.5691  138.5234 C   0  0  0  0  0  0  0  0  0  0  0  0
  -29.4380  -16.3833  139.5095 C   0  0  0  0  0  0  0  0  0  0  0  0
  -30.7358  -15.5860  139.4250 C   0  0  0  0  0  0  0  0  0  0  0  0
  -30.9015  -14.7874  138.1047 C   0  0  0  0  0  0  0  0  0  0  0  0
  -31.9748  -15.2766  137.0798 C   0  0  0  0  0  0  0  0  0  0  0  0
  -32.1147  -14.2186  135.9278 C   0  0  0  0  0  0  0  0  0  0  0  0
  -32.1542  -14.8635  134.4879 C   0  0  0  0  0  0  0  0  0  0  0  0
  -30.7942  -15.5177  134.0034 C   0  0  0  0  0  0  0  0  0  0  0  0
  -33.3267  -15.6237  137.7581 C   0  0  0  0  0  0  0  0  0  0  0  0
  -29.6169  -14.5152  133.9375 C   0  0  0  0  0  0  0  0  0  0  0  0
  -34.5308  -15.7631  136.7778 C   0  0  0  0  0  0  0  0  0  0  0  0
  -28.7899  -12.2766  133.1222 C   0  0  0  0  0  0  0  0  0  0  0  0
  -35.5556  -16.8798  137.0183 C   0  0  0  0  0  0  0  0  0  0  0  0
  -35.3035  -17.7908  138.1232 N   0  0  0  0  0  0  0  0  0  0  0  0
  -34.5208  -17.0231  135.9202 C   0  0  0  0  0  0  0  0  0  0  0  0
  -29.9913  -13.2068  133.1979 C   0  0  0  0  0  0  0  0  0  0  0  0
  2  1  1  0
  3  1  1  0
  4  2  1  0
  5  4  1  0
  6  5  1  0
  7  3  1  0
  8  6  1  0
  9  8  2  3
 10  9  1  0
 11 10  1  0
 12 11  1  0
 13 12  1  0
 14 13  1  0
 15 14  1  0
 16 15  1  0
 17 16  1  0
 18 17  1  0
 19 18  1  0
 20 16  1  0
 21 19  1  0
 22 20  1  0
 24 22  1  0
 25 24  1  0
 26 22  1  0
 26 24  1  0
 27 21  1  0
 27 23  1  0
M  END
$$$$

     RDKit          3D

 26 28  0  0  0  0  0  0  0  0999 V2000
  -28.3290   -6.6274  138.1479 C   0  0  0  0  0  0  0  0  0  0  0  0
  -27.9962   -6.6866  135.4907 C   0  0  0  0  0  0  0  0  0  0  0  0
  -27.4466   -6.2888  132.7864 C   0  0  0  0  0  0  0  0  0  0  0  0
  -27.9413   -6.8822  130.3612 C   0  0  0  0  0  0  0  0  0  0  0  0
  -27.5503   -5.7447  129.3366 C   0  0  0  0  0  0  0  0  0  0  0  0
  -28.9429   -7.8535  138.4398 O   0  0  0  0  0  0  0  0  0  0  0  0
  -28.7340   -6.0326  136.7520 C   0  0  0  0  0  0  0  0  0  0  0  0
  -28.3977   -4.6749  136.8580 O   0  0  0  0  0  0  0  0  0  0  0  0
  -28.5808   -9.9376  139.6186 C   0  0  0  0  0  0  0  0  0  0  0  0
  -30.0909  -10.1786  139.9195 C   0  0  0  0  0  0  0  0  0  0  0  0
  -29.0224   -9.8367  142.0095 O   0  0  0  0  0  0  0  0  0  0  0  0
  -30.7159   -8.8903  140.5063 C   0  0  0  0  0  0  0  0  0  0  0  0
  -30.7341  -10.2158  138.5112 C   0  0  0  0  0  0  0  0  0  0  0  0
  -26.4963   -8.7376  136.4487 C   0  0  0  0  0  0  0  0  0  0  0  0
  -27.6973   -9.4094  137.1697 C   0  0  0  0  0  0  0  0  0  0  0  0
  -28.5298   -6.6706  131.7500 C   0  0  0  0  0  0  0  0  0  0  0  0
  -26.5840   -6.3450  128.4879 O   0  0  0  0  0  0  0  0  0  0  0  0
  -27.9054   -5.7130  134.2028 C   0  0  0  0  0  0  0  0  0  0  0  0
  -28.1329   -3.4891  130.4007 C   0  0  0  0  0  0  0  0  0  0  0  0
  -30.2836   -6.1283  136.6489 C   0  0  0  0  0  0  0  0  0  0  0  0
  -28.0108   -8.8593  138.6104 C   0  0  0  0  0  0  0  0  0  0  0  0
  -26.5767   -7.2938  135.8282 C   0  0  0  0  0  0  0  0  0  0  0  0
  -27.1485   -4.3829  134.4732 C   0  0  0  0  0  0  0  0  0  0  0  0
  -29.2654   -9.1936  140.7675 C   0  0  0  0  0  0  0  0  0  0  0  0
  -27.0394   -4.3554  129.8316 C   0  0  0  0  0  0  0  0  0  0  0  0
  -31.6014   -8.9463  141.7541 C   0  0  0  0  0  0  0  0  0  0  0  0
  5  4  1  0
  6  1  1  0
  7  1  1  0
  7  2  1  0
  8  7  1  0
 10  9  1  0
 12 10  1  0
 13 10  1  0
 15 14  1  0
 16  3  1  0
 16  4  1  0
 17  5  1  0
 18  2  1  0
 18  3  1  0
 20  7  1  0
 21  6  1  0
 21  9  1  0
 21 15  1  0
 22  2  1  0
 22 14  1  0
 23 18  1  0
 24  9  1  0
 24 10  1  0
 24 11  1  0
 24 12  1  0
 25  5  1  0
 25 19  1  0
 26 12  1  0
M  END
$$$$

     RDKit          3D

 11 13  0  0  0  0  0  0  0  0999 V2000
  -31.7168   -8.3152  139.7037 O   0  0  0  0  0  0  0  0  0  0  0  0
  -30.8543   -6.0758  139.0511 C   0  0  0  0  0  0  0  0  0  0  0  0
  -30.9570   -7.8437  137.4771 C   0  0  0  0  0  0  0  0  0  0  0  0
  -30.7458   -7.6032  138.9545 C   0  0  0  0  0  0  0  0  0  0  0  0
  -30.2806   -5.5421  137.8154 N   0  0  0  0  0  0  0  0  0  0  0  0
  -30.3803   -6.6031  136.8083 C   0  0  0  0  0  0  0  0  0  0  0  0
  -31.8185   -7.8889  141.0547 C   0  0  0  0  0  0  0  0  0  0  0  0
  -30.0709   -6.1018  141.6120 C   0  0  0  0  0  0  0  0  0  0  0  0
  -28.8335   -5.8317  140.7506 C   0  0  0  0  0  0  0  0  0  0  0  0
  -30.4750   -7.5834  141.7468 C   0  0  0  0  0  0  0  0  0  0  0  0
  -30.2058   -5.3738  140.2702 C   0  0  0  0  0  0  0  0  0  0  0  0
  4  1  1  0
  4  2  1  0
  4  3  1  0
  5  2  1  0
  6  3  1  0
  6  5  1  0
  7  1  1  0
  9  8  1  0
 10  7  1  0
 10  8  1  0
 11  2  1  0
 11  8  1  0
 11  9  1  0
M  END
$$$$

     RDKit          3D

 27 35  0  0  0  0  0  0  0  0999 V2000
  -19.8401   -1.5235  134.8710 C   0  0  0  0  0  0  0  0  0  0  0  0
  -19.2882   -1.3316  136.2646 C   0  0  0  0  0  0  0  0  0  0  0  0
  -19.7725   -2.1092  137.5008 C   0  0  0  0  0  0  0  0  0  0  0  0
  -21.0717   -2.4516  134.6944 C   0  0  0  0  0  0  0  0  0  0  0  0
  -18.7966   -1.7762  133.7787 C   0  0  0  0  0  0  0  0  0  0  0  0
  -18.8213   -0.3117  133.2950 C   0  0  0  0  0  0  0  0  0  0  0  0
  -18.5588   -2.2300  135.2698 C   0  0  0  0  0  0  0  0  0  0  0  0
  -19.2646   -0.2026  131.8493 C   0  0  0  0  0  0  0  0  0  0  0  0
  -18.6750    0.6224  130.9830 C   0  0  0  0  0  0  0  0  0  0  0  0
  -17.4771    1.4012  131.3506 C   0  0  0  0  0  0  0  0  0  0  0  0
  -16.9429    1.3165  132.5739 C   0  0  0  0  0  0  0  0  0  0  0  0
  -17.4944   -1.0141  133.4266 C   0  0  0  0  0  0  0  0  0  0  0  0
  -20.8806   -1.3623  138.2703 C   0  0  0  0  0  0  0  0  0  0  0  0
  -20.9325    0.0466  138.1706 O   0  0  0  0  0  0  0  0  0  0  0  0
  -17.5693    0.4794  133.6602 C   0  0  0  0  0  0  0  0  0  0  0  0
  -20.8284   -3.9807  134.5984 C   0  0  0  0  0  0  0  0  0  0  0  0
  -22.1707   -2.1680  138.6649 C   0  0  0  0  0  0  0  0  0  0  0  0
  -22.0468   -4.7865  134.0596 C   0  0  0  0  0  0  0  0  0  0  0  0
  -23.4438   -4.2759  134.4006 C   0  0  0  0  0  0  0  0  0  0  0  0
  -24.3483   -4.2650  133.1465 C   0  0  0  0  0  0  0  0  0  0  0  0
  -23.3998   -1.7882  139.5489 C   0  0  0  0  0  0  0  0  0  0  0  0
  -24.3030   -3.0582  134.0472 C   0  0  0  0  0  0  0  0  0  0  0  0
  -23.7720   -5.4519  135.2938 C   0  0  0  0  0  0  0  0  0  0  0  0
  -22.3840   -6.0197  134.9433 C   0  0  0  0  0  0  0  0  0  0  0  0
  -21.0432   -1.8083  139.6807 C   0  0  0  0  0  0  0  0  0  0  0  0
  -23.3239   -1.2369  138.1760 C   0  0  0  0  0  0  0  0  0  0  0  0
  -24.2691   -1.8608  137.3534 O   0  0  0  0  0  0  0  0  0  0  0  0
  2  1  1  0
  3  2  1  0
  4  1  1  0
  5  1  1  0
  6  5  1  0
  7  1  1  0
  7  2  1  0
  7  5  1  0
  8  6  1  0
  9  8  2  0
 10  9  1  0
 11 10  2  0
 12  5  1  0
 12  6  1  0
 13  3  1  0
 14 13  1  0
 15  6  1  0
 15 11  1  0
 15 12  1  0
 16  4  1  0
 17 13  1  0
 18 16  1  0
 19 18  1  0
 20 19  1  0
 21 17  1  0
 22 19  1  0
 22 20  1  0
 23 19  1  0
 24 18  1  0
 24 23  1  0
 25 13  1  0
 25 17  1  0
 26 17  1  0
 26 21  1  0
 27 26  1  0
M  END
$$$$

     RDKit          3D

 27 30  0  0  0  0  0  0  0  0999 V2000
  -29.1446  -24.3909  141.4292 N   0  0  0  0  0  0  0  0  0  0  0  0
  -28.8803  -25.0376  142.7245 C   0  0  0  0  0  0  0  0  0  0  0  0
  -26.4855  -24.8103  141.9220 N   0  0  0  0  0  0  0  0  0  0  0  0
  -29.7630  -26.1913  142.9709 N   0  0  0  0  0  0  0  0  0  0  0  0
  -29.3685  -25.8238  141.5999 C   0  0  0  0  0  0  0  0  0  0  0  0
  -22.5262  -21.7587  148.7925 C   0  0  0  0  0  0  0  0  0  0  0  0
  -24.3880  -22.5108  150.8953 F   0  0  0  0  0  0  0  0  0  0  0  0
  -24.0051  -19.3896  150.0317 C   0  0  0  0  0  0  0  0  0  0  0  0
  -22.6678  -19.4225  149.9573 C   0  0  0  0  0  0  0  0  0  0  0  0
  -21.8204  -20.5079  149.3504 C   0  0  0  0  0  0  0  0  0  0  0  0
  -26.5820  -24.0657  143.1991 C   0  0  0  0  0  0  0  0  0  0  0  0
  -25.2195  -24.0169  143.9623 C   0  0  0  0  0  0  0  0  0  0  0  0
  -22.3846  -23.0725  149.6314 C   0  0  0  0  0  0  0  0  0  0  0  0
  -22.9764  -24.3011  148.8530 C   0  0  0  0  0  0  0  0  0  0  0  0
  -27.3747  -25.2907  143.0035 C   0  0  0  0  0  0  0  0  0  0  0  0
  -22.7334  -24.3086  147.3351 C   0  0  0  0  0  0  0  0  0  0  0  0
  -22.3398  -22.2037  152.1130 C   0  0  0  0  0  0  0  0  0  0  0  0
  -22.9919  -24.2487  151.8856 C   0  0  0  0  0  0  0  0  0  0  0  0
  -25.2918  -22.8668  144.9875 C   0  0  0  0  0  0  0  0  0  0  0  0
  -23.1449  -25.6222  146.6453 C   0  0  0  0  0  0  0  0  0  0  0  0
  -23.3285  -25.3757  145.1161 C   0  0  0  0  0  0  0  0  0  0  0  0
  -24.8046  -25.3491  144.6460 C   0  0  0  0  0  0  0  0  0  0  0  0
  -22.1118  -26.5816  146.8657 O   0  0  0  0  0  0  0  0  0  0  0  0
  -22.6465  -27.8978  146.8726 C   0  0  0  0  0  0  0  0  0  0  0  0
  -23.0813  -22.9775  151.0169 C   0  0  0  0  0  0  0  0  0  0  0  0
  -22.3972  -23.4290  153.0147 C   0  0  0  0  0  0  0  0  0  0  0  0
  -24.3240  -24.9210  152.2280 C   0  0  0  0  0  0  0  0  0  0  0  0
  2  1  1  0
  4  2  1  0
  5  1  1  0
  5  2  1  0
  5  4  1  0
  9  8  2  0
 10  6  1  0
 10  9  1  0
 11  3  1  0
 12 11  1  0
 13  6  1  0
 14 13  1  0
 15  2  1  0
 15  3  1  0
 15 11  1  0
 16 14  1  0
 19 12  1  0
 20 16  1  0
 21 20  1  0
 22 12  1  0
 22 21  1  0
 23 20  1  0
 24 23  1  0
 25  7  1  0
 25 13  1  0
 25 17  1  0
 25 18  1  0
 26 17  1  0
 26 18  1  0
 27 18  1  0
M  END
$$$$

     RDKit          3D

 26 27  0  0  0  0  0  0  0  0999 V2000
  -33.2403   -8.7699  143.6262 Mg  0  0  0  0  0  2  0  0  0  0  0  0
  -32.0211   -8.9590  141.4633 O   0  0  0  0  0  0  0  0  0  0  0  0
  -31.0202  -11.2432  143.7501 O   0  0  0  0  0  0  0  0  0  0  0  0
  -30.8105  -12.5755  143.7427 O   0  0  0  0  0  0  0  0  0  0  0  0
  -33.1089  -13.1121  144.7329 N   0  0  0  0  0  0  0  0  0  0  0  0
  -33.2085  -10.8093  142.8289 C   0  0  0  0  0  0  0  0  0  0  0  0
  -33.4746  -11.7066  144.6897 C   0  0  0  0  0  0  0  0  0  0  0  0
  -34.4391  -11.3667  143.4389 C   0  0  0  0  0  0  0  0  0  0  0  0
  -32.8019   -6.5175  143.4995 O   0  0  0  0  0  0  0  0  0  0  0  0
  -35.7082   -9.4305  144.7374 C   0  0  0  0  0  0  0  0  0  0  0  0
  -30.9445  -10.7924  140.6741 O   0  0  0  0  0  0  0  0  0  0  0  0
  -32.4000  -10.8441  144.0190 C   0  0  0  0  0  0  0  0  0  0  0  0
  -31.7669   -9.7307  140.2923 C   0  0  0  0  0  0  0  0  0  0  0  0
  -33.9659   -5.7558  143.6951 C   0  0  0  0  0  0  0  0  0  0  0  0
  -36.3676  -10.5346  145.6574 C   0  0  0  0  0  0  0  0  0  0  0  0
  -35.4260  -10.0573  143.2918 C   0  0  0  0  0  0  0  0  0  0  0  0
  -32.7726   -7.8003  141.2228 C   0  0  0  0  0  0  0  0  0  0  0  0
  -34.0467   -4.2370  143.2935 C   0  0  0  0  0  0  0  0  0  0  0  0
  -32.2849   -6.5823  142.1304 C   0  0  0  0  0  0  0  0  0  0  0  0
  -36.8576  -10.0071  146.9391 N   0  0  0  0  0  0  0  0  0  0  0  0
  -33.0472  -10.2833  139.6357 C   0  0  0  0  0  0  0  0  0  0  0  0
  -34.3836   -8.0073  141.2974 C   0  0  0  0  0  0  0  0  0  0  0  0
  -35.5203   -9.0542  141.8786 C   0  0  0  0  0  0  0  0  0  0  0  0
  -36.9633   -8.4297  141.6716 C   0  0  0  0  0  0  0  0  0  0  0  0
  -37.4208   -7.1705  142.4480 C   0  0  0  0  0  0  0  0  0  0  0  0
  -37.4132   -5.8596  141.6281 C   0  0  0  0  0  0  0  0  0  0  0  0
  4  3  1  0
  6  1  1  0
  7  5  1  0
  8  6  1  0
  8  7  1  0
 12  1  1  0
 12  3  1  0
 12  6  1  0
 12  7  1  0
 13  2  1  0
 13 11  1  0
 14  9  1  0
 15 10  1  0
 16  8  1  0
 16 10  1  0
 17  2  1  0
 18 14  1  0
 19  9  1  0
 19 17  1  0
 20 15  1  0
 21 13  1  0
 22 17  1  0
 23 16  1  0
 23 22  1  0
 24 23  1  0
 25 24  1  0
 26 25  1  0
M  END
$$$$

     RDKit          3D

 26 29  0  0  0  0  0  0  0  0999 V2000
  -29.8406  -14.4237  145.3824 O   0  0  0  0  0  0  0  0  0  0  0  0
  -29.1845  -13.8239  146.6666 C   0  0  0  0  0  0  0  0  0  0  0  0
  -30.9073  -15.9275  146.9933 C   0  0  0  0  0  0  0  0  0  0  0  0
  -29.9597  -12.4650  147.1368 C   0  0  0  0  0  0  0  0  0  0  0  0
  -29.5803  -11.5008  145.7905 C   0  0  0  0  0  0  0  0  0  0  0  0
  -30.7212  -11.3175  144.8189 C   0  0  0  0  0  0  0  0  0  0  0  0
  -30.8590   -9.8512  144.4066 C   0  0  0  0  0  0  0  0  0  0  0  0
  -32.0754   -9.2961  143.5974 C   0  0  0  0  0  0  0  0  0  0  0  0
  -28.8536  -11.8639  148.3628 C   0  0  0  0  0  0  0  0  0  0  0  0
  -33.3012  -10.2731  143.3223 C   0  0  0  0  0  0  0  0  0  0  0  0
  -34.2078   -9.8306  142.1894 C   0  0  0  0  0  0  0  0  0  0  0  0
  -29.4547  -12.1698  144.2994 C   0  0  0  0  0  0  0  0  0  0  0  0
  -30.7147  -15.6781  145.3358 C   0  0  0  0  0  0  0  0  0  0  0  0
  -29.6040  -15.0257  147.7657 C   0  0  0  0  0  0  0  0  0  0  0  0
  -29.5918  -11.2229  149.6703 C   0  0  0  0  0  0  0  0  0  0  0  0
  -32.1670   -7.7341  143.3430 C   0  0  0  0  0  0  0  0  0  0  0  0
  -29.1326   -9.7544  150.0052 C   0  0  0  0  0  0  0  0  0  0  0  0
  -30.7646   -9.6917  142.8925 C   0  0  0  0  0  0  0  0  0  0  0  0
  -33.4958   -9.7175  141.0336 O   0  0  0  0  0  0  0  0  0  0  0  0
  -30.0770   -8.6049  149.5989 C   0  0  0  0  0  0  0  0  0  0  0  0
  -30.7693   -8.7389  148.4206 C   0  0  0  0  0  0  0  0  0  0  0  0
  -30.0900   -7.3502  150.3489 C   0  0  0  0  0  0  0  0  0  0  0  0
  -32.9393   -6.9388  144.3869 C   0  0  0  0  0  0  0  0  0  0  0  0
  -32.0127   -6.0909  145.2768 C   0  0  0  0  0  0  0  0  0  0  0  0
  -32.6612   -4.7456  145.5816 N   0  0  0  0  0  0  0  0  0  0  0  0
  -32.4886   -5.7236  146.6190 C   0  0  0  0  0  0  0  0  0  0  0  0
  2  1  1  0
  4  2  1  0
  5  4  1  0
  6  5  1  0
  7  6  1  0
  8  7  1  0
  9  4  1  0
 10  8  1  0
 11 10  1  0
 12  5  1  0
 12  6  1  0
 13  1  1  0
 13  3  1  0
 14  2  1  0
 14  3  1  0
 15  9  1  0
 16  8  1  0
 17 15  1  0
 18  7  1  0
 18  8  1  0
 19 11  1  0
 20 17  1  0
 21 20  2  0
 22 20  1  0
 23 16  1  0
 24 23  1  0
 25 24  1  0
 26 24  1  0
 26 25  1  0
M  END
$$$$

     RDKit          3D

 26 28  0  0  0  0  0  0  0  0999 V2000
  -30.3804    0.6089  140.7507 C   0  0  0  0  0  0  0  0  0  0  0  0
  -35.5446    2.7237  141.7454 C   0  0  0  0  0  0  0  0  0  0  0  0
  -31.6157    0.2161  140.0229 C   0  0  0  0  0  0  0  0  0  0  0  0
  -31.0191    1.1924  138.9211 C   0  0  0  0  0  0  0  0  0  0  0  0
  -27.2944   -0.4033  138.2693 Mg  0  0  0  0  0  2  0  0  0  0  0  0
  -35.6972    1.1420  141.4034 C   0  0  0  0  0  0  0  0  0  0  0  0
  -34.4135    0.3708  140.6610 C   0  0  0  0  0  0  0  0  0  0  0  0
  -32.2360    2.6803  139.0720 C   0  0  0  0  0  0  0  0  0  0  0  0
  -32.8625    0.5464  141.0275 C   0  0  0  0  0  0  0  0  0  0  0  0
  -24.5185   -2.1900  138.2016 C   0  0  0  0  0  0  0  0  0  0  0  0
  -22.7055   -2.2368  136.0197 C   0  0  0  0  0  0  0  0  0  0  0  0
  -22.1227   -1.3509  134.8785 O   0  0  0  0  0  0  0  0  0  0  0  0
  -21.2348   -3.5232  136.9621 Al  0  0  0  0  0  3  0  0  0  0  0  0
  -24.3615   -4.1304  141.0245 N   0  0  0  0  0  0  0  0  0  0  0  0
  -23.3630   -1.4804  137.2878 N   0  0  0  0  0  0  0  0  0  0  0  0
  -21.3256   -6.2106  138.8833 C   0  0  0  0  0  0  0  0  0  0  0  0
  -24.5229   -3.2066  142.2090 C   0  0  0  0  0  0  0  0  0  0  0  0
  -32.8171    3.0927  140.5263 C   0  0  0  0  0  0  0  0  0  0  0  0
  -34.2071    3.5933  141.3808 C   0  0  0  0  0  0  0  0  0  0  0  0
  -22.1403   -3.9650  141.9846 O   0  0  0  0  0  0  0  0  0  0  0  0
  -32.4119    4.1728  139.6707 C   0  0  0  0  0  0  0  0  0  0  0  0
  -20.6579   -5.1337  137.8948 C   0  0  0  0  0  0  0  0  0  0  0  0
  -19.3448   -4.6942  138.5416 C   0  0  0  0  0  0  0  0  0  0  0  0
  -21.5568   -6.9306  139.8611 C   0  0  0  0  0  0  0  0  0  0  0  0
  -23.5167   -4.2493  142.2528 C   0  0  0  0  0  0  0  0  0  0  0  0
  -23.9222   -3.0331  139.7684 C   0  0  0  0  0  0  0  0  0  0  0  0
  3  1  2  0
  4  3  1  0
  5  4  1  0
  6  2  1  0
  7  6  1  0
  8  4  1  0
  9  3  1  0
  9  7  1  0
 10  5  1  0
 12 11  1  0
 13 11  1  0
 15 10  1  0
 15 11  1  0
 17 14  1  0
 18  8  1  0
 19  2  1  0
 19 18  1  0
 21  8  1  0
 21 18  1  0
 22 13  1  0
 22 16  1  0
 23 22  1  0
 24 16  3  0
 25 14  1  0
 25 17  1  0
 25 20  1  0
 26 10  1  0
 26 14  1  0
M  END
$$$$

     RDKit          3D

 25 27  0  0  0  0  0  0  0  0999 V2000
  -18.7378  -10.5507  145.8171 C   0  0  0  0  0  0  0  0  0  0  0  0
  -19.5642  -11.5572  145.2325 O   0  0  0  0  0  0  0  0  0  0  0  0
  -20.7399  -11.0613  144.5974 C   0  0  0  0  0  0  0  0  0  0  0  0
  -20.8684  -11.6865  143.3478 O   0  0  0  0  0  0  0  0  0  0  0  0
  -21.9310  -11.3707  145.4222 N   0  0  0  0  0  0  0  0  0  0  0  0
  -18.0757   -9.6156  144.7724 C   0  0  0  0  0  0  0  0  0  0  0  0
  -19.4557   -9.7943  146.9689 C   0  0  0  0  0  0  0  0  0  0  0  0
  -18.5929   -8.7633  147.7142 C   0  0  0  0  0  0  0  0  0  0  0  0
  -23.0338  -10.4050  145.2135 C   0  0  0  0  0  0  0  0  0  0  0  0
  -17.3089   -9.3805  148.2973 C   0  0  0  0  0  0  0  0  0  0  0  0
  -16.6242   -8.5144  149.3445 C   0  0  0  0  0  0  0  0  0  0  0  0
  -24.0529  -10.4075  146.3931 C   0  0  0  0  0  0  0  0  0  0  0  0
  -16.0109   -8.6562  147.9639 C   0  0  0  0  0  0  0  0  0  0  0  0
  -23.7105  -10.6108  143.8466 C   0  0  0  0  0  0  0  0  0  0  0  0
  -26.4275  -15.1751  145.4471 Br  0  0  0  0  0  0  0  0  0  0  0  0
  -25.1171  -11.5044  148.4335 C   0  0  0  0  0  0  0  0  0  0  0  0
  -17.4185  -10.3885  143.6301 C   0  0  0  0  0  0  0  0  0  0  0  0
  -25.5887  -14.0397  146.7714 C   0  0  0  0  0  0  0  0  0  0  0  0
  -24.4058  -11.7677  147.0744 C   0  0  0  0  0  0  0  0  0  0  0  0
  -25.2066  -12.6987  146.1367 C   0  0  0  0  0  0  0  0  0  0  0  0
  -26.5544  -10.9610  148.3029 C   0  0  0  0  0  0  0  0  0  0  0  0
  -27.0364  -10.3761  149.6373 C   0  0  0  0  0  0  0  0  0  0  0  0
  -27.7636  -11.3454  150.5451 C   0  0  0  0  0  0  0  0  0  0  0  0
  -29.1318  -10.8667  150.9810 C   0  0  0  0  0  0  0  0  0  0  0  0
  -28.5286  -10.2229  149.7678 C   0  0  0  0  0  0  0  0  0  0  0  0
  2  1  1  0
  3  2  1  0
  4  3  1  0
  5  3  1  0
  6  1  1  0
  7  1  1  0
  8  7  1  0
  9  5  1  0
 10  8  1  0
 11 10  1  0
 12  9  1  0
 13 10  1  0
 13 11  1  0
 14  9  1  0
 17  6  1  0
 18 15  1  0
 19 12  1  0
 19 16  1  0
 20 18  1  0
 20 19  1  0
 21 16  1  0
 22 21  1  0
 23 22  1  0
 24 23  1  0
 25 22  1  0
 25 23  1  0
 25 24  1  0
M  END
$$$$

     RDKit          3D

 25 30  0  0  0  0  0  0  0  0999 V2000
  -24.2324   -8.2034  139.0001 O   0  0  0  0  0  0  0  0  0  0  0  0
  -23.4683   -9.3798  138.8676 C   0  0  0  0  0  0  0  0  0  0  0  0
  -24.3966  -10.5799  138.6712 C   0  0  0  0  0  0  0  0  0  0  0  0
  -23.3582  -10.7089  140.7980 C   0  0  0  0  0  0  0  0  0  0  0  0
  -22.6127   -9.2877  137.6009 C   0  0  0  0  0  0  0  0  0  0  0  0
  -23.2750  -10.2022  136.6457 C   0  0  0  0  0  0  0  0  0  0  0  0
  -24.2928  -11.0637  137.2723 N   0  0  0  0  0  0  0  0  0  0  0  0
  -21.8601  -10.5662  137.2074 C   0  0  0  0  0  0  0  0  0  0  0  0
  -25.5615  -11.5165  135.4706 O   0  0  0  0  0  0  0  0  0  0  0  0
  -24.6777  -13.8364  138.1402 O   0  0  0  0  0  0  0  0  0  0  0  0
  -23.9729  -11.6082  139.7315 C   0  0  0  0  0  0  0  0  0  0  0  0
  -25.5363  -10.8185  136.6327 N   0  0  0  0  0  0  0  0  0  0  0  0
  -24.8648  -14.2805  136.8080 C   0  0  0  0  0  0  0  0  0  0  0  0
  -20.6016  -10.0123  136.5283 C   0  0  0  0  0  0  0  0  0  0  0  0
  -22.7861  -10.5012  135.2433 C   0  0  0  0  0  0  0  0  0  0  0  0
  -24.8278  -15.8155  136.7128 C   0  0  0  0  0  0  0  0  0  0  0  0
  -26.1681  -16.4369  137.1039 C   0  0  0  0  0  0  0  0  0  0  0  0
  -23.3005  -13.8386  138.4519 C   0  0  0  0  0  0  0  0  0  0  0  0
  -22.6939   -9.6033  140.1009 N   0  0  0  0  0  0  0  0  0  0  0  0
  -22.8896  -12.6368  139.2931 C   0  0  0  0  0  0  0  0  0  0  0  0
  -22.8926  -14.0457  139.9224 C   0  0  0  0  0  0  0  0  0  0  0  0
  -23.9201  -14.4106  141.0466 C   0  0  0  0  0  0  0  0  0  0  0  0
  -21.4562  -10.9553  135.7627 C   0  0  0  0  0  0  0  0  0  0  0  0
  -25.1445  -15.1950  140.5436 C   0  0  0  0  0  0  0  0  0  0  0  0
  -23.1998  -15.2684  142.1032 C   0  0  0  0  0  0  0  0  0  0  0  0
  2  1  1  0
  3  2  1  0
  5  2  1  0
  6  5  1  0
  7  3  1  0
  7  6  1  0
  8  5  1  0
  8  6  1  0
 11  3  1  0
 11  4  1  0
 12  7  1  0
 12  9  1  0
 13 10  1  0
 14  8  1  0
 15  6  1  0
 16 13  1  0
 17 16  1  0
 18 10  1  0
 19  2  1  0
 19  4  1  0
 20 11  1  0
 20 18  1  0
 21 18  1  0
 21 20  1  0
 22 21  1  0
 23  8  1  0
 23 14  1  0
 23 15  1  0
 24 22  1  0
 25 22  1  0
M  END
$$$$

     RDKit          3D

 27 32  0  0  0  0  0  0  0  0999 V2000
  -25.4854  -12.4297  145.4664 F   0  0  0  0  0  0  0  0  0  0  0  0
  -24.5338  -15.2524  142.7689 C   0  0  0  0  0  0  0  0  0  0  0  0
  -23.2337  -15.9383  143.2692 C   0  0  0  0  0  0  0  0  0  0  0  0
  -25.6788  -15.9898  142.0915 C   0  0  0  0  0  0  0  0  0  0  0  0
  -27.7685  -15.4566  142.1605 C   0  0  0  0  0  0  0  0  0  0  0  0
  -28.8110  -15.9766  141.1408 C   0  0  0  0  0  0  0  0  0  0  0  0
  -28.1829  -15.8745  139.7028 C   0  0  0  0  0  0  0  0  0  0  0  0
  -28.0837  -17.1598  138.8561 C   0  0  0  0  0  0  0  0  0  0  0  0
  -26.5710  -14.9002  141.4404 C   0  0  0  0  0  0  0  0  0  0  0  0
  -26.9010  -16.5039  142.8531 C   0  0  0  0  0  0  0  0  0  0  0  0
  -22.9598  -18.5654  143.2794 C   0  0  0  0  0  0  0  0  0  0  0  0
  -29.4597  -17.7159  138.4155 C   0  0  0  0  0  0  0  0  0  0  0  0
  -22.6698  -17.2532  142.5977 C   0  0  0  0  0  0  0  0  0  0  0  0
  -29.0603  -17.6190  136.9700 C   0  0  0  0  0  0  0  0  0  0  0  0
  -24.6044  -14.0655  143.8963 C   0  0  0  0  0  0  0  0  0  0  0  0
  -28.6040  -18.5337  139.3656 C   0  0  0  0  0  0  0  0  0  0  0  0
  -23.1713  -13.5635  143.6897 C   0  0  0  0  0  0  0  0  0  0  0  0
  -22.2411  -14.7770  143.4112 C   0  0  0  0  0  0  0  0  0  0  0  0
  -27.7115  -17.0423  137.3846 C   0  0  0  0  0  0  0  0  0  0  0  0
  -25.8104  -13.1922  144.3722 C   0  0  0  0  0  0  0  0  0  0  0  0
  -26.8895  -15.0292  139.9223 C   0  0  0  0  0  0  0  0  0  0  0  0
  -24.2647  -18.9616  143.0245 O   0  0  0  0  0  0  0  0  0  0  0  0
  -25.6585  -15.0947  138.9164 C   0  0  0  0  0  0  0  0  0  0  0  0
  -23.2218  -14.7372  138.1589 Se  0  0  0  0  0  2  0  0  0  0  0  0
  -22.8408  -12.2694  143.7074 C   0  0  0  0  0  0  0  0  0  0  0  0
  -24.7661  -13.8642  138.9592 C   0  0  0  0  0  0  0  0  0  0  0  0
  -24.4907  -16.0807  138.8539 C   0  0  0  0  0  0  0  0  0  0  0  0
  3  2  1  0
  4  2  1  0
  6  5  1  0
  7  6  1  0
  8  7  1  0
  9  4  1  0
  9  5  1  0
 10  4  1  0
 10  5  1  0
 12  8  1  0
 13  3  1  0
 13 11  1  0
 14 12  1  0
 15  2  1  0
 16  8  1  0
 16 12  1  0
 17 15  1  0
 18  3  1  0
 18 17  1  0
 19  8  1  0
 19 14  1  0
 20  1  1  0
 20 15  1  0
 21  7  1  0
 21  9  1  0
 22 11  1  0
 23 21  1  0
 25 17  2  0
 26 23  1  0
 26 24  1  0
 27 23  1  0
 27 24  1  0
M  END
$$$$

     RDKit          3D

 27 32  0  0  0  0  0  0  0  0999 V2000
  -22.7410  -16.2026  138.9185 C   0  0  0  0  0  0  0  0  0  0  0  0
  -23.9172  -15.4566  139.5678 C   0  0  0  0  0  0  0  0  0  0  0  0
  -22.9353  -17.6708  138.6865 C   0  0  0  0  0  0  0  0  0  0  0  0
  -24.9246  -14.7715  138.5906 C   0  0  0  0  0  0  0  0  0  0  0  0
  -26.4747  -15.0092  138.8013 C   0  0  0  0  0  0  0  0  0  0  0  0
  -24.5475  -13.2739  138.3611 C   0  0  0  0  0  0  0  0  0  0  0  0
  -27.1925  -14.6503  140.1119 C   0  0  0  0  0  0  0  0  0  0  0  0
  -27.3409  -14.9195  137.5315 C   0  0  0  0  0  0  0  0  0  0  0  0
  -23.9111  -16.9913  139.6088 C   0  0  0  0  0  0  0  0  0  0  0  0
  -25.0113  -12.2717  139.4849 C   0  0  0  0  0  0  0  0  0  0  0  0
  -26.9691  -16.1056  139.7592 C   0  0  0  0  0  0  0  0  0  0  0  0
  -23.9060  -11.3995  140.1723 C   0  0  0  0  0  0  0  0  0  0  0  0
  -23.3758  -11.8828  141.5130 C   0  0  0  0  0  0  0  0  0  0  0  0
  -26.2288  -11.4202  139.0195 C   0  0  0  0  0  0  0  0  0  0  0  0
  -21.9548  -12.3941  141.5326 C   0  0  0  0  0  0  0  0  0  0  0  0
  -25.9589  -10.0907  138.2465 C   0  0  0  0  0  0  0  0  0  0  0  0
  -21.5414  -13.8923  141.5163 C   0  0  0  0  0  0  0  0  0  0  0  0
  -22.5211  -11.9850  140.1949 C   0  0  0  0  0  0  0  0  0  0  0  0
  -20.3884  -14.1710  140.1618 Cl  0  0  0  0  0  0  0  0  0  0  0  0
  -22.6440  -14.9985  141.6329 C   0  0  0  0  0  0  0  0  0  0  0  0
  -24.9246  -10.2293  137.0978 C   0  0  0  0  0  0  0  0  0  0  0  0
  -27.3016   -9.5119  137.7430 C   0  0  0  0  0  0  0  0  0  0  0  0
  -23.8049  -14.8021  140.8318 O   0  0  0  0  0  0  0  0  0  0  0  0
  -24.4934   -8.8948  136.4417 C   0  0  0  0  0  0  0  0  0  0  0  0
  -23.7744   -7.9754  137.4475 C   0  0  0  0  0  0  0  0  0  0  0  0
  -27.7938  -10.2590  136.6550 O   0  0  0  0  0  0  0  0  0  0  0  0
  -23.5695   -9.1798  135.2449 C   0  0  0  0  0  0  0  0  0  0  0  0
  2  1  1  0
  3  1  1  0
  4  2  1  0
  5  4  1  0
  6  4  1  0
  7  5  1  0
  8  5  1  0
  9  1  1  0
  9  2  1  0
  9  3  1  0
 10  6  1  0
 11  5  1  0
 11  7  1  0
 12 10  1  0
 13 12  1  0
 14 10  1  0
 15 13  1  0
 16 14  1  0
 17 15  1  0
 18 12  1  0
 18 13  1  0
 18 15  1  0
 19 17  1  0
 20 17  1  0
 21 16  1  0
 22 16  1  0
 23  2  1  0
 23 20  1  0
 24 21  1  0
 25 24  1  0
 26 22  1  0
 27 24  1  0
M  END
$$$$

     RDKit          3D

 27 31  0  0  0  0  0  0  0  0999 V2000
  -20.2073    4.8105  136.8522 C   0  0  0  0  0  0  0  0  0  0  0  0
  -20.5867    3.4635  137.5042 C   0  0  0  0  0  0  0  0  0  0  0  0
  -20.7561    5.0548  135.4296 C   0  0  0  0  0  0  0  0  0  0  0  0
  -19.9312    4.7791  134.1372 C   0  0  0  0  0  0  0  0  0  0  0  0
  -20.8936    2.4677  136.3714 C   0  0  0  0  0  0  0  0  0  0  0  0
  -19.6493    1.9245  135.5814 C   0  0  0  0  0  0  0  0  0  0  0  0
  -19.9471   -0.4992  134.6166 N   0  0  0  0  0  0  0  0  0  0  0  0
  -22.1253    0.0350  133.2702 C   0  0  0  0  0  0  0  0  0  0  0  0
  -20.4849    3.3820  133.5366 C   0  0  0  0  0  0  0  0  0  0  0  0
  -21.4174    0.2700  131.8444 C   0  0  0  0  0  0  0  0  0  0  0  0
  -22.4852    0.1429  130.7325 C   0  0  0  0  0  0  0  0  0  0  0  0
  -20.9213    2.9683  132.0195 C   0  0  0  0  0  0  0  0  0  0  0  0
  -21.8744   -2.0515  134.7879 C   0  0  0  0  0  0  0  0  0  0  0  0
  -21.4382   -0.5855  134.5576 C   0  0  0  0  0  0  0  0  0  0  0  0
  -19.7503    2.2092  134.1301 C   0  0  0  0  0  0  0  0  0  0  0  0
  -19.4300    0.3456  135.7258 C   0  0  0  0  0  0  0  0  0  0  0  0
  -18.4302    5.2714  134.3072 C   0  0  0  0  0  0  0  0  0  0  0  0
  -21.3664    3.9472  136.2922 C   0  0  0  0  0  0  0  0  0  0  0  0
  -17.4424    4.6410  133.6968 C   0  0  0  0  0  0  0  0  0  0  0  0
  -15.7686    7.7187  135.9993 C   0  0  0  0  0  0  0  0  0  0  0  0
  -16.6989    7.0985  134.9079 C   0  0  0  0  0  0  0  0  0  0  0  0
  -17.9662    6.6072  135.0292 C   0  0  0  0  0  0  0  0  0  0  0  0
  -18.7448    9.0631  135.6475 C   0  0  0  0  0  0  0  0  0  0  0  0
  -20.5344    1.5165  131.4968 C   0  0  0  0  0  0  0  0  0  0  0  0
  -13.3196    8.2847  136.3698 C   0  0  0  0  0  0  0  0  0  0  0  0
  -14.4521    8.1736  135.3734 C   0  0  0  0  0  0  0  0  0  0  0  0
  -19.1151    7.6430  135.1875 C   0  0  0  0  0  0  0  0  0  0  0  0
  2  1  1  0
  3  1  1  0
  4  3  1  0
  5  2  1  0
  6  5  1  0
  9  4  1  0
 10  8  1  0
 11 10  1  0
 12  9  1  0
 14  7  1  0
 14  8  1  0
 14 13  1  0
 15  6  1  0
 15  9  1  0
 16  6  1  0
 16  7  1  0
 17  4  1  0
 18  1  1  0
 18  2  1  0
 18  3  1  0
 18  5  1  0
 19 17  2  0
 21 20  1  0
 22 17  1  0
 22 21  2  3
 24 10  1  0
 24 12  1  0
 26 20  1  0
 26 25  1  0
 27 22  1  0
 27 23  1  0
M  END
$$$$

     RDKit          3D

 11 12  0  0  0  0  0  0  0  0999 V2000
  -23.6548   -9.9609  139.5337 O   0  0  0  0  0  0  0  0  0  0  0  0
  -22.4490  -11.9963  140.0623 C   0  0  0  0  0  0  0  0  0  0  0  0
  -22.4922  -12.9804  138.8710 C   0  0  0  0  0  0  0  0  0  0  0  0
  -21.1856  -13.4769  138.2450 C   0  0  0  0  0  0  0  0  0  0  0  0
  -22.0140  -12.4071  137.5399 C   0  0  0  0  0  0  0  0  0  0  0  0
  -22.3220  -12.7370  141.3867 C   0  0  0  0  0  0  0  0  0  0  0  0
  -23.7568  -11.2001  140.1863 C   0  0  0  0  0  0  0  0  0  0  0  0
  -23.9954  -10.9928  141.6869 C   0  0  0  0  0  0  0  0  0  0  0  0
  -22.9043  -11.7802  142.4194 C   0  0  0  0  0  0  0  0  0  0  0  0
  -19.8460  -12.9989  138.8176 C   0  0  0  0  0  0  0  0  0  0  0  0
  -23.4301  -12.5120  143.6580 C   0  0  0  0  0  0  0  0  0  0  0  0
  3  2  1  0
  4  3  1  0
  5  3  1  0
  5  4  1  0
  6  2  1  0
  7  1  1  0
  7  2  1  0
  8  7  1  0
  9  6  1  0
  9  8  1  0
 10  4  1  0
 11  9  1  0
M  END
$$$$

     RDKit          3D

 19 21  0  0  0  0  0  0  0  0999 V2000
  -25.9664    4.1888  134.7116 C   0  0  0  0  0  0  0  0  0  0  0  0
  -26.0840    3.3604  135.8337 O   0  0  0  0  0  0  0  0  0  0  0  0
  -26.2749    4.0512  132.0593 C   0  0  0  0  0  0  0  0  0  0  0  0
  -27.1935    3.5586  130.9222 C   0  0  0  0  0  0  0  0  0  0  0  0
  -25.4852    5.3102  131.7821 C   0  0  0  0  0  0  0  0  0  0  0  0
  -25.1069    6.0556  132.6713 O   0  0  0  0  0  0  0  0  0  0  0  0
  -28.0654    4.6506  130.3485 C   0  0  0  0  0  0  0  0  0  0  0  0
  -29.1583    5.1670  130.9392 C   0  0  0  0  0  0  0  0  0  0  0  0
  -29.1357    5.8054  133.3667 C   0  0  0  0  0  0  0  0  0  0  0  0
  -25.3603    2.9197  132.5512 C   0  0  0  0  0  0  0  0  0  0  0  0
  -29.8644    7.1568  133.3322 C   0  0  0  0  0  0  0  0  0  0  0  0
  -31.3168    7.0320  133.8479 C   0  0  0  0  0  0  0  0  0  0  0  0
  -29.6460    4.8075  132.3181 C   0  0  0  0  0  0  0  0  0  0  0  0
  -32.5269    7.4396  132.9993 C   0  0  0  0  0  0  0  0  0  0  0  0
  -32.2434    7.8912  131.5493 C   0  0  0  0  0  0  0  0  0  0  0  0
  -26.4619    3.4360  133.4641 C   0  0  0  0  0  0  0  0  0  0  0  0
  -33.4672    8.3338  133.8092 C   0  0  0  0  0  0  0  0  0  0  0  0
  -34.0491    9.6084  133.1822 C   0  0  0  0  0  0  0  0  0  0  0  0
  -31.9732    8.3856  134.0863 C   0  0  0  0  0  0  0  0  0  0  0  0
  2  1  1  0
  4  3  1  0
  5  3  1  0
  6  5  2  0
  7  4  1  0
  8  7  2  3
 10  3  1  0
 11  9  1  0
 12 11  1  0
 13  8  1  0
 13  9  1  0
 14 12  1  0
 15 14  1  0
 16  1  1  0
 16  3  1  0
 16 10  1  0
 17 14  1  0
 18 17  1  0
 19 12  1  0
 19 14  1  0
 19 17  1  0
M  END
$$$$

     RDKit          3D

 27 33  0  0  0  0  0  0  0  0999 V2000
  -18.4857  -18.3059  138.2315 O   0  0  0  0  0  0  0  0  0  0  0  0
  -18.4976  -16.7096  140.0913 C   0  0  0  0  0  0  0  0  0  0  0  0
  -18.9051  -16.6618  141.5960 C   0  0  0  0  0  0  0  0  0  0  0  0
  -18.8106  -15.2539  142.1934 C   0  0  0  0  0  0  0  0  0  0  0  0
  -19.0622  -18.0270  139.4842 C   0  0  0  0  0  0  0  0  0  0  0  0
  -19.1269  -14.0561  141.2866 C   0  0  0  0  0  0  0  0  0  0  0  0
  -20.0107  -16.1193  142.5346 C   0  0  0  0  0  0  0  0  0  0  0  0
  -21.4073  -15.4595  142.3834 C   0  0  0  0  0  0  0  0  0  0  0  0
  -18.9735  -15.5215  139.2099 C   0  0  0  0  0  0  0  0  0  0  0  0
  -16.9390  -16.8271  140.0560 C   0  0  0  0  0  0  0  0  0  0  0  0
  -22.3274  -15.7274  141.2231 C   0  0  0  0  0  0  0  0  0  0  0  0
  -21.5815  -13.9405  142.1170 C   0  0  0  0  0  0  0  0  0  0  0  0
  -23.4635  -16.7307  141.4556 C   0  0  0  0  0  0  0  0  0  0  0  0
  -22.7057  -14.2416  141.0263 C   0  0  0  0  0  0  0  0  0  0  0  0
  -22.3893  -17.0179  140.4216 C   0  0  0  0  0  0  0  0  0  0  0  0
  -17.8073  -13.5457  140.6563 C   0  0  0  0  0  0  0  0  0  0  0  0
  -20.2939  -13.1554  141.7260 C   0  0  0  0  0  0  0  0  0  0  0  0
  -22.4248  -13.7148  139.5941 C   0  0  0  0  0  0  0  0  0  0  0  0
  -17.4887  -12.1631  140.8065 O   0  0  0  0  0  0  0  0  0  0  0  0
  -23.3190  -14.2738  138.4809 C   0  0  0  0  0  0  0  0  0  0  0  0
  -24.1580  -13.7855  141.4750 C   0  0  0  0  0  0  0  0  0  0  0  0
  -18.8722  -10.2313  141.4094 C   0  0  0  0  0  0  0  0  0  0  0  0
  -18.9251  -14.0931  139.7684 C   0  0  0  0  0  0  0  0  0  0  0  0
  -18.4191  -11.2132  140.3295 C   0  0  0  0  0  0  0  0  0  0  0  0
  -24.5530  -13.7322  142.9677 C   0  0  0  0  0  0  0  0  0  0  0  0
  -24.3908  -15.0249  143.6212 N   0  0  0  0  0  0  0  0  0  0  0  0
  -17.8160   -9.8202  140.4027 C   0  0  0  0  0  0  0  0  0  0  0  0
  3  2  1  0
  4  3  1  0
  5  1  1  0
  5  2  1  0
  6  4  1  0
  7  3  1  0
  7  4  1  0
  8  7  1  0
  9  2  1  0
 10  2  1  0
 11  8  1  0
 12  8  1  0
 13 11  1  0
 14 11  1  0
 14 12  1  0
 15 11  1  0
 15 13  1  0
 16  6  1  0
 17  6  1  0
 17 12  1  0
 18 14  1  0
 19 16  1  0
 20 18  1  0
 21 14  1  0
 23  6  1  0
 23  9  1  0
 23 16  1  0
 24 19  1  0
 24 22  1  0
 25 21  1  0
 26 25  1  0
 27 22  1  0
 27 24  1  0
M  END
$$$$

     RDKit          3D

 27 27  0  0  0  0  0  0  0  0999 V2000
  -28.1786    5.4117  134.1496 Cl  0  0  0  0  0  0  0  0  0  0  0  0
  -30.3139    4.4710  135.5509 C   0  0  0  0  0  0  0  0  0  0  0  0
  -31.2508    3.3548  136.1109 C   0  0  0  0  0  0  0  0  0  0  0  0
  -28.8323    4.0877  135.1544 C   0  0  0  0  0  0  0  0  0  0  0  0
  -28.5899    2.7841  134.4024 C   0  0  0  0  0  0  0  0  0  0  0  0
  -32.1872    2.5204  135.1714 C   0  0  0  0  0  0  0  0  0  0  0  0
  -31.6292    1.6761  133.9476 C   0  0  0  0  0  0  0  0  0  0  0  0
  -31.4328    2.4339  132.6127 C   0  0  0  0  0  0  0  0  0  0  0  0
  -30.7891    0.3565  134.1769 C   0  0  0  0  0  0  0  0  0  0  0  0
  -33.4632    3.3510  134.7452 C   0  0  0  0  0  0  0  0  0  0  0  0
  -30.2518    5.6325  136.5952 C   0  0  0  0  0  0  0  0  0  0  0  0
  -29.2438    0.2907  134.5888 C   0  0  0  0  0  0  0  0  0  0  0  0
  -28.6417    1.5327  135.2960 C   0  0  0  0  0  0  0  0  0  0  0  0
  -31.0766   -0.6468  133.0274 C   0  0  0  0  0  0  0  0  0  0  0  0
  -28.2374   -0.2208  133.5206 C   0  0  0  0  0  0  0  0  0  0  0  0
  -34.5848    3.3317  135.7978 C   0  0  0  0  0  0  0  0  0  0  0  0
  -35.1719    1.9473  135.9472 C   0  0  0  0  0  0  0  0  0  0  0  0
  -34.9752    1.2486  137.0297 C   0  0  0  0  0  0  0  0  0  0  0  0
  -34.7240    0.6057  138.1373 C   0  0  0  0  0  0  0  0  0  0  0  0
  -29.7516    5.1858  137.9932 C   0  0  0  0  0  0  0  0  0  0  0  0
  -34.4073    1.3645  139.3941 C   0  0  0  0  0  0  0  0  0  0  0  0
  -30.8733    4.9698  138.9680 C   0  0  0  0  0  0  0  0  0  0  0  0
  -33.5215    0.5767  140.3346 C   0  0  0  0  0  0  0  0  0  0  0  0
  -32.1946    0.3868  140.1462 C   0  0  0  0  0  0  0  0  0  0  0  0
  -31.2867    5.9260  139.8080 C   0  0  0  0  0  0  0  0  0  0  0  0
  -31.4627    0.6350  138.8475 C   0  0  0  0  0  0  0  0  0  0  0  0
  -30.8598   -0.6759  138.3412 C   0  0  0  0  0  0  0  0  0  0  0  0
  3  2  1  0
  4  1  1  0
  4  2  1  0
  5  4  1  0
  6  3  1  0
  7  6  1  0
  8  7  1  0
  9  7  1  0
 10  6  1  0
 11  2  1  0
 12  9  1  0
 13  5  1  0
 13 12  1  0
 14  9  1  0
 15 12  1  0
 16 10  1  0
 17 16  1  0
 18 17  2  0
 19 18  2  0
 20 11  1  0
 21 19  1  0
 22 20  1  0
 23 21  1  0
 24 23  2  3
 25 22  2  0
 26 24  1  0
 27 26  1  0
M  END
$$$$

     RDKit          3D

 21 25  0  0  0  0  0  0  0  0999 V2000
  -21.9758  -17.0098  140.6571 C   0  0  0  0  0  0  0  0  0  0  0  0
  -21.3361  -15.6400  141.0231 C   0  0  0  0  0  0  0  0  0  0  0  0
  -23.4113  -17.2249  140.9763 N   0  0  0  0  0  0  0  0  0  0  0  0
  -21.0967  -15.5137  142.5260 C   0  0  0  0  0  0  0  0  0  0  0  0
  -20.1498  -15.1816  140.1286 C   0  0  0  0  0  0  0  0  0  0  0  0
  -22.9652  -17.0626  139.5703 C   0  0  0  0  0  0  0  0  0  0  0  0
  -22.1494  -14.6241  141.8343 C   0  0  0  0  0  0  0  0  0  0  0  0
  -19.0462  -16.2526  140.0128 C   0  0  0  0  0  0  0  0  0  0  0  0
  -23.4367  -15.7568  138.8854 C   0  0  0  0  0  0  0  0  0  0  0  0
  -19.2019  -17.1104  138.7410 C   0  0  0  0  0  0  0  0  0  0  0  0
  -21.6036  -13.2054  141.8820 C   0  0  0  0  0  0  0  0  0  0  0  0
  -20.4248  -13.0844  142.8273 C   0  0  0  0  0  0  0  0  0  0  0  0
  -24.5569  -16.0613  137.8873 C   0  0  0  0  0  0  0  0  0  0  0  0
  -18.2533  -18.3241  138.7242 C   0  0  0  0  0  0  0  0  0  0  0  0
  -24.9428  -14.8385  137.0357 C   0  0  0  0  0  0  0  0  0  0  0  0
  -18.7134  -19.5016  139.6115 C   0  0  0  0  0  0  0  0  0  0  0  0
  -25.2099  -12.6000  138.2439 C   0  0  0  0  0  0  0  0  0  0  0  0
  -21.4701  -14.1493  143.0839 C   0  0  0  0  0  0  0  0  0  0  0  0
  -25.9134  -13.8654  137.7469 C   0  0  0  0  0  0  0  0  0  0  0  0
  -19.7649  -20.9768  137.8023 C   0  0  0  0  0  0  0  0  0  0  0  0
  -19.9749  -20.2373  139.1216 C   0  0  0  0  0  0  0  0  0  0  0  0
  2  1  1  0
  3  1  1  0
  4  2  1  0
  5  2  1  0
  6  1  1  0
  6  3  1  0
  7  2  1  0
  7  4  1  0
  8  5  1  0
  9  6  1  0
 10  8  1  0
 11  7  1  0
 12 11  1  0
 13  9  1  0
 14 10  1  0
 15 13  1  0
 16 14  1  0
 18  4  1  0
 18  7  1  0
 18 11  1  0
 18 12  1  0
 19 15  1  0
 19 17  1  0
 21 16  1  0
 21 20  1  0
M  END
$$$$

     RDKit          3D

 17 18  0  0  0  0  0  0  0  0999 V2000
  -27.3294   -4.9872  133.6554 O   0  0  0  0  0  0  0  0  0  0  0  0
  -27.9486   -5.3514  134.8287 N   0  0  0  0  0  0  0  0  0  0  0  0
  -29.3462   -5.8256  134.6475 C   0  0  0  0  0  0  0  0  0  0  0  0
  -30.3451   -4.8574  133.8605 C   0  0  0  0  0  0  0  0  0  0  0  0
  -31.7652   -4.9968  134.2207 C   0  0  0  0  0  0  0  0  0  0  0  0
  -29.8514   -6.5211  135.9722 C   0  0  0  0  0  0  0  0  0  0  0  0
  -30.2756   -5.5551  137.0004 N   0  0  0  0  0  0  0  0  0  0  0  0
  -27.6153   -4.4860  135.9786 C   0  0  0  0  0  0  0  0  0  0  0  0
  -30.6174   -6.2572  139.2733 O   0  0  0  0  0  0  0  0  0  0  0  0
  -31.0433   -3.7965  134.6689 N   0  0  0  0  0  0  0  0  0  0  0  0
  -29.6758   -5.7701  138.3377 C   0  0  0  0  0  0  0  0  0  0  0  0
  -29.2121   -7.2023  133.5138 Cl  0  0  0  0  0  0  0  0  0  0  0  0
  -29.9603   -3.4360  133.7433 C   0  0  0  0  0  0  0  0  0  0  0  0
  -32.8991   -4.7355  133.1714 C   0  0  0  0  0  0  0  0  0  0  0  0
  -33.6928   -6.0665  133.0026 C   0  0  0  0  0  0  0  0  0  0  0  0
  -33.8625   -3.6958  133.7942 C   0  0  0  0  0  0  0  0  0  0  0  0
  -32.4132   -4.2011  131.7766 C   0  0  0  0  0  0  0  0  0  0  0  0
  2  1  1  0
  3  2  1  0
  4  3  1  0
  5  4  1  0
  6  3  1  0
  7  6  1  0
  8  2  1  0
 10  4  1  0
 10  5  1  0
 11  7  1  0
 11  9  1  0
 12  3  1  0
 13  4  1  0
 13 10  1  0
 14  5  1  0
 15 14  1  0
 16 14  1  0
 17 14  1  0
M  END
$$$$

     RDKit          3D

 27 36  0  0  0  0  0  0  0  0999 V2000
  -22.9551    3.9041  148.2757 N   0  0  0  0  0  0  0  0  0  0  0  0
  -21.7579    3.0580  148.0328 C   0  0  0  0  0  0  0  0  0  0  0  0
  -20.4758    3.8030  147.9443 N   0  0  0  0  0  0  0  0  0  0  0  0
  -21.6362    2.0997  149.1541 N   0  0  0  0  0  0  0  0  0  0  0  0
  -22.8089    1.1898  149.2958 C   0  0  0  0  0  0  0  0  0  0  0  0
  -23.2345    1.6481  150.5564 O   0  0  0  0  0  0  0  0  0  0  0  0
  -22.2474   -0.2365  149.5439 C   0  0  0  0  0  0  0  0  0  0  0  0
  -21.4364   -1.4109  149.1554 C   0  0  0  0  0  0  0  0  0  0  0  0
  -21.5556    0.7559  148.6602 C   0  0  0  0  0  0  0  0  0  0  0  0
  -21.3497   -2.4195  150.2009 N   0  0  0  0  0  0  0  0  0  0  0  0
  -23.4622    4.3484  146.9338 C   0  0  0  0  0  0  0  0  0  0  0  0
  -24.8697    4.9815  146.7251 C   0  0  0  0  0  0  0  0  0  0  0  0
  -20.7743   -0.1477  149.5123 N   0  0  0  0  0  0  0  0  0  0  0  0
  -22.9171    5.3191  147.9403 C   0  0  0  0  0  0  0  0  0  0  0  0
  -20.4932    5.2157  148.3778 C   0  0  0  0  0  0  0  0  0  0  0  0
  -24.7806    3.5292  146.8582 C   0  0  0  0  0  0  0  0  0  0  0  0
  -19.1774    5.9407  147.9078 C   0  0  0  0  0  0  0  0  0  0  0  0
  -17.8986    5.7613  148.7331 C   0  0  0  0  0  0  0  0  0  0  0  0
  -18.0705    4.8931  149.9725 C   0  0  0  0  0  0  0  0  0  0  0  0
  -21.5882    5.8682  147.6320 N   0  0  0  0  0  0  0  0  0  0  0  0
  -19.2728    5.3967  150.7835 C   0  0  0  0  0  0  0  0  0  0  0  0
  -20.6433    5.3525  149.9783 C   0  0  0  0  0  0  0  0  0  0  0  0
  -18.0072    5.0967  147.3753 C   0  0  0  0  0  0  0  0  0  0  0  0
  -21.6181    6.5075  150.4174 C   0  0  0  0  0  0  0  0  0  0  0  0
  -21.3407    7.1156  151.7707 C   0  0  0  0  0  0  0  0  0  0  0  0
  -20.0914    7.2714  152.2123 C   0  0  0  0  0  0  0  0  0  0  0  0
  -18.9686    6.8162  151.3468 C   0  0  0  0  0  0  0  0  0  0  0  0
  2  1  1  0
  3  2  1  0
  4  2  1  0
  5  4  1  0
  6  5  1  0
  7  5  1  0
  8  7  1  0
  9  4  1  0
  9  5  1  0
  9  7  1  0
 10  8  1  0
 11  1  1  0
 12 11  1  0
 13  7  1  0
 13  8  1  0
 13  9  1  0
 14  1  1  0
 14 11  1  0
 15  3  1  0
 16 11  1  0
 16 12  1  0
 17 15  1  0
 18 17  1  0
 19 18  1  0
 20 14  1  0
 20 15  1  0
 21 19  1  0
 22 15  1  0
 22 21  1  0
 23 17  1  0
 23 18  1  0
 24 22  1  0
 25 24  1  0
 26 25  2  0
 27 21  1  0
 27 26  1  0
M  END
$$$$

     RDKit          3D

 27 31  0  0  0  0  0  0  0  0999 V2000
  -25.9716  -16.4948  138.3008 N   0  0  0  0  0  0  0  0  0  0  0  0
  -26.9124  -15.7155  139.0738 C   0  0  0  0  0  0  0  0  0  0  0  0
  -26.9867  -16.1253  140.4601 N   0  0  0  0  0  0  0  0  0  0  0  0
  -28.3302  -16.5597  140.8741 C   0  0  0  0  0  0  0  0  0  0  0  0
  -24.6977  -16.3262  138.1147 C   0  0  0  0  0  0  0  0  0  0  0  0
  -23.9101  -15.2392  138.7586 C   0  0  0  0  0  0  0  0  0  0  0  0
  -29.1586  -15.3882  141.4645 C   0  0  0  0  0  0  0  0  0  0  0  0
  -24.0052  -17.3559  137.3858 N   0  0  0  0  0  0  0  0  0  0  0  0
  -24.8289  -18.3153  136.6099 C   0  0  0  0  0  0  0  0  0  0  0  0
  -28.0358  -16.5677  139.4395 C   0  0  0  0  0  0  0  0  0  0  0  0
  -24.0765  -19.3428  135.8006 N   0  0  0  0  0  0  0  0  0  0  0  0
  -24.6830  -12.9245  139.7572 C   0  0  0  0  0  0  0  0  0  0  0  0
  -29.8724  -15.8392  142.7417 C   0  0  0  0  0  0  0  0  0  0  0  0
  -31.2123  -15.1831  142.8213 N   0  0  0  0  0  0  0  0  0  0  0  0
  -23.3159  -20.4086  136.5855 C   0  0  0  0  0  0  0  0  0  0  0  0
  -22.7886  -21.4711  135.7128 N   0  0  0  0  0  0  0  0  0  0  0  0
  -24.0582  -21.0119  137.7288 N   0  0  0  0  0  0  0  0  0  0  0  0
  -30.1621  -14.8579  143.7978 C   0  0  0  0  0  0  0  0  0  0  0  0
  -24.1293  -22.0639  133.6992 C   0  0  0  0  0  0  0  0  0  0  0  0
  -25.0380  -19.8785  134.7728 C   0  0  0  0  0  0  0  0  0  0  0  0
  -23.7950  -22.4150  135.1573 C   0  0  0  0  0  0  0  0  0  0  0  0
  -24.3567  -20.5443  133.5312 C   0  0  0  0  0  0  0  0  0  0  0  0
  -24.3824  -14.0957  139.2366 C   0  0  0  0  0  0  0  0  0  0  0  0
  -26.0823  -12.5673  140.1587 C   0  0  0  0  0  0  0  0  0  0  0  0
  -24.4356  -20.1472  138.8799 C   0  0  0  0  0  0  0  0  0  0  0  0
  -25.7436  -20.5414  139.5304 C   0  0  0  0  0  0  0  0  0  0  0  0
  -24.4319  -20.8192  140.2482 C   0  0  0  0  0  0  0  0  0  0  0  0
  2  1  1  0
  3  2  1  0
  4  3  1  0
  5  1  2  3
  6  5  1  0
  7  4  1  0
  8  5  1  0
  9  8  1  0
 10  2  1  0
 10  3  1  0
 10  4  1  0
 11  9  1  0
 13  7  1  0
 14 13  1  0
 15 11  1  0
 16 15  1  0
 17 15  1  0
 18 13  1  0
 18 14  1  0
 20 11  1  0
 21 16  1  0
 21 19  1  0
 22 19  1  0
 22 20  1  0
 23  6  2  0
 23 12  2  0
 24 12  1  0
 25 17  1  0
 26 25  1  0
 27 25  1  0
 27 26  1  0
M  END
$$$$

     RDKit          3D

 27 31  0  0  0  0  0  0  0  0999 V2000
  -26.3712  -17.8882  137.6300 C   0  0  0  0  0  0  0  0  0  0  0  0
  -26.9419  -16.6526  137.5933 C   0  0  0  0  0  0  0  0  0  0  0  0
  -25.9635  -19.1151  137.5613 C   0  0  0  0  0  0  0  0  0  0  0  0
  -25.3444  -19.7369  138.7374 N   0  0  0  0  0  0  0  0  0  0  0  0
  -27.0064  -20.0064  136.9122 C   0  0  0  0  0  0  0  0  0  0  0  0
  -23.8970  -19.5488  139.0467 C   0  0  0  0  0  0  0  0  0  0  0  0
  -27.6450  -15.9567  138.7094 C   0  0  0  0  0  0  0  0  0  0  0  0
  -22.8756  -20.5284  138.3159 C   0  0  0  0  0  0  0  0  0  0  0  0
  -27.9587  -16.4845  140.1597 C   0  0  0  0  0  0  0  0  0  0  0  0
  -29.4000  -17.1008  140.5621 C   0  0  0  0  0  0  0  0  0  0  0  0
  -30.7527  -16.5067  140.0004 C   0  0  0  0  0  0  0  0  0  0  0  0
  -22.9588  -21.0932  136.9072 C   0  0  0  0  0  0  0  0  0  0  0  0
  -21.7098  -21.1800  139.1770 C   0  0  0  0  0  0  0  0  0  0  0  0
  -23.0388  -21.9687  138.8272 C   0  0  0  0  0  0  0  0  0  0  0  0
  -21.8563  -20.8164  136.0132 O   0  0  0  0  0  0  0  0  0  0  0  0
  -23.0203  -22.4818  137.3938 C   0  0  0  0  0  0  0  0  0  0  0  0
  -31.0565  -16.3199  138.4652 C   0  0  0  0  0  0  0  0  0  0  0  0
  -24.3099  -22.5517  136.6227 C   0  0  0  0  0  0  0  0  0  0  0  0
  -31.4859  -17.6768  137.6198 C   0  0  0  0  0  0  0  0  0  0  0  0
  -31.1077  -15.2237  140.8113 C   0  0  0  0  0  0  0  0  0  0  0  0
  -26.7149  -16.9181  141.0212 C   0  0  0  0  0  0  0  0  0  0  0  0
  -26.3446  -20.8620  139.7136 Cl  0  0  0  0  0  0  0  0  0  0  0  0
  -30.8802  -17.6141  136.1935 C   0  0  0  0  0  0  0  0  0  0  0  0
  -24.1759  -21.1673  136.2124 O   0  0  0  0  0  0  0  0  0  0  0  0
  -30.2716  -18.5958  137.3375 C   0  0  0  0  0  0  0  0  0  0  0  0
  -30.8526  -19.9388  137.7966 C   0  0  0  0  0  0  0  0  0  0  0  0
  -30.4302  -19.7776  136.5004 O   0  0  0  0  0  0  0  0  0  0  0  0
  2  1  2  0
  3  1  2  0
  4  3  1  0
  5  3  1  0
  6  4  1  0
  7  2  1  0
  8  6  1  0
  9  7  1  0
 10  9  1  0
 11 10  1  0
 12  8  1  0
 13  8  1  0
 14  8  1  0
 14 13  1  0
 15 12  1  0
 16 12  1  0
 16 14  1  0
 17 11  1  0
 18 16  1  0
 19 17  1  0
 20 11  1  0
 21  9  1  0
 22  4  1  0
 23 19  1  0
 24 12  1  0
 24 18  1  0
 25 19  1  0
 25 23  1  0
 26 25  1  0
 27 25  1  0
 27 26  1  0
M  END
$$$$

     RDKit          3D

 27 35  0  0  0  0  0  0  0  0999 V2000
  -32.0734   -6.7564  143.6985 C   0  0  0  0  0  0  0  0  0  0  0  0
  -32.8385   -7.4936  142.4009 C   0  0  0  0  0  0  0  0  0  0  0  0
  -32.1437   -7.3683  140.9308 C   0  0  0  0  0  0  0  0  0  0  0  0
  -30.7035   -5.7797  143.5537 C   0  0  0  0  0  0  0  0  0  0  0  0
  -30.2278   -4.5007  142.4583 C   0  0  0  0  0  0  0  0  0  0  0  0
  -31.4788   -6.1283  141.0958 C   0  0  0  0  0  0  0  0  0  0  0  0
  -29.8572   -5.6100  144.8182 C   0  0  0  0  0  0  0  0  0  0  0  0
  -31.8008   -7.9294  144.6847 C   0  0  0  0  0  0  0  0  0  0  0  0
  -33.0728   -8.9251  142.8509 C   0  0  0  0  0  0  0  0  0  0  0  0
  -30.8931   -9.0559  144.1465 C   0  0  0  0  0  0  0  0  0  0  0  0
  -28.3653   -5.4234  144.4418 C   0  0  0  0  0  0  0  0  0  0  0  0
  -31.9913   -5.1827  140.1376 C   0  0  0  0  0  0  0  0  0  0  0  0
  -34.4920   -9.4637  142.7248 C   0  0  0  0  0  0  0  0  0  0  0  0
  -30.1314   -9.9806  145.1127 C   0  0  0  0  0  0  0  0  0  0  0  0
  -30.6178   -4.5179  140.7707 C   0  0  0  0  0  0  0  0  0  0  0  0
  -32.3927   -9.2391  144.1652 C   0  0  0  0  0  0  0  0  0  0  0  0
  -30.2302   -9.6412  146.6111 C   0  0  0  0  0  0  0  0  0  0  0  0
  -33.3737  -10.0570  141.8725 C   0  0  0  0  0  0  0  0  0  0  0  0
  -27.9848   -5.7928  142.9644 C   0  0  0  0  0  0  0  0  0  0  0  0
  -27.7739   -7.3056  142.7362 C   0  0  0  0  0  0  0  0  0  0  0  0
  -28.9621   -5.1133  141.9280 C   0  0  0  0  0  0  0  0  0  0  0  0
  -26.6376   -7.6735  141.7975 C   0  0  0  0  0  0  0  0  0  0  0  0
  -29.3482  -10.5680  147.4665 C   0  0  0  0  0  0  0  0  0  0  0  0
  -26.4836   -7.8828  143.3008 C   0  0  0  0  0  0  0  0  0  0  0  0
  -29.9042   -5.7982  140.8390 C   0  0  0  0  0  0  0  0  0  0  0  0
  -27.8573  -10.2155  147.3843 C   0  0  0  0  0  0  0  0  0  0  0  0
  -32.7182   -6.5590  139.7417 C   0  0  0  0  0  0  0  0  0  0  0  0
  2  1  1  0
  3  2  1  0
  4  1  1  0
  5  4  1  0
  6  3  1  0
  7  4  1  0
  8  1  1  0
  9  2  1  0
 10  8  1  0
 11  7  1  0
 12  6  1  0
 13  9  1  0
 14 10  1  0
 15  5  1  0
 15 12  1  0
 16  8  1  0
 16  9  1  0
 16 10  1  0
 17 14  1  0
 18  9  1  0
 18 13  1  0
 19 11  1  0
 20 19  1  0
 21  5  1  0
 21 19  1  0
 22 20  1  0
 23 17  1  0
 24 20  1  0
 24 22  1  0
 25  6  1  0
 25 15  1  0
 25 21  1  0
 26 23  1  0
 27  3  1  0
 27 12  1  0
M  END
$$$$

     RDKit          3D

 27 28  0  0  0  0  0  0  0  0999 V2000
  -26.9586   -3.0926  140.2424 C   0  0  0  0  0  0  0  0  0  0  0  0
  -28.3212   -2.7008  139.7222 C   0  0  0  0  0  0  0  0  0  0  0  0
  -28.4004   -1.1976  139.4141 C   0  0  0  0  0  0  0  0  0  0  0  0
  -26.8230   -3.8738  141.3266 C   0  0  0  0  0  0  0  0  0  0  0  0
  -28.0614   -0.3236  140.6455 C   0  0  0  0  0  0  0  0  0  0  0  0
  -28.9432    0.9365  140.7532 C   0  0  0  0  0  0  0  0  0  0  0  0
  -25.4670   -4.2407  141.8597 C   0  0  0  0  0  0  0  0  0  0  0  0
  -24.8062   -3.0600  142.5250 C   0  0  0  0  0  0  0  0  0  0  0  0
  -30.3542    0.6560  141.3065 C   0  0  0  0  0  0  0  0  0  0  0  0
  -30.3312    0.3264  142.8125 C   0  0  0  0  0  0  0  0  0  0  0  0
  -31.1541    1.0921  143.8641 C   0  0  0  0  0  0  0  0  0  0  0  0
  -32.1366    2.2434  143.5520 C   0  0  0  0  0  0  0  0  0  0  0  0
  -31.7521    3.6000  144.1867 C   0  0  0  0  0  0  0  0  0  0  0  0
  -30.5192    4.2724  143.5458 C   0  0  0  0  0  0  0  0  0  0  0  0
  -31.6642   -0.2333  143.2992 C   0  0  0  0  0  0  0  0  0  0  0  0
  -29.2169    3.5370  143.7062 C   0  0  0  0  0  0  0  0  0  0  0  0
  -23.5852   -3.1747  143.0612 C   0  0  0  0  0  0  0  0  0  0  0  0
  -28.6706    3.1040  144.8590 C   0  0  0  0  0  0  0  0  0  0  0  0
  -29.3028    3.1007  146.2345 C   0  0  0  0  0  0  0  0  0  0  0  0
  -31.7692    3.5847  145.7419 C   0  0  0  0  0  0  0  0  0  0  0  0
  -22.8771   -1.9699  143.6234 C   0  0  0  0  0  0  0  0  0  0  0  0
  -21.4585   -2.3040  144.1033 C   0  0  0  0  0  0  0  0  0  0  0  0
  -21.4691   -3.0262  145.4609 C   0  0  0  0  0  0  0  0  0  0  0  0
  -30.4799    4.0561  146.4411 C   0  0  0  0  0  0  0  0  0  0  0  0
  -20.0793   -3.5626  145.8392 C   0  0  0  0  0  0  0  0  0  0  0  0
  -19.6680   -4.7259  144.9718 C   0  0  0  0  0  0  0  0  0  0  0  0
  -20.2730   -5.9180  145.0626 C   0  0  0  0  0  0  0  0  0  0  0  0
  2  1  1  0
  3  2  1  0
  4  1  2  3
  5  3  1  0
  6  5  1  0
  7  4  1  0
  8  7  1  0
  9  6  1  0
 10  9  1  0
 11 10  1  0
 12 11  1  0
 13 12  1  0
 14 13  1  0
 15 10  1  0
 15 11  1  0
 16 14  1  0
 17  8  2  3
 18 16  2  0
 19 18  1  0
 20 13  1  0
 21 17  1  0
 22 21  1  0
 23 22  1  0
 24 19  1  0
 24 20  1  0
 25 23  1  0
 26 25  1  0
 27 26  2  0
M  END
$$$$

     RDKit          3D

  6  7  0  0  0  0  0  0  0  0999 V2000
  -20.6426   -8.4181  140.8593 C   0  0  0  0  0  0  0  0  0  0  0  0
  -21.0878   -7.7422  142.1383 C   0  0  0  0  0  0  0  0  0  0  0  0
  -20.9505   -8.5161  138.3702 C   0  0  0  0  0  0  0  0  0  0  0  0
  -20.9011   -6.2418  142.0924 C   0  0  0  0  0  0  0  0  0  0  0  0
  -19.9878   -7.1128  141.2588 C   0  0  0  0  0  0  0  0  0  0  0  0
  -21.6486   -8.3116  139.7095 C   0  0  0  0  0  0  0  0  0  0  0  0
  2  1  1  0
  4  2  1  0
  5  1  1  0
  5  2  1  0
  5  4  1  0
  6  1  1  0
  6  3  1  0
M  END
$$$$

     RDKit          3D

 18 19  0  0  0  0  0  0  0  0999 V2000
  -24.4798    1.1915  139.6688 C   0  0  0  0  0  0  0  0  0  0  0  0
  -25.4935    3.3067  138.5191 C   0  0  0  0  0  0  0  0  0  0  0  0
  -23.7316   -0.1343  139.4462 C   0  0  0  0  0  0  0  0  0  0  0  0
  -26.7290    3.2815  139.4526 C   0  0  0  0  0  0  0  0  0  0  0  0
  -27.5694    4.5621  139.4042 C   0  0  0  0  0  0  0  0  0  0  0  0
  -27.0005    5.6099  140.3106 C   0  0  0  0  0  0  0  0  0  0  0  0
  -22.3221   -0.0190  138.8255 C   0  0  0  0  0  0  0  0  0  0  0  0
  -24.3974    4.3469  138.9500 C   0  0  0  0  0  0  0  0  0  0  0  0
  -23.1049    4.2630  138.0863 C   0  0  0  0  0  0  0  0  0  0  0  0
  -21.3422    0.7855  139.6945 C   0  0  0  0  0  0  0  0  0  0  0  0
  -23.3191    4.4599  136.5771 C   0  0  0  0  0  0  0  0  0  0  0  0
  -25.7894    6.1442  140.1202 C   0  0  0  0  0  0  0  0  0  0  0  0
  -19.9441    0.8002  139.0647 C   0  0  0  0  0  0  0  0  0  0  0  0
  -24.9154    5.8092  138.9398 C   0  0  0  0  0  0  0  0  0  0  0  0
  -19.0588    1.8376  139.7660 C   0  0  0  0  0  0  0  0  0  0  0  0
  -24.9526    1.8527  138.3553 C   0  0  0  0  0  0  0  0  0  0  0  0
  -17.5684    1.5407  139.7347 C   0  0  0  0  0  0  0  0  0  0  0  0
  -18.3490    1.3754  141.0299 C   0  0  0  0  0  0  0  0  0  0  0  0
  3  1  1  0
  4  2  1  0
  5  4  1  0
  6  5  1  0
  7  3  1  0
  8  2  1  0
  9  8  1  0
 10  7  1  0
 11  9  1  0
 12  6  2  0
 13 10  1  0
 14  8  1  0
 14 12  1  0
 15 13  1  0
 16  1  1  0
 16  2  1  0
 17 15  1  0
 18 15  1  0
 18 17  1  0
M  END
$$$$

     RDKit          3D

 27 36  0  0  0  0  0  0  0  0999 V2000
  -30.6550   -9.0382  136.6731 N   0  0  0  0  0  0  0  0  0  0  0  0
  -32.2001   -7.2103  136.8031 C   0  0  0  0  0  0  0  0  0  0  0  0
  -29.8335   -7.1615  137.1480 C   0  0  0  0  0  0  0  0  0  0  0  0
  -29.9183   -5.7950  137.6562 N   0  0  0  0  0  2  0  0  0  0  0  0
  -28.4702   -5.7014  137.4050 C   0  0  0  0  0  0  0  0  0  0  0  0
  -28.0876   -4.7515  136.3360 N   0  0  0  0  0  0  0  0  0  0  0  0
  -27.7570   -5.4752  138.5842 O   0  0  0  0  0  1  0  0  0  0  0  0
  -30.8652   -7.6741  136.1483 C   0  0  0  0  0  0  0  0  0  0  0  0
  -30.4270   -8.3162  137.9309 C   0  0  0  0  0  0  0  0  0  0  0  0
  -33.6201   -8.0038  136.0553 Cl  0  0  0  0  0  0  0  0  0  0  0  0
  -28.3385   -7.1320  136.8887 C   0  0  0  0  0  0  0  0  0  0  0  0
  -33.7245   -8.0633  141.8852 N   0  0  0  0  0  0  0  0  0  0  0  0
  -32.9364   -7.0795  142.6534 C   0  0  0  0  0  0  0  0  0  0  0  0
  -32.2202   -7.1901  139.5405 C   0  0  0  0  0  0  0  0  0  0  0  0
  -32.9101   -5.8812  139.7114 C   0  0  0  0  0  0  0  0  0  0  0  0
  -31.2032   -6.9786  140.6218 C   0  0  0  0  0  0  0  0  0  0  0  0
  -32.8126   -8.5078  142.9563 C   0  0  0  0  0  0  0  0  0  0  0  0
  -32.8086   -8.5159  139.0690 C   0  0  0  0  0  0  0  0  0  0  0  0
  -31.8096   -7.7402  138.1949 C   0  0  0  0  0  0  0  0  0  0  0  0
  -31.8722   -5.5696  140.8148 C   0  0  0  0  0  0  0  0  0  0  0  0
  -31.6648   -6.5083  141.9908 C   0  0  0  0  0  0  0  0  0  0  0  0
  -27.9220   -7.0206  135.4361 C   0  0  0  0  0  0  0  0  0  0  0  0
  -27.8390   -5.5457  135.1234 C   0  0  0  0  0  0  0  0  0  0  0  0
  -29.1312   -3.7574  136.0528 C   0  0  0  0  0  0  0  0  0  0  0  0
  -29.1518   -2.5807  137.0123 C   0  0  0  0  0  0  0  0  0  0  0  0
  -26.5651   -6.3737  135.1807 C   0  0  0  0  0  0  0  0  0  0  0  0
  -28.5570   -2.4186  135.6242 C   0  0  0  0  0  0  0  0  0  0  0  0
  4  3  1  0
  5  4  1  0
  6  5  1  0
  7  5  1  0
  8  1  1  0
  8  2  1  0
  8  3  1  0
  9  1  1  0
  9  3  1  0
 10  2  1  0
 11  3  1  0
 11  5  1  0
 13 12  1  0
 15 14  1  0
 16 14  1  0
 17 12  1  0
 17 13  1  0
 18 14  1  0
 19  2  1  0
 19  9  1  0
 19 14  1  0
 19 18  1  0
 20 15  1  0
 20 16  1  0
 21 13  1  0
 21 16  1  0
 21 20  1  0
 22 11  1  0
 23  6  1  0
 23 22  1  0
 24  6  1  0
 25 24  1  0
 26 22  1  0
 26 23  1  0
 27 24  1  0
 27 25  1  0
M  RAD  2   4   2   7   2
M  END
$$$$

     RDKit          3D

 27 32  0  0  0  0  0  0  0  0999 V2000
  -18.7991   -6.4262  142.2755 C   0  0  0  0  0  0  0  0  0  0  0  0
  -18.2797   -5.0659  142.1454 C   0  0  0  0  0  0  0  0  0  0  0  0
  -16.7476   -4.9286  142.0268 C   0  0  0  0  0  0  0  0  0  0  0  0
  -19.9017   -6.4321  143.2323 C   0  0  0  0  0  0  0  0  0  0  0  0
  -15.9885   -5.1413  143.3570 C   0  0  0  0  0  0  0  0  0  0  0  0
  -15.8890   -4.0170  144.3981 C   0  0  0  0  0  0  0  0  0  0  0  0
  -19.8822   -7.5483  144.1662 N   0  0  0  0  0  0  0  0  0  0  0  0
  -16.6517   -2.6949  144.1445 C   0  0  0  0  0  0  0  0  0  0  0  0
  -17.1809   -2.1052  145.4821 C   0  0  0  0  0  0  0  0  0  0  0  0
  -18.7705   -5.5170  143.4638 N   0  0  0  0  0  0  0  0  0  0  0  0
  -16.1626   -1.2560  146.2914 C   0  0  0  0  0  0  0  0  0  0  0  0
  -18.6117   -1.6056  145.6941 C   0  0  0  0  0  0  0  0  0  0  0  0
  -14.7142   -4.3055  143.4639 C   0  0  0  0  0  0  0  0  0  0  0  0
  -15.7724   -0.0674  145.5237 N   0  0  0  0  0  0  0  0  0  0  0  0
  -19.5783   -2.5537  146.3639 C   0  0  0  0  0  0  0  0  0  0  0  0
  -17.6326   -3.4210  147.5620 C   0  0  0  0  0  0  0  0  0  0  0  0
  -19.2460   -1.2864  144.3213 C   0  0  0  0  0  0  0  0  0  0  0  0
  -18.2408   -4.7430  148.0809 C   0  0  0  0  0  0  0  0  0  0  0  0
  -17.7273   -5.1403  149.4580 C   0  0  0  0  0  0  0  0  0  0  0  0
  -16.4135    1.0642  145.4395 C   0  0  0  0  0  0  0  0  0  0  0  0
  -18.1729   -3.0675  146.1463 C   0  0  0  0  0  0  0  0  0  0  0  0
  -18.3272   -5.9216  147.1025 C   0  0  0  0  0  0  0  0  0  0  0  0
  -19.7088   -3.2228  150.4897 Al  0  0  0  0  0  3  0  0  0  0  0  0
  -17.6403    1.3726  146.2047 C   0  0  0  0  0  0  0  0  0  0  0  0
  -18.8105   -1.4426  150.4329 C   0  0  0  0  0  0  0  0  0  0  0  0
  -18.3627    2.4568  145.9307 C   0  0  0  0  0  0  0  0  0  0  0  0
  -19.2027   -4.7684  149.2810 C   0  0  0  0  0  0  0  0  0  0  0  0
  2  1  1  0
  3  2  1  0
  4  1  1  0
  5  3  1  0
  6  5  1  0
  7  4  1  0
  8  6  1  0
  9  8  1  0
 10  1  1  0
 10  2  1  0
 10  4  1  0
 11  9  1  0
 12  9  1  0
 13  5  1  0
 13  6  1  0
 14 11  1  0
 15 12  1  0
 17 12  1  0
 18 16  1  0
 19 18  1  0
 20 14  2  3
 21  9  1  0
 21 12  1  0
 21 15  1  0
 21 16  1  0
 22 18  1  0
 24 20  1  0
 25 23  1  0
 26 24  2  0
 27 18  1  0
 27 19  1  0
 27 23  1  0
M  END
$$$$

     RDKit          3D

 27 34  0  0  0  0  0  0  0  0999 V2000
  -21.6434  -10.6924  144.2744 O   0  0  0  0  0  0  0  0  0  0  0  0
  -20.8372  -11.1037  143.1701 C   0  0  0  0  0  0  0  0  0  0  0  0
  -18.8575  -10.5393  141.8328 N   0  0  0  0  0  0  0  0  0  0  0  0
  -18.7422   -9.6240  140.7389 C   0  0  0  0  0  0  0  0  0  0  0  0
  -18.8455   -9.9326  144.3074 C   0  0  0  0  0  0  0  0  0  0  0  0
  -17.4519   -9.3083  140.1984 N   0  0  0  0  0  0  0  0  0  0  0  0
  -16.3850   -8.6699  140.9759 C   0  0  0  0  0  0  0  0  0  0  0  0
  -16.9444   -7.6417  141.8748 N   0  0  0  0  0  0  0  0  0  0  0  0
  -19.6643  -10.1541  142.9964 C   0  0  0  0  0  0  0  0  0  0  0  0
  -19.7938   -9.1604  140.1158 N   0  0  0  0  0  0  0  0  0  0  0  0
  -21.7329  -11.2544  141.8452 C   0  0  0  0  0  0  0  0  0  0  0  0
  -15.6174   -9.6974  141.8148 C   0  0  0  0  0  0  0  0  0  0  0  0
  -15.8636   -6.7293  142.3001 C   0  0  0  0  0  0  0  0  0  0  0  0
  -22.5740  -11.7231  144.3934 C   0  0  0  0  0  0  0  0  0  0  0  0
  -23.5382  -11.2228  143.3010 C   0  0  0  0  0  0  0  0  0  0  0  0
  -23.2052  -11.6560  145.7608 C   0  0  0  0  0  0  0  0  0  0  0  0
  -18.2825  -12.3399  145.2796 C   0  0  0  0  0  0  0  0  0  0  0  0
  -22.9978  -11.8775  142.1668 O   0  0  0  0  0  0  0  0  0  0  0  0
  -15.9067   -6.5262  143.8119 C   0  0  0  0  0  0  0  0  0  0  0  0
  -24.1004  -11.8234  144.5500 C   0  0  0  0  0  0  0  0  0  0  0  0
  -21.2350   -9.2286  140.2608 C   0  0  0  0  0  0  0  0  0  0  0  0
  -15.1878   -8.9241  143.0434 C   0  0  0  0  0  0  0  0  0  0  0  0
  -22.0169   -9.9629  141.0896 C   0  0  0  0  0  0  0  0  0  0  0  0
  -16.3560   -5.4234  142.8683 C   0  0  0  0  0  0  0  0  0  0  0  0
  -16.2562   -7.8481  143.1637 C   0  0  0  0  0  0  0  0  0  0  0  0
  -19.3702  -12.2139  146.3452 C   0  0  0  0  0  0  0  0  0  0  0  0
  -17.7795  -10.9871  144.7235 C   0  0  0  0  0  0  0  0  0  0  0  0
  2  1  1  0
  4  3  1  0
  6  4  1  0
  7  6  1  0
  8  7  1  0
  9  2  1  0
  9  3  1  0
  9  5  1  0
 10  4  2  3
 11  2  1  0
 12  7  1  0
 13  8  1  0
 14  1  1  0
 15 14  1  0
 16 14  1  0
 18 11  1  0
 18 15  1  0
 19 13  1  0
 20 14  1  0
 20 15  1  0
 20 16  1  0
 21 10  1  0
 22 12  1  0
 23 11  1  0
 23 21  2  3
 24 13  1  0
 24 19  1  0
 25  8  1  0
 25 13  1  0
 25 19  1  0
 25 22  1  0
 26 17  1  0
 27  5  1  0
 27 17  1  0
M  END
$$$$

     RDKit          3D

 26 29  0  0  0  0  0  0  0  0999 V2000
  -25.5733   -0.0729  130.5784 C   0  0  0  0  0  0  0  0  0  0  0  0
  -24.8089   -1.2403  130.3457 O   0  0  0  0  0  0  0  0  0  0  0  0
  -25.0958   -0.3314  133.1968 C   0  0  0  0  0  0  0  0  0  0  0  0
  -27.3837   -0.5582  132.1738 N   0  0  0  0  0  0  0  0  0  0  0  0
  -24.0014   -1.4171  132.9679 C   0  0  0  0  0  0  0  0  0  0  0  0
  -22.9024   -0.9365  131.9703 C   0  0  0  0  0  0  0  0  0  0  0  0
  -23.9042   -3.9470  133.5864 C   0  0  0  0  0  0  0  0  0  0  0  0
  -24.5462   -3.5456  136.0347 C   0  0  0  0  0  0  0  0  0  0  0  0
  -22.3922    0.3810  132.4354 N   0  0  0  0  0  0  0  0  0  0  0  0
  -21.3805    0.3514  133.5398 C   0  0  0  0  0  0  0  0  0  0  0  0
  -24.5582   -2.8503  132.6988 C   0  0  0  0  0  0  0  0  0  0  0  0
  -24.8101   -4.3650  134.7646 C   0  0  0  0  0  0  0  0  0  0  0  0
  -26.0655    0.0745  132.0286 C   0  0  0  0  0  0  0  0  0  0  0  0
  -21.5096    1.5649  134.5107 C   0  0  0  0  0  0  0  0  0  0  0  0
  -19.9320    0.0909  133.0245 C   0  0  0  0  0  0  0  0  0  0  0  0
  -18.8682    0.5146  134.0577 C   0  0  0  0  0  0  0  0  0  0  0  0
  -20.3408    2.5453  134.3871 C   0  0  0  0  0  0  0  0  0  0  0  0
  -18.1708    1.6684  133.6433 O   0  0  0  0  0  0  0  0  0  0  0  0
  -23.4010   -1.0505  130.4714 C   0  0  0  0  0  0  0  0  0  0  0  0
  -19.0364    1.8273  134.7327 C   0  0  0  0  0  0  0  0  0  0  0  0
  -22.7926   -0.2370  129.2780 C   0  0  0  0  0  0  0  0  0  0  0  0
  -21.5243    0.5692  129.5439 C   0  0  0  0  0  0  0  0  0  0  0  0
  -20.3895    0.4922  128.5946 C   0  0  0  0  0  0  0  0  0  0  0  0
  -21.4791    1.5116  130.4892 C   0  0  0  0  0  0  0  0  0  0  0  0
  -19.8076   -0.6606  128.2830 C   0  0  0  0  0  0  0  0  0  0  0  0
  -22.4791    1.5810  131.5798 C   0  0  0  0  0  0  0  0  0  0  0  0
  2  1  1  0
  5  3  1  0
  6  5  1  0
  9  6  1  0
 10  9  1  0
 11  5  1  0
 11  7  1  0
 12  7  1  0
 12  8  1  0
 13  1  1  0
 13  3  1  0
 13  4  1  0
 14 10  1  0
 15 10  1  0
 16 15  1  0
 17 14  1  0
 18 16  1  0
 19  2  1  0
 19  6  1  0
 20 16  1  0
 20 17  1  0
 20 18  1  0
 21 19  1  0
 22 21  1  0
 23 22  1  0
 24 22  2  0
 25 23  2  0
 26  9  1  0
 26 24  1  0
M  END
$$$$

     RDKit          3D

 27 30  0  0  0  0  0  0  0  0999 V2000
  -31.0896    0.1876  133.2101 O   0  0  0  0  0  0  0  0  0  0  0  0
  -28.0482   -2.4762  134.1056 C   0  0  0  0  0  0  0  0  0  0  0  0
  -27.7940   -4.7939  136.2947 O   0  0  0  0  0  0  0  0  0  0  0  0
  -30.6288   -1.6351  134.2459 C   0  0  0  0  0  0  0  0  0  0  0  0
  -29.9454   -3.4496  135.7746 C   0  0  0  0  0  0  0  0  0  0  0  0
  -38.5697   -8.5478  136.0097 N   0  0  0  0  0  0  0  0  0  0  0  0
  -28.2040   -3.2546  135.9649 C   0  0  0  0  0  0  0  0  0  0  0  0
  -28.5682   -5.7927  136.8793 O   0  0  0  0  0  0  0  0  0  0  0  0
  -35.9686   -5.0555  136.1203 C   0  0  0  0  0  0  0  0  0  0  0  0
  -34.8047   -8.9100  137.7026 C   0  0  0  0  0  0  0  0  0  0  0  0
  -34.5242   -8.5893  136.3624 C   0  0  0  0  0  0  0  0  0  0  0  0
  -31.8822   -5.6047  135.5798 C   0  0  0  0  0  0  0  0  0  0  0  0
  -33.4801   -7.4781  135.1295 C   0  0  0  0  0  0  0  0  0  0  0  0
  -29.2791   -6.7034  134.2410 C   0  0  0  0  0  0  0  0  0  0  0  0
  -32.9170   -9.6910  138.0637 C   0  0  0  0  0  0  0  0  0  0  0  0
  -35.3303   -3.4138  135.6988 C   0  0  0  0  0  0  0  0  0  0  0  0
  -32.6780   -2.7831  135.6135 C   0  0  0  0  0  0  0  0  0  0  0  0
  -36.7856   -7.5934  136.1604 C   0  0  0  0  0  0  0  0  0  0  0  0
  -37.3264   -8.7949  139.0014 C   0  0  0  0  0  0  0  0  0  0  0  0
  -31.4178   -6.7982  137.0232 C   0  0  0  0  0  0  0  0  0  0  0  0
  -40.9120   -9.3121  138.2956 C   0  0  0  0  0  0  0  0  0  0  0  0
  -33.0766   -7.8561  138.9195 C   0  0  0  0  0  0  0  0  0  0  0  0
  -43.3642  -10.0947  137.8859 C   0  0  0  0  0  0  0  0  0  0  0  0
  -30.7891   -7.4246  133.3754 C   0  0  0  0  0  0  0  0  0  0  0  0
  -29.4125   -6.7273  135.9996 C   0  0  0  0  0  0  0  0  0  0  0  0
  -32.3923   -8.0051  134.0506 O   0  0  0  0  0  0  0  0  0  0  0  0
  -35.0368   -7.1561  139.2668 C   0  0  0  0  0  0  0  0  0  0  0  0
  4  1  1  0
  4  2  1  0
  7  2  1  0
  7  3  1  0
  7  5  1  0
  8  3  1  0
 11 10  1  0
 13 11  1  0
 13 12  1  0
 15 10  1  0
 16  9  1  0
 17  4  1  0
 17  5  1  0
 17  9  1  0
 18  6  1  0
 18  9  1  0
 18 10  1  0
 20 12  1  0
 21 19  1  0
 22 15  1  0
 22 20  1  0
 23 21  2  0
 24 14  1  0
 25  8  1  0
 25 14  1  0
 25 20  1  0
 26 13  1  0
 26 24  1  0
 27 19  1  0
 27 22  1  0
M  END
$$$$

     RDKit          3D

 19 25  0  0  0  0  0  0  0  0999 V2000
  -27.9693   -3.3621  131.9710 N   0  0  0  0  0  0  0  0  0  0  0  0
  -28.0014   -1.9866  132.5151 C   0  0  0  0  0  0  0  0  0  0  0  0
  -26.9110   -3.5739  130.9434 C   0  0  0  0  0  0  0  0  0  0  0  0
  -27.3201   -3.0219  129.5944 C   0  0  0  0  0  0  0  0  0  0  0  0
  -28.1182   -1.8285  134.0317 C   0  0  0  0  0  0  0  0  0  0  0  0
  -28.1005   -3.0725  134.9515 C   0  0  0  0  0  0  0  0  0  0  0  0
  -29.0395   -1.2076  131.7484 C   0  0  0  0  0  0  0  0  0  0  0  0
  -26.1178   -2.3928  130.4035 C   0  0  0  0  0  0  0  0  0  0  0  0
  -28.7011    0.2173  131.5643 N   0  0  0  0  0  0  0  0  0  0  0  0
  -29.2055   -3.3299  135.9894 C   0  0  0  0  0  0  0  0  0  0  0  0
  -28.2431    0.5748  130.1977 C   0  0  0  0  0  0  0  0  0  0  0  0
  -28.5938   -0.3947  129.1617 N   0  0  0  0  0  2  0  0  0  0  0  0
  -27.9037   -2.6764  136.4199 C   0  0  0  0  0  0  0  0  0  0  0  0
  -27.1495   -0.4515  128.9390 C   0  0  0  0  0  0  0  0  0  0  0  0
  -30.4858   -2.4676  135.9839 C   0  0  0  0  0  0  0  0  0  0  0  0
  -26.7975    0.4545  130.0308 N   0  0  0  0  0  2  0  0  0  0  0  0
  -29.3636   -1.6366  133.1761 C   0  0  0  0  0  0  0  0  0  0  0  0
  -26.4969   -1.8795  129.0323 C   0  0  0  0  0  0  0  0  0  0  0  0
  -30.2378   -1.0927  136.1220 O   0  0  0  0  0  0  0  0  0  0  0  0
  2  1  1  0
  3  1  1  0
  4  3  1  0
  5  2  1  0
  6  5  1  0
  7  2  1  0
  8  3  1  0
  8  4  1  0
  9  7  1  0
 10  6  1  0
 11  9  1  0
 12 11  1  0
 13  6  1  0
 13 10  1  0
 14 12  1  0
 15 10  1  0
 16 11  1  0
 16 14  1  0
 17  2  1  0
 17  5  1  0
 17  7  1  0
 18  4  1  0
 18  8  1  0
 18 14  1  0
 19 15  1  0
M  RAD  2  12   2  16   2
M  END
$$$$

     RDKit          3D

 26 31  0  0  0  0  0  0  0  0999 V2000
  -28.4231   -2.2185  135.4686 O   0  0  0  0  0  0  0  0  0  0  0  0
  -28.8791   -2.1100  136.7336 C   0  0  0  0  0  0  0  0  0  0  0  0
  -30.1209   -1.5471  136.9739 C   0  0  0  0  0  0  0  0  0  0  0  0
  -30.2698   -0.6536  138.0161 C   0  0  0  0  0  0  0  0  0  0  0  0
  -29.1653   -0.8516  137.2498 C   0  0  0  0  0  0  0  0  0  0  0  0
  -27.4902   -3.1746  135.0013 C   0  0  0  0  0  0  0  0  0  0  0  0
  -27.5934   -1.6629  134.9721 C   0  0  0  0  0  0  0  0  0  0  0  0
  -27.9688   -3.1761  133.5516 C   0  0  0  0  0  0  0  0  0  0  0  0
  -28.7268   -1.9391  133.2564 C   0  0  0  0  0  0  0  0  0  0  0  0
  -29.2667   -1.9787  131.8931 C   0  0  0  0  0  0  0  0  0  0  0  0
  -28.2057   -4.5775  134.9673 C   0  0  0  0  0  0  0  0  0  0  0  0
  -30.3929   -1.6026  131.1240 C   0  0  0  0  0  0  0  0  0  0  0  0
  -30.1007   -1.3003  129.7339 C   0  0  0  0  0  0  0  0  0  0  0  0
  -30.2422   -1.5543  130.9640 C   0  0  0  0  0  0  0  0  0  0  0  0
  -30.1730   -1.2931  129.3120 C   0  0  0  0  0  0  0  0  0  0  0  0
  -29.3943   -0.6061  128.1987 C   0  0  0  0  0  0  0  0  0  0  0  0
  -27.9088   -4.2734  133.8936 C   0  0  0  0  0  0  0  0  0  0  0  0
  -28.4513   -3.9320  135.8665 C   0  0  0  0  0  0  0  0  0  0  0  0
  -30.1240   -2.5786  130.5367 C   0  0  0  0  0  0  0  0  0  0  0  0
  -27.1086   -0.9877  129.1748 C   0  0  0  0  0  0  0  0  0  0  0  0
  -28.1358   -2.0639  135.6206 C   0  0  0  0  0  0  0  0  0  0  0  0
  -27.5911   -2.1986  128.8991 C   0  0  0  0  0  0  0  0  0  0  0  0
  -27.5223   -2.7107  133.7588 C   0  0  0  0  0  0  0  0  0  0  0  0
  -27.4152    0.0452  128.0275 B   0  0  0  0  0  2  0  0  0  0  0  0
  -27.3124   -1.1629  127.3588 O   0  0  0  0  0  1  0  0  0  0  0  0
  -28.1159   -0.3885  128.8716 C   0  0  0  0  0  0  0  0  0  0  0  0
  3  2  1  0
  4  3  1  0
  5  2  1  0
  5  3  1  0
  5  4  1  0
  9  8  1  0
 10  9  1  0
 14 10  1  0
 14 12  1  0
 14 13  1  0
 15 13  1  0
 16 15  1  0
 17  8  1  0
 17 11  2  0
 18  6  1  0
 18 11  1  0
 19 13  1  0
 19 14  1  0
 21  1  1  0
 21  2  1  0
 21  6  1  0
 21  7  1  0
 22 20  1  0
 23  6  1  0
 23  7  1  0
 23  8  1  0
 24 20  1  0
 25 20  1  0
 26 16  1  0
 26 20  1  0
 26 24  1  0
M  RAD  2  24   2  25   2
M  END
$$$$

     RDKit          3D

 27 29  0  0  0  0  0  0  0  0999 V2000
  -18.1939   -6.3171  139.7325 O   0  0  0  0  0  0  0  0  0  0  0  0
  -19.6191   -7.2236  143.9787 C   0  0  0  0  0  0  0  0  0  0  0  0
  -21.5614   -7.7640  142.9252 C   0  0  0  0  0  0  0  0  0  0  0  0
  -16.8799   -5.0222  143.6878 C   0  0  0  0  0  0  0  0  0  0  0  0
  -18.3634   -7.7060  140.5747 C   0  0  0  0  0  0  0  0  0  0  0  0
  -18.1900   -2.7330  140.4851 C   0  0  0  0  0  0  0  0  0  0  0  0
  -20.0712   -1.5173  140.5933 C   0  0  0  0  0  0  0  0  0  0  0  0
  -20.0586   -4.3881  141.3508 C   0  0  0  0  0  0  0  0  0  0  0  0
  -20.2685   -6.8406  141.4042 C   0  0  0  0  0  0  0  0  0  0  0  0
  -20.3795   -1.6691  139.1563 C   0  0  0  0  0  0  0  0  0  0  0  0
  -19.1795   -9.8661  141.8692 C   0  0  0  0  0  0  0  0  0  0  0  0
  -20.8808   -6.0323  140.0644 O   0  0  0  0  0  0  0  0  0  0  0  0
  -19.4041   -2.2428  136.9591 C   0  0  0  0  0  0  0  0  0  0  0  0
  -20.4629   -7.7545  138.9395 C   0  0  0  0  0  0  0  0  0  0  0  0
  -21.3348   -2.7881  138.0963 C   0  0  0  0  0  0  0  0  0  0  0  0
  -19.6715   -0.7065  138.1941 C   0  0  0  0  0  0  0  0  0  0  0  0
  -21.3261   -2.5789  140.1035 C   0  0  0  0  0  0  0  0  0  0  0  0
  -21.3413   -5.9592  144.7474 C   0  0  0  0  0  0  0  0  0  0  0  0
  -18.7710   -7.5595  142.5770 C   0  0  0  0  0  0  0  0  0  0  0  0
  -19.5899   -2.7702  138.0644 C   0  0  0  0  0  0  0  0  0  0  0  0
  -16.0696   -5.9335  140.9096 C   0  0  0  0  0  0  0  0  0  0  0  0
  -16.8204   -4.2472  141.5052 C   0  0  0  0  0  0  0  0  0  0  0  0
  -21.6822   -0.4324  141.4384 C   0  0  0  0  0  0  0  0  0  0  0  0
  -17.8229   -7.0537  145.1272 C   0  0  0  0  0  0  0  0  0  0  0  0
  -21.4855  -10.0026  144.2095 C   0  0  0  0  0  0  0  0  0  0  0  0
  -18.8223   -3.1286  135.9683 C   0  0  0  0  0  0  0  0  0  0  0  0
  -17.7295   -2.9085  136.9172 C   0  0  0  0  0  0  0  0  0  0  0  0
  5  1  1  0
  7  6  1  0
  8  6  1  0
  9  8  1  0
 11  9  1  0
 12  8  1  0
 14 12  1  0
 15 13  1  0
 16 10  2  0
 17  7  1  0
 17 10  2  0
 17 15  1  0
 18  9  1  0
 19  2  1  0
 19  3  1  0
 19  5  1  0
 20 13  1  0
 20 16  1  0
 21 19  1  0
 22  4  1  0
 22  6  1  0
 22 21  1  0
 23  7  2  0
 24 18  1  0
 25  3  1  0
 26 13  1  0
 26 20  1  0
 27 13  1  0
 27 26  1  0
M  END
$$$$

     RDKit          3D

 27 33  0  0  0  0  0  0  0  0999 V2000
  -21.4122   -4.2423  140.8810 C   0  0  0  0  0  0  0  0  0  0  0  0
  -20.6469   -3.3308  139.8910 C   0  0  0  0  0  0  0  0  0  0  0  0
  -21.5448   -3.6267  142.2904 C   0  0  0  0  0  0  0  0  0  0  0  0
  -22.9017   -3.9115  143.0148 C   0  0  0  0  0  0  0  0  0  0  0  0
  -24.0447   -2.9758  142.4965 C   0  0  0  0  0  0  0  0  0  0  0  0
  -23.8554   -1.4414  142.7490 C   0  0  0  0  0  0  0  0  0  0  0  0
  -22.8172   -0.9040  143.6467 C   0  0  0  0  0  0  0  0  0  0  0  0
  -23.2443   -5.4301  142.9633 C   0  0  0  0  0  0  0  0  0  0  0  0
  -23.3941    0.1022  144.5227 C   0  0  0  0  0  0  0  0  0  0  0  0
  -24.2186   -1.0485  144.1277 N   0  0  0  0  0  0  0  0  0  0  0  0
  -24.6583   -5.7511  143.4642 C   0  0  0  0  0  0  0  0  0  0  0  0
  -25.7347   -4.8966  142.7699 C   0  0  0  0  0  0  0  0  0  0  0  0
  -25.4374   -3.4138  143.0133 C   0  0  0  0  0  0  0  0  0  0  0  0
  -20.9790   -3.6950  138.4591 C   0  0  0  0  0  0  0  0  0  0  0  0
  -25.8988   -5.2438  141.2796 C   0  0  0  0  0  0  0  0  0  0  0  0
  -19.1485   -3.1558  140.0872 C   0  0  0  0  0  0  0  0  0  0  0  0
  -18.3482   -3.6863  141.3130 C   0  0  0  0  0  0  0  0  0  0  0  0
  -18.1840   -5.1880  141.6830 C   0  0  0  0  0  0  0  0  0  0  0  0
  -17.0097   -5.4645  142.7035 C   0  0  0  0  0  0  0  0  0  0  0  0
  -19.6345   -4.1244  139.0165 C   0  0  0  0  0  0  0  0  0  0  0  0
  -16.3113   -4.5464  143.7400 C   0  0  0  0  0  0  0  0  0  0  0  0
  -17.9407   -6.0789  140.4452 C   0  0  0  0  0  0  0  0  0  0  0  0
  -16.5778   -3.0369  143.9656 C   0  0  0  0  0  0  0  0  0  0  0  0
  -17.5248   -2.7808  145.1387 C   0  0  0  0  0  0  0  0  0  0  0  0
  -18.7719   -3.5946  145.0063 C   0  0  0  0  0  0  0  0  0  0  0  0
  -18.7160   -4.8704  144.6086 C   0  0  0  0  0  0  0  0  0  0  0  0
  -17.4150   -5.5138  144.1954 C   0  0  0  0  0  0  0  0  0  0  0  0
  2  1  1  0
  3  1  1  0
  4  3  1  0
  5  4  1  0
  6  5  1  0
  7  6  1  0
  8  4  1  0
  9  7  1  0
 10  6  1  0
 10  7  1  0
 10  9  1  0
 11  8  1  0
 12 11  1  0
 13  5  1  0
 13 12  1  0
 14  2  1  0
 15 12  1  0
 16  2  1  0
 17 16  1  0
 18 17  1  0
 19 18  1  0
 20  2  1  0
 20 14  1  0
 20 16  1  0
 21 19  1  0
 22 18  1  0
 23 21  1  0
 24 23  1  0
 25 24  1  0
 26 25  2  0
 27 19  1  0
 27 21  1  0
 27 26  1  0
M  END
$$$$

     RDKit          3D

 11 11  0  0  0  0  0  0  0  0999 V2000
  -32.0350   -0.9064  139.8348 O   0  0  0  0  0  0  0  0  0  0  0  0
  -31.1133   -1.7966  139.2734 C   0  0  0  0  0  0  0  0  0  0  0  0
  -31.7114   -2.6636  138.1640 C   0  0  0  0  0  0  0  0  0  0  0  0
  -30.7713   -1.5101  137.8138 C   0  0  0  0  0  0  0  0  0  0  0  0
  -31.1183   -4.0758  138.0608 C   0  0  0  0  0  0  0  0  0  0  0  0
  -31.9350   -5.0554  138.9135 C   0  0  0  0  0  0  0  0  0  0  0  0
  -29.8075   -8.2136  139.3245 N   0  0  0  0  0  0  0  0  0  0  0  0
  -31.4780   -6.5131  138.7445 C   0  0  0  0  0  0  0  0  0  0  0  0
  -30.1268   -6.7922  139.4146 C   0  0  0  0  0  0  0  0  0  0  0  0
  -31.3989   -0.2869  137.1435 C   0  0  0  0  0  0  0  0  0  0  0  0
  -29.4798   -1.8535  137.4502 F   0  0  0  0  0  0  0  0  0  0  0  0
  2  1  1  0
  3  2  1  0
  4  2  1  0
  4  3  1  0
  5  3  1  0
  6  5  1  0
  8  6  1  0
  9  7  1  0
  9  8  1  0
 10  4  1  0
 11  4  1  0
M  END
$$$$

     RDKit          3D

 11 13  0  0  0  0  0  0  0  0999 V2000
  -29.7028   -5.8471  144.3923 O   0  0  0  0  0  0  0  0  0  0  0  0
  -28.4553   -5.6021  143.7852 C   0  0  0  0  0  0  0  0  0  0  0  0
  -27.4476   -6.3214  144.4305 O   0  0  0  0  0  0  0  0  0  0  0  0
  -29.1206   -4.5863  144.6279 C   0  0  0  0  0  0  0  0  0  0  0  0
  -29.8469   -3.4859  143.8591 C   0  0  0  0  0  0  0  0  0  0  0  0
  -29.2286   -2.1023  144.0449 C   0  0  0  0  0  0  0  0  0  0  0  0
  -29.3675   -1.1309  142.8544 C   0  0  0  0  0  0  0  0  0  0  0  0
  -30.3764   -0.0584  143.1629 C   0  0  0  0  0  0  0  0  0  0  0  0
  -31.5248   -0.3728  143.7767 C   0  0  0  0  0  0  0  0  0  0  0  0
  -31.8096   -1.7996  144.1595 C   0  0  0  0  0  0  0  0  0  0  0  0
  -30.5489   -2.4639  144.7508 C   0  0  0  0  0  0  0  0  0  0  0  0
  2  1  1  0
  3  2  1  0
  4  1  1  0
  4  2  1  0
  5  4  1  0
  6  5  1  0
  7  6  1  0
  8  7  1  0
  9  8  2  0
 10  9  1  0
 11  5  1  0
 11  6  1  0
 11 10  1  0
M  END
$$$$

     RDKit          3D

 27 29  0  0  0  0  0  0  0  0999 V2000
  -21.0736   -7.0154  139.7262 C   0  0  0  0  0  0  0  0  0  0  0  0
  -23.3774   -7.5457  140.5230 C   0  0  0  0  0  0  0  0  0  0  0  0
  -20.4734   -5.4862  139.5935 C   0  0  0  0  0  0  0  0  0  0  0  0
  -20.9318   -4.0329  139.0310 C   0  0  0  0  0  0  0  0  0  0  0  0
  -22.2699   -3.6002  138.3161 C   0  0  0  0  0  0  0  0  0  0  0  0
  -23.5658   -4.4795  138.0279 C   0  0  0  0  0  0  0  0  0  0  0  0
  -23.8732   -4.4228  135.7323 C   0  0  0  0  0  0  0  0  0  0  0  0
  -21.6195   -7.2117  137.4159 C   0  0  0  0  0  0  0  0  0  0  0  0
  -23.2200   -5.0350  139.7985 C   0  0  0  0  0  0  0  0  0  0  0  0
  -22.5399   -6.7856  139.2229 C   0  0  0  0  0  0  0  0  0  0  0  0
  -26.8426   -5.6561  135.2105 C   0  0  0  0  0  0  0  0  0  0  0  0
  -26.9565   -4.3595  134.8330 C   0  0  0  0  0  0  0  0  0  0  0  0
  -21.9907   -8.7361  137.0292 C   0  0  0  0  0  0  0  0  0  0  0  0
  -25.7724   -3.2140  135.4551 C   0  0  0  0  0  0  0  0  0  0  0  0
  -24.3703   -6.0784  132.4077 O   0  0  0  0  0  0  0  0  0  0  0  0
  -24.9637   -5.8820  135.7551 C   0  0  0  0  0  0  0  0  0  0  0  0
  -24.6880   -4.7347  132.0468 C   0  0  0  0  0  0  0  0  0  0  0  0
  -22.8201   -6.1544  132.4892 C   0  0  0  0  0  0  0  0  0  0  0  0
  -26.1122   -4.3138  131.5761 C   0  0  0  0  0  0  0  0  0  0  0  0
  -26.8820   -5.8360  133.6604 C   0  0  0  0  0  0  0  0  0  0  0  0
  -23.8263   -4.5701  135.7139 C   0  0  0  0  0  0  0  0  0  0  0  0
  -22.4515   -5.0042  133.8516 C   0  0  0  0  0  0  0  0  0  0  0  0
  -27.2121   -5.2765  132.2765 C   0  0  0  0  0  0  0  0  0  0  0  0
  -22.5160   -7.6117  133.0056 C   0  0  0  0  0  0  0  0  0  0  0  0
  -21.1495   -7.7050  133.8167 C   0  0  0  0  0  0  0  0  0  0  0  0
  -26.2840   -4.4416  129.9605 C   0  0  0  0  0  0  0  0  0  0  0  0
  -20.4513   -9.0993  133.9779 C   0  0  0  0  0  0  0  0  0  0  0  0
  3  1  1  0
  4  3  1  0
  5  4  1  0
  6  5  1  0
  7  6  1  0
  9  6  1  0
 10  1  1  0
 10  2  1  0
 10  8  1  0
 10  9  1  0
 12 11  1  0
 13  8  1  0
 14 12  1  0
 16  7  1  0
 16 11  1  0
 17 15  1  0
 18 15  1  0
 19 17  1  0
 20 12  1  0
 21 14  1  0
 21 16  1  0
 22 18  1  0
 22 21  1  0
 23 19  1  0
 23 20  1  0
 24 18  1  0
 25 24  1  0
 26 19  1  0
 27 25  1  0
M  END
$$$$

     RDKit          3D

 27 29  0  0  0  0  0  0  0  0999 V2000
  -21.5301    1.9301  141.5703 O   0  0  0  0  0  0  0  0  0  0  0  0
  -20.1303    2.0101  141.4727 C   0  0  0  0  0  0  0  0  0  0  0  0
  -19.5129    1.3822  142.5571 O   0  0  0  0  0  0  0  0  0  0  0  0
  -20.9486    3.1857  141.8450 C   0  0  0  0  0  0  0  0  0  0  0  0
  -21.2115    4.1779  140.7430 C   0  0  0  0  0  0  0  0  0  0  0  0
  -22.6643    4.4472  140.3577 C   0  0  0  0  0  0  0  0  0  0  0  0
  -20.1716    4.8969  140.2844 C   0  0  0  0  0  0  0  0  0  0  0  0
  -22.9744    4.9391  138.9182 C   0  0  0  0  0  0  0  0  0  0  0  0
  -22.7710    6.4460  138.7241 C   0  0  0  0  0  0  0  0  0  0  0  0
  -22.2091    6.6307  137.3105 C   0  0  0  0  0  0  0  0  0  0  0  0
  -23.2416    7.2065  136.3106 C   0  0  0  0  0  0  0  0  0  0  0  0
  -24.5414    6.3838  136.1799 C   0  0  0  0  0  0  0  0  0  0  0  0
  -21.6351    5.2766  136.8764 C   0  0  0  0  0  0  0  0  0  0  0  0
  -22.2179    4.2087  137.7995 C   0  0  0  0  0  0  0  0  0  0  0  0
  -25.8584    8.4214  135.2142 C   0  0  0  0  0  0  0  0  0  0  0  0
  -26.4755    8.8246  136.5671 C   0  0  0  0  0  0  0  0  0  0  0  0
  -27.9475    8.3798  136.7129 C   0  0  0  0  0  0  0  0  0  0  0  0
  -28.3922    8.1167  138.1917 C   0  0  0  0  0  0  0  0  0  0  0  0
  -29.4181    6.9556  138.2104 C   0  0  0  0  0  0  0  0  0  0  0  0
  -30.7244    7.3467  137.5057 C   0  0  0  0  0  0  0  0  0  0  0  0
  -31.1821    8.7500  137.8134 C   0  0  0  0  0  0  0  0  0  0  0  0
  -30.3908    9.6777  138.3851 C   0  0  0  0  0  0  0  0  0  0  0  0
  -29.0068    9.3680  138.9372 C   0  0  0  0  0  0  0  0  0  0  0  0
  -26.4845   10.4516  139.4830 Cl  0  0  0  0  0  0  0  0  0  0  0  0
  -25.4817    6.9270  135.0860 C   0  0  0  0  0  0  0  0  0  0  0  0
  -28.1289   10.6436  138.7989 C   0  0  0  0  0  0  0  0  0  0  0  0
  -29.1755    9.0714  140.4504 C   0  0  0  0  0  0  0  0  0  0  0  0
  2  1  1  0
  3  2  1  0
  4  1  1  0
  4  2  1  0
  5  4  1  0
  6  5  1  0
  7  5  2  0
  8  6  1  0
  9  8  1  0
 10  9  1  0
 11 10  1  0
 12 11  1  0
 13 10  1  0
 14  8  1  0
 14 13  1  0
 16 15  1  0
 17 16  1  0
 18 17  1  0
 19 18  1  0
 20 19  1  0
 21 20  1  0
 22 21  2  0
 23 18  1  0
 23 22  1  0
 25 12  1  0
 25 15  1  0
 26 23  1  0
 26 24  1  0
 27 23  1  0
M  END
$$$$

     RDKit          3D

 27 30  0  0  0  0  0  0  0  0999 V2000
  -21.9188    0.2865  138.2581 O   0  0  0  0  0  0  0  0  0  0  0  0
  -23.0111    0.9074  138.6096 C   0  0  0  0  0  0  0  0  0  0  0  0
  -23.0651   -0.2069  139.2016 O   0  0  0  0  0  0  0  0  0  0  0  0
  -24.0094    1.9992  138.9167 C   0  0  0  0  0  0  0  0  0  0  0  0
  -23.5965    3.4255  138.9076 C   0  0  0  0  0  0  0  0  0  0  0  0
  -23.5922    4.1894  137.6609 C   0  0  0  0  0  0  0  0  0  0  0  0
  -24.9279    2.9407  139.2810 C   0  0  0  0  0  0  0  0  0  0  0  0
  -24.8738    4.6873  137.1901 C   0  0  0  0  0  0  0  0  0  0  0  0
  -26.0117    4.5467  138.0673 C   0  0  0  0  0  0  0  0  0  0  0  0
  -27.0208    6.1973  138.5596 Si  0  0  0  0  0  4  0  0  0  0  0  0
  -25.8968    3.1955  138.6525 C   0  0  0  0  0  0  0  0  0  0  0  0
  -26.8090    8.3451  139.2959 N   0  0  0  0  0  0  0  0  0  0  0  0
  -25.8296    8.8699  138.4658 C   0  0  0  0  0  0  0  0  0  0  0  0
  -26.7187    2.3497  137.6418 C   0  0  0  0  0  0  0  0  0  0  0  0
  -28.0143    1.7073  137.7731 C   0  0  0  0  0  0  0  0  0  0  0  0
  -27.2290    7.1115  139.0391 C   0  0  0  0  0  0  0  0  0  0  0  0
  -26.1933    3.5680  138.9826 C   0  0  0  0  0  0  0  0  0  0  0  0
  -27.6481    1.3260  137.5494 O   0  0  0  0  0  0  0  0  0  0  0  0
  -27.2781    7.1957  140.4442 C   0  0  0  0  0  0  0  0  0  0  0  0
  -28.4503    7.7681  138.4560 C   0  0  0  0  0  0  0  0  0  0  0  0
  -29.4800    8.1833  139.3993 C   0  0  0  0  0  0  0  0  0  0  0  0
  -29.6210    7.1982  140.4276 C   0  0  0  0  0  0  0  0  0  0  0  0
  -30.9519    6.9115  140.9400 C   0  0  0  0  0  0  0  0  0  0  0  0
  -31.9831    6.1596  140.0284 C   0  0  0  0  0  0  0  0  0  0  0  0
  -25.7692    8.1195  137.5298 C   0  0  0  0  0  0  0  0  0  0  0  0
  -31.4933    4.8441  139.1585 C   0  0  0  0  0  0  0  0  0  0  0  0
  -28.4780    6.7681  141.1437 C   0  0  0  0  0  0  0  0  0  0  0  0
  2  1  1  0
  3  2  1  0
  4  2  1  0
  5  4  1  0
  6  5  1  0
  7  4  1  0
  7  5  1  0
  8  6  2  0
  9  8  1  0
 10  9  1  0
 11  7  1  0
 13 12  1  0
 14 11  1  0
 15 14  1  0
 16 10  1  0
 16 12  1  0
 17  9  1  0
 17 11  1  0
 18 15  1  0
 19 12  1  0
 19 16  1  0
 20 16  1  0
 21 20  1  0
 22 21  1  0
 23 22  1  0
 24 23  1  0
 25 13  1  0
 26 24  1  0
 27 19  1  0
 27 22  1  0
M  END
$$$$

     RDKit          3D

 27 30  0  0  0  0  0  0  0  0999 V2000
  -27.4789  -11.2726  143.7671 O   0  0  0  0  0  0  0  0  0  0  0  0
  -27.1113  -11.8283  145.0251 C   0  0  0  0  0  0  0  0  0  0  0  0
  -27.5336  -10.9684  146.0396 O   0  0  0  0  0  0  0  0  0  0  0  0
  -25.6504  -11.6540  145.2366 C   0  0  0  0  0  0  0  0  0  0  0  0
  -25.0337  -12.9848  145.6903 C   0  0  0  0  0  0  0  0  0  0  0  0
  -27.9779  -12.5456  144.0534 C   0  0  0  0  0  0  0  0  0  0  0  0
  -25.5497  -13.6877  146.9616 C   0  0  0  0  0  0  0  0  0  0  0  0
  -26.6103  -14.7821  146.6115 C   0  0  0  0  0  0  0  0  0  0  0  0
  -24.2184  -13.6930  144.8632 C   0  0  0  0  0  0  0  0  0  0  0  0
  -23.5138  -13.1395  143.6308 C   0  0  0  0  0  0  0  0  0  0  0  0
  -24.3735  -14.1015  147.9155 C   0  0  0  0  0  0  0  0  0  0  0  0
  -22.2827  -12.2958  144.0599 C   0  0  0  0  0  0  0  0  0  0  0  0
  -27.9356  -14.6703  147.4097 C   0  0  0  0  0  0  0  0  0  0  0  0
  -27.9924  -15.3712  148.8001 C   0  0  0  0  0  0  0  0  0  0  0  0
  -23.1672  -14.2662  142.6223 C   0  0  0  0  0  0  0  0  0  0  0  0
  -26.9442  -14.7991  149.8256 C   0  0  0  0  0  0  0  0  0  0  0  0
  -24.0635  -15.5968  148.1050 C   0  0  0  0  0  0  0  0  0  0  0  0
  -25.0513  -16.4533  148.9446 C   0  0  0  0  0  0  0  0  0  0  0  0
  -27.5690  -14.3891  151.0959 N   0  0  0  0  0  0  0  0  0  0  0  0
  -25.7749  -15.7777  150.1320 C   0  0  0  0  0  0  0  0  0  0  0  0
  -26.1726  -10.6772  146.3104 C   0  0  0  0  0  0  0  0  0  0  0  0
  -20.9637  -13.0879  144.1861 C   0  0  0  0  0  0  0  0  0  0  0  0
  -21.9279  -15.1203  143.0217 C   0  0  0  0  0  0  0  0  0  0  0  0
  -23.0816  -13.7259  141.1770 C   0  0  0  0  0  0  0  0  0  0  0  0
  -21.1697  -14.6013  144.2508 C   0  0  0  0  0  0  0  0  0  0  0  0
  -29.4377  -15.2866  149.3207 C   0  0  0  0  0  0  0  0  0  0  0  0
  -22.0619  -12.6912  141.0448 N   0  0  0  0  0  0  0  0  0  0  0  0
  2  1  1  0
  3  2  1  0
  4  2  1  0
  5  4  1  0
  6  1  1  0
  6  2  1  0
  7  5  1  0
  8  7  1  0
  9  5  2  3
 10  9  1  0
 11  7  1  0
 12 10  1  0
 13  8  1  0
 14 13  1  0
 15 10  1  0
 16 14  1  0
 17 11  1  0
 18 17  1  0
 19 16  1  0
 20 16  1  0
 20 18  1  0
 21  3  1  0
 21  4  1  0
 22 12  1  0
 23 15  1  0
 24 15  1  0
 25 22  1  0
 25 23  1  0
 26 14  1  0
 27 24  1  0
M  END
$$$$

     RDKit          3D

 26 30  0  0  0  0  0  0  0  0999 V2000
  -24.0315  -14.6829  139.7269 O   0  0  0  0  0  0  0  0  0  0  0  0
  -24.8108  -15.1321  138.6575 C   0  0  0  0  0  0  0  0  0  0  0  0
  -24.4893  -14.3652  137.3539 C   0  0  0  0  0  0  0  0  0  0  0  0
  -26.2325  -14.5371  138.7152 C   0  0  0  0  0  0  0  0  0  0  0  0
  -26.3699  -13.5826  139.8463 N   0  0  0  0  0  0  0  0  0  0  0  0
  -25.9849  -13.9628  137.3028 C   0  0  0  0  0  0  0  0  0  0  0  0
  -27.7821  -13.2346  140.1770 C   0  0  0  0  0  0  0  0  0  0  0  0
  -28.8266  -13.7503  139.2647 N   0  0  0  0  0  0  0  0  0  0  0  0
  -28.0699  -13.0426  141.6857 C   0  0  0  0  0  0  0  0  0  0  0  0
  -26.9116  -12.2248  139.5596 C   0  0  0  0  0  0  0  0  0  0  0  0
  -24.0553  -15.1018  136.0426 C   0  0  0  0  0  0  0  0  0  0  0  0
  -22.3029  -15.7178  134.9882 O   0  0  0  0  0  0  0  0  0  0  0  0
  -21.9652  -13.4769  135.8306 C   0  0  0  0  0  0  0  0  0  0  0  0
  -20.8759  -13.8028  136.5758 C   0  0  0  0  0  0  0  0  0  0  0  0
  -20.4659  -15.1674  137.0666 C   0  0  0  0  0  0  0  0  0  0  0  0
  -22.9384  -14.4710  135.2035 C   0  0  0  0  0  0  0  0  0  0  0  0
  -23.1848  -16.3645  135.8787 C   0  0  0  0  0  0  0  0  0  0  0  0
  -21.5521  -15.8994  137.8818 C   0  0  0  0  0  0  0  0  0  0  0  0
  -22.3976  -16.9498  137.0904 C   0  0  0  0  0  0  0  0  0  0  0  0
  -21.5294  -18.1463  136.5750 C   0  0  0  0  0  0  0  0  0  0  0  0
  -21.1051  -19.1089  137.6760 C   0  0  0  0  0  0  0  0  0  0  0  0
  -29.8155  -14.5956  139.9349 C   0  0  0  0  0  0  0  0  0  0  0  0
  -29.7514  -16.0780  139.5523 C   0  0  0  0  0  0  0  0  0  0  0  0
  -30.8457  -15.1848  138.9732 C   0  0  0  0  0  0  0  0  0  0  0  0
  -30.1997  -17.0208  140.6991 C   0  0  0  0  0  0  0  0  0  0  0  0
  -30.7221  -18.3236  140.1239 C   0  0  0  0  0  0  0  0  0  0  0  0
  2  1  1  0
  3  2  1  0
  4  2  1  0
  5  4  1  0
  6  3  1  0
  6  4  1  0
  7  5  1  0
  8  7  1  0
  9  7  1  0
 10  5  1  0
 10  7  1  0
 11  3  1  0
 14 13  2  3
 15 14  1  0
 16 11  1  0
 16 12  1  0
 16 13  1  0
 17 11  1  0
 17 12  1  0
 18 15  1  0
 19 17  1  0
 19 18  1  0
 20 19  1  0
 21 20  1  0
 22  8  1  0
 23 22  1  0
 24 22  1  0
 24 23  1  0
 25 23  1  0
 26 25  1  0
M  END
$$$$

     RDKit          3D

 27 33  0  0  0  0  0  0  0  0999 V2000
  -32.5161   -6.8151  151.0575 C   0  0  0  0  0  0  0  0  0  0  0  0
  -29.4853   -8.3913  149.1750 C   0  0  0  0  0  0  0  0  0  0  0  0
  -35.8025   -4.1234  151.2759 N   0  0  0  0  0  0  0  0  0  0  0  0
  -28.7408  -10.5134  148.1343 C   0  0  0  0  0  0  0  0  0  0  0  0
  -29.0302  -10.6459  149.3486 C   0  0  0  0  0  0  0  0  0  0  0  0
  -35.1403   -5.4676  151.0460 C   0  0  0  0  0  0  0  0  0  0  0  0
  -29.3814  -12.1474  149.7558 C   0  0  0  0  0  0  0  0  0  0  0  0
  -31.1796  -12.4670  149.8967 C   0  0  0  0  0  0  0  0  0  0  0  0
  -30.9727  -10.4160  148.6011 C   0  0  0  0  0  0  0  0  0  0  0  0
  -32.3955  -12.4334  147.4970 C   0  0  0  0  0  0  0  0  0  0  0  0
  -33.0479  -11.1527  147.3160 C   0  0  0  0  0  0  0  0  0  0  0  0
  -30.9098   -7.3183  150.0795 C   0  0  0  0  0  0  0  0  0  0  0  0
  -34.7478  -10.2862  147.3657 C   0  0  0  0  0  0  0  0  0  0  0  0
  -32.2744  -13.4203  148.5432 C   0  0  0  0  0  0  0  0  0  0  0  0
  -33.3508   -8.2633  151.4939 C   0  0  0  0  0  0  0  0  0  0  0  0
  -32.4411   -9.8212  149.6497 C   0  0  0  0  0  0  0  0  0  0  0  0
  -31.7226  -11.3507  148.6617 C   0  0  0  0  0  0  0  0  0  0  0  0
  -33.9390   -8.9829  146.4690 C   0  0  0  0  0  0  0  0  0  0  0  0
  -31.5175  -11.7794  151.8282 C   0  0  0  0  0  0  0  0  0  0  0  0
  -33.3249   -8.4885  149.8869 C   0  0  0  0  0  0  0  0  0  0  0  0
  -33.4298   -5.5208  151.4203 C   0  0  0  0  0  0  0  0  0  0  0  0
  -28.7449  -12.7565  147.4980 C   0  0  0  0  0  0  0  0  0  0  0  0
  -28.9968  -14.7774  148.0211 C   0  0  0  0  0  0  0  0  0  0  0  0
  -28.0744  -13.8334  148.4007 C   0  0  0  0  0  0  0  0  0  0  0  0
  -26.6717  -13.8746  148.7563 C   0  0  0  0  0  0  0  0  0  0  0  0
  -28.0827  -13.4963  149.7803 C   0  0  0  0  0  0  0  0  0  0  0  0
  -27.3960  -10.2352  150.4446 C   0  0  0  0  0  0  0  0  0  0  0  0
  4  2  1  0
  5  4  1  0
  6  3  1  0
  7  5  1  0
  8  7  1  0
  9  5  1  0
 11 10  1  0
 12  1  1  0
 12  2  1  0
 13 11  1  0
 14  8  1  0
 14 10  1  0
 15  1  1  0
 16  9  1  0
 17  8  1  0
 17  9  1  0
 17 10  1  0
 17 11  1  0
 18 13  1  0
 19  8  1  0
 20 15  1  0
 20 16  1  0
 21  1  1  0
 21  6  1  0
 22  4  1  0
 23 22  1  0
 24 22  1  0
 24 23  1  0
 25 24  1  0
 26  7  1  0
 26 24  1  0
 26 25  1  0
 27  5  1  0
M  END
$$$$

     RDKit          3D

 27 35  0  0  0  0  0  0  0  0999 V2000
  -28.6110   -3.7239  132.0317 C   0  0  0  0  0  0  0  0  0  0  0  0
  -29.0814   -4.2882  133.3805 C   0  0  0  0  0  0  0  0  0  0  0  0
  -30.4405   -4.9955  133.5940 C   0  0  0  0  0  0  0  0  0  0  0  0
  -29.4895   -3.8601  130.7964 C   0  0  0  0  0  0  0  0  0  0  0  0
  -30.2985   -6.3973  134.2213 C   0  0  0  0  0  0  0  0  0  0  0  0
  -28.3742   -4.8584  131.0356 C   0  0  0  0  0  0  0  0  0  0  0  0
  -27.0962   -4.5625  130.2431 C   0  0  0  0  0  0  0  0  0  0  0  0
  -28.1169   -5.0793  132.5156 C   0  0  0  0  0  0  0  0  0  0  0  0
  -29.7274   -6.3838  135.6590 C   0  0  0  0  0  0  0  0  0  0  0  0
  -30.6992   -5.7726  136.6614 C   0  0  0  0  0  0  0  0  0  0  0  0
  -27.1257   -5.0781  128.8060 C   0  0  0  0  0  0  0  0  0  0  0  0
  -30.6138   -6.6445  137.9029 C   0  0  0  0  0  0  0  0  0  0  0  0
  -26.3496   -4.2467  127.8082 C   0  0  0  0  0  0  0  0  0  0  0  0
  -29.6125   -7.6938  137.6893 N   0  0  0  0  0  0  0  0  0  0  0  0
  -25.0358   -3.9899  127.9117 C   0  0  0  0  0  0  0  0  0  0  0  0
  -30.0968   -5.2133  137.9480 C   0  0  0  0  0  0  0  0  0  0  0  0
  -29.3849   -7.7736  136.2433 C   0  0  0  0  0  0  0  0  0  0  0  0
  -24.2259   -4.3926  129.1105 C   0  0  0  0  0  0  0  0  0  0  0  0
  -30.2205   -8.9386  135.6831 C   0  0  0  0  0  0  0  0  0  0  0  0
  -24.7919   -5.6841  129.7550 C   0  0  0  0  0  0  0  0  0  0  0  0
  -24.0716   -7.0419  129.6110 C   0  0  0  0  0  0  0  0  0  0  0  0
  -26.3205   -5.8250  129.8641 C   0  0  0  0  0  0  0  0  0  0  0  0
  -24.0234   -6.2689  130.9442 C   0  0  0  0  0  0  0  0  0  0  0  0
  -22.7055   -5.6142  131.2840 C   0  0  0  0  0  0  0  0  0  0  0  0
  -21.5558   -6.0251  130.7328 C   0  0  0  0  0  0  0  0  0  0  0  0
  -21.5309   -7.1937  129.7906 C   0  0  0  0  0  0  0  0  0  0  0  0
  -22.7344   -7.1582  128.8422 C   0  0  0  0  0  0  0  0  0  0  0  0
  2  1  1  0
  3  2  1  0
  4  1  1  0
  5  3  1  0
  6  1  1  0
  6  4  1  0
  7  6  1  0
  8  1  1  0
  8  2  1  0
  8  6  1  0
  9  5  1  0
 10  9  1  0
 11  7  1  0
 12 10  1  0
 13 11  1  0
 14 12  1  0
 15 13  2  0
 16 10  1  0
 16 12  1  0
 17  9  1  0
 17 14  1  0
 18 15  1  0
 19 17  1  0
 20 18  1  0
 21 20  1  0
 22  7  1  0
 22 11  1  0
 22 20  1  0
 23 20  1  0
 23 21  1  0
 24 23  1  0
 25 24  2  0
 26 25  1  0
 27 21  1  0
 27 26  1  0
M  END
$$$$

     RDKit          3D

 27 30  0  0  0  0  0  0  0  0999 V2000
  -35.1550   -8.2927  140.8149 O   0  0  0  0  0  0  0  0  0  0  0  0
  -33.0642   -8.2137  140.4685 C   0  0  0  0  0  0  0  0  0  0  0  0
  -32.2428   -9.3544  140.6224 O   0  0  0  0  0  0  0  0  0  0  0  0
  -34.0290   -8.0568  141.6312 C   0  0  0  0  0  0  0  0  0  0  0  0
  -34.3438   -8.4973  139.6824 C   0  0  0  0  0  0  0  0  0  0  0  0
  -34.5023   -9.9324  139.1588 C   0  0  0  0  0  0  0  0  0  0  0  0
  -34.6417   -7.4524  138.5997 C   0  0  0  0  0  0  0  0  0  0  0  0
  -30.9072   -8.9344  140.7412 C   0  0  0  0  0  0  0  0  0  0  0  0
  -30.0621   -9.9737  141.4534 C   0  0  0  0  0  0  0  0  0  0  0  0
  -34.0393   -6.6391  142.2366 C   0  0  0  0  0  0  0  0  0  0  0  0
  -30.4399   -8.6883  142.1701 C   0  0  0  0  0  0  0  0  0  0  0  0
  -34.9781   -6.4434  143.4592 C   0  0  0  0  0  0  0  0  0  0  0  0
  -36.4744   -6.5244  143.0903 C   0  0  0  0  0  0  0  0  0  0  0  0
  -36.9694   -7.9547  143.0479 C   0  0  0  0  0  0  0  0  0  0  0  0
  -38.4577   -7.4488  140.9883 C   0  0  0  0  0  0  0  0  0  0  0  0
  -39.5319   -8.0408  140.0618 C   0  0  0  0  0  0  0  0  0  0  0  0
  -38.9459   -8.9538  138.9731 C   0  0  0  0  0  0  0  0  0  0  0  0
  -37.9513   -8.4792  142.0120 C   0  0  0  0  0  0  0  0  0  0  0  0
  -40.0572   -9.7958  138.3335 C   0  0  0  0  0  0  0  0  0  0  0  0
  -34.5797   -7.3265  144.6819 C   0  0  0  0  0  0  0  0  0  0  0  0
  -35.6421   -8.3765  145.1225 C   0  0  0  0  0  0  0  0  0  0  0  0
  -39.6103  -11.1298  137.7401 C   0  0  0  0  0  0  0  0  0  0  0  0
  -40.3702  -11.1019  139.0622 C   0  0  0  0  0  0  0  0  0  0  0  0
  -36.5290   -8.8134  143.9832 C   0  0  0  0  0  0  0  0  0  0  0  0
  -36.5138   -7.8794  146.3019 C   0  0  0  0  0  0  0  0  0  0  0  0
  -35.7905   -7.9911  147.6461 C   0  0  0  0  0  0  0  0  0  0  0  0
  -40.4321  -11.6325  136.5565 C   0  0  0  0  0  0  0  0  0  0  0  0
  3  2  1  0
  4  1  1  0
  4  2  1  0
  5  1  1  0
  5  2  1  0
  6  5  1  0
  7  5  1  0
  8  3  1  0
  9  8  1  0
 10  4  1  0
 11  8  1  0
 11  9  1  0
 12 10  1  0
 13 12  1  0
 14 13  1  0
 16 15  1  0
 17 16  1  0
 18 14  1  0
 18 15  1  0
 19 17  1  0
 20 12  1  0
 21 20  1  0
 22 19  1  0
 23 19  1  0
 23 22  1  0
 24 14  2  0
 24 21  1  0
 25 21  1  0
 26 25  1  0
 27 22  1  0
M  END
$$$$

     RDKit          3D

 27 35  0  0  0  0  0  0  0  0999 V2000
  -19.4404    1.2224  137.0733 O   0  0  0  0  0  0  0  0  0  0  0  0
  -17.6939   -0.3802  137.3065 C   0  0  0  0  0  0  0  0  0  0  0  0
  -16.8656    0.1402  138.0421 O   0  0  0  0  0  0  0  0  0  0  0  0
  -19.1539   -0.0431  137.6502 C   0  0  0  0  0  0  0  0  0  0  0  0
  -20.2505    1.8598  137.9180 F   0  0  0  0  0  0  0  0  0  0  0  0
  -16.9854   -3.3773  138.2859 C   0  0  0  0  0  0  0  0  0  0  0  0
  -18.0549   -4.0867  139.0725 C   0  0  0  0  0  0  0  0  0  0  0  0
  -16.6950   -3.6436  136.7686 C   0  0  0  0  0  0  0  0  0  0  0  0
  -19.3635   -3.3081  137.6985 C   0  0  0  0  0  0  0  0  0  0  0  0
  -20.6397   -2.4924  137.6640 C   0  0  0  0  0  0  0  0  0  0  0  0
  -15.8637   -2.7674  139.1459 C   0  0  0  0  0  0  0  0  0  0  0  0
  -17.1028   -2.5361  135.7481 C   0  0  0  0  0  0  0  0  0  0  0  0
  -19.3056   -4.6399  138.3957 C   0  0  0  0  0  0  0  0  0  0  0  0
  -18.2868   -2.7286  138.5165 N   0  0  0  0  0  0  0  0  0  0  0  0
  -17.1859   -1.0085  136.0056 C   0  0  0  0  0  0  0  0  0  0  0  0
  -14.5510   -3.4666  138.8572 C   0  0  0  0  0  0  0  0  0  0  0  0
  -21.0173   -1.4230  138.6377 C   0  0  0  0  0  0  0  0  0  0  0  0
  -15.6666   -0.9307  135.7905 C   0  0  0  0  0  0  0  0  0  0  0  0
  -15.6334   -2.4007  135.3411 C   0  0  0  0  0  0  0  0  0  0  0  0
  -14.1473   -3.2544  137.3931 C   0  0  0  0  0  0  0  0  0  0  0  0
  -12.6887   -3.7060  137.1572 C   0  0  0  0  0  0  0  0  0  0  0  0
  -20.3472   -1.0151  137.2976 C   0  0  0  0  0  0  0  0  0  0  0  0
  -12.4536   -4.4621  135.8557 C   0  0  0  0  0  0  0  0  0  0  0  0
  -13.0438   -2.2345  137.0746 C   0  0  0  0  0  0  0  0  0  0  0  0
  -13.5321   -5.5260  135.7260 C   0  0  0  0  0  0  0  0  0  0  0  0
  -14.8801   -4.8687  135.4187 C   0  0  0  0  0  0  0  0  0  0  0  0
  -15.2156   -3.5828  136.2771 C   0  0  0  0  0  0  0  0  0  0  0  0
  3  2  2  0
  4  1  1  0
  4  2  1  0
  5  1  1  0
  7  6  1  0
  8  6  1  0
 10  9  1  0
 11  6  1  0
 12  8  1  0
 13  7  1  0
 13  9  1  0
 14  6  1  0
 14  7  1  0
 14  9  1  0
 15  2  1  0
 15 12  1  0
 16 11  1  0
 17 10  1  0
 18 15  1  0
 19 12  1  0
 19 18  1  0
 20 16  1  0
 21 20  1  0
 22  4  1  0
 22 10  1  0
 22 17  1  0
 23 21  1  0
 24 20  1  0
 24 21  1  0
 25 23  1  0
 26 25  1  0
 27  8  1  0
 27 19  1  0
 27 20  1  0
 27 26  1  0
M  END
$$$$

     RDKit          3D

 27 32  0  0  0  0  0  0  0  0999 V2000
  -22.3401   -1.8786  135.2495 C   0  0  0  0  0  0  0  0  0  0  0  0
  -22.1538   -3.5011  135.2797 C   0  0  0  0  0  0  0  0  0  0  0  0
  -21.6406   -4.2809  132.8872 C   0  0  0  0  0  0  0  0  0  0  0  0
  -21.1141   -1.0818  135.7466 C   0  0  0  0  0  0  0  0  0  0  0  0
  -20.3465   -0.3467  134.6135 C   0  0  0  0  0  0  0  0  0  0  0  0
  -23.7452   -1.3854  135.9521 C   0  0  0  0  0  0  0  0  0  0  0  0
  -21.6382   -2.9077  132.4652 N   0  0  0  0  0  0  0  0  0  0  0  0
  -24.5872   -1.7678  137.3706 C   0  0  0  0  0  0  0  0  0  0  0  0
  -22.5569   -2.6434  131.2945 C   0  0  0  0  0  0  0  0  0  0  0  0
  -23.0988   -3.1352  132.4828 C   0  0  0  0  0  0  0  0  0  0  0  0
  -24.7999   -2.7839  138.6612 C   0  0  0  0  0  0  0  0  0  0  0  0
  -21.1653   -4.4578  134.3271 C   0  0  0  0  0  0  0  0  0  0  0  0
  -23.0442   -4.5549  132.8026 O   0  0  0  0  0  0  0  0  0  0  0  0
  -20.7963    1.1003  134.3842 C   0  0  0  0  0  0  0  0  0  0  0  0
  -22.1536    1.7456  133.8550 C   0  0  0  0  0  0  0  0  0  0  0  0
  -18.7613   -0.2829  134.6738 C   0  0  0  0  0  0  0  0  0  0  0  0
  -23.8847   -4.0369  138.4820 C   0  0  0  0  0  0  0  0  0  0  0  0
  -22.5349   -3.4251  138.8441 C   0  0  0  0  0  0  0  0  0  0  0  0
  -22.5481   -3.1438  140.3469 C   0  0  0  0  0  0  0  0  0  0  0  0
  -24.6977   -2.0507  140.0496 N   0  0  0  0  0  0  0  0  0  0  0  0
  -17.6864    0.5230  133.8818 C   0  0  0  0  0  0  0  0  0  0  0  0
  -24.7743   -2.1216  135.1535 C   0  0  0  0  0  0  0  0  0  0  0  0
  -23.9695   -2.9715  140.9953 C   0  0  0  0  0  0  0  0  0  0  0  0
  -25.7103   -2.1908  136.4011 C   0  0  0  0  0  0  0  0  0  0  0  0
  -16.4284    0.2368  134.3794 F   0  0  0  0  0  0  0  0  0  0  0  0
  -18.3978   -0.5349  133.1516 C   0  0  0  0  0  0  0  0  0  0  0  0
  -21.1680    1.1152  132.8742 C   0  0  0  0  0  0  0  0  0  0  0  0
  2  1  1  0
  4  1  1  0
  5  4  1  0
  6  1  1  0
  7  3  1  0
  8  6  1  0
  9  7  1  0
 10  7  1  0
 10  9  1  0
 11  8  1  0
 12  2  1  0
 12  3  1  0
 13  3  1  0
 13 10  1  0
 14  5  1  0
 15 14  1  0
 16  5  1  0
 17 11  1  0
 18 17  1  0
 19 18  1  0
 20 11  1  0
 21 16  1  0
 22  6  1  0
 23 19  1  0
 23 20  1  0
 24  8  1  0
 24 22  1  0
 25 21  1  0
 26 16  1  0
 26 21  1  0
 27 14  1  0
 27 15  1  0
M  END
$$$$

     RDKit          3D

 11 13  0  0  0  0  0  0  0  0999 V2000
  -25.2075  -20.6191  142.3183 C   0  0  0  0  0  0  0  0  0  0  0  0
  -25.5572  -21.9178  143.1694 C   0  0  0  0  0  0  0  0  0  0  0  0
  -26.0825  -20.4722  141.0583 C   0  0  0  0  0  0  0  0  0  0  0  0
  -26.1949  -21.8118  140.3261 C   0  0  0  0  0  0  0  0  0  0  0  0
  -25.6362  -21.6590  144.6896 C   0  0  0  0  0  0  0  0  0  0  0  0
  -25.1045  -20.5424  145.2359 C   0  0  0  0  0  0  0  0  0  0  0  0
  -26.8674  -22.5774  142.7004 C   0  0  0  0  0  0  0  0  0  0  0  0
  -26.8394  -22.9102  141.1980 C   0  0  0  0  0  0  0  0  0  0  0  0
  -24.3132  -19.6554  144.3258 C   0  0  0  0  0  0  0  0  0  0  0  0
  -25.3795  -19.3794  143.2140 C   0  0  0  0  0  0  0  0  0  0  0  0
  -24.4858  -18.2839  143.7259 C   0  0  0  0  0  0  0  0  0  0  0  0
  2  1  1  0
  3  1  1  0
  4  3  1  0
  5  2  1  0
  6  5  2  0
  7  2  1  0
  8  4  1  0
  8  7  1  0
  9  6  1  0
 10  1  1  0
 10  9  1  0
 11  9  1  0
 11 10  1  0
M  END
$$$$

     RDKit          3D

 27 29  0  0  0  0  0  0  0  0999 V2000
  -23.6728   -0.7985  139.4517 C   0  0  0  0  0  0  0  0  0  0  0  0
  -24.5462   -0.5083  138.4959 O   0  0  0  0  0  0  0  0  0  0  0  0
  -24.4484   -0.4713  138.3323 C   0  0  0  0  0  0  0  0  0  0  0  0
  -25.1131   -0.6565  137.2480 C   0  0  0  0  0  0  0  0  0  0  0  0
  -22.7298   -0.4707  138.5482 N   0  0  0  0  0  0  0  0  0  0  0  0
  -25.5759   -1.4271  138.4520 C   0  0  0  0  0  0  0  0  0  0  0  0
  -21.4191   -0.1170  138.8486 C   0  0  0  0  0  0  0  0  0  0  0  0
  -25.2761   -2.3335  139.4037 F   0  0  0  0  0  0  0  0  0  0  0  0
  -20.7002   -0.5837  139.9756 C   0  0  0  0  0  0  0  0  0  0  0  0
  -20.2927    0.1365  141.0117 N   0  0  0  0  0  0  0  0  0  0  0  0
  -20.3917   -0.4224  138.0158 N   0  0  0  0  0  0  0  0  0  0  0  0
  -19.1626   -0.3347  138.7906 C   0  0  0  0  0  0  0  0  0  0  0  0
  -20.1810   -0.9718  138.5804 F   0  0  0  0  0  0  0  0  0  0  0  0
  -25.0205   -0.8629  140.0047 N   0  0  0  0  0  0  0  0  0  0  0  0
  -20.0718   -0.0495  139.7144 C   0  0  0  0  0  0  0  0  0  0  0  0
  -26.2670    0.1980  140.8855 C   0  0  0  0  0  0  0  0  0  0  0  0
  -26.3605    0.2257  140.5088 C   0  0  0  0  0  0  0  0  0  0  0  0
  -18.8908   -0.3332  140.9970 C   0  0  0  0  0  0  0  0  0  0  0  0
  -25.7799   -0.5915  139.5594 O   0  0  0  0  0  0  0  0  0  0  0  0
  -27.3931    1.1004  140.0628 C   0  0  0  0  0  0  0  0  0  0  0  0
  -27.3096    1.0813  140.3520 C   0  0  0  0  0  0  0  0  0  0  0  0
  -24.9503   -0.4522  141.2679 C   0  0  0  0  0  0  0  0  0  0  0  0
  -26.6288    1.9367  139.1905 N   0  0  0  0  0  2  0  0  0  0  0  0
  -25.8209    3.0600  138.6328 C   0  0  0  0  0  0  0  0  0  0  0  0
  -24.8578    3.1431  139.6816 C   0  0  0  0  0  0  0  0  0  0  0  0
  -26.9807    3.2848  139.0309 O   0  0  0  0  0  1  0  0  0  0  0  0
  -24.5412    2.1713  140.5817 C   0  0  0  0  0  0  0  0  0  0  0  0
  3  1  1  0
  3  2  1  0
  4  3  1  0
  5  1  1  0
  6  3  1  0
  6  4  1  0
  7  5  1  0
  8  6  1  0
  9  7  1  0
 10  9  1  0
 11  7  1  0
 12 11  1  0
 13 11  1  0
 14  1  1  0
 15  9  1  0
 15 12  1  0
 17 16  1  0
 18 10  1  0
 19 14  1  0
 19 17  1  0
 21 17  1  0
 21 20  1  0
 22 14  1  0
 22 16  1  0
 23 20  1  0
 24 23  1  0
 25 24  1  0
 26 24  1  0
 27 25  2  0
M  RAD  2  23   2  26   2
M  END
$$$$

     RDKit          3D

 27 33  0  0  0  0  0  0  0  0999 V2000
  -29.0423   -3.2587  134.6759 C   0  0  0  0  0  0  0  0  0  0  0  0
  -29.1909   -1.7719  135.0742 C   0  0  0  0  0  0  0  0  0  0  0  0
  -29.0402   -4.1332  135.9875 C   0  0  0  0  0  0  0  0  0  0  0  0
  -31.9922   -2.5771  135.2143 C   0  0  0  0  0  0  0  0  0  0  0  0
  -30.2580   -1.0006  134.2211 C   0  0  0  0  0  0  0  0  0  0  0  0
  -27.8871   -2.3207  134.5800 N   0  0  0  0  0  0  0  0  0  0  0  0
  -30.1529    0.5700  133.9829 C   0  0  0  0  0  0  0  0  0  0  0  0
  -31.3419   -1.1971  135.1368 N   0  0  0  0  0  0  0  0  0  0  0  0
  -30.8074   -0.8481  136.4522 C   0  0  0  0  0  0  0  0  0  0  0  0
  -31.7688   -3.7525  136.2625 C   0  0  0  0  0  0  0  0  0  0  0  0
  -30.4552   -4.5498  136.5227 C   0  0  0  0  0  0  0  0  0  0  0  0
  -30.7225   -4.3962  138.0521 C   0  0  0  0  0  0  0  0  0  0  0  0
  -30.7499   -3.4086  132.7830 F   0  0  0  0  0  0  0  0  0  0  0  0
  -29.4109   -1.3860  136.6082 C   0  0  0  0  0  0  0  0  0  0  0  0
  -31.3338   -5.9422  132.8545 C   0  0  0  0  0  0  0  0  0  0  0  0
  -29.1229   -4.0103  131.7672 C   0  0  0  0  0  0  0  0  0  0  0  0
  -27.5930   -4.2363  131.6348 C   0  0  0  0  0  0  0  0  0  0  0  0
  -27.6243   -2.1580  133.1412 C   0  0  0  0  0  0  0  0  0  0  0  0
  -30.1317   -4.8854  130.8490 C   0  0  0  0  0  0  0  0  0  0  0  0
  -30.4387    0.9447  132.5186 C   0  0  0  0  0  0  0  0  0  0  0  0
  -26.7762   -3.3832  132.6634 C   0  0  0  0  0  0  0  0  0  0  0  0
  -32.0545   -3.7120  137.7478 C   0  0  0  0  0  0  0  0  0  0  0  0
  -31.5751   -5.2886  131.4690 C   0  0  0  0  0  0  0  0  0  0  0  0
  -29.9692   -5.5604  133.4647 C   0  0  0  0  0  0  0  0  0  0  0  0
  -25.9602   -4.1490  133.7084 C   0  0  0  0  0  0  0  0  0  0  0  0
  -26.2886   -1.9573  132.4873 C   0  0  0  0  0  0  0  0  0  0  0  0
  -29.6168   -4.0347  133.2387 C   0  0  0  0  0  0  0  0  0  0  0  0
  2  1  1  0
  3  1  1  0
  5  2  1  0
  6  1  1  0
  6  2  1  0
  7  5  1  0
  8  4  1  0
  8  5  1  0
  9  8  1  0
 10  4  1  0
 11  3  1  0
 11 10  1  0
 12 11  1  0
 14  2  1  0
 14  9  1  0
 17 16  1  0
 18  6  1  0
 19 16  1  0
 20  7  1  0
 21 17  1  0
 21 18  1  0
 22 10  1  0
 22 12  1  0
 23 15  1  0
 23 19  1  0
 24 15  1  0
 25 21  1  0
 26 18  1  0
 26 21  1  0
 27  1  1  0
 27 13  1  0
 27 16  1  0
 27 24  1  0
M  END
$$$$

     RDKit          3D

 27 33  0  0  0  0  0  0  0  0999 V2000
  -26.4723    0.2492  135.3513 O   0  0  0  0  0  0  0  0  0  0  0  0
  -26.9210   -0.1162  136.6418 C   0  0  0  0  0  0  0  0  0  0  0  0
  -24.7955   -1.4631  137.7411 C   0  0  0  0  0  0  0  0  0  0  0  0
  -27.4433    1.0641  137.4674 C   0  0  0  0  0  0  0  0  0  0  0  0
  -26.1676   -3.1156  136.6596 N   0  0  0  0  0  0  0  0  0  0  0  0
  -25.7676   -0.4335  137.5193 N   0  0  0  0  0  0  0  0  0  0  0  0
  -25.0222    1.7878  138.2815 C   0  0  0  0  0  0  0  0  0  0  0  0
  -26.1707    0.7688  138.2733 C   0  0  0  0  0  0  0  0  0  0  0  0
  -28.6730    0.5533  138.3275 C   0  0  0  0  0  0  0  0  0  0  0  0
  -23.9017   -3.7608  137.5979 C   0  0  0  0  0  0  0  0  0  0  0  0
  -29.5621    1.6855  138.7045 C   0  0  0  0  0  0  0  0  0  0  0  0
  -30.1353    0.6164  137.8447 C   0  0  0  0  0  0  0  0  0  0  0  0
  -30.4837    2.0625  137.5180 C   0  0  0  0  0  0  0  0  0  0  0  0
  -22.5195   -3.2743  137.3994 N   0  0  0  0  0  0  0  0  0  0  0  0
  -24.9517   -2.7194  137.3009 C   0  0  0  0  0  0  0  0  0  0  0  0
  -26.3528   -4.2907  136.2824 O   0  0  0  0  0  0  0  0  0  0  0  0
  -26.2913   -0.8767  134.5197 C   0  0  0  0  0  0  0  0  0  0  0  0
  -31.1994    3.2920  138.0591 C   0  0  0  0  0  0  0  0  0  0  0  0
  -30.4606    4.5669  137.5526 C   0  0  0  0  0  0  0  0  0  0  0  0
  -23.1390   -4.2008  136.4320 C   0  0  0  0  0  0  0  0  0  0  0  0
  -26.1819   -0.4085  133.0758 C   0  0  0  0  0  0  0  0  0  0  0  0
  -28.9106    4.6759  137.3933 C   0  0  0  0  0  0  0  0  0  0  0  0
  -27.9859    3.6173  137.8643 N   0  0  0  0  0  0  0  0  0  0  0  0
  -29.6260    5.2921  138.5961 C   0  0  0  0  0  0  0  0  0  0  0  0
  -27.5465    2.5769  136.8828 C   0  0  0  0  0  0  0  0  0  0  0  0
  -27.9141    2.8043  135.4011 C   0  0  0  0  0  0  0  0  0  0  0  0
  -26.5099    3.1151  135.8826 C   0  0  0  0  0  0  0  0  0  0  0  0
  2  1  1  0
  4  2  1  0
  6  2  1  0
  6  3  1  0
  8  4  1  0
  8  6  1  0
  8  7  1  0
  9  4  1  0
 11  9  1  0
 12  9  1  0
 12 11  1  0
 13 11  1  0
 13 12  1  0
 14 10  1  0
 15  3  2  3
 15  5  1  0
 15 10  1  0
 16  5  2  0
 17  1  1  0
 18 13  1  0
 19 18  1  0
 20 10  1  0
 20 14  1  0
 21 17  1  0
 22 19  1  0
 23 22  1  0
 24 19  1  0
 24 22  1  0
 25  4  1  0
 25 23  1  0
 26 25  1  0
 27 25  1  0
 27 26  1  0
M  END
$$$$

     RDKit          3D

 27 32  0  0  0  0  0  0  0  0999 V2000
  -20.2851  -18.4392  137.7630 O   0  0  0  0  0  0  0  0  0  0  0  0
  -20.7529  -19.7151  138.0982 C   0  0  0  0  0  0  0  0  0  0  0  0
  -21.3718  -20.4884  136.9381 C   0  0  0  0  0  0  0  0  0  0  0  0
  -21.4525  -19.7809  135.6102 C   0  0  0  0  0  0  0  0  0  0  0  0
  -20.3654  -19.3150  134.9751 C   0  0  0  0  0  0  0  0  0  0  0  0
  -22.2657  -19.8348  137.9984 C   0  0  0  0  0  0  0  0  0  0  0  0
  -22.9064  -20.7598  139.0559 C   0  0  0  0  0  0  0  0  0  0  0  0
  -24.1924  -20.1569  139.7024 C   0  0  0  0  0  0  0  0  0  0  0  0
  -24.3173  -19.5153  141.1332 C   0  0  0  0  0  0  0  0  0  0  0  0
  -20.4958  -18.3871  133.7958 C   0  0  0  0  0  0  0  0  0  0  0  0
  -24.0030  -18.5914  142.3534 C   0  0  0  0  0  0  0  0  0  0  0  0
  -20.8051  -16.9395  134.2624 C   0  0  0  0  0  0  0  0  0  0  0  0
  -22.9932  -19.6392  141.9609 C   0  0  0  0  0  0  0  0  0  0  0  0
  -21.6392  -19.1654  141.3693 C   0  0  0  0  0  0  0  0  0  0  0  0
  -21.2598  -17.7217  141.5590 C   0  0  0  0  0  0  0  0  0  0  0  0
  -22.1937  -16.7288  142.2738 C   0  0  0  0  0  0  0  0  0  0  0  0
  -22.0441  -16.3276  133.5872 C   0  0  0  0  0  0  0  0  0  0  0  0
  -23.3416  -17.0686  133.9719 C   0  0  0  0  0  0  0  0  0  0  0  0
  -20.5162  -20.0944  141.7852 C   0  0  0  0  0  0  0  0  0  0  0  0
  -24.6008  -16.1896  133.8509 C   0  0  0  0  0  0  0  0  0  0  0  0
  -24.8474  -15.6035  132.4386 C   0  0  0  0  0  0  0  0  0  0  0  0
  -24.2142  -18.6691  139.8451 C   0  0  0  0  0  0  0  0  0  0  0  0
  -21.9559  -15.3284  141.6811 C   0  0  0  0  0  0  0  0  0  0  0  0
  -23.6855  -17.0936  142.1568 C   0  0  0  0  0  0  0  0  0  0  0  0
  -25.0936  -16.6820  131.3771 C   0  0  0  0  0  0  0  0  0  0  0  0
  -23.8741  -17.0844  130.7994 O   0  0  0  0  0  0  0  0  0  0  0  0
  -20.6586  -18.7600  142.5006 C   0  0  0  0  0  0  0  0  0  0  0  0
  2  1  1  0
  3  2  1  0
  4  3  1  0
  5  4  2  3
  6  2  1  0
  6  3  1  0
  7  6  1  0
  8  7  1  0
  9  8  1  0
 10  5  1  0
 11  9  1  0
 12 10  1  0
 13  9  1  0
 13 11  1  0
 14 13  1  0
 15 14  1  0
 16 15  1  0
 17 12  1  0
 18 17  1  0
 19 14  1  0
 20 18  1  0
 21 20  1  0
 22  8  1  0
 22  9  1  0
 23 16  1  0
 24 11  1  0
 24 16  1  0
 25 21  1  0
 26 25  1  0
 27 14  1  0
 27 15  1  0
 27 19  1  0
M  END
$$$$

     RDKit          3D

 27 31  0  0  0  0  0  0  0  0999 V2000
  -22.4059  -24.2271  136.0340 O   0  0  0  0  0  0  0  0  0  0  0  0
  -21.8444  -25.5030  135.8859 C   0  0  0  0  0  0  0  0  0  0  0  0
  -21.7950  -27.2077  137.8274 C   0  0  0  0  0  0  0  0  0  0  0  0
  -22.1192  -26.2208  134.5549 C   0  0  0  0  0  0  0  0  0  0  0  0
  -22.8753  -25.3886  133.4627 C   0  0  0  0  0  0  0  0  0  0  0  0
  -22.4108  -28.3502  138.6512 C   0  0  0  0  0  0  0  0  0  0  0  0
  -23.5972  -27.8065  139.5042 C   0  0  0  0  0  0  0  0  0  0  0  0
  -23.2155  -27.6900  140.9762 C   0  0  0  0  0  0  0  0  0  0  0  0
  -22.5339  -26.3059  141.1527 C   0  0  0  0  0  0  0  0  0  0  0  0
  -23.7118  -29.1196  138.7461 C   0  0  0  0  0  0  0  0  0  0  0  0
  -24.3862  -25.5391  133.2786 C   0  0  0  0  0  0  0  0  0  0  0  0
  -23.0838  -25.4571  142.3241 C   0  0  0  0  0  0  0  0  0  0  0  0
  -24.5637  -25.0869  142.1227 C   0  0  0  0  0  0  0  0  0  0  0  0
  -25.0824  -24.2008  143.2611 C   0  0  0  0  0  0  0  0  0  0  0  0
  -24.8526  -26.9639  139.1338 C   0  0  0  0  0  0  0  0  0  0  0  0
  -22.7307  -27.3892  135.3533 C   0  0  0  0  0  0  0  0  0  0  0  0
  -24.0120  -28.1292  134.8630 C   0  0  0  0  0  0  0  0  0  0  0  0
  -25.4482  -27.7583  135.3088 C   0  0  0  0  0  0  0  0  0  0  0  0
  -27.4056  -23.1828  142.0394 Cl  0  0  0  0  0  0  0  0  0  0  0  0
  -26.0958  -26.3976  134.9575 C   0  0  0  0  0  0  0  0  0  0  0  0
  -22.6367  -26.5707  136.6725 C   0  0  0  0  0  0  0  0  0  0  0  0
  -21.9594  -25.5082  139.9134 C   0  0  0  0  0  0  0  0  0  0  0  0
  -21.7927  -27.5712  141.5524 C   0  0  0  0  0  0  0  0  0  0  0  0
  -25.1850  -25.2474  134.5575 C   0  0  0  0  0  0  0  0  0  0  0  0
  -26.5885  -24.1478  143.2512 C   0  0  0  0  0  0  0  0  0  0  0  0
  -21.1018  -26.2032  138.8200 C   0  0  0  0  0  0  0  0  0  0  0  0
  -27.3394  -24.8722  144.1000 C   0  0  0  0  0  0  0  0  0  0  0  0
  2  1  1  0
  4  2  1  0
  5  4  1  0
  6  3  1  0
  7  6  1  0
  8  7  1  0
  9  8  1  0
 10  6  1  0
 10  7  1  0
 11  5  1  0
 12  9  1  0
 13 12  1  0
 14 13  1  0
 15  7  1  0
 16  4  1  0
 17 16  1  0
 18 17  1  0
 20 18  1  0
 21  2  1  0
 21  3  1  0
 21 16  1  0
 22  9  1  0
 23  8  1  0
 23  9  1  0
 24 11  1  0
 24 20  1  0
 25 14  1  0
 25 19  1  0
 26  3  1  0
 26 22  1  0
 27 25  2  0
M  END
$$$$

     RDKit          3D

 26 29  0  0  0  0  0  0  0  0999 V2000
  -26.0435    0.0081  131.8954 O   0  0  0  0  0  0  0  0  0  0  0  0
  -26.1160    1.2917  131.2922 C   0  0  0  0  0  0  0  0  0  0  0  0
  -26.9057    2.2930  132.1824 C   0  0  0  0  0  0  0  0  0  0  0  0
  -24.8543    1.8217  130.5206 C   0  0  0  0  0  0  0  0  0  0  0  0
  -24.9752   -0.2071  132.8069 C   0  0  0  0  0  0  0  0  0  0  0  0
  -24.4857   -1.6860  132.6415 C   0  0  0  0  0  0  0  0  0  0  0  0
  -24.8491    3.3362  130.2248 C   0  0  0  0  0  0  0  0  0  0  0  0
  -26.2688    2.8232  133.4592 C   0  0  0  0  0  0  0  0  0  0  0  0
  -24.9313    2.1749  133.8619 C   0  0  0  0  0  0  0  0  0  0  0  0
  -25.1794    4.2034  131.4622 C   0  0  0  0  0  0  0  0  0  0  0  0
  -26.0048    0.3115  135.3773 C   0  0  0  0  0  0  0  0  0  0  0  0
  -27.5250    4.8200  132.4718 C   0  0  0  0  0  0  0  0  0  0  0  0
  -26.5842    1.3961  136.3088 C   0  0  0  0  0  0  0  0  0  0  0  0
  -24.7642   -4.2799  132.7964 C   0  0  0  0  0  0  0  0  0  0  0  0
  -26.4371    3.7572  132.2382 C   0  0  0  0  0  0  0  0  0  0  0  0
  -25.5823    3.7808  128.9412 C   0  0  0  0  0  0  0  0  0  0  0  0
  -24.4781   -4.5938  131.3038 C   0  0  0  0  0  0  0  0  0  0  0  0
  -23.8436   -6.3313  129.5764 C   0  0  0  0  0  0  0  0  0  0  0  0
  -24.4719    0.2194  135.4945 C   0  0  0  0  0  0  0  0  0  0  0  0
  -23.8654   -1.1522  135.8230 C   0  0  0  0  0  0  0  0  0  0  0  0
  -27.0735    3.4589  128.8530 C   0  0  0  0  0  0  0  0  0  0  0  0
  -25.1104    0.6579  134.1412 C   0  0  0  0  0  0  0  0  0  0  0  0
  -26.8727   -0.9516  135.3158 C   0  0  0  0  0  0  0  0  0  0  0  0
  -23.8485   -5.9823  131.0638 C   0  0  0  0  0  0  0  0  0  0  0  0
  -23.5399   -4.4914  133.7114 C   0  0  0  0  0  0  0  0  0  0  0  0
  -25.4163   -2.8791  133.0011 C   0  0  0  0  0  0  0  0  0  0  0  0
  2  1  1  0
  3  2  1  0
  4  2  1  0
  5  1  1  0
  6  5  1  0
  7  4  1  0
  8  3  1  0
  9  8  1  0
 10  7  1  0
 13 11  1  0
 15  3  1  0
 15  8  1  0
 15 10  1  0
 15 12  1  0
 16  7  1  0
 17 14  1  0
 19 11  1  0
 20 19  1  0
 21 16  1  0
 22  5  1  0
 22  9  1  0
 22 11  1  0
 22 19  1  0
 23 11  1  0
 24 17  1  0
 24 18  1  0
 25 14  1  0
 26  6  1  0
 26 14  1  0
M  END
$$$$

     RDKit          3D

 19 21  0  0  0  0  0  0  0  0999 V2000
  -27.5142  -27.3563  136.7556 C   0  0  0  0  0  0  0  0  0  0  0  0
  -27.7683  -25.8472  136.4894 C   0  0  0  0  0  0  0  0  0  0  0  0
  -28.2217  -25.5018  135.0508 C   0  0  0  0  0  0  0  0  0  0  0  0
  -28.9217  -24.1366  134.9071 C   0  0  0  0  0  0  0  0  0  0  0  0
  -25.1070  -27.4612  135.7992 C   0  0  0  0  0  0  0  0  0  0  0  0
  -24.0647  -28.4937  135.4410 C   0  0  0  0  0  0  0  0  0  0  0  0
  -28.2773  -22.9916  134.0604 C   0  0  0  0  0  0  0  0  0  0  0  0
  -28.9422  -22.7195  132.7023 C   0  0  0  0  0  0  0  0  0  0  0  0
  -23.7804  -29.6189  136.1300 C   0  0  0  0  0  0  0  0  0  0  0  0
  -29.5109  -23.9413  132.0436 C   0  0  0  0  0  0  0  0  0  0  0  0
  -24.6223  -30.2806  137.1950 C   0  0  0  0  0  0  0  0  0  0  0  0
  -24.9696  -29.4072  138.4181 C   0  0  0  0  0  0  0  0  0  0  0  0
  -27.0529  -27.5595  138.2206 C   0  0  0  0  0  0  0  0  0  0  0  0
  -26.5492  -27.9992  135.7280 C   0  0  0  0  0  0  0  0  0  0  0  0
  -26.7467  -23.0771  133.9810 C   0  0  0  0  0  0  0  0  0  0  0  0
  -30.1255  -24.8866  132.7513 C   0  0  0  0  0  0  0  0  0  0  0  0
  -30.0412  -24.9639  134.2553 C   0  0  0  0  0  0  0  0  0  0  0  0
  -26.7955  -29.3163  138.6706 S   0  0  0  0  0  0  0  0  0  0  0  0
  -29.4105  -26.2425  134.5964 N   0  0  0  0  0  0  0  0  0  0  0  0
  2  1  1  0
  3  2  1  0
  4  3  1  0
  6  5  1  0
  7  4  1  0
  8  7  1  0
  9  6  2  3
 10  8  1  0
 11  9  1  0
 12 11  1  0
 13  1  1  0
 14  1  1  0
 14  5  1  0
 15  7  1  0
 16 10  2  0
 17  4  1  0
 17 16  1  0
 18 12  1  0
 18 13  1  0
 19  3  1  0
 19 17  1  0
M  END
$$$$

     RDKit          3D

 26 31  0  0  0  0  0  0  0  0999 V2000
  -18.3631   -7.6953  133.0235 N   0  0  0  0  0  0  0  0  0  0  0  0
  -19.2020   -6.5155  132.6276 C   0  0  0  0  0  0  0  0  0  0  0  0
  -20.0293   -6.8902  131.4587 N   0  0  0  0  0  0  0  0  0  0  0  0
  -17.9321   -5.7590  134.4775 C   0  0  0  0  0  0  0  0  0  0  0  0
  -20.3308   -6.3386  133.6971 N   0  0  0  0  0  0  0  0  0  0  0  0
  -17.5008   -6.1101  135.9155 C   0  0  0  0  0  0  0  0  0  0  0  0
  -20.1875   -8.2774  130.9900 C   0  0  0  0  0  0  0  0  0  0  0  0
  -22.8431   -7.4740  131.4912 C   0  0  0  0  0  0  0  0  0  0  0  0
  -19.3025   -7.3263  130.2414 C   0  0  0  0  0  0  0  0  0  0  0  0
  -23.6857   -4.9188  132.4321 C   0  0  0  0  0  0  0  0  0  0  0  0
  -14.8119   -4.0833  135.2836 C   0  0  0  0  0  0  0  0  0  0  0  0
  -13.3121   -4.1645  134.8443 C   0  0  0  0  0  0  0  0  0  0  0  0
  -12.5794   -5.3135  135.4930 C   0  0  0  0  0  0  0  0  0  0  0  0
  -12.6101   -6.5420  134.9897 C   0  0  0  0  0  0  0  0  0  0  0  0
  -13.4968   -6.8659  133.8822 C   0  0  0  0  0  0  0  0  0  0  0  0
  -13.7814   -3.0961  135.8212 C   0  0  0  0  0  0  0  0  0  0  0  0
  -14.3549   -5.9654  133.4177 C   0  0  0  0  0  0  0  0  0  0  0  0
  -14.4024   -4.5243  133.8341 C   0  0  0  0  0  0  0  0  0  0  0  0
  -16.7644   -4.9906  136.4213 O   0  0  0  0  0  0  0  0  0  0  0  0
  -22.9157   -3.8498  132.7591 C   0  0  0  0  0  0  0  0  0  0  0  0
  -24.3712   -5.8911  130.1238 C   0  0  0  0  0  0  0  0  0  0  0  0
  -24.8346   -5.2042  133.4280 C   0  0  0  0  0  0  0  0  0  0  0  0
  -21.8275   -8.5976  130.1829 S   0  0  0  0  0  0  0  0  0  0  0  0
  -23.2497   -5.9138  131.1842 C   0  0  0  0  0  0  0  0  0  0  0  0
  -18.9513   -6.8162  134.0306 C   0  0  0  0  0  0  0  0  0  0  0  0
  -15.3023   -5.1505  136.3164 C   0  0  0  0  0  0  0  0  0  0  0  0
  2  1  1  0
  3  2  1  0
  5  2  1  0
  6  4  1  0
  7  3  1  0
  9  3  1  0
  9  7  1  0
 12 11  1  0
 13 12  1  0
 14 13  2  0
 15 14  1  0
 16 11  1  0
 16 12  1  0
 17 15  2  0
 18 11  1  0
 18 12  1  0
 18 17  1  0
 19  6  1  0
 20 10  2  0
 22 10  1  0
 23  7  1  0
 23  8  1  0
 24  8  1  0
 24 10  1  0
 24 21  1  0
 25  1  1  0
 25  2  1  0
 25  4  1  0
 25  5  1  0
 26 11  1  0
 26 19  1  0
M  END
$$$$

     RDKit          3D

 27 29  0  0  0  0  0  0  0  0999 V2000
  -23.6376  -22.7476  143.6220 C   0  0  0  0  0  0  0  0  0  0  0  0
  -25.1197  -20.7140  143.4233 C   0  0  0  0  0  0  0  0  0  0  0  0
  -24.9585  -23.6068  143.1254 C   0  0  0  0  0  0  0  0  0  0  0  0
  -25.9389  -24.6247  143.9637 C   0  0  0  0  0  0  0  0  0  0  0  0
  -23.7191  -21.2895  143.1854 C   0  0  0  0  0  0  0  0  0  0  0  0
  -22.0855  -23.0219  143.0608 C   0  0  0  0  0  0  0  0  0  0  0  0
  -27.2094  -25.3470  143.3054 N   0  0  0  0  0  0  0  0  0  0  0  0
  -27.7181  -25.1653  141.9249 C   0  0  0  0  0  0  0  0  0  0  0  0
  -25.1244  -25.5772  144.9800 C   0  0  0  0  0  0  0  0  0  0  0  0
  -26.0647  -26.8052  140.7550 C   0  0  0  0  0  0  0  0  0  0  0  0
  -24.8311  -27.0577  139.9110 C   0  0  0  0  0  0  0  0  0  0  0  0
  -24.7522  -28.5818  139.5960 C   0  0  0  0  0  0  0  0  0  0  0  0
  -26.5809  -25.3944  140.9425 C   0  0  0  0  0  0  0  0  0  0  0  0
  -23.7765  -26.3045  144.4744 C   0  0  0  0  0  0  0  0  0  0  0  0
  -25.1256  -29.6179  136.8983 C   0  0  0  0  0  0  0  0  0  0  0  0
  -24.7910  -28.5406  138.0799 C   0  0  0  0  0  0  0  0  0  0  0  0
  -26.0498  -28.7293  135.7600 C   0  0  0  0  0  0  0  0  0  0  0  0
  -25.4959  -25.8672  141.6045 O   0  0  0  0  0  0  0  0  0  0  0  0
  -23.1036  -27.4637  145.2935 C   0  0  0  0  0  0  0  0  0  0  0  0
  -22.6571  -25.4733  144.5518 O   0  0  0  0  0  0  0  0  0  0  0  0
  -25.4549  -20.1926  140.8856 C   0  0  0  0  0  0  0  0  0  0  0  0
  -27.2712  -29.3861  135.2089 O   0  0  0  0  0  0  0  0  0  0  0  0
  -25.3083  -19.5863  142.3279 C   0  0  0  0  0  0  0  0  0  0  0  0
  -22.1514  -27.1204  146.5100 C   0  0  0  0  0  0  0  0  0  0  0  0
  -22.4819  -26.0228  147.5726 C   0  0  0  0  0  0  0  0  0  0  0  0
  -21.9068  -26.5387  145.1670 C   0  0  0  0  0  0  0  0  0  0  0  0
  -21.5042  -25.6052  148.3524 C   0  0  0  0  0  0  0  0  0  0  0  0
  3  1  1  0
  4  3  1  0
  5  1  1  0
  5  2  1  0
  6  1  1  0
  7  4  1  0
  8  7  1  0
  9  4  1  0
 11 10  1  0
 12 11  1  0
 13  8  1  0
 13 10  1  0
 14  9  1  0
 16 12  1  0
 16 15  1  0
 17 15  1  0
 18 10  1  0
 18 13  1  0
 19 14  1  0
 20 14  1  0
 22 17  1  0
 23  2  1  0
 23 21  1  0
 24 19  1  0
 25 24  1  0
 26 19  1  0
 26 20  1  0
 26 24  1  0
 27 25  2  0
M  END
$$$$

     RDKit          3D

 27 32  0  0  0  0  0  0  0  0999 V2000
  -29.2915   -8.3849  153.4589 C   0  0  0  0  0  0  0  0  0  0  0  0
  -28.3162   -9.5402  153.1984 C   0  0  0  0  0  0  0  0  0  0  0  0
  -29.5927   -7.7736  152.0831 C   0  0  0  0  0  0  0  0  0  0  0  0
  -29.3989   -8.9341  151.0624 C   0  0  0  0  0  0  0  0  0  0  0  0
  -30.6692   -9.6987  150.5726 C   0  0  0  0  0  0  0  0  0  0  0  0
  -31.0334  -11.1046  151.1462 C   0  0  0  0  0  0  0  0  0  0  0  0
  -27.1021   -9.2630  152.3235 C   0  0  0  0  0  0  0  0  0  0  0  0
  -28.3694   -9.8756  151.7232 C   0  0  0  0  0  0  0  0  0  0  0  0
  -31.3754  -11.2189  152.6652 C   0  0  0  0  0  0  0  0  0  0  0  0
  -31.8328  -12.6723  152.9610 C   0  0  0  0  0  0  0  0  0  0  0  0
  -31.5999  -13.3239  154.3233 C   0  0  0  0  0  0  0  0  0  0  0  0
  -30.8507   -6.8585  151.9603 C   0  0  0  0  0  0  0  0  0  0  0  0
  -30.5283   -5.3428  152.0451 C   0  0  0  0  0  0  0  0  0  0  0  0
  -29.5113   -4.8804  150.9760 C   0  0  0  0  0  0  0  0  0  0  0  0
  -32.4856  -10.2062  153.0923 C   0  0  0  0  0  0  0  0  0  0  0  0
  -33.8530  -10.4863  152.5093 C   0  0  0  0  0  0  0  0  0  0  0  0
  -34.6617  -11.4698  153.0727 O   0  0  0  0  0  0  0  0  0  0  0  0
  -30.5641  -12.8217  155.3264 C   0  0  0  0  0  0  0  0  0  0  0  0
  -30.9005  -11.6793  156.3078 C   0  0  0  0  0  0  0  0  0  0  0  0
  -34.3173   -9.8069  151.4598 C   0  0  0  0  0  0  0  0  0  0  0  0
  -29.7701  -11.3360  157.2982 C   0  0  0  0  0  0  0  0  0  0  0  0
  -29.1417  -12.5650  157.9026 C   0  0  0  0  0  0  0  0  0  0  0  0
  -29.0319  -13.7154  157.2232 C   0  0  0  0  0  0  0  0  0  0  0  0
  -29.1647  -12.9902  154.7953 C   0  0  0  0  0  0  0  0  0  0  0  0
  -29.3088  -13.4604  153.3634 C   0  0  0  0  0  0  0  0  0  0  0  0
  -29.6742  -13.9395  155.8783 C   0  0  0  0  0  0  0  0  0  0  0  0
  -30.7889  -13.7835  153.0972 C   0  0  0  0  0  0  0  0  0  0  0  0
  2  1  1  0
  3  1  1  0
  4  3  1  0
  5  4  1  0
  6  5  1  0
  7  2  1  0
  8  2  1  0
  8  4  1  0
  8  7  1  0
  9  6  1  0
 10  9  1  0
 11 10  1  0
 12  3  1  0
 13 12  1  0
 14 13  1  0
 15  9  1  0
 16 15  1  0
 17 16  1  0
 18 11  1  0
 19 18  1  0
 20 16  2  0
 21 19  1  0
 22 21  1  0
 23 22  2  0
 24 18  1  0
 25 24  1  0
 26 18  1  0
 26 23  1  0
 26 24  1  0
 27 10  1  0
 27 11  1  0
 27 25  1  0
M  END
$$$$

     RDKit          3D

 10 12  0  0  0  0  0  0  0  0999 V2000
  -24.1860  -19.7594  136.8532 C   0  0  0  0  0  0  0  0  0  0  0  0
  -25.4242  -20.6748  136.7475 C   0  0  0  0  0  0  0  0  0  0  0  0
  -23.1703  -20.3279  137.7912 C   0  0  0  0  0  0  0  0  0  0  0  0
  -21.6146  -20.8266  135.8728 C   0  0  0  0  0  0  0  0  0  0  0  0
  -21.7198  -20.2528  137.2921 C   0  0  0  0  0  0  0  0  0  0  0  0
  -22.6449  -20.2260  134.8858 C   0  0  0  0  0  0  0  0  0  0  0  0
  -23.6065  -19.2153  135.5320 C   0  0  0  0  0  0  0  0  0  0  0  0
  -23.7915  -18.9539  138.1421 C   0  0  0  0  0  0  0  0  0  0  0  0
  -25.1021  -18.3234  138.5578 C   0  0  0  0  0  0  0  0  0  0  0  0
  -24.4897  -19.2752  139.3434 O   0  0  0  0  0  0  0  0  0  0  0  0
  2  1  1  0
  3  1  1  0
  5  3  1  0
  5  4  1  0
  6  4  1  0
  7  1  1  0
  7  6  1  0
  8  1  1  0
  8  3  1  0
  9  8  1  0
 10  8  1  0
 10  9  1  0
M  END
$$$$

     RDKit          3D

 26 31  0  0  0  0  0  0  0  0999 V2000
  -25.4053   -0.4957  143.6017 O   0  0  0  0  0  0  0  0  0  0  0  0
  -26.6797    0.0052  143.9469 C   0  0  0  0  0  0  0  0  0  0  0  0
  -27.2855   -0.7416  145.1511 C   0  0  0  0  0  0  0  0  0  0  0  0
  -26.7939   -0.1861  146.4943 C   0  0  0  0  0  0  0  0  0  0  0  0
  -27.1740    1.3023  146.6326 C   0  0  0  0  0  0  0  0  0  0  0  0
  -26.1371    2.4143  146.6979 C   0  0  0  0  0  0  0  0  0  0  0  0
  -25.7865   -2.4082  142.1919 C   0  0  0  0  0  0  0  0  0  0  0  0
  -27.5145    1.7266  148.0505 C   0  0  0  0  0  0  0  0  0  0  0  0
  -26.5243    2.8234  148.0705 N   0  0  0  0  0  0  0  0  0  0  0  0
  -28.5776    1.7822  146.9535 C   0  0  0  0  0  0  0  0  0  0  0  0
  -26.3598   -3.0309  141.1604 C   0  0  0  0  0  0  0  0  0  0  0  0
  -25.8795   -0.9125  142.3411 C   0  0  0  0  0  0  0  0  0  0  0  0
  -27.2809   -0.4093  142.6194 C   0  0  0  0  0  0  0  0  0  0  0  0
  -25.3636    2.7256  148.9941 C   0  0  0  0  0  0  0  0  0  0  0  0
  -25.7483    2.3969  150.4504 C   0  0  0  0  0  0  0  0  0  0  0  0
  -25.8217    0.8950  150.5814 C   0  0  0  0  0  0  0  0  0  0  0  0
  -24.7187    2.9520  151.4663 C   0  0  0  0  0  0  0  0  0  0  0  0
  -26.7710    0.1816  149.9674 C   0  0  0  0  0  0  0  0  0  0  0  0
  -24.9749    4.4254  151.8378 C   0  0  0  0  0  0  0  0  0  0  0  0
  -27.9168    0.8376  149.2580 C   0  0  0  0  0  0  0  0  0  0  0  0
  -24.1368    4.8204  152.9149 O   0  0  0  0  0  0  0  0  0  0  0  0
  -25.2885    5.0425  153.6580 C   0  0  0  0  0  0  0  0  0  0  0  0
  -26.2836    4.6581  152.6293 C   0  0  0  0  0  0  0  0  0  0  0  0
  -25.3395    6.2180  154.5969 C   0  0  0  0  0  0  0  0  0  0  0  0
  -26.6054    6.8089  154.6851 O   0  0  0  0  0  0  0  0  0  0  0  0
  -25.3161    4.7652  155.1383 C   0  0  0  0  0  0  0  0  0  0  0  0
  2  1  1  0
  3  2  1  0
  4  3  1  0
  5  4  1  0
  6  5  1  0
  8  5  1  0
  9  6  1  0
  9  8  1  0
 10  5  1  0
 10  8  1  0
 11  7  2  0
 12  1  1  0
 12  7  1  0
 13  2  1  0
 13 12  1  0
 14  9  1  0
 15 14  1  0
 16 15  1  0
 17 15  1  0
 18 16  2  0
 19 17  1  0
 20  8  1  0
 20 18  1  0
 21 19  1  0
 22 21  1  0
 23 19  1  0
 23 22  1  0
 24 22  1  0
 25 24  1  0
 26 22  1  0
 26 24  1  0
M  END
$$$$

     RDKit          3D

 27 29  0  0  0  0  0  0  0  0999 V2000
  -26.5363    1.2234  136.0260 O   0  0  0  0  0  0  0  0  0  0  0  0
  -26.2184    1.7736  134.7471 C   0  0  0  0  0  0  0  0  0  0  0  0
  -24.6964    2.1051  134.6622 C   0  0  0  0  0  0  0  0  0  0  0  0
  -24.2536    3.5334  135.1123 C   0  0  0  0  0  0  0  0  0  0  0  0
  -24.9983    4.0928  136.3593 C   0  0  0  0  0  0  0  0  0  0  0  0
  -26.6759    0.8822  133.5503 C   0  0  0  0  0  0  0  0  0  0  0  0
  -26.1353   -0.1313  136.1982 C   0  0  0  0  0  0  0  0  0  0  0  0
  -24.6560    5.4883  136.6923 N   0  0  0  0  0  0  0  0  0  0  0  0
  -28.1003    0.3380  133.6597 C   0  0  0  0  0  0  0  0  0  0  0  0
  -25.2879   -0.3657  138.1486 I   0  0  0  0  0  0  0  0  0  0  0  0
  -27.7686    1.3703  132.5783 C   0  0  0  0  0  0  0  0  0  0  0  0
  -28.4884    2.7259  132.7925 C   0  0  0  0  0  0  0  0  0  0  0  0
  -27.5620    3.8954  132.4138 C   0  0  0  0  0  0  0  0  0  0  0  0
  -28.1018    5.3430  132.3534 C   0  0  0  0  0  0  0  0  0  0  0  0
  -25.1007    6.4555  135.6648 C   0  0  0  0  0  0  0  0  0  0  0  0
  -22.7417    3.4805  135.3941 C   0  0  0  0  0  0  0  0  0  0  0  0
  -24.0104    6.7881  134.7474 N   0  0  0  0  0  0  0  0  0  0  0  0
  -29.5868    5.7913  132.3877 C   0  0  0  0  0  0  0  0  0  0  0  0
  -30.3715    5.3630  133.6316 C   0  0  0  0  0  0  0  0  0  0  0  0
  -27.8078    4.5493  131.0668 C   0  0  0  0  0  0  0  0  0  0  0  0
  -31.8393    5.8374  133.5670 C   0  0  0  0  0  0  0  0  0  0  0  0
  -32.7793    4.7702  133.0507 C   0  0  0  0  0  0  0  0  0  0  0  0
  -33.1144    4.5553  131.7642 C   0  0  0  0  0  0  0  0  0  0  0  0
  -29.5218    6.0507  135.2444 Br  0  0  0  0  0  0  0  0  0  0  0  0
  -31.8218    4.5194  129.5740 C   0  0  0  0  0  0  0  0  0  0  0  0
  -33.2287    5.0009  129.2627 C   0  0  0  0  0  0  0  0  0  0  0  0
  -32.5808    5.3534  130.5981 C   0  0  0  0  0  0  0  0  0  0  0  0
  2  1  1  0
  3  2  1  0
  4  3  1  0
  5  4  1  0
  6  2  1  0
  7  1  1  0
  8  5  1  0
  9  6  1  0
 10  7  1  0
 11  6  1  0
 11  9  1  0
 12 11  1  0
 13 12  1  0
 14 13  1  0
 15  8  1  0
 16  4  1  0
 17 15  1  0
 18 14  1  0
 19 18  1  0
 20 13  1  0
 20 14  1  0
 21 19  1  0
 22 21  1  0
 23 22  2  3
 24 19  1  0
 26 25  1  0
 27 23  1  0
 27 25  1  0
 27 26  1  0
M  END
$$$$

     RDKit          3D

 27 29  0  0  0  0  0  0  0  0999 V2000
  -28.7287   -7.2818  140.0135 C   0  0  0  0  0  0  0  0  0  0  0  0
  -29.5722    0.5721  141.1677 C   0  0  0  0  0  0  0  0  0  0  0  0
  -30.2143   12.4741  141.3915 C   0  0  0  0  0  0  0  0  0  0  0  0
  -26.7466   -8.0132  143.6000 C   0  0  0  0  0  0  0  0  0  0  0  0
  -30.1722    5.2346  141.8883 C   0  0  0  0  0  0  0  0  0  0  0  0
  -25.3188   -5.3866  141.9656 C   0  0  0  0  0  0  0  0  0  0  0  0
  -26.7658   -9.7978  142.1483 C   0  0  0  0  0  0  0  0  0  0  0  0
  -26.3415   -7.7403  142.5817 C   0  0  0  0  0  0  0  0  0  0  0  0
  -27.3125   -3.6801  140.9613 C   0  0  0  0  0  0  0  0  0  0  0  0
  -24.5695  -10.0540  145.3274 O   0  0  0  0  0  0  0  0  0  0  0  0
  -25.8384   -5.6475  142.9000 C   0  0  0  0  0  0  0  0  0  0  0  0
  -22.4180   -4.5651  139.9047 C   0  0  0  0  0  0  0  0  0  0  0  0
  -27.6277   -6.0582  145.5390 C   0  0  0  0  0  0  0  0  0  0  0  0
  -26.2533  -10.5770  144.2278 C   0  0  0  0  0  0  0  0  0  0  0  0
  -24.2880   -9.0892  143.0807 C   0  0  0  0  0  0  0  0  0  0  0  0
  -25.6585  -13.1919  146.6861 C   0  0  0  0  0  0  0  0  0  0  0  0
  -23.0583   -6.9091  140.3159 C   0  0  0  0  0  0  0  0  0  0  0  0
  -36.5013   11.4907  140.9380 C   0  0  0  0  0  0  0  0  0  0  0  0
  -27.3482   -8.4206  145.7903 C   0  0  0  0  0  0  0  0  0  0  0  0
  -20.9207   -6.3612  140.5697 C   0  0  0  0  0  0  0  0  0  0  0  0
  -24.5276   -9.1493  140.9244 C   0  0  0  0  0  0  0  0  0  0  0  0
  -34.6721   10.2187  140.3382 C   0  0  0  0  0  0  0  0  0  0  0  0
  -32.9890   11.9017  140.1749 C   0  0  0  0  0  0  0  0  0  0  0  0
  -32.2140   14.1414  139.6570 C   0  0  0  0  0  0  0  0  0  0  0  0
  -31.5516    8.6014  140.5580 C   0  0  0  0  0  0  0  0  0  0  0  0
  -29.8823   -6.0267  144.7815 C   0  0  0  0  0  0  0  0  0  0  0  0
  -30.4503   12.9523  139.3122 C   0  0  0  0  0  0  0  0  0  0  0  0
  4  1  1  0
  5  2  1  0
  7  4  1  0
  8  6  1  0
  8  7  1  0
  9  1  1  0
  9  2  1  0
  9  6  1  0
 10  4  1  0
 11  8  1  0
 12 11  1  0
 13 11  1  0
 15 14  1  0
 16 14  1  0
 17 12  1  0
 19 13  1  0
 19 14  1  0
 20 17  1  0
 21 15  1  0
 21 17  1  0
 22 18  1  0
 23 22  1  0
 24 23  1  0
 25  3  1  0
 25  5  1  0
 25 22  1  0
 26  4  1  0
 27  3  1  0
 27 23  1  0
M  END
$$$$

     RDKit          3D

 27 34  0  0  0  0  0  0  0  0999 V2000
  -31.9279  -11.3644  149.2994 O   0  0  0  0  0  0  0  0  0  0  0  0
  -30.5765  -11.0103  149.4822 C   0  0  0  0  0  0  0  0  0  0  0  0
  -30.2148  -11.1191  150.8270 O   0  0  0  0  0  0  0  0  0  0  0  0
  -30.9633  -12.2923  148.8543 C   0  0  0  0  0  0  0  0  0  0  0  0
  -30.9142  -12.3542  147.3249 C   0  0  0  0  0  0  0  0  0  0  0  0
  -29.6383  -13.0580  146.8347 C   0  0  0  0  0  0  0  0  0  0  0  0
  -29.9100  -13.9742  145.6312 C   0  0  0  0  0  0  0  0  0  0  0  0
  -29.5431  -15.4377  145.8827 C   0  0  0  0  0  0  0  0  0  0  0  0
  -28.5267  -15.5857  147.0130 C   0  0  0  0  0  0  0  0  0  0  0  0
  -29.0024  -13.4503  144.4744 C   0  0  0  0  0  0  0  0  0  0  0  0
  -28.2430  -13.7347  142.0610 C   0  0  0  0  0  0  0  0  0  0  0  0
  -28.3101  -12.3634  147.2121 C   0  0  0  0  0  0  0  0  0  0  0  0
  -27.0986  -15.3067  146.5321 C   0  0  0  0  0  0  0  0  0  0  0  0
  -26.1943  -16.5143  146.7073 C   0  0  0  0  0  0  0  0  0  0  0  0
  -29.2673  -12.9702  141.2006 C   0  0  0  0  0  0  0  0  0  0  0  0
  -28.6475  -11.7653  140.5463 C   0  0  0  0  0  0  0  0  0  0  0  0
  -29.6482  -14.5472  147.0822 C   0  0  0  0  0  0  0  0  0  0  0  0
  -28.8969  -14.4142  143.2733 C   0  0  0  0  0  0  0  0  0  0  0  0
  -28.4116  -10.6454  141.2375 C   0  0  0  0  0  0  0  0  0  0  0  0
  -24.8359  -16.1153  147.2866 C   0  0  0  0  0  0  0  0  0  0  0  0
  -23.8077  -15.2391  146.5325 C   0  0  0  0  0  0  0  0  0  0  0  0
  -26.0389  -15.2611  147.5996 C   0  0  0  0  0  0  0  0  0  0  0  0
  -22.8591  -15.9571  145.5647 C   0  0  0  0  0  0  0  0  0  0  0  0
  -23.1406  -17.4241  145.1950 C   0  0  0  0  0  0  0  0  0  0  0  0
  -21.9093  -18.2286  144.8089 C   0  0  0  0  0  0  0  0  0  0  0  0
  -23.9181  -14.9948  145.0289 C   0  0  0  0  0  0  0  0  0  0  0  0
  -22.8762  -17.7598  143.7348 C   0  0  0  0  0  0  0  0  0  0  0  0
  2  1  1  0
  3  2  1  0
  4  1  1  0
  4  2  1  0
  5  4  1  0
  6  5  1  0
  7  6  1  0
  8  7  1  0
  9  8  1  0
 10  7  1  0
 12  6  1  0
 13  9  1  0
 14 13  1  0
 15 11  1  0
 16 15  1  0
 17  6  1  0
 17  7  1  0
 17  8  1  0
 17  9  1  0
 18 10  1  0
 18 11  1  0
 19 16  2  0
 20 14  1  0
 21 20  1  0
 22 13  1  0
 22 14  1  0
 22 20  1  0
 23 21  1  0
 24 23  1  0
 25 24  1  0
 26 21  1  0
 26 23  1  0
 27 24  1  0
 27 25  1  0
M  END
$$$$

     RDKit          3D

 27 31  0  0  0  0  0  0  0  0999 V2000
  -31.0665  -10.0327  146.3920 C   0  0  0  0  0  0  0  0  0  0  0  0
  -31.4661   -9.1336  145.2514 C   0  0  0  0  0  0  0  0  0  0  0  0
  -32.4769   -9.5137  144.5702 O   0  0  0  0  0  0  0  0  0  0  0  0
  -30.9150   -7.7768  145.0226 N   0  0  0  0  0  0  0  0  0  0  0  0
  -29.9087   -9.3417  147.1747 C   0  0  0  0  0  0  0  0  0  0  0  0
  -30.9144  -11.5752  146.0923 C   0  0  0  0  0  0  0  0  0  0  0  0
  -29.2968  -12.3511  144.7447 F   0  0  0  0  0  0  0  0  0  0  0  0
  -29.8664   -7.0971  145.7570 C   0  0  0  0  0  0  0  0  0  0  0  0
  -30.5435  -11.9688  144.7547 O   0  0  0  0  0  0  0  0  0  0  0  0
  -28.5003   -6.8931  144.9620 C   0  0  0  0  0  0  0  0  0  0  0  0
  -29.8057   -7.7347  147.1578 C   0  0  0  0  0  0  0  0  0  0  0  0
  -27.2461   -6.1411  145.8919 C   0  0  0  0  0  0  0  0  0  0  0  0
  -30.3081  -12.4438  147.2868 C   0  0  0  0  0  0  0  0  0  0  0  0
  -28.8300  -12.4599  147.7033 C   0  0  0  0  0  0  0  0  0  0  0  0
  -28.3074  -11.1137  147.9840 C   0  0  0  0  0  0  0  0  0  0  0  0
  -26.8228  -10.7925  147.8974 C   0  0  0  0  0  0  0  0  0  0  0  0
  -28.5938  -10.1336  146.8566 C   0  0  0  0  0  0  0  0  0  0  0  0
  -25.9921  -10.9107  149.3096 C   0  0  0  0  0  0  0  0  0  0  0  0
  -26.0698   -5.6009  145.0283 C   0  0  0  0  0  0  0  0  0  0  0  0
  -28.7064   -6.0978  143.6494 C   0  0  0  0  0  0  0  0  0  0  0  0
  -27.2079   -9.5551  146.8827 C   0  0  0  0  0  0  0  0  0  0  0  0
  -27.7471   -4.9977  146.9584 C   0  0  0  0  0  0  0  0  0  0  0  0
  -28.2902   -8.2126  144.0683 C   0  0  0  0  0  0  0  0  0  0  0  0
  -29.5815   -6.5870  142.5159 C   0  0  0  0  0  0  0  0  0  0  0  0
  -27.9571   -4.9349  149.4752 C   0  0  0  0  0  0  0  0  0  0  0  0
  -27.1782   -5.3662  148.3086 N   0  0  0  0  0  0  0  0  0  0  0  0
  -28.3144   -7.3320  142.7873 C   0  0  0  0  0  0  0  0  0  0  0  0
  2  1  1  0
  3  2  2  0
  4  2  1  0
  5  1  1  0
  6  1  1  0
  8  4  1  0
  9  6  1  0
  9  7  1  0
 10  8  1  0
 11  5  1  0
 11  8  1  0
 12 10  1  0
 13  6  1  0
 14 13  1  0
 15 14  1  0
 16 15  1  0
 17  5  1  0
 17 15  1  0
 18 16  1  0
 19 12  1  0
 20 10  1  0
 21 16  1  0
 21 17  1  0
 22 12  1  0
 23 10  1  0
 24 20  1  0
 26 22  1  0
 26 25  1  0
 27 20  1  0
 27 23  1  0
 27 24  1  0
M  END
$$$$

     RDKit          3D

 26 31  0  0  0  0  0  0  0  0999 V2000
  -33.4049   -8.1511  137.3213 O   0  0  0  0  0  0  0  0  0  0  0  0
  -31.3270   -7.3667  138.3504 O   0  0  0  0  0  0  0  0  0  0  0  0
  -30.1882   -9.3121  138.3742 O   0  0  0  0  0  0  0  0  0  0  0  0
  -31.0825   -6.9761  139.6180 O   0  0  0  0  0  0  0  0  0  0  0  0
  -28.0667   -8.1595  136.8342 C   0  0  0  0  0  0  0  0  0  0  0  0
  -26.8852   -7.5059  136.0944 C   0  0  0  0  0  0  0  0  0  0  0  0
  -25.9384   -6.3724  136.4671 C   0  0  0  0  0  0  0  0  0  0  0  0
  -29.2273   -7.2678  137.0135 C   0  0  0  0  0  0  0  0  0  0  0  0
  -28.6878   -8.6629  135.1302 P   0  0  0  0  0  0  0  0  0  0  0  0
  -27.2136   -7.7460  134.7508 O   0  0  0  0  0  0  0  0  0  0  0  0
  -29.8336   -7.4895  135.7693 O   0  0  0  0  0  0  0  0  0  0  0  0
  -24.5292   -6.7033  136.1241 C   0  0  0  0  0  0  0  0  0  0  0  0
  -31.0057  -10.0247  137.3873 C   0  0  0  0  0  0  0  0  0  0  0  0
  -32.9266   -9.7930  137.5525 Si  0  0  0  0  0  4  0  0  0  0  0  0
  -33.6060   -7.8242  135.9716 C   0  0  0  0  0  0  0  0  0  0  0  0
  -30.0637   -7.9172  138.2262 C   0  0  0  0  0  0  0  0  0  0  0  0
  -29.7283   -7.3159  139.5713 C   0  0  0  0  0  0  0  0  0  0  0  0
  -30.5722  -11.6101  137.2820 C   0  0  0  0  0  0  0  0  0  0  0  0
  -25.9805   -5.9891  137.8174 O   0  0  0  0  0  0  0  0  0  0  0  0
  -31.2953  -12.3348  136.1064 C   0  0  0  0  0  0  0  0  0  0  0  0
  -32.1397  -15.4031  136.4905 Si  0  0  0  0  0  4  0  0  0  0  0  0
  -33.6298  -14.9245  137.5871 C   0  0  0  0  0  0  0  0  0  0  0  0
  -29.0346  -11.6257  137.0442 C   0  0  0  0  0  0  0  0  0  0  0  0
  -32.9930  -13.5643  137.8520 C   0  0  0  0  0  0  0  0  0  0  0  0
  -32.2984  -13.5029  136.4804 C   0  0  0  0  0  0  0  0  0  0  0  0
  -25.4618   -7.8545  136.4522 C   0  0  0  0  0  0  0  0  0  0  0  0
  4  2  1  0
  6  5  1  0
  7  6  1  0
  8  5  1  0
  9  5  1  0
 10  6  1  0
 10  9  1  0
 11  8  1  0
 11  9  1  0
 12  7  1  0
 13  3  1  0
 14  1  1  0
 14 13  1  0
 15  1  1  0
 16  2  1  0
 16  3  1  0
 16  8  1  0
 17  4  1  0
 17 16  1  0
 18 13  1  0
 19  7  1  0
 20 18  1  0
 22 21  1  0
 23 18  1  0
 24 22  1  0
 25 20  1  0
 25 21  1  0
 25 24  1  0
 26  6  1  0
 26  7  1  0
 26 12  1  0
M  END
$$$$

     RDKit          3D

 27 31  0  0  0  0  0  0  0  0999 V2000
  -25.1203   -0.5863  132.4672 O   0  0  0  0  0  0  0  0  0  0  0  0
  -25.6493   -1.3054  131.3919 C   0  0  0  0  0  0  0  0  0  0  0  0
  -25.6960   -2.8186  131.4489 C   0  0  0  0  0  0  0  0  0  0  0  0
  -26.1377   -0.6479  130.3319 C   0  0  0  0  0  0  0  0  0  0  0  0
  -24.9784   -3.4057  132.7087 C   0  0  0  0  0  0  0  0  0  0  0  0
  -24.0610   -4.5289  132.1421 C   0  0  0  0  0  0  0  0  0  0  0  0
  -26.5308   -1.3377  129.0532 C   0  0  0  0  0  0  0  0  0  0  0  0
  -24.5913   -4.6863  133.5205 C   0  0  0  0  0  0  0  0  0  0  0  0
  -26.9008   -2.8271  129.2296 C   0  0  0  0  0  0  0  0  0  0  0  0
  -27.2164   -3.4691  127.8383 C   0  0  0  0  0  0  0  0  0  0  0  0
  -26.5304   -3.4468  132.5375 C   0  0  0  0  0  0  0  0  0  0  0  0
  -26.5011   -4.7764  127.4429 C   0  0  0  0  0  0  0  0  0  0  0  0
  -27.0731   -6.0909  128.0437 C   0  0  0  0  0  0  0  0  0  0  0  0
  -26.1545   -6.9831  128.8858 C   0  0  0  0  0  0  0  0  0  0  0  0
  -25.4510   -5.9556  133.7085 C   0  0  0  0  0  0  0  0  0  0  0  0
  -25.8184   -3.5325  130.0715 C   0  0  0  0  0  0  0  0  0  0  0  0
  -27.2769   -2.5406  133.5251 C   0  0  0  0  0  0  0  0  0  0  0  0
  -28.6067   -6.3493  128.0835 C   0  0  0  0  0  0  0  0  0  0  0  0
  -29.3436   -5.6839  129.2328 C   0  0  0  0  0  0  0  0  0  0  0  0
  -26.3335   -7.2914  127.4197 C   0  0  0  0  0  0  0  0  0  0  0  0
  -30.8095   -5.3436  129.0722 C   0  0  0  0  0  0  0  0  0  0  0  0
  -28.8385   -5.6908  130.4795 C   0  0  0  0  0  0  0  0  0  0  0  0
  -31.1996   -4.4562  127.8881 C   0  0  0  0  0  0  0  0  0  0  0  0
  -32.5998   -4.5315  127.3156 C   0  0  0  0  0  0  0  0  0  0  0  0
  -31.1247   -3.8661  129.2902 C   0  0  0  0  0  0  0  0  0  0  0  0
  -33.6681   -5.0636  127.9234 C   0  0  0  0  0  0  0  0  0  0  0  0
  -26.2545   -5.8672  134.9996 C   0  0  0  0  0  0  0  0  0  0  0  0
  2  1  1  0
  3  2  1  0
  4  2  2  0
  5  3  1  0
  6  5  1  0
  7  4  1  0
  8  5  1  0
  8  6  1  0
  9  7  1  0
 10  9  1  0
 11  3  1  0
 11  5  1  0
 12 10  1  0
 13 12  1  0
 14 13  1  0
 15  8  1  0
 16  3  1  0
 16  9  1  0
 17 11  1  0
 18 13  1  0
 19 18  1  0
 20 13  1  0
 20 14  1  0
 21 19  1  0
 22 19  2  0
 23 21  1  0
 24 23  1  0
 25 21  1  0
 25 23  1  0
 26 24  2  0
 27 15  1  0
M  END
$$$$

     RDKit          3D

 26 28  0  0  0  0  0  0  0  0999 V2000
  -28.7142  -14.5508  133.1185 C   0  0  0  0  0  0  0  0  0  0  0  0
  -13.0668  -11.1570  135.5903 I   0  0  0  0  0  0  0  0  0  0  0  0
  -18.3969  -17.3294  135.0517 C   0  0  0  0  0  0  0  0  0  0  0  0
  -30.4557  -24.3022  139.1088 O   0  0  0  0  0  0  0  0  0  0  0  0
  -19.4375  -15.3345  137.9793 O   0  0  0  0  0  0  0  0  0  0  0  0
  -13.9899  -13.9445  135.0626 C   0  0  0  0  0  0  0  0  0  0  0  0
  -12.5314  -15.3214  133.2574 C   0  0  0  0  0  0  0  0  0  0  0  0
  -17.2200  -15.4425  136.7432 C   0  0  0  0  0  0  0  0  0  0  0  0
  -12.1199  -16.7957  132.0506 C   0  0  0  0  0  0  0  0  0  0  0  0
  -23.6436  -17.1386  137.1454 C   0  0  0  0  0  0  0  0  0  0  0  0
  -18.9723  -16.4383  134.8198 C   0  0  0  0  0  0  0  0  0  0  0  0
  -32.4715  -26.4404  138.3069 C   0  0  0  0  0  0  0  0  0  0  0  0
  -20.2714  -16.0452  136.4189 C   0  0  0  0  0  0  0  0  0  0  0  0
  -17.8070  -15.9807  133.6974 C   0  0  0  0  0  0  0  0  0  0  0  0
  -11.0058  -14.7287  132.9327 N   0  0  0  0  0  0  0  0  0  0  0  0
  -31.4252  -25.5308  139.3498 C   0  0  0  0  0  0  0  0  0  0  0  0
  -25.3511  -16.0746  133.0545 C   0  0  0  0  0  0  0  0  0  0  0  0
  -17.3373  -18.2206  134.5711 C   0  0  0  0  0  0  0  0  0  0  0  0
  -31.0220  -23.0147  138.2519 C   0  0  0  0  0  0  0  0  0  0  0  0
  -33.3164  -25.0931  137.5507 C   0  0  0  0  0  0  0  0  0  0  0  0
  -29.3387  -20.3681  138.5737 C   0  0  0  0  0  0  0  0  0  0  0  0
  -26.9941  -14.8830  133.2826 C   0  0  0  0  0  0  0  0  0  0  0  0
  -22.3323  -16.0276  136.1877 C   0  0  0  0  0  0  0  0  0  0  0  0
  -26.7651  -18.2805  137.8474 C   0  0  0  0  0  0  0  0  0  0  0  0
  -35.0244  -25.3723  137.9788 C   0  0  0  0  0  0  0  0  0  0  0  0
  -36.6244  -26.1771  137.1783 C   0  0  0  0  0  0  0  0  0  0  0  0
  6  2  1  0
  7  6  1  0
  8  5  1  0
  8  6  1  0
  9  7  1  0
 13  8  1  0
 13 10  1  0
 13 11  1  0
 14  3  1  0
 14 11  1  0
 15  7  1  0
 16  4  1  0
 16 12  1  0
 18  3  1  0
 18 11  1  0
 19  4  1  0
 20 12  1  0
 20 19  1  0
 21 19  1  0
 22  1  1  0
 22 17  1  0
 23  5  1  0
 23 10  1  0
 23 17  1  0
 24 10  1  0
 24 21  1  0
 25 20  1  0
 26 25  1  0
M  END
$$$$

     RDKit          3D

 26 32  0  0  0  0  0  0  0  0999 V2000
  -24.7432  -12.9517  139.3208 C   0  0  0  0  0  0  0  0  0  0  0  0
  -23.2383  -13.0574  139.3911 C   0  0  0  0  0  0  0  0  0  0  0  0
  -22.4177  -15.5100  139.5067 N   0  0  0  0  0  0  0  0  0  0  0  0
  -25.3552  -11.9651  138.3411 C   0  0  0  0  0  0  0  0  0  0  0  0
  -24.5728  -10.8297  138.9665 C   0  0  0  0  0  0  0  0  0  0  0  0
  -23.9015  -11.8013  139.9230 C   0  0  0  0  0  0  0  0  0  0  0  0
  -20.5395  -16.5897  138.1570 C   0  0  0  0  0  0  0  0  0  0  0  0
  -21.4416  -16.4606  136.9830 C   0  0  0  0  0  0  0  0  0  0  0  0
  -21.1701  -17.8877  137.5428 C   0  0  0  0  0  0  0  0  0  0  0  0
  -22.6182  -18.3978  137.7760 C   0  0  0  0  0  0  0  0  0  0  0  0
  -21.5894  -18.7154  138.7925 C   0  0  0  0  0  0  0  0  0  0  0  0
  -23.0004  -19.5739  136.8636 C   0  0  0  0  0  0  0  0  0  0  0  0
  -24.2171  -20.3487  137.3698 C   0  0  0  0  0  0  0  0  0  0  0  0
  -25.0116  -19.8956  136.1447 C   0  0  0  0  0  0  0  0  0  0  0  0
  -26.1908  -19.0010  136.4636 C   0  0  0  0  0  0  0  0  0  0  0  0
  -22.6530  -14.2048  140.6772 S   0  0  0  0  0  0  0  0  0  0  0  0
  -26.0578  -18.0496  137.2219 O   0  0  0  0  0  0  0  0  0  0  0  0
  -27.8036  -17.2623  134.1612 C   0  0  0  0  0  0  0  0  0  0  0  0
  -28.8101  -18.3820  133.7182 C   0  0  0  0  0  0  0  0  0  0  0  0
  -23.7905  -19.1313  135.6316 C   0  0  0  0  0  0  0  0  0  0  0  0
  -24.2047  -11.6980  141.2869 O   0  0  0  0  0  0  0  0  0  0  0  0
  -26.5842  -19.2893  133.4788 F   0  0  0  0  0  0  0  0  0  0  0  0
  -28.8722  -17.0071  133.1183 C   0  0  0  0  0  0  0  0  0  0  0  0
  -27.5218  -19.2389  135.8066 C   0  0  0  0  0  0  0  0  0  0  0  0
  -27.4963  -18.7313  134.3608 C   0  0  0  0  0  0  0  0  0  0  0  0
  -20.9860  -15.8274  139.4406 C   0  0  0  0  0  0  0  0  0  0  0  0
  2  1  1  0
  4  1  1  0
  5  4  1  0
  6  1  1  0
  6  2  1  0
  6  5  1  0
  8  7  1  0
  9  7  1  0
  9  8  1  0
 10  9  1  0
 11  9  1  0
 11 10  1  0
 12 10  1  0
 13 12  1  0
 14 13  1  0
 15 14  1  0
 16  2  1  0
 16  3  1  0
 17 15  2  0
 19 18  1  0
 20 12  1  0
 20 14  1  0
 21  6  1  0
 23 18  1  0
 23 19  1  0
 24 15  1  0
 25 18  1  0
 25 19  1  0
 25 22  1  0
 25 24  1  0
 26  3  1  0
 26  7  1  0
M  END
$$$$

     RDKit          3D

 27 31  0  0  0  0  0  0  0  0999 V2000
  -21.5858   -6.5973  136.7663 C   0  0  0  0  0  0  0  0  0  0  0  0
  -20.6916   -5.7757  136.0722 O   0  0  0  0  0  0  0  0  0  0  0  0
  -20.9955   -7.3098  137.8449 O   0  0  0  0  0  0  0  0  0  0  0  0
  -21.6975   -4.0915  137.6363 C   0  0  0  0  0  0  0  0  0  0  0  0
  -22.4243   -5.4216  137.2472 C   0  0  0  0  0  0  0  0  0  0  0  0
  -20.2859   -3.7111  138.1756 C   0  0  0  0  0  0  0  0  0  0  0  0
  -19.3463   -4.6688  138.9610 C   0  0  0  0  0  0  0  0  0  0  0  0
  -21.8582   -5.8922  141.3108 C   0  0  0  0  0  0  0  0  0  0  0  0
  -22.6715   -3.8901  143.5086 F   0  0  0  0  0  0  0  0  0  0  0  0
  -19.6554   -5.0251  140.4442 C   0  0  0  0  0  0  0  0  0  0  0  0
  -21.0162   -4.6333  141.0593 C   0  0  0  0  0  0  0  0  0  0  0  0
  -18.5170   -4.1125  140.8974 C   0  0  0  0  0  0  0  0  0  0  0  0
  -17.1402   -4.5483  140.4226 C   0  0  0  0  0  0  0  0  0  0  0  0
  -15.9155   -3.6959  140.8549 C   0  0  0  0  0  0  0  0  0  0  0  0
  -16.1064   -2.4321  141.7207 C   0  0  0  0  0  0  0  0  0  0  0  0
  -17.1936   -1.3798  141.3644 C   0  0  0  0  0  0  0  0  0  0  0  0
  -17.6999   -1.2384  139.8964 C   0  0  0  0  0  0  0  0  0  0  0  0
  -17.6643   -2.4425  138.9324 C   0  0  0  0  0  0  0  0  0  0  0  0
  -16.7551    0.0022  141.8688 C   0  0  0  0  0  0  0  0  0  0  0  0
  -18.0846   -3.8697  139.4460 C   0  0  0  0  0  0  0  0  0  0  0  0
  -22.4096   -7.4675  135.8039 C   0  0  0  0  0  0  0  0  0  0  0  0
  -21.5243   -4.6472  136.2685 C   0  0  0  0  0  0  0  0  0  0  0  0
  -22.5247   -6.0908  144.3170 C   0  0  0  0  0  0  0  0  0  0  0  0
  -23.1086   -6.5788  145.2837 O   0  0  0  0  0  0  0  0  0  0  0  0
  -23.2345   -5.1426  143.3928 C   0  0  0  0  0  0  0  0  0  0  0  0
  -23.2352   -5.6039  141.9290 C   0  0  0  0  0  0  0  0  0  0  0  0
  -20.0181   -8.2315  137.4075 C   0  0  0  0  0  0  0  0  0  0  0  0
  2  1  1  0
  3  1  1  0
  5  1  1  0
  5  4  1  0
  6  4  1  0
  7  6  1  0
 10  7  1  0
 11  8  1  0
 11 10  1  0
 12 10  1  0
 13 12  1  0
 14 13  1  0
 15 14  1  0
 16 15  1  0
 17 16  1  0
 18 17  1  0
 19 16  1  0
 20  7  1  0
 20 12  1  0
 20 13  1  0
 20 18  1  0
 21  1  1  0
 22  2  1  0
 22  4  1  0
 22  5  1  0
 24 23  2  0
 25  9  1  0
 25 23  1  0
 26  8  1  0
 26 25  1  0
 27  3  1  0
M  END
$$$$

     RDKit          3D

 11 12  0  0  0  0  0  0  0  0999 V2000
  -26.7838   -1.8475  138.1209 Al  0  0  0  0  0  3  0  0  0  0  0  0
  -24.1055   -2.6253  137.3262 C   0  0  0  0  0  0  0  0  0  0  0  0
  -23.9252   -4.0100  137.7895 N   0  0  0  0  0  0  0  0  0  0  0  0
  -22.8810   -2.1162  136.8356 O   0  0  0  0  0  0  0  0  0  0  0  0
  -23.6156   -3.3588  134.9269 N   0  0  0  0  0  0  0  0  0  0  0  0
  -24.8036   -1.6300  138.2559 C   0  0  0  0  0  0  0  0  0  0  0  0
  -24.2031   -4.9597  136.7156 C   0  0  0  0  0  0  0  0  0  0  0  0
  -23.2903   -4.6578  135.5318 C   0  0  0  0  0  0  0  0  0  0  0  0
  -23.9117   -2.2776  135.8858 C   0  0  0  0  0  0  0  0  0  0  0  0
  -27.5371   -3.4964  138.9398 C   0  0  0  0  0  0  0  0  0  0  0  0
  -27.5768   -1.3115  136.3778 C   0  0  0  0  0  0  0  0  0  0  0  0
  3  2  1  0
  4  2  1  0
  6  1  1  0
  6  2  1  0
  7  3  1  0
  8  5  1  0
  8  7  1  0
  9  2  1  0
  9  4  1  0
  9  5  1  0
 10  1  1  0
 11  1  1  0
M  END
$$$$

     RDKit          3D

 27 35  0  0  0  0  0  0  0  0999 V2000
  -20.4181   -4.5345  140.0418 C   0  0  0  0  0  0  0  0  0  0  0  0
  -19.3259   -3.4526  139.8448 C   0  0  0  0  0  0  0  0  0  0  0  0
  -18.9659   -2.7175  141.1754 C   0  0  0  0  0  0  0  0  0  0  0  0
  -18.0129   -3.7387  140.5011 C   0  0  0  0  0  0  0  0  0  0  0  0
  -20.8854   -4.6953  138.5662 C   0  0  0  0  0  0  0  0  0  0  0  0
  -16.8444   -3.2688  139.6973 N   0  0  0  0  0  0  0  0  0  0  0  0
  -21.4797   -5.5679  139.5837 C   0  0  0  0  0  0  0  0  0  0  0  0
  -21.7812   -4.0801  139.6597 C   0  0  0  0  0  0  0  0  0  0  0  0
  -17.8390   -5.0969  141.1456 C   0  0  0  0  0  0  0  0  0  0  0  0
  -18.1092   -5.2529  142.3373 O   0  0  0  0  0  0  0  0  0  0  0  0
  -17.3674   -6.2584  140.3052 C   0  0  0  0  0  0  0  0  0  0  0  0
  -16.5579   -7.2851  141.0706 C   0  0  0  0  0  0  0  0  0  0  0  0
  -16.6015   -1.8098  139.5544 C   0  0  0  0  0  0  0  0  0  0  0  0
  -16.0379   -8.4393  140.1924 C   0  0  0  0  0  0  0  0  0  0  0  0
  -17.9785  -10.1145  140.1304 C   0  0  0  0  0  0  0  0  0  0  0  0
  -17.4619   -8.7252  139.7130 C   0  0  0  0  0  0  0  0  0  0  0  0
  -17.9689   -7.6224  140.6113 C   0  0  0  0  0  0  0  0  0  0  0  0
  -16.0489   -1.0996  140.8025 C   0  0  0  0  0  0  0  0  0  0  0  0
  -13.9430   -2.7080  141.1603 C   0  0  0  0  0  0  0  0  0  0  0  0
  -12.9162   -1.6714  140.8546 C   0  0  0  0  0  0  0  0  0  0  0  0
  -15.5977    0.3805  140.4451 C   0  0  0  0  0  0  0  0  0  0  0  0
  -13.1109   -0.9021  139.7819 C   0  0  0  0  0  0  0  0  0  0  0  0
  -15.2976    1.0252  141.7957 C   0  0  0  0  0  0  0  0  0  0  0  0
  -13.0691    0.5661  139.9145 C   0  0  0  0  0  0  0  0  0  0  0  0
  -13.8774    1.3671  142.0758 C   0  0  0  0  0  0  0  0  0  0  0  0
  -14.3021    1.2382  140.6184 C   0  0  0  0  0  0  0  0  0  0  0  0
  -15.1730   -2.0068  141.7599 C   0  0  0  0  0  0  0  0  0  0  0  0
  2  1  1  0
  3  2  1  0
  4  2  1  0
  4  3  1  0
  5  1  1  0
  6  4  1  0
  7  1  1  0
  7  5  1  0
  8  1  1  0
  8  5  1  0
  8  7  1  0
  9  4  1  0
 10  9  2  0
 11  9  1  0
 12 11  1  0
 13  6  1  0
 14 12  1  0
 16 14  1  0
 16 15  1  0
 17 11  1  0
 17 12  1  0
 17 16  1  0
 18 13  1  0
 20 19  1  0
 21 18  1  0
 22 20  2  3
 23 21  1  0
 24 22  1  0
 25 23  1  0
 26 21  1  0
 26 23  1  0
 26 24  1  0
 26 25  1  0
 27 18  1  0
 27 19  1  0
M  END
$$$$

     RDKit          3D

 27 35  0  0  0  0  0  0  0  0999 V2000
  -26.3196  -13.0863  151.1157 O   0  0  0  0  0  0  0  0  0  0  0  0
  -28.3383  -14.1671  149.4580 C   0  0  0  0  0  0  0  0  0  0  0  0
  -29.0322  -15.3941  149.7007 O   0  0  0  0  0  0  0  0  0  0  0  0
  -28.2217  -13.3219  152.0669 C   0  0  0  0  0  0  0  0  0  0  0  0
  -26.8119  -19.3284  150.5974 B   0  0  0  0  0  0  0  0  0  0  0  0
  -27.0733  -16.7496  151.4791 C   0  0  0  0  0  0  0  0  0  0  0  0
  -27.2816  -18.2598  151.6416 N   0  0  0  0  0  0  0  0  0  0  0  0
  -28.0135  -16.0851  152.6916 C   0  0  0  0  0  0  0  0  0  0  0  0
  -27.6160  -13.4261  150.6973 C   0  0  0  0  0  0  0  0  0  0  0  0
  -28.1277  -16.8240  154.1206 C   0  0  0  0  0  0  0  0  0  0  0  0
  -26.8721  -12.6729  152.3658 C   0  0  0  0  0  0  0  0  0  0  0  0
  -24.4531  -19.6471  152.0354 C   0  0  0  0  0  0  0  0  0  0  0  0
  -26.7248  -16.3230  149.8540 C   0  0  0  0  0  0  0  0  0  0  0  0
  -29.4940  -15.5602  152.4653 C   0  0  0  0  0  0  0  0  0  0  0  0
  -25.8667  -17.3229  149.0367 N   0  0  0  0  0  0  0  0  0  0  0  0
  -27.7722  -15.4918  149.0489 C   0  0  0  0  0  0  0  0  0  0  0  0
  -23.2775  -20.2934  151.3288 C   0  0  0  0  0  0  0  0  0  0  0  0
  -25.3734  -20.0451  150.8545 C   0  0  0  0  0  0  0  0  0  0  0  0
  -26.2190  -18.1615  147.7623 C   0  0  0  0  0  0  0  0  0  0  0  0
  -23.7279  -20.8760  152.6255 C   0  0  0  0  0  0  0  0  0  0  0  0
  -24.0580  -20.1611  150.0580 C   0  0  0  0  0  0  0  0  0  0  0  0
  -28.3114  -14.6262  152.8936 C   0  0  0  0  0  0  0  0  0  0  0  0
  -25.0071  -18.6971  146.8674 C   0  0  0  0  0  0  0  0  0  0  0  0
  -26.9559  -17.2762  146.7603 C   0  0  0  0  0  0  0  0  0  0  0  0
  -24.3572  -17.3542  147.0841 C   0  0  0  0  0  0  0  0  0  0  0  0
  -24.2781  -20.0549  147.0929 C   0  0  0  0  0  0  0  0  0  0  0  0
  -25.7046  -16.8173  147.6375 C   0  0  0  0  0  0  0  0  0  0  0  0
  3  2  1  0
  7  5  1  0
  7  6  1  0
  8  6  1  0
  9  1  1  0
  9  2  1  0
  9  4  1  0
 10  8  1  0
 11  1  1  0
 11  4  1  0
 13  6  1  0
 14  8  1  0
 15 13  1  0
 16  2  1  0
 16  3  1  0
 16 13  1  0
 17 12  1  0
 18  5  1  0
 18 12  1  0
 19 15  1  0
 20 12  1  0
 20 17  1  0
 21 17  1  0
 21 18  1  0
 22  4  1  0
 22  8  1  0
 22 14  1  0
 23 19  1  0
 24 19  1  0
 25 23  1  0
 26 23  1  0
 27 15  1  0
 27 19  1  0
 27 24  1  0
 27 25  1  0
M  END
$$$$

     RDKit          3D

 27 33  0  0  0  0  0  0  0  0999 V2000
  -27.6411  -17.3783  148.5666 N   0  0  0  0  0  0  0  0  0  0  0  0
  -28.7698  -18.2115  148.9380 C   0  0  0  0  0  0  0  0  0  0  0  0
  -30.1412  -17.7802  149.2430 N   0  0  0  0  0  0  0  0  0  0  0  0
  -26.4998  -17.9296  149.3463 C   0  0  0  0  0  0  0  0  0  0  0  0
  -30.5101  -16.6289  148.3816 C   0  0  0  0  0  0  0  0  0  0  0  0
  -31.0259  -14.6215  149.0030 C   0  0  0  0  0  0  0  0  0  0  0  0
  -29.7639  -15.2765  148.4408 C   0  0  0  0  0  0  0  0  0  0  0  0
  -31.7657  -15.9454  148.9187 C   0  0  0  0  0  0  0  0  0  0  0  0
  -26.8294  -18.1751  150.8745 C   0  0  0  0  0  0  0  0  0  0  0  0
  -28.3277  -18.6039  151.1566 C   0  0  0  0  0  0  0  0  0  0  0  0
  -29.1027  -17.6218  150.2762 C   0  0  0  0  0  0  0  0  0  0  0  0
  -28.7245  -18.3878  152.6482 C   0  0  0  0  0  0  0  0  0  0  0  0
  -29.4615  -18.9227  153.9459 C   0  0  0  0  0  0  0  0  0  0  0  0
  -29.4248  -17.8140  155.0912 C   0  0  0  0  0  0  0  0  0  0  0  0
  -30.7638  -17.1153  155.5524 C   0  0  0  0  0  0  0  0  0  0  0  0
  -30.1601  -19.0285  152.6466 C   0  0  0  0  0  0  0  0  0  0  0  0
  -31.3601  -18.1461  152.3258 C   0  0  0  0  0  0  0  0  0  0  0  0
  -30.9878  -15.8357  154.7284 C   0  0  0  0  0  0  0  0  0  0  0  0
  -31.3378  -14.3610  154.9249 C   0  0  0  0  0  0  0  0  0  0  0  0
  -31.8444  -17.9808  155.4367 F   0  0  0  0  0  0  0  0  0  0  0  0
  -30.3845  -13.5075  155.6519 N   0  0  0  0  0  0  0  0  0  0  0  0
  -30.8722  -13.2882  156.9781 N   0  0  0  0  0  0  0  0  0  0  0  0
  -30.0696  -13.9321  158.0306 C   0  0  0  0  0  0  0  0  0  0  0  0
  -28.4766  -15.0951  154.4053 Si  0  0  0  0  0  4  0  0  0  0  0  0
  -28.6878  -13.8214  157.7626 O   0  0  0  0  0  0  0  0  0  0  0  0
  -30.0070  -14.9030  155.4104 C   0  0  0  0  0  0  0  0  0  0  0  0
  -28.1603  -16.8512  155.0469 C   0  0  0  0  0  0  0  0  0  0  0  0
  2  1  1  0
  3  2  1  0
  4  1  1  0
  5  3  1  0
  7  5  1  0
  7  6  1  0
  8  5  1  0
  8  6  1  0
  9  4  1  0
 10  9  1  0
 11  2  1  0
 11  3  1  0
 11 10  1  0
 12 10  1  0
 13 12  1  0
 14 13  1  0
 15 14  1  0
 16 12  1  0
 16 13  1  0
 17 16  1  0
 18 15  1  0
 19 18  1  0
 20 15  1  0
 21 19  1  0
 22 21  1  0
 23 22  1  0
 25 23  1  0
 26 18  1  0
 26 19  1  0
 26 21  1  0
 26 24  1  0
 27 14  1  0
 27 24  1  0
M  END
$$$$

     RDKit          3D

 21 22  0  0  0  0  0  0  0  0999 V2000
  -21.1178   -4.6833  140.9232 O   0  0  0  0  0  0  0  0  0  0  0  0
  -22.0265   -3.8418  140.2391 C   0  0  0  0  0  0  0  0  0  0  0  0
  -24.2849    0.4857  141.1478 C   0  0  0  0  0  0  0  0  0  0  0  0
  -22.4997    0.4268  139.3006 C   0  0  0  0  0  0  0  0  0  0  0  0
  -21.6809    0.6522  141.2751 C   0  0  0  0  0  0  0  0  0  0  0  0
  -21.2263    1.0429  139.8744 C   0  0  0  0  0  0  0  0  0  0  0  0
  -22.3464   -0.9421  138.7985 N   0  0  0  0  0  0  0  0  0  0  0  0
  -21.8485   -2.4113  140.7547 C   0  0  0  0  0  0  0  0  0  0  0  0
  -20.5405   -2.0229  140.5144 F   0  0  0  0  0  0  0  0  0  0  0  0
  -23.3147   -4.2761  140.5023 F   0  0  0  0  0  0  0  0  0  0  0  0
  -22.8409   -1.4396  140.0875 C   0  0  0  0  0  0  0  0  0  0  0  0
  -24.3846    1.0780  142.3662 F   0  0  0  0  0  0  0  0  0  0  0  0
  -22.9315   -0.0240  140.6867 C   0  0  0  0  0  0  0  0  0  0  0  0
  -19.4292   -5.0997  139.1459 C   0  0  0  0  0  0  0  0  0  0  0  0
  -25.3998    0.3218  140.4254 C   0  0  0  0  0  0  0  0  0  0  0  0
  -19.8439   -4.8298  137.6711 C   0  0  0  0  0  0  0  0  0  0  0  0
  -21.5240   -6.6726  139.4733 C   0  0  0  0  0  0  0  0  0  0  0  0
  -23.2601   -8.4573  139.9053 C   0  0  0  0  0  0  0  0  0  0  0  0
  -22.2631   -7.4930  140.5443 C   0  0  0  0  0  0  0  0  0  0  0  0
  -19.5939   -3.3802  137.2578 C   0  0  0  0  0  0  0  0  0  0  0  0
  -20.5156   -5.6790  140.1045 C   0  0  0  0  0  0  0  0  0  0  0  0
  2  1  1  0
  6  4  1  0
  6  5  1  0
  7  4  1  0
  8  2  1  0
  9  8  1  0
 10  2  1  0
 11  7  1  0
 11  8  1  0
 12  3  1  0
 13  3  1  0
 13  4  1  0
 13  5  1  0
 13 11  1  0
 15  3  2  0
 16 14  1  0
 19 17  1  0
 19 18  1  0
 20 16  1  0
 21  1  1  0
 21 14  1  0
 21 17  1  0
M  END
$$$$

     RDKit          3D

 27 30  0  0  0  0  0  0  0  0999 V2000
  -18.3243   -7.2282  149.3983 N   0  0  0  0  0  0  0  0  0  0  0  0
  -20.5068  -12.5600  147.0905 C   0  0  0  0  0  0  0  0  0  0  0  0
  -19.2897  -14.6433  145.6270 N   0  0  0  0  0  0  0  0  0  0  0  0
  -21.0473  -12.9187  149.5918 C   0  0  0  0  0  0  0  0  0  0  0  0
  -19.8964  -10.3598  149.1675 C   0  0  0  0  0  0  0  0  0  0  0  0
  -20.5196   -9.2257  148.3450 O   0  0  0  0  0  0  0  0  0  0  0  0
  -18.3587   -7.9265  148.1165 C   0  0  0  0  0  0  0  0  0  0  0  0
  -18.1858  -10.3451  149.1603 C   0  0  0  0  0  0  0  0  0  0  0  0
  -16.4795   -9.1824  147.4645 F   0  0  0  0  0  0  0  0  0  0  0  0
  -20.5789  -14.2164  146.3299 C   0  0  0  0  0  0  0  0  0  0  0  0
  -17.0355  -11.5374  148.9451 C   0  0  0  0  0  0  0  0  0  0  0  0
  -17.0190  -12.9505  149.6064 C   0  0  0  0  0  0  0  0  0  0  0  0
  -20.1137  -15.7541  146.0197 C   0  0  0  0  0  0  0  0  0  0  0  0
  -15.1053  -10.0693  149.7079 C   0  0  0  0  0  0  0  0  0  0  0  0
  -22.3426  -11.0960  148.5974 C   0  0  0  0  0  0  0  0  0  0  0  0
  -15.5990  -11.0128  148.9508 C   0  0  0  0  0  0  0  0  0  0  0  0
  -20.8630  -11.7151  148.5829 C   0  0  0  0  0  0  0  0  0  0  0  0
  -18.2166  -13.8008  149.2265 C   0  0  0  0  0  0  0  0  0  0  0  0
  -18.8519   -9.4966  146.7284 C   0  0  0  0  0  0  0  0  0  0  0  0
  -17.8156   -9.3609  147.9133 C   0  0  0  0  0  0  0  0  0  0  0  0
  -19.6608   -8.4603  147.4888 C   0  0  0  0  0  0  0  0  0  0  0  0
  -15.6715  -14.3135  151.1405 C   0  0  0  0  0  0  0  0  0  0  0  0
  -17.3856  -13.4744  152.2864 C   0  0  0  0  0  0  0  0  0  0  0  0
  -16.4619  -12.9996  151.0984 C   0  0  0  0  0  0  0  0  0  0  0  0
  -15.9058  -15.9101  153.0695 C   0  0  0  0  0  0  0  0  0  0  0  0
  -16.7620  -14.9447  152.1430 C   0  0  0  0  0  0  0  0  0  0  0  0
  -17.8866  -15.8634  151.3914 C   0  0  0  0  0  0  0  0  0  0  0  0
  6  5  1  0
  7  1  1  0
  8  5  1  0
 10  2  1  0
 10  3  1  0
 11  8  1  0
 12 11  1  0
 13  3  1  0
 13 10  1  0
 16 11  1  0
 16 14  2  0
 17  2  1  0
 17  4  1  0
 17  5  1  0
 17 15  1  0
 18 12  1  0
 20  7  1  0
 20  8  1  0
 20  9  1  0
 20 19  1  0
 21  6  1  0
 21  7  1  0
 21 19  1  0
 24 12  1  0
 24 22  1  0
 24 23  1  0
 26 22  1  0
 26 23  1  0
 26 25  1  0
 27 26  1  0
M  END
$$$$

     RDKit          3D

 27 31  0  0  0  0  0  0  0  0999 V2000
  -30.4651  -25.4518  138.3437 O   0  0  0  0  0  0  0  0  0  0  0  0
  -30.4115  -25.2404  139.7361 C   0  0  0  0  0  0  0  0  0  0  0  0
  -30.7077  -23.8964  140.0179 O   0  0  0  0  0  0  0  0  0  0  0  0
  -29.0236  -25.6160  140.2829 C   0  0  0  0  0  0  0  0  0  0  0  0
  -28.9586  -25.6680  141.8262 C   0  0  0  0  0  0  0  0  0  0  0  0
  -29.5936  -26.9573  142.3912 C   0  0  0  0  0  0  0  0  0  0  0  0
  -29.2552  -27.1849  143.8845 C   0  0  0  0  0  0  0  0  0  0  0  0
  -30.1451  -26.2900  144.7905 C   0  0  0  0  0  0  0  0  0  0  0  0
  -30.2222  -26.6212  146.2697 C   0  0  0  0  0  0  0  0  0  0  0  0
  -31.5881  -27.0139  146.8080 C   0  0  0  0  0  0  0  0  0  0  0  0
  -32.7517  -26.0407  146.7265 C   0  0  0  0  0  0  0  0  0  0  0  0
  -32.5085  -24.6972  146.0797 C   0  0  0  0  0  0  0  0  0  0  0  0
  -33.7625  -23.8139  145.9703 C   0  0  0  0  0  0  0  0  0  0  0  0
  -33.4375  -22.3143  146.0223 C   0  0  0  0  0  0  0  0  0  0  0  0
  -29.2027  -27.7354  146.6247 C   0  0  0  0  0  0  0  0  0  0  0  0
  -32.5528  -25.9537  145.2194 C   0  0  0  0  0  0  0  0  0  0  0  0
  -32.3445  -21.9119  145.0705 C   0  0  0  0  0  0  0  0  0  0  0  0
  -29.3704  -28.6871  144.2285 C   0  0  0  0  0  0  0  0  0  0  0  0
  -29.2564  -28.9898  145.7315 C   0  0  0  0  0  0  0  0  0  0  0  0
  -32.6831  -21.6999  143.6023 C   0  0  0  0  0  0  0  0  0  0  0  0
  -32.9595  -20.1842  143.3560 C   0  0  0  0  0  0  0  0  0  0  0  0
  -33.4796  -19.7651  141.9527 C   0  0  0  0  0  0  0  0  0  0  0  0
  -34.5123  -20.7252  141.3493 C   0  0  0  0  0  0  0  0  0  0  0  0
  -31.5869  -22.2858  142.7058 C   0  0  0  0  0  0  0  0  0  0  0  0
  -31.1710  -21.6806  145.5451 N   0  0  0  0  0  0  0  0  0  0  0  0
  -32.3392  -19.4482  140.9705 C   0  0  0  0  0  0  0  0  0  0  0  0
  -31.4072  -26.9628  145.2999 C   0  0  0  0  0  0  0  0  0  0  0  0
  2  1  1  0
  3  2  1  0
  4  2  1  0
  5  4  1  0
  6  5  1  0
  7  6  1  0
  8  7  1  0
  9  8  1  0
 10  9  1  0
 11 10  1  0
 12 11  1  0
 13 12  1  0
 14 13  1  0
 15  9  1  0
 16 11  1  0
 16 12  1  0
 17 14  1  0
 18  7  1  0
 19 15  1  0
 19 18  1  0
 20 17  1  0
 21 20  1  0
 22 21  1  0
 23 22  1  0
 24 20  1  0
 25 17  2  0
 26 22  1  0
 27  8  1  0
 27  9  1  0
 27 10  1  0
 27 16  1  0
M  END
$$$$

     RDKit          3D

 22 22  0  0  0  0  0  0  0  0999 V2000
  -25.0961  -15.2977  141.7636 C   0  0  0  0  0  0  0  0  0  0  0  0
  -29.0832  -13.6797  142.0448 C   0  0  0  0  0  0  0  0  0  0  0  0
  -43.0727  -17.4006  144.2562 C   0  0  0  0  0  0  0  0  0  0  0  0
  -31.4925  -14.0952  142.4157 C   0  0  0  0  0  0  0  0  0  0  0  0
  -44.9487  -18.2877  144.3191 C   0  0  0  0  0  0  0  0  0  0  0  0
  -23.9384  -15.0387  144.0638 C   0  0  0  0  0  0  0  0  0  0  0  0
  -33.1811  -15.1686  143.0078 C   0  0  0  0  0  0  0  0  0  0  0  0
  -36.9667  -15.0866  143.1806 C   0  0  0  0  0  0  0  0  0  0  0  0
  -38.8193  -16.2801  143.5701 C   0  0  0  0  0  0  0  0  0  0  0  0
  -34.9909  -14.7290  142.5683 C   0  0  0  0  0  0  0  0  0  0  0  0
  -27.6094  -13.7507  140.8894 N   0  0  0  0  0  0  0  0  0  0  0  0
  -40.9515  -16.8618  143.6778 C   0  0  0  0  0  0  0  0  0  0  0  0
  -24.3284  -17.9980  146.5902 C   0  0  0  0  0  0  0  0  0  0  0  0
  -24.6359  -16.4617  145.1699 C   0  0  0  0  0  0  0  0  0  0  0  0
  -25.8948  -20.6189  147.9616 C   0  0  0  0  0  0  0  0  0  0  0  0
  -27.4210  -14.1597  142.3690 C   0  0  0  0  0  0  0  0  0  0  0  0
  -22.2921  -14.2494  143.5425 C   0  0  0  0  0  0  0  0  0  0  0  0
  -25.6361  -14.7365  142.9575 C   0  0  0  0  0  0  0  0  0  0  0  0
  -27.1939  -21.0753  149.2246 C   0  0  0  0  0  0  0  0  0  0  0  0
  -27.9309  -19.5806  149.4753 C   0  0  0  0  0  0  0  0  0  0  0  0
  -25.3076  -18.9505  147.9118 C   0  0  0  0  0  0  0  0  0  0  0  0
  -26.0556  -22.0441  149.8791 C   0  0  0  0  0  0  0  0  0  0  0  0
  4  2  1  0
  5  3  1  0
  7  4  1  0
  9  8  1  0
 10  7  1  0
 10  8  1  0
 11  2  1  0
 12  3  1  0
 12  9  1  0
 14  6  1  0
 14 13  1  0
 16  2  1  0
 16 11  1  0
 17  6  1  0
 18  1  2  0
 18  6  1  0
 18 16  1  0
 19 15  1  0
 20 19  1  0
 21 13  1  0
 21 15  1  0
 22 19  1  0
M  END
$$$$

     RDKit          3D

 27 32  0  0  0  0  0  0  0  0999 V2000
  -31.5922   -4.9571  142.7275 N   0  0  0  0  0  0  0  0  0  0  0  0
  -30.8067   -5.2287  141.7309 C   0  0  0  0  0  0  0  0  0  0  0  0
  -30.7820   -6.5463  141.1650 N   0  0  0  0  0  0  0  0  0  0  0  0
  -29.9095   -4.2190  141.3145 N   0  0  0  0  0  0  0  0  0  0  0  0
  -28.6740   -3.5905  140.7663 C   0  0  0  0  0  0  0  0  0  0  0  0
  -28.7967   -3.3766  139.3891 O   0  0  0  0  0  0  0  0  0  0  0  0
  -31.6398   -3.6274  143.3685 C   0  0  0  0  0  0  0  0  0  0  0  0
  -29.5165   -2.8053  141.5334 C   0  0  0  0  0  0  0  0  0  0  0  0
  -30.3237   -3.2103  143.9375 N   0  0  0  0  0  0  0  0  0  0  0  0
  -32.6770   -3.6195  144.3990 N   0  0  0  0  0  0  0  0  0  0  0  0
  -29.9175   -6.9233  140.0463 C   0  0  0  0  0  0  0  0  0  0  0  0
  -29.7955   -3.9763  145.0892 C   0  0  0  0  0  0  0  0  0  0  0  0
  -30.4563   -3.7104  146.4463 C   0  0  0  0  0  0  0  0  0  0  0  0
  -29.1173   -3.0686  146.1197 C   0  0  0  0  0  0  0  0  0  0  0  0
  -29.2694   -2.6373  143.0422 C   0  0  0  0  0  0  0  0  0  0  0  0
  -28.7346   -7.8319  140.4470 C   0  0  0  0  0  0  0  0  0  0  0  0
  -27.8065   -7.2429  141.5017 C   0  0  0  0  0  0  0  0  0  0  0  0
  -28.6784   -8.4396  141.8459 C   0  0  0  0  0  0  0  0  0  0  0  0
  -27.9883   -3.6732  146.8320 N   0  0  0  0  0  0  0  0  0  0  0  0
  -26.7301   -3.0332  146.4242 C   0  0  0  0  0  0  0  0  0  0  0  0
  -26.4575   -1.7411  147.2127 C   0  0  0  0  0  0  0  0  0  0  0  0
  -25.3600   -0.9155  146.5165 C   0  0  0  0  0  0  0  0  0  0  0  0
  -25.1095    0.4829  147.0454 C   0  0  0  0  0  0  0  0  0  0  0  0
  -26.2845    1.3616  147.4545 C   0  0  0  0  0  0  0  0  0  0  0  0
  -26.9254    1.1683  146.0983 C   0  0  0  0  0  0  0  0  0  0  0  0
  -25.7745    0.2708  145.6603 C   0  0  0  0  0  0  0  0  0  0  0  0
  -29.1455   -5.3503  144.8465 C   0  0  0  0  0  0  0  0  0  0  0  0
  2  1  2  0
  3  2  1  0
  4  2  1  0
  5  4  1  0
  6  5  1  0
  7  1  1  0
  8  4  1  0
  8  5  1  0
  9  7  1  0
 10  7  1  0
 11  3  1  0
 12  9  1  0
 13 12  1  0
 14 12  1  0
 14 13  1  0
 15  8  1  0
 15  9  1  0
 16 11  1  0
 17 16  1  0
 18 16  1  0
 18 17  1  0
 19 14  1  0
 20 19  1  0
 21 20  1  0
 22 21  1  0
 23 22  1  0
 24 23  1  0
 25 24  1  0
 26 22  1  0
 26 23  1  0
 26 25  1  0
 27 12  1  0
M  END
$$$$

     RDKit          3D

 25 28  0  0  0  0  0  0  0  0999 V2000
  -20.9373   -3.8399  134.8441 C   0  0  0  0  0  0  0  0  0  0  0  0
  -21.0599   -4.9118  135.8667 N   0  0  0  0  0  0  0  0  0  0  0  0
  -21.3745   -2.1751  136.7369 C   0  0  0  0  0  0  0  0  0  0  0  0
  -22.8939   -2.0981  136.6698 C   0  0  0  0  0  0  0  0  0  0  0  0
  -22.4762   -5.9240  135.3680 S   0  0  0  0  0  0  0  0  0  0  0  0
  -20.6658   -2.4326  135.3956 C   0  0  0  0  0  0  0  0  0  0  0  0
  -19.8549   -4.8143  134.9919 C   0  0  0  0  0  0  0  0  0  0  0  0
  -23.4932   -0.7995  137.1610 C   0  0  0  0  0  0  0  0  0  0  0  0
  -22.0041   -0.8103  136.9084 C   0  0  0  0  0  0  0  0  0  0  0  0
  -24.4051   -0.0215  136.1659 C   0  0  0  0  0  0  0  0  0  0  0  0
  -25.8713   -0.1169  136.6480 C   0  0  0  0  0  0  0  0  0  0  0  0
  -21.7442   -7.2206  134.2812 C   0  0  0  0  0  0  0  0  0  0  0  0
  -21.7480   -6.0257  132.0054 C   0  0  0  0  0  0  0  0  0  0  0  0
  -24.2781   -0.3770  134.6566 C   0  0  0  0  0  0  0  0  0  0  0  0
  -21.3826   -7.4551  131.8091 N   0  0  0  0  0  0  0  0  0  0  0  0
  -22.6249   -5.4244  130.8786 C   0  0  0  0  0  0  0  0  0  0  0  0
  -24.0410   -5.0002  131.3509 C   0  0  0  0  0  0  0  0  0  0  0  0
  -25.1753   -5.5491  130.4471 C   0  0  0  0  0  0  0  0  0  0  0  0
  -26.5934   -5.0498  130.8690 C   0  0  0  0  0  0  0  0  0  0  0  0
  -22.3355   -7.0667  132.8727 C   0  0  0  0  0  0  0  0  0  0  0  0
  -26.8217   -3.5646  130.5331 C   0  0  0  0  0  0  0  0  0  0  0  0
  -25.1425   -7.0625  130.4083 C   0  0  0  0  0  0  0  0  0  0  0  0
  -26.9340   -5.3299  132.3459 C   0  0  0  0  0  0  0  0  0  0  0  0
  -24.9029   -7.7633  129.2916 C   0  0  0  0  0  0  0  0  0  0  0  0
  -24.5108   -1.7993  134.3731 N   0  0  0  0  0  0  0  0  0  0  0  0
  2  1  1  0
  4  3  1  0
  5  2  1  0
  6  1  1  0
  6  3  1  0
  7  1  1  0
  7  2  1  0
  8  4  1  0
  9  3  1  0
  9  4  1  0
  9  8  1  0
 10  8  1  0
 11 10  1  0
 12  5  1  0
 14 10  1  0
 15 13  1  0
 16 13  1  0
 17 16  1  0
 18 17  1  0
 19 18  1  0
 20 12  1  0
 20 13  1  0
 20 15  1  0
 21 19  1  0
 22 18  1  0
 23 19  1  0
 24 22  2  0
 25 14  1  0
M  END
$$$$

     RDKit          3D

 27 29  0  0  0  0  0  0  0  0999 V2000
  -29.5950  -22.7243  137.4918 C   0  0  0  0  0  0  0  0  0  0  0  0
  -29.2472  -25.5933  137.2459 S   0  0  0  0  0  4  0  0  0  0  0  0
  -28.3510  -22.8159  138.4112 C   0  0  0  0  0  0  0  0  0  0  0  0
  -24.1597  -23.0746  146.6917 O   0  0  0  0  0  0  0  0  0  0  0  0
  -27.1387  -22.3562  137.5562 C   0  0  0  0  0  0  0  0  0  0  0  0
  -21.2502  -25.4448  142.1499 O   0  0  0  0  0  0  0  0  0  0  0  0
  -29.2601  -24.0377  138.1980 C   0  0  0  0  0  0  0  0  0  0  0  0
  -22.1503  -24.5741  142.7909 C   0  0  0  0  0  0  0  0  0  0  0  0
  -25.8087  -23.1448  137.6910 C   0  0  0  0  0  0  0  0  0  0  0  0
  -30.8273  -21.9685  138.0566 C   0  0  0  0  0  0  0  0  0  0  0  0
  -25.2213  -24.0082  136.4943 C   0  0  0  0  0  0  0  0  0  0  0  0
  -25.4934  -23.3904  135.0581 C   0  0  0  0  0  0  0  0  0  0  0  0
  -25.2714  -24.2482  133.7728 C   0  0  0  0  0  0  0  0  0  0  0  0
  -40.3163  -26.4807  130.5250 O   0  0  0  0  0  0  0  0  0  0  0  0
  -19.7521  -25.3519  143.0281 P   0  0  0  0  0  0  0  0  0  0  0  0
  -24.2506  -23.7626  132.6951 C   0  0  0  0  0  0  0  0  0  0  0  0
  -24.8272  -22.5941  131.8078 C   0  0  0  0  0  0  0  0  0  0  0  0
  -22.7670  -23.6243  133.1633 C   0  0  0  0  0  0  0  0  0  0  0  0
  -25.4367  -25.5763  136.5985 C   0  0  0  0  0  0  0  0  0  0  0  0
  -24.1833  -21.2057  131.9622 C   0  0  0  0  0  0  0  0  0  0  0  0
  -24.1117  -26.3076  136.2376 C   0  0  0  0  0  0  0  0  0  0  0  0
  -24.5466  -20.5155  133.1997 N   0  0  0  0  0  0  0  0  0  0  0  0
  -25.8905  -26.1211  137.9733 C   0  0  0  0  0  0  0  0  0  0  0  0
  -24.3309  -27.7880  135.9561 C   0  0  0  0  0  0  0  0  0  0  0  0
  -25.1345  -28.5002  137.0459 C   0  0  0  0  0  0  0  0  0  0  0  0
  -24.6062  -28.3289  138.4681 C   0  0  0  0  0  0  0  0  0  0  0  0
  -25.9355  -27.6639  138.0601 C   0  0  0  0  0  0  0  0  0  0  0  0
  3  1  1  0
  4  2  1  0
  5  3  1  0
  7  1  1  0
  7  3  1  0
  8  6  1  0
  9  5  1  0
 10  1  1  0
 10  2  1  0
 11  9  1  0
 12 11  1  0
 13 12  1  0
 14  2  1  0
 15  2  1  0
 15  6  1  0
 16 13  1  0
 17 16  1  0
 18 16  1  0
 19 11  1  0
 20 17  1  0
 21 19  1  0
 22 20  1  0
 23 19  1  0
 24 21  1  0
 25 24  1  0
 26 25  1  0
 27 23  1  0
 27 25  1  0
 27 26  1  0
M  END
$$$$

     RDKit          3D

 11 12  0  0  0  0  0  0  0  0999 V2000
  -29.9269  -13.6955  143.1218 O   0  0  0  0  0  0  0  0  0  0  0  0
  -33.3481   -9.2476  148.7423 S   0  0  0  0  0  4  0  0  0  0  0  0
  -30.1856  -11.5365  148.2798 O   0  0  0  0  0  0  0  0  0  0  0  0
  -28.3895  -13.4410  148.9874 N   0  0  0  0  0  0  0  0  0  0  0  0
  -27.9695  -14.1139  147.7668 C   0  0  0  0  0  0  0  0  0  0  0  0
  -28.6376  -13.1648  143.0745 C   0  0  0  0  0  0  0  0  0  0  0  0
  -27.6007  -13.1252  146.7498 N   0  0  0  0  0  0  0  0  0  0  0  0
  -26.3628  -12.4095  146.8901 C   0  0  0  0  0  0  0  0  0  0  0  0
  -27.8672  -13.5200  144.3429 C   0  0  0  0  0  0  0  0  0  0  0  0
  -26.0147  -11.5487  146.0396 O   0  0  0  0  0  0  0  0  0  0  0  0
  -28.4735  -12.8837  145.5944 C   0  0  0  0  0  0  0  0  0  0  0  0
  2  1  1  0
  3  2  1  0
  4  2  1  0
  5  4  1  0
  6  1  1  0
  7  5  1  0
  8  7  1  0
  9  2  1  0
  9  6  1  0
 10  8  2  0
 11  7  1  0
 11  9  1  0
M  END
$$$$

     RDKit          3D

 27 28  0  0  0  0  0  0  0  0999 V2000
  -18.9329   -8.1832  141.5031 N   0  0  0  0  0  2  0  0  0  0  0  0
  -18.3106   -9.3383  141.1727 C   0  0  0  0  0  0  0  0  0  0  0  0
  -18.7305  -10.0184  140.1056 N   0  0  0  0  0  2  0  0  0  0  0  0
  -19.7122  -10.9157  140.2645 C   0  0  0  0  0  0  0  0  0  0  0  0
  -19.5980  -11.9528  141.0998 N   0  0  0  0  0  0  0  0  0  0  0  0
  -19.6648   -9.3985  141.1621 N   0  0  0  0  0  1  0  0  0  0  0  0
  -18.4021  -12.2641  141.9165 C   0  0  0  0  0  0  0  0  0  0  0  0
  -17.3324  -12.7490  141.4230 C   0  0  0  0  0  0  0  0  0  0  0  0
  -18.3979  -11.6460  143.2608 C   0  0  0  0  0  0  0  0  0  0  0  0
  -18.8987  -12.2316  144.3126 C   0  0  0  0  0  0  0  0  0  0  0  0
  -17.8226  -12.4665  142.2571 C   0  0  0  0  0  0  0  0  0  0  0  0
  -19.5538  -11.5024  145.3530 C   0  0  0  0  0  0  0  0  0  0  0  0
  -19.9846  -10.2279  145.6707 C   0  0  0  0  0  0  0  0  0  0  0  0
  -18.0179  -11.0330  141.9468 C   0  0  0  0  0  0  0  0  0  0  0  0
  -20.1786  -13.1477  140.7935 C   0  0  0  0  0  0  0  0  0  0  0  0
  -20.9466  -11.2302  145.3760 C   0  0  0  0  0  0  0  0  0  0  0  0
  -20.9726  -12.7617  139.6409 C   0  0  0  0  0  0  0  0  0  0  0  0
  -22.2478  -13.3672  139.4428 C   0  0  0  0  0  0  0  0  0  0  0  0
  -23.0043  -13.1474  138.2791 C   0  0  0  0  0  0  0  0  0  0  0  0
  -21.0152  -12.6244  139.5638 C   0  0  0  0  0  0  0  0  0  0  0  0
  -19.7796  -12.9036  140.5455 C   0  0  0  0  0  0  0  0  0  0  0  0
  -22.8566  -13.9925  137.1530 C   0  0  0  0  0  0  0  0  0  0  0  0
  -21.8490  -13.6572  136.3225 C   0  0  0  0  0  0  0  0  0  0  0  0
  -20.9952  -12.4610  136.5693 C   0  0  0  0  0  0  0  0  0  0  0  0
  -21.4394  -11.0794  136.6420 C   0  0  0  0  0  0  0  0  0  0  0  0
  -21.1507  -12.2913  136.5074 B   0  0  0  0  0  0  0  0  0  0  0  0
  -22.7834  -14.2770  137.1880 C   0  0  0  0  0  0  0  0  0  0  0  0
  2  1  1  0
  3  2  1  0
  4  3  1  0
  5  4  1  0
  6  2  1  0
 10  9  1  0
 11  7  1  0
 11  8  1  0
 11  9  1  0
 12 10  1  0
 13 12  1  0
 14  2  1  0
 14  7  1  0
 14  9  1  0
 16 12  1  0
 16 13  1  0
 17 15  1  0
 18 17  1  0
 19 18  1  0
 20 17  2  0
 21  5  1  0
 21 15  1  0
 22 19  1  0
 23 22  1  0
 26 23  1  0
 26 24  1  0
 26 25  1  0
 27 22  1  0
M  RAD  3   1   2   3   2   6   3
M  END
$$$$

     RDKit          3D

 27 33  0  0  0  0  0  0  0  0999 V2000
  -27.7136    0.7169  140.7554 O   0  0  0  0  0  0  0  0  0  0  0  0
  -28.9012    0.7069  141.1910 C   0  0  0  0  0  0  0  0  0  0  0  0
  -29.1556    0.6437  142.5592 O   0  0  0  0  0  0  0  0  0  0  0  0
  -28.3550   -0.0892  143.4854 C   0  0  0  0  0  0  0  0  0  0  0  0
  -29.0220   -1.4415  143.8352 C   0  0  0  0  0  0  0  0  0  0  0  0
  -30.4754   -1.3742  144.3756 C   0  0  0  0  0  0  0  0  0  0  0  0
  -28.6362   -2.8599  143.2889 C   0  0  0  0  0  0  0  0  0  0  0  0
  -28.1104   -2.5861  141.8684 C   0  0  0  0  0  0  0  0  0  0  0  0
  -29.1884   -2.9691  140.8643 C   0  0  0  0  0  0  0  0  0  0  0  0
  -29.4754   -4.1435  140.2737 C   0  0  0  0  0  0  0  0  0  0  0  0
  -28.8476   -5.5078  140.5163 C   0  0  0  0  0  0  0  0  0  0  0  0
  -27.3789   -3.5501  142.7085 C   0  0  0  0  0  0  0  0  0  0  0  0
  -29.6194   -6.6827  141.2370 C   0  0  0  0  0  0  0  0  0  0  0  0
  -29.9366   -6.1737  142.6601 C   0  0  0  0  0  0  0  0  0  0  0  0
  -29.5854   -6.5434  139.7089 C   0  0  0  0  0  0  0  0  0  0  0  0
  -29.9139   -7.2843  143.6778 C   0  0  0  0  0  0  0  0  0  0  0  0
  -31.2108   -7.5911  144.3759 C   0  0  0  0  0  0  0  0  0  0  0  0
  -32.3105   -7.9234  143.3513 C   0  0  0  0  0  0  0  0  0  0  0  0
  -32.1051   -7.3526  141.9280 C   0  0  0  0  0  0  0  0  0  0  0  0
  -28.8239   -8.0718  143.7824 C   0  0  0  0  0  0  0  0  0  0  0  0
  -31.0505   -6.2593  141.6682 C   0  0  0  0  0  0  0  0  0  0  0  0
  -28.7028   -7.6218  139.0658 C   0  0  0  0  0  0  0  0  0  0  0  0
  -30.4853   -1.2965  145.8830 C   0  0  0  0  0  0  0  0  0  0  0  0
  -29.6515   -2.0782  146.5850 C   0  0  0  0  0  0  0  0  0  0  0  0
  -28.7281   -3.0196  145.8586 C   0  0  0  0  0  0  0  0  0  0  0  0
  -28.0972   -2.3194  144.6385 C   0  0  0  0  0  0  0  0  0  0  0  0
  -33.1305   -6.7402  142.8831 C   0  0  0  0  0  0  0  0  0  0  0  0
  2  1  2  0
  3  2  1  0
  4  3  1  0
  5  4  1  0
  6  5  1  0
  7  5  1  0
  8  7  1  0
  9  8  1  0
 10  9  2  3
 11 10  1  0
 12  7  1  0
 12  8  1  0
 13 11  1  0
 14 13  1  0
 15 11  1  0
 15 13  1  0
 16 14  1  0
 17 16  1  0
 18 17  1  0
 19 18  1  0
 20 16  2  0
 21 13  1  0
 21 14  1  0
 21 19  1  0
 22 15  1  0
 23  6  1  0
 24 23  2  0
 25 24  1  0
 26  5  1  0
 26  7  1  0
 26 25  1  0
 27 18  1  0
 27 19  1  0
M  END
$$$$

     RDKit          3D

 27 35  0  0  0  0  0  0  0  0999 V2000
  -24.3893   -6.7662  149.5327 C   0  0  0  0  0  0  0  0  0  0  0  0
  -25.5914   -7.6401  149.7831 C   0  0  0  0  0  0  0  0  0  0  0  0
  -26.7511   -7.7178  149.0560 C   0  0  0  0  0  0  0  0  0  0  0  0
  -24.4950   -5.3635  148.8267 C   0  0  0  0  0  0  0  0  0  0  0  0
  -27.8890   -8.0225  146.7464 C   0  0  0  0  0  0  0  0  0  0  0  0
  -23.8745   -4.9435  147.5510 C   0  0  0  0  0  0  0  0  0  0  0  0
  -22.9505   -5.7048  146.5069 C   0  0  0  0  0  0  0  0  0  0  0  0
  -25.5668   -4.3717  149.4791 C   0  0  0  0  0  0  0  0  0  0  0  0
  -24.7435   -3.3562  150.3499 C   0  0  0  0  0  0  0  0  0  0  0  0
  -26.6950   -7.4276  147.5576 C   0  0  0  0  0  0  0  0  0  0  0  0
  -22.0351   -4.8292  145.5085 C   0  0  0  0  0  0  0  0  0  0  0  0
  -22.2547   -6.6527  147.4122 C   0  0  0  0  0  0  0  0  0  0  0  0
  -26.5320   -4.9823  150.4108 C   0  0  0  0  0  0  0  0  0  0  0  0
  -28.3257   -7.9500  149.6083 C   0  0  0  0  0  0  0  0  0  0  0  0
  -21.6736   -7.9710  146.9095 C   0  0  0  0  0  0  0  0  0  0  0  0
  -21.7555   -8.1911  145.3817 C   0  0  0  0  0  0  0  0  0  0  0  0
  -21.6861   -5.3843  143.9901 C   0  0  0  0  0  0  0  0  0  0  0  0
  -27.2525   -5.4331  151.2631 C   0  0  0  0  0  0  0  0  0  0  0  0
  -22.7499   -4.3365  144.0876 C   0  0  0  0  0  0  0  0  0  0  0  0
  -29.3795   -7.3635  148.6086 C   0  0  0  0  0  0  0  0  0  0  0  0
  -21.3709   -5.8482  146.5375 C   0  0  0  0  0  0  0  0  0  0  0  0
  -20.8219   -7.1926  146.0025 C   0  0  0  0  0  0  0  0  0  0  0  0
  -29.4513   -5.8260  148.7989 C   0  0  0  0  0  0  0  0  0  0  0  0
  -22.8019   -8.8344  146.2958 C   0  0  0  0  0  0  0  0  0  0  0  0
  -20.3460   -4.9315  143.3620 C   0  0  0  0  0  0  0  0  0  0  0  0
  -29.0859   -7.1265  147.0049 C   0  0  0  0  0  0  0  0  0  0  0  0
  -29.0787   -8.5045  147.5678 C   0  0  0  0  0  0  0  0  0  0  0  0
  2  1  1  0
  3  2  2  3
  4  1  1  0
  6  4  2  3
  7  6  1  0
  8  4  1  0
  9  8  1  0
 10  3  1  0
 10  5  1  0
 11  7  1  0
 12  7  1  0
 13  8  1  0
 14  3  1  0
 15 12  1  0
 16 15  1  0
 17 11  1  0
 18 13  3  0
 19 11  1  0
 19 17  1  0
 20 14  1  0
 21  7  1  0
 21 11  1  0
 21 12  1  0
 22 15  1  0
 22 16  1  0
 22 21  1  0
 23 20  1  0
 24 15  1  0
 24 16  1  0
 25 17  1  0
 26  5  1  0
 26 20  1  0
 27  5  1  0
 27 20  1  0
 27 26  1  0
M  END
$$$$

     RDKit          3D

 26 27  0  0  0  0  0  0  0  0999 V2000
  -28.5152  -19.9724  138.1276 O   0  0  0  0  0  0  0  0  0  0  0  0
  -20.4182  -17.8149  139.0759 O   0  0  0  0  0  0  0  0  0  0  0  0
  -19.4944  -16.9324  141.5481 C   0  0  0  0  0  0  0  0  0  0  0  0
  -19.9767  -15.8976  143.2543 C   0  0  0  0  0  0  0  0  0  0  0  0
  -17.5715  -15.2593  141.9579 C   0  0  0  0  0  0  0  0  0  0  0  0
  -20.5143  -17.0160  142.5052 O   0  0  0  0  0  0  0  0  0  0  0  0
  -17.2713  -14.3908  140.7263 C   0  0  0  0  0  0  0  0  0  0  0  0
  -17.9972  -14.7461  139.4008 C   0  0  0  0  0  0  0  0  0  0  0  0
  -27.2015  -20.4861  137.8764 C   0  0  0  0  0  0  0  0  0  0  0  0
  -19.0172  -15.7002  142.0887 C   0  0  0  0  0  0  0  0  0  0  0  0
  -26.2336  -21.7125  135.7957 C   0  0  0  0  0  0  0  0  0  0  0  0
  -26.7753  -20.3032  136.4487 C   0  0  0  0  0  0  0  0  0  0  0  0
  -23.4002  -22.1210  134.8382 C   0  0  0  0  0  0  0  0  0  0  0  0
  -21.6080  -17.3398  138.3132 C   0  0  0  0  0  0  0  0  0  0  0  0
  -22.8526  -18.5823  134.2579 C   0  0  0  0  0  0  0  0  0  0  0  0
  -22.8240  -21.3760  133.5231 C   0  0  0  0  0  0  0  0  0  0  0  0
  -22.5259  -18.1570  137.1717 C   0  0  0  0  0  0  0  0  0  0  0  0
  -19.6085  -15.2743  139.3736 C   0  0  0  0  0  0  0  0  0  0  0  0
  -22.0969  -18.2173  135.6875 C   0  0  0  0  0  0  0  0  0  0  0  0
  -25.6368  -17.2542  134.5613 Br  0  0  0  0  0  0  0  0  0  0  0  0
  -22.2474  -19.8633  133.5173 C   0  0  0  0  0  0  0  0  0  0  0  0
  -19.8015  -16.7731  139.9577 C   0  0  0  0  0  0  0  0  0  0  0  0
  -24.3755  -18.4497  133.7690 C   0  0  0  0  0  0  0  0  0  0  0  0
  -20.8824  -14.2517  139.6089 C   0  0  0  0  0  0  0  0  0  0  0  0
  -24.6788  -21.6031  135.5868 C   0  0  0  0  0  0  0  0  0  0  0  0
  -21.4070  -13.8047  140.9621 C   0  0  0  0  0  0  0  0  0  0  0  0
  6  3  1  0
  6  4  1  0
  7  5  1  0
  8  7  1  0
  9  1  1  0
 10  3  1  0
 10  4  1  0
 10  5  1  0
 12  9  1  0
 12 11  1  0
 14  2  1  0
 16 13  1  0
 17 14  1  0
 18  8  1  0
 19 15  1  0
 19 17  1  0
 21 15  1  0
 21 16  1  0
 22  2  1  0
 22  3  1  0
 22 18  1  0
 23 15  1  0
 23 20  1  0
 24 18  1  0
 25 11  1  0
 25 13  1  0
 26 24  1  0
M  END
$$$$

     RDKit          3D

 27 29  0  0  0  0  0  0  0  0999 V2000
  -25.8506   -5.0345  133.8170 C   0  0  0  0  0  0  0  0  0  0  0  0
  -23.7193   -5.6735  136.7435 C   0  0  0  0  0  0  0  0  0  0  0  0
  -25.4003   -3.1602  132.6900 C   0  0  0  0  0  0  0  0  0  0  0  0
  -26.7814   -4.3560  134.1469 C   0  0  0  0  0  0  0  0  0  0  0  0
  -25.1579   -2.8355  137.3894 C   0  0  0  0  0  0  0  0  0  0  0  0
  -25.8067   -3.0038  139.1249 C   0  0  0  0  0  0  0  0  0  0  0  0
  -24.1641   -3.4710  135.9713 C   0  0  0  0  0  0  0  0  0  0  0  0
  -26.7654   -5.0239  136.2378 C   0  0  0  0  0  0  0  0  0  0  0  0
  -24.9239   -4.9759  135.7811 C   0  0  0  0  0  0  0  0  0  0  0  0
  -23.7150   -2.2211  133.6034 C   0  0  0  0  0  0  0  0  0  0  0  0
  -24.7191    1.2246  133.8101 O   0  0  0  0  0  0  0  0  0  0  0  0
  -25.7665    2.2116  134.4844 O   0  0  0  0  0  0  0  0  0  0  0  0
  -26.3681   -3.9316  138.2943 C   0  0  0  0  0  0  0  0  0  0  0  0
  -25.6827   -1.8495  134.7222 C   0  0  0  0  0  0  0  0  0  0  0  0
  -25.8117   -2.1835  131.3314 C   0  0  0  0  0  0  0  0  0  0  0  0
  -28.2843   -5.2528  133.7668 C   0  0  0  0  0  0  0  0  0  0  0  0
  -27.1956   -4.9365  139.2986 C   0  0  0  0  0  0  0  0  0  0  0  0
  -24.6559   -1.1668  133.8535 C   0  0  0  0  0  0  0  0  0  0  0  0
  -27.0664   -1.2498  134.6081 C   0  0  0  0  0  0  0  0  0  0  0  0
  -21.7506   -4.4810  134.0638 C   0  0  0  0  0  0  0  0  0  0  0  0
  -21.5505   -3.2062  133.4347 C   0  0  0  0  0  0  0  0  0  0  0  0
  -26.7554   -3.6896  132.0452 C   0  0  0  0  0  0  0  0  0  0  0  0
  -27.6124   -1.6754  138.7632 C   0  0  0  0  0  0  0  0  0  0  0  0
  -21.8599   -1.7564  136.2295 C   0  0  0  0  0  0  0  0  0  0  0  0
  -20.6314   -5.5354  133.7097 C   0  0  0  0  0  0  0  0  0  0  0  0
  -22.9731   -0.2672  133.2128 C   0  0  0  0  0  0  0  0  0  0  0  0
  -21.7947   -0.9537  134.8154 C   0  0  0  0  0  0  0  0  0  0  0  0
  4  1  1  0
  4  3  1  0
  6  5  1  0
  7  5  1  0
  8  4  1  0
  9  1  1  0
  9  2  1  0
  9  7  1  0
  9  8  1  0
 12 11  1  0
 13  5  1  0
 13  6  1  0
 14 10  1  0
 15  3  1  0
 16  4  1  0
 17 13  1  0
 18  3  1  0
 18 10  1  0
 19 14  2  0
 21 10  1  0
 21 20  1  0
 22  1  1  0
 22 15  1  0
 23  6  1  0
 25 20  2  0
 26 10  1  0
 26 11  1  0
 27 24  2  0
 27 26  1  0
M  END
$$$$

     RDKit          3D

 27 37  0  0  0  0  0  0  0  0999 V2000
  -24.2791  -22.2490  137.4181 C   0  0  0  0  0  0  0  0  0  0  0  0
  -25.6818  -20.9887  138.5943 C   0  0  0  0  0  0  0  0  0  0  0  0
  -24.2554  -20.8244  138.0390 C   0  0  0  0  0  0  0  0  0  0  0  0
  -27.1757  -22.4457  136.5600 Se  0  0  0  0  0  2  0  0  0  0  0  0
  -23.0774  -20.2166  138.9154 C   0  0  0  0  0  0  0  0  0  0  0  0
  -21.9759  -19.2978  138.3249 C   0  0  0  0  0  0  0  0  0  0  0  0
  -22.8677  -20.5812  140.4193 C   0  0  0  0  0  0  0  0  0  0  0  0
  -23.0637  -22.0383  140.8884 C   0  0  0  0  0  0  0  0  0  0  0  0
  -20.9347  -20.9958  142.0460 C   0  0  0  0  0  0  0  0  0  0  0  0
  -24.0364  -21.5374  141.9597 C   0  0  0  0  0  0  0  0  0  0  0  0
  -23.2427  -18.6975  138.9329 C   0  0  0  0  0  0  0  0  0  0  0  0
  -24.0649  -18.0257  137.8265 C   0  0  0  0  0  0  0  0  0  0  0  0
  -21.6684  -21.4305  140.7796 C   0  0  0  0  0  0  0  0  0  0  0  0
  -24.0028  -21.0601  136.5452 C   0  0  0  0  0  0  0  0  0  0  0  0
  -23.8053  -20.0878  141.5353 C   0  0  0  0  0  0  0  0  0  0  0  0
  -24.7987  -16.8617  138.3194 N   0  0  0  0  0  0  0  0  0  0  0  0
  -22.5346  -17.9601  137.8505 C   0  0  0  0  0  0  0  0  0  0  0  0
  -26.5379  -23.4758  138.1629 C   0  0  0  0  0  0  0  0  0  0  0  0
  -25.7165  -22.3004  137.8808 C   0  0  0  0  0  0  0  0  0  0  0  0
  -25.6632  -17.3167  139.4249 C   0  0  0  0  0  0  0  0  0  0  0  0
  -25.3768  -16.6460  140.7638 C   0  0  0  0  0  0  0  0  0  0  0  0
  -25.7444  -17.4194  142.0606 C   0  0  0  0  0  0  0  0  0  0  0  0
  -26.6080  -16.2092  139.9702 C   0  0  0  0  0  0  0  0  0  0  0  0
  -25.8195  -18.9595  141.9652 C   0  0  0  0  0  0  0  0  0  0  0  0
  -24.9362  -19.4631  140.9860 O   0  0  0  0  0  0  0  0  0  0  0  0
  -26.4829  -14.8272  139.2837 C   0  0  0  0  0  0  0  0  0  0  0  0
  -27.1372  -17.3036  139.0575 C   0  0  0  0  0  0  0  0  0  0  0  0
  3  1  1  0
  3  2  1  0
  5  3  1  0
  6  5  1  0
  7  5  1  0
  8  7  1  0
 10  8  1  0
 11  5  1  0
 11  6  1  0
 12 11  1  0
 13  7  1  0
 13  8  1  0
 13  9  1  0
 14  1  1  0
 14  3  1  0
 15  7  1  0
 15 10  1  0
 16 12  1  0
 17  6  1  0
 17 11  1  0
 17 12  1  0
 18  4  1  0
 19  1  1  0
 19  2  1  0
 19  4  1  0
 19 18  1  0
 20 16  1  0
 21 20  1  0
 22 21  1  0
 23 20  1  0
 23 21  1  0
 24 22  1  0
 25 15  1  0
 25 24  1  0
 26 23  1  0
 27 20  1  0
 27 23  1  0
M  END
$$$$

     RDKit          3D

 25 26  0  0  0  0  0  0  0  0999 V2000
  -26.1531   -2.8024  134.7831 C   0  0  0  0  0  0  0  0  0  0  0  0
  -25.9450   -1.0401  132.8134 N   0  0  0  0  0  0  0  0  0  0  0  0
  -26.8395    1.0177  131.3180 C   0  0  0  0  0  0  0  0  0  0  0  0
  -25.3515   -1.2690  137.9579 C   0  0  0  0  0  0  0  0  0  0  0  0
  -26.8876   -2.2913  136.1565 C   0  0  0  0  0  0  0  0  0  0  0  0
  -23.8707   -0.5741  137.7216 C   0  0  0  0  0  0  0  0  0  0  0  0
  -25.9525    0.4470  132.1925 C   0  0  0  0  0  0  0  0  0  0  0  0
  -28.3133   -2.1367  135.8317 C   0  0  0  0  0  0  0  0  0  0  0  0
  -25.2934   -1.7882  134.0293 C   0  0  0  0  0  0  0  0  0  0  0  0
  -26.1965   -1.0935  136.6447 C   0  0  0  0  0  0  0  0  0  0  0  0
  -27.6181   -0.9470  136.5389 C   0  0  0  0  0  0  0  0  0  0  0  0
  -23.0865    1.3936  139.7024 C   0  0  0  0  0  0  0  0  0  0  0  0
  -23.6228    2.0583  137.3311 C   0  0  0  0  0  0  0  0  0  0  0  0
  -23.2629    0.8018  138.2395 C   0  0  0  0  0  0  0  0  0  0  0  0
  -21.9466    2.5575  139.6452 C   0  0  0  0  0  0  0  0  0  0  0  0
  -25.5550    2.2652  135.3145 C   0  0  0  0  0  0  0  0  0  0  0  0
  -20.7924    2.7588  140.7003 C   0  0  0  0  0  0  0  0  0  0  0  0
  -20.8592    3.8018  141.5689 C   0  0  0  0  0  0  0  0  0  0  0  0
  -22.4822    2.2110  136.3182 C   0  0  0  0  0  0  0  0  0  0  0  0
  -19.4631    1.9464  140.7438 C   0  0  0  0  0  0  0  0  0  0  0  0
  -19.0366    1.3172  139.3649 C   0  0  0  0  0  0  0  0  0  0  0  0
  -27.1443    2.3528  135.2702 C   0  0  0  0  0  0  0  0  0  0  0  0
  -24.1907    4.3228  134.3357 C   0  0  0  0  0  0  0  0  0  0  0  0
  -24.9131    3.4595  134.7306 C   0  0  0  0  0  0  0  0  0  0  0  0
  -25.0526    2.0940  136.7972 C   0  0  0  0  0  0  0  0  0  0  0  0
  5  1  1  0
  6  4  1  0
  7  2  1  0
  7  3  2  0
  8  5  1  0
  9  1  1  0
  9  2  1  0
 10  4  1  0
 10  5  1  0
 11  5  1  0
 11  8  1  0
 11 10  1  0
 14  6  1  0
 14 12  1  0
 14 13  1  0
 15 12  1  0
 17 15  1  0
 18 17  2  0
 19 13  1  0
 20 17  1  0
 21 20  1  0
 22 16  1  0
 24 16  1  0
 24 23  3  0
 25 13  1  0
 25 16  1  0
M  END
$$$$

     RDKit          3D

 27 33  0  0  0  0  0  0  0  0999 V2000
  -24.2270   -7.7509  134.2518 N   0  0  0  0  0  0  0  0  0  0  0  0
  -25.0886   -8.9322  134.6670 C   0  0  0  0  0  0  0  0  0  0  0  0
  -26.3488   -9.1065  134.0142 N   0  0  0  0  0  0  0  0  0  0  0  0
  -26.7515   -8.1571  132.9294 C   0  0  0  0  0  0  0  0  0  0  0  0
  -25.8228   -8.1557  131.7671 N   0  0  0  0  0  0  0  0  0  0  0  0
  -27.0974   -8.7700  135.1639 N   0  0  0  0  0  0  0  0  0  0  0  0
  -27.0308   -9.6772  137.9440 C   0  0  0  0  0  0  0  0  0  0  0  0
  -25.8276   -9.6742  137.0795 C   0  0  0  0  0  0  0  0  0  0  0  0
  -25.9316   -8.6000  135.9457 C   0  0  0  0  0  0  0  0  0  0  0  0
  -26.8671  -10.5803  138.9822 F   0  0  0  0  0  0  0  0  0  0  0  0
  -22.2082   -8.8009  134.7865 C   0  0  0  0  0  0  0  0  0  0  0  0
  -27.2214  -10.3893  131.8019 C   0  0  0  0  0  0  0  0  0  0  0  0
  -27.1197   -8.8860  131.6676 C   0  0  0  0  0  0  0  0  0  0  0  0
  -22.5001   -8.2155  136.1696 C   0  0  0  0  0  0  0  0  0  0  0  0
  -22.6198   -7.6077  134.3367 C   0  0  0  0  0  0  0  0  0  0  0  0
  -23.5434   -6.8964  136.6263 C   0  0  0  0  0  0  0  0  0  0  0  0
  -21.8206   -6.9996  135.6159 N   0  0  0  0  0  0  0  0  0  0  0  0
  -22.9235   -4.6205  136.4235 C   0  0  0  0  0  0  0  0  0  0  0  0
  -23.9243   -3.9118  137.4337 C   0  0  0  0  0  0  0  0  0  0  0  0
  -25.0906   -3.1126  136.6100 C   0  0  0  0  0  0  0  0  0  0  0  0
  -24.8017   -3.2667  135.1325 N   0  0  0  0  0  0  0  0  0  0  0  0
  -24.7239   -4.6772  134.7922 C   0  0  0  0  0  0  0  0  0  0  0  0
  -22.3561   -6.1465  136.7431 C   0  0  0  0  0  0  0  0  0  0  0  0
  -22.2071   -4.8267  133.1651 C   0  0  0  0  0  0  0  0  0  0  0  0
  -23.3881   -5.1698  134.1335 N   0  0  0  0  0  0  0  0  0  0  0  0
  -23.8463   -5.4081  135.6403 C   0  0  0  0  0  0  0  0  0  0  0  0
  -21.9396   -5.3051  131.9774 C   0  0  0  0  0  0  0  0  0  0  0  0
  2  1  1  0
  3  2  1  0
  4  3  1  0
  5  4  1  0
  6  3  1  0
  8  7  1  0
  9  2  1  0
  9  6  1  0
  9  8  1  0
 10  7  1  0
 13  4  1  0
 13  5  1  0
 13 12  1  0
 14 11  1  0
 15  1  1  0
 15 11  1  0
 16 14  1  0
 17 14  1  0
 17 15  1  0
 19 18  1  0
 20 19  1  0
 21 20  1  0
 22 21  1  0
 23 16  1  0
 23 17  1  0
 23 18  1  0
 25 22  1  0
 25 24  1  0
 26 16  1  0
 26 18  1  0
 26 22  1  0
 26 25  1  0
 27 24  2  0
M  END
$$$$

     RDKit          3D

 27 29  0  0  0  0  0  0  0  0999 V2000
  -29.3176  -13.0277  152.1446 O   0  0  0  0  0  0  0  0  0  0  0  0
  -28.3992  -11.4340  151.5684 C   0  0  0  0  0  0  0  0  0  0  0  0
  -27.2791   -8.1473  150.7091 C   0  0  0  0  0  0  0  0  0  0  0  0
  -26.3920   -3.6837  149.6040 C   0  0  0  0  0  0  0  0  0  0  0  0
  -24.7601   -1.4917  147.0775 C   0  0  0  0  0  0  0  0  0  0  0  0
  -26.1164   -0.9393  143.7868 C   0  0  0  0  0  0  0  0  0  0  0  0
  -26.0121  -12.1173  151.5059 C   0  0  0  0  0  0  0  0  0  0  0  0
  -29.5114   -5.8823  138.9969 C   0  0  0  0  0  0  0  0  0  0  0  0
  -36.2101   -8.7508  145.2090 C   0  0  0  0  0  0  0  0  0  0  0  0
  -39.2684  -10.0545  142.4299 C   0  0  0  0  0  0  0  0  0  0  0  0
  -41.2929  -10.8505  143.4321 O   0  0  0  0  0  0  0  0  0  0  0  0
  -32.5722  -10.2278  136.1712 C   0  0  0  0  0  0  0  0  0  0  0  0
  -35.5905   -6.8607  138.6826 C   0  0  0  0  0  0  0  0  0  0  0  0
  -35.7708   -8.9448  141.7600 C   0  0  0  0  0  0  0  0  0  0  0  0
  -30.3058   -7.3973  137.0236 C   0  0  0  0  0  0  0  0  0  0  0  0
  -29.0354   -5.1902  137.2685 C   0  0  0  0  0  0  0  0  0  0  0  0
  -36.0349  -10.6791  144.1611 C   0  0  0  0  0  0  0  0  0  0  0  0
  -32.3932  -10.8219  138.4582 C   0  0  0  0  0  0  0  0  0  0  0  0
  -31.6012   -9.5397  138.1041 C   0  0  0  0  0  0  0  0  0  0  0  0
  -31.5130   -7.7720  138.9999 C   0  0  0  0  0  0  0  0  0  0  0  0
  -34.4910  -11.1025  141.6818 C   0  0  0  0  0  0  0  0  0  0  0  0
  -34.0224  -11.0266  139.1156 C   0  0  0  0  0  0  0  0  0  0  0  0
  -29.8264   -9.7823  151.9456 C   0  0  0  0  0  0  0  0  0  0  0  0
  -31.1214   -7.3274  140.7523 C   0  0  0  0  0  0  0  0  0  0  0  0
  -30.2227   -5.9289  141.5878 C   0  0  0  0  0  0  0  0  0  0  0  0
  -30.2014   -8.3810  140.8581 O   0  0  0  0  0  0  0  0  0  0  0  0
  -32.3389   -7.5500  141.6780 C   0  0  0  0  0  0  0  0  0  0  0  0
  2  1  1  0
  4  3  1  0
  5  4  1  0
  6  5  1  0
  7  2  1  0
  7  3  1  0
  8  6  1  0
 11 10  1  0
 12  8  1  0
 13 12  1  0
 14  9  1  0
 14 13  1  0
 15  8  1  0
 15 12  1  0
 16  8  1  0
 16 15  1  0
 17  9  1  0
 17 10  1  0
 19 18  2  3
 20 19  1  0
 21 17  1  0
 22 18  1  0
 22 21  1  0
 23  2  1  0
 23  3  1  0
 24 20  1  0
 25 24  1  0
 26 24  1  0
 27 24  1  0
M  END
$$$$

     RDKit          3D

 27 32  0  0  0  0  0  0  0  0999 V2000
  -18.7559  -24.3089  141.5280 C   0  0  0  0  0  0  0  0  0  0  0  0
  -17.3816  -24.8956  141.9684 C   0  0  0  0  0  0  0  0  0  0  0  0
  -18.7323  -23.5979  140.1370 C   0  0  0  0  0  0  0  0  0  0  0  0
  -16.3793  -23.8273  142.3766 C   0  0  0  0  0  0  0  0  0  0  0  0
  -16.1218  -24.6675  141.1324 C   0  0  0  0  0  0  0  0  0  0  0  0
  -21.0545  -22.8962  139.9344 C   0  0  0  0  0  0  0  0  0  0  0  0
  -18.7157  -24.5721  139.0245 C   0  0  0  0  0  0  0  0  0  0  0  0
  -18.9246  -26.0670  139.2858 C   0  0  0  0  0  0  0  0  0  0  0  0
  -19.9370  -26.3725  140.4145 C   0  0  0  0  0  0  0  0  0  0  0  0
  -20.1989  -22.8632  137.9073 C   0  0  0  0  0  0  0  0  0  0  0  0
  -19.8465  -25.4205  141.6304 C   0  0  0  0  0  0  0  0  0  0  0  0
  -20.8481  -23.7572  136.7572 C   0  0  0  0  0  0  0  0  0  0  0  0
  -21.7889  -24.8076  137.2489 N   0  0  0  0  0  0  0  0  0  0  0  0
  -21.2521  -22.0368  138.6848 C   0  0  0  0  0  0  0  0  0  0  0  0
  -19.0195  -21.9569  137.4031 C   0  0  0  0  0  0  0  0  0  0  0  0
  -19.9778  -23.6995  139.1744 C   0  0  0  0  0  0  0  0  0  0  0  0
  -19.4809  -20.7712  136.5332 C   0  0  0  0  0  0  0  0  0  0  0  0
  -19.3540  -26.7615  137.9761 C   0  0  0  0  0  0  0  0  0  0  0  0
  -18.5003  -20.4906  135.3794 C   0  0  0  0  0  0  0  0  0  0  0  0
  -18.4845  -26.3903  136.7488 C   0  0  0  0  0  0  0  0  0  0  0  0
  -19.1097  -20.3436  133.9856 C   0  0  0  0  0  0  0  0  0  0  0  0
  -18.6625  -19.1157  134.7439 C   0  0  0  0  0  0  0  0  0  0  0  0
  -18.9171  -25.2937  135.7658 C   0  0  0  0  0  0  0  0  0  0  0  0
  -22.1915  -26.6391  135.5889 C   0  0  0  0  0  0  0  0  0  0  0  0
  -23.2842  -24.3770  135.2056 C   0  0  0  0  0  0  0  0  0  0  0  0
  -19.8556  -24.3054  135.7327 C   0  0  0  0  0  0  0  0  0  0  0  0
  -22.7541  -25.3701  136.2618 C   0  0  0  0  0  0  0  0  0  0  0  0
  2  1  1  0
  3  1  1  0
  4  2  1  0
  5  2  1  0
  5  4  1  0
  7  3  1  0
  8  7  1  0
  9  8  1  0
 11  1  1  0
 11  9  1  0
 12 10  1  0
 13 12  1  0
 14  6  1  0
 14 10  1  0
 15 10  1  0
 16  3  1  0
 16  6  1  0
 16  7  1  0
 16 10  1  0
 17 15  1  0
 18  8  1  0
 19 17  1  0
 20 18  1  0
 21 19  1  0
 22 19  1  0
 22 21  1  0
 23 20  1  0
 26 12  1  0
 26 23  2  3
 27 13  1  0
 27 24  1  0
 27 25  1  0
M  END
$$$$

     RDKit          3D

 11 14  0  0  0  0  0  0  0  0999 V2000
  -20.1320   -7.7297  133.7090 O   0  0  0  0  0  0  0  0  0  0  0  0
  -21.1369   -7.1126  134.4685 C   0  0  0  0  0  0  0  0  0  0  0  0
  -22.2249   -6.5029  133.8147 O   0  0  0  0  0  0  0  0  0  0  0  0
  -22.4104   -8.0513  135.6993 C   0  0  0  0  0  0  0  0  0  0  0  0
  -21.1977   -7.3775  135.8510 O   0  0  0  0  0  0  0  0  0  0  0  0
  -22.4353   -7.8265  134.2178 C   0  0  0  0  0  0  0  0  0  0  0  0
  -19.1053   -6.7797  133.6048 C   0  0  0  0  0  0  0  0  0  0  0  0
  -18.0811   -6.8506  134.5692 O   0  0  0  0  0  0  0  0  0  0  0  0
  -17.1443   -7.2397  133.6033 C   0  0  0  0  0  0  0  0  0  0  0  0
  -18.1464   -7.2034  132.4834 C   0  0  0  0  0  0  0  0  0  0  0  0
  -18.9551   -5.9397  132.3538 C   0  0  0  0  0  0  0  0  0  0  0  0
  2  1  1  0
  3  2  1  0
  5  2  1  0
  5  4  1  0
  6  2  1  0
  6  3  1  0
  6  4  1  0
  7  1  1  0
  8  7  1  0
  9  8  1  0
 10  7  1  0
 10  9  1  0
 11  7  1  0
 11 10  1  0
M  END
$$$$

     RDKit          3D

 27 33  0  0  0  0  0  0  0  0999 V2000
  -25.3576    8.0989  138.6674 O   0  0  0  0  0  0  0  0  0  0  0  0
  -24.2141    8.4560  137.9088 C   0  0  0  0  0  0  0  0  0  0  0  0
  -24.5042    9.4698  136.9902 O   0  0  0  0  0  0  0  0  0  0  0  0
  -23.0137    8.6764  138.8951 C   0  0  0  0  0  0  0  0  0  0  0  0
  -23.0311    7.4943  140.2106 C   0  0  0  0  0  0  0  0  0  0  0  0
  -23.9198    9.9060  138.1819 C   0  0  0  0  0  0  0  0  0  0  0  0
  -21.7891    6.1510  140.1453 C   0  0  0  0  0  0  0  0  0  0  0  0
  -23.7077    7.7353  141.6100 C   0  0  0  0  0  0  0  0  0  0  0  0
  -23.5116    6.8255  142.7784 C   0  0  0  0  0  0  0  0  0  0  0  0
  -24.0617    7.6225  144.0238 C   0  0  0  0  0  0  0  0  0  0  0  0
  -25.4241    6.7513  142.6495 Al  0  0  0  0  0  3  0  0  0  0  0  0
  -20.4603    5.0706  141.1123 C   0  0  0  0  0  0  0  0  0  0  0  0
  -19.5177    5.4208  142.5744 C   0  0  0  0  0  0  0  0  0  0  0  0
  -20.0129    6.1649  143.8155 C   0  0  0  0  0  0  0  0  0  0  0  0
  -20.9958    6.9502  142.9616 C   0  0  0  0  0  0  0  0  0  0  0  0
  -20.2858    7.7017  141.5251 C   0  0  0  0  0  0  0  0  0  0  0  0
  -20.4525    9.9797  142.7911 C   0  0  0  0  0  0  0  0  0  0  0  0
  -22.3056    5.8057  143.0584 C   0  0  0  0  0  0  0  0  0  0  0  0
  -18.8032    6.8516  144.6195 C   0  0  0  0  0  0  0  0  0  0  0  0
  -18.7640    6.8519  146.1631 C   0  0  0  0  0  0  0  0  0  0  0  0
  -18.1615    8.9119  142.0948 C   0  0  0  0  0  0  0  0  0  0  0  0
  -19.6699    9.0834  141.7287 C   0  0  0  0  0  0  0  0  0  0  0  0
  -19.6181    5.9051  146.9461 N   0  0  0  0  0  0  0  0  0  0  0  0
  -19.2445    8.1186  145.3957 C   0  0  0  0  0  0  0  0  0  0  0  0
  -21.0981    5.7973  147.3668 C   0  0  0  0  0  0  0  0  0  0  0  0
  -21.3241    5.0760  148.5606 O   0  0  0  0  0  0  0  0  0  0  0  0
  -20.3820    6.9640  147.7292 C   0  0  0  0  0  0  0  0  0  0  0  0
  2  1  1  0
  3  2  1  0
  4  2  1  0
  5  4  1  0
  6  2  1  0
  6  3  1  0
  6  4  1  0
  7  5  1  0
  8  5  1  0
  9  8  1  0
 10  9  1  0
 11  8  1  0
 11  9  1  0
 11 10  1  0
 12  7  1  0
 13 12  1  0
 14 13  1  0
 15 14  1  0
 16 15  1  0
 18  9  1  0
 18 15  1  0
 19 14  1  0
 20 19  1  0
 22 16  1  0
 22 17  1  0
 22 21  1  0
 23 20  1  0
 24 19  1  0
 24 20  1  0
 25 23  1  0
 26 25  1  0
 27 23  1  0
 27 25  1  0
M  END
$$$$

     RDKit          3D

 27 31  0  0  0  0  0  0  0  0999 V2000
  -29.6917    0.9042  151.7651 O   0  0  0  0  0  0  0  0  0  0  0  0
  -33.1601    1.9807  154.5468 C   0  0  0  0  0  0  0  0  0  0  0  0
  -34.9205    5.2418  157.0827 O   0  0  0  0  0  0  0  0  0  0  0  0
  -30.9613   -1.5796  151.5914 C   0  0  0  0  0  0  0  0  0  0  0  0
  -30.5354   -5.1067  148.2944 C   0  0  0  0  0  0  0  0  0  0  0  0
  -29.5840   -4.8249  146.7654 O   0  0  0  0  0  0  0  0  0  0  0  0
  -31.8767    0.6865  152.7971 C   0  0  0  0  0  0  0  0  0  0  0  0
  -34.3941    4.0857  155.4465 C   0  0  0  0  0  0  0  0  0  0  0  0
  -30.4463   -3.3098  149.7986 C   0  0  0  0  0  0  0  0  0  0  0  0
  -28.4051  -10.1509  143.7895 C   0  0  0  0  0  0  0  0  0  0  0  0
  -27.1684   -7.9284  145.3886 C   0  0  0  0  0  0  0  0  0  0  0  0
  -35.3976    6.8968  158.1174 C   0  0  0  0  0  0  0  0  0  0  0  0
  -28.0638   -8.4199  144.3280 C   0  0  0  0  0  0  0  0  0  0  0  0
  -28.6254  -10.5375  145.2629 C   0  0  0  0  0  0  0  0  0  0  0  0
  -32.3803   -5.3481  146.7088 C   0  0  0  0  0  0  0  0  0  0  0  0
  -33.1908   -9.5322  146.5714 C   0  0  0  0  0  0  0  0  0  0  0  0
  -34.5241  -15.4552  147.6220 I   0  0  0  0  0  0  0  0  0  0  0  0
  -32.0180  -10.7403  145.5221 C   0  0  0  0  0  0  0  0  0  0  0  0
  -32.4635   -7.5142  146.3211 O   0  0  0  0  0  0  0  0  0  0  0  0
  -30.7821  -11.5407  144.1175 C   0  0  0  0  0  0  0  0  0  0  0  0
  -31.1829   -3.7970  146.0746 C   0  0  0  0  0  0  0  0  0  0  0  0
  -29.9247  -10.3536  143.1357 C   0  0  0  0  0  0  0  0  0  0  0  0
  -30.8880   -9.8301  144.4620 C   0  0  0  0  0  0  0  0  0  0  0  0
  -30.3160    1.6565  152.5807 C   0  0  0  0  0  0  0  0  0  0  0  0
  -33.3742  -12.0372  146.3136 C   0  0  0  0  0  0  0  0  0  0  0  0
  -27.1917   -3.0841  147.7270 C   0  0  0  0  0  0  0  0  0  0  0  0
  -29.1040   -3.6849  147.3554 C   0  0  0  0  0  0  0  0  0  0  0  0
  6  5  1  0
  7  2  1  0
  7  4  1  0
  8  2  1  0
  8  3  1  0
  9  4  1  0
  9  5  1  0
 12  3  1  0
 13 10  1  0
 13 11  1  0
 14 10  1  0
 14 13  1  0
 18 16  1  0
 19 15  1  0
 19 16  1  0
 20 14  1  0
 20 18  1  0
 21 15  1  0
 22 10  1  0
 22 20  1  0
 23 18  1  0
 23 20  1  0
 23 22  1  0
 24  1  2  0
 24  7  1  0
 25 16  1  0
 25 17  1  0
 25 18  1  0
 27  6  1  0
 27 21  1  0
 27 26  1  0
M  END
$$$$

     RDKit          3D

 27 29  0  0  0  0  0  0  0  0999 V2000
  -29.9768  -15.9263  146.2853 O   0  0  0  0  0  0  0  0  0  0  0  0
  -27.8223  -12.5602  147.0084 C   0  0  0  0  0  0  0  0  0  0  0  0
  -27.4806  -11.0641  147.0203 O   0  0  0  0  0  0  0  0  0  0  0  0
  -29.0423  -13.7133  146.8496 C   0  0  0  0  0  0  0  0  0  0  0  0
  -31.0740  -14.3784  144.7986 C   0  0  0  0  0  0  0  0  0  0  0  0
  -32.0262  -13.2824  144.0115 C   0  0  0  0  0  0  0  0  0  0  0  0
  -31.6586  -12.6066  142.6946 C   0  0  0  0  0  0  0  0  0  0  0  0
  -31.7128  -13.5642  141.5436 C   0  0  0  0  0  0  0  0  0  0  0  0
  -30.4637  -14.5311  141.4025 C   0  0  0  0  0  0  0  0  0  0  0  0
  -29.8600  -14.6128  145.7137 C   0  0  0  0  0  0  0  0  0  0  0  0
  -30.3338  -15.3904  142.7528 C   0  0  0  0  0  0  0  0  0  0  0  0
  -28.0021   -9.7140  147.0145 C   0  0  0  0  0  0  0  0  0  0  0  0
  -29.6858  -14.6746  144.0764 C   0  0  0  0  0  0  0  0  0  0  0  0
  -28.4137   -9.1313  148.4342 C   0  0  0  0  0  0  0  0  0  0  0  0
  -28.6370   -9.8831  144.5513 C   0  0  0  0  0  0  0  0  0  0  0  0
  -28.5587  -11.3556  144.6852 C   0  0  0  0  0  0  0  0  0  0  0  0
  -27.0135  -11.9108  144.1809 C   0  0  0  0  0  0  0  0  0  0  0  0
  -29.1366   -9.3277  145.9224 C   0  0  0  0  0  0  0  0  0  0  0  0
  -27.0402  -12.9710  142.9808 C   0  0  0  0  0  0  0  0  0  0  0  0
  -26.2191  -12.4919  141.7889 C   0  0  0  0  0  0  0  0  0  0  0  0
  -26.4962  -14.5255  143.3210 C   0  0  0  0  0  0  0  0  0  0  0  0
  -27.4263   -8.2600  149.0886 C   0  0  0  0  0  0  0  0  0  0  0  0
  -30.4153  -10.1290  146.0658 C   0  0  0  0  0  0  0  0  0  0  0  0
  -27.4701   -7.9658  150.4183 C   0  0  0  0  0  0  0  0  0  0  0  0
  -26.3499  -14.9225  144.7957 C   0  0  0  0  0  0  0  0  0  0  0  0
  -29.8548  -11.4250  145.6712 C   0  0  0  0  0  0  0  0  0  0  0  0
  -31.2966   -9.9655  147.2829 C   0  0  0  0  0  0  0  0  0  0  0  0
  3  2  1  0
  4  2  1  0
  6  5  1  0
  7  6  1  0
  8  7  1  0
  9  8  1  0
 10  1  1  0
 10  4  1  0
 10  5  1  0
 11  9  1  0
 12  3  1  0
 13  5  1  0
 13 10  1  0
 13 11  1  0
 14 12  1  0
 16 15  1  0
 17 16  1  0
 18 12  1  0
 18 15  1  0
 19 17  1  0
 20 19  1  0
 21 19  1  0
 22 14  1  0
 23 18  1  0
 24 22  2  0
 25 21  1  0
 26 16  1  0
 26 23  1  0
 27 23  1  0
M  END
$$$$

     RDKit          3D

 27 34  0  0  0  0  0  0  0  0999 V2000
  -24.1607    3.3138  137.5944 C   0  0  0  0  0  0  0  0  0  0  0  0
  -24.3611    3.8915  136.2163 C   0  0  0  0  0  0  0  0  0  0  0  0
  -25.2028    5.1968  136.1492 C   0  0  0  0  0  0  0  0  0  0  0  0
  -24.3404    1.8200  137.6477 C   0  0  0  0  0  0  0  0  0  0  0  0
  -26.7733    4.9794  136.0454 C   0  0  0  0  0  0  0  0  0  0  0  0
  -27.3880    5.0480  134.6046 C   0  0  0  0  0  0  0  0  0  0  0  0
  -26.5015    5.9496  133.7020 C   0  0  0  0  0  0  0  0  0  0  0  0
  -25.8176    7.0925  134.4975 C   0  0  0  0  0  0  0  0  0  0  0  0
  -26.5136    7.9610  135.6022 C   0  0  0  0  0  0  0  0  0  0  0  0
  -25.2463    1.2819  138.7592 C   0  0  0  0  0  0  0  0  0  0  0  0
  -25.1366    5.2393  133.6405 C   0  0  0  0  0  0  0  0  0  0  0  0
  -24.3013    5.5850  132.3970 C   0  0  0  0  0  0  0  0  0  0  0  0
  -24.7484    6.0420  134.9023 C   0  0  0  0  0  0  0  0  0  0  0  0
  -25.0680    2.5887  136.5588 C   0  0  0  0  0  0  0  0  0  0  0  0
  -28.0713    7.8480  135.7062 C   0  0  0  0  0  0  0  0  0  0  0  0
  -24.5036    1.0965  139.9322 O   0  0  0  0  0  0  0  0  0  0  0  0
  -28.5880    6.7709  136.7518 C   0  0  0  0  0  0  0  0  0  0  0  0
  -27.4646    5.7887  137.1659 C   0  0  0  0  0  0  0  0  0  0  0  0
  -27.6671    4.2910  137.0855 C   0  0  0  0  0  0  0  0  0  0  0  0
  -28.7293    9.2388  135.9184 C   0  0  0  0  0  0  0  0  0  0  0  0
  -28.6866    9.7722  137.3735 C   0  0  0  0  0  0  0  0  0  0  0  0
  -28.3988    8.6723  138.4095 C   0  0  0  0  0  0  0  0  0  0  0  0
  -28.7282    9.2092  139.8103 C   0  0  0  0  0  0  0  0  0  0  0  0
  -28.0544   10.5453  140.0479 C   0  0  0  0  0  0  0  0  0  0  0  0
  -27.6436   11.3447  139.0403 C   0  0  0  0  0  0  0  0  0  0  0  0
  -27.6863   10.9201  137.5860 C   0  0  0  0  0  0  0  0  0  0  0  0
  -29.1763    7.4051  138.0411 C   0  0  0  0  0  0  0  0  0  0  0  0
  2  1  1  0
  3  2  1  0
  4  1  1  0
  5  3  1  0
  6  5  1  0
  7  6  1  0
  8  7  1  0
  9  8  1  0
 10  4  1  0
 11  7  1  0
 12 11  1  0
 13  3  1  0
 13  8  1  0
 13 11  1  0
 14  1  1  0
 14  2  1  0
 14  4  1  0
 15  9  1  0
 16 10  1  0
 17 15  1  0
 18  5  1  0
 18 17  1  0
 19  5  1  0
 19 18  1  0
 20 15  1  0
 21 20  1  0
 22 21  1  0
 23 22  1  0
 24 23  1  0
 25 24  2  0
 26 21  1  0
 26 25  1  0
 27 17  1  0
 27 22  1  0
M  END
$$$$

     RDKit          3D

 22 28  0  0  0  0  0  0  0  0999 V2000
  -25.8679  -18.9412  141.5078 C   0  0  0  0  0  0  0  0  0  0  0  0
  -25.7090  -18.0669  140.4209 O   0  0  0  0  0  0  0  0  0  0  0  0
  -25.7878  -20.9931  141.3865 C   0  0  0  0  0  0  0  0  0  0  0  0
  -26.8433  -19.9899  141.2188 N   0  0  0  0  0  0  0  0  0  0  0  0
  -24.5681  -20.8897  140.4858 C   0  0  0  0  0  0  0  0  0  0  0  0
  -23.4856  -21.9540  140.7225 C   0  0  0  0  0  0  0  0  0  0  0  0
  -23.5905  -23.1058  139.7102 C   0  0  0  0  0  0  0  0  0  0  0  0
  -24.7149  -19.9160  141.6367 C   0  0  0  0  0  0  0  0  0  0  0  0
  -23.1878  -22.7226  138.2641 C   0  0  0  0  0  0  0  0  0  0  0  0
  -21.8757  -23.2624  137.8554 C   0  0  0  0  0  0  0  0  0  0  0  0
  -21.9823  -21.7344  138.0936 C   0  0  0  0  0  0  0  0  0  0  0  0
  -22.7393  -20.6657  137.3881 C   0  0  0  0  0  0  0  0  0  0  0  0
  -22.4525  -19.2557  137.9811 C   0  0  0  0  0  0  0  0  0  0  0  0
  -21.5347  -21.2314  136.7589 N   0  0  0  0  0  0  0  0  0  0  0  0
  -23.4629  -18.1848  137.4939 C   0  0  0  0  0  0  0  0  0  0  0  0
  -22.2705  -17.4260  136.9859 C   0  0  0  0  0  0  0  0  0  0  0  0
  -22.2266  -16.3832  135.8927 C   0  0  0  0  0  0  0  0  0  0  0  0
  -20.9323  -16.3455  135.0789 C   0  0  0  0  0  0  0  0  0  0  0  0
  -22.1045  -15.9661  137.3725 C   0  0  0  0  0  0  0  0  0  0  0  0
  -21.2474  -18.4320  137.4363 C   0  0  0  0  0  0  0  0  0  0  0  0
  -20.9800  -17.3447  134.1009 O   0  0  0  0  0  0  0  0  0  0  0  0
  -22.6755  -20.7990  135.9347 C   0  0  0  0  0  0  0  0  0  0  0  0
  2  1  1  0
  4  1  1  0
  4  3  1  0
  5  3  1  0
  6  5  1  0
  7  6  1  0
  8  1  1  0
  8  3  1  0
  8  5  1  0
  9  7  1  0
 10  9  1  0
 11  9  1  0
 11 10  1  0
 12 11  1  0
 13 12  1  0
 14 11  1  0
 14 12  1  0
 15 13  1  0
 16 15  1  0
 17 16  1  0
 18 17  1  0
 19 16  1  0
 19 17  1  0
 20 13  1  0
 20 16  1  0
 21 18  1  0
 22 12  1  0
 22 14  1  0
M  END
$$$$

     RDKit          3D

 27 31  0  0  0  0  0  0  0  0999 V2000
  -22.9676   -3.6075  135.6237 O   0  0  0  0  0  0  0  0  0  0  0  0
  -22.9258   -2.3866  134.8904 C   0  0  0  0  0  0  0  0  0  0  0  0
  -21.4003   -2.0241  134.7485 C   0  0  0  0  0  0  0  0  0  0  0  0
  -20.8644   -1.1785  133.5816 C   0  0  0  0  0  0  0  0  0  0  0  0
  -20.5483   -3.2505  135.1517 C   0  0  0  0  0  0  0  0  0  0  0  0
  -21.4811    0.2775  133.4286 C   0  0  0  0  0  0  0  0  0  0  0  0
  -21.2692   -1.9801  137.4170 C   0  0  0  0  0  0  0  0  0  0  0  0
  -22.6358    0.6625  134.4028 C   0  0  0  0  0  0  0  0  0  0  0  0
  -22.4066    0.7355  135.7760 C   0  0  0  0  0  0  0  0  0  0  0  0
  -23.9750    0.9436  133.7483 C   0  0  0  0  0  0  0  0  0  0  0  0
  -24.4671    0.3856  137.6577 C   0  0  0  0  0  0  0  0  0  0  0  0
  -25.8237    1.1613  137.9104 C   0  0  0  0  0  0  0  0  0  0  0  0
  -27.0481    0.3996  138.5792 C   0  0  0  0  0  0  0  0  0  0  0  0
  -21.6534   -4.1416  135.7395 C   0  0  0  0  0  0  0  0  0  0  0  0
  -23.3467    1.2862  136.8978 C   0  0  0  0  0  0  0  0  0  0  0  0
  -25.5363    2.4467  138.7891 C   0  0  0  0  0  0  0  0  0  0  0  0
  -21.1440   -4.4761  134.4103 C   0  0  0  0  0  0  0  0  0  0  0  0
  -20.5369   -1.9935  136.0077 C   0  0  0  0  0  0  0  0  0  0  0  0
  -28.0330   -0.0843  137.4767 C   0  0  0  0  0  0  0  0  0  0  0  0
  -30.3872   -1.0086  137.4901 N   0  0  0  0  0  0  0  0  0  0  0  0
  -27.5963    0.6752  136.1979 C   0  0  0  0  0  0  0  0  0  0  0  0
  -30.4011   -1.6276  136.2035 C   0  0  0  0  0  0  0  0  0  0  0  0
  -27.6194    2.1978  136.2019 C   0  0  0  0  0  0  0  0  0  0  0  0
  -26.3329    1.4933  136.4864 C   0  0  0  0  0  0  0  0  0  0  0  0
  -31.0055   -1.0160  135.1910 C   0  0  0  0  0  0  0  0  0  0  0  0
  -29.5282    0.1609  137.7691 C   0  0  0  0  0  0  0  0  0  0  0  0
  -23.7323   -2.5744  133.5970 C   0  0  0  0  0  0  0  0  0  0  0  0
  2  1  1  0
  3  2  1  0
  4  3  1  0
  5  3  1  0
  6  4  1  0
  8  6  1  0
  9  8  2  3
 10  8  1  0
 12 11  1  0
 13 12  1  0
 14  1  1  0
 14  5  1  0
 15  9  1  0
 15 11  1  0
 16 12  1  0
 17  5  1  0
 17 14  1  0
 18  3  1  0
 18  5  1  0
 18  7  1  0
 19 13  1  0
 21 19  1  0
 22 20  1  0
 23 21  1  0
 24 12  1  0
 24 21  1  0
 24 23  1  0
 25 22  2  0
 26 19  1  0
 26 20  1  0
 27  2  1  0
M  END
$$$$

     RDKit          3D

 27 29  0  0  0  0  0  0  0  0999 V2000
  -18.8631  -20.2926  133.1942 C   0  0  0  0  0  0  0  0  0  0  0  0
  -18.4193  -20.2517  130.7087 C   0  0  0  0  0  0  0  0  0  0  0  0
  -18.2650  -20.4779  134.5676 C   0  0  0  0  0  0  0  0  0  0  0  0
  -16.3367  -20.1189  132.3148 C   0  0  0  0  0  0  0  0  0  0  0  0
  -17.7026  -21.6205  135.0059 C   0  0  0  0  0  0  0  0  0  0  0  0
  -17.5805  -22.8975  134.1904 C   0  0  0  0  0  0  0  0  0  0  0  0
  -15.5963  -21.3133  131.6244 C   0  0  0  0  0  0  0  0  0  0  0  0
  -15.3621  -21.0846  130.0885 C   0  0  0  0  0  0  0  0  0  0  0  0
  -14.9098  -19.6518  129.6469 C   0  0  0  0  0  0  0  0  0  0  0  0
  -16.1478  -22.9671  133.5718 C   0  0  0  0  0  0  0  0  0  0  0  0
  -16.1275  -22.7326  132.0164 C   0  0  0  0  0  0  0  0  0  0  0  0
  -17.8658  -19.8386  132.0849 C   0  0  0  0  0  0  0  0  0  0  0  0
  -14.3265  -19.4329  128.2246 C   0  0  0  0  0  0  0  0  0  0  0  0
  -17.9488  -24.1520  135.0558 C   0  0  0  0  0  0  0  0  0  0  0  0
  -19.3394  -23.9757  135.7320 C   0  0  0  0  0  0  0  0  0  0  0  0
  -14.3213  -17.9398  127.8450 C   0  0  0  0  0  0  0  0  0  0  0  0
  -14.6557  -22.2436  129.3744 C   0  0  0  0  0  0  0  0  0  0  0  0
  -14.2876  -23.4313  130.2792 C   0  0  0  0  0  0  0  0  0  0  0  0
  -16.1284  -21.9541  129.0726 C   0  0  0  0  0  0  0  0  0  0  0  0
  -15.3591  -23.8796  131.2849 C   0  0  0  0  0  0  0  0  0  0  0  0
  -19.6527  -25.0376  136.7530 C   0  0  0  0  0  0  0  0  0  0  0  0
  -15.6817  -17.4716  127.3098 C   0  0  0  0  0  0  0  0  0  0  0  0
  -20.8777  -25.1105  137.2899 C   0  0  0  0  0  0  0  0  0  0  0  0
  -21.2118  -26.0670  138.4061 C   0  0  0  0  0  0  0  0  0  0  0  0
  -17.9684  -25.4313  134.1883 C   0  0  0  0  0  0  0  0  0  0  0  0
  -20.7047  -25.5673  139.7609 C   0  0  0  0  0  0  0  0  0  0  0  0
  -19.3176  -25.7224  139.8626 O   0  0  0  0  0  0  0  0  0  0  0  0
  3  1  1  0
  5  3  2  3
  6  5  1  0
  7  4  1  0
  8  7  1  0
  9  8  1  0
 10  6  1  0
 11  7  1  0
 11 10  1  0
 12  1  1  0
 12  2  1  0
 12  4  1  0
 13  9  1  0
 14  6  1  0
 15 14  1  0
 16 13  1  0
 17  8  1  0
 18 17  1  0
 19  8  1  0
 19 17  1  0
 20 11  1  0
 20 18  1  0
 21 15  1  0
 22 16  1  0
 23 21  2  3
 24 23  1  0
 25 14  1  0
 26 24  1  0
 27 26  1  0
M  END
$$$$

     RDKit          3D

 27 27  0  0  0  0  0  0  0  0999 V2000
  -20.9935   -8.0380  138.8255 O   0  0  0  0  0  0  0  0  0  0  0  0
  -19.8250   -8.5412  138.1180 C   0  0  0  0  0  0  0  0  0  0  0  0
  -19.8135   -9.8977  137.7148 O   0  0  0  0  0  0  0  0  0  0  0  0
  -18.9916   -7.6770  135.6365 C   0  0  0  0  0  0  0  0  0  0  0  0
  -17.9141   -9.5193  135.1925 O   0  0  0  0  0  0  0  0  0  0  0  0
  -17.6755   -6.8354  134.9550 C   0  0  0  0  0  0  0  0  0  0  0  0
  -19.1947   -7.5907  137.1386 O   0  0  0  0  0  0  0  0  0  0  0  0
  -16.5842   -6.6242  136.0196 C   0  0  0  0  0  0  0  0  0  0  0  0
  -18.1609   -5.5635  134.6033 O   0  0  0  0  0  0  0  0  0  0  0  0
  -22.2218   -8.2838  138.1475 C   0  0  0  0  0  0  0  0  0  0  0  0
  -19.0985   -8.9601  135.0304 O   0  0  0  0  0  0  0  0  0  0  0  0
  -17.4707   -5.2901  138.1306 C   0  0  0  0  0  0  0  0  0  0  0  0
  -17.2562   -5.9181  139.4411 C   0  0  0  0  0  0  0  0  0  0  0  0
  -16.9741   -5.9386  137.0982 C   0  0  0  0  0  0  0  0  0  0  0  0
  -18.8215   -4.7086  140.7103 C   0  0  0  0  0  0  0  0  0  0  0  0
  -17.3716   -4.9001  140.5026 N   0  0  0  0  0  0  0  0  0  0  0  0
  -22.9509   -9.2961  140.5594 C   0  0  0  0  0  0  0  0  0  0  0  0
  -22.0058  -11.0694  137.8653 C   0  0  0  0  0  0  0  0  0  0  0  0
  -22.7768   -9.6652  138.7734 C   0  0  0  0  0  0  0  0  0  0  0  0
  -22.8071   -7.9321  141.8701 C   0  0  0  0  0  0  0  0  0  0  0  0
  -23.3406   -6.5429  143.1336 C   0  0  0  0  0  0  0  0  0  0  0  0
  -20.9370  -10.3575  137.0056 C   0  0  0  0  0  0  0  0  0  0  0  0
  -21.3679   -8.2636  142.4605 C   0  0  0  0  0  0  0  0  0  0  0  0
  -22.1597   -5.9042  143.8252 C   0  0  0  0  0  0  0  0  0  0  0  0
  -21.4635   -8.7445  143.8708 C   0  0  0  0  0  0  0  0  0  0  0  0
  -24.5106   -6.9566  144.0507 C   0  0  0  0  0  0  0  0  0  0  0  0
  -21.0628   -5.6573  144.2936 C   0  0  0  0  0  0  0  0  0  0  0  0
  2  1  1  0
  3  2  1  0
  6  4  1  0
  7  2  1  0
  7  4  1  0
  8  6  1  0
  9  6  1  0
 10  1  1  0
 11  4  1  0
 11  5  1  0
 13 12  1  0
 14  8  2  0
 14 12  2  0
 16 13  1  0
 16 15  1  0
 19 10  1  0
 19 17  1  0
 19 18  1  0
 20 17  1  0
 21 20  1  0
 22  3  1  0
 22 18  1  0
 23 20  1  0
 24 21  1  0
 25 23  1  0
 26 21  1  0
 27 24  3  0
M  END
$$$$

     RDKit          3D

 27 34  0  0  0  0  0  0  0  0999 V2000
  -21.1003  -20.3430  144.2708 C   0  0  0  0  0  0  0  0  0  0  0  0
  -22.7412  -21.0176  146.0625 C   0  0  0  0  0  0  0  0  0  0  0  0
  -20.1353  -19.1677  144.3880 C   0  0  0  0  0  0  0  0  0  0  0  0
  -23.1045  -19.4002  148.3628 C   0  0  0  0  0  0  0  0  0  0  0  0
  -22.8306  -17.8632  148.6536 C   0  0  0  0  0  0  0  0  0  0  0  0
  -20.4519  -18.3828  145.6051 C   0  0  0  0  0  0  0  0  0  0  0  0
  -23.4618  -17.3886  150.0289 C   0  0  0  0  0  0  0  0  0  0  0  0
  -23.2209  -18.2288  151.2939 C   0  0  0  0  0  0  0  0  0  0  0  0
  -23.4585  -16.7735  147.6212 C   0  0  0  0  0  0  0  0  0  0  0  0
  -21.6031  -17.3538  145.4377 C   0  0  0  0  0  0  0  0  0  0  0  0
  -21.9032  -18.1403  151.9911 C   0  0  0  0  0  0  0  0  0  0  0  0
  -21.3130  -21.1236  145.6032 C   0  0  0  0  0  0  0  0  0  0  0  0
  -24.0283  -17.2274  146.2157 C   0  0  0  0  0  0  0  0  0  0  0  0
  -23.0658  -17.7499  145.1712 C   0  0  0  0  0  0  0  0  0  0  0  0
  -23.1355  -17.3879  152.5690 C   0  0  0  0  0  0  0  0  0  0  0  0
  -20.7436  -17.7672  144.2259 C   0  0  0  0  0  0  0  0  0  0  0  0
  -21.7406  -16.7800  152.7321 C   0  0  0  0  0  0  0  0  0  0  0  0
  -24.0100  -18.7270  145.9837 C   0  0  0  0  0  0  0  0  0  0  0  0
  -25.4087  -16.6366  145.5719 C   0  0  0  0  0  0  0  0  0  0  0  0
  -26.4565  -17.6358  144.8210 C   0  0  0  0  0  0  0  0  0  0  0  0
  -27.7612  -17.0356  144.3126 C   0  0  0  0  0  0  0  0  0  0  0  0
  -21.3055  -17.6553  148.7720 C   0  0  0  0  0  0  0  0  0  0  0  0
  -27.5062  -16.7349  142.8670 C   0  0  0  0  0  0  0  0  0  0  0  0
  -26.5281  -17.5991  142.3647 O   0  0  0  0  0  0  0  0  0  0  0  0
  -23.3194  -19.7866  146.8737 C   0  0  0  0  0  0  0  0  0  0  0  0
  -26.0188  -18.2951  143.4709 C   0  0  0  0  0  0  0  0  0  0  0  0
  -21.0907  -16.9443  154.1264 C   0  0  0  0  0  0  0  0  0  0  0  0
  3  1  1  0
  5  4  1  0
  6  3  1  0
  7  5  1  0
  8  7  1  0
  9  5  1  0
 10  6  1  0
 11  8  1  0
 12  1  1  0
 12  2  1  0
 13  9  1  0
 14 10  1  0
 14 13  1  0
 15  8  1  0
 15 11  1  0
 16  3  1  0
 16  6  1  0
 16 10  1  0
 17 11  1  0
 17 15  1  0
 18 13  1  0
 18 14  1  0
 19 13  1  0
 20 19  1  0
 21 20  1  0
 22  5  1  0
 23 21  1  0
 24 23  1  0
 25  2  1  0
 25  4  1  0
 25 18  1  0
 26 20  1  0
 26 24  1  0
 27 17  1  0
M  END
$$$$

     RDKit          3D

 27 27  0  0  0  0  0  0  0  0999 V2000
  -27.6244   -0.0997  136.4295 C   0  0  0  0  0  0  0  0  0  0  0  0
  -26.5008   -1.1461  136.6101 C   0  0  0  0  0  0  0  0  0  0  0  0
  -27.7088    0.2515  135.0029 N   0  0  0  0  0  2  0  0  0  0  0  0
  -25.1204   -0.6284  136.1676 C   0  0  0  0  0  0  0  0  0  0  0  0
  -28.1685    1.6269  134.7738 C   0  0  0  0  0  0  0  0  0  0  0  0
  -28.9925   -0.6648  136.8857 C   0  0  0  0  0  0  0  0  0  0  0  0
  -24.6581    0.4493  137.0453 N   0  0  0  0  0  0  0  0  0  0  0  0
  -29.1382   -0.8578  138.4052 C   0  0  0  0  0  0  0  0  0  0  0  0
  -28.4657    1.8144  133.3545 N   0  0  0  0  0  0  0  0  0  0  0  0
  -27.1317    2.5661  135.1711 N   0  0  0  0  0  2  0  0  0  0  0  0
  -29.1388    0.4795  139.1653 C   0  0  0  0  0  0  0  0  0  0  0  0
  -30.4548    1.2475  139.1456 C   0  0  0  0  0  0  0  0  0  0  0  0
  -30.3214    2.7759  139.2020 C   0  0  0  0  0  0  0  0  0  0  0  0
  -29.9053    3.3377  137.8345 C   0  0  0  0  0  0  0  0  0  0  0  0
  -30.0262    0.5019  140.4077 C   0  0  0  0  0  0  0  0  0  0  0  0
  -30.1084    4.8596  137.7159 C   0  0  0  0  0  0  0  0  0  0  0  0
  -29.4227    5.6999  138.8111 C   0  0  0  0  0  0  0  0  0  0  0  0
  -27.8875    5.5817  138.8387 C   0  0  0  0  0  0  0  0  0  0  0  0
  -27.2186    6.2677  137.6294 C   0  0  0  0  0  0  0  0  0  0  0  0
  -25.6805    6.4142  137.8045 C   0  0  0  0  0  0  0  0  0  0  0  0
  -24.9232    6.5680  136.4436 C   0  0  0  0  0  0  0  0  0  0  0  0
  -25.3398    7.5809  138.7555 C   0  0  0  0  0  0  0  0  0  0  0  0
  -24.7873    5.2040  135.6988 C   0  0  0  0  0  0  0  0  0  0  0  0
  -25.5517    7.6306  135.5210 C   0  0  0  0  0  0  0  0  0  0  0  0
  -23.3796    4.5635  135.7457 C   0  0  0  0  0  0  0  0  0  0  0  0
  -22.9167    4.2557  137.1746 C   0  0  0  0  0  0  0  0  0  0  0  0
  -22.3295    5.3875  134.9830 C   0  0  0  0  0  0  0  0  0  0  0  0
  2  1  1  0
  3  1  1  0
  4  2  1  0
  5  3  1  0
  6  1  1  0
  7  4  1  0
  8  6  1  0
  9  5  1  0
 10  5  1  0
 11  8  1  0
 12 11  1  0
 13 12  1  0
 14 13  1  0
 15 11  1  0
 15 12  1  0
 16 14  1  0
 17 16  1  0
 18 17  1  0
 19 18  1  0
 20 19  1  0
 21 20  1  0
 22 20  1  0
 23 21  1  0
 24 21  1  0
 25 23  1  0
 26 25  1  0
 27 25  1  0
M  RAD  2   3   2  10   2
M  END
$$$$

     RDKit          3D

 11 13  0  0  0  0  0  0  0  0999 V2000
  -25.3657  -14.9345  138.7382 O   0  0  0  0  0  0  0  0  0  0  0  0
  -25.9258  -14.1842  140.9878 C   0  0  0  0  0  0  0  0  0  0  0  0
  -25.8648  -14.6052  142.3305 O   0  0  0  0  0  0  0  0  0  0  0  0
  -25.8792  -15.3193  139.9799 C   0  0  0  0  0  0  0  0  0  0  0  0
  -24.0654  -15.1686  138.8172 F   0  0  0  0  0  0  0  0  0  0  0  0
  -24.1427  -13.1787  143.2538 C   0  0  0  0  0  0  0  0  0  0  0  0
  -24.5206  -14.5798  142.7614 C   0  0  0  0  0  0  0  0  0  0  0  0
  -27.2031  -14.6490  140.3037 C   0  0  0  0  0  0  0  0  0  0  0  0
  -22.6602  -12.9979  143.5020 C   0  0  0  0  0  0  0  0  0  0  0  0
  -21.8859  -12.7753  142.2218 C   0  0  0  0  0  0  0  0  0  0  0  0
  -23.3356  -12.3483  142.2781 C   0  0  0  0  0  0  0  0  0  0  0  0
  3  2  1  0
  4  1  1  0
  4  2  1  0
  5  1  1  0
  7  3  1  0
  7  6  1  0
  8  2  1  0
  8  4  1  0
  9  6  1  0
 10  9  1  0
 11  6  1  0
 11  9  1  0
 11 10  1  0
M  END
$$$$

     RDKit          3D

 27 32  0  0  0  0  0  0  0  0999 V2000
  -18.6320   -5.0794  142.5505 C   0  0  0  0  0  0  0  0  0  0  0  0
  -19.5290   -5.2194  141.2841 C   0  0  0  0  0  0  0  0  0  0  0  0
  -17.2549   -5.7544  142.4638 C   0  0  0  0  0  0  0  0  0  0  0  0
  -16.0288   -4.8186  142.3169 C   0  0  0  0  0  0  0  0  0  0  0  0
  -19.0903   -4.6405  139.9504 C   0  0  0  0  0  0  0  0  0  0  0  0
  -20.1197   -3.6606  139.4079 C   0  0  0  0  0  0  0  0  0  0  0  0
  -21.7090   -3.8553  140.3321 S   0  0  0  0  0  0  0  0  0  0  0  0
  -15.8545   -4.3200  140.9543 N   0  0  0  0  0  0  0  0  0  0  0  0
  -19.9768   -3.8337  140.8735 C   0  0  0  0  0  0  0  0  0  0  0  0
  -16.0007   -3.6322  143.3587 C   0  0  0  0  0  0  0  0  0  0  0  0
  -16.5291   -2.3088  142.8169 C   0  0  0  0  0  0  0  0  0  0  0  0
  -15.7601   -1.1986  142.6721 C   0  0  0  0  0  0  0  0  0  0  0  0
  -16.0921   -0.0769  141.6858 C   0  0  0  0  0  0  0  0  0  0  0  0
  -16.5187   -0.6709  140.3492 C   0  0  0  0  0  0  0  0  0  0  0  0
  -17.0310    0.9449  142.3096 C   0  0  0  0  0  0  0  0  0  0  0  0
  -16.7127    2.3633  141.8033 C   0  0  0  0  0  0  0  0  0  0  0  0
  -15.7006    3.1618  142.6999 C   0  0  0  0  0  0  0  0  0  0  0  0
  -18.3494    0.4117  140.2063 C   0  0  0  0  0  0  0  0  0  0  0  0
  -14.4192    2.3942  143.0246 C   0  0  0  0  0  0  0  0  0  0  0  0
  -14.4032    1.6876  144.0118 O   0  0  0  0  0  0  0  0  0  0  0  0
  -17.3432   -0.0846  139.2264 C   0  0  0  0  0  0  0  0  0  0  0  0
  -15.2790    4.4910  141.9688 C   0  0  0  0  0  0  0  0  0  0  0  0
  -17.5766   -0.1424  141.3714 C   0  0  0  0  0  0  0  0  0  0  0  0
  -14.5655    4.2858  139.9118 Sb  0  0  0  0  0  3  0  0  0  0  0  0
  -13.9820    6.3352  139.6555 C   0  0  0  0  0  0  0  0  0  0  0  0
  -12.5265    3.5866  140.2302 C   0  0  0  0  0  0  0  0  0  0  0  0
  -16.3157    3.4752  143.9339 O   0  0  0  0  0  0  0  0  0  0  0  0
  2  1  1  0
  3  1  1  0
  4  3  1  0
  5  2  1  0
  6  5  1  0
  7  6  1  0
  8  4  1  0
  9  2  1  0
  9  5  1  0
  9  6  1  0
  9  7  1  0
 10  4  1  0
 11 10  1  0
 12 11  2  3
 13 12  1  0
 14 13  1  0
 15 13  1  0
 16 15  1  0
 17 16  1  0
 19 17  1  0
 20 19  2  0
 21 14  1  0
 21 18  1  0
 22 17  1  0
 23 13  1  0
 23 14  1  0
 23 15  1  0
 23 18  1  0
 24 22  1  0
 25 24  1  0
 26 24  1  0
 27 17  1  0
M  END
$$$$

     RDKit          3D

 26 31  0  0  0  0  0  0  0  0999 V2000
  -13.7488    0.1023  141.6160 C   0  0  0  0  0  0  0  0  0  0  0  0
  -12.9169    1.3881  141.7780 C   0  0  0  0  0  0  0  0  0  0  0  0
  -14.0838   -0.6677  140.3540 C   0  0  0  0  0  0  0  0  0  0  0  0
  -13.8417   -2.2228  139.9117 C   0  0  0  0  0  0  0  0  0  0  0  0
  -13.5053    2.0373  143.0853 C   0  0  0  0  0  0  0  0  0  0  0  0
  -12.9346   -3.1279  140.8110 C   0  0  0  0  0  0  0  0  0  0  0  0
  -15.3493    2.6372  141.3944 C   0  0  0  0  0  0  0  0  0  0  0  0
  -15.6201   -0.5125  140.1331 C   0  0  0  0  0  0  0  0  0  0  0  0
  -16.6281    1.7633  141.0078 C   0  0  0  0  0  0  0  0  0  0  0  0
  -17.6551    1.2869  142.1670 C   0  0  0  0  0  0  0  0  0  0  0  0
  -14.9956    3.4661  143.1765 As  0  0  0  0  0  3  0  0  0  0  0  0
  -16.9815    1.2273  143.5108 C   0  0  0  0  0  0  0  0  0  0  0  0
  -17.4200    0.0643  142.8582 O   0  0  0  0  0  0  0  0  0  0  0  0
  -13.9470   -1.5485  137.1973 C   0  0  0  0  0  0  0  0  0  0  0  0
  -13.3877   -2.1849  135.8524 C   0  0  0  0  0  0  0  0  0  0  0  0
  -16.1016    0.8763  139.7809 C   0  0  0  0  0  0  0  0  0  0  0  0
  -15.5995    4.0377  140.5828 C   0  0  0  0  0  0  0  0  0  0  0  0
  -13.8655   -0.0059  137.1958 C   0  0  0  0  0  0  0  0  0  0  0  0
  -14.3557    1.4670  141.9521 C   0  0  0  0  0  0  0  0  0  0  0  0
  -13.2802   -2.3491  138.4502 C   0  0  0  0  0  0  0  0  0  0  0  0
  -10.6634   -2.7050  135.3260 C   0  0  0  0  0  0  0  0  0  0  0  0
  -10.0503   -1.6298  136.2374 C   0  0  0  0  0  0  0  0  0  0  0  0
  -12.0499   -3.1428  135.7200 C   0  0  0  0  0  0  0  0  0  0  0  0
  -13.7811   -3.7472  141.8764 C   0  0  0  0  0  0  0  0  0  0  0  0
  -10.4406   -1.2644  134.8232 C   0  0  0  0  0  0  0  0  0  0  0  0
  -12.2103   -4.5259  135.7472 C   0  0  0  0  0  0  0  0  0  0  0  0
  2  1  1  0
  3  1  1  0
  4  3  1  0
  5  2  1  0
  6  4  1  0
  8  3  1  0
  9  7  1  0
 10  9  1  0
 11  5  1  0
 11  7  1  0
 12 10  1  0
 13 10  1  0
 13 12  1  0
 15 14  1  0
 16  8  1  0
 16  9  1  0
 17  7  1  0
 18 14  1  0
 19  1  1  0
 19  2  1  0
 19  5  1  0
 19  7  1  0
 20  4  1  0
 20 14  1  0
 22 21  1  0
 23 15  1  0
 23 21  1  0
 24  6  1  0
 25 21  1  0
 25 22  1  0
 26 23  2  0
M  END
$$$$

     RDKit          3D

 27 32  0  0  0  0  0  0  0  0999 V2000
  -15.1772   -2.7683  144.6404 N   0  0  0  0  0  0  0  0  0  0  0  0
  -16.3492   -1.7103  148.2317 C   0  0  0  0  0  0  0  0  0  0  0  0
  -14.5107   -6.0469  146.0643 C   0  0  0  0  0  0  0  0  0  0  0  0
  -19.4076   -4.4762  147.6018 N   0  0  0  0  0  0  0  0  0  0  0  0
  -17.5931   -0.8649  147.8898 N   0  0  0  0  0  0  0  0  0  0  0  0
  -14.5169   -2.9603  145.9815 C   0  0  0  0  0  0  0  0  0  0  0  0
  -15.8675   -4.1822  144.7573 C   0  0  0  0  0  0  0  0  0  0  0  0
  -12.9930   -6.4684  146.1724 C   0  0  0  0  0  0  0  0  0  0  0  0
  -14.7226   -4.5308  145.6557 C   0  0  0  0  0  0  0  0  0  0  0  0
  -17.4451   -4.3720  144.2495 C   0  0  0  0  0  0  0  0  0  0  0  0
  -18.6801   -1.1486  148.7441 N   0  0  0  0  0  0  0  0  0  0  0  0
  -16.5799   -0.2772  145.2769 C   0  0  0  0  0  0  0  0  0  0  0  0
  -17.2220   -1.5685  145.4701 C   0  0  0  0  0  0  0  0  0  0  0  0
  -14.9862    1.1495  146.1627 C   0  0  0  0  0  0  0  0  0  0  0  0
  -18.0451   -1.0477  146.5555 C   0  0  0  0  0  0  0  0  0  0  0  0
  -18.9884   -4.0379  145.0558 C   0  0  0  0  0  0  0  0  0  0  0  0
  -16.2023    0.5085  144.1371 C   0  0  0  0  0  0  0  0  0  0  0  0
  -17.9006    0.2834  145.8370 C   0  0  0  0  0  0  0  0  0  0  0  0
  -15.2875   -0.3867  146.0743 C   0  0  0  0  0  0  0  0  0  0  0  0
  -16.7282   -3.0168  149.0404 C   0  0  0  0  0  0  0  0  0  0  0  0
  -20.6294   -2.2724  146.7917 C   0  0  0  0  0  0  0  0  0  0  0  0
  -20.1094   -1.3038  148.0665 C   0  0  0  0  0  0  0  0  0  0  0  0
  -21.3280   -4.4529  145.8218 C   0  0  0  0  0  0  0  0  0  0  0  0
  -15.0246   -1.6856  147.1069 C   0  0  0  0  0  0  0  0  0  0  0  0
  -19.9837   -3.7639  146.3870 C   0  0  0  0  0  0  0  0  0  0  0  0
  -14.0658    1.7519  145.1108 C   0  0  0  0  0  0  0  0  0  0  0  0
  -15.6046    1.7564  144.8714 C   0  0  0  0  0  0  0  0  0  0  0  0
  5  2  1  0
  6  1  1  0
  7  1  1  0
  8  3  1  0
  9  3  1  0
  9  6  1  0
  9  7  1  0
 10  7  1  0
 11  5  1  0
 13 12  1  0
 15  5  1  0
 15 13  1  0
 16 10  1  0
 17 12  1  0
 18 12  1  0
 18 15  1  0
 19 12  1  0
 19 14  1  0
 20  2  1  0
 22 11  1  0
 22 21  1  0
 24  2  1  0
 24  6  1  0
 24 19  1  0
 25  4  1  0
 25 16  1  0
 25 21  1  0
 25 23  1  0
 26 14  1  0
 27 14  1  0
 27 17  1  0
 27 26  1  0
M  END
$$$$

     RDKit          3D

 27 30  0  0  0  0  0  0  0  0999 V2000
  -28.4104    1.4492  137.9697 Si  0  0  0  0  0  4  0  0  0  0  0  0
  -30.6122   -0.2544  136.5337 O   0  0  0  0  0  0  0  0  0  0  0  0
  -28.0594   -0.2263  134.9095 C   0  0  0  0  0  0  0  0  0  0  0  0
  -30.1283    0.0406  138.2634 As  0  0  0  0  0  3  0  0  0  0  0  0
  -26.8140   -1.0792  135.0593 O   0  0  0  0  0  0  0  0  0  0  0  0
  -29.1257   -1.3754  135.2782 C   0  0  0  0  0  0  0  0  0  0  0  0
  -29.1791    3.0255  137.4242 C   0  0  0  0  0  0  0  0  0  0  0  0
  -31.2074   -2.7623  136.3884 N   0  0  0  0  0  0  0  0  0  0  0  0
  -29.6361    0.0301  135.5314 C   0  0  0  0  0  0  0  0  0  0  0  0
  -31.1067   -4.0333  136.8984 O   0  0  0  0  0  0  0  0  0  0  0  0
  -28.3289    3.6638  138.5769 C   0  0  0  0  0  0  0  0  0  0  0  0
  -28.8741    4.9949  138.9087 C   0  0  0  0  0  0  0  0  0  0  0  0
  -26.8079    3.3805  138.1610 C   0  0  0  0  0  0  0  0  0  0  0  0
  -28.1060   -1.8391  139.2644 C   0  0  0  0  0  0  0  0  0  0  0  0
  -26.8131    2.3631  135.7417 C   0  0  0  0  0  0  0  0  0  0  0  0
  -26.8395    2.1063  137.3193 C   0  0  0  0  0  0  0  0  0  0  0  0
  -30.6919   -1.9624  140.1613 C   0  0  0  0  0  0  0  0  0  0  0  0
  -28.7106    5.2300  140.4113 C   0  0  0  0  0  0  0  0  0  0  0  0
  -27.6115    4.2791  141.0737 C   0  0  0  0  0  0  0  0  0  0  0  0
  -28.2420    2.8779  141.0661 C   0  0  0  0  0  0  0  0  0  0  0  0
  -30.4461   -2.8578  142.6474 C   0  0  0  0  0  0  0  0  0  0  0  0
  -28.6170    2.4723  139.6063 C   0  0  0  0  0  0  0  0  0  0  0  0
  -29.6277   -1.6878  138.9557 C   0  0  0  0  0  0  0  0  0  0  0  0
  -27.6563   -3.2921  139.1024 C   0  0  0  0  0  0  0  0  0  0  0  0
  -30.1315   -1.6994  141.6798 C   0  0  0  0  0  0  0  0  0  0  0  0
  -30.3596   -2.3940  135.1518 C   0  0  0  0  0  0  0  0  0  0  0  0
  -25.9573   -0.7776  136.1824 C   0  0  0  0  0  0  0  0  0  0  0  0
  4  1  1  0
  4  2  1  0
  5  3  1  0
  6  3  1  0
  7  1  1  0
  9  2  1  0
  9  3  1  0
  9  6  1  0
 10  8  1  0
 11  7  1  0
 12 11  1  0
 13 11  1  0
 16  1  1  0
 16 13  1  0
 16 15  1  0
 18 12  1  0
 19 18  1  0
 20 19  1  0
 22  1  1  0
 22 11  1  0
 22 20  1  0
 23  4  1  0
 23 14  1  0
 23 17  1  0
 24 14  1  0
 25 17  1  0
 25 21  1  0
 26  6  1  0
 26  8  1  0
 27  5  1  0
M  END
$$$$

     RDKit          3D

 27 31  0  0  0  0  0  0  0  0999 V2000
  -28.0968  -15.5471  148.0000 O   0  0  0  0  0  0  0  0  0  0  0  0
  -29.0258  -15.8327  147.2010 C   0  0  0  0  0  0  0  0  0  0  0  0
  -29.6561  -14.7979  146.5107 O   0  0  0  0  0  0  0  0  0  0  0  0
  -29.3880  -17.2713  146.9088 C   0  0  0  0  0  0  0  0  0  0  0  0
  -29.4351  -18.1597  148.1643 C   0  0  0  0  0  0  0  0  0  0  0  0
  -28.2238  -18.8433  148.8391 C   0  0  0  0  0  0  0  0  0  0  0  0
  -28.0713  -18.4905  150.3464 C   0  0  0  0  0  0  0  0  0  0  0  0
  -28.6157  -17.8836  145.7534 C   0  0  0  0  0  0  0  0  0  0  0  0
  -27.4986  -17.3433  145.2296 C   0  0  0  0  0  0  0  0  0  0  0  0
  -27.7759  -17.0034  150.6063 C   0  0  0  0  0  0  0  0  0  0  0  0
  -27.0342  -16.7079  151.9128 C   0  0  0  0  0  0  0  0  0  0  0  0
  -27.3751  -15.3561  152.5619 C   0  0  0  0  0  0  0  0  0  0  0  0
  -30.6647  -18.4237  148.6431 C   0  0  0  0  0  0  0  0  0  0  0  0
  -26.7353  -18.0111  144.1231 C   0  0  0  0  0  0  0  0  0  0  0  0
  -26.8818  -18.6920  148.1085 C   0  0  0  0  0  0  0  0  0  0  0  0
  -26.3004  -16.6131  150.5787 C   0  0  0  0  0  0  0  0  0  0  0  0
  -26.9209  -15.3461  154.0194 C   0  0  0  0  0  0  0  0  0  0  0  0
  -27.7986  -16.0949  154.9901 C   0  0  0  0  0  0  0  0  0  0  0  0
  -28.8843  -15.2869  155.6828 C   0  0  0  0  0  0  0  0  0  0  0  0
  -30.3669  -15.2658  155.1571 C   0  0  0  0  0  0  0  0  0  0  0  0
  -30.8476  -14.0784  154.3418 C   0  0  0  0  0  0  0  0  0  0  0  0
  -30.9521  -16.5628  154.6156 C   0  0  0  0  0  0  0  0  0  0  0  0
  -30.1015  -17.8197  154.4089 C   0  0  0  0  0  0  0  0  0  0  0  0
  -29.9113  -13.0018  153.8705 C   0  0  0  0  0  0  0  0  0  0  0  0
  -30.6215  -15.4240  153.6457 C   0  0  0  0  0  0  0  0  0  0  0  0
  -29.6743  -11.9262  154.6217 C   0  0  0  0  0  0  0  0  0  0  0  0
  -27.7612  -14.5380  154.9809 C   0  0  0  0  0  0  0  0  0  0  0  0
  2  1  2  0
  3  2  1  0
  4  2  1  0
  5  4  1  0
  6  5  1  0
  7  6  1  0
  8  4  1  0
  9  8  2  3
 10  7  1  0
 11 10  1  0
 12 11  1  0
 13  5  2  0
 14  9  1  0
 15  6  1  0
 16 10  1  0
 16 11  1  0
 17 12  1  0
 18 17  1  0
 19 18  1  0
 20 19  1  0
 21 20  1  0
 22 20  1  0
 23 22  1  0
 24 21  1  0
 25 20  1  0
 25 21  1  0
 25 22  1  0
 26 24  2  0
 27 17  1  0
 27 18  1  0
 27 19  1  0
M  END
$$$$

     RDKit          3D

 27 31  0  0  0  0  0  0  0  0999 V2000
  -22.7746    0.1261  148.1355 C   0  0  0  0  0  0  0  0  0  0  0  0
  -22.5669    1.1243  146.9780 C   0  0  0  0  0  0  0  0  0  0  0  0
  -21.7477    2.9683  146.1269 N   0  0  0  0  0  0  0  0  0  0  0  0
  -23.6740    2.0279  146.8036 O   0  0  0  0  0  0  0  0  0  0  0  0
  -22.4910   -1.2991  147.8266 N   0  0  0  0  0  0  0  0  0  0  0  0
  -22.2308    3.0764  148.2314 C   0  0  0  0  0  0  0  0  0  0  0  0
  -21.4350    4.2461  148.9004 C   0  0  0  0  0  0  0  0  0  0  0  0
  -21.1207    5.6544  148.2525 C   0  0  0  0  0  0  0  0  0  0  0  0
  -21.4794    2.1494  147.2750 C   0  0  0  0  0  0  0  0  0  0  0  0
  -23.8873   -0.8135  147.9714 C   0  0  0  0  0  0  0  0  0  0  0  0
  -18.7504    6.3999  148.0761 C   0  0  0  0  0  0  0  0  0  0  0  0
  -20.0126    6.3382  145.8871 C   0  0  0  0  0  0  0  0  0  0  0  0
  -19.2092    6.3938  149.5188 C   0  0  0  0  0  0  0  0  0  0  0  0
  -21.3338    6.0552  145.1153 C   0  0  0  0  0  0  0  0  0  0  0  0
  -21.7413    7.1157  144.0595 C   0  0  0  0  0  0  0  0  0  0  0  0
  -22.2683    8.4610  144.6379 C   0  0  0  0  0  0  0  0  0  0  0  0
  -24.8309    7.9701  144.0945 C   0  0  0  0  0  0  0  0  0  0  0  0
  -19.8736    5.6690  147.2925 C   0  0  0  0  0  0  0  0  0  0  0  0
  -25.0876    6.4287  144.2962 C   0  0  0  0  0  0  0  0  0  0  0  0
  -22.9569    3.2521  146.9138 C   0  0  0  0  0  0  0  0  0  0  0  0
  -20.7137    6.6083  149.3848 C   0  0  0  0  0  0  0  0  0  0  0  0
  -25.5581    5.5723  143.0865 C   0  0  0  0  0  0  0  0  0  0  0  0
  -24.7533    4.2853  142.7913 C   0  0  0  0  0  0  0  0  0  0  0  0
  -24.6086    5.4727  141.8600 C   0  0  0  0  0  0  0  0  0  0  0  0
  -20.6692    7.3045  142.9845 C   0  0  0  0  0  0  0  0  0  0  0  0
  -24.5561    8.4096  142.6486 C   0  0  0  0  0  0  0  0  0  0  0  0
  -23.7640    8.4861  145.1065 C   0  0  0  0  0  0  0  0  0  0  0  0
  2  1  1  0
  4  2  1  0
  5  1  1  0
  7  6  1  0
  8  7  1  0
  9  2  1  0
  9  3  1  0
  9  6  1  0
 10  1  1  0
 10  5  1  0
 13 11  1  0
 14 12  1  0
 15 14  1  0
 16 15  1  0
 18  8  1  0
 18 11  1  0
 18 12  1  0
 19 17  1  0
 20  3  1  0
 20  4  1  0
 20  6  1  0
 21  8  1  0
 21 13  1  0
 22 19  1  0
 23 22  1  0
 24 22  1  0
 24 23  1  0
 25 15  1  0
 26 17  1  0
 27 16  1  0
 27 17  1  0
M  END
$$$$

     RDKit          3D

 27 32  0  0  0  0  0  0  0  0999 V2000
  -29.9882   -2.1466  143.6370 O   0  0  0  0  0  0  0  0  0  0  0  0
  -31.2724   -2.7116  143.6733 C   0  0  0  0  0  0  0  0  0  0  0  0
  -31.7886   -3.1471  142.2904 C   0  0  0  0  0  0  0  0  0  0  0  0
  -30.7109   -3.6088  141.3156 C   0  0  0  0  0  0  0  0  0  0  0  0
  -32.2907   -1.6819  144.1399 C   0  0  0  0  0  0  0  0  0  0  0  0
  -32.6324   -2.0492  141.7661 N   0  0  0  0  0  0  0  0  0  0  0  0
  -31.9822   -0.9153  141.0221 C   0  0  0  0  0  0  0  0  0  0  0  0
  -30.7217   -4.8714  140.4806 C   0  0  0  0  0  0  0  0  0  0  0  0
  -33.2936   -1.5486  142.9873 C   0  0  0  0  0  0  0  0  0  0  0  0
  -30.8878   -1.1785  139.9057 C   0  0  0  0  0  0  0  0  0  0  0  0
  -30.2154    0.0497  139.3551 C   0  0  0  0  0  0  0  0  0  0  0  0
  -30.8386   -0.1394  137.9836 C   0  0  0  0  0  0  0  0  0  0  0  0
  -30.8324   -1.3855  137.1484 C   0  0  0  0  0  0  0  0  0  0  0  0
  -31.3612   -3.6198  139.9242 C   0  0  0  0  0  0  0  0  0  0  0  0
  -30.6551   -2.5006  139.2174 C   0  0  0  0  0  0  0  0  0  0  0  0
  -27.8175   -0.5707  138.8309 C   0  0  0  0  0  0  0  0  0  0  0  0
  -28.2283    0.7956  140.8345 C   0  0  0  0  0  0  0  0  0  0  0  0
  -28.7149    0.0826  139.5917 C   0  0  0  0  0  0  0  0  0  0  0  0
  -31.7157   -1.2544  135.9345 C   0  0  0  0  0  0  0  0  0  0  0  0
  -31.5341   -1.4572  138.5072 C   0  0  0  0  0  0  0  0  0  0  0  0
  -28.7204    2.1900  140.8951 N   0  0  0  0  0  0  0  0  0  0  0  0
  -32.9761   -1.7146  135.8649 C   0  0  0  0  0  0  0  0  0  0  0  0
  -28.4882    2.7901  142.2163 C   0  0  0  0  0  0  0  0  0  0  0  0
  -28.3031    3.0510  139.7635 C   0  0  0  0  0  0  0  0  0  0  0  0
  -26.7861    3.0733  139.4485 C   0  0  0  0  0  0  0  0  0  0  0  0
  -25.9707    3.7200  140.5340 C   0  0  0  0  0  0  0  0  0  0  0  0
  -26.0130    5.0354  140.7596 C   0  0  0  0  0  0  0  0  0  0  0  0
  2  1  1  0
  3  2  1  0
  4  3  1  0
  5  2  1  0
  6  3  1  0
  7  6  1  0
  8  4  1  0
  9  5  1  0
  9  6  1  0
 10  7  1  0
 11 10  1  0
 12 11  1  0
 13 12  1  0
 14  4  1  0
 14  8  1  0
 15 10  1  0
 15 14  1  0
 18 11  1  0
 18 16  2  0
 18 17  1  0
 19 13  1  0
 20 10  1  0
 20 12  1  0
 20 13  1  0
 20 15  1  0
 21 17  1  0
 22 19  2  0
 23 21  1  0
 24 21  1  0
 25 24  1  0
 26 25  1  0
 27 26  2  0
M  END
$$$$

     RDKit          3D

 27 31  0  0  0  0  0  0  0  0999 V2000
  -22.2163   -4.8947  134.6392 C   0  0  0  0  0  0  0  0  0  0  0  0
  -20.7533   -3.7924  134.0365 C   0  0  0  0  0  0  0  0  0  0  0  0
  -20.4314   -2.9464  132.6089 C   0  0  0  0  0  0  0  0  0  0  0  0
  -20.3933   -2.2048  131.3342 C   0  0  0  0  0  0  0  0  0  0  0  0
  -19.3161   -4.3073  133.5089 C   0  0  0  0  0  0  0  0  0  0  0  0
  -21.1347   -5.3187  138.4720 C   0  0  0  0  0  0  0  0  0  0  0  0
  -22.6662   -7.0109  138.1821 C   0  0  0  0  0  0  0  0  0  0  0  0
  -18.1829   -2.0908  130.6227 C   0  0  0  0  0  0  0  0  0  0  0  0
  -19.6780   -5.9753  133.7651 C   0  0  0  0  0  0  0  0  0  0  0  0
  -18.2339   -6.6619  133.8639 C   0  0  0  0  0  0  0  0  0  0  0  0
  -15.4091   -6.8971  134.0717 C   0  0  0  0  0  0  0  0  0  0  0  0
  -16.7413   -6.0687  133.7889 C   0  0  0  0  0  0  0  0  0  0  0  0
  -17.4701   -5.8469  135.0482 C   0  0  0  0  0  0  0  0  0  0  0  0
  -19.8541   -8.7011  138.8437 C   0  0  0  0  0  0  0  0  0  0  0  0
  -18.8451   -7.5764  138.7023 C   0  0  0  0  0  0  0  0  0  0  0  0
  -21.7015   -8.6322  138.5118 C   0  0  0  0  0  0  0  0  0  0  0  0
  -22.1844   -5.6934  136.8944 C   0  0  0  0  0  0  0  0  0  0  0  0
  -19.5489   -8.1766  137.4117 C   0  0  0  0  0  0  0  0  0  0  0  0
  -19.4973   -1.1173  130.5572 C   0  0  0  0  0  0  0  0  0  0  0  0
  -19.0720   -3.1802  131.9105 C   0  0  0  0  0  0  0  0  0  0  0  0
  -19.1661  -10.0047  141.4005 Cl  0  0  0  0  0  0  0  0  0  0  0  0
  -17.4231   -8.0041  139.3243 C   0  0  0  0  0  0  0  0  0  0  0  0
  -17.5989   -9.1386  140.6555 C   0  0  0  0  0  0  0  0  0  0  0  0
  -22.1320   -4.4603  130.5727 C   0  0  0  0  0  0  0  0  0  0  0  0
  -22.4534   -4.9255  128.9698 C   0  0  0  0  0  0  0  0  0  0  0  0
  -22.7591   -4.6433  132.4534 C   0  0  0  0  0  0  0  0  0  0  0  0
  -23.1997   -4.0513  128.2622 C   0  0  0  0  0  0  0  0  0  0  0  0
  2  1  1  0
  3  2  1  0
  4  3  1  0
  5  2  1  0
  9  5  1  0
 10  9  1  0
 12 10  1  0
 12 11  1  0
 13 10  1  0
 13 12  1  0
 15 14  1  0
 16  7  1  0
 16 14  1  0
 17  1  1  0
 17  6  1  0
 17  7  1  0
 18 14  1  0
 18 15  1  0
 19  4  1  0
 19  8  1  0
 20  3  1  0
 20  4  1  0
 20  5  1  0
 20  8  1  0
 22 15  1  0
 23 21  1  0
 23 22  1  0
 25 24  1  0
 26  1  1  0
 26 24  1  0
 27 25  2  0
M  END
$$$$

     RDKit          3D

 27 31  0  0  0  0  0  0  0  0999 V2000
  -28.9233  -14.3955  136.5263 Cl  0  0  0  0  0  0  0  0  0  0  0  0
  -27.0929  -12.2928  136.4925 C   0  0  0  0  0  0  0  0  0  0  0  0
  -27.0047  -10.8466  136.6229 C   0  0  0  0  0  0  0  0  0  0  0  0
  -26.7294  -12.7373  137.9470 C   0  0  0  0  0  0  0  0  0  0  0  0
  -28.1731   -9.9072  136.6056 C   0  0  0  0  0  0  0  0  0  0  0  0
  -27.6965   -9.5107  138.0321 C   0  0  0  0  0  0  0  0  0  0  0  0
  -26.1731  -11.4670  135.6174 N   0  0  0  0  0  0  0  0  0  0  0  0
  -25.8114  -13.8970  138.1222 N   0  0  0  0  0  0  0  0  0  0  0  0
  -25.0244  -14.3410  136.9423 C   0  0  0  0  0  0  0  0  0  0  0  0
  -26.3151  -11.5775  138.7597 N   0  0  0  0  0  0  0  0  0  0  0  0
  -26.4296  -10.4015  137.9050 C   0  0  0  0  0  0  0  0  0  0  0  0
  -24.3758  -13.5386  137.9883 C   0  0  0  0  0  0  0  0  0  0  0  0
  -27.9019  -13.3729  134.2670 C   0  0  0  0  0  0  0  0  0  0  0  0
  -22.1629  -13.4765  139.1566 C   0  0  0  0  0  0  0  0  0  0  0  0
  -23.3207  -15.7118  139.0676 C   0  0  0  0  0  0  0  0  0  0  0  0
  -27.7752  -12.1715  133.3015 C   0  0  0  0  0  0  0  0  0  0  0  0
  -24.5342  -16.5040  139.5929 C   0  0  0  0  0  0  0  0  0  0  0  0
  -27.7555  -12.4560  131.7875 C   0  0  0  0  0  0  0  0  0  0  0  0
  -27.7725  -13.9030  131.2658 C   0  0  0  0  0  0  0  0  0  0  0  0
  -26.4895  -11.9462  132.4858 C   0  0  0  0  0  0  0  0  0  0  0  0
  -28.2855  -12.9373  135.6969 C   0  0  0  0  0  0  0  0  0  0  0  0
  -24.2908  -18.0213  139.5983 C   0  0  0  0  0  0  0  0  0  0  0  0
  -25.2873  -12.8927  132.6456 C   0  0  0  0  0  0  0  0  0  0  0  0
  -23.5295  -14.1744  139.1291 C   0  0  0  0  0  0  0  0  0  0  0  0
  -24.2319  -18.6154  138.1827 C   0  0  0  0  0  0  0  0  0  0  0  0
  -24.1690  -20.1446  138.2287 C   0  0  0  0  0  0  0  0  0  0  0  0
  -24.0238  -20.6823  136.8788 N   0  0  0  0  0  0  0  0  0  0  0  0
  3  2  1  0
  4  2  1  0
  5  3  1  0
  6  5  1  0
  7  2  1  0
  7  3  1  0
  8  4  1  0
  9  8  1  0
 10  4  1  0
 11  3  1  0
 11  6  1  0
 11 10  1  0
 12  8  1  0
 12  9  1  0
 16 13  1  0
 17 15  1  0
 18 16  1  0
 19 18  1  0
 20 16  1  0
 20 18  1  0
 21  1  1  0
 21  2  1  0
 21 13  1  0
 22 17  1  0
 23 20  1  0
 24 12  1  0
 24 14  1  0
 24 15  1  0
 25 22  1  0
 26 25  1  0
 27 26  1  0
M  END
$$$$

     RDKit          3D

 26 34  0  0  0  0  0  0  0  0999 V2000
  -22.2409   -0.8741  141.6036 O   0  0  0  0  0  0  0  0  0  0  0  0
  -21.9088   -2.2285  141.8012 C   0  0  0  0  0  0  0  0  0  0  0  0
  -20.7525   -2.4870  142.7344 C   0  0  0  0  0  0  0  0  0  0  0  0
  -23.1816   -2.9971  142.1465 C   0  0  0  0  0  0  0  0  0  0  0  0
  -21.3802   -1.0950  142.6892 C   0  0  0  0  0  0  0  0  0  0  0  0
  -23.0675   -4.3577  141.6511 C   0  0  0  0  0  0  0  0  0  0  0  0
  -23.8852   -3.4131  140.9051 N   0  0  0  0  0  0  0  0  0  0  0  0
  -24.5179   -4.7118  141.2523 C   0  0  0  0  0  0  0  0  0  0  0  0
  -23.7458   -5.5651  142.2867 C   0  0  0  0  0  0  0  0  0  0  0  0
  -25.6227   -4.2910  141.9513 F   0  0  0  0  0  0  0  0  0  0  0  0
  -22.0457   -0.7488  144.0291 C   0  0  0  0  0  0  0  0  0  0  0  0
  -21.0110    0.0851  144.8181 C   0  0  0  0  0  0  0  0  0  0  0  0
  -19.9399   -0.7928  145.4950 C   0  0  0  0  0  0  0  0  0  0  0  0
  -19.6490   -0.4652  146.9729 C   0  0  0  0  0  0  0  0  0  0  0  0
  -20.6140    1.5053  144.2436 C   0  0  0  0  0  0  0  0  0  0  0  0
  -24.2472   -7.4641  140.9095 F   0  0  0  0  0  0  0  0  0  0  0  0
  -21.7743   -0.8049  147.2359 C   0  0  0  0  0  0  0  0  0  0  0  0
  -20.5047   -1.2420  147.9530 C   0  0  0  0  0  0  0  0  0  0  0  0
  -24.0814   -5.4851  143.8244 C   0  0  0  0  0  0  0  0  0  0  0  0
  -19.0980    1.8686  144.2774 C   0  0  0  0  0  0  0  0  0  0  0  0
  -23.2755   -6.9203  141.7207 C   0  0  0  0  0  0  0  0  0  0  0  0
  -18.5460    3.2138  144.7194 C   0  0  0  0  0  0  0  0  0  0  0  0
  -20.8957    0.0716  146.3273 C   0  0  0  0  0  0  0  0  0  0  0  0
  -17.1575    3.5106  144.3523 N   0  0  0  0  0  0  0  0  0  0  0  0
  -19.2436    4.3106  145.4516 N   0  0  0  0  0  0  0  0  0  0  0  0
  -18.5799    2.1067  145.5646 O   0  0  0  0  0  0  0  0  0  0  0  0
  2  1  1  0
  3  2  1  0
  4  2  1  0
  5  1  1  0
  5  2  1  0
  5  3  1  0
  6  4  1  0
  7  4  1  0
  7  6  1  0
  8  6  1  0
  8  7  1  0
  9  6  1  0
  9  8  1  0
 10  8  1  0
 11  5  1  0
 12 11  1  0
 13 12  1  0
 14 13  1  0
 15 12  1  0
 18 14  1  0
 18 17  1  0
 19  9  1  0
 20 15  1  0
 21  9  1  0
 21 16  1  0
 22 20  1  0
 23 12  1  0
 23 13  1  0
 23 14  1  0
 23 17  1  0
 24 22  1  0
 25 22  1  0
 26 20  1  0
 26 22  1  0
M  END
$$$$

     RDKit          3D

 11 16  0  0  0  0  0  0  0  0999 V2000
  -24.2805  -17.4796  145.9806 F   0  0  0  0  0  0  0  0  0  0  0  0
  -23.8167  -18.6265  146.5997 C   0  0  0  0  0  0  0  0  0  0  0  0
  -24.1888  -19.8746  145.8496 C   0  0  0  0  0  0  0  0  0  0  0  0
  -24.6682  -21.0387  146.7610 C   0  0  0  0  0  0  0  0  0  0  0  0
  -22.3556  -18.7305  147.0101 C   0  0  0  0  0  0  0  0  0  0  0  0
  -21.8026  -19.9654  146.4333 N   0  0  0  0  0  0  0  0  0  0  0  0
  -22.9127  -20.5848  145.7379 C   0  0  0  0  0  0  0  0  0  0  0  0
  -24.0964  -21.6634  147.9390 N   0  0  0  0  0  0  0  0  0  0  0  0
  -21.8710  -21.1021  147.3444 C   0  0  0  0  0  0  0  0  0  0  0  0
  -23.2035  -21.6845  146.7576 C   0  0  0  0  0  0  0  0  0  0  0  0
  -24.8293  -19.5724  147.1845 C   0  0  0  0  0  0  0  0  0  0  0  0
  2  1  1  0
  3  2  1  0
  4  3  1  0
  5  2  1  0
  6  5  1  0
  7  3  1  0
  7  6  1  0
  8  4  1  0
  9  6  1  0
 10  4  1  0
 10  7  1  0
 10  8  1  0
 10  9  1  0
 11  2  1  0
 11  3  1  0
 11  4  1  0
M  END
$$$$

     RDKit          3D

 20 22  0  0  0  0  0  0  0  0999 V2000
  -23.4314  -11.0113  151.5374 C   0  0  0  0  0  0  0  0  0  0  0  0
  -24.5530  -10.5415  152.2442 O   0  0  0  0  0  0  0  0  0  0  0  0
  -24.7138  -12.8914  150.4373 C   0  0  0  0  0  0  0  0  0  0  0  0
  -24.5409  -10.6321  149.2530 C   0  0  0  0  0  0  0  0  0  0  0  0
  -24.0325  -10.5167  147.7957 C   0  0  0  0  0  0  0  0  0  0  0  0
  -22.7682   -9.9723  147.6469 C   0  0  0  0  0  0  0  0  0  0  0  0
  -23.8305  -11.6543  150.1896 C   0  0  0  0  0  0  0  0  0  0  0  0
  -22.6172   -9.2256  146.4550 O   0  0  0  0  0  0  0  0  0  0  0  0
  -22.9305  -11.4389  147.3641 N   0  0  0  0  0  0  0  0  0  0  0  0
  -21.4461   -8.4218  146.4978 C   0  0  0  0  0  0  0  0  0  0  0  0
  -22.5193  -12.6480  146.7154 C   0  0  0  0  0  0  0  0  0  0  0  0
  -21.7684  -12.5617  145.4156 C   0  0  0  0  0  0  0  0  0  0  0  0
  -20.2858   -9.1548  145.8165 C   0  0  0  0  0  0  0  0  0  0  0  0
  -19.2487   -8.3144  145.0820 C   0  0  0  0  0  0  0  0  0  0  0  0
  -22.7171  -12.3179  144.2254 C   0  0  0  0  0  0  0  0  0  0  0  0
  -22.3878  -11.0442  143.4142 C   0  0  0  0  0  0  0  0  0  0  0  0
  -22.8717  -13.8399  147.2068 C   0  0  0  0  0  0  0  0  0  0  0  0
  -20.3229   -9.0577  144.2944 C   0  0  0  0  0  0  0  0  0  0  0  0
  -20.9799  -11.0329  142.7598 C   0  0  0  0  0  0  0  0  0  0  0  0
  -19.8473  -10.3196  143.5417 C   0  0  0  0  0  0  0  0  0  0  0  0
  2  1  1  0
  5  4  1  0
  6  5  1  0
  7  1  1  0
  7  3  1  0
  7  4  1  0
  8  6  1  0
  9  5  1  0
  9  6  1  0
 10  8  1  0
 11  9  1  0
 12 11  1  0
 13 10  1  0
 14 13  1  0
 15 12  1  0
 16 15  1  0
 17 11  2  0
 18 13  1  0
 18 14  1  0
 19 16  1  0
 20 18  1  0
 20 19  1  0
M  END
$$$$

     RDKit          3D

 26 32  0  0  0  0  0  0  0  0999 V2000
  -29.4728  -12.5058  147.7908 C   0  0  0  0  0  0  0  0  0  0  0  0
  -27.1568  -12.9740  147.0958 C   0  0  0  0  0  0  0  0  0  0  0  0
  -28.5332  -11.9998  148.8541 C   0  0  0  0  0  0  0  0  0  0  0  0
  -27.1690  -12.6569  148.5942 C   0  0  0  0  0  0  0  0  0  0  0  0
  -28.5945  -12.7765  146.5730 C   0  0  0  0  0  0  0  0  0  0  0  0
  -28.6554  -11.6332  145.5418 C   0  0  0  0  0  0  0  0  0  0  0  0
  -24.6654  -10.8872  147.3238 C   0  0  0  0  0  0  0  0  0  0  0  0
  -25.1636   -9.4417  147.5111 C   0  0  0  0  0  0  0  0  0  0  0  0
  -24.5898   -8.3471  146.5201 C   0  0  0  0  0  0  0  0  0  0  0  0
  -23.3978  -11.1247  146.4558 C   0  0  0  0  0  0  0  0  0  0  0  0
  -23.4521  -10.1095  145.3395 C   0  0  0  0  0  0  0  0  0  0  0  0
  -24.5685  -11.6210  148.6262 C   0  0  0  0  0  0  0  0  0  0  0  0
  -23.1657   -8.7423  146.0347 C   0  0  0  0  0  0  0  0  0  0  0  0
  -24.3419  -10.1138  148.6216 C   0  0  0  0  0  0  0  0  0  0  0  0
  -24.5323   -6.9002  147.1426 C   0  0  0  0  0  0  0  0  0  0  0  0
  -25.7594   -6.3508  147.9345 C   0  0  0  0  0  0  0  0  0  0  0  0
  -27.3785   -7.2254  149.0644 C   0  0  0  0  0  0  0  0  0  0  0  0
  -24.9624  -12.3928  149.8853 C   0  0  0  0  0  0  0  0  0  0  0  0
  -22.3391   -9.2519  144.8440 C   0  0  0  0  0  0  0  0  0  0  0  0
  -24.1980   -5.8675  146.0514 C   0  0  0  0  0  0  0  0  0  0  0  0
  -25.9159   -6.8780  149.3654 C   0  0  0  0  0  0  0  0  0  0  0  0
  -26.0478  -11.7058  149.1421 C   0  0  0  0  0  0  0  0  0  0  0  0
  -27.1776   -6.8170  147.5980 C   0  0  0  0  0  0  0  0  0  0  0  0
  -21.8881   -9.5785  142.4098 C   0  0  0  0  0  0  0  0  0  0  0  0
  -23.8646   -8.1464  142.9979 C   0  0  0  0  0  0  0  0  0  0  0  0
  -22.4657   -8.6122  143.4467 C   0  0  0  0  0  0  0  0  0  0  0  0
  3  1  1  0
  4  2  1  0
  4  3  1  0
  5  1  1  0
  5  2  1  0
  6  5  1  0
  8  7  1  0
  9  8  1  0
 10  7  1  0
 11 10  1  0
 12  7  1  0
 13  9  1  0
 13 11  1  0
 14  7  1  0
 14  8  1  0
 14 12  1  0
 15  9  1  0
 16 15  1  0
 18 12  1  0
 19 11  1  0
 19 13  1  0
 20 15  1  0
 21 16  1  0
 21 17  1  0
 22  4  1  0
 22 12  1  0
 22 18  1  0
 23 16  1  0
 23 17  1  0
 26 19  1  0
 26 24  1  0
 26 25  1  0
M  END
$$$$

     RDKit          3D

 27 31  0  0  0  0  0  0  0  0999 V2000
  -25.7250  -17.1093  150.6034 C   0  0  0  0  0  0  0  0  0  0  0  0
  -27.6962  -18.8901  151.8347 C   0  0  0  0  0  0  0  0  0  0  0  0
  -29.0808  -19.6210  152.1940 C   0  0  0  0  0  0  0  0  0  0  0  0
  -24.3260  -16.8476  151.6375 C   0  0  0  0  0  0  0  0  0  0  0  0
  -25.9338  -19.6553  150.2100 C   0  0  0  0  0  0  0  0  0  0  0  0
  -30.8050  -17.5374  152.8414 C   0  0  0  0  0  0  0  0  0  0  0  0
  -26.8179  -18.3690  150.5834 C   0  0  0  0  0  0  0  0  0  0  0  0
  -31.1277  -16.3936  151.8269 C   0  0  0  0  0  0  0  0  0  0  0  0
  -28.1001  -18.1551  149.5006 C   0  0  0  0  0  0  0  0  0  0  0  0
  -23.4593  -13.9281  152.0966 C   0  0  0  0  0  0  0  0  0  0  0  0
  -28.3512  -19.9521  150.9944 N   0  0  0  0  0  0  0  0  0  0  0  0
  -29.8968  -15.7331  151.0765 C   0  0  0  0  0  0  0  0  0  0  0  0
  -28.8196  -19.4011  149.7007 C   0  0  0  0  0  0  0  0  0  0  0  0
  -26.8351  -15.5083  149.2728 Sb  0  0  0  0  0  3  0  0  0  0  0  0
  -23.6754  -13.1181  150.6799 C   0  0  0  0  0  0  0  0  0  0  0  0
  -32.4681  -16.6548  151.1362 C   0  0  0  0  0  0  0  0  0  0  0  0
  -29.5302  -15.0053  149.3747 S   0  0  0  0  0  0  0  0  0  0  0  0
  -26.1279  -10.7611  151.2782 C   0  0  0  0  0  0  0  0  0  0  0  0
  -32.3525  -17.8399  150.2346 C   0  0  0  0  0  0  0  0  0  0  0  0
  -30.5884  -18.9301  152.1192 C   0  0  0  0  0  0  0  0  0  0  0  0
  -24.9199  -12.6593  149.7459 C   0  0  0  0  0  0  0  0  0  0  0  0
  -31.6716  -19.0875  150.9588 C   0  0  0  0  0  0  0  0  0  0  0  0
  -28.0711  -13.7122  152.0618 C   0  0  0  0  0  0  0  0  0  0  0  0
  -26.3532  -11.8645  152.2614 C   0  0  0  0  0  0  0  0  0  0  0  0
  -23.9924  -15.4584  152.5372 C   0  0  0  0  0  0  0  0  0  0  0  0
  -26.1707  -11.8256  150.1156 C   0  0  0  0  0  0  0  0  0  0  0  0
  -26.9319  -12.8114  151.2104 C   0  0  0  0  0  0  0  0  0  0  0  0
  3  2  1  0
  4  1  1  0
  7  1  1  0
  7  2  1  0
  7  5  1  0
  8  6  1  0
  9  7  1  0
 11  2  1  0
 11  3  1  0
 12  8  1  0
 13  9  1  0
 13 11  1  0
 14  1  1  0
 15 10  1  0
 16  8  1  0
 17 12  1  0
 17 14  1  0
 19 16  1  0
 20  3  1  0
 20  6  1  0
 21 15  1  0
 22 19  1  0
 22 20  1  0
 24 18  1  0
 25  4  1  0
 25 10  1  0
 26 18  1  0
 26 21  1  0
 27 23  1  0
 27 24  1  0
 27 26  1  0
M  END
$$$$

     RDKit          3D

 27 32  0  0  0  0  0  0  0  0999 V2000
  -24.3974  -18.3496  137.5515 O   0  0  0  0  0  0  0  0  0  0  0  0
  -25.1296  -18.9511  138.5983 C   0  0  0  0  0  0  0  0  0  0  0  0
  -24.1723  -19.4121  139.7060 C   0  0  0  0  0  0  0  0  0  0  0  0
  -25.2720  -17.5053  138.2609 C   0  0  0  0  0  0  0  0  0  0  0  0
  -24.5109  -16.4491  139.0767 C   0  0  0  0  0  0  0  0  0  0  0  0
  -24.6113  -19.1279  141.1408 C   0  0  0  0  0  0  0  0  0  0  0  0
  -24.7728  -20.5249  140.5603 C   0  0  0  0  0  0  0  0  0  0  0  0
  -24.0077  -15.2967  138.2006 C   0  0  0  0  0  0  0  0  0  0  0  0
  -25.1571  -14.4262  137.6627 C   0  0  0  0  0  0  0  0  0  0  0  0
  -24.7787  -13.1012  136.9830 C   0  0  0  0  0  0  0  0  0  0  0  0
  -25.7180  -11.9794  137.4006 C   0  0  0  0  0  0  0  0  0  0  0  0
  -26.5405  -11.6349  136.1568 C   0  0  0  0  0  0  0  0  0  0  0  0
  -23.3042  -12.6637  137.0218 C   0  0  0  0  0  0  0  0  0  0  0  0
  -23.5031  -19.0451  142.2027 C   0  0  0  0  0  0  0  0  0  0  0  0
  -27.2628  -12.3590  135.2642 C   0  0  0  0  0  0  0  0  0  0  0  0
  -23.1173  -17.5873  142.4900 C   0  0  0  0  0  0  0  0  0  0  0  0
  -22.1630  -17.1103  141.5703 O   0  0  0  0  0  0  0  0  0  0  0  0
  -26.7199  -12.4983  138.4323 C   0  0  0  0  0  0  0  0  0  0  0  0
  -21.2216  -16.9257  142.6019 C   0  0  0  0  0  0  0  0  0  0  0  0
  -22.1688  -17.4327  143.6607 C   0  0  0  0  0  0  0  0  0  0  0  0
  -26.4734  -14.6521  134.5233 C   0  0  0  0  0  0  0  0  0  0  0  0
  -26.7015  -14.7638  132.9983 C   0  0  0  0  0  0  0  0  0  0  0  0
  -25.3491  -13.1130  138.3882 C   0  0  0  0  0  0  0  0  0  0  0  0
  -25.3998  -15.0804  132.2946 C   0  0  0  0  0  0  0  0  0  0  0  0
  -27.5629  -13.8332  135.2463 C   0  0  0  0  0  0  0  0  0  0  0  0
  -25.2777  -14.9643  130.9698 C   0  0  0  0  0  0  0  0  0  0  0  0
  -27.6741  -15.8235  132.7112 N   0  0  0  0  0  0  0  0  0  0  0  0
  2  1  1  0
  3  2  1  0
  4  1  1  0
  4  2  1  0
  5  4  1  0
  6  3  1  0
  7  3  1  0
  7  6  1  0
  8  5  1  0
  9  8  1  0
 10  9  1  0
 11 10  1  0
 12 11  1  0
 13 10  1  0
 14  6  1  0
 15 12  2  3
 16 14  1  0
 17 16  1  0
 18 11  1  0
 19 17  1  0
 20 16  1  0
 20 19  1  0
 22 21  1  0
 23  9  1  0
 23 10  1  0
 23 11  1  0
 23 18  1  0
 24 22  1  0
 25 15  1  0
 25 21  1  0
 26 24  2  0
 27 22  1  0
M  END
$$$$

     RDKit          3D

 27 30  0  0  0  0  0  0  0  0999 V2000
  -26.9714   -5.2423  147.4212 C   0  0  0  0  0  0  0  0  0  0  0  0
  -28.1817   -4.8413  146.5284 N   0  0  0  0  0  0  0  0  0  0  0  0
  -27.8999   -4.2989  145.1846 C   0  0  0  0  0  0  0  0  0  0  0  0
  -26.6511   -3.2871  145.1807 C   0  0  0  0  0  0  0  0  0  0  0  0
  -29.2530   -3.9404  144.3168 C   0  0  0  0  0  0  0  0  0  0  0  0
  -25.0612   -7.0920  148.0607 C   0  0  0  0  0  0  0  0  0  0  0  0
  -25.3189   -7.3188  149.6048 C   0  0  0  0  0  0  0  0  0  0  0  0
  -24.2162   -8.0527  150.4821 C   0  0  0  0  0  0  0  0  0  0  0  0
  -30.5766   -3.7781  145.1187 C   0  0  0  0  0  0  0  0  0  0  0  0
  -29.2531   -3.2435  142.8205 C   0  0  0  0  0  0  0  0  0  0  0  0
  -26.4120   -6.7397  147.2505 C   0  0  0  0  0  0  0  0  0  0  0  0
  -30.4448   -2.3004  142.4360 C   0  0  0  0  0  0  0  0  0  0  0  0
  -31.8806   -4.6301  144.6860 C   0  0  0  0  0  0  0  0  0  0  0  0
  -31.8651   -1.8942  143.0504 C   0  0  0  0  0  0  0  0  0  0  0  0
  -24.9274   -8.9863  151.4981 C   0  0  0  0  0  0  0  0  0  0  0  0
  -33.2210   -3.9352  144.0771 C   0  0  0  0  0  0  0  0  0  0  0  0
  -26.9733   -5.3028  144.4072 C   0  0  0  0  0  0  0  0  0  0  0  0
  -27.7053   -2.3106  142.3042 S   0  0  0  0  0  0  0  0  0  0  0  0
  -24.0015   -9.6409  150.4598 C   0  0  0  0  0  0  0  0  0  0  0  0
  -24.5941  -10.4488  149.3578 N   0  0  0  0  0  0  0  0  0  0  0  0
  -27.9048   -0.8304  143.3760 C   0  0  0  0  0  0  0  0  0  0  0  0
  -25.7474   -4.4048  144.6110 C   0  0  0  0  0  0  0  0  0  0  0  0
  -22.9455   -8.6411  149.8783 C   0  0  0  0  0  0  0  0  0  0  0  0
  -31.9210   -0.8699  144.3212 C   0  0  0  0  0  0  0  0  0  0  0  0
  -32.8971   -2.9981  142.8735 C   0  0  0  0  0  0  0  0  0  0  0  0
  -32.3688    0.5856  143.9284 C   0  0  0  0  0  0  0  0  0  0  0  0
  -33.4931    0.8548  143.1936 C   0  0  0  0  0  0  0  0  0  0  0  0
  2  1  1  0
  3  2  1  0
  4  3  1  0
  5  3  1  0
  7  6  1  0
  8  7  1  0
  9  5  1  0
 10  5  1  0
 11  1  1  0
 11  6  1  0
 12 10  1  0
 13  9  1  0
 14 12  1  0
 15  8  1  0
 16 13  1  0
 17  3  1  0
 18 10  1  0
 19  8  1  0
 19 15  1  0
 20 19  1  0
 21 18  1  0
 22  4  1  0
 22 17  1  0
 23  8  1  0
 23 19  1  0
 24 14  1  0
 25 14  1  0
 25 16  1  0
 26 24  1  0
 27 26  2  0
M  END
$$$$

     RDKit          3D

 26 31  0  0  0  0  0  0  0  0999 V2000
  -20.4684   -9.6806  140.5568 Mg  0  0  0  0  0  2  0  0  0  0  0  0
  -22.4857   -2.2096  139.3395 C   0  0  0  0  0  0  0  0  0  0  0  0
  -22.6284   -1.6994  140.8809 C   0  0  0  0  0  0  0  0  0  0  0  0
  -25.2114   -2.8199  141.5900 C   0  0  0  0  0  0  0  0  0  0  0  0
  -23.0448   -3.5022  138.6775 C   0  0  0  0  0  0  0  0  0  0  0  0
  -24.4643   -2.7002  136.3867 C   0  0  0  0  0  0  0  0  0  0  0  0
  -20.4050   -8.6196  138.5167 C   0  0  0  0  0  0  0  0  0  0  0  0
  -23.7330   -2.8534  140.8944 C   0  0  0  0  0  0  0  0  0  0  0  0
  -25.7374   -1.9866  137.0700 C   0  0  0  0  0  0  0  0  0  0  0  0
  -23.1616   -3.2910  137.0960 C   0  0  0  0  0  0  0  0  0  0  0  0
  -23.9185   -2.6854  139.4479 N   0  0  0  0  0  0  0  0  0  0  0  0
  -20.7312   -7.5083  140.6725 C   0  0  0  0  0  0  0  0  0  0  0  0
  -27.0004   -2.9345  137.0371 C   0  0  0  0  0  0  0  0  0  0  0  0
  -28.3141   -2.1932  137.0883 C   0  0  0  0  0  0  0  0  0  0  0  0
  -21.4470   -7.4602  138.3044 C   0  0  0  0  0  0  0  0  0  0  0  0
  -20.2613   -7.2257  139.1920 C   0  0  0  0  0  0  0  0  0  0  0  0
  -22.7633   -4.5639  136.2857 C   0  0  0  0  0  0  0  0  0  0  0  0
  -21.6970   -6.8651  136.8773 C   0  0  0  0  0  0  0  0  0  0  0  0
  -28.6417   -1.3616  138.1222 C   0  0  0  0  0  0  0  0  0  0  0  0
  -22.2454   -7.5190  140.6365 C   0  0  0  0  0  0  0  0  0  0  0  0
  -22.7545   -7.5017  139.1919 C   0  0  0  0  0  0  0  0  0  0  0  0
  -20.7284   -6.1344  135.8756 C   0  0  0  0  0  0  0  0  0  0  0  0
  -23.6930   -8.7119  138.7832 C   0  0  0  0  0  0  0  0  0  0  0  0
  -21.5286   -5.3411  136.9122 C   0  0  0  0  0  0  0  0  0  0  0  0
  -24.6597   -9.2306  139.9501 C   0  0  0  0  0  0  0  0  0  0  0  0
  -23.0219   -9.9060  138.1826 C   0  0  0  0  0  0  0  0  0  0  0  0
  3  2  1  0
  5  2  1  0
  7  1  1  0
  8  3  1  0
  8  4  1  0
  9  6  1  0
 10  5  1  0
 10  6  1  0
 11  2  1  0
 11  5  1  0
 11  8  1  0
 12  1  1  0
 13  9  1  0
 14 13  1  0
 15  7  1  0
 16  7  1  0
 16 12  1  0
 16 15  1  0
 17 10  1  0
 18 15  1  0
 19 14  2  0
 20 12  1  0
 21 15  1  0
 21 20  1  0
 22 18  1  0
 23 21  1  0
 24 17  1  0
 24 18  1  0
 24 22  1  0
 25 23  1  0
 26 23  1  0
M  END
$$$$

     RDKit          3D

 27 31  0  0  0  0  0  0  0  0999 V2000
  -26.2778    0.0564  135.8022 O   0  0  0  0  0  0  0  0  0  0  0  0
  -25.3566    1.1163  135.8663 C   0  0  0  0  0  0  0  0  0  0  0  0
  -23.9084    0.5762  135.6276 C   0  0  0  0  0  0  0  0  0  0  0  0
  -23.3980    0.4451  134.1727 C   0  0  0  0  0  0  0  0  0  0  0  0
  -25.8754    2.2764  134.9693 C   0  0  0  0  0  0  0  0  0  0  0  0
  -23.7440    1.4692  133.2853 O   0  0  0  0  0  0  0  0  0  0  0  0
  -26.6437    3.4144  135.6733 C   0  0  0  0  0  0  0  0  0  0  0  0
  -22.9958   -0.8840  133.5069 C   0  0  0  0  0  0  0  0  0  0  0  0
  -23.2732   -2.1681  134.3159 C   0  0  0  0  0  0  0  0  0  0  0  0
  -21.9145    0.0628  133.9982 C   0  0  0  0  0  0  0  0  0  0  0  0
  -26.4707    3.7174  137.1593 C   0  0  0  0  0  0  0  0  0  0  0  0
  -24.6488   -2.6857  134.2990 C   0  0  0  0  0  0  0  0  0  0  0  0
  -25.3106    3.6999  134.9827 C   0  0  0  0  0  0  0  0  0  0  0  0
  -25.0792    4.3467  137.3429 C   0  0  0  0  0  0  0  0  0  0  0  0
  -23.6331   -3.3138  133.4416 N   0  0  0  0  0  0  0  0  0  0  0  0
  -24.2477    3.9766  138.6215 C   0  0  0  0  0  0  0  0  0  0  0  0
  -24.2972    4.0896  136.0515 C   0  0  0  0  0  0  0  0  0  0  0  0
  -24.9083    3.0216  139.6323 C   0  0  0  0  0  0  0  0  0  0  0  0
  -24.1472    2.8588  140.9804 C   0  0  0  0  0  0  0  0  0  0  0  0
  -21.9899    1.7299  140.1421 C   0  0  0  0  0  0  0  0  0  0  0  0
  -20.4571    1.9240  139.9846 C   0  0  0  0  0  0  0  0  0  0  0  0
  -21.0171   -0.4065  135.1593 C   0  0  0  0  0  0  0  0  0  0  0  0
  -21.5226   -1.5229  136.0993 C   0  0  0  0  0  0  0  0  0  0  0  0
  -22.2557   -2.6639  135.3651 C   0  0  0  0  0  0  0  0  0  0  0  0
  -22.6200    2.9068  140.9219 C   0  0  0  0  0  0  0  0  0  0  0  0
  -19.9737    1.3575  138.6372 C   0  0  0  0  0  0  0  0  0  0  0  0
  -19.6870    1.2943  141.1557 C   0  0  0  0  0  0  0  0  0  0  0  0
  2  1  1  0
  3  2  1  0
  4  3  1  0
  5  2  1  0
  6  4  1  0
  7  5  1  0
  8  4  1  0
  9  8  1  0
 10  4  1  0
 10  8  1  0
 11  7  1  0
 12  9  1  0
 13  5  1  0
 13  7  1  0
 14 11  1  0
 15  9  1  0
 15 12  1  0
 16 14  1  0
 17 13  1  0
 17 14  1  0
 18 16  1  0
 19 18  1  0
 21 20  1  0
 22 10  1  0
 23 22  1  0
 24  9  1  0
 24 23  1  0
 25 19  1  0
 25 20  1  0
 26 21  1  0
 27 21  1  0
M  END
$$$$

     RDKit          3D

 27 31  0  0  0  0  0  0  0  0999 V2000
  -29.3151  -20.1376  149.5085 N   0  0  0  0  0  0  0  0  0  0  0  0
  -28.9471  -19.3664  150.4936 C   0  0  0  0  0  0  0  0  0  0  0  0
  -29.8963  -19.1083  151.5382 N   0  0  0  0  0  0  0  0  0  0  0  0
  -27.6304  -18.7860  150.5495 N   0  0  0  0  0  0  0  0  0  0  0  0
  -27.9435  -16.8429  149.0738 C   0  0  0  0  0  0  0  0  0  0  0  0
  -27.7511  -16.4119  147.6864 N   0  0  0  0  0  0  0  0  0  0  0  0
  -28.9143  -16.7767  146.8850 C   0  0  0  0  0  0  0  0  0  0  0  0
  -29.5237  -18.9629  152.9473 C   0  0  0  0  0  0  0  0  0  0  0  0
  -28.6643  -16.6897  145.4290 N   0  0  0  0  0  0  0  0  0  0  0  0
  -29.1883  -15.3677  145.3635 N   0  0  0  0  0  0  0  0  0  0  0  0
  -27.1022  -17.9990  149.4443 C   0  0  0  0  0  0  0  0  0  0  0  0
  -28.1790  -16.8039  153.2880 C   0  0  0  0  0  0  0  0  0  0  0  0
  -26.7712  -16.6895  149.8421 O   0  0  0  0  0  0  0  0  0  0  0  0
  -28.0944  -14.9939  147.5380 C   0  0  0  0  0  0  0  0  0  0  0  0
  -28.0605  -15.5990  154.2540 C   0  0  0  0  0  0  0  0  0  0  0  0
  -27.9414  -16.0924  155.6842 C   0  0  0  0  0  0  0  0  0  0  0  0
  -29.4168  -14.3619  147.8768 C   0  0  0  0  0  0  0  0  0  0  0  0
  -29.6284  -12.9389  147.3663 C   0  0  0  0  0  0  0  0  0  0  0  0
  -29.5511  -17.4952  153.3957 C   0  0  0  0  0  0  0  0  0  0  0  0
  -29.4415  -15.4120  146.7973 C   0  0  0  0  0  0  0  0  0  0  0  0
  -28.4756  -20.5738  148.3966 C   0  0  0  0  0  0  0  0  0  0  0  0
  -26.8435  -14.7055  153.9019 C   0  0  0  0  0  0  0  0  0  0  0  0
  -27.0823  -13.8819  152.6212 C   0  0  0  0  0  0  0  0  0  0  0  0
  -27.9403  -12.6331  152.8092 C   0  0  0  0  0  0  0  0  0  0  0  0
  -28.0865  -15.2738  156.7331 C   0  0  0  0  0  0  0  0  0  0  0  0
  -26.4553  -12.4892  152.4834 C   0  0  0  0  0  0  0  0  0  0  0  0
  -25.5849  -11.9237  153.6144 C   0  0  0  0  0  0  0  0  0  0  0  0
  2  1  2  3
  3  2  1  0
  4  2  1  0
  6  5  1  0
  7  6  1  0
  8  3  1  0
  9  7  1  0
 10  9  1  0
 11  4  1  0
 11  5  1  0
 13  5  1  0
 13 11  1  0
 14  6  1  0
 15 12  1  0
 16 15  1  0
 17 14  1  0
 18 17  1  0
 19  8  1  0
 19 12  1  0
 20  7  1  0
 20 10  1  0
 20 14  1  0
 20 17  1  0
 21  1  1  0
 22 15  1  0
 23 22  1  0
 24 23  1  0
 25 16  2  0
 26 23  1  0
 26 24  1  0
 27 26  1  0
M  END
$$$$

     RDKit          3D

 27 31  0  0  0  0  0  0  0  0999 V2000
  -25.0524   -4.7752  131.6816 C   0  0  0  0  0  0  0  0  0  0  0  0
  -25.7270   -4.6827  130.4588 C   0  0  0  0  0  0  0  0  0  0  0  0
  -25.3856   -3.6695  129.5480 C   0  0  0  0  0  0  0  0  0  0  0  0
  -25.8459   -3.7271  128.2359 C   0  0  0  0  0  0  0  0  0  0  0  0
  -26.0812   -4.9673  132.6293 C   0  0  0  0  0  0  0  0  0  0  0  0
  -26.7592   -2.8516  127.7375 N   0  0  0  0  0  0  0  0  0  0  0  0
  -26.5703   -3.5223  130.2999 C   0  0  0  0  0  0  0  0  0  0  0  0
  -25.1814   -4.4820  127.3162 N   0  0  0  0  0  0  0  0  0  0  0  0
  -27.7419   -3.2248  126.7496 C   0  0  0  0  0  0  0  0  0  0  0  0
  -27.8541   -4.1283  129.9856 C   0  0  0  0  0  0  0  0  0  0  0  0
  -27.8736   -4.4911  126.5451 N   0  0  0  0  0  0  0  0  0  0  0  0
  -29.0242   -4.9427  125.9307 C   0  0  0  0  0  0  0  0  0  0  0  0
  -29.1804   -5.2701  124.6924 N   0  0  0  0  0  2  0  0  0  0  0  0
  -28.4528   -2.3498  126.0277 N   0  0  0  0  0  0  0  0  0  0  0  0
  -24.5218   -3.4636  131.7625 C   0  0  0  0  0  0  0  0  0  0  0  0
  -29.5080   -4.2242  123.9103 C   0  0  0  0  0  0  0  0  0  0  0  0
  -23.6943   -3.0690  130.7112 C   0  0  0  0  0  0  0  0  0  0  0  0
  -29.5277   -4.2974  123.8636 C   0  0  0  0  0  0  0  0  0  0  0  0
  -30.5811   -4.5680  123.1863 N   0  0  0  0  0  0  0  0  0  0  0  0
  -22.8914   -1.8730  130.6770 C   0  0  0  0  0  0  0  0  0  0  0  0
  -29.0694   -4.2330  125.1926 N   0  0  0  0  0  2  0  0  0  0  0  0
  -28.8728   -5.2922  127.2642 C   0  0  0  0  0  0  0  0  0  0  0  0
  -24.6732   -4.9531  132.3958 C   0  0  0  0  0  0  0  0  0  0  0  0
  -28.3446   -4.4239  128.7034 C   0  0  0  0  0  0  0  0  0  0  0  0
  -21.8522   -1.7503  131.4649 C   0  0  0  0  0  0  0  0  0  0  0  0
  -22.4998   -3.6657  130.3513 C   0  0  0  0  0  0  0  0  0  0  0  0
  -29.4810   -3.5720  128.3445 C   0  0  0  0  0  0  0  0  0  0  0  0
  2  1  1  0
  3  2  1  0
  4  3  1  0
  5  1  1  0
  6  4  1  0
  7  2  1  0
  7  3  1  0
  8  4  1  0
  9  6  2  3
 10  7  1  0
 11  9  1  0
 12 11  1  0
 13 12  1  0
 14  9  1  0
 15  1  1  0
 17 15  1  0
 18 13  1  0
 18 16  1  0
 19 18  1  0
 20 17  1  0
 21 12  1  0
 21 16  1  0
 22 11  1  0
 22 12  1  0
 23  1  1  0
 24 10  1  0
 24 22  1  0
 25 20  1  0
 26 17  1  0
 26 20  1  0
 27 24  1  0
M  RAD  2  13   2  21   2
M  END
$$$$

     RDKit          3D

 27 27  0  0  0  0  0  0  0  0999 V2000
  -22.3557   -3.1174  140.6014 O   0  0  0  0  0  0  0  0  0  0  0  0
  -19.6040   -4.2361  138.2794 C   0  0  0  0  0  0  0  0  0  0  0  0
  -18.7384   -3.3966  138.0724 O   0  0  0  0  0  0  0  0  0  0  0  0
  -20.4658   -4.1980  139.5122 C   0  0  0  0  0  0  0  0  0  0  0  0
  -21.4421   -2.9922  139.5465 C   0  0  0  0  0  0  0  0  0  0  0  0
  -23.0972   -3.9626  137.7944 C   0  0  0  0  0  0  0  0  0  0  0  0
  -24.0507   -3.3427  135.2900 C   0  0  0  0  0  0  0  0  0  0  0  0
  -23.1362   -4.1755  136.2591 C   0  0  0  0  0  0  0  0  0  0  0  0
  -24.4736   -3.9938  138.5035 C   0  0  0  0  0  0  0  0  0  0  0  0
  -25.1884   -1.9601  136.1287 Se  0  0  0  0  0  2  0  0  0  0  0  0
  -24.0041   -0.3956  136.0169 C   0  0  0  0  0  0  0  0  0  0  0  0
  -24.9321   -4.2530  134.3740 C   0  0  0  0  0  0  0  0  0  0  0  0
  -22.2078   -2.7679  138.2276 C   0  0  0  0  0  0  0  0  0  0  0  0
  -24.2556   -5.4593  134.0181 O   0  0  0  0  0  0  0  0  0  0  0  0
  -26.0903   -5.6755  135.6275 O   0  0  0  0  0  0  0  0  0  0  0  0
  -26.1825   -4.5299  134.9738 O   0  0  0  0  0  0  0  0  0  0  0  0
  -22.6948   -0.7589  135.6850 O   0  0  0  0  0  0  0  0  0  0  0  0
  -22.3424   -6.3401  132.8398 C   0  0  0  0  0  0  0  0  0  0  0  0
  -22.6870   -7.8224  133.1268 C   0  0  0  0  0  0  0  0  0  0  0  0
  -23.5598   -5.3937  132.7944 C   0  0  0  0  0  0  0  0  0  0  0  0
  -22.8124   -8.1790  134.6271 C   0  0  0  0  0  0  0  0  0  0  0  0
  -20.7384   -7.2168  135.8753 C   0  0  0  0  0  0  0  0  0  0  0  0
  -21.6192   -8.9718  136.7663 C   0  0  0  0  0  0  0  0  0  0  0  0
  -20.9288   -7.7186  137.3058 C   0  0  0  0  0  0  0  0  0  0  0  0
  -21.4544   -8.4586  135.3340 C   0  0  0  0  0  0  0  0  0  0  0  0
  -19.6176   -7.9295  138.0868 C   0  0  0  0  0  0  0  0  0  0  0  0
  -18.9890   -9.1463  137.7608 O   0  0  0  0  0  0  0  0  0  0  0  0
  3  2  2  0
  4  2  1  0
  5  1  1  0
  5  4  1  0
  8  6  1  0
  8  7  1  0
  9  6  1  0
 10  7  1  0
 11 10  1  0
 12  7  1  0
 13  5  1  0
 13  6  1  0
 14 12  1  0
 16 12  1  0
 16 15  1  0
 17 11  1  0
 19 18  1  0
 20 14  1  0
 20 18  1  0
 21 19  1  0
 24 22  1  0
 24 23  1  0
 25 21  1  0
 25 22  1  0
 25 23  1  0
 26 24  1  0
 27 26  1  0
M  END
$$$$

     RDKit          3D

 11 13  0  0  0  0  0  0  0  0999 V2000
  -22.8157   -2.5743  148.3056 C   0  0  0  0  0  0  0  0  0  0  0  0
  -22.6151   -3.7891  147.6583 O   0  0  0  0  0  0  0  0  0  0  0  0
  -23.4527   -1.6845  147.4414 O   0  0  0  0  0  0  0  0  0  0  0  0
  -23.6988   -3.7494  148.5419 C   0  0  0  0  0  0  0  0  0  0  0  0
  -23.5758   -2.6755  149.5481 N   0  0  0  0  0  0  0  0  0  0  0  0
  -22.6302   -3.0298  150.6151 C   0  0  0  0  0  0  0  0  0  0  0  0
  -22.6625   -2.0505  151.7804 C   0  0  0  0  0  0  0  0  0  0  0  0
  -23.3293   -3.4154  151.9104 C   0  0  0  0  0  0  0  0  0  0  0  0
  -22.8137   -5.8734  152.3067 C   0  0  0  0  0  0  0  0  0  0  0  0
  -22.5755   -4.4333  152.7801 C   0  0  0  0  0  0  0  0  0  0  0  0
  -24.2597   -6.3284  152.5035 C   0  0  0  0  0  0  0  0  0  0  0  0
  2  1  1  0
  3  1  1  0
  4  1  1  0
  4  2  1  0
  5  1  1  0
  5  4  1  0
  6  5  1  0
  7  6  1  0
  8  6  1  0
  8  7  1  0
 10  8  1  0
 10  9  1  0
 11  9  1  0
M  END
$$$$

     RDKit          3D

 27 35  0  0  0  0  0  0  0  0999 V2000
  -23.1496   -5.1869  149.1314 O   0  0  0  0  0  0  0  0  0  0  0  0
  -24.5518   -4.9306  149.0554 C   0  0  0  0  0  0  0  0  0  0  0  0
  -25.2404   -6.0827  148.2687 C   0  0  0  0  0  0  0  0  0  0  0  0
  -26.3585   -5.7520  147.2493 C   0  0  0  0  0  0  0  0  0  0  0  0
  -25.1749   -4.5762  150.4482 C   0  0  0  0  0  0  0  0  0  0  0  0
  -26.6228   -2.6473  149.4739 C   0  0  0  0  0  0  0  0  0  0  0  0
  -27.7313   -4.7598  150.2488 C   0  0  0  0  0  0  0  0  0  0  0  0
  -27.9800   -5.8884  151.2325 C   0  0  0  0  0  0  0  0  0  0  0  0
  -25.7620   -4.7923  146.2366 C   0  0  0  0  0  0  0  0  0  0  0  0
  -24.3815   -5.0568  145.8755 C   0  0  0  0  0  0  0  0  0  0  0  0
  -26.6388   -3.1462  151.9701 C   0  0  0  0  0  0  0  0  0  0  0  0
  -24.1480   -5.5641  144.4750 C   0  0  0  0  0  0  0  0  0  0  0  0
  -26.3835   -0.6067  152.3153 C   0  0  0  0  0  0  0  0  0  0  0  0
  -29.1543   -4.2472  150.4603 C   0  0  0  0  0  0  0  0  0  0  0  0
  -29.8529   -4.9802  152.6242 O   0  0  0  0  0  0  0  0  0  0  0  0
  -25.6783   -1.9660  152.2730 C   0  0  0  0  0  0  0  0  0  0  0  0
  -22.7629   -6.1913  150.0684 C   0  0  0  0  0  0  0  0  0  0  0  0
  -26.5353   -3.7763  150.5311 C   0  0  0  0  0  0  0  0  0  0  0  0
  -25.2289   -7.4960  148.8689 C   0  0  0  0  0  0  0  0  0  0  0  0
  -30.2958   -5.1864  150.1691 C   0  0  0  0  0  0  0  0  0  0  0  0
  -22.6720   -7.6254  149.5060 C   0  0  0  0  0  0  0  0  0  0  0  0
  -22.6966   -7.7960  147.9907 C   0  0  0  0  0  0  0  0  0  0  0  0
  -23.8859   -8.2639  148.8383 C   0  0  0  0  0  0  0  0  0  0  0  0
  -25.0224   -6.0956  146.7620 C   0  0  0  0  0  0  0  0  0  0  0  0
  -25.4898   -4.9295  144.7573 C   0  0  0  0  0  0  0  0  0  0  0  0
  -25.6574    0.2602  153.1476 O   0  0  0  0  0  0  0  0  0  0  0  0
  -29.4312   -5.4569  151.3796 C   0  0  0  0  0  0  0  0  0  0  0  0
  2  1  1  0
  3  2  1  0
  4  3  1  0
  5  2  1  0
  8  7  1  0
  9  4  1  0
 10  9  1  0
 12 10  1  0
 14  7  1  0
 16 11  1  0
 16 13  1  0
 17  1  1  0
 18  5  1  0
 18  6  1  0
 18  7  1  0
 18 11  1  0
 19  3  1  0
 20 14  1  0
 21 17  1  0
 22 21  1  0
 23 19  1  0
 23 21  1  0
 23 22  1  0
 24  3  1  0
 24  4  1  0
 24  9  1  0
 24 10  1  0
 25  9  1  0
 25 10  1  0
 25 12  1  0
 26 13  1  0
 27  8  1  0
 27 14  1  0
 27 15  1  0
 27 20  1  0
M  END
$$$$

     RDKit          3D

 26 27  0  0  0  0  0  0  0  0999 V2000
  -27.6033   -1.3359  144.3276 C   0  0  0  0  0  0  0  0  0  0  0  0
  -26.4854   -1.9049  143.4354 C   0  0  0  0  0  0  0  0  0  0  0  0
  -27.7726   -2.0227  145.7203 C   0  0  0  0  0  0  0  0  0  0  0  0
  -26.3001   -1.0713  142.1541 C   0  0  0  0  0  0  0  0  0  0  0  0
  -24.4591   -0.4841  141.4671 C   0  0  0  0  0  0  0  0  0  0  0  0
  -25.3184   -1.6991  141.1743 C   0  0  0  0  0  0  0  0  0  0  0  0
  -25.4363    0.0950  142.3922 N   0  0  0  0  0  0  0  0  0  0  0  0
  -27.4848   -1.1065  146.8402 N   0  0  0  0  0  0  0  0  0  0  0  0
  -26.0515   -0.7461  146.9442 C   0  0  0  0  0  0  0  0  0  0  0  0
  -25.8279    0.1591  148.1989 C   0  0  0  0  0  0  0  0  0  0  0  0
  -24.4868    0.9678  148.1199 C   0  0  0  0  0  0  0  0  0  0  0  0
  -25.1021   -1.9857  146.8907 C   0  0  0  0  0  0  0  0  0  0  0  0
  -26.0061   -0.6286  149.4417 N   0  0  0  0  0  0  0  0  0  0  0  0
  -26.7032   -0.0973  150.6420 C   0  0  0  0  0  0  0  0  0  0  0  0
  -23.2041    0.3824  148.7811 C   0  0  0  0  0  0  0  0  0  0  0  0
  -27.1889    1.3807  150.5683 C   0  0  0  0  0  0  0  0  0  0  0  0
  -23.0406    0.8937  150.2267 C   0  0  0  0  0  0  0  0  0  0  0  0
  -28.5048    1.6206  149.7840 C   0  0  0  0  0  0  0  0  0  0  0  0
  -25.7441   -3.2625  146.3976 C   0  0  0  0  0  0  0  0  0  0  0  0
  -26.9770   -3.2904  145.8759 C   0  0  0  0  0  0  0  0  0  0  0  0
  -21.9691    0.7892  147.9611 C   0  0  0  0  0  0  0  0  0  0  0  0
  -29.6530    1.8747  150.6761 N   0  0  0  0  0  0  0  0  0  0  0  0
  -29.6983    3.2823  151.1145 C   0  0  0  0  0  0  0  0  0  0  0  0
  -27.8214   -1.0790  151.0639 C   0  0  0  0  0  0  0  0  0  0  0  0
  -27.3084   -2.4993  151.3645 C   0  0  0  0  0  0  0  0  0  0  0  0
  -30.6193    3.4463  152.3269 C   0  0  0  0  0  0  0  0  0  0  0  0
  2  1  1  0
  3  1  1  0
  4  2  1  0
  6  4  1  0
  6  5  1  0
  7  4  1  0
  7  5  1  0
  8  3  1  0
  9  8  1  0
 10  9  1  0
 11 10  1  0
 12  9  1  0
 13 10  1  0
 14 13  1  0
 15 11  1  0
 16 14  1  0
 17 15  1  0
 18 16  1  0
 19 12  1  0
 20  3  1  0
 20 19  2  0
 21 15  1  0
 22 18  1  0
 23 22  1  0
 24 14  1  0
 25 24  1  0
 26 23  1  0
M  END
$$$$

     RDKit          3D

 27 33  0  0  0  0  0  0  0  0999 V2000
  -22.6059  -18.9879  135.7375 N   0  0  0  0  0  0  0  0  0  0  0  0
  -21.6543  -19.9742  135.4035 C   0  0  0  0  0  0  0  0  0  0  0  0
  -20.5593  -18.6046  132.6890 N   0  0  0  0  0  0  0  0  0  0  0  0
  -20.3231  -18.9552  134.0490 C   0  0  0  0  0  0  0  0  0  0  0  0
  -18.7077  -22.5246  132.8324 C   0  0  0  0  0  0  0  0  0  0  0  0
  -21.6984  -22.4401  132.5198 C   0  0  0  0  0  0  0  0  0  0  0  0
  -20.2378  -15.7543  129.9579 C   0  0  0  0  0  0  0  0  0  0  0  0
  -25.0454  -26.3852  130.8021 C   0  0  0  0  0  0  0  0  0  0  0  0
  -20.2692  -16.0608  131.5234 C   0  0  0  0  0  0  0  0  0  0  0  0
  -21.4640  -27.0424  128.7666 C   0  0  0  0  0  0  0  0  0  0  0  0
  -19.1551  -18.6550  130.7797 C   0  0  0  0  0  0  0  0  0  0  0  0
  -22.7050  -21.3689  129.8992 C   0  0  0  0  0  0  0  0  0  0  0  0
  -18.9787  -20.1815  127.8440 C   0  0  0  0  0  0  0  0  0  0  0  0
  -21.6140  -21.4312  134.6611 C   0  0  0  0  0  0  0  0  0  0  0  0
  -24.8386  -21.4114  136.8442 C   0  0  0  0  0  0  0  0  0  0  0  0
  -16.7704  -16.2976  124.6317 C   0  0  0  0  0  0  0  0  0  0  0  0
  -14.9189  -12.3512  121.5061 C   0  0  0  0  0  0  0  0  0  0  0  0
  -25.3766  -22.2204  132.1160 C   0  0  0  0  0  0  0  0  0  0  0  0
  -22.2128  -19.1290  130.7993 C   0  0  0  0  0  0  0  0  0  0  0  0
  -16.6198  -21.1518  128.8917 C   0  0  0  0  0  0  0  0  0  0  0  0
  -19.2229  -21.1587  130.8585 C   0  0  0  0  0  0  0  0  0  0  0  0
  -22.4663  -30.4328  130.1444 C   0  0  0  0  0  0  0  0  0  0  0  0
  -27.0959  -28.8530  131.6738 C   0  0  0  0  0  0  0  0  0  0  0  0
  -20.7455  -31.6544  130.0948 C   0  0  0  0  0  0  0  0  0  0  0  0
  -32.7771  -19.7519  129.6466 C   0  0  0  0  0  0  0  0  0  0  0  0
  -21.8703  -31.0139  133.1055 C   0  0  0  0  0  0  0  0  0  0  0  0
  -29.6831  -24.5992  129.4846 C   0  0  0  0  0  0  0  0  0  0  0  0
  3  2  1  0
  4  2  1  0
  6  1  1  0
  6  5  1  0
  7  4  1  0
  8  6  1  0
  9  7  2  0
 10  4  1  0
 11  9  1  0
 12 10  1  0
 13 12  1  0
 14  4  1  0
 15  1  1  0
 15  2  1  0
 15 14  1  0
 16 13  1  0
 17 16  1  0
 18 12  1  0
 19  3  1  0
 19 12  1  0
 19 13  1  0
 19 18  1  0
 20 11  1  0
 21 10  1  0
 21 20  1  0
 22  8  1  0
 23  8  1  0
 24 22  1  0
 26 22  1  0
 26 24  1  0
 27  8  1  0
 27 23  1  0
 27 25  1  0
M  END
$$$$

     RDKit          3D

 27 35  0  0  0  0  0  0  0  0999 V2000
  -19.5880  -10.7957  144.8168 C   0  0  0  0  0  0  0  0  0  0  0  0
  -18.6586  -11.2819  145.7645 O   0  0  0  0  0  0  0  0  0  0  0  0
  -19.8572  -11.8880  143.7016 C   0  0  0  0  0  0  0  0  0  0  0  0
  -20.3607  -13.2497  144.3091 C   0  0  0  0  0  0  0  0  0  0  0  0
  -21.9359  -13.3814  144.4320 C   0  0  0  0  0  0  0  0  0  0  0  0
  -18.4754  -13.7609  142.7948 C   0  0  0  0  0  0  0  0  0  0  0  0
  -20.8192  -11.3234  142.6058 C   0  0  0  0  0  0  0  0  0  0  0  0
  -18.7046  -15.2631  144.3274 C   0  0  0  0  0  0  0  0  0  0  0  0
  -22.5418  -14.0707  145.6600 C   0  0  0  0  0  0  0  0  0  0  0  0
  -20.8383  -10.3574  145.5984 C   0  0  0  0  0  0  0  0  0  0  0  0
  -18.5251  -12.2447  142.9673 C   0  0  0  0  0  0  0  0  0  0  0  0
  -17.4728  -15.9819  143.7581 C   0  0  0  0  0  0  0  0  0  0  0  0
  -19.6520  -14.3776  143.4921 C   0  0  0  0  0  0  0  0  0  0  0  0
  -17.4022  -16.5452  142.3950 N   0  0  0  0  0  0  0  0  0  0  0  0
  -17.5110  -14.4725  143.7366 C   0  0  0  0  0  0  0  0  0  0  0  0
  -17.7993  -17.9749  142.3825 C   0  0  0  0  0  0  0  0  0  0  0  0
  -22.5801  -14.3624  143.5387 N   0  0  0  0  0  0  0  0  0  0  0  0
  -22.5754  -15.6733  144.3038 C   0  0  0  0  0  0  0  0  0  0  0  0
  -21.9462  -15.4819  145.7064 C   0  0  0  0  0  0  0  0  0  0  0  0
  -18.0963  -18.7904  143.6184 C   0  0  0  0  0  0  0  0  0  0  0  0
  -17.1877  -19.8648  142.9847 C   0  0  0  0  0  0  0  0  0  0  0  0
  -18.6904  -17.0104  141.7957 C   0  0  0  0  0  0  0  0  0  0  0  0
  -23.4830  -14.6266  144.6368 C   0  0  0  0  0  0  0  0  0  0  0  0
  -16.8702  -18.9636  141.7516 C   0  0  0  0  0  0  0  0  0  0  0  0
  -22.0127  -16.0186  148.2337 C   0  0  0  0  0  0  0  0  0  0  0  0
  -22.5228  -16.3554  146.8479 C   0  0  0  0  0  0  0  0  0  0  0  0
  -21.4958  -17.2475  147.5181 C   0  0  0  0  0  0  0  0  0  0  0  0
  2  1  1  0
  3  1  1  0
  4  3  1  0
  5  4  1  0
  7  3  1  0
  9  5  1  0
 10  1  1  0
 11  3  1  0
 11  6  1  0
 12  8  1  0
 13  4  1  0
 13  6  1  0
 13  8  1  0
 14 12  1  0
 15  6  1  0
 15  8  1  0
 15 12  1  0
 16 14  1  0
 17  5  1  0
 18 17  1  0
 19  9  1  0
 19 18  1  0
 20 16  1  0
 21 20  1  0
 22 14  1  0
 22 16  1  0
 23  9  1  0
 23 17  1  0
 23 18  1  0
 24 16  1  0
 24 21  1  0
 26 19  1  0
 26 25  1  0
 27 25  1  0
 27 26  1  0
M  END
$$$$

     RDKit          3D

 10 10  0  0  0  0  0  0  0  0999 V2000
  -30.9830   -8.9218  146.7833 C   0  0  0  0  0  0  0  0  0  0  0  0
  -33.0158   -9.6631  145.5072 C   0  0  0  0  0  0  0  0  0  0  0  0
  -31.3953  -11.3907  146.4628 C   0  0  0  0  0  0  0  0  0  0  0  0
  -31.7003  -13.8837  146.5286 C   0  0  0  0  0  0  0  0  0  0  0  0
  -32.1112  -15.1822  148.7872 C   0  0  0  0  0  0  0  0  0  0  0  0
  -32.0596  -10.0077  146.6592 C   0  0  0  0  0  0  0  0  0  0  0  0
  -31.0012  -14.5007  145.6831 O   0  0  0  0  0  0  0  0  0  0  0  0
  -32.8668  -12.8365  147.9367 C   0  0  0  0  0  0  0  0  0  0  0  0
  -32.2109  -14.1731  147.9334 C   0  0  0  0  0  0  0  0  0  0  0  0
  -32.3913  -12.5633  146.5797 C   0  0  0  0  0  0  0  0  0  0  0  0
  6  1  1  0
  6  2  1  0
  6  3  1  0
  7  4  2  0
  9  4  1  0
  9  5  2  0
  9  8  1  0
 10  3  1  0
 10  4  1  0
 10  8  1  0
M  END
$$$$

     RDKit          3D

 27 29  0  0  0  0  0  0  0  0999 V2000
  -24.4525   -5.2304  135.6462 O   0  0  0  0  0  0  0  0  0  0  0  0
  -25.2837   -4.1602  136.0091 C   0  0  0  0  0  0  0  0  0  0  0  0
  -24.4960   -2.8862  136.5245 C   0  0  0  0  0  0  0  0  0  0  0  0
  -25.5653   -1.7517  136.7681 C   0  0  0  0  0  0  0  0  0  0  0  0
  -24.1555   -2.7516  138.0177 C   0  0  0  0  0  0  0  0  0  0  0  0
  -26.2854   -3.8627  134.8239 C   0  0  0  0  0  0  0  0  0  0  0  0
  -26.0455   -1.6344  139.2925 C   0  0  0  0  0  0  0  0  0  0  0  0
  -26.2163   -2.6435  133.8783 C   0  0  0  0  0  0  0  0  0  0  0  0
  -23.2839   -2.4430  135.6396 C   0  0  0  0  0  0  0  0  0  0  0  0
  -24.1831   -0.1403  138.3307 C   0  0  0  0  0  0  0  0  0  0  0  0
  -25.6254   -3.9653  133.4347 C   0  0  0  0  0  0  0  0  0  0  0  0
  -24.0029    0.8415  137.1248 C   0  0  0  0  0  0  0  0  0  0  0  0
  -22.5431    1.2928  136.9633 C   0  0  0  0  0  0  0  0  0  0  0  0
  -25.0161   -1.4713  138.1601 C   0  0  0  0  0  0  0  0  0  0  0  0
  -21.8273   -3.0604  135.6858 C   0  0  0  0  0  0  0  0  0  0  0  0
  -22.2896    1.8921  135.5549 C   0  0  0  0  0  0  0  0  0  0  0  0
  -21.4546    3.1713  135.5041 C   0  0  0  0  0  0  0  0  0  0  0  0
  -22.0325    0.9189  134.3896 C   0  0  0  0  0  0  0  0  0  0  0  0
  -21.2210   -4.3110  137.9027 C   0  0  0  0  0  0  0  0  0  0  0  0
  -21.5336   -4.2401  134.7177 C   0  0  0  0  0  0  0  0  0  0  0  0
  -21.2343   -2.3969  132.7774 C   0  0  0  0  0  0  0  0  0  0  0  0
  -21.3014   -3.8913  133.1933 C   0  0  0  0  0  0  0  0  0  0  0  0
  -22.3109   -4.4806  132.4485 F   0  0  0  0  0  0  0  0  0  0  0  0
  -21.0151   -3.0866  137.0136 C   0  0  0  0  0  0  0  0  0  0  0  0
  -19.8484   -1.7198  132.8035 C   0  0  0  0  0  0  0  0  0  0  0  0
  -18.9189   -2.0598  133.9760 C   0  0  0  0  0  0  0  0  0  0  0  0
  -22.9537    3.2302  135.2479 C   0  0  0  0  0  0  0  0  0  0  0  0
  2  1  1  0
  3  2  1  0
  4  3  1  0
  5  3  1  0
  6  2  1  0
  8  6  1  0
  9  3  1  0
 11  6  1  0
 11  8  1  0
 12 10  1  0
 13 12  1  0
 14  4  1  0
 14  5  1  0
 14  7  1  0
 14 10  1  0
 15  9  1  0
 16 13  1  0
 17 16  1  0
 18 16  1  0
 20 15  1  0
 22 20  1  0
 22 21  1  0
 23 22  1  0
 24 15  1  0
 24 19  1  0
 25 21  1  0
 26 25  1  0
 27 16  1  0
 27 17  1  0
M  END
$$$$

     RDKit          3D

 27 32  0  0  0  0  0  0  0  0999 V2000
  -27.0513   -5.8308  137.0582 O   0  0  0  0  0  0  0  0  0  0  0  0
  -27.6128   -6.4671  138.1926 C   0  0  0  0  0  0  0  0  0  0  0  0
  -29.7463   -6.2410  138.4330 C   0  0  0  0  0  0  0  0  0  0  0  0
  -28.8635   -5.8898  140.4066 C   0  0  0  0  0  0  0  0  0  0  0  0
  -29.3331   -5.2604  141.7200 C   0  0  0  0  0  0  0  0  0  0  0  0
  -28.5196   -5.4751  138.9522 C   0  0  0  0  0  0  0  0  0  0  0  0
  -28.8676   -4.5066  143.9324 N   0  0  0  0  0  0  0  0  0  0  0  0
  -30.3562   -6.3807  142.1924 C   0  0  0  0  0  0  0  0  0  0  0  0
  -30.7445   -7.2396  140.9245 C   0  0  0  0  0  0  0  0  0  0  0  0
  -31.5816   -5.8230  142.9540 C   0  0  0  0  0  0  0  0  0  0  0  0
  -26.8289   -4.6261  142.6542 C   0  0  0  0  0  0  0  0  0  0  0  0
  -32.2425   -7.5802  140.6822 C   0  0  0  0  0  0  0  0  0  0  0  0
  -26.2827   -7.1864  142.3427 C   0  0  0  0  0  0  0  0  0  0  0  0
  -25.3849   -5.3948  140.7055 C   0  0  0  0  0  0  0  0  0  0  0  0
  -32.1244   -6.8982  143.9003 C   0  0  0  0  0  0  0  0  0  0  0  0
  -34.1815   -7.5146  142.3847 C   0  0  0  0  0  0  0  0  0  0  0  0
  -32.9886   -8.2921  141.8477 C   0  0  0  0  0  0  0  0  0  0  0  0
  -28.8324   -7.3163  137.8366 C   0  0  0  0  0  0  0  0  0  0  0  0
  -33.5422   -7.4386  143.7611 C   0  0  0  0  0  0  0  0  0  0  0  0
  -32.3343   -8.2403  143.2259 C   0  0  0  0  0  0  0  0  0  0  0  0
  -25.8468   -5.7134  142.1314 C   0  0  0  0  0  0  0  0  0  0  0  0
  -28.3228   -4.9381  142.8371 C   0  0  0  0  0  0  0  0  0  0  0  0
  -30.2311   -6.2840  139.8697 C   0  0  0  0  0  0  0  0  0  0  0  0
  -26.0996   -6.6680  136.4266 C   0  0  0  0  0  0  0  0  0  0  0  0
  -26.1144   -6.3981  134.9112 C   0  0  0  0  0  0  0  0  0  0  0  0
  -27.5145   -6.5908  134.3147 C   0  0  0  0  0  0  0  0  0  0  0  0
  -24.7080   -6.3737  136.9970 C   0  0  0  0  0  0  0  0  0  0  0  0
  2  1  1  0
  5  4  1  0
  6  2  1  0
  6  3  1  0
  6  4  1  0
  8  5  1  0
  9  8  1  0
 10  8  1  0
 12  9  1  0
 15 10  1  0
 17 12  1  0
 17 16  1  0
 18  2  1  0
 18  3  1  0
 19 15  1  0
 19 16  1  0
 20 15  1  0
 20 17  1  0
 20 19  1  0
 21 11  1  0
 21 13  1  0
 21 14  1  0
 22  5  1  0
 22  7  2  0
 22 11  1  0
 23  3  1  0
 23  4  1  0
 23  9  1  0
 24  1  1  0
 25 24  1  0
 26 25  1  0
 27 24  1  0
M  END
$$$$

     RDKit          3D

 27 33  0  0  0  0  0  0  0  0999 V2000
  -36.4825   -5.6244  139.2607 O   0  0  0  0  0  0  0  0  0  0  0  0
  -36.7934   -4.6071  137.1783 C   0  0  0  0  0  0  0  0  0  0  0  0
  -37.2669   -5.7689  136.5200 O   0  0  0  0  0  0  0  0  0  0  0  0
  -34.6532   -2.7033  137.6969 C   0  0  0  0  0  0  0  0  0  0  0  0
  -35.1350   -3.6796  138.8115 C   0  0  0  0  0  0  0  0  0  0  0  0
  -38.5316   -5.9168  136.8709 O   0  0  0  0  0  0  0  0  0  0  0  0
  -37.0915   -4.4910  138.6929 C   0  0  0  0  0  0  0  0  0  0  0  0
  -35.8177   -2.2897  136.7440 C   0  0  0  0  0  0  0  0  0  0  0  0
  -35.2918   -3.3223  140.3100 C   0  0  0  0  0  0  0  0  0  0  0  0
  -35.7724   -4.9384  138.2502 C   0  0  0  0  0  0  0  0  0  0  0  0
  -34.2716   -2.2608  140.7404 C   0  0  0  0  0  0  0  0  0  0  0  0
  -36.4959   -3.2256  139.3708 C   0  0  0  0  0  0  0  0  0  0  0  0
  -35.3756   -2.1295  135.2834 C   0  0  0  0  0  0  0  0  0  0  0  0
  -36.7773   -3.3506  136.3890 N   0  0  0  0  0  0  0  0  0  0  0  0
  -33.0931   -3.1735  141.1064 C   0  0  0  0  0  0  0  0  0  0  0  0
  -36.2158   -3.3791  135.0100 C   0  0  0  0  0  0  0  0  0  0  0  0
  -35.3095   -4.6129  134.6643 C   0  0  0  0  0  0  0  0  0  0  0  0
  -35.1987   -4.3914  141.4084 C   0  0  0  0  0  0  0  0  0  0  0  0
  -33.0895   -5.7774  141.3712 C   0  0  0  0  0  0  0  0  0  0  0  0
  -38.6040   -3.2414  134.1840 C   0  0  0  0  0  0  0  0  0  0  0  0
  -39.5927   -3.2202  133.0613 C   0  0  0  0  0  0  0  0  0  0  0  0
  -33.0535   -4.7999  133.5063 C   0  0  0  0  0  0  0  0  0  0  0  0
  -37.2809   -3.1763  133.9364 C   0  0  0  0  0  0  0  0  0  0  0  0
  -31.5819   -5.9635  141.6109 C   0  0  0  0  0  0  0  0  0  0  0  0
  -34.5165   -4.4226  133.3495 C   0  0  0  0  0  0  0  0  0  0  0  0
  -33.7111   -4.4124  141.7972 C   0  0  0  0  0  0  0  0  0  0  0  0
  -31.1345   -5.6463  143.0323 C   0  0  0  0  0  0  0  0  0  0  0  0
  3  2  1  0
  5  4  1  0
  6  3  1  0
  7  1  1  0
  7  2  1  0
  8  4  1  0
  9  5  1  0
 10  1  1  0
 10  2  1  0
 10  5  1  0
 10  7  1  0
 11  9  1  0
 12  5  1  0
 12  7  1  0
 12  9  1  0
 13  8  1  0
 14  2  1  0
 14  8  1  0
 15 11  1  0
 16 13  1  0
 16 14  1  0
 17 16  1  0
 18  9  1  0
 21 20  1  0
 23 16  1  0
 23 20  2  3
 24 19  1  0
 25 17  1  0
 25 22  1  0
 26 15  1  0
 26 18  1  0
 26 19  1  0
 27 24  1  0
M  END
$$$$

     RDKit          3D

 26 30  0  0  0  0  0  0  0  0999 V2000
  -21.2149  -12.6343  147.8577 N   0  0  0  0  0  0  0  0  0  0  0  0
  -21.3711  -13.0271  149.2733 C   0  0  0  0  0  0  0  0  0  0  0  0
  -21.8106  -14.4834  149.4310 C   0  0  0  0  0  0  0  0  0  0  0  0
  -20.1000  -16.5809  148.1249 Si  0  0  0  0  0  4  0  0  0  0  0  0
  -18.8682  -17.9963  148.0892 C   0  0  0  0  0  0  0  0  0  0  0  0
  -17.4019  -17.7696  148.3264 C   0  0  0  0  0  0  0  0  0  0  0  0
  -19.7419  -15.6129  146.5672 C   0  0  0  0  0  0  0  0  0  0  0  0
  -20.5710  -15.9002  145.2784 C   0  0  0  0  0  0  0  0  0  0  0  0
  -18.2510  -16.0199  146.5605 C   0  0  0  0  0  0  0  0  0  0  0  0
  -21.9701  -15.2841  145.3991 C   0  0  0  0  0  0  0  0  0  0  0  0
  -20.5880  -17.3554  144.7071 C   0  0  0  0  0  0  0  0  0  0  0  0
  -20.3880  -15.4961  149.9669 S   0  0  0  0  0  0  0  0  0  0  0  0
  -22.3582  -12.1381  148.6557 C   0  0  0  0  0  0  0  0  0  0  0  0
  -18.2507  -16.5841  147.9877 C   0  0  0  0  0  0  0  0  0  0  0  0
  -21.5524  -18.4012  145.3480 C   0  0  0  0  0  0  0  0  0  0  0  0
  -20.9553  -19.8187  145.1822 C   0  0  0  0  0  0  0  0  0  0  0  0
  -22.2632  -10.6498  149.0095 C   0  0  0  0  0  0  0  0  0  0  0  0
  -21.8607  -20.8956  145.8031 C   0  0  0  0  0  0  0  0  0  0  0  0
  -22.9586  -18.3835  144.6967 C   0  0  0  0  0  0  0  0  0  0  0  0
  -23.8911  -19.4477  145.3167 C   0  0  0  0  0  0  0  0  0  0  0  0
  -25.2887  -19.3736  144.6546 C   0  0  0  0  0  0  0  0  0  0  0  0
  -23.2623  -20.8478  145.1731 C   0  0  0  0  0  0  0  0  0  0  0  0
  -26.3512  -20.2689  145.3354 C   0  0  0  0  0  0  0  0  0  0  0  0
  -21.2390  -22.2856  145.6237 C   0  0  0  0  0  0  0  0  0  0  0  0
  -26.6486  -21.5610  144.5536 C   0  0  0  0  0  0  0  0  0  0  0  0
  -27.5552  -21.3137  143.3478 C   0  0  0  0  0  0  0  0  0  0  0  0
  2  1  1  0
  3  2  1  0
  5  4  1  0
  6  5  1  0
  7  4  1  0
  8  7  1  0
  9  7  1  0
 10  8  1  0
 11  8  1  0
 12  3  1  0
 12  4  1  0
 13  1  1  0
 13  2  1  0
 14  4  1  0
 14  5  1  0
 14  6  1  0
 14  9  1  0
 15 11  1  0
 16 15  1  0
 17 13  1  0
 18 16  1  0
 19 15  1  0
 20 19  1  0
 21 20  1  0
 22 18  1  0
 22 20  1  0
 23 21  1  0
 24 18  1  0
 25 23  1  0
 26 25  1  0
M  END
$$$$

     RDKit          3D

 27 32  0  0  0  0  0  0  0  0999 V2000
  -24.0033  -21.6718  138.8539 C   0  0  0  0  0  0  0  0  0  0  0  0
  -24.8117  -21.3814  137.5670 C   0  0  0  0  0  0  0  0  0  0  0  0
  -23.2150  -22.9563  138.8841 C   0  0  0  0  0  0  0  0  0  0  0  0
  -23.4681  -23.8438  139.7446 O   0  0  0  0  0  0  0  0  0  0  0  0
  -22.1996  -23.1874  137.8973 N   0  0  0  0  0  0  0  0  0  0  0  0
  -23.4202  -20.5739  139.8095 C   0  0  0  0  0  0  0  0  0  0  0  0
  -21.5106  -24.4729  137.8053 C   0  0  0  0  0  0  0  0  0  0  0  0
  -22.8750  -19.4929  138.8397 C   0  0  0  0  0  0  0  0  0  0  0  0
  -21.5291  -19.0664  139.2201 N   0  0  0  0  0  0  0  0  0  0  0  0
  -24.7535  -21.3214  140.0957 C   0  0  0  0  0  0  0  0  0  0  0  0
  -23.9154  -19.0976  139.8150 C   0  0  0  0  0  0  0  0  0  0  0  0
  -20.6686  -24.5858  136.5232 C   0  0  0  0  0  0  0  0  0  0  0  0
  -22.4349  -23.9399  134.7894 C   0  0  0  0  0  0  0  0  0  0  0  0
  -21.4838  -25.0243  135.2946 C   0  0  0  0  0  0  0  0  0  0  0  0
  -21.2022  -17.7342  138.6869 C   0  0  0  0  0  0  0  0  0  0  0  0
  -21.6842  -16.6361  139.6489 C   0  0  0  0  0  0  0  0  0  0  0  0
  -20.8767  -15.3398  139.4828 C   0  0  0  0  0  0  0  0  0  0  0  0
  -21.3462  -14.1322  141.8118 C   0  0  0  0  0  0  0  0  0  0  0  0
  -20.5854  -15.2911  142.4830 C   0  0  0  0  0  0  0  0  0  0  0  0
  -20.6110  -15.2581  144.0037 C   0  0  0  0  0  0  0  0  0  0  0  0
  -20.7842  -16.6642  144.5430 C   0  0  0  0  0  0  0  0  0  0  0  0
  -20.9047  -17.6499  143.3979 C   0  0  0  0  0  0  0  0  0  0  0  0
  -21.4814  -16.2508  143.2570 C   0  0  0  0  0  0  0  0  0  0  0  0
  -20.4960  -12.8695  141.6958 C   0  0  0  0  0  0  0  0  0  0  0  0
  -21.4921  -14.1658  140.2756 C   0  0  0  0  0  0  0  0  0  0  0  0
  -26.1407  -22.7628  137.2676 Br  0  0  0  0  0  0  0  0  0  0  0  0
  -20.6516  -12.8889  140.1805 C   0  0  0  0  0  0  0  0  0  0  0  0
  2  1  1  0
  3  1  1  0
  4  3  2  0
  5  3  1  0
  6  1  1  0
  7  5  1  0
  8  6  1  0
  9  8  1  0
 10  1  1  0
 10  6  1  0
 11  6  1  0
 11  8  1  0
 12  7  1  0
 14 12  1  0
 14 13  1  0
 15  9  1  0
 16 15  1  0
 17 16  1  0
 19 18  1  0
 20 19  1  0
 21 20  1  0
 22 21  1  0
 23 19  1  0
 23 20  1  0
 23 21  1  0
 23 22  1  0
 24 18  1  0
 25 17  1  0
 25 18  1  0
 26  2  1  0
 27 24  1  0
 27 25  1  0
M  END
$$$$

     RDKit          3D

 11 11  0  0  0  0  0  0  0  0999 V2000
  -25.1060   -4.5645  140.3561 N   0  0  0  0  0  2  0  0  0  0  0  0
  -26.4656   -4.8409  139.9063 C   0  0  0  0  0  0  0  0  0  0  0  0
  -26.8093   -4.0451  138.7153 N   0  0  0  0  0  0  0  0  0  0  0  0
  -27.4098   -4.5711  140.9839 N   0  0  0  0  0  2  0  0  0  0  0  0
  -26.7494   -2.5736  138.8920 C   0  0  0  0  0  0  0  0  0  0  0  0
  -25.3412   -1.9616  138.6322 C   0  0  0  0  0  0  0  0  0  0  0  0
  -24.6109   -2.3626  137.3317 C   0  0  0  0  0  0  0  0  0  0  0  0
  -27.8311   -1.8436  138.0539 C   0  0  0  0  0  0  0  0  0  0  0  0
  -28.7148   -2.6235  137.0820 C   0  0  0  0  0  0  0  0  0  0  0  0
  -25.3593   -2.0274  136.1222 N   0  0  0  0  0  0  0  0  0  0  0  0
  -29.2568   -2.2232  138.4415 C   0  0  0  0  0  0  0  0  0  0  0  0
  2  1  1  0
  3  2  1  0
  4  2  1  0
  5  3  1  0
  6  5  1  0
  7  6  1  0
  8  5  1  0
  9  8  1  0
 10  7  1  0
 11  8  1  0
 11  9  1  0
M  RAD  2   1   2   4   2
M  END
$$$$

     RDKit          3D

 25 26  0  0  0  0  0  0  0  0999 V2000
  -24.4027  -21.1022  142.2940 C   0  0  0  0  0  0  0  0  0  0  0  0
  -23.9058  -20.8359  143.7337 C   0  0  0  0  0  0  0  0  0  0  0  0
  -24.8994  -19.8866  141.4402 C   0  0  0  0  0  0  0  0  0  0  0  0
  -22.5894  -19.9739  143.7251 C   0  0  0  0  0  0  0  0  0  0  0  0
  -26.3340  -19.4878  141.8945 C   0  0  0  0  0  0  0  0  0  0  0  0
  -25.2296  -18.4341  141.8945 C   0  0  0  0  0  0  0  0  0  0  0  0
  -24.8667  -18.0233  143.2441 N   0  0  0  0  0  0  0  0  0  0  0  0
  -24.7423  -20.0762  139.9143 C   0  0  0  0  0  0  0  0  0  0  0  0
  -24.7260  -23.2248  144.8280 C   0  0  0  0  0  0  0  0  0  0  0  0
  -23.3185  -23.3187  144.3606 N   0  0  0  0  0  0  0  0  0  0  0  0
  -21.1991  -20.6797  143.6147 C   0  0  0  0  0  0  0  0  0  0  0  0
  -23.8649  -22.0125  144.7861 C   0  0  0  0  0  0  0  0  0  0  0  0
  -21.3598  -21.9499  143.0333 O   0  0  0  0  0  0  0  0  0  0  0  0
  -25.7037  -23.7844  143.7665 C   0  0  0  0  0  0  0  0  0  0  0  0
  -18.5606  -21.8517  144.1452 F   0  0  0  0  0  0  0  0  0  0  0  0
  -20.4192  -22.1317  142.1160 F   0  0  0  0  0  0  0  0  0  0  0  0
  -19.9514  -19.4255  145.3396 N   0  0  0  0  0  0  0  0  0  0  0  0
  -19.4480  -21.8935  145.2026 C   0  0  0  0  0  0  0  0  0  0  0  0
  -20.0270  -19.0225  146.7508 C   0  0  0  0  0  0  0  0  0  0  0  0
  -20.3898  -19.8918  142.8007 F   0  0  0  0  0  0  0  0  0  0  0  0
  -28.5374  -20.5551  140.7099 Cl  0  0  0  0  0  0  0  0  0  0  0  0
  -20.0660  -23.3163  145.2454 C   0  0  0  0  0  0  0  0  0  0  0  0
  -18.7202  -21.7018  146.3947 O   0  0  0  0  0  0  0  0  0  0  0  0
  -20.5196  -20.7650  145.0371 C   0  0  0  0  0  0  0  0  0  0  0  0
  -27.4446  -19.1476  140.8848 C   0  0  0  0  0  0  0  0  0  0  0  0
  2  1  1  0
  3  1  1  0
  4  2  1  0
  5  3  1  0
  6  3  1  0
  6  5  1  0
  7  6  1  0
  8  3  1  0
 10  9  1  0
 11  4  1  0
 12  2  1  0
 12  9  1  0
 12 10  1  0
 13 11  1  0
 14  9  1  0
 16 13  1  0
 18 15  1  0
 19 17  1  0
 20 11  1  0
 22 18  1  0
 23 18  1  0
 24 11  1  0
 24 17  1  0
 24 18  1  0
 25  5  1  0
 25 21  1  0
M  END
$$$$

     RDKit          3D

 25 30  0  0  0  0  0  0  0  0999 V2000
  -24.7582   -6.7954  138.8014 O   0  0  0  0  0  0  0  0  0  0  0  0
  -26.0241   -7.1509  138.2732 C   0  0  0  0  0  0  0  0  0  0  0  0
  -26.9478   -6.0759  138.3864 O   0  0  0  0  0  0  0  0  0  0  0  0
  -27.2215   -7.7567  135.9908 C   0  0  0  0  0  0  0  0  0  0  0  0
  -26.5242   -8.2014  139.0580 O   0  0  0  0  0  0  0  0  0  0  0  0
  -27.8537   -9.1417  136.0402 C   0  0  0  0  0  0  0  0  0  0  0  0
  -28.5794   -7.9475  136.6550 C   0  0  0  0  0  0  0  0  0  0  0  0
  -29.8761   -8.5808  134.7502 F   0  0  0  0  0  0  0  0  0  0  0  0
  -30.3483   -9.7539  136.9028 C   0  0  0  0  0  0  0  0  0  0  0  0
  -29.3691   -9.0391  135.9505 C   0  0  0  0  0  0  0  0  0  0  0  0
  -25.9077   -7.6482  136.8020 C   0  0  0  0  0  0  0  0  0  0  0  0
  -30.8618  -11.1282  136.4539 C   0  0  0  0  0  0  0  0  0  0  0  0
  -30.2959  -11.7419  135.1483 C   0  0  0  0  0  0  0  0  0  0  0  0
  -28.3378   -3.5487  139.2157 C   0  0  0  0  0  0  0  0  0  0  0  0
  -31.2002  -12.6699  134.3442 C   0  0  0  0  0  0  0  0  0  0  0  0
  -28.9056  -11.9200  134.9905 O   0  0  0  0  0  0  0  0  0  0  0  0
  -28.5350  -13.1631  135.5447 C   0  0  0  0  0  0  0  0  0  0  0  0
  -27.0692  -13.1899  135.9412 C   0  0  0  0  0  0  0  0  0  0  0  0
  -30.9698  -11.2456  133.8757 C   0  0  0  0  0  0  0  0  0  0  0  0
  -29.8994  -11.0185  137.6313 C   0  0  0  0  0  0  0  0  0  0  0  0
  -27.5347  -13.9285  134.6966 C   0  0  0  0  0  0  0  0  0  0  0  0
  -27.3231   -2.5836  137.0421 C   0  0  0  0  0  0  0  0  0  0  0  0
  -27.5589   -3.8069  137.9209 C   0  0  0  0  0  0  0  0  0  0  0  0
  -28.3271   -3.6492  136.6130 C   0  0  0  0  0  0  0  0  0  0  0  0
  -26.4291   -4.8404  137.9376 C   0  0  0  0  0  0  0  0  0  0  0  0
  2  1  1  0
  3  2  1  0
  5  2  1  0
  6  4  1  0
  7  4  1  0
  7  6  1  0
 10  6  1  0
 10  7  1  0
 10  8  1  0
 10  9  1  0
 11  2  1  0
 11  4  1  0
 12  9  1  0
 13 12  1  0
 15 13  1  0
 16 13  1  0
 17 16  1  0
 18 17  1  0
 19 13  1  0
 19 15  1  0
 20  9  1  0
 20 12  1  0
 21 17  1  0
 21 18  1  0
 23 14  1  0
 23 22  1  0
 24 22  1  0
 24 23  1  0
 25  3  1  0
 25 23  1  0
M  END
$$$$

     RDKit          3D

 27 31  0  0  0  0  0  0  0  0999 V2000
  -23.5793  -12.4060  146.7779 C   0  0  0  0  0  0  0  0  0  0  0  0
  -22.5168  -11.4881  147.3512 C   0  0  0  0  0  0  0  0  0  0  0  0
  -22.9349  -13.5985  146.0187 C   0  0  0  0  0  0  0  0  0  0  0  0
  -21.4698  -13.9844  146.5303 C   0  0  0  0  0  0  0  0  0  0  0  0
  -21.6840  -12.1166  148.4686 C   0  0  0  0  0  0  0  0  0  0  0  0
  -22.0387  -13.4710  149.0843 C   0  0  0  0  0  0  0  0  0  0  0  0
  -21.0373  -13.4204  147.9476 C   0  0  0  0  0  0  0  0  0  0  0  0
  -23.2310  -10.2854  147.7257 N   0  0  0  0  0  0  0  0  0  0  0  0
  -21.3087  -15.3902  146.4108 O   0  0  0  0  0  0  0  0  0  0  0  0
  -20.1876  -13.1455  145.2832 Br  0  0  0  0  0  0  0  0  0  0  0  0
  -24.2448  -15.9253  146.6742 C   0  0  0  0  0  0  0  0  0  0  0  0
  -23.8941  -18.0980  145.0004 C   0  0  0  0  0  0  0  0  0  0  0  0
  -26.9039  -15.2390  148.1307 Al  0  0  0  0  0  3  0  0  0  0  0  0
  -25.2702  -17.1516  145.7392 S   0  0  0  0  0  0  0  0  0  0  0  0
  -20.0557  -15.8895  146.8591 C   0  0  0  0  0  0  0  0  0  0  0  0
  -19.6356  -17.0380  145.9426 C   0  0  0  0  0  0  0  0  0  0  0  0
  -25.6133  -16.6099  148.8307 C   0  0  0  0  0  0  0  0  0  0  0  0
  -24.9065  -15.4821  148.0237 C   0  0  0  0  0  0  0  0  0  0  0  0
  -23.9866  -14.7362  145.7070 C   0  0  0  0  0  0  0  0  0  0  0  0
  -23.1100  -16.9749  149.3088 C   0  0  0  0  0  0  0  0  0  0  0  0
  -25.3461   -9.2540  146.8967 C   0  0  0  0  0  0  0  0  0  0  0  0
  -25.8874   -9.1632  148.3056 C   0  0  0  0  0  0  0  0  0  0  0  0
  -24.3098  -16.0275  149.3496 C   0  0  0  0  0  0  0  0  0  0  0  0
  -24.4237  -11.4304  145.9578 C   0  0  0  0  0  0  0  0  0  0  0  0
  -26.6683  -10.4306  148.6670 C   0  0  0  0  0  0  0  0  0  0  0  0
  -26.0567   -8.6609  145.9195 C   0  0  0  0  0  0  0  0  0  0  0  0
  -24.0923  -10.0516  146.5528 C   0  0  0  0  0  0  0  0  0  0  0  0
  2  1  1  0
  3  1  1  0
  4  3  1  0
  5  2  1  0
  6  5  1  0
  7  4  1  0
  7  5  1  0
  7  6  1  0
  8  2  1  0
  9  4  1  0
 10  4  1  0
 14 11  1  0
 14 12  1  0
 15  9  1  0
 16 15  1  0
 17 13  1  0
 18 11  1  0
 18 13  1  0
 18 17  1  0
 19  3  1  0
 19 11  1  0
 22 21  1  0
 23 17  1  0
 23 18  1  0
 23 20  1  0
 24  1  1  0
 25 22  1  0
 26 21  2  0
 27  8  1  0
 27 21  1  0
 27 24  1  0
M  END
$$$$

     RDKit          3D

 25 30  0  0  0  0  0  0  0  0999 V2000
  -27.6292  -11.0945  148.0858 C   0  0  0  0  0  0  0  0  0  0  0  0
  -28.6068  -11.7890  147.2308 N   0  0  0  0  0  0  0  0  0  0  0  0
  -27.8119   -9.6339  148.0820 N   0  0  0  0  0  0  0  0  0  0  0  0
  -27.4221   -9.0576  146.7844 C   0  0  0  0  0  0  0  0  0  0  0  0
  -27.5223   -7.5410  146.7665 C   0  0  0  0  0  0  0  0  0  0  0  0
  -28.5349   -8.3738  145.9971 C   0  0  0  0  0  0  0  0  0  0  0  0
  -30.7484  -13.0339  147.2903 C   0  0  0  0  0  0  0  0  0  0  0  0
  -30.2504  -14.0283  146.3649 N   0  0  0  0  0  0  0  0  0  0  0  0
  -29.8818  -11.9695  147.9268 C   0  0  0  0  0  0  0  0  0  0  0  0
  -31.0757  -15.2557  146.4652 C   0  0  0  0  0  0  0  0  0  0  0  0
  -31.8041  -15.7349  147.7630 C   0  0  0  0  0  0  0  0  0  0  0  0
  -32.1374  -14.7849  148.9845 C   0  0  0  0  0  0  0  0  0  0  0  0
  -31.0719  -13.8050  149.5940 C   0  0  0  0  0  0  0  0  0  0  0  0
  -32.9542  -15.5300  150.0820 C   0  0  0  0  0  0  0  0  0  0  0  0
  -32.1789  -16.2799  151.1887 C   0  0  0  0  0  0  0  0  0  0  0  0
  -31.1956  -17.3514  150.6983 C   0  0  0  0  0  0  0  0  0  0  0  0
  -30.0240  -13.3248  148.6027 C   0  0  0  0  0  0  0  0  0  0  0  0
  -31.9005  -18.5738  150.0933 C   0  0  0  0  0  0  0  0  0  0  0  0
  -30.4193  -16.2585  147.4262 C   0  0  0  0  0  0  0  0  0  0  0  0
  -30.8682  -19.5392  149.4974 C   0  0  0  0  0  0  0  0  0  0  0  0
  -31.1966  -21.0220  149.6086 C   0  0  0  0  0  0  0  0  0  0  0  0
  -30.1360  -20.4063  150.5182 C   0  0  0  0  0  0  0  0  0  0  0  0
  -28.6934  -20.7574  150.1343 C   0  0  0  0  0  0  0  0  0  0  0  0
  -27.7506  -19.5670  150.0118 C   0  0  0  0  0  0  0  0  0  0  0  0
  -27.6738  -20.4717  151.2290 C   0  0  0  0  0  0  0  0  0  0  0  0
  2  1  1  0
  3  1  1  0
  4  3  1  0
  5  4  1  0
  6  4  1  0
  6  5  1  0
  8  7  1  0
  9  2  1  0
  9  7  1  0
 10  8  1  0
 11 10  1  0
 12 11  1  0
 13 12  1  0
 14 12  1  0
 15 14  1  0
 16 15  1  0
 17  7  1  0
 17  9  1  0
 17 13  1  0
 18 16  1  0
 19 10  1  0
 19 11  1  0
 20 18  1  0
 21 20  1  0
 22 20  1  0
 22 21  1  0
 23 22  1  0
 24 23  1  0
 25 23  1  0
 25 24  1  0
M  END
$$$$

     RDKit          3D

 31 35  0  0  0  0  0  0  0  0999 V2000
  -18.6494    1.9290  137.6254 Cl  0  0  0  0  0  0  0  0  0  0  0  0
  -19.2220    2.0152  135.9268 C   0  0  0  0  0  0  0  0  0  0  0  0
  -19.7151    0.6588  135.4292 C   0  0  0  0  0  0  0  0  0  0  0  0
  -20.2845    3.1152  135.6809 C   0  0  0  0  0  0  0  0  0  0  0  0
  -19.6771    0.6915  133.9035 C   0  0  0  0  0  0  0  0  0  0  0  0
  -20.9338    0.6570  132.9907 C   0  0  0  0  0  0  0  0  0  0  0  0
  -20.7826    3.0958  134.1754 C   0  0  0  0  0  0  0  0  0  0  0  0
  -20.1029   -0.5882  133.2260 C   0  0  0  0  0  0  0  0  0  0  0  0
  -20.9161    4.4773  133.4492 C   0  0  0  0  0  0  0  0  0  0  0  0
  -21.3888    3.1425  136.8210 C   0  0  0  0  0  0  0  0  0  0  0  0
  -19.8640    5.5797  133.7475 C   0  0  0  0  0  0  0  0  0  0  0  0
  -20.2269    6.9518  133.0443 C   0  0  0  0  0  0  0  0  0  0  0  0
  -18.5013    5.0537  133.4368 N   0  0  0  0  0  0  0  0  0  0  0  0
  -22.9100    3.3156  136.4873 C   0  0  0  0  0  0  0  0  0  0  0  0
  -20.4708    8.1667  134.0042 C   0  0  0  0  0  0  0  0  0  0  0  0
  -23.5121    2.2083  135.6618 C   0  0  0  0  0  0  0  0  0  0  0  0
  -19.3558    8.2622  135.0278 C   0  0  0  0  0  0  0  0  0  0  0  0
  -23.0828    0.9471  135.8057 C   0  0  0  0  0  0  0  0  0  0  0  0
  -19.4485    8.6518  136.3027 C   0  0  0  0  0  0  0  0  0  0  0  0
  -18.1172    5.0614  132.0105 C   0  0  0  0  0  0  0  0  0  0  0  0
  -23.0342   -0.0392  134.6721 C   0  0  0  0  0  0  0  0  0  0  0  0
  -20.6779    9.2218  136.9421 C   0  0  0  0  0  0  0  0  0  0  0  0
  -22.4790    0.4971  133.3051 C   0  0  0  0  0  0  0  0  0  0  0  0
  -21.9593    8.2853  134.4814 C   0  0  0  0  0  0  0  0  0  0  0  0
  -17.4304    5.5082  134.3317 C   0  0  0  0  0  0  0  0  0  0  0  0
  -17.0051    4.0648  131.7182 C   0  0  0  0  0  0  0  0  0  0  0  0
  -20.1711    1.9841  133.2423 C   0  0  0  0  0  0  0  0  0  0  0  0
  -21.3617   10.2197  136.0007 C   0  0  0  0  0  0  0  0  0  0  0  0
  -22.3376    9.5820  135.1015 N   0  0  0  0  0  0  0  0  0  0  0  0
  -22.9979   -0.3259  132.2955 O   0  0  0  0  0  0  0  0  0  0  0  0
  -22.5166    7.1192  135.3202 C   0  0  0  0  0  0  0  0  0  0  0  0
  2  1  1  0
  3  2  1  0
  4  2  1  0
  5  3  1  0
  6  5  1  0
  7  4  1  0
  8  5  1  0
  8  6  1  0
  9  7  1  0
 10  4  1  0
 11  9  1  0
 12 11  1  0
 13 11  1  0
 14 10  1  0
 15 12  1  0
 16 14  1  0
 17 15  1  0
 18 16  2  3
 19 17  2  0
 20 13  1  0
 21 18  1  0
 22 19  1  0
 23  6  1  0
 23 21  1  0
 24 15  1  0
 25 13  1  0
 26 20  1  0
 27  5  1  0
 27  6  1  0
 27  7  1  0
 28 22  1  0
 29 24  1  0
 29 28  1  0
 30 23  1  0
 31 24  1  0
M  END
$$$$

     RDKit          3D

 30 35  0  0  0  0  0  0  0  0999 V2000
  -25.8546  -11.5922  143.6912 O   0  0  0  0  0  0  0  0  0  0  0  0
  -26.1066  -13.0562  141.8813 C   0  0  0  0  0  0  0  0  0  0  0  0
  -27.8861  -12.7955  143.6794 C   0  0  0  0  0  0  0  0  0  0  0  0
  -27.1304  -12.8748  140.7235 C   0  0  0  0  0  0  0  0  0  0  0  0
  -29.0202  -12.5161  142.6540 C   0  0  0  0  0  0  0  0  0  0  0  0
  -29.9943  -13.7222  142.5183 C   0  0  0  0  0  0  0  0  0  0  0  0
  -26.5638  -12.4051  143.1216 C   0  0  0  0  0  0  0  0  0  0  0  0
  -29.6990  -13.7980  141.0153 C   0  0  0  0  0  0  0  0  0  0  0  0
  -26.4223  -12.3748  138.4878 C   0  0  0  0  0  0  0  0  0  0  0  0
  -29.6813  -11.1258  142.9522 C   0  0  0  0  0  0  0  0  0  0  0  0
  -29.3012  -15.1918  140.4475 C   0  0  0  0  0  0  0  0  0  0  0  0
  -27.4751  -13.4847  138.4354 C   0  0  0  0  0  0  0  0  0  0  0  0
  -27.0255  -14.1195  139.7675 C   0  0  0  0  0  0  0  0  0  0  0  0
  -28.6497  -12.6607  141.1528 C   0  0  0  0  0  0  0  0  0  0  0  0
  -31.6033   -9.6850  144.8193 F   0  0  0  0  0  0  0  0  0  0  0  0
  -32.3686  -11.9512  145.1426 C   0  0  0  0  0  0  0  0  0  0  0  0
  -26.6877  -11.8579  137.1423 N   0  0  0  0  0  0  0  0  0  0  0  0
  -26.7201  -11.6475  139.7882 C   0  0  0  0  0  0  0  0  0  0  0  0
  -25.7375  -12.4406  136.1701 C   0  0  0  0  0  0  0  0  0  0  0  0
  -27.7768  -15.3569  140.2844 C   0  0  0  0  0  0  0  0  0  0  0  0
  -26.5623  -13.7049  135.9576 C   0  0  0  0  0  0  0  0  0  0  0  0
  -27.5083  -13.0596  136.9473 C   0  0  0  0  0  0  0  0  0  0  0  0
  -30.0285  -15.5220  139.1041 C   0  0  0  0  0  0  0  0  0  0  0  0
  -30.9610  -10.7242  142.1360 C   0  0  0  0  0  0  0  0  0  0  0  0
  -32.4989  -10.6420  144.3384 C   0  0  0  0  0  0  0  0  0  0  0  0
  -32.3599  -10.8740  142.8198 C   0  0  0  0  0  0  0  0  0  0  0  0
  -30.7135  -16.8909  139.1281 C   0  0  0  0  0  0  0  0  0  0  0  0
  -30.7953   -9.3620  141.4032 C   0  0  0  0  0  0  0  0  0  0  0  0
  -32.1367  -16.8427  139.7023 C   0  0  0  0  0  0  0  0  0  0  0  0
  -30.8159   -8.1468  142.3392 C   0  0  0  0  0  0  0  0  0  0  0  0
  4  2  1  0
  5  3  1  0
  6  5  1  0
  7  1  2  0
  7  2  1  0
  7  3  1  0
  8  6  1  0
 10  5  1  0
 11  8  1  0
 12  9  1  0
 13  4  1  0
 13 12  1  0
 14  4  1  0
 14  5  1  0
 14  8  1  0
 17  9  1  0
 18  4  1  0
 18  9  1  0
 19 17  1  0
 20 11  1  0
 20 13  1  0
 21 19  1  0
 22 12  1  0
 22 17  1  0
 22 21  1  0
 23 11  1  0
 24 10  1  0
 25 15  1  0
 25 16  1  0
 26 24  1  0
 26 25  1  0
 27 23  1  0
 28 24  1  0
 29 27  1  0
 30 28  1  0
M  END
$$$$

     RDKit          3D

 31 32  0  0  0  0  0  0  0  0999 V2000
  -19.4043    5.6206  141.9921 O   0  0  0  0  0  0  0  0  0  0  0  0
  -20.0385    6.0396  140.9880 C   0  0  0  0  0  0  0  0  0  0  0  0
  -21.2459    6.6859  141.2433 O   0  0  0  0  0  0  0  0  0  0  0  0
  -19.6017    5.4628  139.6390 C   0  0  0  0  0  0  0  0  0  0  0  0
  -20.3597    5.9761  138.3312 C   0  0  0  0  0  0  0  0  0  0  0  0
  -19.4191    6.3416  137.1011 C   0  0  0  0  0  0  0  0  0  0  0  0
  -18.0425    5.4432  139.4028 C   0  0  0  0  0  0  0  0  0  0  0  0
  -17.6469    4.4430  138.1626 C   0  0  0  0  0  0  0  0  0  0  0  0
  -18.6385    2.8932  137.9961 C   0  0  0  0  0  0  0  0  0  0  0  0
  -18.8740    8.1629  137.6322 C   0  0  0  0  0  0  0  0  0  0  0  0
  -19.0010    1.8034  136.4485 C   0  0  0  0  0  0  0  0  0  0  0  0
  -16.7243    5.5206  136.9330 C   0  0  0  0  0  0  0  0  0  0  0  0
  -16.3289    5.0946  135.4293 C   0  0  0  0  0  0  0  0  0  0  0  0
  -17.4029    7.5037  133.7113 C   0  0  0  0  0  0  0  0  0  0  0  0
  -13.8380    4.4032  136.2262 C   0  0  0  0  0  0  0  0  0  0  0  0
  -18.1689    2.6801  135.6254 C   0  0  0  0  0  0  0  0  0  0  0  0
  -15.9139    3.2962  131.9791 C   0  0  0  0  0  0  0  0  0  0  0  0
  -17.6360    1.6237  134.2833 C   0  0  0  0  0  0  0  0  0  0  0  0
  -16.5931    0.3846  134.0878 C   0  0  0  0  0  0  0  0  0  0  0  0
  -14.9029    0.3911  133.7704 C   0  0  0  0  0  0  0  0  0  0  0  0
  -14.0721    0.1818  135.0883 C   0  0  0  0  0  0  0  0  0  0  0  0
  -18.4632    9.3562  139.0794 C   0  0  0  0  0  0  0  0  0  0  0  0
  -19.1582    4.6021  135.9694 C   0  0  0  0  0  0  0  0  0  0  0  0
  -16.8164    2.2575  136.5246 C   0  0  0  0  0  0  0  0  0  0  0  0
  -12.5409    0.0482  135.1070 C   0  0  0  0  0  0  0  0  0  0  0  0
  -11.9262   -0.3839  133.8376 N   0  0  0  0  0  0  0  0  0  0  0  0
  -12.5618    0.1658  132.6530 C   0  0  0  0  0  0  0  0  0  0  0  0
  -14.6295    3.7047  133.4797 P   0  0  0  0  0  0  0  0  0  0  0  0
  -14.0887   -0.2148  132.5654 C   0  0  0  0  0  0  0  0  0  0  0  0
  -17.3399    5.6164  133.9210 P   0  0  0  0  0  0  0  0  0  0  0  0
  -14.9238    4.6718  135.1265 C   0  0  0  0  0  0  0  0  0  0  0  0
  2  1  2  0
  3  2  1  0
  4  2  1  0
  5  4  1  0
  6  5  1  0
  7  4  1  0
  8  7  1  0
  9  8  1  0
 10  6  1  0
 11  9  1  0
 12  8  1  0
 13 12  1  0
 16 11  1  0
 18 16  1  0
 19 18  2  3
 20 19  1  0
 21 20  1  0
 22 10  1  0
 23  6  1  0
 23 16  1  0
 24 16  1  0
 25 21  1  0
 26 25  1  0
 27 26  1  0
 28 17  1  0
 29 20  1  0
 29 27  1  0
 30 13  1  0
 30 14  1  0
 31 13  1  0
 31 15  1  0
 31 28  1  0
M  END
$$$$

     RDKit          3D

 30 33  0  0  0  0  0  0  0  0999 V2000
  -16.3336    0.1577  143.0648 Sb  0  0  0  0  0  3  0  0  0  0  0  0
  -19.1379    0.0559  143.4942 C   0  0  0  0  0  0  0  0  0  0  0  0
  -16.4646   -2.5574  144.7414 C   0  0  0  0  0  0  0  0  0  0  0  0
  -17.8266    0.7363  144.2234 C   0  0  0  0  0  0  0  0  0  0  0  0
  -16.8313   -2.1201  143.3751 C   0  0  0  0  0  0  0  0  0  0  0  0
  -21.2790    0.2431  142.4147 C   0  0  0  0  0  0  0  0  0  0  0  0
  -19.8454   -0.6735  140.5168 C   0  0  0  0  0  0  0  0  0  0  0  0
  -20.0113    0.0752  142.0514 C   0  0  0  0  0  0  0  0  0  0  0  0
  -17.2032   -0.1600  145.5663 C   0  0  0  0  0  0  0  0  0  0  0  0
  -17.3247    0.6870  146.7551 N   0  0  0  0  0  0  0  0  0  0  0  0
  -15.8820   -1.3249  145.4553 C   0  0  0  0  0  0  0  0  0  0  0  0
  -18.5343   -2.7112  139.6506 C   0  0  0  0  0  0  0  0  0  0  0  0
  -14.2668   -1.1676  145.1996 C   0  0  0  0  0  0  0  0  0  0  0  0
  -17.0814    0.7751  139.0689 C   0  0  0  0  0  0  0  0  0  0  0  0
  -16.6160    2.1320  139.7835 C   0  0  0  0  0  0  0  0  0  0  0  0
  -17.0077   -0.7617  139.7831 C   0  0  0  0  0  0  0  0  0  0  0  0
  -17.2599   -3.5287  139.7136 N   0  0  0  0  0  0  0  0  0  0  0  0
  -16.5784    0.2571  147.9256 C   0  0  0  0  0  0  0  0  0  0  0  0
  -16.6142    2.8962  141.2122 C   0  0  0  0  0  0  0  0  0  0  0  0
  -17.9809    1.4798  140.0075 C   0  0  0  0  0  0  0  0  0  0  0  0
  -13.7838   -1.8841  143.8098 C   0  0  0  0  0  0  0  0  0  0  0  0
  -19.4768    5.6820  141.1385 C   0  0  0  0  0  0  0  0  0  0  0  0
  -14.8086   -1.8440  146.4402 C   0  0  0  0  0  0  0  0  0  0  0  0
  -18.3676   -1.4086  140.4191 C   0  0  0  0  0  0  0  0  0  0  0  0
  -18.6174    4.4809  140.6494 C   0  0  0  0  0  0  0  0  0  0  0  0
  -17.3605    0.8077  149.2168 C   0  0  0  0  0  0  0  0  0  0  0  0
  -16.0036    4.1820  140.6900 C   0  0  0  0  0  0  0  0  0  0  0  0
  -20.7183    6.0054  140.1704 C   0  0  0  0  0  0  0  0  0  0  0  0
  -17.1955    4.9990  140.0732 C   0  0  0  0  0  0  0  0  0  0  0  0
  -17.9872    3.4929  141.8049 C   0  0  0  0  0  0  0  0  0  0  0  0
  4  1  1  0
  4  2  1  0
  5  1  1  0
  5  3  1  0
  8  2  1  0
  8  6  2  0
  8  7  1  0
  9  4  1  0
 10  9  1  0
 11  3  1  0
 11  9  1  0
 13 11  1  0
 15 14  1  0
 16 14  1  0
 17 12  1  0
 18 10  1  0
 19 15  1  0
 20 14  1  0
 20 15  1  0
 21 13  1  0
 23 11  1  0
 23 13  1  0
 24  7  1  0
 24 12  1  0
 24 16  1  0
 25 22  1  0
 26 18  1  0
 27 19  1  0
 28 22  1  0
 29 25  1  0
 29 27  1  0
 30 19  1  0
 30 25  1  0
M  END
$$$$

     RDKit          3D

 31 34  0  0  0  0  0  0  0  0999 V2000
  -26.4868    3.7298  134.4743 F   0  0  0  0  0  0  0  0  0  0  0  0
  -27.7548    4.2313  134.5490 C   0  0  0  0  0  0  0  0  0  0  0  0
  -29.9064    3.1749  135.0530 C   0  0  0  0  0  0  0  0  0  0  0  0
  -30.6587    4.5852  135.4207 C   0  0  0  0  0  0  0  0  0  0  0  0
  -28.9970    3.9772  132.8862 C   0  0  0  0  0  0  0  0  0  0  0  0
  -28.7186    3.2276  134.1515 N   0  0  0  0  0  0  0  0  0  0  0  0
  -28.4862    3.2612  131.7885 O   0  0  0  0  0  0  0  0  0  0  0  0
  -28.5941    4.0994  130.6419 C   0  0  0  0  0  0  0  0  0  0  0  0
  -31.8352    4.7047  136.4434 C   0  0  0  0  0  0  0  0  0  0  0  0
  -27.6261    1.6649  139.0922 C   0  0  0  0  0  0  0  0  0  0  0  0
  -32.2723    3.9937  137.7744 C   0  0  0  0  0  0  0  0  0  0  0  0
  -28.9141    1.9768  139.9052 C   0  0  0  0  0  0  0  0  0  0  0  0
  -30.4218    5.2922  136.7323 C   0  0  0  0  0  0  0  0  0  0  0  0
  -29.3003    3.3611  140.0820 C   0  0  0  0  0  0  0  0  0  0  0  0
  -29.6538    2.2797  136.3613 C   0  0  0  0  0  0  0  0  0  0  0  0
  -32.9935    1.6061  136.8635 C   0  0  0  0  0  0  0  0  0  0  0  0
  -28.0788    5.1215  133.3526 C   0  0  0  0  0  0  0  0  0  0  0  0
  -30.8716    5.4725  134.3672 O   0  0  0  0  0  0  0  0  0  0  0  0
  -28.5271    4.0324  141.1133 C   0  0  0  0  0  0  0  0  0  0  0  0
  -27.0841    4.4120  140.7471 C   0  0  0  0  0  0  0  0  0  0  0  0
  -28.6996    2.5784  141.2413 N   0  0  0  0  0  0  0  0  0  0  0  0
  -28.2925    1.5986  136.6642 C   0  0  0  0  0  0  0  0  0  0  0  0
  -33.7742    2.4977  139.3095 C   0  0  0  0  0  0  0  0  0  0  0  0
  -33.5824    1.1752  139.7784 O   0  0  0  0  0  0  0  0  0  0  0  0
  -32.5434    1.0880  140.7338 C   0  0  0  0  0  0  0  0  0  0  0  0
  -32.0954   -0.4302  140.8622 C   0  0  0  0  0  0  0  0  0  0  0  0
  -33.5137   -1.6211  141.5152 Se  0  0  0  0  0  2  0  0  0  0  0  0
  -33.3077    2.8125  137.8300 C   0  0  0  0  0  0  0  0  0  0  0  0
  -32.9617    1.6165  142.1304 C   0  0  0  0  0  0  0  0  0  0  0  0
  -32.2130    0.4241  137.4565 C   0  0  0  0  0  0  0  0  0  0  0  0
  -27.4582    2.2593  137.7113 N   0  0  0  0  0  0  0  0  0  0  0  0
  2  1  1  0
  4  3  1  0
  6  2  1  0
  6  3  1  0
  6  5  1  0
  7  5  1  0
  8  7  1  0
  9  4  1  0
 11  9  1  0
 12 10  1  0
 13  4  1  0
 13  9  1  0
 14 12  1  0
 15  3  1  0
 17  2  1  0
 17  5  1  0
 18  4  1  0
 19 14  1  0
 20 19  1  0
 21 12  1  0
 21 14  1  0
 21 19  1  0
 22 15  1  0
 24 23  1  0
 25 24  1  0
 26 25  1  0
 27 26  1  0
 28 11  1  0
 28 16  1  0
 28 23  1  0
 29 25  1  0
 30 16  1  0
 31 10  1  0
 31 22  1  0
M  END
$$$$

     RDKit          3D

 31 41  0  0  0  0  0  0  0  0999 V2000
  -28.0089   -7.3473  151.5821 C   0  0  0  0  0  0  0  0  0  0  0  0
  -28.7451   -5.9313  151.1351 C   0  0  0  0  0  0  0  0  0  0  0  0
  -25.4431   -7.8974  152.3720 C   0  0  0  0  0  0  0  0  0  0  0  0
  -27.9471   -4.8867  150.2421 C   0  0  0  0  0  0  0  0  0  0  0  0
  -27.0139   -4.0241  151.2636 C   0  0  0  0  0  0  0  0  0  0  0  0
  -26.5251   -7.7290  151.2763 C   0  0  0  0  0  0  0  0  0  0  0  0
  -27.0900   -5.0239  148.8789 C   0  0  0  0  0  0  0  0  0  0  0  0
  -27.4522   -2.5277  151.7325 C   0  0  0  0  0  0  0  0  0  0  0  0
  -25.3838   -1.0527  152.2041 C   0  0  0  0  0  0  0  0  0  0  0  0
  -26.2702   -2.2423  152.7585 C   0  0  0  0  0  0  0  0  0  0  0  0
  -25.7292   -5.1054  149.3567 C   0  0  0  0  0  0  0  0  0  0  0  0
  -26.0271   -7.9269  150.0419 C   0  0  0  0  0  0  0  0  0  0  0  0
  -25.0531   -4.1604  148.4436 C   0  0  0  0  0  0  0  0  0  0  0  0
  -27.2256   -4.9833  147.3276 C   0  0  0  0  0  0  0  0  0  0  0  0
  -25.0132   -5.5366  150.8559 C   0  0  0  0  0  0  0  0  0  0  0  0
  -27.4761   -1.4545  150.7649 O   0  0  0  0  0  0  0  0  0  0  0  0
  -26.2255   -5.9071  146.5935 C   0  0  0  0  0  0  0  0  0  0  0  0
  -24.8412   -6.4817  152.6437 C   0  0  0  0  0  0  0  0  0  0  0  0
  -26.1611   -0.8698  150.8189 C   0  0  0  0  0  0  0  0  0  0  0  0
  -24.3509   -5.4702  149.2518 C   0  0  0  0  0  0  0  0  0  0  0  0
  -26.6296   -6.9650  145.5581 C   0  0  0  0  0  0  0  0  0  0  0  0
  -24.2766   -5.6868  154.0584 C   0  0  0  0  0  0  0  0  0  0  0  0
  -26.1986   -1.0870  153.5996 C   0  0  0  0  0  0  0  0  0  0  0  0
  -27.3741   -3.5613  146.6669 C   0  0  0  0  0  0  0  0  0  0  0  0
  -25.2800   -4.1984  151.2434 C   0  0  0  0  0  0  0  0  0  0  0  0
  -26.6299   -3.8223  148.0759 C   0  0  0  0  0  0  0  0  0  0  0  0
  -26.2988   -3.1654  145.6154 C   0  0  0  0  0  0  0  0  0  0  0  0
  -27.0442   -2.0797  146.3475 C   0  0  0  0  0  0  0  0  0  0  0  0
  -24.8074   -6.0481  146.2102 C   0  0  0  0  0  0  0  0  0  0  0  0
  -25.2294   -7.1738  145.3076 C   0  0  0  0  0  0  0  0  0  0  0  0
  -23.2339   -5.5563  146.2998 C   0  0  0  0  0  0  0  0  0  0  0  0
  2  1  1  0
  4  2  1  0
  5  4  1  0
  6  1  1  0
  6  3  1  0
  7  4  1  0
  8  5  1  0
 10  8  1  0
 10  9  1  0
 11  7  1  0
 12  6  2  0
 13 11  1  0
 14  7  1  0
 15 11  1  0
 16  8  1  0
 17 14  1  0
 18  3  1  0
 18 15  1  0
 19  9  1  0
 19 16  1  0
 20 11  1  0
 20 13  1  0
 20 15  1  0
 21 17  1  0
 22 18  1  0
 23  9  1  0
 23 10  1  0
 24 14  1  0
 25  5  1  0
 25 15  1  0
 26  7  1  0
 26 13  1  0
 26 14  1  0
 26 24  1  0
 27 24  1  0
 28 24  1  0
 28 27  1  0
 29 17  2  0
 30 21  1  0
 30 29  1  0
 31 29  1  0
M  END
$$$$

     RDKit          3D

 11 11  0  0  0  0  0  0  0  0999 V2000
  -22.0134  -14.8190  149.9139 N   0  0  0  0  0  0  0  0  0  0  0  0
  -21.8895  -15.2980  148.5726 C   0  0  0  0  0  0  0  0  0  0  0  0
  -22.8544  -15.1881  147.7718 O   0  0  0  0  0  0  0  0  0  0  0  0
  -20.8364  -17.4382  150.7248 C   0  0  0  0  0  0  0  0  0  0  0  0
  -21.7820  -16.3049  152.8228 C   0  0  0  0  0  0  0  0  0  0  0  0
  -23.2818  -16.2500  152.4628 C   0  0  0  0  0  0  0  0  0  0  0  0
  -20.8923  -14.8613  150.8531 C   0  0  0  0  0  0  0  0  0  0  0  0
  -23.8905  -14.8835  152.8192 C   0  0  0  0  0  0  0  0  0  0  0  0
  -24.5573  -14.7942  154.1841 C   0  0  0  0  0  0  0  0  0  0  0  0
  -20.7980  -16.1973  151.6306 C   0  0  0  0  0  0  0  0  0  0  0  0
  -25.4073  -14.8667  152.9246 C   0  0  0  0  0  0  0  0  0  0  0  0
  2  1  1  0
  3  2  2  0
  6  5  1  0
  7  1  1  0
  8  6  1  0
  9  8  1  0
 10  4  1  0
 10  5  1  0
 10  7  1  0
 11  8  1  0
 11  9  1  0
M  END
$$$$

     RDKit          3D

 11 11  0  0  0  0  0  0  0  0999 V2000
  -32.1050   -7.4413  140.1092 C   0  0  0  0  0  0  0  0  0  0  0  0
  -31.2010   -8.4354  142.2575 N   0  0  0  0  0  0  0  0  0  0  0  0
  -30.0124   -8.8442  143.1090 C   0  0  0  0  0  0  0  0  0  0  0  0
  -32.9449   -6.2836  140.6987 C   0  0  0  0  0  0  0  0  0  0  0  0
  -32.1219   -5.0396  141.0753 C   0  0  0  0  0  0  0  0  0  0  0  0
  -31.0347   -7.9084  141.0667 C   0  0  0  0  0  0  0  0  0  0  0  0
  -31.5064   -4.3626  139.8400 C   0  0  0  0  0  0  0  0  0  0  0  0
  -32.9798   -8.5608  139.7518 N   0  0  0  0  0  0  0  0  0  0  0  0
  -30.4851   -9.3882  144.3751 N   0  0  0  0  0  0  0  0  0  0  0  0
  -32.4155   -3.3953  139.0973 C   0  0  0  0  0  0  0  0  0  0  0  0
  -31.2900   -2.8620  139.9705 C   0  0  0  0  0  0  0  0  0  0  0  0
  3  2  1  0
  4  1  1  0
  5  4  1  0
  6  1  1  0
  6  2  2  3
  7  5  1  0
  8  1  1  0
  9  3  1  0
 10  7  1  0
 11  7  1  0
 11 10  1  0
M  END
$$$$

     RDKit          3D

 31 36  0  0  0  0  0  0  0  0999 V2000
  -21.9841  -12.7078  145.3908 C   0  0  0  0  0  0  0  0  0  0  0  0
  -21.0944  -11.1348  144.1373 C   0  0  0  0  0  0  0  0  0  0  0  0
  -20.7199   -9.8839  144.8881 C   0  0  0  0  0  0  0  0  0  0  0  0
  -18.9178   -9.4649  142.9051 C   0  0  0  0  0  0  0  0  0  0  0  0
  -20.3975  -11.2863  141.0895 C   0  0  0  0  0  0  0  0  0  0  0  0
  -20.0552   -8.9349  143.7738 C   0  0  0  0  0  0  0  0  0  0  0  0
  -21.2942   -9.7405  143.5339 C   0  0  0  0  0  0  0  0  0  0  0  0
  -23.2638  -11.8849  145.6109 C   0  0  0  0  0  0  0  0  0  0  0  0
  -23.2174  -10.6997  146.4978 N   0  0  0  0  0  0  0  0  0  0  0  0
  -23.5325   -9.5008  145.8311 N   0  0  0  0  0  0  0  0  0  0  0  0
  -20.7471  -12.3207  142.2473 N   0  0  0  0  0  0  0  0  0  0  0  0
  -17.7360  -10.6405  140.9094 C   0  0  0  0  0  0  0  0  0  0  0  0
  -19.9923  -12.0086  143.3687 C   0  0  0  0  0  0  0  0  0  0  0  0
  -19.1628  -10.1192  141.4548 C   0  0  0  0  0  0  0  0  0  0  0  0
  -25.1956   -8.3026  144.5757 C   0  0  0  0  0  0  0  0  0  0  0  0
  -19.3061  -13.2010  144.0831 C   0  0  0  0  0  0  0  0  0  0  0  0
  -22.4580  -11.7366  144.3355 C   0  0  0  0  0  0  0  0  0  0  0  0
  -20.8774  -13.8484  142.3111 C   0  0  0  0  0  0  0  0  0  0  0  0
  -19.2510  -15.5820  142.3241 C   0  0  0  0  0  0  0  0  0  0  0  0
  -18.1886  -15.0606  141.1725 C   0  0  0  0  0  0  0  0  0  0  0  0
  -20.3197  -16.7316  142.0877 C   0  0  0  0  0  0  0  0  0  0  0  0
  -19.8189  -14.4218  143.3344 C   0  0  0  0  0  0  0  0  0  0  0  0
  -20.6681  -17.6691  143.2004 C   0  0  0  0  0  0  0  0  0  0  0  0
  -21.7092  -17.3670  144.2903 C   0  0  0  0  0  0  0  0  0  0  0  0
  -18.7764  -15.1676  139.7307 C   0  0  0  0  0  0  0  0  0  0  0  0
  -18.8497  -15.5931  143.7110 C   0  0  0  0  0  0  0  0  0  0  0  0
  -16.9600  -15.9902  141.2868 C   0  0  0  0  0  0  0  0  0  0  0  0
  -20.1786  -18.9686  143.1202 C   0  0  0  0  0  0  0  0  0  0  0  0
  -24.4391   -9.4003  144.7543 C   0  0  0  0  0  0  0  0  0  0  0  0
  -21.0132  -16.8989  140.9418 C   0  0  0  0  0  0  0  0  0  0  0  0
  -17.2298  -17.5270  141.0105 C   0  0  0  0  0  0  0  0  0  0  0  0
  3  2  1  0
  6  3  1  0
  6  4  1  0
  7  2  1  0
  7  3  1  0
  7  6  1  0
  8  1  1  0
  9  8  1  0
 10  9  1  0
 11  5  1  0
 13  2  1  0
 13 11  1  0
 14  4  1  0
 14  5  1  0
 14 12  1  0
 16 13  1  0
 17  1  1  0
 17  2  1  0
 17  8  1  0
 18 11  1  0
 20 19  1  0
 21 19  1  0
 22 16  1  0
 22 18  1  0
 22 19  1  0
 23 21  1  0
 24 23  1  0
 25 20  1  0
 26 19  1  0
 26 22  1  0
 27 20  1  0
 28 23  2  0
 29 10  1  0
 29 15  2  0
 30 21  2  0
 31 27  1  0
M  END
$$$$

     RDKit          3D

 22 24  0  0  0  0  0  0  0  0999 V2000
  -21.4515   -1.3681  146.0771 O   0  0  0  0  0  0  0  0  0  0  0  0
  -21.6700   -0.3153  148.1310 O   0  0  0  0  0  0  0  0  0  0  0  0
  -21.0248    1.5831  143.8886 C   0  0  0  0  0  0  0  0  0  0  0  0
  -18.5363   -0.3968  145.0363 O   0  0  0  0  0  0  0  0  0  0  0  0
  -24.1328    1.5768  148.9590 C   0  0  0  0  0  0  0  0  0  0  0  0
  -19.4623   -0.4345  144.2430 C   0  0  0  0  0  0  0  0  0  0  0  0
  -23.1359    0.9988  143.2065 C   0  0  0  0  0  0  0  0  0  0  0  0
  -19.7821    0.7790  143.4105 C   0  0  0  0  0  0  0  0  0  0  0  0
  -20.7270   -2.3318  145.3284 C   0  0  0  0  0  0  0  0  0  0  0  0
  -21.0489   -1.3740  147.4389 C   0  0  0  0  0  0  0  0  0  0  0  0
  -21.4422    2.5552  142.7623 C   0  0  0  0  0  0  0  0  0  0  0  0
  -20.2146   -1.7205  144.0183 C   0  0  0  0  0  0  0  0  0  0  0  0
  -20.7133    2.3991  145.1611 C   0  0  0  0  0  0  0  0  0  0  0  0
  -23.0701   -0.5154  148.2248 C   0  0  0  0  0  0  0  0  0  0  0  0
  -22.9107    2.2635  149.5807 C   0  0  0  0  0  0  0  0  0  0  0  0
  -20.5308    1.5546  146.2604 O   0  0  0  0  0  0  0  0  0  0  0  0
  -22.9039    3.0627  142.7585 C   0  0  0  0  0  0  0  0  0  0  0  0
  -22.4812    1.7596  142.1012 C   0  0  0  0  0  0  0  0  0  0  0  0
  -23.8460    2.2714  143.6622 C   0  0  0  0  0  0  0  0  0  0  0  0
  -23.7763    0.7095  147.8223 N   0  0  0  0  0  0  0  0  0  0  0  0
  -22.1123    0.6864  144.1339 O   0  0  0  0  0  0  0  0  0  0  0  0
  -25.3092    2.3523  143.2178 C   0  0  0  0  0  0  0  0  0  0  0  0
  6  4  2  0
  8  3  1  0
  8  6  1  0
  9  1  1  0
 10  1  1  0
 10  2  1  0
 11  3  1  0
 12  6  1  0
 12  9  1  0
 13  3  1  0
 14  2  1  0
 15  5  1  0
 16 13  1  0
 17 11  1  0
 18  7  1  0
 18 11  1  0
 18 17  1  0
 19  7  1  0
 19 17  1  0
 20  5  1  0
 20 14  1  0
 21  3  1  0
 21  7  1  0
 22 19  1  0
M  END
$$$$

     RDKit          3D

 31 37  0  0  0  0  0  0  0  0999 V2000
  -26.8992  -24.2980  151.0656 C   0  0  0  0  0  0  0  0  0  0  0  0
  -26.5568  -25.6634  151.7340 C   0  0  0  0  0  0  0  0  0  0  0  0
  -25.1394  -26.3844  151.4594 C   0  0  0  0  0  0  0  0  0  0  0  0
  -24.1835  -25.8286  150.2687 C   0  0  0  0  0  0  0  0  0  0  0  0
  -27.4139  -23.7929  149.7135 C   0  0  0  0  0  0  0  0  0  0  0  0
  -23.3507  -24.5467  150.4026 C   0  0  0  0  0  0  0  0  0  0  0  0
  -28.1617  -24.7517  148.7798 C   0  0  0  0  0  0  0  0  0  0  0  0
  -23.8424  -23.5580  151.3507 C   0  0  0  0  0  0  0  0  0  0  0  0
  -25.9214  -23.9816  149.9259 C   0  0  0  0  0  0  0  0  0  0  0  0
  -21.8769  -24.4858  150.7002 C   0  0  0  0  0  0  0  0  0  0  0  0
  -25.2648  -25.2913  149.2720 C   0  0  0  0  0  0  0  0  0  0  0  0
  -21.2607  -24.9447  149.2817 C   0  0  0  0  0  0  0  0  0  0  0  0
  -27.7353  -26.6767  151.8485 C   0  0  0  0  0  0  0  0  0  0  0  0
  -28.9956  -26.2392  152.6532 C   0  0  0  0  0  0  0  0  0  0  0  0
  -24.4859  -26.6743  152.8372 C   0  0  0  0  0  0  0  0  0  0  0  0
  -28.6587  -25.5570  153.9953 C   0  0  0  0  0  0  0  0  0  0  0  0
  -24.9599  -22.8344  150.5100 C   0  0  0  0  0  0  0  0  0  0  0  0
  -29.9883  -25.4046  151.8248 C   0  0  0  0  0  0  0  0  0  0  0  0
  -21.2855  -23.0259  150.7102 C   0  0  0  0  0  0  0  0  0  0  0  0
  -21.7148  -21.8819  149.7666 C   0  0  0  0  0  0  0  0  0  0  0  0
  -22.5500  -28.1010  150.4628 C   0  0  0  0  0  0  0  0  0  0  0  0
  -22.3416  -23.2923  151.6818 C   0  0  0  0  0  0  0  0  0  0  0  0
  -22.0701  -26.1437  148.6671 C   0  0  0  0  0  0  0  0  0  0  0  0
  -20.5773  -26.2535  148.8969 C   0  0  0  0  0  0  0  0  0  0  0  0
  -21.8565  -29.3225  149.3364 Cl  0  0  0  0  0  0  0  0  0  0  0  0
  -20.2451  -27.4710  151.9136 C   0  0  0  0  0  0  0  0  0  0  0  0
  -21.7726  -29.3333  152.6397 C   0  0  0  0  0  0  0  0  0  0  0  0
  -23.0854  -29.8371  152.7444 O   0  0  0  0  0  0  0  0  0  0  0  0
  -19.1525  -28.4066  151.3811 C   0  0  0  0  0  0  0  0  0  0  0  0
  -21.7043  -28.0031  151.8325 C   0  0  0  0  0  0  0  0  0  0  0  0
  -23.1217  -26.8648  149.6203 C   0  0  0  0  0  0  0  0  0  0  0  0
  2  1  1  0
  3  2  1  0
  4  3  1  0
  5  1  1  0
  6  4  1  0
  7  5  1  0
  8  6  1  0
  9  1  1  0
  9  5  1  0
 10  6  1  0
 11  4  1  0
 11  9  1  0
 12 10  1  0
 13  2  1  0
 14 13  1  0
 15  3  1  0
 16 14  1  0
 17  8  1  0
 17  9  1  0
 18 14  1  0
 19 10  1  0
 20 19  1  0
 22  8  1  0
 22 10  1  0
 22 19  1  0
 23 12  1  0
 24 12  1  0
 24 23  1  0
 25 21  1  0
 28 27  1  0
 29 26  1  0
 30 21  1  0
 30 26  1  0
 30 27  1  0
 31  4  1  0
 31 21  1  0
 31 23  1  0
M  END
$$$$

     RDKit          3D

 31 36  0  0  0  0  0  0  0  0999 V2000
  -21.6632  -13.3981  150.9018 C   0  0  0  0  0  0  0  0  0  0  0  0
  -21.9133  -11.8803  148.9582 C   0  0  0  0  0  0  0  0  0  0  0  0
  -22.9596  -10.8286  149.4289 C   0  0  0  0  0  0  0  0  0  0  0  0
  -22.2330  -14.6436  150.2158 C   0  0  0  0  0  0  0  0  0  0  0  0
  -23.1877  -10.7102  151.5764 F   0  0  0  0  0  0  0  0  0  0  0  0
  -23.2520  -15.2881  150.9324 O   0  0  0  0  0  0  0  0  0  0  0  0
  -24.2731  -11.4604  149.0502 C   0  0  0  0  0  0  0  0  0  0  0  0
  -24.3602  -10.1895  149.7447 C   0  0  0  0  0  0  0  0  0  0  0  0
  -21.0322  -12.3800  150.0332 N   0  0  0  0  0  0  0  0  0  0  0  0
  -20.8753  -14.7093  150.8630 C   0  0  0  0  0  0  0  0  0  0  0  0
  -23.8213  -11.3683  150.5356 C   0  0  0  0  0  0  0  0  0  0  0  0
  -24.6411  -16.5060  149.2361 C   0  0  0  0  0  0  0  0  0  0  0  0
  -24.2567  -16.2451  147.7534 C   0  0  0  0  0  0  0  0  0  0  0  0
  -23.8665  -17.5363  146.9775 C   0  0  0  0  0  0  0  0  0  0  0  0
  -23.3655  -17.3425  145.5895 N   0  0  0  0  0  0  0  0  0  0  0  0
  -22.2019  -16.4639  145.4051 C   0  0  0  0  0  0  0  0  0  0  0  0
  -24.4545  -15.2563  150.1606 C   0  0  0  0  0  0  0  0  0  0  0  0
  -24.0113  -17.6315  149.8124 O   0  0  0  0  0  0  0  0  0  0  0  0
  -23.6281  -18.4164  144.5651 C   0  0  0  0  0  0  0  0  0  0  0  0
  -24.5633  -18.0133  143.3840 C   0  0  0  0  0  0  0  0  0  0  0  0
  -20.4681  -15.0544  146.5291 C   0  0  0  0  0  0  0  0  0  0  0  0
  -21.6175  -16.1622  144.0402 C   0  0  0  0  0  0  0  0  0  0  0  0
  -25.9811  -17.4285  143.5624 C   0  0  0  0  0  0  0  0  0  0  0  0
  -26.8836  -18.0977  144.5539 C   0  0  0  0  0  0  0  0  0  0  0  0
  -23.9849  -19.7934  145.1359 C   0  0  0  0  0  0  0  0  0  0  0  0
  -19.1608  -15.6492  145.9819 C   0  0  0  0  0  0  0  0  0  0  0  0
  -27.2893  -17.2726  145.7445 C   0  0  0  0  0  0  0  0  0  0  0  0
  -26.3669  -16.6146  144.7626 C   0  0  0  0  0  0  0  0  0  0  0  0
  -17.8944  -14.9847  146.5574 C   0  0  0  0  0  0  0  0  0  0  0  0
  -21.6063  -15.9813  146.4553 N   0  0  0  0  0  0  0  0  0  0  0  0
  -17.5393  -15.5205  147.9293 C   0  0  0  0  0  0  0  0  0  0  0  0
  3  2  1  0
  4  1  1  0
  6  4  1  0
  7  3  1  0
  8  3  1  0
  8  7  1  0
  9  1  1  0
  9  2  1  0
 10  1  1  0
 10  4  1  0
 11  3  1  0
 11  5  1  0
 11  7  1  0
 11  8  1  0
 13 12  1  0
 14 13  1  0
 15 14  1  0
 16 15  1  0
 17  6  1  0
 17 12  1  0
 18 12  1  0
 19 15  1  0
 20 19  1  0
 22 16  1  0
 23 20  1  0
 24 23  1  0
 25 19  1  0
 26 21  1  0
 27 24  1  0
 28 23  1  0
 28 24  1  0
 28 27  1  0
 29 26  1  0
 30 16  2  3
 30 21  1  0
 31 29  1  0
M  END
$$$$

     RDKit          3D

 31 37  0  0  0  0  0  0  0  0999 V2000
  -30.7949  -11.1943  141.5564 F   0  0  0  0  0  0  0  0  0  0  0  0
  -29.4932  -11.0225  141.9964 C   0  0  0  0  0  0  0  0  0  0  0  0
  -28.9762   -9.6339  141.6042 C   0  0  0  0  0  0  0  0  0  0  0  0
  -28.5604  -12.0508  141.3683 C   0  0  0  0  0  0  0  0  0  0  0  0
  -27.2522  -11.2959  141.0900 C   0  0  0  0  0  0  0  0  0  0  0  0
  -27.5555   -9.7994  141.1575 C   0  0  0  0  0  0  0  0  0  0  0  0
  -28.6734   -9.3715  140.1378 C   0  0  0  0  0  0  0  0  0  0  0  0
  -26.8548  -11.1294  139.6005 C   0  0  0  0  0  0  0  0  0  0  0  0
  -24.9596  -10.7427  137.8500 C   0  0  0  0  0  0  0  0  0  0  0  0
  -26.1876  -11.6805  142.0276 N   0  0  0  0  0  0  0  0  0  0  0  0
  -27.2619   -9.6514  139.6825 C   0  0  0  0  0  0  0  0  0  0  0  0
  -24.5602  -11.8822  136.8470 C   0  0  0  0  0  0  0  0  0  0  0  0
  -23.0809  -12.2672  136.8864 C   0  0  0  0  0  0  0  0  0  0  0  0
  -23.8806   -9.6248  138.0258 C   0  0  0  0  0  0  0  0  0  0  0  0
  -22.4845  -12.6976  138.0107 C   0  0  0  0  0  0  0  0  0  0  0  0
  -24.9806  -11.5386  135.4063 C   0  0  0  0  0  0  0  0  0  0  0  0
  -23.7785   -8.6379  136.8473 C   0  0  0  0  0  0  0  0  0  0  0  0
  -22.5484   -7.7159  136.8438 C   0  0  0  0  0  0  0  0  0  0  0  0
  -21.3966   -7.9703  137.8436 C   0  0  0  0  0  0  0  0  0  0  0  0
  -21.5049   -7.2920  139.2150 C   0  0  0  0  0  0  0  0  0  0  0  0
  -22.6706   -8.8446  135.8248 C   0  0  0  0  0  0  0  0  0  0  0  0
  -22.6766   -6.3423  139.5031 C   0  0  0  0  0  0  0  0  0  0  0  0
  -21.0063  -12.9884  138.0869 C   0  0  0  0  0  0  0  0  0  0  0  0
  -20.7100  -14.5065  138.1286 C   0  0  0  0  0  0  0  0  0  0  0  0
  -25.3603  -11.3173  139.2564 C   0  0  0  0  0  0  0  0  0  0  0  0
  -20.5301   -6.7534  138.1746 C   0  0  0  0  0  0  0  0  0  0  0  0
  -19.1894  -14.7279  138.1997 C   0  0  0  0  0  0  0  0  0  0  0  0
  -21.3672  -15.1572  139.3640 C   0  0  0  0  0  0  0  0  0  0  0  0
  -19.0554   -7.0761  138.4335 C   0  0  0  0  0  0  0  0  0  0  0  0
  -22.7720  -15.7054  139.1540 C   0  0  0  0  0  0  0  0  0  0  0  0
  -21.6024  -16.6578  139.2776 C   0  0  0  0  0  0  0  0  0  0  0  0
  2  1  1  0
  3  2  1  0
  4  2  1  0
  5  4  1  0
  6  3  1  0
  6  5  1  0
  7  3  1  0
  7  6  1  0
  8  5  1  0
 10  5  1  0
 11  6  1  0
 11  7  1  0
 11  8  1  0
 12  9  1  0
 13 12  1  0
 14  9  1  0
 15 13  2  3
 16 12  1  0
 17 14  1  0
 18 17  1  0
 19 18  1  0
 20 19  1  0
 21 17  1  0
 21 18  1  0
 22 20  1  0
 23 15  1  0
 24 23  1  0
 25  8  1  0
 25  9  1  0
 26 19  1  0
 26 20  1  0
 27 24  1  0
 28 24  1  0
 29 26  1  0
 30 28  1  0
 31 28  1  0
 31 30  1  0
M  END
$$$$

     RDKit          3D

 31 36  0  0  0  0  0  0  0  0999 V2000
  -23.6894   -3.5956  142.8753 C   0  0  0  0  0  0  0  0  0  0  0  0
  -22.9526   -4.5607  140.4817 C   0  0  0  0  0  0  0  0  0  0  0  0
  -23.7797   -2.1823  143.5775 C   0  0  0  0  0  0  0  0  0  0  0  0
  -24.8592   -1.3475  143.0119 N   0  0  0  0  0  0  0  0  0  0  0  0
  -24.9618   -4.5456  142.7411 C   0  0  0  0  0  0  0  0  0  0  0  0
  -26.2982   -4.3349  143.5163 C   0  0  0  0  0  0  0  0  0  0  0  0
  -26.3417   -4.7526  144.9834 C   0  0  0  0  0  0  0  0  0  0  0  0
  -24.7952   -1.6237  144.4782 C   0  0  0  0  0  0  0  0  0  0  0  0
  -25.0552   -4.8625  145.7722 C   0  0  0  0  0  0  0  0  0  0  0  0
  -24.1561   -6.0379  145.3351 C   0  0  0  0  0  0  0  0  0  0  0  0
  -24.6082   -6.8278  144.0887 C   0  0  0  0  0  0  0  0  0  0  0  0
  -27.3445   -5.5620  145.3601 C   0  0  0  0  0  0  0  0  0  0  0  0
  -24.5498   -6.0555  142.7531 C   0  0  0  0  0  0  0  0  0  0  0  0
  -25.1975   -0.3081  144.0025 C   0  0  0  0  0  0  0  0  0  0  0  0
  -22.9810   -3.3537  141.4675 C   0  0  0  0  0  0  0  0  0  0  0  0
  -28.4576   -5.1096  146.2970 C   0  0  0  0  0  0  0  0  0  0  0  0
  -21.4962   -2.8582  141.6202 C   0  0  0  0  0  0  0  0  0  0  0  0
  -21.5962   -0.4605  140.7278 C   0  0  0  0  0  0  0  0  0  0  0  0
  -29.4624   -6.2755  146.5683 C   0  0  0  0  0  0  0  0  0  0  0  0
  -21.0849   -1.8867  140.4971 C   0  0  0  0  0  0  0  0  0  0  0  0
  -21.0441    0.4914  139.6770 C   0  0  0  0  0  0  0  0  0  0  0  0
  -29.8542   -5.0610  145.6881 C   0  0  0  0  0  0  0  0  0  0  0  0
  -28.0600   -4.1253  147.4364 C   0  0  0  0  0  0  0  0  0  0  0  0
  -30.6842   -6.5441  147.4825 C   0  0  0  0  0  0  0  0  0  0  0  0
  -29.1271   -3.2386  148.1070 C   0  0  0  0  0  0  0  0  0  0  0  0
  -30.2204   -3.9363  148.9341 C   0  0  0  0  0  0  0  0  0  0  0  0
  -30.0771   -5.3750  144.1856 C   0  0  0  0  0  0  0  0  0  0  0  0
  -30.3755   -7.6324  148.4439 C   0  0  0  0  0  0  0  0  0  0  0  0
  -29.8881   -5.3327  149.4936 C   0  0  0  0  0  0  0  0  0  0  0  0
  -28.9273   -8.0496  148.7722 C   0  0  0  0  0  0  0  0  0  0  0  0
  -30.8294   -6.3136  148.9474 N   0  0  0  0  0  0  0  0  0  0  0  0
  3  1  1  0
  4  3  1  0
  5  1  1  0
  6  5  1  0
  7  6  1  0
  8  3  1  0
  8  4  1  0
  9  7  1  0
 10  9  1  0
 11 10  1  0
 12  7  2  3
 13  5  1  0
 13 11  1  0
 14  4  1  0
 14  8  1  0
 15  1  1  0
 15  2  1  0
 16 12  1  0
 17 15  1  0
 19 16  1  0
 20 17  1  0
 20 18  1  0
 21 18  1  0
 22 16  1  0
 22 19  1  0
 23 16  1  0
 24 19  1  0
 25 23  1  0
 26 25  1  0
 27 22  1  0
 28 24  1  0
 29 26  1  0
 30 28  1  0
 31 24  1  0
 31 28  1  0
 31 29  1  0
M  END
$$$$

     RDKit          3D

 31 37  0  0  0  0  0  0  0  0999 V2000
  -25.6075    0.9483  141.7672 O   0  0  0  0  0  0  0  0  0  0  0  0
  -24.8919    1.3253  143.8540 C   0  0  0  0  0  0  0  0  0  0  0  0
  -26.0060    0.8767  143.0194 O   0  0  0  0  0  0  0  0  0  0  0  0
  -24.6592    2.8845  143.6731 C   0  0  0  0  0  0  0  0  0  0  0  0
  -23.7227    3.5249  144.7727 C   0  0  0  0  0  0  0  0  0  0  0  0
  -22.2265    3.8256  144.4946 C   0  0  0  0  0  0  0  0  0  0  0  0
  -21.1835    1.3942  144.9973 C   0  0  0  0  0  0  0  0  0  0  0  0
  -21.7978    4.8188  143.3272 C   0  0  0  0  0  0  0  0  0  0  0  0
  -22.3798   -0.2688  141.7558 C   0  0  0  0  0  0  0  0  0  0  0  0
  -20.9901    3.5659  143.5909 C   0  0  0  0  0  0  0  0  0  0  0  0
  -21.8125    2.4255  144.0711 C   0  0  0  0  0  0  0  0  0  0  0  0
  -22.9701    5.5514  142.5641 C   0  0  0  0  0  0  0  0  0  0  0  0
  -23.7962    0.1208  144.0347 C   0  0  0  0  0  0  0  0  0  0  0  0
  -23.0556    6.7149  141.6988 O   0  0  0  0  0  0  0  0  0  0  0  0
  -21.0286    0.1296  144.1771 C   0  0  0  0  0  0  0  0  0  0  0  0
  -22.3902   -0.3432  143.3394 C   0  0  0  0  0  0  0  0  0  0  0  0
  -21.1999    0.4726  141.0056 C   0  0  0  0  0  0  0  0  0  0  0  0
  -21.6168    0.5785  139.4868 C   0  0  0  0  0  0  0  0  0  0  0  0
  -21.8850    7.3663  141.2591 C   0  0  0  0  0  0  0  0  0  0  0  0
  -21.2338   -0.6643  138.5988 C   0  0  0  0  0  0  0  0  0  0  0  0
  -21.6448    1.8849  138.7147 C   0  0  0  0  0  0  0  0  0  0  0  0
  -22.9095    1.4028  139.3701 C   0  0  0  0  0  0  0  0  0  0  0  0
  -22.2758    4.4410  141.8611 C   0  0  0  0  0  0  0  0  0  0  0  0
  -21.9332   -0.9906  137.2848 C   0  0  0  0  0  0  0  0  0  0  0  0
  -23.2625   -1.7597  137.3518 C   0  0  0  0  0  0  0  0  0  0  0  0
  -24.5403   -0.8270  137.2329 C   0  0  0  0  0  0  0  0  0  0  0  0
  -19.8106   -1.1997  138.5966 C   0  0  0  0  0  0  0  0  0  0  0  0
  -22.3126   -1.7442  138.5839 C   0  0  0  0  0  0  0  0  0  0  0  0
  -21.6679    7.2548  139.8152 N   0  0  0  0  0  0  0  0  0  0  0  0
  -20.7187    7.1116  142.0685 N   0  0  0  0  0  0  0  0  0  0  0  0
  -25.6940   -1.2844  138.1776 C   0  0  0  0  0  0  0  0  0  0  0  0
  3  1  1  0
  3  2  1  0
  4  2  1  0
  5  4  1  0
  6  5  1  0
  8  6  1  0
 10  6  1  0
 10  8  1  0
 11  6  1  0
 11  7  1  0
 11 10  1  0
 12  8  1  0
 13  2  1  0
 14 12  1  0
 15  7  1  0
 16  9  1  0
 16 13  1  0
 16 15  1  0
 17  9  1  0
 18 17  1  0
 19 14  1  0
 20 18  1  0
 21 18  1  0
 22 18  1  0
 22 21  1  0
 23  8  1  0
 23 12  1  0
 24 20  1  0
 25 24  1  0
 26 25  1  0
 27 20  1  0
 28 20  1  0
 28 24  1  0
 28 25  1  0
 29 19  1  0
 30 19  1  0
 31 26  1  0
M  END
$$$$

     RDKit          3D

 31 34  0  0  0  0  0  0  0  0999 V2000
  -32.9058    3.3883  133.3023 O   0  0  0  0  0  0  0  0  0  0  0  0
  -34.1315    5.2400  133.4072 C   0  0  0  0  0  0  0  0  0  0  0  0
  -35.7919    4.6995  133.3003 O   0  0  0  0  0  0  0  0  0  0  0  0
  -32.2525    4.5401  132.4060 C   0  0  0  0  0  0  0  0  0  0  0  0
  -31.7095    5.1571  135.6133 C   0  0  0  0  0  0  0  0  0  0  0  0
  -32.9893    4.7682  137.4983 C   0  0  0  0  0  0  0  0  0  0  0  0
  -34.6727    3.0461  137.4580 C   0  0  0  0  0  0  0  0  0  0  0  0
  -27.3403    2.0293  131.9435 C   0  0  0  0  0  0  0  0  0  0  0  0
  -25.4068   -2.7972  133.4804 C   0  0  0  0  0  0  0  0  0  0  0  0
  -24.2338   -8.8946  131.1705 C   0  0  0  0  0  0  0  0  0  0  0  0
  -35.7918    2.0265  135.9450 C   0  0  0  0  0  0  0  0  0  0  0  0
  -23.1869  -12.0938  132.4385 C   0  0  0  0  0  0  0  0  0  0  0  0
  -29.6263    4.2782  131.4796 C   0  0  0  0  0  0  0  0  0  0  0  0
  -30.0276    7.2495  133.1607 C   0  0  0  0  0  0  0  0  0  0  0  0
  -24.3273   -5.7216  132.1628 C   0  0  0  0  0  0  0  0  0  0  0  0
  -35.9047    2.1424  138.2979 C   0  0  0  0  0  0  0  0  0  0  0  0
  -37.4022    2.2286  138.9600 C   0  0  0  0  0  0  0  0  0  0  0  0
  -37.4911    1.9986  134.9086 C   0  0  0  0  0  0  0  0  0  0  0  0
  -38.7940    1.9324  138.5440 C   0  0  0  0  0  0  0  0  0  0  0  0
  -38.8828    0.9182  134.9895 C   0  0  0  0  0  0  0  0  0  0  0  0
  -38.9869    0.8000  137.9785 C   0  0  0  0  0  0  0  0  0  0  0  0
  -28.5300    9.3245  130.7569 C   0  0  0  0  0  0  0  0  0  0  0  0
  -29.4484    6.4444  129.6196 C   0  0  0  0  0  0  0  0  0  0  0  0
  -26.6132    0.0330  134.0639 C   0  0  0  0  0  0  0  0  0  0  0  0
  -39.8980    3.2145  135.8999 C   0  0  0  0  0  0  0  0  0  0  0  0
  -39.9670    1.8965  137.4092 C   0  0  0  0  0  0  0  0  0  0  0  0
  -24.6782  -11.3512  131.8764 C   0  0  0  0  0  0  0  0  0  0  0  0
  -33.5676    4.2219  134.6243 C   0  0  0  0  0  0  0  0  0  0  0  0
  -38.3847    3.2361  135.4730 C   0  0  0  0  0  0  0  0  0  0  0  0
  -39.1947    3.1125  137.5378 C   0  0  0  0  0  0  0  0  0  0  0  0
  -37.9076    5.1941  138.4770 C   0  0  0  0  0  0  0  0  0  0  0  0
  3  2  1  0
  4  1  1  0
  4  2  1  0
  6  5  1  0
  7  6  1  0
 11  7  1  0
 13  4  1  0
 13  8  1  0
 14  5  1  0
 15  9  1  0
 15 10  1  0
 16  7  1  0
 17 16  1  0
 18 11  1  0
 19 17  2  3
 20 18  1  0
 21 19  1  0
 22 14  1  0
 23 13  1  0
 24  8  1  0
 24  9  1  0
 26 19  1  0
 26 20  1  0
 27 10  1  0
 27 12  1  0
 28  1  1  0
 28  2  1  0
 28  5  1  0
 29 18  1  0
 29 25  1  0
 30 21  1  0
 30 25  1  0
 30 26  1  0
 31 30  1  0
M  END
$$$$

     RDKit          3D

 30 35  0  0  0  0  0  0  0  0999 V2000
  -26.5030  -17.6070  142.1724 C   0  0  0  0  0  0  0  0  0  0  0  0
  -25.0562  -18.0628  142.0606 C   0  0  0  0  0  0  0  0  0  0  0  0
  -27.5769  -18.6768  141.9142 C   0  0  0  0  0  0  0  0  0  0  0  0
  -24.2912  -17.8217  140.9750 C   0  0  0  0  0  0  0  0  0  0  0  0
  -28.1069  -18.4763  143.3361 C   0  0  0  0  0  0  0  0  0  0  0  0
  -24.7960  -17.0162  139.8035 C   0  0  0  0  0  0  0  0  0  0  0  0
  -29.3769  -17.8779  143.3252 O   0  0  0  0  0  0  0  0  0  0  0  0
  -24.2123  -17.3240  138.4375 C   0  0  0  0  0  0  0  0  0  0  0  0
  -25.3077  -17.3996  137.3806 C   0  0  0  0  0  0  0  0  0  0  0  0
  -25.9064  -16.0263  136.9721 C   0  0  0  0  0  0  0  0  0  0  0  0
  -27.3947  -16.1566  136.5498 C   0  0  0  0  0  0  0  0  0  0  0  0
  -28.2800  -16.7675  137.6560 C   0  0  0  0  0  0  0  0  0  0  0  0
  -29.7709  -16.4268  137.4848 C   0  0  0  0  0  0  0  0  0  0  0  0
  -25.0916  -15.4005  135.8225 C   0  0  0  0  0  0  0  0  0  0  0  0
  -27.0784  -20.1112  141.6750 C   0  0  0  0  0  0  0  0  0  0  0  0
  -30.1339  -15.0969  138.1769 C   0  0  0  0  0  0  0  0  0  0  0  0
  -23.6519  -15.1830  136.2114 C   0  0  0  0  0  0  0  0  0  0  0  0
  -26.9977  -17.4588  143.6152 C   0  0  0  0  0  0  0  0  0  0  0  0
  -22.6368  -15.6613  135.4807 C   0  0  0  0  0  0  0  0  0  0  0  0
  -31.6462  -14.7906  138.1205 C   0  0  0  0  0  0  0  0  0  0  0  0
  -25.6079  -17.8316  138.8068 C   0  0  0  0  0  0  0  0  0  0  0  0
  -31.8398  -13.3501  138.4050 N   0  0  0  0  0  0  0  0  0  0  0  0
  -33.0688  -12.8135  137.7705 C   0  0  0  0  0  0  0  0  0  0  0  0
  -32.4403  -15.6734  139.1359 C   0  0  0  0  0  0  0  0  0  0  0  0
  -32.9256  -14.9669  140.4148 C   0  0  0  0  0  0  0  0  0  0  0  0
  -31.7937  -14.3550  141.1364 N   0  0  0  0  0  0  0  0  0  0  0  0
  -31.7644  -12.5101  137.1834 C   0  0  0  0  0  0  0  0  0  0  0  0
  -32.2012  -13.8746  142.4652 C   0  0  0  0  0  0  0  0  0  0  0  0
  -31.3514  -14.3705  143.5820 C   0  0  0  0  0  0  0  0  0  0  0  0
  -31.4395  -15.1738  142.3067 C   0  0  0  0  0  0  0  0  0  0  0  0
  2  1  1  0
  3  1  1  0
  4  2  2  3
  5  3  1  0
  6  4  1  0
  7  5  1  0
  8  6  1  0
  9  8  1  0
 10  9  1  0
 11 10  1  0
 12 11  1  0
 13 12  1  0
 14 10  1  0
 15  3  1  0
 16 13  1  0
 17 14  1  0
 18  1  1  0
 18  5  1  0
 19 17  2  0
 20 16  1  0
 21  6  1  0
 21  8  1  0
 21  9  1  0
 22 20  1  0
 23 22  1  0
 24 20  1  0
 25 24  1  0
 26 25  1  0
 27 22  1  0
 27 23  1  0
 28 26  1  0
 29 28  1  0
 30 26  1  0
 30 28  1  0
 30 29  1  0
M  END
$$$$

     RDKit          3D

 30 33  0  0  0  0  0  0  0  0999 V2000
  -28.3404  -24.6368  138.7363 C   0  0  0  0  0  0  0  0  0  0  0  0
  -30.6389  -23.9066  137.9768 C   0  0  0  0  0  0  0  0  0  0  0  0
  -27.7041  -26.7403  139.6818 N   0  0  0  0  0  2  0  0  0  0  0  0
  -27.3811  -25.3675  139.6121 N   0  0  0  0  0  0  0  0  0  0  0  0
  -30.4836  -25.8610  139.5162 C   0  0  0  0  0  0  0  0  0  0  0  0
  -27.2493  -24.7529  141.2365 Cl  0  0  0  0  0  0  0  0  0  0  0  0
  -29.8570  -24.4893  139.1875 C   0  0  0  0  0  0  0  0  0  0  0  0
  -31.4682  -23.1486  140.5818 N   0  0  0  0  0  0  0  0  0  0  0  0
  -26.6861  -27.4976  138.9361 C   0  0  0  0  0  0  0  0  0  0  0  0
  -31.7990  -22.8459  141.9812 C   0  0  0  0  0  0  0  0  0  0  0  0
  -32.0881  -21.3673  141.6508 C   0  0  0  0  0  0  0  0  0  0  0  0
  -30.0475  -23.5505  140.4223 C   0  0  0  0  0  0  0  0  0  0  0  0
  -26.7118  -29.0215  139.0051 C   0  0  0  0  0  0  0  0  0  0  0  0
  -27.8118  -23.3900  138.3681 O   0  0  0  0  0  0  0  0  0  0  0  0
  -33.0246  -23.5865  142.5747 C   0  0  0  0  0  0  0  0  0  0  0  0
  -27.7528  -29.7505  139.9034 C   0  0  0  0  0  0  0  0  0  0  0  0
  -26.3148  -26.9911  137.6199 N   0  0  0  0  0  2  0  0  0  0  0  0
  -25.3100  -29.5966  139.1655 C   0  0  0  0  0  0  0  0  0  0  0  0
  -31.0764  -21.7129  142.7101 C   0  0  0  0  0  0  0  0  0  0  0  0
  -31.7292  -21.7459  140.2386 C   0  0  0  0  0  0  0  0  0  0  0  0
  -25.6148  -28.1001  141.2499 C   0  0  0  0  0  0  0  0  0  0  0  0
  -24.4380  -27.2558  141.7416 C   0  0  0  0  0  0  0  0  0  0  0  0
  -25.5705  -28.1980  139.7051 C   0  0  0  0  0  0  0  0  0  0  0  0
  -32.6761  -24.3298  143.8776 C   0  0  0  0  0  0  0  0  0  0  0  0
  -29.1970  -29.2761  139.6758 C   0  0  0  0  0  0  0  0  0  0  0  0
  -24.5572  -26.9489  143.1066 O   0  0  0  0  0  0  0  0  0  0  0  0
  -31.6931  -25.5049  143.6661 C   0  0  0  0  0  0  0  0  0  0  0  0
  -31.3385  -26.0260  146.1308 C   0  0  0  0  0  0  0  0  0  0  0  0
  -29.7175  -26.6093  144.4711 O   0  0  0  0  0  0  0  0  0  0  0  0
  -30.6678  -25.6294  144.8142 C   0  0  0  0  0  0  0  0  0  0  0  0
  4  1  1  0
  4  3  1  0
  6  4  1  0
  7  1  1  0
  7  2  1  0
  7  5  1  0
  9  3  1  0
 10  8  1  0
 11 10  1  0
 12  7  1  0
 12  8  1  0
 13  9  1  0
 14  1  1  0
 15 10  1  0
 16 13  1  0
 17  9  1  0
 18 13  1  0
 19 10  1  0
 19 11  1  0
 20  8  1  0
 20 11  1  0
 22 21  1  0
 23  9  1  0
 23 13  1  0
 23 18  1  0
 23 21  1  0
 24 15  1  0
 25 16  1  0
 26 22  1  0
 27 24  1  0
 30 27  1  0
 30 28  1  0
 30 29  1  0
M  RAD  2   3   2  17   2
M  END
$$$$

     RDKit          3D

 11 14  0  0  0  0  0  0  0  0999 V2000
  -21.6649  -21.3701  146.4175 F   0  0  0  0  0  0  0  0  0  0  0  0
  -22.3419  -21.8608  145.3131 C   0  0  0  0  0  0  0  0  0  0  0  0
  -23.8036  -21.5022  145.2085 C   0  0  0  0  0  0  0  0  0  0  0  0
  -24.2801  -20.6219  146.3853 C   0  0  0  0  0  0  0  0  0  0  0  0
  -24.6915  -22.7076  144.9564 C   0  0  0  0  0  0  0  0  0  0  0  0
  -25.9033  -22.9767  145.8783 C   0  0  0  0  0  0  0  0  0  0  0  0
  -25.7909  -20.4310  146.3205 C   0  0  0  0  0  0  0  0  0  0  0  0
  -26.4885  -21.7668  146.6205 C   0  0  0  0  0  0  0  0  0  0  0  0
  -27.8139  -21.9561  145.8833 C   0  0  0  0  0  0  0  0  0  0  0  0
  -27.2195  -23.1302  145.1146 C   0  0  0  0  0  0  0  0  0  0  0  0
  -23.3658  -22.9214  145.6761 C   0  0  0  0  0  0  0  0  0  0  0  0
  2  1  1  0
  3  2  1  0
  4  3  1  0
  5  3  1  0
  6  5  1  0
  7  4  1  0
  8  6  1  0
  8  7  1  0
  9  8  1  0
 10  6  1  0
 10  9  1  0
 11  2  1  0
 11  3  1  0
 11  5  1  0
M  END
$$$$

     RDKit          3D

 31 35  0  0  0  0  0  0  0  0999 V2000
  -27.7446  -21.8728  136.3098 O   0  0  0  0  0  0  0  0  0  0  0  0
  -27.7853  -21.9414  134.8890 C   0  0  0  0  0  0  0  0  0  0  0  0
  -26.9957  -22.9111  134.1158 N   0  0  0  0  0  0  0  0  0  0  0  0
  -27.2034  -23.1082  132.6289 C   0  0  0  0  0  0  0  0  0  0  0  0
  -27.7925  -20.5814  134.2398 N   0  0  0  0  0  0  0  0  0  0  0  0
  -29.1253  -22.1002  132.7087 C   0  0  0  0  0  0  0  0  0  0  0  0
  -28.9305  -21.4942  134.1615 C   0  0  0  0  0  0  0  0  0  0  0  0
  -29.3314  -24.1775  131.1104 C   0  0  0  0  0  0  0  0  0  0  0  0
  -27.7665  -21.7609  132.1045 C   0  0  0  0  0  0  0  0  0  0  0  0
  -28.3193  -23.9258  129.9140 C   0  0  0  0  0  0  0  0  0  0  0  0
  -25.7507  -23.2282  134.6414 O   0  0  0  0  0  0  0  0  0  0  0  0
  -26.7700  -23.9466  130.0331 C   0  0  0  0  0  0  0  0  0  0  0  0
  -25.9353  -24.2206  128.8055 C   0  0  0  0  0  0  0  0  0  0  0  0
  -28.6898  -23.7022  132.5486 C   0  0  0  0  0  0  0  0  0  0  0  0
  -25.8024  -22.8265  126.2068 C   0  0  0  0  0  0  0  0  0  0  0  0
  -28.8310  -22.6481  129.2594 C   0  0  0  0  0  0  0  0  0  0  0  0
  -25.7000  -21.5279  125.1113 C   0  0  0  0  0  0  0  0  0  0  0  0
  -25.5584  -22.9237  127.8379 C   0  0  0  0  0  0  0  0  0  0  0  0
  -24.6831  -20.2312  125.0323 C   0  0  0  0  0  0  0  0  0  0  0  0
  -24.8069  -19.0908  126.0993 C   0  0  0  0  0  0  0  0  0  0  0  0
  -25.4762  -19.4817  127.3336 C   0  0  0  0  0  0  0  0  0  0  0  0
  -25.4437  -19.2600  124.0557 C   0  0  0  0  0  0  0  0  0  0  0  0
  -25.3206  -18.1089  125.0312 C   0  0  0  0  0  0  0  0  0  0  0  0
  -23.4110  -19.4850  125.9415 C   0  0  0  0  0  0  0  0  0  0  0  0
  -28.5218  -25.1292  134.9488 C   0  0  0  0  0  0  0  0  0  0  0  0
  -30.7431  -25.5029  133.4648 Cl  0  0  0  0  0  0  0  0  0  0  0  0
  -28.9976  -24.9530  133.5131 C   0  0  0  0  0  0  0  0  0  0  0  0
  -26.0710  -25.7582  128.5302 C   0  0  0  0  0  0  0  0  0  0  0  0
  -26.1619  -26.0085  127.0213 C   0  0  0  0  0  0  0  0  0  0  0  0
  -24.8942  -25.6168  126.5340 N   0  0  0  0  0  0  0  0  0  0  0  0
  -25.1839  -26.7084  129.3756 C   0  0  0  0  0  0  0  0  0  0  0  0
  2  1  1  0
  3  2  1  0
  4  3  1  0
  5  2  1  0
  7  2  1  0
  7  5  1  0
  7  6  1  0
  9  4  1  0
  9  6  1  0
 10  8  1  0
 11  3  1  0
 12 10  1  0
 13 12  1  0
 14  4  1  0
 14  6  1  0
 14  8  1  0
 16 10  1  0
 17 15  1  0
 18 13  1  0
 18 15  1  0
 19 17  1  0
 20 19  1  0
 21 20  1  0
 22 19  1  0
 23 20  1  0
 23 22  1  0
 24 19  1  0
 24 20  1  0
 27 14  1  0
 27 25  1  0
 27 26  1  0
 28 13  1  0
 29 28  1  0
 30 29  1  0
 31 28  1  0
M  END
$$$$

     RDKit          3D

 31 36  0  0  0  0  0  0  0  0999 V2000
  -23.2785   -3.9393  138.0187 O   0  0  0  0  0  0  0  0  0  0  0  0
  -23.3602   -4.0026  139.3405 C   0  0  0  0  0  0  0  0  0  0  0  0
  -22.3213   -3.6153  140.0793 N   0  0  0  0  0  2  0  0  0  0  0  0
  -21.8661   -2.3382  139.9155 C   0  0  0  0  0  0  0  0  0  0  0  0
  -21.9445   -3.1896  140.2334 P   0  0  0  0  0  2  0  0  0  0  0  0
  -21.8110   -2.4389  139.1478 C   0  0  0  0  0  0  0  0  0  0  0  0
  -21.0369   -2.9891  138.6915 C   0  0  0  0  0  0  0  0  0  0  0  0
  -22.5964   -2.9494  140.0449 C   0  0  0  0  0  0  0  0  0  0  0  0
  -24.6475   -3.6260  139.9129 C   0  0  0  0  0  0  0  0  0  0  0  0
  -24.1039   -5.1499  139.8287 C   0  0  0  0  0  0  0  0  0  0  0  0
  -24.7638   -4.4168  139.9668 C   0  0  0  0  0  0  0  0  0  0  0  0
  -23.9715   -4.8375  137.3153 N   0  0  0  0  0  2  0  0  0  0  0  0
  -25.0503   -5.3985  138.0179 C   0  0  0  0  0  0  0  0  0  0  0  0
  -25.0987   -4.3053  136.3281 S   0  0  0  0  0  3  0  0  0  0  0  0
  -25.3443   -5.2036  139.5588 C   0  0  0  0  0  0  0  0  0  0  0  0
  -25.2182   -3.5332  137.4688 O   0  0  0  0  0  0  0  0  0  0  0  0
  -23.5537   -4.6985  138.5098 C   0  0  0  0  0  0  0  0  0  0  0  0
  -23.5390   -3.5437  139.5191 O   0  0  0  0  0  0  0  0  0  0  0  0
  -25.9799   -2.4578  136.7461 C   0  0  0  0  0  0  0  0  0  0  0  0
  -26.4732   -3.7739  138.3153 C   0  0  0  0  0  0  0  0  0  0  0  0
  -25.2087   -5.3923  137.3106 C   0  0  0  0  0  0  0  0  0  0  0  0
  -23.0973   -3.9646  136.4807 C   0  0  0  0  0  0  0  0  0  0  0  0
  -24.8073   -4.5263  138.6684 C   0  0  0  0  0  0  0  0  0  0  0  0
  -27.0567   -4.6860  139.3172 C   0  0  0  0  0  0  0  0  0  0  0  0
  -26.6760   -2.1886  138.4415 C   0  0  0  0  0  0  0  0  0  0  0  0
  -27.8324   -1.6131  137.2767 C   0  0  0  0  0  0  0  0  0  0  0  0
  -28.7451   -3.0060  136.9821 C   0  0  0  0  0  0  0  0  0  0  0  0
  -28.8934   -2.6799  136.3203 C   0  0  0  0  0  0  0  0  0  0  0  0
  -27.6038   -4.1348  140.3645 C   0  0  0  0  0  0  0  0  0  0  0  0
  -28.6199   -3.5110  137.2251 C   0  0  0  0  0  0  0  0  0  0  0  0
  -27.2421   -3.9578  138.2036 C   0  0  0  0  0  0  0  0  0  0  0  0
  3  2  1  0
  5  4  1  0
  6  4  1  0
  7  6  2  0
  8  3  1  0
  8  4  1  0
  8  5  1  0
 11  9  1  0
 11 10  1  0
 15 10  1  0
 15 11  1  0
 16 14  1  0
 17  1  1  0
 17  2  1  0
 17 12  1  0
 18  2  1  0
 18  9  1  0
 19 16  1  0
 21 12  1  0
 21 13  1  0
 21 14  1  0
 22 14  1  0
 23 11  1  0
 23 13  1  0
 23 15  1  0
 23 17  1  0
 25 19  1  0
 25 20  1  0
 26 25  1  0
 27 26  1  0
 28 27  2  0
 29 24  1  0
 30 27  1  0
 31 20  1  0
 31 24  1  0
 31 30  1  0
M  RAD  4   3   2   5   2  12   2  14   2
M  END
$$$$

     RDKit          3D

 29 38  0  0  0  0  0  0  0  0999 V2000
  -30.1136  -12.9273  145.1629 C   0  0  0  0  0  0  0  0  0  0  0  0
  -29.2349  -11.6764  145.3508 C   0  0  0  0  0  0  0  0  0  0  0  0
  -29.9598  -10.3171  145.0949 C   0  0  0  0  0  0  0  0  0  0  0  0
  -31.4728  -12.8056  145.8743 C   0  0  0  0  0  0  0  0  0  0  0  0
  -29.0817   -8.9919  145.2580 C   0  0  0  0  0  0  0  0  0  0  0  0
  -28.9279   -8.2643  143.8804 C   0  0  0  0  0  0  0  0  0  0  0  0
  -32.1915  -11.4595  145.5993 C   0  0  0  0  0  0  0  0  0  0  0  0
  -30.9654  -10.7932  146.1320 C   0  0  0  0  0  0  0  0  0  0  0  0
  -33.0286  -10.8178  146.6363 N   0  0  0  0  0  0  0  0  0  0  0  0
  -31.8206  -10.1984  147.2124 C   0  0  0  0  0  0  0  0  0  0  0  0
  -30.2644  -12.0648  146.4115 C   0  0  0  0  0  0  0  0  0  0  0  0
  -29.5623   -7.9148  146.1880 N   0  0  0  0  0  0  0  0  0  0  0  0
  -30.5374   -8.0022  143.1037 Cl  0  0  0  0  0  0  0  0  0  0  0  0
  -28.1849  -10.2540  142.8190 F   0  0  0  0  0  0  0  0  0  0  0  0
  -26.5921   -8.7263  143.4425 O   0  0  0  0  0  0  0  0  0  0  0  0
  -27.8923   -8.9031  142.9105 C   0  0  0  0  0  0  0  0  0  0  0  0
  -28.0160   -8.2782  141.4725 C   0  0  0  0  0  0  0  0  0  0  0  0
  -27.8326   -6.8207  141.4635 N   0  0  0  0  0  0  0  0  0  0  0  0
  -27.1915   -9.0310  140.4627 C   0  0  0  0  0  0  0  0  0  0  0  0
  -27.8330   -9.1454  139.0654 C   0  0  0  0  0  0  0  0  0  0  0  0
  -30.2397   -8.4124  147.3761 C   0  0  0  0  0  0  0  0  0  0  0  0
  -28.1434  -10.6025  138.7060 C   0  0  0  0  0  0  0  0  0  0  0  0
  -29.3624   -9.1555  148.4072 C   0  0  0  0  0  0  0  0  0  0  0  0
  -31.6087   -6.2047  147.5408 C   0  0  0  0  0  0  0  0  0  0  0  0
  -26.7574   -7.6364  140.8957 C   0  0  0  0  0  0  0  0  0  0  0  0
  -27.8410  -10.9577  137.2527 C   0  0  0  0  0  0  0  0  0  0  0  0
  -31.3589   -7.6205  148.0507 C   0  0  0  0  0  0  0  0  0  0  0  0
  -31.7233   -8.7072  147.0355 C   0  0  0  0  0  0  0  0  0  0  0  0
  -29.2757   -9.6239  138.9501 C   0  0  0  0  0  0  0  0  0  0  0  0
  2  1  1  0
  3  2  1  0
  4  1  1  0
  5  3  1  0
  6  5  1  0
  7  4  1  0
  8  3  1  0
  8  7  1  0
  9  7  1  0
 10  8  1  0
 10  9  1  0
 11  1  1  0
 11  2  1  0
 11  4  1  0
 11  8  1  0
 12  5  1  0
 13  6  1  0
 16  6  1  0
 16 14  1  0
 16 15  1  0
 17 16  1  0
 18 17  1  0
 19 17  1  0
 20 19  1  0
 21 12  1  0
 22 20  1  0
 23 21  1  0
 25 17  1  0
 25 18  1  0
 25 19  1  0
 26 22  1  0
 27 21  1  0
 27 24  1  0
 28 10  1  0
 28 21  1  0
 28 27  1  0
 29 20  1  0
 29 22  1  0
M  END
$$$$

     RDKit          3D

 30 36  0  0  0  0  0  0  0  0999 V2000
  -28.7518  -13.4039  155.4996 O   0  0  0  0  0  0  0  0  0  0  0  0
  -33.9719  -12.6353  153.0246 C   0  0  0  0  0  0  0  0  0  0  0  0
  -33.2958  -12.0829  151.7296 C   0  0  0  0  0  0  0  0  0  0  0  0
  -33.8121  -10.3638  150.0600 O   0  0  0  0  0  0  0  0  0  0  0  0
  -33.4271  -12.4537  154.5625 C   0  0  0  0  0  0  0  0  0  0  0  0
  -30.1046  -12.5523  154.1410 Sb  0  0  0  0  0  3  0  0  0  0  0  0
  -33.3414  -10.5769  151.4093 C   0  0  0  0  0  0  0  0  0  0  0  0
  -31.9769  -11.3021  151.5386 C   0  0  0  0  0  0  0  0  0  0  0  0
  -23.4448   -5.9091  153.1645 C   0  0  0  0  0  0  0  0  0  0  0  0
  -33.1285   -9.2241  149.4789 C   0  0  0  0  0  0  0  0  0  0  0  0
  -33.7983   -9.7392  152.4740 O   0  0  0  0  0  0  0  0  0  0  0  0
  -29.6868  -10.3238  156.1656 C   0  0  0  0  0  0  0  0  0  0  0  0
  -27.7270   -8.7456  154.1743 C   0  0  0  0  0  0  0  0  0  0  0  0
  -23.6279   -5.5589  151.6346 C   0  0  0  0  0  0  0  0  0  0  0  0
  -29.8898  -10.4105  154.6356 C   0  0  0  0  0  0  0  0  0  0  0  0
  -24.2588   -7.1484  153.8699 C   0  0  0  0  0  0  0  0  0  0  0  0
  -26.3056   -9.0089  153.7175 C   0  0  0  0  0  0  0  0  0  0  0  0
  -25.4754   -7.7839  153.1031 C   0  0  0  0  0  0  0  0  0  0  0  0
  -26.7108   -9.0675  155.2025 C   0  0  0  0  0  0  0  0  0  0  0  0
  -28.8258   -9.7048  153.6883 C   0  0  0  0  0  0  0  0  0  0  0  0
  -23.4127   -7.8202  150.8641 O   0  0  0  0  0  0  0  0  0  0  0  0
  -32.0660  -12.9568  155.1391 C   0  0  0  0  0  0  0  0  0  0  0  0
  -22.4636   -5.4680  150.6088 C   0  0  0  0  0  0  0  0  0  0  0  0
  -23.1288   -5.6095  149.1359 C   0  0  0  0  0  0  0  0  0  0  0  0
  -24.1768   -6.6714  150.8373 C   0  0  0  0  0  0  0  0  0  0  0  0
  -26.2316   -6.6895  152.2201 C   0  0  0  0  0  0  0  0  0  0  0  0
  -22.9575   -6.8001  149.9600 C   0  0  0  0  0  0  0  0  0  0  0  0
  -27.8019   -8.0115  155.5717 C   0  0  0  0  0  0  0  0  0  0  0  0
  -27.7544   -6.3214  152.3791 C   0  0  0  0  0  0  0  0  0  0  0  0
  -25.6944   -6.8673  150.7765 C   0  0  0  0  0  0  0  0  0  0  0  0
  3  2  1  0
  5  2  1  0
  6  1  1  0
  7  3  1  0
  7  4  1  0
  8  3  1  0
  8  7  1  0
 10  4  1  0
 11  7  1  0
 14  9  1  0
 15  6  1  0
 15 12  1  0
 16  9  1  0
 17 13  1  0
 18 16  1  0
 18 17  1  0
 19 13  1  0
 19 17  1  0
 20 13  1  0
 20 15  1  0
 22  5  1  0
 22  6  1  0
 23 14  1  0
 24 23  1  0
 25 14  1  0
 25 21  1  0
 26 18  1  0
 27 21  1  0
 27 23  1  0
 27 24  1  0
 27 25  1  0
 28 13  1  0
 28 19  1  0
 29 26  1  0
 30 25  1  0
 30 26  1  0
M  END
$$$$

     RDKit          3D

 29 32  0  0  0  0  0  0  0  0999 V2000
  -35.9521  -11.4009  139.4372 O   0  0  0  0  0  0  0  0  0  0  0  0
  -34.7253  -11.7216  140.0338 C   0  0  0  0  0  0  0  0  0  0  0  0
  -34.0527  -12.8858  139.6147 O   0  0  0  0  0  0  0  0  0  0  0  0
  -33.7725  -10.5480  140.2553 C   0  0  0  0  0  0  0  0  0  0  0  0
  -34.2424   -9.1038  140.0584 C   0  0  0  0  0  0  0  0  0  0  0  0
  -34.5026  -11.2496  141.4229 C   0  0  0  0  0  0  0  0  0  0  0  0
  -33.0612   -8.2113  140.4987 C   0  0  0  0  0  0  0  0  0  0  0  0
  -33.0035   -7.8956  142.0049 C   0  0  0  0  0  0  0  0  0  0  0  0
  -31.6263   -8.3944  142.5412 C   0  0  0  0  0  0  0  0  0  0  0  0
  -33.3969   -6.8116  140.9689 C   0  0  0  0  0  0  0  0  0  0  0  0
  -30.9151   -7.4550  143.5790 C   0  0  0  0  0  0  0  0  0  0  0  0
  -30.5618   -8.1979  144.9168 C   0  0  0  0  0  0  0  0  0  0  0  0
  -30.4617   -6.4154  146.8249 C   0  0  0  0  0  0  0  0  0  0  0  0
  -30.9536   -5.1114  146.2042 C   0  0  0  0  0  0  0  0  0  0  0  0
  -30.1465   -3.8662  146.6368 C   0  0  0  0  0  0  0  0  0  0  0  0
  -29.6166   -6.7870  143.0341 C   0  0  0  0  0  0  0  0  0  0  0  0
  -28.5690   -3.9779  146.5239 C   0  0  0  0  0  0  0  0  0  0  0  0
  -27.8950   -2.5930  146.6874 C   0  0  0  0  0  0  0  0  0  0  0  0
  -27.8130   -1.8033  145.5205 C   0  0  0  0  0  0  0  0  0  0  0  0
  -29.6008   -6.3244  141.5474 C   0  0  0  0  0  0  0  0  0  0  0  0
  -31.2351   -7.6494  146.2345 C   0  0  0  0  0  0  0  0  0  0  0  0
  -28.8272   -0.8301  145.2830 C   0  0  0  0  0  0  0  0  0  0  0  0
  -30.1920   -4.9084  141.3139 C   0  0  0  0  0  0  0  0  0  0  0  0
  -29.6851   -0.5087  146.3666 C   0  0  0  0  0  0  0  0  0  0  0  0
  -29.2981   -0.9116  147.6789 C   0  0  0  0  0  0  0  0  0  0  0  0
  -28.3197   -1.8922  147.8296 C   0  0  0  0  0  0  0  0  0  0  0  0
  -28.9434   -0.0936  143.9779 C   0  0  0  0  0  0  0  0  0  0  0  0
  -31.7452   -4.8475  141.3995 C   0  0  0  0  0  0  0  0  0  0  0  0
  -32.4064   -5.7725  140.3753 C   0  0  0  0  0  0  0  0  0  0  0  0
  2  1  1  0
  3  2  1  0
  4  2  1  0
  5  4  1  0
  6  2  1  0
  6  4  1  0
  7  5  1  0
  8  7  1  0
  9  8  1  0
 10  7  1  0
 10  8  1  0
 11  9  1  0
 12 11  1  0
 14 13  1  0
 15 14  1  0
 16 11  1  0
 17 15  1  0
 18 17  1  0
 19 18  4  0
 20 16  1  0
 21 12  1  0
 21 13  1  0
 22 19  4  0
 23 20  1  0
 24 22  4  0
 25 24  4  0
 26 18  4  0
 26 25  4  0
 27 22  1  0
 28 23  1  0
 29 10  1  0
 29 28  1  0
M  END
$$$$

     RDKit          3D

 31 33  0  0  0  0  0  0  0  0999 V2000
  -12.5788    0.3246  132.5717 O   0  0  0  0  0  0  0  0  0  0  0  0
  -13.9457   -0.1794  133.1083 C   0  0  0  0  0  0  0  0  0  0  0  0
  -14.5158   -1.6039  132.8381 C   0  0  0  0  0  0  0  0  0  0  0  0
  -15.0231   -1.5384  134.3044 C   0  0  0  0  0  0  0  0  0  0  0  0
  -16.5625   -2.4857  133.6616 N   0  0  0  0  0  0  0  0  0  0  0  0
  -14.2935   -2.7203  134.1777 N   0  0  0  0  0  0  0  0  0  0  0  0
  -17.1440   -3.8753  134.4452 C   0  0  0  0  0  0  0  0  0  0  0  0
  -19.6356   -4.1081  134.8171 C   0  0  0  0  0  0  0  0  0  0  0  0
  -12.5602   -5.3738  134.5092 C   0  0  0  0  0  0  0  0  0  0  0  0
  -10.3552   -5.2824  135.2814 C   0  0  0  0  0  0  0  0  0  0  0  0
  -10.1344   -8.3681  133.0445 C   0  0  0  0  0  0  0  0  0  0  0  0
  -11.7898   -3.6682  134.6766 C   0  0  0  0  0  0  0  0  0  0  0  0
   -9.7470   -7.6249  130.9379 C   0  0  0  0  0  0  0  0  0  0  0  0
  -11.5967   -7.8497  130.1338 C   0  0  0  0  0  0  0  0  0  0  0  0
   -9.5466   -5.4946  131.2553 C   0  0  0  0  0  0  0  0  0  0  0  0
  -21.5633   -3.2143  133.7253 C   0  0  0  0  0  0  0  0  0  0  0  0
  -22.1911   -2.4748  131.3607 C   0  0  0  0  0  0  0  0  0  0  0  0
  -23.8028   -4.9823  135.1610 C   0  0  0  0  0  0  0  0  0  0  0  0
  -18.8648   -5.8324  135.6888 C   0  0  0  0  0  0  0  0  0  0  0  0
  -17.0372   -3.8915  137.4658 C   0  0  0  0  0  0  0  0  0  0  0  0
  -15.3352   -4.2247  137.1463 C   0  0  0  0  0  0  0  0  0  0  0  0
  -20.2898   -6.0694  136.3586 C   0  0  0  0  0  0  0  0  0  0  0  0
  -22.5491   -1.5168  127.7773 C   0  0  0  0  0  0  0  0  0  0  0  0
  -22.8278   -0.5464  125.6568 C   0  0  0  0  0  0  0  0  0  0  0  0
  -22.9572   -3.3308  134.1412 C   0  0  0  0  0  0  0  0  0  0  0  0
  -15.4731   -5.1246  134.0377 C   0  0  0  0  0  0  0  0  0  0  0  0
  -20.3882   -4.9060  137.2146 C   0  0  0  0  0  0  0  0  0  0  0  0
  -24.2152   -3.5955  137.3713 C   0  0  0  0  0  0  0  0  0  0  0  0
  -23.0256    0.0813  123.7035 C   0  0  0  0  0  0  0  0  0  0  0  0
  -23.6810    1.1803  121.5564 C   0  0  0  0  0  0  0  0  0  0  0  0
  -21.4664    0.5213  124.8053 C   0  0  0  0  0  0  0  0  0  0  0  0
  2  1  1  0
  3  2  1  0
  4  2  1  0
  5  4  1  0
  6  3  1  0
  6  4  1  0
  7  5  1  0
  8  7  1  0
 10  9  1  0
 11 10  1  0
 12  9  1  0
 12 10  1  0
 13 11  1  0
 14 13  1  0
 15 13  1  0
 16  8  1  0
 17 16  1  0
 18 16  1  0
 19  8  1  0
 20 19  1  0
 21 20  1  0
 22 19  1  0
 23 17  1  0
 24 23  1  0
 25 17  1  0
 26  7  1  0
 26  9  1  0
 27 22  1  0
 28 25  1  0
 29 24  1  0
 30 29  1  0
 31 24  1  0
 31 29  1  0
M  END
$$$$

     RDKit          3D

 31 32  0  0  0  0  0  0  0  0999 V2000
  -15.1713   -3.7564  136.2668 C   0  0  0  0  0  0  0  0  0  0  0  0
  -14.6415   -3.8503  134.8550 C   0  0  0  0  0  0  0  0  0  0  0  0
  -15.3974   -1.3969  134.0567 C   0  0  0  0  0  0  0  0  0  0  0  0
  -16.2578   -4.4459  136.6513 C   0  0  0  0  0  0  0  0  0  0  0  0
  -16.9634   -4.1318  137.9374 C   0  0  0  0  0  0  0  0  0  0  0  0
  -16.4864   -0.8887  135.0411 C   0  0  0  0  0  0  0  0  0  0  0  0
  -16.1071   -4.3741  139.1920 C   0  0  0  0  0  0  0  0  0  0  0  0
  -15.8914   -5.8731  139.4838 C   0  0  0  0  0  0  0  0  0  0  0  0
  -16.1070   -6.4026  142.0142 C   0  0  0  0  0  0  0  0  0  0  0  0
  -17.0393   -5.2168  142.3243 C   0  0  0  0  0  0  0  0  0  0  0  0
  -17.7006   -5.2903  143.7207 C   0  0  0  0  0  0  0  0  0  0  0  0
  -17.8875   -1.0115  134.4800 C   0  0  0  0  0  0  0  0  0  0  0  0
  -18.4443   -0.1343  133.6211 C   0  0  0  0  0  0  0  0  0  0  0  0
  -17.7439    1.0795  133.0868 C   0  0  0  0  0  0  0  0  0  0  0  0
  -18.4050   -3.9568  144.0872 C   0  0  0  0  0  0  0  0  0  0  0  0
  -14.0018   -0.7659  134.3035 C   0  0  0  0  0  0  0  0  0  0  0  0
  -17.4797   -2.7260  144.2872 C   0  0  0  0  0  0  0  0  0  0  0  0
  -18.6721   -6.4992  143.8757 C   0  0  0  0  0  0  0  0  0  0  0  0
  -15.1609   -6.1126  140.8286 C   0  0  0  0  0  0  0  0  0  0  0  0
  -16.6512   -2.7461  145.5981 C   0  0  0  0  0  0  0  0  0  0  0  0
  -13.5144   -0.7727  135.7685 C   0  0  0  0  0  0  0  0  0  0  0  0
  -12.4030   -1.7383  136.1099 C   0  0  0  0  0  0  0  0  0  0  0  0
  -12.3217   -3.0408  135.7864 C   0  0  0  0  0  0  0  0  0  0  0  0
  -13.1026   -3.7692  134.7198 C   0  0  0  0  0  0  0  0  0  0  0  0
  -15.4059   -2.9397  133.8550 C   0  0  0  0  0  0  0  0  0  0  0  0
  -15.2734   -3.4202  145.3876 C   0  0  0  0  0  0  0  0  0  0  0  0
  -15.0654   -4.7625  146.0861 C   0  0  0  0  0  0  0  0  0  0  0  0
  -14.4218   -3.5234  146.6559 C   0  0  0  0  0  0  0  0  0  0  0  0
  -16.3562   -0.9017  146.1821 Br  0  0  0  0  0  0  0  0  0  0  0  0
  -19.9757   -6.3969  143.0638 C   0  0  0  0  0  0  0  0  0  0  0  0
  -20.8758   -5.5763  143.7131 F   0  0  0  0  0  0  0  0  0  0  0  0
  2  1  1  0
  4  1  2  3
  5  4  1  0
  6  3  1  0
  7  5  1  0
  8  7  1  0
 10  9  1  0
 11 10  1  0
 12  6  1  0
 13 12  2  3
 14 13  1  0
 15 11  1  0
 16  3  1  0
 17 15  1  0
 18 11  1  0
 19  8  1  0
 19  9  1  0
 20 17  1  0
 21 16  1  0
 22 21  1  0
 23 22  2  3
 24  2  1  0
 24 23  1  0
 25  2  1  0
 25  3  1  0
 26 20  1  0
 27 26  1  0
 28 26  1  0
 28 27  1  0
 29 20  1  0
 30 18  1  0
 31 30  1  0
M  END
$$$$

     RDKit          3D

 31 34  0  0  0  0  0  0  0  0999 V2000
  -26.9429    1.3151  131.6726 C   0  0  0  0  0  0  0  0  0  0  0  0
  -25.3104    3.0189  132.7035 C   0  0  0  0  0  0  0  0  0  0  0  0
  -23.9951    2.6440  132.0192 C   0  0  0  0  0  0  0  0  0  0  0  0
  -28.3943    0.9236  131.9958 C   0  0  0  0  0  0  0  0  0  0  0  0
  -22.7818    3.2540  132.7857 C   0  0  0  0  0  0  0  0  0  0  0  0
  -29.5519    1.8863  132.2212 C   0  0  0  0  0  0  0  0  0  0  0  0
  -22.0024    4.2626  131.9160 C   0  0  0  0  0  0  0  0  0  0  0  0
  -26.5568    2.8248  131.8233 C   0  0  0  0  0  0  0  0  0  0  0  0
  -22.7218    5.6021  131.6960 C   0  0  0  0  0  0  0  0  0  0  0  0
  -30.0356    2.6853  131.2667 C   0  0  0  0  0  0  0  0  0  0  0  0
  -29.2188    3.0546  130.0483 C   0  0  0  0  0  0  0  0  0  0  0  0
  -22.6856    6.5216  132.9181 C   0  0  0  0  0  0  0  0  0  0  0  0
  -22.2405    7.8979  132.5757 C   0  0  0  0  0  0  0  0  0  0  0  0
  -27.9114    0.8504  130.5293 C   0  0  0  0  0  0  0  0  0  0  0  0
  -27.8446   -0.6048  129.9716 C   0  0  0  0  0  0  0  0  0  0  0  0
  -29.2871   -1.2281  129.8780 C   0  0  0  0  0  0  0  0  0  0  0  0
  -21.6987    9.6816  132.1968 C   0  0  0  0  0  0  0  0  0  0  0  0
  -20.4358   10.3128  132.6315 N   0  0  0  0  0  0  0  0  0  0  0  0
  -28.3660    1.9237  129.4998 C   0  0  0  0  0  0  0  0  0  0  0  0
  -19.6559    9.5090  133.5926 C   0  0  0  0  0  0  0  0  0  0  0  0
  -21.4272    8.4219  131.6334 N   0  0  0  0  0  0  0  0  0  0  0  0
  -29.6544   -2.1397  131.0903 C   0  0  0  0  0  0  0  0  0  0  0  0
  -22.4460    9.1941  133.2228 O   0  0  0  0  0  0  0  0  0  0  0  0
  -29.8664   -3.6718  130.8177 C   0  0  0  0  0  0  0  0  0  0  0  0
  -31.2366   -3.8571  130.1136 C   0  0  0  0  0  0  0  0  0  0  0  0
  -30.8973   -4.5202  128.7863 C   0  0  0  0  0  0  0  0  0  0  0  0
  -29.7934   -4.4447  132.1794 C   0  0  0  0  0  0  0  0  0  0  0  0
  -29.5756   -5.1376  128.8888 N   0  0  0  0  0  0  0  0  0  0  0  0
  -28.4644   -4.4145  132.9913 C   0  0  0  0  0  0  0  0  0  0  0  0
  -27.3797   -3.7717  132.3296 O   0  0  0  0  0  0  0  0  0  0  0  0
  -28.8579   -4.3096  129.8556 C   0  0  0  0  0  0  0  0  0  0  0  0
  3  2  1  0
  4  1  1  0
  5  3  1  0
  6  4  1  0
  7  5  1  0
  8  1  1  0
  8  2  1  0
  9  7  1  0
 10  6  2  0
 11 10  1  0
 12  9  1  0
 13 12  1  0
 14  1  1  0
 14  4  1  0
 15 14  1  0
 16 15  1  0
 18 17  1  0
 19 11  1  0
 19 14  1  0
 20 18  1  0
 21 13  2  0
 21 17  1  0
 22 16  1  0
 23 13  1  0
 23 17  1  0
 24 22  1  0
 25 24  1  0
 26 25  1  0
 27 24  1  0
 28 26  1  0
 29 27  1  0
 30 29  1  0
 31 24  1  0
 31 28  1  0
M  END
$$$$

     RDKit          3D

 31 36  0  0  0  0  0  0  0  0999 V2000
  -27.7849  -11.2778  148.3193 O   0  0  0  0  0  0  0  0  0  0  0  0
  -27.0850  -11.5908  147.8257 C   0  0  0  0  0  0  0  0  0  0  0  0
  -27.5911  -10.7647  145.6793 O   0  0  0  0  0  0  0  0  0  0  0  0
  -26.4356   -9.2680  149.1298 C   0  0  0  0  0  0  0  0  0  0  0  0
  -26.6440   -8.7865  147.2537 C   0  0  0  0  0  0  0  0  0  0  0  0
  -27.4721  -12.8971  145.9417 C   0  0  0  0  0  0  0  0  0  0  0  0
  -28.8763  -13.7257  142.4925 C   0  0  0  0  0  0  0  0  0  0  0  0
  -30.5772  -11.8517  140.9898 C   0  0  0  0  0  0  0  0  0  0  0  0
  -33.6707  -13.0179  140.5343 C   0  0  0  0  0  0  0  0  0  0  0  0
  -28.7920  -10.3928  143.1026 C   0  0  0  0  0  0  0  0  0  0  0  0
  -30.6253   -3.6897  147.1284 C   0  0  0  0  0  0  0  0  0  0  0  0
  -36.0348   -2.1115  147.3754 C   0  0  0  0  0  0  0  0  0  0  0  0
  -40.6570   -4.9401  149.4013 C   0  0  0  0  0  0  0  0  0  0  0  0
  -42.4153  -10.4506  148.6407 C   0  0  0  0  0  0  0  0  0  0  0  0
  -36.2440  -11.6697  145.6274 C   0  0  0  0  0  0  0  0  0  0  0  0
  -31.8199  -14.8633  143.9874 C   0  0  0  0  0  0  0  0  0  0  0  0
  -39.1784  -10.2124  147.4645 C   0  0  0  0  0  0  0  0  0  0  0  0
  -29.4038  -14.6794  149.4247 C   0  0  0  0  0  0  0  0  0  0  0  0
  -22.4013  -10.6826  153.4428 C   0  0  0  0  0  0  0  0  0  0  0  0
  -23.6705  -11.3421  156.1508 C   0  0  0  0  0  0  0  0  0  0  0  0
  -22.5662  -11.0440  153.7565 C   0  0  0  0  0  0  0  0  0  0  0  0
  -19.8240   -7.7567  152.2332 O   0  0  0  0  0  0  0  0  0  0  0  0
  -21.4367  -14.6042  157.6557 C   0  0  0  0  0  0  0  0  0  0  0  0
  -21.7103   -8.4541  153.1335 C   0  0  0  0  0  0  0  0  0  0  0  0
  -23.2391  -15.2943  155.5967 C   0  0  0  0  0  0  0  0  0  0  0  0
  -34.4069  -16.1239  140.3932 C   0  0  0  0  0  0  0  0  0  0  0  0
  -28.5671  -10.6776  150.2075 C   0  0  0  0  0  0  0  0  0  0  0  0
  -29.0091  -12.0836  139.2861 C   0  0  0  0  0  0  0  0  0  0  0  0
  -24.2055  -11.3560  154.8467 C   0  0  0  0  0  0  0  0  0  0  0  0
  -33.3467  -12.1441  137.7907 C   0  0  0  0  0  0  0  0  0  0  0  0
  -29.3604   -9.3925  145.2372 C   0  0  0  0  0  0  0  0  0  0  0  0
  2  1  1  0
  3  2  1  0
  4  1  1  0
  4  2  1  0
  5  4  1  0
  6  5  1  0
  7  6  1  0
  8  7  1  0
  9  8  1  0
 10  3  1  0
 10  7  1  0
 10  8  1  0
 11  5  1  0
 12 11  1  0
 13 12  1  0
 16  9  1  0
 16 15  1  0
 17 13  1  0
 17 14  1  0
 17 15  1  0
 18  6  1  0
 19  4  1  0
 20 19  1  0
 21 20  1  0
 24 21  1  0
 24 22  1  0
 25 20  1  0
 25 23  1  0
 26  9  1  0
 28  7  1  0
 28  8  1  0
 29 21  1  0
 29 23  1  0
 29 27  1  0
 30 26  1  0
 31 27  1  0
M  END
$$$$

     RDKit          3D

 31 38  0  0  0  0  0  0  0  0999 V2000
  -28.5426  -12.5780  145.3912 C   0  0  0  0  0  0  0  0  0  0  0  0
  -27.3885  -13.4614  145.6204 N   0  0  0  0  0  0  0  0  0  0  0  0
  -29.0704  -11.7397  146.4673 N   0  0  0  0  0  0  0  0  0  0  0  0
  -28.7223  -12.0281  144.0457 N   0  0  0  0  0  0  0  0  0  0  0  0
  -29.2402  -10.6323  144.2491 C   0  0  0  0  0  0  0  0  0  0  0  0
  -29.3955  -10.4893  145.7779 C   0  0  0  0  0  0  0  0  0  0  0  0
  -30.6233  -10.6669  144.9312 C   0  0  0  0  0  0  0  0  0  0  0  0
  -28.2911  -11.5405  147.7091 C   0  0  0  0  0  0  0  0  0  0  0  0
  -28.5994   -8.5009  142.0954 F   0  0  0  0  0  0  0  0  0  0  0  0
  -27.4077   -8.8307  148.7260 F   0  0  0  0  0  0  0  0  0  0  0  0
  -25.2878   -9.5933  148.7528 F   0  0  0  0  0  0  0  0  0  0  0  0
  -27.5154  -10.6008  142.4156 C   0  0  0  0  0  0  0  0  0  0  0  0
  -27.8128  -14.6735  146.3409 C   0  0  0  0  0  0  0  0  0  0  0  0
  -27.8301  -10.8758  143.8857 C   0  0  0  0  0  0  0  0  0  0  0  0
  -27.2260  -16.0483  145.7401 B   0  0  0  0  0  0  0  0  0  0  0  0
  -26.9207  -10.8436  147.5476 C   0  0  0  0  0  0  0  0  0  0  0  0
  -27.3577   -9.1024  142.1462 C   0  0  0  0  0  0  0  0  0  0  0  0
  -28.8005  -13.9986  145.5079 C   0  0  0  0  0  0  0  0  0  0  0  0
  -27.0115  -18.6404  145.9695 C   0  0  0  0  0  0  0  0  0  0  0  0
  -27.1970  -19.7392  144.8795 C   0  0  0  0  0  0  0  0  0  0  0  0
  -26.2414  -15.9707  144.4757 C   0  0  0  0  0  0  0  0  0  0  0  0
  -27.9703  -17.4314  146.1366 C   0  0  0  0  0  0  0  0  0  0  0  0
  -28.5181  -17.3643  147.5866 C   0  0  0  0  0  0  0  0  0  0  0  0
  -27.9866  -20.8483  144.1627 C   0  0  0  0  0  0  0  0  0  0  0  0
  -28.8164  -19.8894  147.2745 C   0  0  0  0  0  0  0  0  0  0  0  0
  -27.9417  -18.8625  142.5597 C   0  0  0  0  0  0  0  0  0  0  0  0
  -28.3703  -19.4140  143.9208 C   0  0  0  0  0  0  0  0  0  0  0  0
  -28.6777  -18.7329  148.2722 C   0  0  0  0  0  0  0  0  0  0  0  0
  -26.6128   -9.9685  148.7642 C   0  0  0  0  0  0  0  0  0  0  0  0
  -30.2098  -19.8820  146.6189 C   0  0  0  0  0  0  0  0  0  0  0  0
  -27.5181  -19.9921  146.3988 C   0  0  0  0  0  0  0  0  0  0  0  0
  2  1  1  0
  3  1  1  0
  4  1  1  0
  5  4  1  0
  6  3  1  0
  6  5  1  0
  7  5  1  0
  7  6  1  0
  8  3  1  0
 13  2  1  0
 14  4  1  0
 14  5  1  0
 14 12  1  0
 15 13  1  0
 16  8  1  0
 17  9  1  0
 17 12  1  0
 18  1  1  0
 18  2  1  0
 18 13  1  0
 20 19  1  0
 21 15  1  0
 22 15  1  0
 22 19  1  0
 23 22  1  0
 24 20  1  0
 27 20  1  0
 27 24  1  0
 27 26  1  0
 28 23  1  0
 28 25  1  0
 29 10  1  0
 29 11  1  0
 29 16  1  0
 30 25  1  0
 31 19  1  0
 31 20  1  0
 31 25  1  0
M  END
$$$$

     RDKit          3D

 11 10  0  0  0  0  0  0  0  0999 V2000
  -27.1952  -15.4143  140.1515 O   0  0  0  0  0  0  0  0  0  0  0  0
  -26.9833  -16.7904  139.8262 C   0  0  0  0  0  0  0  0  0  0  0  0
  -26.8088  -16.9807  138.4203 O   0  0  0  0  0  0  0  0  0  0  0  0
  -28.2160  -17.6374  140.2811 C   0  0  0  0  0  0  0  0  0  0  0  0
  -28.3122  -14.8441  139.4937 C   0  0  0  0  0  0  0  0  0  0  0  0
  -28.0536  -19.1574  140.1455 C   0  0  0  0  0  0  0  0  0  0  0  0
  -25.7277  -17.2570  140.6180 C   0  0  0  0  0  0  0  0  0  0  0  0
  -25.1904  -18.4084  140.0675 F   0  0  0  0  0  0  0  0  0  0  0  0
  -24.7532  -16.2729  140.6208 F   0  0  0  0  0  0  0  0  0  0  0  0
  -27.7371  -19.5067  138.8450 F   0  0  0  0  0  0  0  0  0  0  0  0
  -25.7430  -16.2207  137.8814 C   0  0  0  0  0  0  0  0  0  0  0  0
  2  1  1  0
  3  2  1  0
  4  2  1  0
  5  1  1  0
  6  4  1  0
  7  2  1  0
  8  7  1  0
  9  7  1  0
 10  6  1  0
 11  3  1  0
M  END
$$$$

     RDKit          3D

 17 22  0  0  0  0  0  0  0  0999 V2000
  -27.9951  -13.8003  144.4467 O   0  0  0  0  0  0  0  0  0  0  0  0
  -27.0000  -14.4731  143.7046 C   0  0  0  0  0  0  0  0  0  0  0  0
  -28.4103  -12.0815  142.6514 C   0  0  0  0  0  0  0  0  0  0  0  0
  -28.9783  -13.1586  143.6446 C   0  0  0  0  0  0  0  0  0  0  0  0
  -29.9587  -14.1477  142.9409 C   0  0  0  0  0  0  0  0  0  0  0  0
  -30.6509  -15.0587  143.9678 C   0  0  0  0  0  0  0  0  0  0  0  0
  -29.4269  -11.6466  141.5123 C   0  0  0  0  0  0  0  0  0  0  0  0
  -28.8711   -9.9405  144.1016 C   0  0  0  0  0  0  0  0  0  0  0  0
  -27.8419  -10.8573  143.4227 C   0  0  0  0  0  0  0  0  0  0  0  0
  -31.0201  -13.3788  142.1146 C   0  0  0  0  0  0  0  0  0  0  0  0
  -29.1216  -12.5873  140.3608 C   0  0  0  0  0  0  0  0  0  0  0  0
  -26.9510   -9.9728  142.5421 C   0  0  0  0  0  0  0  0  0  0  0  0
  -30.5176  -12.6167  140.8909 C   0  0  0  0  0  0  0  0  0  0  0  0
  -30.8062  -11.8611  142.1188 C   0  0  0  0  0  0  0  0  0  0  0  0
  -27.1708   -8.5468  143.0100 C   0  0  0  0  0  0  0  0  0  0  0  0
  -27.5898   -8.9441  141.6109 C   0  0  0  0  0  0  0  0  0  0  0  0
  -28.2710   -8.5407  144.0624 C   0  0  0  0  0  0  0  0  0  0  0  0
  2  1  1  0
  4  1  1  0
  4  3  1  0
  5  4  1  0
  6  5  1  0
  7  3  1  0
  9  3  1  0
  9  8  1  0
 10  5  1  0
 11  7  1  0
 12  9  1  0
 13  7  1  0
 13 10  1  0
 13 11  1  0
 14  7  1  0
 14 10  1  0
 14 13  1  0
 15 12  1  0
 16 12  1  0
 16 15  1  0
 17  8  1  0
 17 15  1  0
M  END
$$$$

     RDKit          3D

 31 38  0  0  0  0  0  0  0  0999 V2000
  -26.7773  -14.8452  147.6888 C   0  0  0  0  0  0  0  0  0  0  0  0
  -27.4207  -15.7980  148.7734 C   0  0  0  0  0  0  0  0  0  0  0  0
  -28.2308  -11.8640  147.9965 As  0  0  0  0  0  3  0  0  0  0  0  0
  -27.5042  -13.5801  147.1955 C   0  0  0  0  0  0  0  0  0  0  0  0
  -27.9723  -17.1644  148.2614 C   0  0  0  0  0  0  0  0  0  0  0  0
  -28.3827  -17.2543  146.7837 C   0  0  0  0  0  0  0  0  0  0  0  0
  -27.7591  -14.1529  145.7998 C   0  0  0  0  0  0  0  0  0  0  0  0
  -26.5497  -12.4453  147.1299 C   0  0  0  0  0  0  0  0  0  0  0  0
  -30.0818  -15.2360  146.5190 C   0  0  0  0  0  0  0  0  0  0  0  0
  -31.6538  -15.0842  146.4487 C   0  0  0  0  0  0  0  0  0  0  0  0
  -29.2489  -14.4466  145.4629 C   0  0  0  0  0  0  0  0  0  0  0  0
  -32.3296  -14.1716  145.4331 C   0  0  0  0  0  0  0  0  0  0  0  0
  -32.4195  -13.8279  146.9247 C   0  0  0  0  0  0  0  0  0  0  0  0
  -27.2985  -16.7354  145.8646 C   0  0  0  0  0  0  0  0  0  0  0  0
  -26.8397  -15.3260  146.2039 C   0  0  0  0  0  0  0  0  0  0  0  0
  -31.7188  -12.5001  147.3261 C   0  0  0  0  0  0  0  0  0  0  0  0
  -32.2421  -11.3348  146.5811 N   0  0  0  0  0  0  0  0  0  0  0  0
  -29.7998  -16.7556  146.4441 C   0  0  0  0  0  0  0  0  0  0  0  0
  -31.7903  -12.2164  148.8569 C   0  0  0  0  0  0  0  0  0  0  0  0
  -34.3917  -10.9744  145.3741 C   0  0  0  0  0  0  0  0  0  0  0  0
  -33.6925  -11.0865  146.7287 C   0  0  0  0  0  0  0  0  0  0  0  0
  -30.9679  -13.2180  149.7152 C   0  0  0  0  0  0  0  0  0  0  0  0
  -30.1240  -12.5223  150.6644 N   0  0  0  0  0  0  0  0  0  0  0  0
  -28.9215  -12.8136  151.0679 C   0  0  0  0  0  0  0  0  0  0  0  0
  -27.9558  -13.9382  150.6384 C   0  0  0  0  0  0  0  0  0  0  0  0
  -31.8550  -14.2621  150.4387 C   0  0  0  0  0  0  0  0  0  0  0  0
  -27.6747  -14.7533  151.8971 C   0  0  0  0  0  0  0  0  0  0  0  0
  -26.8213  -15.8581  151.7447 O   0  0  0  0  0  0  0  0  0  0  0  0
  -28.1122  -16.0011  151.2024 C   0  0  0  0  0  0  0  0  0  0  0  0
  -28.3633  -15.2297  149.9052 C   0  0  0  0  0  0  0  0  0  0  0  0
  -32.7221  -13.6716  151.5558 C   0  0  0  0  0  0  0  0  0  0  0  0
  2  1  1  0
  4  1  1  0
  4  3  1  0
  5  2  1  0
  6  5  1  0
  7  4  1  0
  8  3  1  0
  8  4  1  0
 10  9  1  0
 11  7  1  0
 11  9  1  0
 12 10  1  0
 13 10  1  0
 13 12  1  0
 14  6  1  0
 15  1  1  0
 15  7  1  0
 15 14  1  0
 16 13  1  0
 17 16  1  0
 18  6  1  0
 18  9  1  0
 19 16  1  0
 21 17  1  0
 21 20  1  0
 22 19  1  0
 23 22  1  0
 24 23  2  3
 25 24  1  0
 26 22  1  0
 27 25  1  0
 28 27  1  0
 29 27  1  0
 29 28  1  0
 30  2  1  0
 30 25  1  0
 30 29  1  0
 31 26  1  0
M  END
$$$$

     RDKit          3D

 31 37  0  0  0  0  0  0  0  0999 V2000
  -20.6294    2.7697  137.8990 N   0  0  0  0  0  0  0  0  0  0  0  0
  -20.4712    2.7643  136.0553 C   0  0  0  0  0  0  0  0  0  0  0  0
  -19.6002    1.4675  138.4976 C   0  0  0  0  0  0  0  0  0  0  0  0
  -21.3772   -1.0164  135.2595 C   0  0  0  0  0  0  0  0  0  0  0  0
  -22.2034   -1.2959  135.5951 C   0  0  0  0  0  0  0  0  0  0  0  0
  -16.9812    1.5280  137.5093 C   0  0  0  0  0  0  0  0  0  0  0  0
  -15.7768    2.5925  136.0926 C   0  0  0  0  0  0  0  0  0  0  0  0
  -23.2850   -2.7117  136.5985 C   0  0  0  0  0  0  0  0  0  0  0  0
  -23.0516   -2.8762  138.1301 C   0  0  0  0  0  0  0  0  0  0  0  0
  -17.4007    3.7979  137.4394 C   0  0  0  0  0  0  0  0  0  0  0  0
  -21.3472   -2.7735  134.1260 C   0  0  0  0  0  0  0  0  0  0  0  0
  -17.5992    1.2499  136.0194 C   0  0  0  0  0  0  0  0  0  0  0  0
  -21.0515    1.1279  135.6984 C   0  0  0  0  0  0  0  0  0  0  0  0
  -25.1967   -2.4270  139.3840 C   0  0  0  0  0  0  0  0  0  0  0  0
  -15.8914    0.6591  136.3997 C   0  0  0  0  0  0  0  0  0  0  0  0
  -23.6388   -2.2249  140.9728 C   0  0  0  0  0  0  0  0  0  0  0  0
  -19.1973    2.9925  136.8103 C   0  0  0  0  0  0  0  0  0  0  0  0
  -25.1200    0.5035  137.4601 C   0  0  0  0  0  0  0  0  0  0  0  0
  -23.9534   -0.4649  140.4982 C   0  0  0  0  0  0  0  0  0  0  0  0
  -21.5891   -2.7249  140.9158 C   0  0  0  0  0  0  0  0  0  0  0  0
  -22.3119    0.2290  136.4702 C   0  0  0  0  0  0  0  0  0  0  0  0
  -19.0007   -0.4109  140.3501 C   0  0  0  0  0  0  0  0  0  0  0  0
  -17.8841    4.7700  138.8177 C   0  0  0  0  0  0  0  0  0  0  0  0
  -17.9410    0.2963  138.8269 C   0  0  0  0  0  0  0  0  0  0  0  0
  -18.8045    0.9338  135.4126 N   0  0  0  0  0  0  0  0  0  0  0  0
  -18.4408    3.3689  139.2774 C   0  0  0  0  0  0  0  0  0  0  0  0
  -19.1230    0.6635  136.7615 C   0  0  0  0  0  0  0  0  0  0  0  0
  -24.0204    0.9598  138.6846 C   0  0  0  0  0  0  0  0  0  0  0  0
  -24.8361   -2.0427  137.4814 C   0  0  0  0  0  0  0  0  0  0  0  0
  -23.5517    0.4565  135.4543 C   0  0  0  0  0  0  0  0  0  0  0  0
  -20.6536    1.2489  137.9658 C   0  0  0  0  0  0  0  0  0  0  0  0
  2  1  1  0
  3  1  1  0
  7  6  1  0
  8  5  1  0
  9  8  2  0
 10  7  1  0
 11  4  1  0
 11  5  1  0
 13  2  1  0
 13  4  1  0
 15  6  1  0
 15 12  1  0
 16 14  1  0
 17  2  1  0
 17 10  1  0
 17 13  1  0
 19 16  1  0
 20 16  1  0
 21  4  1  0
 21 13  1  0
 23 10  1  0
 24  3  1  0
 24  6  1  0
 24 22  1  0
 26 17  1  0
 26 23  1  0
 27 12  1  0
 27 25  2  0
 28 18  1  0
 28 19  1  0
 29  8  1  0
 29 14  1  0
 30  5  1  0
 30 21  1  0
 31  1  1  0
 31  3  1  0
 31 27  1  0
M  END
$$$$

     RDKit          3D

 31 41  0  0  0  0  0  0  0  0999 V2000
  -21.1973   -2.5288  139.2466 Al  0  0  0  0  0  3  0  0  0  0  0  0
  -19.7678   -6.4080  137.5615 C   0  0  0  0  0  0  0  0  0  0  0  0
  -19.7877   -7.1066  139.3115 C   0  0  0  0  0  0  0  0  0  0  0  0
  -22.9072   -4.4986  140.3513 C   0  0  0  0  0  0  0  0  0  0  0  0
  -21.3164   -6.5515  138.7392 C   0  0  0  0  0  0  0  0  0  0  0  0
  -20.1453   -4.7812  138.4821 C   0  0  0  0  0  0  0  0  0  0  0  0
  -24.8114   -4.2619  139.9824 C   0  0  0  0  0  0  0  0  0  0  0  0
  -22.1687   -6.1080  140.2399 C   0  0  0  0  0  0  0  0  0  0  0  0
  -25.4888   -3.9285  137.9639 C   0  0  0  0  0  0  0  0  0  0  0  0
  -20.8244   -6.9605  142.4499 C   0  0  0  0  0  0  0  0  0  0  0  0
  -25.8675   -4.3898  135.7427 C   0  0  0  0  0  0  0  0  0  0  0  0
  -25.8432   -5.3482  138.1805 C   0  0  0  0  0  0  0  0  0  0  0  0
  -24.4434   -1.7389  136.9081 C   0  0  0  0  0  0  0  0  0  0  0  0
  -24.8701   -6.6035  140.1423 C   0  0  0  0  0  0  0  0  0  0  0  0
  -24.4606   -5.3769  142.5278 C   0  0  0  0  0  0  0  0  0  0  0  0
  -20.0390   -4.7468  144.5579 N   0  0  0  0  0  0  0  0  0  0  0  0
  -24.4422   -2.4329  135.1247 C   0  0  0  0  0  0  0  0  0  0  0  0
  -21.4457   -5.4387  144.2574 C   0  0  0  0  0  0  0  0  0  0  0  0
  -25.1219   -3.6527  134.4593 O   0  0  0  0  0  0  0  0  0  0  0  0
  -26.4769   -6.5489  137.8382 C   0  0  0  0  0  0  0  0  0  0  0  0
  -24.7464   -6.5183  138.5381 C   0  0  0  0  0  0  0  0  0  0  0  0
  -22.4925   -2.6827  135.2622 C   0  0  0  0  0  0  0  0  0  0  0  0
  -25.6689   -5.7029  141.7927 C   0  0  0  0  0  0  0  0  0  0  0  0
  -22.3583   -3.3300  134.1237 C   0  0  0  0  0  0  0  0  0  0  0  0
  -24.0404   -3.3442  136.9548 C   0  0  0  0  0  0  0  0  0  0  0  0
  -24.1789   -2.8646  138.1855 C   0  0  0  0  0  0  0  0  0  0  0  0
  -20.8075   -2.7554  132.9819 C   0  0  0  0  0  0  0  0  0  0  0  0
  -20.3365   -1.0702  132.8475 C   0  0  0  0  0  0  0  0  0  0  0  0
  -19.4606   -0.1239  134.3091 C   0  0  0  0  0  0  0  0  0  0  0  0
  -20.8434   -2.1660  134.1902 C   0  0  0  0  0  0  0  0  0  0  0  0
  -23.6802   -5.1003  135.7863 C   0  0  0  0  0  0  0  0  0  0  0  0
  3  2  1  0
  4  1  1  0
  5  3  1  0
  6  1  1  0
  6  2  1  0
  6  5  1  0
  7  4  1  0
  8  4  1  0
  8  5  1  0
  9  7  1  0
 10  8  1  0
 11  9  1  0
 12 11  1  0
 14 12  1  0
 15 14  1  0
 17 13  1  0
 18 10  1  0
 18 16  1  0
 19 11  1  0
 19 17  1  0
 20 12  1  0
 21 12  1  0
 21 14  1  0
 21 20  1  0
 22 17  1  0
 23  7  1  0
 23 15  1  0
 24 22  1  0
 25 13  1  0
 26  1  1  0
 26  9  1  0
 26 13  1  0
 26 25  1  0
 27 24  1  0
 28 27  1  0
 29 28  1  0
 30 24  1  0
 30 27  1  0
 30 28  1  0
 31 24  1  0
 31 25  1  0
M  END
$$$$

     RDKit          3D

 30 38  0  0  0  0  0  0  0  0999 V2000
  -30.4671  -10.3728  134.2307 O   0  0  0  0  0  0  0  0  0  0  0  0
  -30.3598   -9.0854  134.7540 C   0  0  0  0  0  0  0  0  0  0  0  0
  -30.3402   -8.0356  133.7862 O   0  0  0  0  0  0  0  0  0  0  0  0
  -29.9696   -9.0277  136.2272 C   0  0  0  0  0  0  0  0  0  0  0  0
  -29.0654   -7.8819  136.7615 C   0  0  0  0  0  0  0  0  0  0  0  0
  -31.4295   -8.8698  135.8308 C   0  0  0  0  0  0  0  0  0  0  0  0
  -28.6277   -8.2068  138.2149 C   0  0  0  0  0  0  0  0  0  0  0  0
  -27.8368   -7.5989  135.9640 N   0  0  0  0  0  0  0  0  0  0  0  0
  -29.3712   -6.9869  138.7247 C   0  0  0  0  0  0  0  0  0  0  0  0
  -28.0110   -7.2087  134.5670 C   0  0  0  0  0  0  0  0  0  0  0  0
  -29.4600   -6.9664  134.0646 C   0  0  0  0  0  0  0  0  0  0  0  0
  -29.7632   -6.6255  137.2966 C   0  0  0  0  0  0  0  0  0  0  0  0
  -27.1494   -8.8346  135.4942 C   0  0  0  0  0  0  0  0  0  0  0  0
  -29.5630   -5.8031  133.0307 C   0  0  0  0  0  0  0  0  0  0  0  0
  -30.0946   -5.6474  134.4514 C   0  0  0  0  0  0  0  0  0  0  0  0
  -25.9341   -8.6657  134.5904 C   0  0  0  0  0  0  0  0  0  0  0  0
  -36.0561   -4.6173  130.4201 O   0  0  0  0  0  0  0  0  0  0  0  0
  -30.5527   -5.3074  131.8994 C   0  0  0  0  0  0  0  0  0  0  0  0
  -33.3168   -8.3236  132.5506 C   0  0  0  0  0  0  0  0  0  0  0  0
  -30.3342   -3.8063  131.7446 C   0  0  0  0  0  0  0  0  0  0  0  0
  -32.4990   -5.5989  130.1255 C   0  0  0  0  0  0  0  0  0  0  0  0
  -33.4089   -6.4566  132.6360 Si  0  0  0  0  0  4  0  0  0  0  0  0
  -34.8654   -6.0126  131.8019 O   0  0  0  0  0  0  0  0  0  0  0  0
  -27.3143   -8.4391  134.0130 C   0  0  0  0  0  0  0  0  0  0  0  0
  -31.4278   -5.2649  129.0722 C   0  0  0  0  0  0  0  0  0  0  0  0
  -32.0210   -5.6832  131.6159 C   0  0  0  0  0  0  0  0  0  0  0  0
  -33.7183   -4.6493  129.9713 C   0  0  0  0  0  0  0  0  0  0  0  0
  -31.6751   -4.3060  132.2053 C   0  0  0  0  0  0  0  0  0  0  0  0
  -33.5477   -5.8375  134.2292 O   0  0  0  0  0  0  0  0  0  0  0  0
  -34.9383   -5.1102  130.7294 C   0  0  0  0  0  0  0  0  0  0  0  0
  2  1  1  0
  3  2  1  0
  4  2  1  0
  5  4  1  0
  6  2  1  0
  6  4  1  0
  7  5  1  0
  8  5  1  0
  9  7  1  0
 10  8  1  0
 11  3  1  0
 11 10  1  0
 12  5  1  0
 12  9  1  0
 13  8  1  0
 14 11  1  0
 15 11  1  0
 15 14  1  0
 16 13  1  0
 18 14  1  0
 20 18  1  0
 22 19  1  0
 23 22  1  0
 24 10  1  0
 24 13  1  0
 24 16  1  0
 25 21  1  0
 26 18  1  0
 26 21  1  0
 26 22  1  0
 27 21  1  0
 28 18  1  0
 28 20  1  0
 28 26  1  0
 29 22  1  0
 30 17  2  0
 30 23  1  0
 30 27  1  0
M  END
$$$$

     RDKit          3D

 31 35  0  0  0  0  0  0  0  0999 V2000
  -15.5884   -8.1752  142.7723 C   0  0  0  0  0  0  0  0  0  0  0  0
  -15.0452   -7.1975  143.8568 C   0  0  0  0  0  0  0  0  0  0  0  0
  -15.9207   -5.9536  144.1713 C   0  0  0  0  0  0  0  0  0  0  0  0
  -15.2364   -5.0138  145.2285 C   0  0  0  0  0  0  0  0  0  0  0  0
  -15.1937   -7.9402  141.3084 C   0  0  0  0  0  0  0  0  0  0  0  0
  -16.3541   -8.2396  140.3675 C   0  0  0  0  0  0  0  0  0  0  0  0
  -13.8139   -4.5154  144.8046 C   0  0  0  0  0  0  0  0  0  0  0  0
  -14.5759   -6.6281  141.0575 N   0  0  0  0  0  0  0  0  0  0  0  0
  -12.6974   -5.1483  145.6529 C   0  0  0  0  0  0  0  0  0  0  0  0
  -11.4085   -4.3053  145.5816 C   0  0  0  0  0  0  0  0  0  0  0  0
  -16.6473   -7.7330  141.7659 C   0  0  0  0  0  0  0  0  0  0  0  0
  -16.1357   -3.8013  145.6077 C   0  0  0  0  0  0  0  0  0  0  0  0
  -16.5541   -2.9347  144.4042 C   0  0  0  0  0  0  0  0  0  0  0  0
  -10.5210   -4.5912  144.3695 C   0  0  0  0  0  0  0  0  0  0  0  0
  -17.3196   -6.4023  144.6711 C   0  0  0  0  0  0  0  0  0  0  0  0
  -10.1644   -3.3306  143.5264 C   0  0  0  0  0  0  0  0  0  0  0  0
   -9.4186   -5.0928  145.2012 N   0  0  0  0  0  0  0  0  0  0  0  0
  -10.2573   -4.8878  146.3800 C   0  0  0  0  0  0  0  0  0  0  0  0
  -10.5563   -3.4947  142.0554 C   0  0  0  0  0  0  0  0  0  0  0  0
   -9.8247   -2.5556  141.0568 C   0  0  0  0  0  0  0  0  0  0  0  0
  -10.1877   -1.0522  141.3101 C   0  0  0  0  0  0  0  0  0  0  0  0
   -9.3336   -0.2792  142.3302 C   0  0  0  0  0  0  0  0  0  0  0  0
   -8.2892   -2.8416  140.7488 C   0  0  0  0  0  0  0  0  0  0  0  0
   -8.0067   -2.6293  139.2132 C   0  0  0  0  0  0  0  0  0  0  0  0
   -8.3921   -1.2963  138.6130 C   0  0  0  0  0  0  0  0  0  0  0  0
   -7.7612   -4.1815  141.3355 C   0  0  0  0  0  0  0  0  0  0  0  0
   -8.9107   -1.2051  137.3847 C   0  0  0  0  0  0  0  0  0  0  0  0
   -9.0878   -2.4006  136.5349 C   0  0  0  0  0  0  0  0  0  0  0  0
   -8.7011   -3.6113  136.9369 C   0  0  0  0  0  0  0  0  0  0  0  0
   -6.7528   -3.2001  138.5378 C   0  0  0  0  0  0  0  0  0  0  0  0
   -8.1103   -3.8582  138.3042 C   0  0  0  0  0  0  0  0  0  0  0  0
  2  1  1  0
  3  2  1  0
  4  3  1  0
  5  1  1  0
  6  5  1  0
  7  4  1  0
  8  5  1  0
  9  7  1  0
 10  9  1  0
 11  1  1  0
 11  5  1  0
 11  6  1  0
 12  4  1  0
 13 12  1  0
 14 10  1  0
 15  3  1  0
 16 14  1  0
 17 14  1  0
 18 10  1  0
 18 17  1  0
 19 16  1  0
 20 19  1  0
 21 20  1  0
 22 21  1  0
 23 20  1  0
 24 23  1  0
 25 24  1  0
 26 23  1  0
 27 25  2  0
 28 27  1  0
 29 28  2  0
 30 24  1  0
 31 24  1  0
 31 29  1  0
 31 30  1  0
M  END
$$$$

     RDKit          3D

 31 36  0  0  0  0  0  0  0  0999 V2000
  -24.1685  -15.8291  138.7727 C   0  0  0  0  0  0  0  0  0  0  0  0
  -25.2415  -18.0338  138.7629 C   0  0  0  0  0  0  0  0  0  0  0  0
  -26.7249  -16.1115  139.1289 C   0  0  0  0  0  0  0  0  0  0  0  0
  -23.4166  -15.7919  137.4578 C   0  0  0  0  0  0  0  0  0  0  0  0
  -25.3696  -16.7129  138.8497 C   0  0  0  0  0  0  0  0  0  0  0  0
  -27.7942  -17.0964  138.8583 N   0  0  0  0  0  0  0  0  0  0  0  0
  -21.9019  -15.5714  137.5464 C   0  0  0  0  0  0  0  0  0  0  0  0
  -29.0768  -16.6504  141.0142 C   0  0  0  0  0  0  0  0  0  0  0  0
  -28.2086  -17.7360  141.7118 C   0  0  0  0  0  0  0  0  0  0  0  0
  -29.1048  -16.7681  139.4705 C   0  0  0  0  0  0  0  0  0  0  0  0
  -29.0155  -19.0442  142.0402 C   0  0  0  0  0  0  0  0  0  0  0  0
  -27.2912  -17.1178  142.8145 C   0  0  0  0  0  0  0  0  0  0  0  0
  -29.3044  -18.5745  144.6768 C   0  0  0  0  0  0  0  0  0  0  0  0
  -21.1952  -16.4834  136.5479 C   0  0  0  0  0  0  0  0  0  0  0  0
  -23.8877  -14.9200  139.6798 C   0  0  0  0  0  0  0  0  0  0  0  0
  -19.8867  -17.2325  136.9665 C   0  0  0  0  0  0  0  0  0  0  0  0
  -19.2873  -16.8034  138.3383 C   0  0  0  0  0  0  0  0  0  0  0  0
  -22.4539  -16.9454  137.2232 C   0  0  0  0  0  0  0  0  0  0  0  0
  -30.0533  -20.6425  143.5655 C   0  0  0  0  0  0  0  0  0  0  0  0
  -29.5386  -19.3841  143.4270 C   0  0  0  0  0  0  0  0  0  0  0  0
  -17.9501  -16.1457  138.2777 C   0  0  0  0  0  0  0  0  0  0  0  0
  -19.1438  -15.4138  138.4306 O   0  0  0  0  0  0  0  0  0  0  0  0
  -20.0465  -18.7646  136.8216 C   0  0  0  0  0  0  0  0  0  0  0  0
  -26.1753  -17.9856  143.3395 C   0  0  0  0  0  0  0  0  0  0  0  0
  -25.0179  -18.1369  142.3106 C   0  0  0  0  0  0  0  0  0  0  0  0
  -19.1162  -19.6645  137.6118 C   0  0  0  0  0  0  0  0  0  0  0  0
  -18.8684  -19.4693  136.1263 C   0  0  0  0  0  0  0  0  0  0  0  0
  -27.9476  -16.4743  144.0433 C   0  0  0  0  0  0  0  0  0  0  0  0
  -26.9168  -16.5783  145.1822 C   0  0  0  0  0  0  0  0  0  0  0  0
  -29.3122  -17.0788  144.4230 C   0  0  0  0  0  0  0  0  0  0  0  0
  -25.6967  -17.2678  144.5962 C   0  0  0  0  0  0  0  0  0  0  0  0
  4  1  1  0
  5  1  1  0
  5  2  2  0
  5  3  1  0
  6  3  1  0
  7  4  1  0
  9  8  1  0
 10  6  1  0
 10  8  1  0
 11  9  1  0
 12  9  1  0
 14  7  1  0
 15  1  2  0
 16 14  1  0
 17 16  1  0
 18  4  1  0
 18  7  1  0
 18 14  1  0
 20 11  1  0
 20 13  1  0
 20 19  2  0
 21 17  1  0
 22 17  1  0
 22 21  1  0
 23 16  1  0
 24 12  1  0
 25 24  1  0
 26 23  1  0
 27 23  1  0
 27 26  1  0
 28 12  1  0
 29 28  1  0
 30 13  1  0
 30 28  1  0
 31 24  1  0
 31 29  1  0
M  END
$$$$

     RDKit          3D

 31 38  0  0  0  0  0  0  0  0999 V2000
  -20.8460    2.6501  141.2297 O   0  0  0  0  0  0  0  0  0  0  0  0
  -21.7569    3.6764  140.9434 C   0  0  0  0  0  0  0  0  0  0  0  0
  -23.1231    3.4295  141.1718 O   0  0  0  0  0  0  0  0  0  0  0  0
  -21.2096    5.0416  141.3051 C   0  0  0  0  0  0  0  0  0  0  0  0
  -19.8793    3.2035  142.0858 C   0  0  0  0  0  0  0  0  0  0  0  0
  -18.8868    3.9931  141.3170 N   0  0  0  0  0  0  0  0  0  0  0  0
  -19.9723    4.6741  142.1069 C   0  0  0  0  0  0  0  0  0  0  0  0
  -21.3643    4.6126  139.8232 C   0  0  0  0  0  0  0  0  0  0  0  0
  -17.5364    4.1181  141.9083 C   0  0  0  0  0  0  0  0  0  0  0  0
  -17.0639    3.0962  143.0006 C   0  0  0  0  0  0  0  0  0  0  0  0
  -16.9771    1.7449  142.4400 N   0  0  0  0  0  0  0  0  0  0  0  0
  -17.4734    3.3061  144.5269 C   0  0  0  0  0  0  0  0  0  0  0  0
  -16.8064    0.6613  143.3925 C   0  0  0  0  0  0  0  0  0  0  0  0
  -15.5001    0.6861  144.1992 C   0  0  0  0  0  0  0  0  0  0  0  0
  -15.6875    0.5624  145.7247 C   0  0  0  0  0  0  0  0  0  0  0  0
  -16.8574   -0.3119  146.2481 C   0  0  0  0  0  0  0  0  0  0  0  0
  -18.2489    0.3088  146.6486 C   0  0  0  0  0  0  0  0  0  0  0  0
  -19.4692    0.4054  145.7253 C   0  0  0  0  0  0  0  0  0  0  0  0
  -18.9068    1.6763  146.3997 C   0  0  0  0  0  0  0  0  0  0  0  0
  -18.7617    2.9556  145.4333 C   0  0  0  0  0  0  0  0  0  0  0  0
  -20.1896    3.5040  145.0723 C   0  0  0  0  0  0  0  0  0  0  0  0
  -16.9555   -1.6812  145.6123 C   0  0  0  0  0  0  0  0  0  0  0  0
  -20.3208    4.9976  144.6831 C   0  0  0  0  0  0  0  0  0  0  0  0
  -16.4988   -2.7782  146.2536 C   0  0  0  0  0  0  0  0  0  0  0  0
  -16.3206   -4.0948  145.5249 C   0  0  0  0  0  0  0  0  0  0  0  0
  -14.9906   -4.3027  144.8140 C   0  0  0  0  0  0  0  0  0  0  0  0
  -19.6463    5.4773  143.3880 C   0  0  0  0  0  0  0  0  0  0  0  0
  -13.8392   -3.4281  145.1953 C   0  0  0  0  0  0  0  0  0  0  0  0
  -13.4614   -3.5845  146.4592 C   0  0  0  0  0  0  0  0  0  0  0  0
  -14.2531   -4.6368  147.1356 C   0  0  0  0  0  0  0  0  0  0  0  0
  -15.2883   -5.0881  146.1009 C   0  0  0  0  0  0  0  0  0  0  0  0
  2  1  1  0
  3  2  1  0
  4  2  1  0
  5  1  1  0
  6  5  1  0
  7  4  1  0
  7  5  1  0
  7  6  1  0
  8  2  1  0
  8  4  1  0
  9  6  1  0
 10  9  1  0
 11 10  1  0
 12 10  1  0
 13 11  1  0
 14 13  1  0
 15 14  1  0
 16 15  1  0
 17 16  1  0
 18 17  1  0
 19 17  1  0
 19 18  1  0
 20 12  1  0
 20 19  1  0
 21 20  1  0
 22 16  1  0
 23 21  1  0
 24 22  2  3
 25 24  1  0
 26 25  1  0
 27  7  1  0
 27 23  1  0
 28 26  1  0
 29 28  2  0
 30 29  1  0
 31 25  1  0
 31 26  1  0
 31 30  1  0
M  END
$$$$

     RDKit          3D

 30 35  0  0  0  0  0  0  0  0999 V2000
  -25.2734  -15.4233  149.6711 N   0  0  0  0  0  0  0  0  0  0  0  0
  -26.5944  -15.4775  148.6460 C   0  0  0  0  0  0  0  0  0  0  0  0
  -24.9314  -16.4852  150.5716 C   0  0  0  0  0  0  0  0  0  0  0  0
  -26.3735  -13.4941  145.6630 N   0  0  0  0  0  0  0  0  0  0  0  0
  -24.6405  -15.9568  152.0056 C   0  0  0  0  0  0  0  0  0  0  0  0
  -24.8366  -13.6082  145.5230 C   0  0  0  0  0  0  0  0  0  0  0  0
  -24.4547  -14.9939  145.0334 N   0  0  0  0  0  0  0  0  0  0  0  0
  -26.3098  -14.8129  147.4983 C   0  0  0  0  0  0  0  0  0  0  0  0
  -25.8205  -17.6259  150.4852 N   0  0  0  0  0  0  0  0  0  0  0  0
  -27.0108  -17.3703  151.3006 C   0  0  0  0  0  0  0  0  0  0  0  0
  -26.9110  -14.6841  146.1514 N   0  0  0  0  0  0  0  0  0  0  0  0
  -27.2516  -17.8375  152.9074 S   0  0  0  0  0  3  0  0  0  0  0  0
  -27.4452  -20.0241  152.8227 C   0  0  0  0  0  0  0  0  0  0  0  0
  -28.1716  -18.8872  153.5178 C   0  0  0  0  0  0  0  0  0  0  0  0
  -34.7681  -17.6244  151.3924 C   0  0  0  0  0  0  0  0  0  0  0  0
  -23.9860  -14.5349  149.2747 C   0  0  0  0  0  0  0  0  0  0  0  0
  -26.5536  -19.6945  151.8063 O   0  0  0  0  0  0  0  0  0  0  0  0
  -23.3467  -16.5285  152.6860 C   0  0  0  0  0  0  0  0  0  0  0  0
  -27.5683  -18.4255  154.9636 C   0  0  0  0  0  0  0  0  0  0  0  0
  -20.7288  -29.2439  147.7894 O   0  0  0  0  0  0  0  0  0  0  0  0
  -27.4517  -18.6957  152.1384 C   0  0  0  0  0  0  0  0  0  0  0  0
  -34.6145  -17.1490  149.8647 C   0  0  0  0  0  0  0  0  0  0  0  0
  -23.9792  -15.9021  146.1442 C   0  0  0  0  0  0  0  0  0  0  0  0
  -27.6877  -16.8107  155.1832 C   0  0  0  0  0  0  0  0  0  0  0  0
  -24.9880  -15.9454  147.3133 C   0  0  0  0  0  0  0  0  0  0  0  0
  -28.3289  -15.9655  154.0566 C   0  0  0  0  0  0  0  0  0  0  0  0
  -26.8457  -16.0738  154.1694 C   0  0  0  0  0  0  0  0  0  0  0  0
  -27.3254  -16.6274  147.6493 O   0  0  0  0  0  0  0  0  0  0  0  0
  -26.1119  -20.1157  153.9798 S   0  0  0  0  0  3  0  0  0  0  0  0
  -36.5503  -18.1800  151.9303 Br  0  0  0  0  0  0  0  0  0  0  0  0
  2  1  1  0
  3  1  1  0
  5  3  1  0
  6  4  1  0
  7  6  1  0
  8  2  1  0
  9  3  1  0
 10  9  1  0
 11  4  1  0
 11  8  1  0
 14 13  1  0
 16  1  1  0
 17 13  1  0
 18  5  1  0
 18 12  1  0
 19 14  1  0
 20 12  1  0
 21 10  1  0
 21 13  1  0
 21 14  1  0
 21 17  1  0
 22 12  1  0
 22 15  1  0
 23  7  1  0
 24 19  1  0
 25  8  1  0
 25 23  1  0
 26 24  1  0
 27 24  1  0
 27 26  1  0
 28  2  1  0
 29  5  1  0
 29 15  1  0
 29 18  1  0
 30 15  1  0
M  RAD  2  12   2  29   2
M  END
$$$$

     RDKit          3D

 31 33  0  0  0  0  0  0  0  0999 V2000
  -16.7063    5.1820  137.8235 O   0  0  0  0  0  0  0  0  0  0  0  0
  -15.5328   -3.8882  135.3564 C   0  0  0  0  0  0  0  0  0  0  0  0
  -10.3402    1.8195  136.3572 O   0  0  0  0  0  0  0  0  0  0  0  0
  -13.7695    3.7225  134.9831 C   0  0  0  0  0  0  0  0  0  0  0  0
  -19.0491   -7.6670  137.3989 C   0  0  0  0  0  0  0  0  0  0  0  0
  -14.3635    2.1835  130.3721 C   0  0  0  0  0  0  0  0  0  0  0  0
  -14.8731    2.4785  137.4701 C   0  0  0  0  0  0  0  0  0  0  0  0
  -16.2645    2.1881  128.5279 C   0  0  0  0  0  0  0  0  0  0  0  0
  -21.7257  -10.0268  140.3403 C   0  0  0  0  0  0  0  0  0  0  0  0
  -14.0686    2.0049  126.6911 C   0  0  0  0  0  0  0  0  0  0  0  0
  -20.9533   -8.9264  142.9292 C   0  0  0  0  0  0  0  0  0  0  0  0
  -15.5250   -9.9043  146.9211 C   0  0  0  0  0  0  0  0  0  0  0  0
  -24.1887  -11.9074  144.8554 C   0  0  0  0  0  0  0  0  0  0  0  0
  -17.2557   -9.1116  148.1797 C   0  0  0  0  0  0  0  0  0  0  0  0
  -20.6542   -8.3189  136.1625 C   0  0  0  0  0  0  0  0  0  0  0  0
  -17.5820   -8.2865  150.1673 C   0  0  0  0  0  0  0  0  0  0  0  0
  -13.6873   -8.2941  151.4962 S   0  0  0  0  0  0  0  0  0  0  0  0
  -19.4564   -9.9471  149.3838 C   0  0  0  0  0  0  0  0  0  0  0  0
   -8.9888   -6.9045  155.0709 C   0  0  0  0  0  0  0  0  0  0  0  0
  -16.2743   -5.7966  148.4436 C   0  0  0  0  0  0  0  0  0  0  0  0
  -21.2518  -12.0908  146.5609 C   0  0  0  0  0  0  0  0  0  0  0  0
  -14.9362   -1.4896  149.5438 C   0  0  0  0  0  0  0  0  0  0  0  0
  -11.6224   -6.6871  156.2269 C   0  0  0  0  0  0  0  0  0  0  0  0
  -13.3065    0.3238  135.3513 C   0  0  0  0  0  0  0  0  0  0  0  0
  -25.1928  -13.0524  143.9421 C   0  0  0  0  0  0  0  0  0  0  0  0
  -24.9573  -13.5187  142.8510 C   0  0  0  0  0  0  0  0  0  0  0  0
   -9.0345   -6.9049  157.0522 N   0  0  0  0  0  0  0  0  0  0  0  0
  -11.2942   -7.1269  154.4191 C   0  0  0  0  0  0  0  0  0  0  0  0
  -10.8017   -1.7068  147.8951 C   0  0  0  0  0  0  0  0  0  0  0  0
  -18.0286   -2.8337  149.6203 C   0  0  0  0  0  0  0  0  0  0  0  0
  -20.2075   -5.9544  149.7557 C   0  0  0  0  0  0  0  0  0  0  0  0
  5  2  1  0
  6  4  1  0
  7  1  1  0
  7  4  1  0
  8  6  1  0
  9  5  1  0
 10  6  1  0
 10  8  1  0
 11  9  1  0
 13 11  1  0
 14 12  1  0
 15  5  2  0
 16 14  1  0
 17 16  1  0
 18 16  1  0
 20 14  1  0
 20 16  1  0
 21 13  1  0
 21 18  1  0
 22 20  1  0
 24  2  1  0
 24  3  1  0
 24  7  1  0
 25 21  1  0
 26  9  1  0
 26 25  1  0
 27 19  3  0
 28 17  1  0
 28 19  1  0
 28 23  2  0
 29 22  1  0
 30 22  1  0
 31 30  1  0
M  END
$$$$

     RDKit          3D

  9  8  0  0  0  0  0  0  0  0999 V2000
  -25.2864   -6.9602  139.6001 F   0  0  0  0  0  0  0  0  0  0  0  0
  -24.1338   -7.3545  138.9433 C   0  0  0  0  0  0  0  0  0  0  0  0
  -24.1525   -8.7309  138.8061 F   0  0  0  0  0  0  0  0  0  0  0  0
  -23.9609   -4.5834  136.4448 F   0  0  0  0  0  0  0  0  0  0  0  0
  -23.1714   -8.2064  136.2356 O   0  0  0  0  0  0  0  0  0  0  0  0
  -24.0267   -5.1647  137.6984 C   0  0  0  0  0  0  0  0  0  0  0  0
  -22.8763   -7.1001  136.9012 O   0  0  0  0  0  0  0  0  0  0  0  0
  -22.9326   -7.9182  134.8837 C   0  0  0  0  0  0  0  0  0  0  0  0
  -24.0535   -6.6889  137.5621 C   0  0  0  0  0  0  0  0  0  0  0  0
  2  1  1  0
  3  2  1  0
  6  4  1  0
  7  5  1  0
  8  5  1  0
  9  2  1  0
  9  6  1  0
  9  7  1  0
M  END
$$$$

     RDKit          3D

 31 32  0  0  0  0  0  0  0  0999 V2000
  -27.0724   -0.8504  142.0959 O   0  0  0  0  0  0  0  0  0  0  0  0
  -25.8386   -1.2700  142.5985 C   0  0  0  0  0  0  0  0  0  0  0  0
  -24.9089   -0.2165  142.4919 O   0  0  0  0  0  0  0  0  0  0  0  0
  -26.0015   -1.7035  144.0725 C   0  0  0  0  0  0  0  0  0  0  0  0
  -26.4180   -0.5238  144.8704 N   0  0  0  0  0  0  0  0  0  0  0  0
  -26.8126   -0.8942  146.2366 C   0  0  0  0  0  0  0  0  0  0  0  0
  -26.9412    0.2111  147.0995 O   0  0  0  0  0  0  0  0  0  0  0  0
  -28.1362   -0.3371  146.6028 C   0  0  0  0  0  0  0  0  0  0  0  0
  -26.9932   -2.9232  144.1448 C   0  0  0  0  0  0  0  0  0  0  0  0
  -26.5777   -4.0215  145.1591 C   0  0  0  0  0  0  0  0  0  0  0  0
  -28.9437   -1.3152  147.4758 C   0  0  0  0  0  0  0  0  0  0  0  0
  -24.5167   -5.0158  143.9270 C   0  0  0  0  0  0  0  0  0  0  0  0
  -23.7155   -4.1360  144.7910 N   0  0  0  0  0  0  0  0  0  0  0  0
  -28.6239   -2.7834  149.5385 C   0  0  0  0  0  0  0  0  0  0  0  0
  -25.9039   -5.2659  144.5196 C   0  0  0  0  0  0  0  0  0  0  0  0
  -29.3687   -2.9532  150.8754 C   0  0  0  0  0  0  0  0  0  0  0  0
  -22.6880   -4.8234  145.5886 C   0  0  0  0  0  0  0  0  0  0  0  0
  -21.8033   -3.7912  146.3225 C   0  0  0  0  0  0  0  0  0  0  0  0
  -28.6520   -1.3415  148.9868 C   0  0  0  0  0  0  0  0  0  0  0  0
  -29.6309   -4.3738  151.1482 N   0  0  0  0  0  0  0  0  0  0  0  0
  -27.3568   -1.9283  149.5381 C   0  0  0  0  0  0  0  0  0  0  0  0
  -23.3167   -5.7893  146.6155 C   0  0  0  0  0  0  0  0  0  0  0  0
  -30.4146   -5.2548  150.3160 C   0  0  0  0  0  0  0  0  0  0  0  0
  -21.8793   -1.5357  145.6872 C   0  0  0  0  0  0  0  0  0  0  0  0
  -21.8969   -0.6824  144.4070 C   0  0  0  0  0  0  0  0  0  0  0  0
  -31.0102   -4.8555  149.1922 C   0  0  0  0  0  0  0  0  0  0  0  0
  -21.3258   -2.8058  145.4203 O   0  0  0  0  0  0  0  0  0  0  0  0
  -20.4800   -0.3559  143.8549 C   0  0  0  0  0  0  0  0  0  0  0  0
  -20.5021    0.9387  143.0236 C   0  0  0  0  0  0  0  0  0  0  0  0
  -21.3861    0.8103  141.9463 O   0  0  0  0  0  0  0  0  0  0  0  0
  -19.9170   -1.5097  142.9951 C   0  0  0  0  0  0  0  0  0  0  0  0
  2  1  1  0
  3  2  1  0
  4  2  1  0
  5  4  1  0
  6  5  1  0
  7  6  1  0
  8  6  1  0
  8  7  1  0
  9  4  1  0
 10  9  1  0
 11  8  1  0
 13 12  1  0
 15 10  1  0
 15 12  1  0
 16 14  1  0
 17 13  1  0
 18 17  1  0
 19 11  1  0
 19 14  1  0
 20 16  1  0
 21 14  1  0
 21 19  1  0
 22 17  1  0
 23 20  1  0
 25 24  1  0
 26 23  2  0
 27 18  1  0
 27 24  1  0
 28 25  1  0
 29 28  1  0
 30 29  1  0
 31 28  1  0
M  END
$$$$

     RDKit          3D

 30 35  0  0  0  0  0  0  0  0999 V2000
  -34.8212  -14.6158  146.6311 O   0  0  0  0  0  0  0  0  0  0  0  0
  -35.2960  -13.4285  147.3792 C   0  0  0  0  0  0  0  0  0  0  0  0
  -36.6672  -13.4972  147.6988 O   0  0  0  0  0  0  0  0  0  0  0  0
  -34.2455  -13.1046  148.5910 C   0  0  0  0  0  0  0  0  0  0  0  0
  -32.9388  -13.9550  148.1051 C   0  0  0  0  0  0  0  0  0  0  0  0
  -32.3072  -15.1377  148.8203 C   0  0  0  0  0  0  0  0  0  0  0  0
  -31.7453  -16.1601  147.8962 C   0  0  0  0  0  0  0  0  0  0  0  0
  -31.6151  -13.7413  148.8248 C   0  0  0  0  0  0  0  0  0  0  0  0
  -30.8444  -12.8062  147.7003 C   0  0  0  0  0  0  0  0  0  0  0  0
  -30.4252  -16.2090  147.6642 C   0  0  0  0  0  0  0  0  0  0  0  0
  -29.5004  -15.0700  147.8695 C   0  0  0  0  0  0  0  0  0  0  0  0
  -29.2113  -14.5173  149.3872 C   0  0  0  0  0  0  0  0  0  0  0  0
  -28.4538  -13.1660  149.7877 C   0  0  0  0  0  0  0  0  0  0  0  0
  -30.1770  -13.8916  148.4126 C   0  0  0  0  0  0  0  0  0  0  0  0
  -29.6292  -12.3068  150.6321 C   0  0  0  0  0  0  0  0  0  0  0  0
  -30.9808  -13.0330  151.3315 C   0  0  0  0  0  0  0  0  0  0  0  0
  -28.9763  -11.1096  151.4477 C   0  0  0  0  0  0  0  0  0  0  0  0
  -31.0976  -14.5859  151.8653 C   0  0  0  0  0  0  0  0  0  0  0  0
  -32.2794  -15.0679  152.4099 C   0  0  0  0  0  0  0  0  0  0  0  0
  -30.0442  -10.0653  151.8274 C   0  0  0  0  0  0  0  0  0  0  0  0
  -31.4460   -8.4877  146.9213 As  0  0  0  0  0  3  0  0  0  0  0  0
  -33.7621  -11.5294  149.0646 C   0  0  0  0  0  0  0  0  0  0  0  0
  -33.4559  -14.3957  151.9787 O   0  0  0  0  0  0  0  0  0  0  0  0
  -29.5069   -8.8227  147.3314 C   0  0  0  0  0  0  0  0  0  0  0  0
  -32.9613   -8.8491  148.3166 C   0  0  0  0  0  0  0  0  0  0  0  0
  -28.6279   -9.0335  146.0421 C   0  0  0  0  0  0  0  0  0  0  0  0
  -32.7432   -8.0713  149.6482 C   0  0  0  0  0  0  0  0  0  0  0  0
  -29.8788   -9.3290  153.0889 C   0  0  0  0  0  0  0  0  0  0  0  0
  -29.4283  -10.8008  152.9742 C   0  0  0  0  0  0  0  0  0  0  0  0
  -34.0013  -10.1611  148.1442 C   0  0  0  0  0  0  0  0  0  0  0  0
  2  1  1  0
  3  2  1  0
  4  2  1  0
  5  4  1  0
  6  5  1  0
  7  6  1  0
  8  5  1  0
  8  6  1  0
  9  8  1  0
 10  7  2  0
 11 10  1  0
 12 11  1  0
 13 12  1  0
 14  8  1  0
 14  9  1  0
 14 11  1  0
 14 12  1  0
 15 13  1  0
 16 15  1  0
 17 15  1  0
 18 16  1  0
 19 18  2  3
 20 17  1  0
 22  4  1  0
 23 19  1  0
 24 21  1  0
 25 21  1  0
 26 24  1  0
 27 25  1  0
 28 20  1  0
 29 17  1  0
 29 20  1  0
 29 28  1  0
 30 22  1  0
 30 25  1  0
M  END
$$$$

     RDKit          3D

 31 38  0  0  0  0  0  0  0  0999 V2000
  -33.8636   -9.5918  138.7446 O   0  0  0  0  0  0  0  0  0  0  0  0
  -35.0513   -8.7231  140.7960 C   0  0  0  0  0  0  0  0  0  0  0  0
  -35.3140   -7.9486  143.0689 O   0  0  0  0  0  0  0  0  0  0  0  0
  -33.9557   -6.8143  141.3858 C   0  0  0  0  0  0  0  0  0  0  0  0
  -32.3058   -5.1507  140.5570 N   0  0  0  0  0  0  0  0  0  0  0  0
  -35.1823   -7.5997  141.7373 C   0  0  0  0  0  0  0  0  0  0  0  0
  -36.0239   -6.9857  143.7601 F   0  0  0  0  0  0  0  0  0  0  0  0
  -33.2725   -4.2418  139.7842 C   0  0  0  0  0  0  0  0  0  0  0  0
  -34.2720   -8.3954  139.4477 C   0  0  0  0  0  0  0  0  0  0  0  0
  -33.2630   -7.2926  139.9614 C   0  0  0  0  0  0  0  0  0  0  0  0
  -32.3816   -6.1315  139.4034 C   0  0  0  0  0  0  0  0  0  0  0  0
  -35.9863   -4.7325  140.2565 C   0  0  0  0  0  0  0  0  0  0  0  0
  -33.9170  -10.4849  142.5907 C   0  0  0  0  0  0  0  0  0  0  0  0
  -32.8727   -9.3574  142.5671 C   0  0  0  0  0  0  0  0  0  0  0  0
  -33.8977   -9.6077  141.4378 C   0  0  0  0  0  0  0  0  0  0  0  0
  -33.2666   -5.1408  138.5844 C   0  0  0  0  0  0  0  0  0  0  0  0
  -35.5941   -7.4797  137.7058 C   0  0  0  0  0  0  0  0  0  0  0  0
  -32.5910   -9.3277  136.0552 C   0  0  0  0  0  0  0  0  0  0  0  0
  -34.1446   -8.7256  136.0775 C   0  0  0  0  0  0  0  0  0  0  0  0
  -30.6023   -9.6905  137.7323 C   0  0  0  0  0  0  0  0  0  0  0  0
  -31.7549   -7.6044  139.3958 C   0  0  0  0  0  0  0  0  0  0  0  0
  -31.6171  -10.7606  139.5359 C   0  0  0  0  0  0  0  0  0  0  0  0
  -29.2414   -9.1741  137.6864 C   0  0  0  0  0  0  0  0  0  0  0  0
  -30.1631  -11.9185  139.5795 Cl  0  0  0  0  0  0  0  0  0  0  0  0
  -31.2210  -10.1520  136.3679 C   0  0  0  0  0  0  0  0  0  0  0  0
  -35.6738   -8.0749  139.2858 C   0  0  0  0  0  0  0  0  0  0  0  0
  -37.1936   -3.8761  140.1268 C   0  0  0  0  0  0  0  0  0  0  0  0
  -34.3067   -7.6899  137.1032 O   0  0  0  0  0  0  0  0  0  0  0  0
  -30.1223   -9.0738  136.4740 C   0  0  0  0  0  0  0  0  0  0  0  0
  -31.2461   -9.2327  139.0758 C   0  0  0  0  0  0  0  0  0  0  0  0
  -34.7309   -3.8154  140.4777 C   0  0  0  0  0  0  0  0  0  0  0  0
  6  2  1  0
  6  3  1  0
  6  4  1  0
  7  3  1  0
  8  5  1  0
  9  1  1  0
  9  2  1  0
 10  4  1  0
 10  9  1  0
 11  5  1  0
 11 10  1  0
 14 13  1  0
 15  2  1  0
 15 13  1  0
 15 14  1  0
 16  8  1  0
 16 11  1  0
 19 18  1  0
 21 10  1  0
 21 11  1  0
 23 20  1  0
 24 22  1  0
 25 18  1  0
 25 20  1  0
 26  2  1  0
 26  9  1  0
 26 17  1  0
 27 12  1  0
 28 17  1  0
 28 19  1  0
 29 20  1  0
 29 23  1  0
 29 25  1  0
 30 20  1  0
 30 21  1  0
 30 22  1  0
 31  8  1  0
 31 12  1  0
M  END
$$$$

     RDKit          3D

 30 36  0  0  0  0  0  0  0  0999 V2000
  -19.6452   -9.8809  144.5405 O   0  0  0  0  0  0  0  0  0  0  0  0
  -20.1654   -7.6700  144.0332 C   0  0  0  0  0  0  0  0  0  0  0  0
  -20.5899   -6.9960  145.2055 O   0  0  0  0  0  0  0  0  0  0  0  0
  -20.0865   -9.2041  145.6890 C   0  0  0  0  0  0  0  0  0  0  0  0
  -19.6724   -8.9785  143.4684 C   0  0  0  0  0  0  0  0  0  0  0  0
  -19.6100   -7.8633  145.3943 C   0  0  0  0  0  0  0  0  0  0  0  0
  -18.2669   -8.8095  142.8286 C   0  0  0  0  0  0  0  0  0  0  0  0
  -18.8889   -7.5277  143.4069 C   0  0  0  0  0  0  0  0  0  0  0  0
  -16.9035   -9.2302  143.3942 C   0  0  0  0  0  0  0  0  0  0  0  0
  -16.4672   -9.6639  144.8135 C   0  0  0  0  0  0  0  0  0  0  0  0
  -16.9722  -10.9477  145.6614 C   0  0  0  0  0  0  0  0  0  0  0  0
  -15.9009   -8.0252  143.5280 C   0  0  0  0  0  0  0  0  0  0  0  0
  -16.4254  -12.3899  145.3047 C   0  0  0  0  0  0  0  0  0  0  0  0
  -16.0606   -7.0843  146.0677 C   0  0  0  0  0  0  0  0  0  0  0  0
  -14.8278  -13.4312  143.6405 C   0  0  0  0  0  0  0  0  0  0  0  0
  -16.2711   -7.0308  147.5850 C   0  0  0  0  0  0  0  0  0  0  0  0
  -14.9418  -12.8383  145.0219 C   0  0  0  0  0  0  0  0  0  0  0  0
  -17.2063   -8.0922  148.1711 C   0  0  0  0  0  0  0  0  0  0  0  0
  -16.4566   -5.8509  145.3953 C   0  0  0  0  0  0  0  0  0  0  0  0
  -13.9375  -12.2502  143.9812 C   0  0  0  0  0  0  0  0  0  0  0  0
  -15.6968   -8.2854  145.0593 C   0  0  0  0  0  0  0  0  0  0  0  0
  -17.0437   -8.3611  149.7382 C   0  0  0  0  0  0  0  0  0  0  0  0
  -13.7704  -11.9733  145.5164 C   0  0  0  0  0  0  0  0  0  0  0  0
  -19.5650   -8.1058  150.0601 C   0  0  0  0  0  0  0  0  0  0  0  0
  -15.8170   -7.8092  150.5101 C   0  0  0  0  0  0  0  0  0  0  0  0
  -18.2596   -8.4445  150.6702 C   0  0  0  0  0  0  0  0  0  0  0  0
  -15.9509   -6.2923  150.8363 C   0  0  0  0  0  0  0  0  0  0  0  0
  -14.6427   -5.5060  151.1200 C   0  0  0  0  0  0  0  0  0  0  0  0
  -13.7110   -6.2545  152.1010 C   0  0  0  0  0  0  0  0  0  0  0  0
  -14.1348   -6.7551  153.1691 N   0  0  0  0  0  0  0  0  0  0  0  0
  3  2  1  0
  4  1  1  0
  5  1  1  0
  5  2  1  0
  6  2  1  0
  6  3  1  0
  6  4  1  0
  7  5  1  0
  8  2  1  0
  8  5  1  0
  8  7  1  0
  9  7  1  0
 10  9  1  0
 11 10  1  0
 12  9  1  0
 13 11  1  0
 16 14  1  0
 17 13  1  0
 17 15  1  0
 18 16  1  0
 19 14  1  0
 20 15  1  0
 20 17  1  0
 21 10  1  0
 21 12  1  0
 21 14  1  0
 22 18  1  0
 23 17  1  0
 23 20  1  0
 25 22  1  0
 26 22  1  0
 26 24  1  0
 27 25  1  0
 28 27  1  0
 29 28  1  0
 30 29  2  0
M  END
$$$$

     RDKit          3D

 31 34  0  0  0  0  0  0  0  0999 V2000
  -20.4208    1.3955  133.7501 O   0  0  0  0  0  0  0  0  0  0  0  0
  -19.0993    1.8801  133.8089 C   0  0  0  0  0  0  0  0  0  0  0  0
  -18.0839    0.9172  134.0243 O   0  0  0  0  0  0  0  0  0  0  0  0
  -18.2403    1.3262  132.6890 C   0  0  0  0  0  0  0  0  0  0  0  0
  -19.6724   -0.5952  132.3072 F   0  0  0  0  0  0  0  0  0  0  0  0
  -19.8305    1.2069  130.9679 F   0  0  0  0  0  0  0  0  0  0  0  0
  -21.6072    5.4467  130.3772 C   0  0  0  0  0  0  0  0  0  0  0  0
  -17.8111   -0.1932  130.7531 C   0  0  0  0  0  0  0  0  0  0  0  0
  -20.1164    5.0909  130.4413 C   0  0  0  0  0  0  0  0  0  0  0  0
  -18.0808   -0.4549  129.2474 C   0  0  0  0  0  0  0  0  0  0  0  0
  -19.3382    5.9455  129.4650 C   0  0  0  0  0  0  0  0  0  0  0  0
  -17.1589   -1.3880  131.4392 C   0  0  0  0  0  0  0  0  0  0  0  0
  -19.4403   -0.0003  128.6729 C   0  0  0  0  0  0  0  0  0  0  0  0
  -19.5697    5.2645  131.8799 C   0  0  0  0  0  0  0  0  0  0  0  0
  -18.9435    0.4034  131.6656 C   0  0  0  0  0  0  0  0  0  0  0  0
  -16.8540   -0.4130  128.2997 C   0  0  0  0  0  0  0  0  0  0  0  0
  -17.0852   -0.9961  126.8772 C   0  0  0  0  0  0  0  0  0  0  0  0
  -15.6201   -1.3284  131.3620 C   0  0  0  0  0  0  0  0  0  0  0  0
  -17.7067   -2.4269  126.8890 C   0  0  0  0  0  0  0  0  0  0  0  0
  -15.7603   -0.9173  126.0779 C   0  0  0  0  0  0  0  0  0  0  0  0
  -18.0444   -1.6317  130.2115 C   0  0  0  0  0  0  0  0  0  0  0  0
  -16.8122   -3.5235  127.4812 C   0  0  0  0  0  0  0  0  0  0  0  0
  -18.1729    5.5295  128.9600 C   0  0  0  0  0  0  0  0  0  0  0  0
  -17.5888   -4.8210  127.6935 C   0  0  0  0  0  0  0  0  0  0  0  0
  -15.9352   -1.2066  124.5784 C   0  0  0  0  0  0  0  0  0  0  0  0
  -14.7018   -1.0866  123.9244 O   0  0  0  0  0  0  0  0  0  0  0  0
  -19.9647    4.0761  132.7931 C   0  0  0  0  0  0  0  0  0  0  0  0
  -17.8091    2.7325  132.3082 C   0  0  0  0  0  0  0  0  0  0  0  0
  -18.7479    3.3014  133.3553 C   0  0  0  0  0  0  0  0  0  0  0  0
  -20.9335    1.4118  135.0594 C   0  0  0  0  0  0  0  0  0  0  0  0
  -14.9853   -2.6666  130.9816 C   0  0  0  0  0  0  0  0  0  0  0  0
  2  1  1  0
  3  2  1  0
  4  2  1  0
  4  3  1  0
  9  7  1  0
 10  8  1  0
 11  9  1  0
 12  8  1  0
 13 10  1  0
 14  9  1  0
 15  4  1  0
 15  5  1  0
 15  6  1  0
 15  8  1  0
 16 10  1  0
 17 16  1  0
 18 12  1  0
 19 17  1  0
 20 17  1  0
 21  8  1  0
 21 10  1  0
 21 12  1  0
 22 19  1  0
 23 11  2  0
 24 22  1  0
 25 20  1  0
 26 25  1  0
 27 14  1  0
 28  4  1  0
 29  2  1  0
 29 27  1  0
 29 28  1  0
 30  1  1  0
 31 18  1  0
M  END
$$$$

     RDKit          3D

 31 36  0  0  0  0  0  0  0  0999 V2000
  -34.8300  -23.5138  149.7959 O   0  0  0  0  0  0  0  0  0  0  0  0
  -34.8039  -22.1279  149.4537 C   0  0  0  0  0  0  0  0  0  0  0  0
  -33.5263  -21.4816  149.6726 O   0  0  0  0  0  0  0  0  0  0  0  0
  -35.1375  -22.4716  147.9959 C   0  0  0  0  0  0  0  0  0  0  0  0
  -34.8993  -23.8959  148.4541 C   0  0  0  0  0  0  0  0  0  0  0  0
  -31.2142  -21.1427  150.9430 C   0  0  0  0  0  0  0  0  0  0  0  0
  -32.3483  -23.5549  151.0296 C   0  0  0  0  0  0  0  0  0  0  0  0
  -33.5834  -24.4762  147.9383 C   0  0  0  0  0  0  0  0  0  0  0  0
  -33.1788  -22.6533  151.9716 C   0  0  0  0  0  0  0  0  0  0  0  0
  -30.4962  -19.7301  150.1743 C   0  0  0  0  0  0  0  0  0  0  0  0
  -32.5979  -22.0013  150.6841 C   0  0  0  0  0  0  0  0  0  0  0  0
  -29.0435  -19.8282  150.8395 C   0  0  0  0  0  0  0  0  0  0  0  0
  -28.1119  -19.8406  149.5782 C   0  0  0  0  0  0  0  0  0  0  0  0
  -36.6002  -22.0366  148.2748 C   0  0  0  0  0  0  0  0  0  0  0  0
  -30.1656  -18.7956  148.6334 C   0  0  0  0  0  0  0  0  0  0  0  0
  -28.5330  -18.5980  148.6087 C   0  0  0  0  0  0  0  0  0  0  0  0
  -27.9445  -18.7191  147.0226 C   0  0  0  0  0  0  0  0  0  0  0  0
  -37.6225  -21.6154  147.0994 C   0  0  0  0  0  0  0  0  0  0  0  0
  -36.1227  -21.2652  149.5009 C   0  0  0  0  0  0  0  0  0  0  0  0
  -27.6214  -15.7594  149.1727 C   0  0  0  0  0  0  0  0  0  0  0  0
  -29.2497  -16.6721  150.2628 C   0  0  0  0  0  0  0  0  0  0  0  0
  -27.9745  -20.1893  146.4201 C   0  0  0  0  0  0  0  0  0  0  0  0
  -28.8400  -15.2768  150.0410 C   0  0  0  0  0  0  0  0  0  0  0  0
  -27.9991  -17.3151  149.4920 C   0  0  0  0  0  0  0  0  0  0  0  0
  -27.9897  -20.6948  145.1361 C   0  0  0  0  0  0  0  0  0  0  0  0
  -37.2434  -20.4239  146.2182 C   0  0  0  0  0  0  0  0  0  0  0  0
  -28.9568  -15.9149  151.5215 C   0  0  0  0  0  0  0  0  0  0  0  0
  -30.2266  -14.7199  147.8681 C   0  0  0  0  0  0  0  0  0  0  0  0
  -29.9417  -14.3673  149.3681 C   0  0  0  0  0  0  0  0  0  0  0  0
  -27.7756  -19.9564  143.8210 C   0  0  0  0  0  0  0  0  0  0  0  0
  -26.5251  -20.4759  143.0680 C   0  0  0  0  0  0  0  0  0  0  0  0
  2  1  1  0
  3  2  1  0
  4  2  1  0
  5  1  1  0
  5  4  1  0
  8  5  1  0
  9  7  1  0
 10  6  1  0
 11  3  1  0
 11  6  1  0
 11  7  1  0
 11  9  1  0
 12 10  1  0
 13 12  1  0
 14  4  1  0
 15 10  1  0
 16 13  1  0
 16 15  1  0
 17 16  1  0
 18 14  1  0
 19  2  1  0
 19 14  1  0
 22 17  1  0
 23 20  1  0
 23 21  1  0
 24 16  1  0
 24 20  1  0
 24 21  1  0
 25 22  2  3
 26 18  1  0
 27 21  1  0
 27 23  1  0
 29 23  1  0
 29 28  1  0
 30 25  1  0
 31 30  1  0
M  END
$$$$

     RDKit          3D

 20 25  0  0  0  0  0  0  0  0999 V2000
  -29.0214  -21.1228  147.6477 O   0  0  0  0  0  0  0  0  0  0  0  0
  -25.9660  -21.5881  146.6795 O   0  0  0  0  0  0  0  0  0  0  0  0
  -32.4898  -20.0704  153.8931 O   0  0  0  0  0  0  0  0  0  0  0  0
  -27.1637  -22.5766  148.2325 C   0  0  0  0  0  0  0  0  0  0  0  0
  -28.6279  -22.1873  148.4951 C   0  0  0  0  0  0  0  0  0  0  0  0
  -31.2096  -20.5897  153.5945 C   0  0  0  0  0  0  0  0  0  0  0  0
  -30.5687  -19.8794  152.3427 C   0  0  0  0  0  0  0  0  0  0  0  0
  -26.8921  -22.5204  146.8425 O   0  0  0  0  0  0  0  0  0  0  0  0
  -29.7766  -19.0802  153.4557 C   0  0  0  0  0  0  0  0  0  0  0  0
  -29.2759  -20.2934  148.7528 C   0  0  0  0  0  0  0  0  0  0  0  0
  -28.3059  -19.0901  148.7400 C   0  0  0  0  0  0  0  0  0  0  0  0
  -30.7232  -19.8392  148.7321 C   0  0  0  0  0  0  0  0  0  0  0  0
  -28.8475  -21.3682  149.7801 C   0  0  0  0  0  0  0  0  0  0  0  0
  -30.1366  -20.0579  154.5188 C   0  0  0  0  0  0  0  0  0  0  0  0
  -30.0706  -20.0352  156.0701 C   0  0  0  0  0  0  0  0  0  0  0  0
  -30.8035  -21.3030  151.6479 C   0  0  0  0  0  0  0  0  0  0  0  0
  -28.9898  -19.7546  152.4464 C   0  0  0  0  0  0  0  0  0  0  0  0
  -28.7457  -19.9970  153.9115 C   0  0  0  0  0  0  0  0  0  0  0  0
  -31.1670  -21.9674  152.9644 C   0  0  0  0  0  0  0  0  0  0  0  0
  -29.7962  -22.1198  150.7781 C   0  0  0  0  0  0  0  0  0  0  0  0
  5  1  1  0
  5  4  1  0
  6  3  1  0
  7  6  1  0
  8  2  1  0
  8  4  1  0
  9  7  1  0
 10  1  1  0
 11 10  1  0
 12 10  1  0
 13  5  1  0
 13 10  1  0
 14  6  1  0
 14  9  1  0
 15 14  1  0
 16  7  1  0
 17  7  1  0
 17  9  1  0
 18  9  1  0
 18 14  1  0
 18 17  1  0
 19  6  1  0
 19 16  1  0
 20 13  1  0
 20 16  1  0
M  END
$$$$

     RDKit          3D

 31 39  0  0  0  0  0  0  0  0999 V2000
  -31.0731  -13.3272  143.9442 C   0  0  0  0  0  0  0  0  0  0  0  0
  -30.3505  -12.4281  144.7493 N   0  0  0  0  0  2  0  0  0  0  0  0
  -29.5403  -11.4676  144.1842 C   0  0  0  0  0  0  0  0  0  0  0  0
  -31.3689  -13.2578  145.1323 O   0  0  0  0  0  1  0  0  0  0  0  0
  -31.6163  -14.5039  143.1139 C   0  0  0  0  0  0  0  0  0  0  0  0
  -30.0489  -10.1604  143.9424 C   0  0  0  0  0  0  0  0  0  0  0  0
  -29.1768   -9.0362  143.8550 C   0  0  0  0  0  0  0  0  0  0  0  0
  -32.4312  -13.2787  143.3450 C   0  0  0  0  0  0  0  0  0  0  0  0
  -32.2130  -15.7734  143.6784 C   0  0  0  0  0  0  0  0  0  0  0  0
  -31.6472  -16.9120  143.5198 O   0  0  0  0  0  0  0  0  0  0  0  0
  -27.7872   -9.1440  144.1807 C   0  0  0  0  0  0  0  0  0  0  0  0
  -31.4748  -14.8183  144.5088 C   0  0  0  0  0  0  0  0  0  0  0  0
  -27.3940   -9.2774  145.5523 C   0  0  0  0  0  0  0  0  0  0  0  0
  -27.5827  -10.5230  146.2110 C   0  0  0  0  0  0  0  0  0  0  0  0
  -28.1772  -10.5716  147.4907 C   0  0  0  0  0  0  0  0  0  0  0  0
  -27.1829  -10.4291  144.7003 C   0  0  0  0  0  0  0  0  0  0  0  0
  -29.1677   -9.6485  147.8817 C   0  0  0  0  0  0  0  0  0  0  0  0
  -28.2306   -8.7415  144.9902 C   0  0  0  0  0  0  0  0  0  0  0  0
  -30.2670   -9.3807  147.0485 C   0  0  0  0  0  0  0  0  0  0  0  0
  -29.2203  -10.7662  148.7328 C   0  0  0  0  0  0  0  0  0  0  0  0
  -31.5180   -9.8270  147.4683 C   0  0  0  0  0  0  0  0  0  0  0  0
  -28.7978  -12.0824  148.4019 C   0  0  0  0  0  0  0  0  0  0  0  0
  -27.4955  -12.2473  147.7713 C   0  0  0  0  0  0  0  0  0  0  0  0
  -32.6906   -9.1810  147.0356 C   0  0  0  0  0  0  0  0  0  0  0  0
  -27.2038  -11.5798  146.4328 C   0  0  0  0  0  0  0  0  0  0  0  0
  -33.8131   -8.7850  146.3095 C   0  0  0  0  0  0  0  0  0  0  0  0
  -32.9241   -9.2218  145.3164 N   0  0  0  0  0  0  0  0  0  0  0  0
  -32.1220  -10.4558  145.3085 C   0  0  0  0  0  0  0  0  0  0  0  0
  -32.2220   -9.5160  148.7725 C   0  0  0  0  0  0  0  0  0  0  0  0
  -33.2031   -9.5323  145.4016 O   0  0  0  0  0  0  0  0  0  0  0  0
  -31.1358  -10.2083  146.2395 C   0  0  0  0  0  0  0  0  0  0  0  0
  2  1  1  0
  3  2  1  0
  4  1  1  0
  5  1  1  0
  6  3  1  0
  7  6  2  3
  8  1  1  0
  8  5  1  0
  9  5  1  0
 10  9  1  0
 11  7  1  0
 12  5  1  0
 12  9  1  0
 14 13  1  0
 15 14  1  0
 16 11  1  0
 16 13  1  0
 16 14  1  0
 17 15  1  0
 18 11  1  0
 18 13  1  0
 19 17  1  0
 20 15  1  0
 20 17  1  0
 21 19  1  0
 22 20  1  0
 23 22  1  0
 24 21  1  0
 25 14  1  0
 25 23  1  0
 26 24  1  0
 28 27  1  0
 29 21  1  0
 29 24  1  0
 30 26  1  0
 30 27  1  0
 31 19  1  0
 31 21  1  0
 31 28  1  0
M  RAD  2   2   2   4   2
M  END
$$$$

     RDKit          3D

 31 36  0  0  0  0  0  0  0  0999 V2000
  -24.6995  -11.2706  144.7912 O   0  0  0  0  0  0  0  0  0  0  0  0
  -22.6029  -10.7663  143.9148 C   0  0  0  0  0  0  0  0  0  0  0  0
  -22.3250  -12.2205  143.8369 N   0  0  0  0  0  0  0  0  0  0  0  0
  -24.0503  -10.4957  143.8718 N   0  0  0  0  0  0  0  0  0  0  0  0
  -22.4501  -12.8876  142.5169 C   0  0  0  0  0  0  0  0  0  0  0  0
  -23.1664  -12.1573  141.3460 C   0  0  0  0  0  0  0  0  0  0  0  0
  -20.8695  -12.4380  143.7529 C   0  0  0  0  0  0  0  0  0  0  0  0
  -24.6189  -12.6667  141.1206 C   0  0  0  0  0  0  0  0  0  0  0  0
  -24.3016   -9.0824  144.1855 C   0  0  0  0  0  0  0  0  0  0  0  0
  -24.2868   -8.1622  142.9729 C   0  0  0  0  0  0  0  0  0  0  0  0
  -20.9441  -13.0283  142.3568 C   0  0  0  0  0  0  0  0  0  0  0  0
  -24.5771   -5.7415  142.3433 C   0  0  0  0  0  0  0  0  0  0  0  0
  -25.6141   -8.5699  143.6060 C   0  0  0  0  0  0  0  0  0  0  0  0
  -25.2326  -12.4600  139.7917 N   0  0  0  0  0  0  0  0  0  0  0  0
  -23.8447   -6.7205  143.2588 C   0  0  0  0  0  0  0  0  0  0  0  0
  -25.5118  -13.3126  142.1824 C   0  0  0  0  0  0  0  0  0  0  0  0
  -25.9862  -14.6417  141.7859 N   0  0  0  0  0  0  0  0  0  0  0  0
  -26.5521  -12.2408  141.9335 C   0  0  0  0  0  0  0  0  0  0  0  0
  -27.0453  -15.3312  142.4712 C   0  0  0  0  0  0  0  0  0  0  0  0
  -25.6262  -11.5950  140.9158 C   0  0  0  0  0  0  0  0  0  0  0  0
  -27.3495  -15.0653  143.9284 C   0  0  0  0  0  0  0  0  0  0  0  0
  -26.7635  -16.1575  144.8365 C   0  0  0  0  0  0  0  0  0  0  0  0
  -27.6126  -17.3983  144.8153 C   0  0  0  0  0  0  0  0  0  0  0  0
  -27.1675  -18.5612  144.3219 C   0  0  0  0  0  0  0  0  0  0  0  0
  -28.0456  -19.7807  144.2621 C   0  0  0  0  0  0  0  0  0  0  0  0
  -28.3273  -20.1438  142.7988 C   0  0  0  0  0  0  0  0  0  0  0  0
  -27.4967  -21.3553  142.2722 C   0  0  0  0  0  0  0  0  0  0  0  0
  -29.0097  -21.4325  142.6281 C   0  0  0  0  0  0  0  0  0  0  0  0
  -26.9679  -20.7918  140.9888 C   0  0  0  0  0  0  0  0  0  0  0  0
  -27.5874  -22.4537  140.7535 S   0  0  0  0  0  0  0  0  0  0  0  0
  -27.7321  -16.2183  141.8231 N   0  0  0  0  0  0  0  0  0  0  0  0
  3  2  1  0
  4  1  1  0
  4  2  1  0
  5  3  1  0
  6  5  1  0
  7  3  1  0
  8  6  1  0
  9  4  1  0
 10  9  1  0
 11  5  1  0
 11  7  1  0
 13  9  1  0
 13 10  1  0
 14  8  1  0
 15 10  1  0
 15 12  1  0
 16  8  1  0
 17 16  1  0
 18 16  1  0
 19 17  1  0
 20  8  1  0
 20 14  1  0
 20 18  1  0
 21 19  1  0
 22 21  1  0
 23 22  1  0
 24 23  2  3
 25 24  1  0
 26 25  1  0
 27 26  1  0
 28 26  1  0
 28 27  1  0
 29 27  1  0
 30 27  1  0
 30 29  1  0
 31 19  2  0
M  END
$$$$

     RDKit          3D

 31 38  0  0  0  0  0  0  0  0999 V2000
  -28.5134  -12.3863  145.8486 C   0  0  0  0  0  0  0  0  0  0  0  0
  -28.2971  -11.5392  144.5531 C   0  0  0  0  0  0  0  0  0  0  0  0
  -29.3940  -11.8006  143.4773 C   0  0  0  0  0  0  0  0  0  0  0  0
  -28.9182  -12.5612  142.2338 C   0  0  0  0  0  0  0  0  0  0  0  0
  -29.3112  -13.6900  145.6478 C   0  0  0  0  0  0  0  0  0  0  0  0
  -29.6186  -12.1685  140.9283 C   0  0  0  0  0  0  0  0  0  0  0  0
  -29.1678  -14.2362  144.2284 C   0  0  0  0  0  0  0  0  0  0  0  0
  -29.8186  -13.2540  143.2513 C   0  0  0  0  0  0  0  0  0  0  0  0
  -29.4923  -13.3032  139.9005 C   0  0  0  0  0  0  0  0  0  0  0  0
  -30.6740  -13.5726  138.9878 C   0  0  0  0  0  0  0  0  0  0  0  0
  -31.6745  -14.5856  139.5129 C   0  0  0  0  0  0  0  0  0  0  0  0
  -32.8519  -14.0715  140.3628 C   0  0  0  0  0  0  0  0  0  0  0  0
  -33.1429  -15.0297  141.5246 C   0  0  0  0  0  0  0  0  0  0  0  0
  -34.2832  -14.4998  142.4010 C   0  0  0  0  0  0  0  0  0  0  0  0
  -34.5659  -15.3998  143.6147 C   0  0  0  0  0  0  0  0  0  0  0  0
  -30.3530  -14.4906  140.2228 C   0  0  0  0  0  0  0  0  0  0  0  0
  -28.1563   -9.9861  144.7708 C   0  0  0  0  0  0  0  0  0  0  0  0
  -26.8262   -9.4603  145.4118 C   0  0  0  0  0  0  0  0  0  0  0  0
  -33.4620  -15.3465  144.6897 C   0  0  0  0  0  0  0  0  0  0  0  0
  -32.5295  -16.5650  144.6050 C   0  0  0  0  0  0  0  0  0  0  0  0
  -26.6441   -9.7589  146.8951 C   0  0  0  0  0  0  0  0  0  0  0  0
  -32.9571  -17.7359  145.4673 C   0  0  0  0  0  0  0  0  0  0  0  0
  -27.2447   -8.6769  147.8063 C   0  0  0  0  0  0  0  0  0  0  0  0
  -28.7767   -8.6552  147.7437 C   0  0  0  0  0  0  0  0  0  0  0  0
  -29.3192   -8.2030  146.3772 C   0  0  0  0  0  0  0  0  0  0  0  0
  -25.5152   -9.9218  144.7467 C   0  0  0  0  0  0  0  0  0  0  0  0
  -24.6157  -10.4089  145.7934 N   0  0  0  0  0  0  0  0  0  0  0  0
  -31.8517  -18.2580  146.3594 C   0  0  0  0  0  0  0  0  0  0  0  0
  -29.4660   -9.3540  145.3612 C   0  0  0  0  0  0  0  0  0  0  0  0
  -25.1362   -9.8805  147.0519 C   0  0  0  0  0  0  0  0  0  0  0  0
  -31.7184  -16.8575  145.8394 C   0  0  0  0  0  0  0  0  0  0  0  0
  2  1  1  0
  3  2  1  0
  4  3  1  0
  5  1  1  0
  6  4  1  0
  7  5  1  0
  8  3  1  0
  8  4  1  0
  8  7  1  0
  9  6  1  0
 10  9  1  0
 11 10  1  0
 12 11  1  0
 13 12  1  0
 14 13  1  0
 15 14  1  0
 16  9  1  0
 16 10  1  0
 16 11  1  0
 17  2  1  0
 18 17  1  0
 19 15  1  0
 20 19  1  0
 21 18  1  0
 22 20  1  0
 23 21  1  0
 24 23  1  0
 25 24  1  0
 26 18  1  0
 27 26  1  0
 28 22  1  0
 29 17  1  0
 29 25  1  0
 30 21  1  0
 30 27  1  0
 31 20  1  0
 31 22  1  0
 31 28  1  0
M  END
$$$$

     RDKit          3D

 11 14  0  0  0  0  0  0  0  0999 V2000
  -26.5958   -8.4703  140.5339 C   0  0  0  0  0  0  0  0  0  0  0  0
  -26.0793  -10.9058  141.1475 C   0  0  0  0  0  0  0  0  0  0  0  0
  -24.7664  -10.9548  140.8699 C   0  0  0  0  0  0  0  0  0  0  0  0
  -27.0355   -9.9329  140.4885 C   0  0  0  0  0  0  0  0  0  0  0  0
  -26.9726   -9.9068  138.9620 C   0  0  0  0  0  0  0  0  0  0  0  0
  -26.5292   -8.4490  139.0110 C   0  0  0  0  0  0  0  0  0  0  0  0
  -23.8746  -11.9338  141.5709 C   0  0  0  0  0  0  0  0  0  0  0  0
  -22.7636  -12.5066  140.7025 C   0  0  0  0  0  0  0  0  0  0  0  0
  -23.9724  -13.3437  141.0140 C   0  0  0  0  0  0  0  0  0  0  0  0
  -23.6585  -14.4519  141.9823 C   0  0  0  0  0  0  0  0  0  0  0  0
  -22.5629  -13.9724  141.0431 C   0  0  0  0  0  0  0  0  0  0  0  0
  3  2  2  3
  4  1  1  0
  4  2  1  0
  5  4  1  0
  6  1  1  0
  6  5  1  0
  7  3  1  0
  8  7  1  0
  9  7  1  0
  9  8  1  0
 10  9  1  0
 11  8  1  0
 11  9  1  0
 11 10  1  0
M  END
$$$$

     RDKit          3D

 31 42  0  0  0  0  0  0  0  0999 V2000
  -29.0129   -3.7526  137.5628 C   0  0  0  0  0  0  0  0  0  0  0  0
  -27.6058   -4.0094  138.3509 C   0  0  0  0  0  0  0  0  0  0  0  0
  -26.2136   -3.8894  137.4933 C   0  0  0  0  0  0  0  0  0  0  0  0
  -30.0925   -3.8799  136.4110 C   0  0  0  0  0  0  0  0  0  0  0  0
  -29.7165   -4.9381  135.3799 C   0  0  0  0  0  0  0  0  0  0  0  0
  -29.8391   -4.3985  133.9876 N   0  0  0  0  0  0  0  0  0  0  0  0
  -24.9798   -3.9202  138.3500 C   0  0  0  0  0  0  0  0  0  0  0  0
  -31.0096   -5.1005  136.1980 C   0  0  0  0  0  0  0  0  0  0  0  0
  -25.1648   -2.7288  137.3687 C   0  0  0  0  0  0  0  0  0  0  0  0
  -28.4907   -4.4505  133.3328 C   0  0  0  0  0  0  0  0  0  0  0  0
  -28.0521   -5.6197  132.3840 C   0  0  0  0  0  0  0  0  0  0  0  0
  -27.4564   -4.5141  131.4590 C   0  0  0  0  0  0  0  0  0  0  0  0
  -28.3374   -3.4788  132.1595 C   0  0  0  0  0  0  0  0  0  0  0  0
  -25.5989   -1.3213  137.9046 C   0  0  0  0  0  0  0  0  0  0  0  0
  -26.9292   -1.0725  138.6824 C   0  0  0  0  0  0  0  0  0  0  0  0
  -26.9789   -1.9813  139.9297 C   0  0  0  0  0  0  0  0  0  0  0  0
  -27.2280    0.4062  139.0434 C   0  0  0  0  0  0  0  0  0  0  0  0
  -26.2563    1.6182  139.0037 C   0  0  0  0  0  0  0  0  0  0  0  0
  -27.6530   -3.3629  139.7885 C   0  0  0  0  0  0  0  0  0  0  0  0
  -28.3526   -7.9635  128.3122 C   0  0  0  0  0  0  0  0  0  0  0  0
  -28.6380   -4.2826  136.1994 C   0  0  0  0  0  0  0  0  0  0  0  0
  -26.8054    2.8786  139.6921 C   0  0  0  0  0  0  0  0  0  0  0  0
  -28.1485   -6.7617  129.2703 C   0  0  0  0  0  0  0  0  0  0  0  0
  -27.7713   -9.2770  128.8441 C   0  0  0  0  0  0  0  0  0  0  0  0
  -25.8271   -1.7080  136.4449 C   0  0  0  0  0  0  0  0  0  0  0  0
  -29.3210   -6.4894  130.2031 C   0  0  0  0  0  0  0  0  0  0  0  0
  -26.5137    0.8375  140.3217 C   0  0  0  0  0  0  0  0  0  0  0  0
  -29.1899   -6.5283  131.7651 C   0  0  0  0  0  0  0  0  0  0  0  0
  -26.9949    2.1220  140.9802 C   0  0  0  0  0  0  0  0  0  0  0  0
  -28.5239   -9.0962  130.1447 C   0  0  0  0  0  0  0  0  0  0  0  0
  -29.2145   -7.8668  129.5351 C   0  0  0  0  0  0  0  0  0  0  0  0
  2  1  1  0
  3  2  1  0
  4  1  1  0
  5  4  1  0
  6  5  1  0
  7  3  1  0
  8  4  1  0
  8  5  1  0
  9  3  1  0
  9  7  1  0
 10  6  1  0
 11 10  1  0
 12 11  1  0
 13 10  1  0
 13 12  1  0
 14  9  1  0
 15 14  1  0
 16 15  1  0
 17 15  1  0
 18 17  1  0
 19  2  1  0
 19 16  1  0
 21  1  1  0
 21  4  1  0
 21  5  1  0
 22 18  1  0
 23 20  1  0
 24 20  1  0
 25  9  1  0
 25 14  1  0
 26 23  1  0
 27 17  1  0
 27 18  1  0
 28 11  1  0
 28 26  1  0
 29 22  1  0
 29 27  1  0
 30 24  1  0
 31 20  1  0
 31 23  1  0
 31 26  1  0
 31 30  1  0
M  END
$$$$

     RDKit          3D

 31 38  0  0  0  0  0  0  0  0999 V2000
  -27.3140  -18.0482  141.6452 O   0  0  0  0  0  0  0  0  0  0  0  0
  -26.6758  -17.1639  142.3418 C   0  0  0  0  0  0  0  0  0  0  0  0
  -25.3053  -17.1077  142.2277 O   0  0  0  0  0  0  0  0  0  0  0  0
  -27.4524  -16.1213  143.2483 C   0  0  0  0  0  0  0  0  0  0  0  0
  -27.1528  -17.4216  145.5904 C   0  0  0  0  0  0  0  0  0  0  0  0
  -27.1142  -16.8697  147.1854 C   0  0  0  0  0  0  0  0  0  0  0  0
  -29.0391  -16.1135  143.0022 C   0  0  0  0  0  0  0  0  0  0  0  0
  -29.8157  -17.4001  143.2619 C   0  0  0  0  0  0  0  0  0  0  0  0
  -30.7097  -17.2299  144.5467 C   0  0  0  0  0  0  0  0  0  0  0  0
  -28.2479  -18.5689  145.2358 C   0  0  0  0  0  0  0  0  0  0  0  0
  -25.5517  -16.4412  147.6204 C   0  0  0  0  0  0  0  0  0  0  0  0
  -24.4577  -17.0098  148.6733 C   0  0  0  0  0  0  0  0  0  0  0  0
  -29.5780  -19.7875  144.0339 C   0  0  0  0  0  0  0  0  0  0  0  0
  -30.8412  -17.2231  142.1326 C   0  0  0  0  0  0  0  0  0  0  0  0
  -26.8950  -16.2060  144.7111 C   0  0  0  0  0  0  0  0  0  0  0  0
  -30.4041  -18.2195  141.0262 C   0  0  0  0  0  0  0  0  0  0  0  0
  -28.0050  -19.9080  144.3659 C   0  0  0  0  0  0  0  0  0  0  0  0
  -29.6776  -18.3718  144.5146 C   0  0  0  0  0  0  0  0  0  0  0  0
  -30.3264  -15.3776  141.6954 Se  0  0  0  0  0  2  0  0  0  0  0  0
  -25.6879  -18.5203  150.3111 C   0  0  0  0  0  0  0  0  0  0  0  0
  -31.8816  -18.1515  141.4274 C   0  0  0  0  0  0  0  0  0  0  0  0
  -26.4605  -17.1729  150.7377 C   0  0  0  0  0  0  0  0  0  0  0  0
  -23.2863  -19.3018  149.6283 C   0  0  0  0  0  0  0  0  0  0  0  0
  -24.2691  -16.0583  149.8930 C   0  0  0  0  0  0  0  0  0  0  0  0
  -26.0812  -14.6170  151.3697 C   0  0  0  0  0  0  0  0  0  0  0  0
  -24.5792  -18.5346  149.1146 C   0  0  0  0  0  0  0  0  0  0  0  0
  -25.4732  -16.0048  150.9045 C   0  0  0  0  0  0  0  0  0  0  0  0
  -32.2290  -17.9185  139.9596 C   0  0  0  0  0  0  0  0  0  0  0  0
  -22.4934  -19.7318  148.3387 C   0  0  0  0  0  0  0  0  0  0  0  0
  -22.3364  -20.5898  149.5519 C   0  0  0  0  0  0  0  0  0  0  0  0
  -30.7696  -18.0599  139.5919 C   0  0  0  0  0  0  0  0  0  0  0  0
  2  1  2  0
  3  2  1  0
  4  2  1  0
  6  5  1  0
  7  4  1  0
  8  7  1  0
  9  8  1  0
 10  5  1  0
 11  6  1  0
 12 11  1  0
 14  8  1  0
 15  4  1  0
 15  5  1  0
 16 14  1  0
 17 10  1  0
 17 13  1  0
 18  8  1  0
 18  9  1  0
 18 10  1  0
 18 13  1  0
 19  7  1  0
 19 14  1  0
 21 14  1  0
 21 16  1  0
 22 20  1  0
 24 12  1  0
 26 12  1  0
 26 20  1  0
 26 23  1  0
 27 22  1  0
 27 24  1  0
 27 25  1  0
 28 21  1  0
 29 23  1  0
 30 23  1  0
 30 29  1  0
 31 16  1  0
 31 28  1  0
M  END
$$$$

     RDKit          3D

 31 32  0  0  0  0  0  0  0  0999 V2000
  -30.6831   -1.2436  140.9704 O   0  0  0  0  0  0  0  0  0  0  0  0
  -29.6799   -0.0614  140.7747 C   0  0  0  0  0  0  0  0  0  0  0  0
  -28.9552   -0.2948  139.3266 C   0  0  0  0  0  0  0  0  0  0  0  0
  -28.6685    0.3487  142.1069 C   0  0  0  0  0  0  0  0  0  0  0  0
  -28.5195   -1.7654  139.0210 C   0  0  0  0  0  0  0  0  0  0  0  0
  -29.6643    0.2659  138.0175 C   0  0  0  0  0  0  0  0  0  0  0  0
  -28.2004   -0.6094  143.4359 C   0  0  0  0  0  0  0  0  0  0  0  0
  -26.7744   -0.1706  143.7981 C   0  0  0  0  0  0  0  0  0  0  0  0
  -30.5213    1.1693  140.4835 O   0  0  0  0  0  0  0  0  0  0  0  0
  -26.9385   -1.6774  143.4971 C   0  0  0  0  0  0  0  0  0  0  0  0
  -27.3296   -2.2554  142.1848 C   0  0  0  0  0  0  0  0  0  0  0  0
  -28.3225   -3.3279  142.7839 C   0  0  0  0  0  0  0  0  0  0  0  0
  -26.0101   -2.4351  141.3946 C   0  0  0  0  0  0  0  0  0  0  0  0
  -27.6341   -4.8186  142.1930 C   0  0  0  0  0  0  0  0  0  0  0  0
  -25.4059   -1.2558  140.4469 C   0  0  0  0  0  0  0  0  0  0  0  0
  -31.4976   -2.0195  139.9573 C   0  0  0  0  0  0  0  0  0  0  0  0
  -26.5913   -5.9748  142.6649 N   0  0  0  0  0  0  0  0  0  0  0  0
  -27.3657   -7.0516  143.2771 C   0  0  0  0  0  0  0  0  0  0  0  0
  -25.0078   -6.4706  142.6460 C   0  0  0  0  0  0  0  0  0  0  0  0
  -26.8496   -7.0941  144.7386 C   0  0  0  0  0  0  0  0  0  0  0  0
  -24.2973   -5.3058  143.6049 C   0  0  0  0  0  0  0  0  0  0  0  0
  -24.6935   -3.6663  143.9706 C   0  0  0  0  0  0  0  0  0  0  0  0
  -26.5508   -5.4401  147.0434 C   0  0  0  0  0  0  0  0  0  0  0  0
  -26.2249   -6.0537  148.5256 C   0  0  0  0  0  0  0  0  0  0  0  0
  -27.6228   -6.2207  145.9248 C   0  0  0  0  0  0  0  0  0  0  0  0
  -26.4303   -5.4125  149.9343 C   0  0  0  0  0  0  0  0  0  0  0  0
  -26.1257   -2.8571  144.4998 C   0  0  0  0  0  0  0  0  0  0  0  0
  -27.3661   -4.1739  149.9454 C   0  0  0  0  0  0  0  0  0  0  0  0
  -24.5292   -6.4481  141.1464 C   0  0  0  0  0  0  0  0  0  0  0  0
  -26.7133   -2.8152  149.5467 C   0  0  0  0  0  0  0  0  0  0  0  0
  -25.4509   -2.3977  150.3766 C   0  0  0  0  0  0  0  0  0  0  0  0
  2  1  1  0
  3  2  1  0
  4  2  1  0
  5  3  1  0
  6  3  1  0
  7  4  1  0
  8  7  1  0
  9  2  1  0
 10  7  1  0
 10  8  1  0
 11 10  1  0
 12 11  1  0
 13 11  1  0
 14 12  1  0
 15 13  1  0
 16  1  1  0
 17 14  1  0
 18 17  1  0
 19 17  1  0
 20 18  1  0
 21 19  1  0
 22 21  1  0
 24 23  1  0
 25 20  1  0
 25 23  1  0
 26 24  1  0
 27 10  1  0
 27 22  1  0
 28 26  1  0
 29 19  1  0
 30 28  1  0
 31 30  1  0
M  END
$$$$

     RDKit          3D

 31 36  0  0  0  0  0  0  0  0999 V2000
  -22.2634  -22.4789  140.3669 C   0  0  0  0  0  0  0  0  0  0  0  0
  -22.1590  -21.9300  138.9135 C   0  0  0  0  0  0  0  0  0  0  0  0
  -22.7550  -22.9210  137.9302 C   0  0  0  0  0  0  0  0  0  0  0  0
  -22.2609  -24.1545  137.7118 C   0  0  0  0  0  0  0  0  0  0  0  0
  -21.0828  -24.7459  138.4572 C   0  0  0  0  0  0  0  0  0  0  0  0
  -22.6768  -21.4078  141.4006 C   0  0  0  0  0  0  0  0  0  0  0  0
  -19.7881  -23.8940  138.4639 C   0  0  0  0  0  0  0  0  0  0  0  0
  -22.5337  -21.8095  142.8913 C   0  0  0  0  0  0  0  0  0  0  0  0
  -20.7322  -21.4666  138.4401 C   0  0  0  0  0  0  0  0  0  0  0  0
  -23.4400  -22.9729  143.3480 C   0  0  0  0  0  0  0  0  0  0  0  0
  -23.0387  -24.3453  142.8803 C   0  0  0  0  0  0  0  0  0  0  0  0
  -24.0582  -25.5126  142.7634 C   0  0  0  0  0  0  0  0  0  0  0  0
  -22.6605  -23.9149  144.3023 C   0  0  0  0  0  0  0  0  0  0  0  0
  -25.3562  -25.6939  143.6056 C   0  0  0  0  0  0  0  0  0  0  0  0
  -26.4147  -24.5996  143.5326 C   0  0  0  0  0  0  0  0  0  0  0  0
  -21.2346  -23.3394  144.2817 C   0  0  0  0  0  0  0  0  0  0  0  0
  -26.3156  -24.4233  145.0461 C   0  0  0  0  0  0  0  0  0  0  0  0
  -25.2861  -25.5473  145.1212 C   0  0  0  0  0  0  0  0  0  0  0  0
  -20.1374  -24.3624  144.4202 C   0  0  0  0  0  0  0  0  0  0  0  0
  -22.0971  -23.0943  145.4832 C   0  0  0  0  0  0  0  0  0  0  0  0
  -19.5982  -24.9512  143.3422 C   0  0  0  0  0  0  0  0  0  0  0  0
  -19.9105  -20.7364  139.5161 C   0  0  0  0  0  0  0  0  0  0  0  0
  -18.6251  -26.1019  143.4649 C   0  0  0  0  0  0  0  0  0  0  0  0
  -17.9267  -26.3631  142.1061 C   0  0  0  0  0  0  0  0  0  0  0  0
  -18.8164  -27.1136  141.1044 C   0  0  0  0  0  0  0  0  0  0  0  0
  -18.8272  -28.6142  141.2903 C   0  0  0  0  0  0  0  0  0  0  0  0
  -18.8079  -29.2703  142.4694 C   0  0  0  0  0  0  0  0  0  0  0  0
  -18.5702  -28.6460  143.8240 C   0  0  0  0  0  0  0  0  0  0  0  0
  -19.3548  -27.3444  144.0318 C   0  0  0  0  0  0  0  0  0  0  0  0
  -19.8787  -22.5516  137.7222 C   0  0  0  0  0  0  0  0  0  0  0  0
  -21.1018  -22.1272  143.3544 C   0  0  0  0  0  0  0  0  0  0  0  0
  2  1  1  0
  3  2  1  0
  4  3  2  0
  5  4  1  0
  6  1  1  0
  7  5  1  0
  8  6  1  0
  9  2  1  0
 10  8  1  0
 11 10  1  0
 12 11  1  0
 13 10  1  0
 13 11  1  0
 14 12  1  0
 15 14  1  0
 16 13  1  0
 17 15  1  0
 18 14  1  0
 18 17  1  0
 19 16  1  0
 20 13  1  0
 20 16  1  0
 21 19  2  3
 22  9  1  0
 23 21  1  0
 24 23  1  0
 25 24  1  0
 26 25  1  0
 27 26  2  0
 28 27  1  0
 29 23  1  0
 29 28  1  0
 30  7  1  0
 30  9  1  0
 31  8  1  0
 31 16  1  0
M  END
$$$$

     RDKit          3D

 25 30  0  0  0  0  0  0  0  0999 V2000
  -27.0441   -9.8222  141.9406 C   0  0  0  0  0  0  0  0  0  0  0  0
  -28.9317   -9.7256  138.4556 C   0  0  0  0  0  0  0  0  0  0  0  0
  -26.4531   -8.6023  142.8895 C   0  0  0  0  0  0  0  0  0  0  0  0
  -25.9250   -8.8781  141.5805 C   0  0  0  0  0  0  0  0  0  0  0  0
  -26.9180  -11.0650  142.8812 C   0  0  0  0  0  0  0  0  0  0  0  0
  -27.2952   -6.7601  141.1041 C   0  0  0  0  0  0  0  0  0  0  0  0
  -26.2434   -7.5429  140.7746 C   0  0  0  0  0  0  0  0  0  0  0  0
  -25.1622   -6.8858  140.0324 C   0  0  0  0  0  0  0  0  0  0  0  0
  -24.2561   -6.0776  140.9736 C   0  0  0  0  0  0  0  0  0  0  0  0
  -23.0205   -6.9125  141.3193 C   0  0  0  0  0  0  0  0  0  0  0  0
  -23.6666   -7.1538  142.7557 C   0  0  0  0  0  0  0  0  0  0  0  0
  -28.2561  -10.3471  137.1772 C   0  0  0  0  0  0  0  0  0  0  0  0
  -24.8737   -8.1779  143.3030 C   0  0  0  0  0  0  0  0  0  0  0  0
  -24.5314   -9.1625  142.1679 C   0  0  0  0  0  0  0  0  0  0  0  0
  -25.3387   -6.6787  143.5858 C   0  0  0  0  0  0  0  0  0  0  0  0
  -30.0565   -7.8505  138.7739 C   0  0  0  0  0  0  0  0  0  0  0  0
  -28.6917   -9.6843  136.0016 O   0  0  0  0  0  0  0  0  0  0  0  0
  -28.4641  -10.4286  139.8154 C   0  0  0  0  0  0  0  0  0  0  0  0
  -30.5358   -9.3366  138.3823 B   0  0  0  0  0  0  0  0  0  0  0  0
  -31.6930   -9.7303  137.2578 C   0  0  0  0  0  0  0  0  0  0  0  0
  -28.3051  -11.8996  136.9777 C   0  0  0  0  0  0  0  0  0  0  0  0
  -28.6575   -8.2194  138.3430 C   0  0  0  0  0  0  0  0  0  0  0  0
  -24.4947   -5.9097  142.5876 C   0  0  0  0  0  0  0  0  0  0  0  0
  -27.2836  -10.1472  140.4440 C   0  0  0  0  0  0  0  0  0  0  0  0
  -28.1431  -12.3730  135.4892 C   0  0  0  0  0  0  0  0  0  0  0  0
  3  1  1  0
  4  1  1  0
  4  3  1  0
  5  1  1  0
  7  4  1  0
  7  6  2  0
  8  7  1  0
  9  8  1  0
 10  9  1  0
 11 10  1  0
 12  2  1  0
 13  3  1  0
 13 11  1  0
 14  4  1  0
 14 13  1  0
 15 13  1  0
 17 12  1  0
 18  2  1  0
 19  2  1  0
 19 16  1  0
 20 19  1  0
 21 12  1  0
 22  2  1  0
 22 16  1  0
 23  9  1  0
 23 11  1  0
 23 15  1  0
 24  1  1  0
 24 18  2  3
 25 21  1  0
M  END
$$$$

     RDKit          3D

 19 21  0  0  0  0  0  0  0  0999 V2000
  -19.7132   -0.8498  136.3037 O   0  0  0  0  0  0  0  0  0  0  0  0
  -18.6173   -0.4600  137.1037 C   0  0  0  0  0  0  0  0  0  0  0  0
  -17.6023   -1.5530  137.0354 N   0  0  0  0  0  0  0  0  0  0  0  0
  -16.1421   -1.2634  137.0766 C   0  0  0  0  0  0  0  0  0  0  0  0
  -13.6294   -0.2947  135.3487 Se  0  0  0  0  0  2  0  0  0  0  0  0
  -19.1504   -0.2927  138.5919 C   0  0  0  0  0  0  0  0  0  0  0  0
  -15.5495   -0.8745  135.6224 B   0  0  0  0  0  0  0  0  0  0  0  0
  -15.6464   -0.3616  138.2610 C   0  0  0  0  0  0  0  0  0  0  0  0
  -18.2052   -0.8424  139.6422 C   0  0  0  0  0  0  0  0  0  0  0  0
  -16.5090    0.8686  138.6336 C   0  0  0  0  0  0  0  0  0  0  0  0
  -12.9628   -2.1032  135.0112 C   0  0  0  0  0  0  0  0  0  0  0  0
  -12.9663   -2.9509  136.2895 C   0  0  0  0  0  0  0  0  0  0  0  0
  -18.8948    1.0248  139.0214 O   0  0  0  0  0  0  0  0  0  0  0  0
  -17.7026    0.5889  139.6324 C   0  0  0  0  0  0  0  0  0  0  0  0
  -11.8351   -3.9517  136.3016 C   0  0  0  0  0  0  0  0  0  0  0  0
  -16.9541    1.6101  137.3460 C   0  0  0  0  0  0  0  0  0  0  0  0
  -18.0712    0.8962  136.5243 C   0  0  0  0  0  0  0  0  0  0  0  0
  -10.5766   -3.6536  136.6823 C   0  0  0  0  0  0  0  0  0  0  0  0
  -10.1388   -2.2823  137.1200 C   0  0  0  0  0  0  0  0  0  0  0  0
  2  1  1  0
  3  2  1  0
  4  3  1  0
  6  2  1  0
  7  4  1  0
  7  5  1  0
  8  4  1  0
  9  6  1  0
 10  8  1  0
 11  5  1  0
 12 11  1  0
 13  6  1  0
 14  9  1  0
 14 10  1  0
 14 13  1  0
 15 12  1  0
 16 10  1  0
 17  2  1  0
 17 16  1  0
 18 15  2  3
 19 18  1  0
M  END
$$$$

     RDKit          3D

 30 38  0  0  0  0  0  0  0  0999 V2000
  -21.4397   -1.0983  143.2182 C   0  0  0  0  0  0  0  0  0  0  0  0
  -21.0696    2.0505  143.4508 C   0  0  0  0  0  0  0  0  0  0  0  0
  -22.3558   -1.9200  142.2846 C   0  0  0  0  0  0  0  0  0  0  0  0
  -20.1979    3.0311  144.3154 C   0  0  0  0  0  0  0  0  0  0  0  0
  -21.8806   -2.3011  140.8646 C   0  0  0  0  0  0  0  0  0  0  0  0
  -21.9901   -0.8697  140.3648 C   0  0  0  0  0  0  0  0  0  0  0  0
  -22.2541    1.2564  144.1209 C   0  0  0  0  0  0  0  0  0  0  0  0
  -22.2804   -0.2791  144.2266 C   0  0  0  0  0  0  0  0  0  0  0  0
  -18.3094    3.1727  146.1225 C   0  0  0  0  0  0  0  0  0  0  0  0
  -22.4503   -3.5232  140.2273 C   0  0  0  0  0  0  0  0  0  0  0  0
  -20.8015    3.5609  146.3200 C   0  0  0  0  0  0  0  0  0  0  0  0
  -17.3549    1.9584  146.0238 C   0  0  0  0  0  0  0  0  0  0  0  0
  -23.1834   -1.1410  141.2739 C   0  0  0  0  0  0  0  0  0  0  0  0
  -23.4507   -2.4179  140.4859 C   0  0  0  0  0  0  0  0  0  0  0  0
  -21.0647    4.1181  144.9424 C   0  0  0  0  0  0  0  0  0  0  0  0
  -19.7123    2.6495  145.7456 C   0  0  0  0  0  0  0  0  0  0  0  0
  -19.6237    1.1400  146.0593 C   0  0  0  0  0  0  0  0  0  0  0  0
  -18.1702    0.7183  145.7587 C   0  0  0  0  0  0  0  0  0  0  0  0
  -20.0044    0.8023  147.5367 C   0  0  0  0  0  0  0  0  0  0  0  0
  -19.3194   -0.4705  148.1381 C   0  0  0  0  0  0  0  0  0  0  0  0
  -17.8118   -0.4106  148.5062 C   0  0  0  0  0  0  0  0  0  0  0  0
  -20.0950   -1.2225  149.2449 C   0  0  0  0  0  0  0  0  0  0  0  0
  -19.3489   -1.9782  150.3745 C   0  0  0  0  0  0  0  0  0  0  0  0
  -17.5634    0.5972  149.6432 C   0  0  0  0  0  0  0  0  0  0  0  0
  -20.0290   -1.7989  147.7988 C   0  0  0  0  0  0  0  0  0  0  0  0
  -18.2758   -1.1945  151.1985 C   0  0  0  0  0  0  0  0  0  0  0  0
  -19.0938   -2.9052  147.2412 C   0  0  0  0  0  0  0  0  0  0  0  0
  -17.2367    1.3058  144.6659 C   0  0  0  0  0  0  0  0  0  0  0  0
  -18.2816    0.2456  150.9019 N   0  0  0  0  0  0  0  0  0  0  0  0
  -17.9671   -0.0121  144.4171 C   0  0  0  0  0  0  0  0  0  0  0  0
  3  1  1  0
  4  2  1  0
  5  3  1  0
  6  5  1  0
  7  2  1  0
  8  1  1  0
  8  7  1  0
 10  5  1  0
 12  9  1  0
 13  3  1  0
 13  6  1  0
 14  5  1  0
 14 10  1  0
 14 13  1  0
 15  4  1  0
 15 11  1  0
 16  4  1  0
 16  9  1  0
 16 11  1  0
 17 16  1  0
 18 12  1  0
 18 17  1  0
 19 17  1  0
 20 19  1  0
 21 20  1  0
 22 20  1  0
 23 22  1  0
 24 21  1  0
 25 20  1  0
 25 22  1  0
 26 23  1  0
 27 25  1  0
 28 12  1  0
 28 18  1  0
 29 24  1  0
 29 26  1  0
 30 18  1  0
 30 28  1  0
M  END
$$$$

     RDKit          3D

 25 25  0  0  0  0  0  0  0  0999 V2000
  -31.1786  -15.2352  146.7356 O   0  0  0  0  0  0  0  0  0  0  0  0
  -31.4192  -15.0946  145.3457 C   0  0  0  0  0  0  0  0  0  0  0  0
  -30.6294  -15.9950  144.6036 O   0  0  0  0  0  0  0  0  0  0  0  0
  -30.2529  -14.6147  144.5902 C   0  0  0  0  0  0  0  0  0  0  0  0
  -30.5436  -13.9710  143.2384 C   0  0  0  0  0  0  0  0  0  0  0  0
  -32.3753  -15.0654  147.4723 C   0  0  0  0  0  0  0  0  0  0  0  0
  -32.9017  -16.3841  148.1049 C   0  0  0  0  0  0  0  0  0  0  0  0
  -31.9266  -16.9989  149.2304 C   0  0  0  0  0  0  0  0  0  0  0  0
  -32.5240  -16.8300  150.7006 C   0  0  0  0  0  0  0  0  0  0  0  0
  -30.8587  -19.5768  149.2165 C   0  0  0  0  0  0  0  0  0  0  0  0
  -32.1180  -20.3841  148.9524 C   0  0  0  0  0  0  0  0  0  0  0  0
  -33.6359  -17.2943  147.0671 C   0  0  0  0  0  0  0  0  0  0  0  0
  -33.2523  -19.7781  148.8509 N   0  0  0  0  0  0  0  0  0  0  0  0
  -32.3511  -17.7905  151.9092 C   0  0  0  0  0  0  0  0  0  0  0  0
  -29.9763  -23.4240  147.2667 Br  0  0  0  0  0  0  0  0  0  0  0  0
  -31.0120  -17.5866  152.6993 C   0  0  0  0  0  0  0  0  0  0  0  0
  -31.2367  -17.8691  154.2126 C   0  0  0  0  0  0  0  0  0  0  0  0
  -30.8720  -18.0814  148.7908 C   0  0  0  0  0  0  0  0  0  0  0  0
  -31.0770  -22.5897  149.7686 C   0  0  0  0  0  0  0  0  0  0  0  0
  -32.1160  -21.8147  149.0988 N   0  0  0  0  0  0  0  0  0  0  0  0
  -30.7428  -23.8565  148.9962 C   0  0  0  0  0  0  0  0  0  0  0  0
  -32.7782  -19.2162  151.6058 C   0  0  0  0  0  0  0  0  0  0  0  0
  -32.8637  -17.9044  145.8605 C   0  0  0  0  0  0  0  0  0  0  0  0
  -33.3092  -19.3214  145.5484 C   0  0  0  0  0  0  0  0  0  0  0  0
  -32.3064  -20.3153  152.2310 C   0  0  0  0  0  0  0  0  0  0  0  0
  2  1  1  0
  3  2  1  0
  4  2  1  0
  4  3  1  0
  5  4  1  0
  6  1  1  0
  7  6  1  0
  8  7  1  0
  9  8  1  0
 11 10  1  0
 12  7  1  0
 13 11  2  0
 14  9  1  0
 16 14  1  0
 17 16  1  0
 18  8  1  0
 18 10  1  0
 20 11  1  0
 20 19  1  0
 21 15  1  0
 21 19  1  0
 22 14  1  0
 23 12  1  0
 24 23  1  0
 25 22  2  0
M  END
$$$$

     RDKit          3D

 30 35  0  0  0  0  0  0  0  0999 V2000
  -18.8340  -10.9762  142.7495 C   0  0  0  0  0  0  0  0  0  0  0  0
  -21.6914   -8.3413  142.5640 N   0  0  0  0  0  0  0  0  0  0  0  0
  -19.3380  -12.4400  142.4425 C   0  0  0  0  0  0  0  0  0  0  0  0
  -21.6731  -10.4145  141.2111 C   0  0  0  0  0  0  0  0  0  0  0  0
  -19.9179  -13.3001  143.5850 C   0  0  0  0  0  0  0  0  0  0  0  0
  -22.5683  -11.4194  141.8575 N   0  0  0  0  0  0  0  0  0  0  0  0
  -19.8523   -9.9293  143.1703 C   0  0  0  0  0  0  0  0  0  0  0  0
  -20.7930  -12.6512  144.6503 C   0  0  0  0  0  0  0  0  0  0  0  0
  -22.3326   -8.2516  143.6820 C   0  0  0  0  0  0  0  0  0  0  0  0
  -25.2712  -12.3351  141.7005 Cl  0  0  0  0  0  0  0  0  0  0  0  0
  -22.0935  -13.3210  145.1688 C   0  0  0  0  0  0  0  0  0  0  0  0
  -22.3107  -13.5868  146.6843 C   0  0  0  0  0  0  0  0  0  0  0  0
  -25.0543  -11.2114  145.0217 C   0  0  0  0  0  0  0  0  0  0  0  0
  -21.0447  -13.5206  147.5910 C   0  0  0  0  0  0  0  0  0  0  0  0
  -19.9667  -14.5567  147.2321 C   0  0  0  0  0  0  0  0  0  0  0  0
  -19.9572  -15.5004  145.9962 C   0  0  0  0  0  0  0  0  0  0  0  0
  -24.1850  -12.4891  145.2389 C   0  0  0  0  0  0  0  0  0  0  0  0
  -23.3796  -13.5120  144.3676 C   0  0  0  0  0  0  0  0  0  0  0  0
  -19.6889  -13.0475  147.0190 C   0  0  0  0  0  0  0  0  0  0  0  0
  -21.2057  -13.5217  149.1174 C   0  0  0  0  0  0  0  0  0  0  0  0
  -20.8657   -9.4516  142.1257 C   0  0  0  0  0  0  0  0  0  0  0  0
  -19.9114  -17.7407  145.3936 C   0  0  0  0  0  0  0  0  0  0  0  0
  -22.6808  -12.6224  140.9836 C   0  0  0  0  0  0  0  0  0  0  0  0
  -23.4472  -14.3611  143.0312 C   0  0  0  0  0  0  0  0  0  0  0  0
  -22.7974  -13.9821  141.6861 C   0  0  0  0  0  0  0  0  0  0  0  0
  -23.7763  -11.6661  141.0191 C   0  0  0  0  0  0  0  0  0  0  0  0
  -24.9862  -10.2323  143.8337 C   0  0  0  0  0  0  0  0  0  0  0  0
  -20.0939  -16.8368  146.4792 O   0  0  0  0  0  0  0  0  0  0  0  0
  -22.9087  -12.2951  146.0663 C   0  0  0  0  0  0  0  0  0  0  0  0
  -19.8656  -12.1320  145.7896 C   0  0  0  0  0  0  0  0  0  0  0  0
  3  1  1  0
  5  3  1  0
  6  4  1  0
  7  1  1  0
  8  5  1  0
  9  2  2  0
 11  8  1  0
 12 11  1  0
 14 12  1  0
 15 14  1  0
 16 15  1  0
 17 13  1  0
 18 11  1  0
 18 17  1  0
 19 14  1  0
 19 15  1  0
 20 14  1  0
 21  2  1  0
 21  4  1  0
 21  7  1  0
 23  6  1  0
 24 18  1  0
 25 23  1  0
 25 24  1  0
 26  6  1  0
 26 10  1  0
 26 23  1  0
 27 13  1  0
 28 16  1  0
 28 22  1  0
 29 11  1  0
 29 12  1  0
 29 17  1  0
 30  8  1  0
 30 19  1  0
M  END
$$$$

     RDKit          3D

 31 37  0  0  0  0  0  0  0  0999 V2000
  -29.8222   -3.8369  134.8096 O   0  0  0  0  0  0  0  0  0  0  0  0
  -31.1479   -4.2857  134.9773 C   0  0  0  0  0  0  0  0  0  0  0  0
  -31.9088   -3.3192  135.6535 O   0  0  0  0  0  0  0  0  0  0  0  0
  -30.6083   -3.9128  133.6376 C   0  0  0  0  0  0  0  0  0  0  0  0
  -30.9714   -2.5236  133.0081 C   0  0  0  0  0  0  0  0  0  0  0  0
  -29.8455   -1.4620  133.3155 C   0  0  0  0  0  0  0  0  0  0  0  0
  -31.3079   -2.8541  131.5033 C   0  0  0  0  0  0  0  0  0  0  0  0
  -33.1789   -1.1876  130.9569 C   0  0  0  0  0  0  0  0  0  0  0  0
  -31.8028   -1.7415  130.5521 C   0  0  0  0  0  0  0  0  0  0  0  0
  -30.2332    0.0186  133.1621 C   0  0  0  0  0  0  0  0  0  0  0  0
  -31.5504    0.7226  133.5444 C   0  0  0  0  0  0  0  0  0  0  0  0
  -31.6442    1.0038  135.0835 C   0  0  0  0  0  0  0  0  0  0  0  0
  -29.0457    1.0122  133.4597 C   0  0  0  0  0  0  0  0  0  0  0  0
  -28.3251    1.6474  132.2559 C   0  0  0  0  0  0  0  0  0  0  0  0
  -29.2978    1.9338  131.1436 C   0  0  0  0  0  0  0  0  0  0  0  0
  -30.8884    2.0019  131.2743 C   0  0  0  0  0  0  0  0  0  0  0  0
  -28.5602   -1.7159  132.4193 C   0  0  0  0  0  0  0  0  0  0  0  0
  -31.5658    2.0611  132.6928 C   0  0  0  0  0  0  0  0  0  0  0  0
  -27.7177    0.4915  133.0617 C   0  0  0  0  0  0  0  0  0  0  0  0
  -28.4255    0.6581  130.9923 C   0  0  0  0  0  0  0  0  0  0  0  0
  -32.4430    0.2665  137.6968 P   0  0  0  0  0  0  0  0  0  0  0  0
  -33.7936    1.6259  137.8531 C   0  0  0  0  0  0  0  0  0  0  0  0
  -32.6945    0.1802  135.8237 C   0  0  0  0  0  0  0  0  0  0  0  0
  -32.5211    2.0464  138.4045 C   0  0  0  0  0  0  0  0  0  0  0  0
  -32.4104    2.0928  139.9417 C   0  0  0  0  0  0  0  0  0  0  0  0
  -30.9938    1.7509  140.4538 C   0  0  0  0  0  0  0  0  0  0  0  0
  -27.7943   -0.4386  131.9352 C   0  0  0  0  0  0  0  0  0  0  0  0
  -30.9840    3.1161  133.3741 F   0  0  0  0  0  0  0  0  0  0  0  0
  -31.7694    3.1397  137.6216 C   0  0  0  0  0  0  0  0  0  0  0  0
  -30.0793    2.9590  140.6228 C   0  0  0  0  0  0  0  0  0  0  0  0
  -30.5277    3.7841  141.6674 O   0  0  0  0  0  0  0  0  0  0  0  0
  2  1  1  0
  3  2  1  0
  4  1  1  0
  4  2  1  0
  5  4  1  0
  6  5  1  0
  7  5  1  0
  9  7  1  0
  9  8  1  0
 10  6  1  0
 11 10  1  0
 12 11  1  0
 13 10  1  0
 14 13  1  0
 15 14  1  0
 16 15  1  0
 17  6  1  0
 18 11  1  0
 18 16  1  0
 19 13  1  0
 19 14  1  0
 20 14  1  0
 20 15  1  0
 22 21  1  0
 23 12  1  0
 23 21  1  0
 24 21  1  0
 24 22  1  0
 25 24  1  0
 26 25  1  0
 27 17  1  0
 27 19  1  0
 27 20  1  0
 28 18  1  0
 29 24  1  0
 30 26  1  0
 31 30  1  0
M  END
$$$$

     RDKit          3D

  9  9  0  0  0  0  0  0  0  0999 V2000
  -30.6626  -10.1168  137.7947 C   0  0  0  0  0  0  0  0  0  0  0  0
  -30.4368  -10.7670  138.9952 F   0  0  0  0  0  0  0  0  0  0  0  0
  -29.7542  -10.6736  136.6897 C   0  0  0  0  0  0  0  0  0  0  0  0
  -28.4361  -10.4945  137.0713 F   0  0  0  0  0  0  0  0  0  0  0  0
  -29.9702   -9.9314  135.5425 F   0  0  0  0  0  0  0  0  0  0  0  0
  -29.9554  -12.1617  136.3305 C   0  0  0  0  0  0  0  0  0  0  0  0
  -31.1142  -12.9274  136.8555 C   0  0  0  0  0  0  0  0  0  0  0  0
  -31.3838  -14.1023  136.1487 O   0  0  0  0  0  0  0  0  0  0  0  0
  -29.8445  -12.9932  137.4642 O   0  0  0  0  0  0  0  0  0  0  0  0
  2  1  1  0
  3  1  1  0
  4  3  1  0
  5  3  1  0
  6  3  1  0
  7  6  1  0
  8  7  1  0
  9  6  1  0
  9  7  1  0
M  END
$$$$

     RDKit          3D

 31 34  0  0  0  0  0  0  0  0999 V2000
  -25.3538   -7.4512  148.9994 C   0  0  0  0  0  0  0  0  0  0  0  0
  -23.9104   -7.1862  148.5121 C   0  0  0  0  0  0  0  0  0  0  0  0
  -26.2663   -6.3180  149.3687 C   0  0  0  0  0  0  0  0  0  0  0  0
  -27.0884   -6.6362  150.5985 C   0  0  0  0  0  0  0  0  0  0  0  0
  -28.2552   -7.6301  150.3734 C   0  0  0  0  0  0  0  0  0  0  0  0
  -28.9109   -7.5030  148.9933 C   0  0  0  0  0  0  0  0  0  0  0  0
  -30.1817   -8.3793  148.8801 C   0  0  0  0  0  0  0  0  0  0  0  0
  -23.1860   -5.9901  149.1930 C   0  0  0  0  0  0  0  0  0  0  0  0
  -31.4179   -7.5946  149.2295 C   0  0  0  0  0  0  0  0  0  0  0  0
  -23.8096   -7.1359  146.9417 C   0  0  0  0  0  0  0  0  0  0  0  0
  -32.4410   -7.3044  148.1590 C   0  0  0  0  0  0  0  0  0  0  0  0
  -31.5820   -7.1621  150.4902 C   0  0  0  0  0  0  0  0  0  0  0  0
  -23.6550   -8.5358  146.2759 C   0  0  0  0  0  0  0  0  0  0  0  0
  -33.2170   -8.5645  147.7985 C   0  0  0  0  0  0  0  0  0  0  0  0
  -24.9649   -9.3430  146.0444 C   0  0  0  0  0  0  0  0  0  0  0  0
  -21.6712   -6.2265  149.2891 C   0  0  0  0  0  0  0  0  0  0  0  0
  -24.9066   -6.2942  146.2212 C   0  0  0  0  0  0  0  0  0  0  0  0
  -24.8517  -10.8090  146.4875 C   0  0  0  0  0  0  0  0  0  0  0  0
  -20.9750   -5.0085  149.9064 C   0  0  0  0  0  0  0  0  0  0  0  0
  -19.5036   -5.3266  150.1790 C   0  0  0  0  0  0  0  0  0  0  0  0
  -25.6714   -7.2156  150.4710 C   0  0  0  0  0  0  0  0  0  0  0  0
  -19.1914   -6.0167  151.5106 C   0  0  0  0  0  0  0  0  0  0  0  0
  -24.9527  -10.9671  148.0136 C   0  0  0  0  0  0  0  0  0  0  0  0
  -24.6984   -4.7792  146.3063 C   0  0  0  0  0  0  0  0  0  0  0  0
  -18.0512   -7.0565  151.4098 C   0  0  0  0  0  0  0  0  0  0  0  0
  -18.8776   -4.5272  151.3139 C   0  0  0  0  0  0  0  0  0  0  0  0
  -24.9047  -12.4419  148.4551 C   0  0  0  0  0  0  0  0  0  0  0  0
  -26.2744  -13.1192  148.3463 C   0  0  0  0  0  0  0  0  0  0  0  0
  -16.6487   -6.4751  151.6357 C   0  0  0  0  0  0  0  0  0  0  0  0
  -15.8156   -6.3057  150.3675 C   0  0  0  0  0  0  0  0  0  0  0  0
  -15.5014   -7.4334  151.3441 C   0  0  0  0  0  0  0  0  0  0  0  0
  2  1  1  0
  3  1  1  0
  4  3  1  0
  5  4  1  0
  6  5  1  0
  7  6  1  0
  8  2  1  0
  9  7  1  0
 10  2  1  0
 11  9  1  0
 12  9  2  0
 13 10  1  0
 14 11  1  0
 15 13  1  0
 16  8  1  0
 17 10  1  0
 18 15  1  0
 19 16  1  0
 20 19  1  0
 21  1  1  0
 21  3  1  0
 21  4  1  0
 22 20  1  0
 23 18  1  0
 24 17  1  0
 25 22  1  0
 26 20  1  0
 26 22  1  0
 27 23  1  0
 28 27  1  0
 29 25  1  0
 30 29  1  0
 31 29  1  0
 31 30  1  0
M  END
$$$$

     RDKit          3D

 31 37  0  0  0  0  0  0  0  0999 V2000
  -19.7607   -0.4385  143.0394 O   0  0  0  0  0  0  0  0  0  0  0  0
  -20.1463    0.4804  143.8264 C   0  0  0  0  0  0  0  0  0  0  0  0
  -19.8184    0.1344  142.4577 O   0  0  0  0  0  0  0  0  0  0  0  0
  -19.2547    0.7488  145.0057 C   0  0  0  0  0  0  0  0  0  0  0  0
  -17.9177    0.4773  144.6761 O   0  0  0  0  0  0  0  0  0  0  0  0
  -19.7057   -0.0146  146.3047 C   0  0  0  0  0  0  0  0  0  0  0  0
  -21.0176   -0.5171  146.3222 O   0  0  0  0  0  0  0  0  0  0  0  0
  -19.3242    1.6584  147.9776 C   0  0  0  0  0  0  0  0  0  0  0  0
  -19.1848    0.2945  147.5953 O   0  0  0  0  0  0  0  0  0  0  0  0
  -20.7008    1.9904  148.6311 C   0  0  0  0  0  0  0  0  0  0  0  0
  -20.6993    3.0350  149.7251 C   0  0  0  0  0  0  0  0  0  0  0  0
  -21.9470    3.6903  150.3847 C   0  0  0  0  0  0  0  0  0  0  0  0
  -21.9617    2.1727  147.7254 C   0  0  0  0  0  0  0  0  0  0  0  0
  -21.6491    4.0272  151.8624 C   0  0  0  0  0  0  0  0  0  0  0  0
  -22.1031    3.5414  147.0455 C   0  0  0  0  0  0  0  0  0  0  0  0
  -21.4747    2.8777  152.9161 C   0  0  0  0  0  0  0  0  0  0  0  0
  -20.8562    1.5626  150.1329 C   0  0  0  0  0  0  0  0  0  0  0  0
  -20.5795    1.6946  152.6310 C   0  0  0  0  0  0  0  0  0  0  0  0
  -19.8704    1.7675  151.2614 C   0  0  0  0  0  0  0  0  0  0  0  0
  -19.7204    1.2238  153.8511 C   0  0  0  0  0  0  0  0  0  0  0  0
  -19.8109    0.6389  150.4864 O   0  0  0  0  0  0  0  0  0  0  0  0
  -20.1160    2.4302  156.1770 C   0  0  0  0  0  0  0  0  0  0  0  0
  -21.3008    3.6451  145.8907 O   0  0  0  0  0  0  0  0  0  0  0  0
  -21.9445    0.8805  155.2464 C   0  0  0  0  0  0  0  0  0  0  0  0
  -22.7533    1.0456  153.9292 C   0  0  0  0  0  0  0  0  0  0  0  0
  -18.2977    1.8204  153.8570 C   0  0  0  0  0  0  0  0  0  0  0  0
  -22.3742    0.0262  152.9192 C   0  0  0  0  0  0  0  0  0  0  0  0
  -22.1316    1.5163  152.5972 C   0  0  0  0  0  0  0  0  0  0  0  0
  -20.4195    1.2200  155.2641 C   0  0  0  0  0  0  0  0  0  0  0  0
  -18.2052    3.3542  153.8619 C   0  0  0  0  0  0  0  0  0  0  0  0
  -20.0028   -1.4749  146.1636 C   0  0  0  0  0  0  0  0  0  0  0  0
  2  1  2  0
  3  2  1  0
  4  2  1  0
  5  4  1  0
  6  4  1  0
  7  6  1  0
  9  6  1  0
  9  8  1  0
 10  8  1  0
 11 10  1  0
 12 11  1  0
 13 10  1  0
 14 12  1  0
 15 13  1  0
 16 14  1  0
 17 10  1  0
 17 11  1  0
 18 16  1  0
 19 17  1  0
 19 18  1  0
 20 18  1  0
 21 17  1  0
 21 19  1  0
 23 15  1  0
 25 24  1  0
 26 20  1  0
 27 25  1  0
 28 16  1  0
 28 18  1  0
 28 25  1  0
 28 27  1  0
 29 20  1  0
 29 22  1  0
 29 24  1  0
 30 26  1  0
 31  6  1  0
 31  7  1  0
M  END
$$$$

     RDKit          3D

 30 35  0  0  0  0  0  0  0  0999 V2000
  -21.3690  -21.1194  139.9349 C   0  0  0  0  0  0  0  0  0  0  0  0
  -23.7957  -21.8147  140.0660 C   0  0  0  0  0  0  0  0  0  0  0  0
  -25.0419  -21.7770  139.5449 C   0  0  0  0  0  0  0  0  0  0  0  0
  -21.7008  -22.1305  138.5103 C   0  0  0  0  0  0  0  0  0  0  0  0
  -22.6858  -21.2142  139.2255 C   0  0  0  0  0  0  0  0  0  0  0  0
  -26.2541  -21.5647  140.3015 O   0  0  0  0  0  0  0  0  0  0  0  0
  -20.7043  -20.9615  138.5746 C   0  0  0  0  0  0  0  0  0  0  0  0
  -21.1125  -22.6772  139.8468 C   0  0  0  0  0  0  0  0  0  0  0  0
  -28.6364  -15.7008  138.6867 C   0  0  0  0  0  0  0  0  0  0  0  0
  -29.5353  -16.0544  137.3777 C   0  0  0  0  0  0  0  0  0  0  0  0
  -30.1745  -17.5692  137.2480 C   0  0  0  0  0  0  0  0  0  0  0  0
  -30.6890  -18.2981  138.5742 C   0  0  0  0  0  0  0  0  0  0  0  0
  -29.5444  -15.3833  135.9877 C   0  0  0  0  0  0  0  0  0  0  0  0
  -30.9731  -21.0646  138.5422 C   0  0  0  0  0  0  0  0  0  0  0  0
  -31.6373  -17.6585  137.5321 C   0  0  0  0  0  0  0  0  0  0  0  0
  -25.9790  -19.0942  140.3409 N   0  0  0  0  0  0  0  0  0  0  0  0
  -26.5902  -17.6059  140.4513 C   0  0  0  0  0  0  0  0  0  0  0  0
  -28.1096  -17.0657  139.6859 C   0  0  0  0  0  0  0  0  0  0  0  0
  -29.1122  -17.1277  140.8257 C   0  0  0  0  0  0  0  0  0  0  0  0
  -26.9704  -20.2318  140.3579 C   0  0  0  0  0  0  0  0  0  0  0  0
  -30.0061  -14.7216  141.4405 N   0  0  0  0  0  0  0  0  0  0  0  0
  -28.9699  -15.8127  141.6872 C   0  0  0  0  0  0  0  0  0  0  0  0
  -32.1914  -21.1917  137.6248 C   0  0  0  0  0  0  0  0  0  0  0  0
  -31.4692  -19.6572  138.9218 C   0  0  0  0  0  0  0  0  0  0  0  0
  -31.4383  -15.1670  141.3445 C   0  0  0  0  0  0  0  0  0  0  0  0
  -32.6368  -19.7842  138.0325 C   0  0  0  0  0  0  0  0  0  0  0  0
  -30.0415  -14.9377  138.2954 C   0  0  0  0  0  0  0  0  0  0  0  0
  -32.4570  -18.8018  136.9374 C   0  0  0  0  0  0  0  0  0  0  0  0
  -32.4275  -14.0310  141.3592 C   0  0  0  0  0  0  0  0  0  0  0  0
  -31.7338  -16.0676  142.6202 C   0  0  0  0  0  0  0  0  0  0  0  0
  3  2  2  3
  5  1  1  0
  5  2  1  0
  5  4  1  0
  6  3  1  0
  7  1  1  0
  7  4  1  0
  8  1  1  0
  8  4  1  0
 10  9  1  0
 11 10  1  0
 12 11  1  0
 13 10  1  0
 15 11  1  0
 15 12  1  0
 17 16  1  0
 18  9  1  0
 18 17  1  0
 19 18  1  0
 20  6  1  0
 20 16  1  0
 22 19  1  0
 22 21  1  0
 23 14  1  0
 24 12  1  0
 24 14  1  0
 25 21  1  0
 26 23  1  0
 26 24  1  0
 27  9  1  0
 27 10  1  0
 28 15  1  0
 28 26  1  0
 29 25  1  0
 30 25  1  0
M  END
$$$$

     RDKit          3D

 30 31  0  0  0  0  0  0  0  0999 V2000
  -26.3620  -21.3165  146.0233 O   0  0  0  0  0  0  0  0  0  0  0  0
  -24.9966  -22.3782  140.3270 C   0  0  0  0  0  0  0  0  0  0  0  0
  -24.4349  -23.7457  140.1837 O   0  0  0  0  0  0  0  0  0  0  0  0
  -28.0678  -19.3750  145.5380 C   0  0  0  0  0  0  0  0  0  0  0  0
  -26.7236  -20.4145  144.9320 C   0  0  0  0  0  0  0  0  0  0  0  0
  -26.6411  -14.1155  145.3618 C   0  0  0  0  0  0  0  0  0  0  0  0
  -25.3077  -21.5761  141.8705 C   0  0  0  0  0  0  0  0  0  0  0  0
  -26.9024  -15.4541  145.3930 N   0  0  0  0  0  0  0  0  0  0  0  0
  -28.8812  -20.2606  146.3174 C   0  0  0  0  0  0  0  0  0  0  0  0
  -29.6152  -12.7179  153.9814 C   0  0  0  0  0  0  0  0  0  0  0  0
  -28.0913  -16.2200  146.0616 C   0  0  0  0  0  0  0  0  0  0  0  0
  -30.2562  -14.0489  154.3760 C   0  0  0  0  0  0  0  0  0  0  0  0
  -25.7819  -12.6976  145.0138 C   0  0  0  0  0  0  0  0  0  0  0  0
  -27.9754  -17.8431  146.3329 C   0  0  0  0  0  0  0  0  0  0  0  0
  -28.6912  -17.6730  147.7005 C   0  0  0  0  0  0  0  0  0  0  0  0
  -30.3966  -15.0088  153.1695 C   0  0  0  0  0  0  0  0  0  0  0  0
  -31.9720  -18.2568  152.1243 C   0  0  0  0  0  0  0  0  0  0  0  0
  -31.2951  -16.8851  151.9209 C   0  0  0  0  0  0  0  0  0  0  0  0
  -31.5388  -16.0992  153.2348 C   0  0  0  0  0  0  0  0  0  0  0  0
  -28.2268  -16.1887  147.6043 C   0  0  0  0  0  0  0  0  0  0  0  0
  -28.4743  -13.0118  151.5403 C   0  0  0  0  0  0  0  0  0  0  0  0
  -28.6581  -14.4023  149.4660 C   0  0  0  0  0  0  0  0  0  0  0  0
  -24.9205  -12.1893  146.0514 O   0  0  0  0  0  0  0  0  0  0  0  0
  -29.4931  -12.1935  152.4812 C   0  0  0  0  0  0  0  0  0  0  0  0
  -26.0811  -21.2726  143.4447 C   0  0  0  0  0  0  0  0  0  0  0  0
  -24.1673  -13.2690  146.5592 C   0  0  0  0  0  0  0  0  0  0  0  0
  -29.0915  -14.9775  148.0512 C   0  0  0  0  0  0  0  0  0  0  0  0
  -28.9020  -12.9957  150.0036 C   0  0  0  0  0  0  0  0  0  0  0  0
  -29.9337  -15.1766  149.2923 C   0  0  0  0  0  0  0  0  0  0  0  0
  -23.6348  -14.4784  145.5481 C   0  0  0  0  0  0  0  0  0  0  0  0
  3  2  1  0
  5  1  1  0
  5  4  1  0
  7  2  1  0
  8  6  2  3
  9  4  2  0
 11  8  1  0
 12 10  1  0
 13  6  1  0
 14  4  1  0
 14 11  1  0
 15 14  1  0
 16 12  1  0
 18 17  1  0
 19 16  1  0
 19 18  1  0
 20 11  1  0
 20 15  1  0
 23 13  1  0
 24 10  1  0
 24 21  1  0
 25  5  1  0
 25  7  1  0
 26 23  1  0
 27 20  1  0
 27 22  1  0
 28 21  1  0
 28 22  1  0
 29 22  1  0
 29 27  1  0
 30 26  1  0
M  END
$$$$

     RDKit          3D

 31 40  0  0  0  0  0  0  0  0999 V2000
  -20.1361   -5.6540  140.3831 C   0  0  0  0  0  0  0  0  0  0  0  0
  -21.0478   -4.8509  139.3923 C   0  0  0  0  0  0  0  0  0  0  0  0
  -21.3481   -3.3391  139.6912 C   0  0  0  0  0  0  0  0  0  0  0  0
  -21.3542   -2.5761  140.9706 C   0  0  0  0  0  0  0  0  0  0  0  0
  -21.5925   -2.5636  138.5072 N   0  0  0  0  0  0  0  0  0  0  0  0
  -22.4191   -3.3827  141.8273 C   0  0  0  0  0  0  0  0  0  0  0  0
  -24.4759   -1.6878  141.0560 C   0  0  0  0  0  0  0  0  0  0  0  0
  -25.1102   -1.5811  139.5814 C   0  0  0  0  0  0  0  0  0  0  0  0
  -25.3173   -1.0354  142.2058 C   0  0  0  0  0  0  0  0  0  0  0  0
  -22.3178   -5.5887  138.9719 C   0  0  0  0  0  0  0  0  0  0  0  0
  -25.0077   -4.1990  142.6343 P   0  0  0  0  0  0  0  0  0  0  0  0
  -25.3566   -2.9183  138.9806 N   0  0  0  0  0  0  0  0  0  0  0  0
  -25.8190   -3.8140  140.0275 C   0  0  0  0  0  0  0  0  0  0  0  0
  -24.2559   -0.6622  138.6366 C   0  0  0  0  0  0  0  0  0  0  0  0
  -24.1277   -1.0790  137.1361 C   0  0  0  0  0  0  0  0  0  0  0  0
  -25.4883   -5.2500  139.8709 C   0  0  0  0  0  0  0  0  0  0  0  0
  -23.9267   -3.1767  141.3863 C   0  0  0  0  0  0  0  0  0  0  0  0
  -24.5859   -4.3614  140.7890 C   0  0  0  0  0  0  0  0  0  0  0  0
  -20.1101   -2.2216  138.5381 C   0  0  0  0  0  0  0  0  0  0  0  0
  -22.9111   -0.4390  136.3524 C   0  0  0  0  0  0  0  0  0  0  0  0
  -19.4561   -1.4606  139.7017 C   0  0  0  0  0  0  0  0  0  0  0  0
  -21.5059   -1.1910  136.5352 C   0  0  0  0  0  0  0  0  0  0  0  0
  -17.9194   -1.4424  139.6335 C   0  0  0  0  0  0  0  0  0  0  0  0
  -26.8495   -1.2967  142.1969 C   0  0  0  0  0  0  0  0  0  0  0  0
  -21.5601   -2.4711  135.8725 O   0  0  0  0  0  0  0  0  0  0  0  0
  -17.4226   -0.1000  139.0668 C   0  0  0  0  0  0  0  0  0  0  0  0
  -21.1100   -1.2622  138.0484 C   0  0  0  0  0  0  0  0  0  0  0  0
  -27.5475   -0.3683  143.1664 C   0  0  0  0  0  0  0  0  0  0  0  0
  -28.1108   -0.9596  144.4271 C   0  0  0  0  0  0  0  0  0  0  0  0
  -20.0278   -2.8054  140.0463 C   0  0  0  0  0  0  0  0  0  0  0  0
  -27.4967   -1.9108  143.4323 C   0  0  0  0  0  0  0  0  0  0  0  0
  2  1  1  0
  3  2  1  0
  4  3  1  0
  5  3  1  0
  6  4  1  0
  8  7  1  0
  9  7  1  0
 10  2  1  0
 12  8  1  0
 13 12  1  0
 14  8  1  0
 15 14  1  0
 16 13  1  0
 17  6  1  0
 17  7  1  0
 17 11  1  0
 18 11  1  0
 18 13  1  0
 18 16  1  0
 18 17  1  0
 19  5  1  0
 20 15  1  0
 21 19  1  0
 22 20  1  0
 23 21  1  0
 24  9  1  0
 25 22  1  0
 26 23  1  0
 27  5  1  0
 27 19  1  0
 27 22  1  0
 28 24  1  0
 29 28  1  0
 30  3  1  0
 30  4  1  0
 30 19  1  0
 30 21  1  0
 31 24  1  0
 31 28  1  0
 31 29  1  0
M  END
$$$$

     RDKit          3D

 28 34  0  0  0  0  0  0  0  0999 V2000
  -24.4218   -4.4677  141.4341 C   0  0  0  0  0  0  0  0  0  0  0  0
  -25.3833   -3.3918  141.6399 C   0  0  0  0  0  0  0  0  0  0  0  0
  -24.0709   -4.7881  140.1251 C   0  0  0  0  0  0  0  0  0  0  0  0
  -26.1210   -2.8783  140.5859 C   0  0  0  0  0  0  0  0  0  0  0  0
  -27.3485   -2.2105  140.8220 C   0  0  0  0  0  0  0  0  0  0  0  0
  -22.8135   -5.3574  139.8557 C   0  0  0  0  0  0  0  0  0  0  0  0
  -22.0501   -4.1982  140.0404 C   0  0  0  0  0  0  0  0  0  0  0  0
  -28.0041   -2.3271  142.0548 C   0  0  0  0  0  0  0  0  0  0  0  0
  -27.6459   -3.3595  142.9303 C   0  0  0  0  0  0  0  0  0  0  0  0
  -24.8786   -2.4856  142.6229 C   0  0  0  0  0  0  0  0  0  0  0  0
  -24.8112   -5.4901  142.3320 C   0  0  0  0  0  0  0  0  0  0  0  0
  -24.2034   -5.3745  143.6120 C   0  0  0  0  0  0  0  0  0  0  0  0
  -21.5762   -3.6808  138.8625 N   0  0  0  0  0  2  0  0  0  0  0  0
  -22.2753   -4.1836  137.8370 C   0  0  0  0  0  0  0  0  0  0  0  0
  -22.5059   -3.0638  137.1174 N   0  0  0  0  0  2  0  0  0  0  0  0
  -27.6620   -3.1264  144.3066 C   0  0  0  0  0  0  0  0  0  0  0  0
  -26.6639   -3.6163  145.1320 C   0  0  0  0  0  0  0  0  0  0  0  0
  -27.0470   -4.1247  143.9003 C   0  0  0  0  0  0  0  0  0  0  0  0
  -23.0554   -3.4825  135.9469 C   0  0  0  0  0  0  0  0  0  0  0  0
  -24.6626   -4.4293  144.4953 C   0  0  0  0  0  0  0  0  0  0  0  0
  -27.7330   -4.5794  145.2524 C   0  0  0  0  0  0  0  0  0  0  0  0
  -23.7916   -5.5643  138.8723 C   0  0  0  0  0  0  0  0  0  0  0  0
  -23.2157   -3.6159  138.6293 N   0  0  0  0  0  1  0  0  0  0  0  0
  -23.6430   -4.7326  143.5930 C   0  0  0  0  0  0  0  0  0  0  0  0
  -25.2021   -2.6737  144.0705 C   0  0  0  0  0  0  0  0  0  0  0  0
  -24.5271   -6.8812  142.0503 C   0  0  0  0  0  0  0  0  0  0  0  0
  -25.0791   -6.7774  143.3373 C   0  0  0  0  0  0  0  0  0  0  0  0
  -22.7014   -4.4878  135.1130 C   0  0  0  0  0  0  0  0  0  0  0  0
  2  1  1  0
  3  1  1  0
  4  2  1  0
  5  4  1  0
  6  3  1  0
  7  6  1  0
  8  5  1  0
  9  8  1  0
 10  2  1  0
 11  1  1  0
 12 11  1  0
 13  7  1  0
 14 13  1  0
 15 14  1  0
 16  9  1  0
 17 16  1  0
 18  9  1  0
 18 16  1  0
 18 17  1  0
 19 15  1  0
 20 12  1  0
 21 17  1  0
 21 18  1  0
 22  3  1  0
 22  6  1  0
 23 14  1  0
 24 12  1  0
 25 10  1  0
 25 20  1  0
 26 11  1  0
 27 11  1  0
 27 12  1  0
 27 26  1  0
 28 19  2  0
M  RAD  3  13   2  15   2  23   3
M  END
$$$$

     RDKit          3D

 15 15  0  0  0  0  0  0  0  0999 V2000
  -18.8114   -6.1360  138.3566 O   0  0  0  0  0  0  0  0  0  0  0  0
  -17.5468   -5.5458  140.3168 C   0  0  0  0  0  0  0  0  0  0  0  0
  -18.2510   -5.2159  139.1532 O   0  0  0  0  0  0  0  0  0  0  0  0
  -16.7696   -7.8821  139.8377 C   0  0  0  0  0  0  0  0  0  0  0  0
  -18.8956   -7.5008  141.2638 C   0  0  0  0  0  0  0  0  0  0  0  0
  -20.1690   -9.5212  142.2013 C   0  0  0  0  0  0  0  0  0  0  0  0
  -20.4806   -9.7828  143.6591 C   0  0  0  0  0  0  0  0  0  0  0  0
  -17.4839   -6.9722  140.8544 C   0  0  0  0  0  0  0  0  0  0  0  0
  -20.7974  -11.2216  144.0837 C   0  0  0  0  0  0  0  0  0  0  0  0
  -20.7305  -12.3497  143.0468 C   0  0  0  0  0  0  0  0  0  0  0  0
  -19.4492  -10.6066  144.4295 C   0  0  0  0  0  0  0  0  0  0  0  0
  -19.5351   -6.5730  142.3169 C   0  0  0  0  0  0  0  0  0  0  0  0
  -21.1294   -9.6961  141.2803 C   0  0  0  0  0  0  0  0  0  0  0  0
  -18.8203   -8.9564  141.7953 C   0  0  0  0  0  0  0  0  0  0  0  0
  -16.9371   -4.5565  140.9708 C   0  0  0  0  0  0  0  0  0  0  0  0
  3  1  1  0
  3  2  1  0
  7  6  1  0
  8  2  1  0
  8  4  1  0
  8  5  1  0
  9  7  1  0
 10  9  1  0
 11  7  1  0
 11  9  1  0
 12  5  1  0
 13  6  2  0
 14  5  1  0
 14  6  1  0
 15  2  2  0
M  END
$$$$

     RDKit          3D

 31 38  0  0  0  0  0  0  0  0999 V2000
  -27.2548   -4.1617  141.5594 C   0  0  0  0  0  0  0  0  0  0  0  0
  -27.2713   -4.4025  142.9515 N   0  0  0  0  0  0  0  0  0  0  0  0
  -27.3357   -3.3615  143.8972 C   0  0  0  0  0  0  0  0  0  0  0  0
  -27.8822   -1.5592  143.4127 Al  0  0  0  0  0  3  0  0  0  0  0  0
  -28.3890   -4.1891  140.8381 N   0  0  0  0  0  2  0  0  0  0  0  0
  -29.3253   -3.2562  141.1282 C   0  0  0  0  0  0  0  0  0  0  0  0
  -29.0676   -1.9235  141.0660 N   0  0  0  0  0  0  0  0  0  0  0  0
  -30.3716   -3.0444  140.2746 N   0  0  0  0  0  0  0  0  0  0  0  0
  -26.0618   -3.6031  141.0378 C   0  0  0  0  0  0  0  0  0  0  0  0
  -24.8299   -4.2768  141.2040 C   0  0  0  0  0  0  0  0  0  0  0  0
  -24.5298   -5.3490  140.3362 C   0  0  0  0  0  0  0  0  0  0  0  0
  -27.2198   -1.9929  143.4752 C   0  0  0  0  0  0  0  0  0  0  0  0
  -24.5534   -6.6730  140.8197 C   0  0  0  0  0  0  0  0  0  0  0  0
  -28.5415   -2.0050  144.5070 C   0  0  0  0  0  0  0  0  0  0  0  0
  -23.8964   -3.1657  141.4169 C   0  0  0  0  0  0  0  0  0  0  0  0
  -23.7973   -6.1061  139.7622 C   0  0  0  0  0  0  0  0  0  0  0  0
  -24.4554   -7.9244  140.0277 C   0  0  0  0  0  0  0  0  0  0  0  0
  -23.6086   -2.4088  140.1932 C   0  0  0  0  0  0  0  0  0  0  0  0
  -23.7081   -8.8011  138.8267 Cl  0  0  0  0  0  0  0  0  0  0  0  0
  -25.3437   -8.9527  139.2482 C   0  0  0  0  0  0  0  0  0  0  0  0
  -24.2545   -1.8874  141.3136 C   0  0  0  0  0  0  0  0  0  0  0  0
  -27.3787   -4.5650  140.4682 S   0  0  0  0  0  1  0  0  0  0  0  0
  -29.4006   -3.2336  144.0522 C   0  0  0  0  0  0  0  0  0  0  0  0
  -29.0651   -3.3532  144.1018 C   0  0  0  0  0  0  0  0  0  0  0  0
  -29.6783   -2.2864  143.7162 C   0  0  0  0  0  0  0  0  0  0  0  0
  -26.9561   -0.1524  143.5197 C   0  0  0  0  0  0  0  0  0  0  0  0
  -29.5857   -0.9534  144.7791 C   0  0  0  0  0  0  0  0  0  0  0  0
  -27.4872    0.0817  144.9491 C   0  0  0  0  0  0  0  0  0  0  0  0
  -28.4462    1.3451  144.8752 C   0  0  0  0  0  0  0  0  0  0  0  0
  -27.4386   -2.9737  142.4204 C   0  0  0  0  0  0  0  0  0  0  0  0
  -28.8433    2.1494  144.0174 C   0  0  0  0  0  0  0  0  0  0  0  0
  2  1  1  0
  3  2  1  0
  5  1  1  0
  6  5  1  0
  7  6  1  0
  8  6  1  0
  9  1  1  0
 10  9  1  0
 11 10  1  0
 12  3  1  0
 12  4  1  0
 13 11  1  0
 14  4  1  0
 15 10  1  0
 16 11  1  0
 16 13  1  0
 17 13  1  0
 17 16  1  0
 18 15  1  0
 19 17  1  0
 20 17  1  0
 21 15  1  0
 21 18  1  0
 22  1  1  0
 24  3  1  0
 24 14  1  0
 24 23  1  0
 25 14  1  0
 25 23  1  0
 26  4  1  0
 27 14  1  0
 27 25  1  0
 28 26  1  0
 29 28  1  0
 30  2  1  0
 30  3  1  0
 30 12  1  0
 31 29  2  0
M  RAD  2   5   2  22   2
M  END
$$$$

     RDKit          3D

 19 23  0  0  0  0  0  0  0  0999 V2000
  -21.0178  -15.9333  137.8664 C   0  0  0  0  0  0  0  0  0  0  0  0
  -21.9205  -15.3913  136.7829 C   0  0  0  0  0  0  0  0  0  0  0  0
  -23.4092  -15.8143  137.0660 C   0  0  0  0  0  0  0  0  0  0  0  0
  -21.2434  -11.8910  137.5058 Br  0  0  0  0  0  0  0  0  0  0  0  0
  -22.5798  -16.4098  135.9410 C   0  0  0  0  0  0  0  0  0  0  0  0
  -22.2660  -16.6769  137.4577 C   0  0  0  0  0  0  0  0  0  0  0  0
  -19.5982  -18.2057  139.0724 C   0  0  0  0  0  0  0  0  0  0  0  0
  -20.1181  -19.5550  139.5529 C   0  0  0  0  0  0  0  0  0  0  0  0
  -19.7193  -16.6205  137.4029 C   0  0  0  0  0  0  0  0  0  0  0  0
  -20.6924  -19.5033  140.8977 N   0  0  0  0  0  0  0  0  0  0  0  0
  -20.7505  -20.5272  138.5456 C   0  0  0  0  0  0  0  0  0  0  0  0
  -19.7522  -18.0014  137.6803 O   0  0  0  0  0  0  0  0  0  0  0  0
  -23.3378  -13.2976  137.3801 O   0  0  0  0  0  0  0  0  0  0  0  0
  -24.3039  -14.6979  139.2097 C   0  0  0  0  0  0  0  0  0  0  0  0
  -24.0038  -14.5155  137.6989 C   0  0  0  0  0  0  0  0  0  0  0  0
  -25.3375  -15.7928  139.4774 C   0  0  0  0  0  0  0  0  0  0  0  0
  -22.4232  -13.0648  138.3067 O   0  0  0  0  0  0  0  0  0  0  0  0
  -17.8007  -19.0294  140.6986 C   0  0  0  0  0  0  0  0  0  0  0  0
  -18.6108  -19.3181  139.4308 C   0  0  0  0  0  0  0  0  0  0  0  0
  2  1  1  0
  3  2  1  0
  5  2  1  0
  5  3  1  0
  6  1  1  0
  6  2  1  0
  6  3  1  0
  6  5  1  0
  8  7  1  0
  9  1  1  0
 10  8  1  0
 11  8  1  0
 12  7  1  0
 12  9  1  0
 15  3  1  0
 15 13  1  0
 15 14  1  0
 16 14  1  0
 17  4  1  0
 17 13  1  0
 19  7  1  0
 19  8  1  0
 19 18  1  0
M  END
$$$$

     RDKit          3D

 30 35  0  0  0  0  0  0  0  0999 V2000
  -19.2981    0.5371  132.7771 O   0  0  0  0  0  0  0  0  0  0  0  0
  -20.2936   -0.3130  133.2989 C   0  0  0  0  0  0  0  0  0  0  0  0
  -19.9731   -0.9477  134.5293 O   0  0  0  0  0  0  0  0  0  0  0  0
  -19.3682    1.8911  133.1336 C   0  0  0  0  0  0  0  0  0  0  0  0
  -18.3890    2.2810  134.2452 C   0  0  0  0  0  0  0  0  0  0  0  0
  -15.6057    2.2177  138.8314 As  0  0  0  0  0  3  0  0  0  0  0  0
  -21.7410    0.2136  133.3355 C   0  0  0  0  0  0  0  0  0  0  0  0
  -21.7629    2.6148  134.1085 C   0  0  0  0  0  0  0  0  0  0  0  0
  -20.7062    2.6510  133.0327 C   0  0  0  0  0  0  0  0  0  0  0  0
  -21.8882    1.6889  132.8989 C   0  0  0  0  0  0  0  0  0  0  0  0
  -18.6765    2.0628  135.7675 C   0  0  0  0  0  0  0  0  0  0  0  0
  -17.5389    2.7673  136.6637 C   0  0  0  0  0  0  0  0  0  0  0  0
  -16.1150    4.1106  139.0739 C   0  0  0  0  0  0  0  0  0  0  0  0
  -15.7139    4.9533  137.9196 N   0  0  0  0  0  0  0  0  0  0  0  0
  -15.0945    2.0177  137.0127 C   0  0  0  0  0  0  0  0  0  0  0  0
  -16.1029    2.7071  136.0717 C   0  0  0  0  0  0  0  0  0  0  0  0
  -19.0479    0.6048  136.1695 C   0  0  0  0  0  0  0  0  0  0  0  0
  -17.6408    3.8083  139.1096 C   0  0  0  0  0  0  0  0  0  0  0  0
  -21.8518    2.9289  139.8145 C   0  0  0  0  0  0  0  0  0  0  0  0
  -17.5154    2.5218  138.2312 C   0  0  0  0  0  0  0  0  0  0  0  0
  -18.7737   -0.5248  135.1576 C   0  0  0  0  0  0  0  0  0  0  0  0
  -20.3711    2.5665  139.9237 C   0  0  0  0  0  0  0  0  0  0  0  0
  -19.5389    3.4315  140.8957 C   0  0  0  0  0  0  0  0  0  0  0  0
  -20.9219    3.1651  138.6248 C   0  0  0  0  0  0  0  0  0  0  0  0
  -20.0550    4.7790  141.0845 N   0  0  0  0  0  0  0  0  0  0  0  0
  -18.0246    3.4644  140.5822 C   0  0  0  0  0  0  0  0  0  0  0  0
  -13.7408    2.5551  136.8087 C   0  0  0  0  0  0  0  0  0  0  0  0
  -20.5408    5.1801  142.3560 C   0  0  0  0  0  0  0  0  0  0  0  0
  -12.6385    2.9965  136.6547 C   0  0  0  0  0  0  0  0  0  0  0  0
  -21.5759    6.0107  142.4663 C   0  0  0  0  0  0  0  0  0  0  0  0
  2  1  1  0
  3  2  1  0
  4  1  1  0
  5  4  1  0
  7  2  1  0
  9  4  1  0
  9  8  1  0
 10  7  1  0
 10  8  1  0
 10  9  1  0
 11  5  1  0
 12 11  1  0
 13  6  1  0
 14 13  1  0
 15  6  1  0
 16 12  1  0
 16 15  1  0
 17 11  1  0
 18 13  1  0
 20  6  1  0
 20 12  1  0
 20 18  1  0
 21  3  1  0
 21 17  1  0
 22 19  1  0
 23 22  1  0
 24 19  1  0
 24 22  1  0
 25 23  1  0
 26 18  1  0
 26 23  1  0
 27 15  1  0
 28 25  1  0
 29 27  3  0
 30 28  2  0
M  END
$$$$

     RDKit          3D

 11 12  0  0  0  0  0  0  0  0999 V2000
  -28.3588  -11.1556  151.9686 C   0  0  0  0  0  0  0  0  0  0  0  0
  -28.4279  -11.7532  150.5541 C   0  0  0  0  0  0  0  0  0  0  0  0
  -28.0010  -12.1572  152.8879 O   0  0  0  0  0  0  0  0  0  0  0  0
  -28.6229  -10.6544  149.4812 C   0  0  0  0  0  0  0  0  0  0  0  0
  -29.6116  -10.5934  152.3171 O   0  0  0  0  0  0  0  0  0  0  0  0
  -30.7588  -10.8823  148.7555 C   0  0  0  0  0  0  0  0  0  0  0  0
  -31.3270  -11.9846  149.6584 C   0  0  0  0  0  0  0  0  0  0  0  0
  -29.8847   -9.7602  149.3575 C   0  0  0  0  0  0  0  0  0  0  0  0
  -29.4261   -9.4415  147.9134 C   0  0  0  0  0  0  0  0  0  0  0  0
  -29.3350  -10.9693  148.1459 C   0  0  0  0  0  0  0  0  0  0  0  0
  -29.4557   -9.6846  153.3842 C   0  0  0  0  0  0  0  0  0  0  0  0
  2  1  1  0
  3  1  1  0
  4  2  1  0
  5  1  1  0
  7  6  1  0
  8  4  1  0
  8  6  1  0
  9  8  1  0
 10  4  1  0
 10  6  1  0
 10  9  1  0
 11  5  1  0
M  END
$$$$

     RDKit          3D

 30 33  0  0  0  0  0  0  0  0999 V2000
  -25.4627  -22.6174  134.5147 Si  0  0  0  0  0  3  0  0  0  0  0  0
  -21.5012  -21.8595  135.7342 O   0  0  0  0  0  0  0  0  0  0  0  0
  -26.0106  -24.6818  137.8406 O   0  0  0  0  0  0  0  0  0  0  0  0
  -23.1299  -22.6977  137.3722 C   0  0  0  0  0  0  0  0  0  0  0  0
  -25.6183  -24.4108  136.5663 N   0  0  0  0  0  2  0  0  0  0  0  0
  -24.3946  -22.2240  137.8138 O   0  0  0  0  0  0  0  0  0  0  0  0
  -22.2301  -22.9698  138.5876 C   0  0  0  0  0  0  0  0  0  0  0  0
  -21.4474  -20.5819  139.1859 C   0  0  0  0  0  0  0  0  0  0  0  0
  -22.1807  -21.5654  136.9322 C   0  0  0  0  0  0  0  0  0  0  0  0
  -19.2266  -20.8845  138.6250 C   0  0  0  0  0  0  0  0  0  0  0  0
  -20.2060  -19.8359  138.9890 N   0  0  0  0  0  0  0  0  0  0  0  0
  -20.4035  -18.7528  137.9835 C   0  0  0  0  0  0  0  0  0  0  0  0
  -19.2215  -18.2892  137.3784 O   0  0  0  0  0  0  0  0  0  0  0  0
  -21.3565  -21.7568  138.2257 C   0  0  0  0  0  0  0  0  0  0  0  0
  -21.4010  -17.7116  138.3245 N   0  0  0  0  0  0  0  0  0  0  0  0
  -27.6337  -22.9337  136.2717 C   0  0  0  0  0  0  0  0  0  0  0  0
  -19.9309  -22.0639  138.0872 N   0  0  0  0  0  0  0  0  0  0  0  0
  -20.1307  -18.9643  136.5294 C   0  0  0  0  0  0  0  0  0  0  0  0
  -19.7163  -16.4654  139.7427 C   0  0  0  0  0  0  0  0  0  0  0  0
  -20.5575  -15.6198  137.6245 O   0  0  0  0  0  0  0  0  0  0  0  0
  -25.1537  -20.0378  135.1625 C   0  0  0  0  0  0  0  0  0  0  0  0
  -26.1058  -23.0815  136.1839 C   0  0  0  0  0  0  0  0  0  0  0  0
  -24.6623  -21.3762  135.5299 N   0  0  0  0  0  0  0  0  0  0  0  0
  -20.9141  -16.3827  138.7579 C   0  0  0  0  0  0  0  0  0  0  0  0
  -22.1020  -15.6237  139.4315 C   0  0  0  0  0  0  0  0  0  0  0  0
  -22.5421  -16.0849  140.8462 C   0  0  0  0  0  0  0  0  0  0  0  0
  -25.3068  -21.8891  136.7701 C   0  0  0  0  0  0  0  0  0  0  0  0
  -24.2349  -17.8487  140.0367 C   0  0  0  0  0  0  0  0  0  0  0  0
  -23.5538  -15.2170  141.2951 O   0  0  0  0  0  0  0  0  0  0  0  0
  -23.0373  -17.5439  140.9353 C   0  0  0  0  0  0  0  0  0  0  0  0
  5  3  1  0
  6  4  1  0
  7  4  1  0
  9  2  1  0
  9  4  1  0
 11  8  1  0
 11 10  1  0
 12 11  1  0
 13 12  1  0
 14  7  1  0
 14  8  1  0
 14  9  1  0
 15 12  1  0
 17 10  1  0
 17 14  1  0
 18 12  1  0
 18 13  1  0
 22  1  1  0
 22  5  1  0
 22 16  1  0
 23  1  1  0
 23 21  1  0
 24 15  1  0
 24 19  1  0
 24 20  1  0
 25 24  1  0
 26 25  1  0
 27  6  1  0
 27 22  1  0
 27 23  1  0
 29 26  1  0
 30 26  1  0
 30 28  1  0
M  RAD  2   1   2   5   2
M  END
$$$$

     RDKit          3D

 28 29  0  0  0  0  0  0  0  0999 V2000
  -19.5190  -20.7138  138.6130 Br  0  0  0  0  0  0  0  0  0  0  0  0
  -20.5651  -24.2212  136.4095 C   0  0  0  0  0  0  0  0  0  0  0  0
  -19.6871  -24.9790  135.4233 C   0  0  0  0  0  0  0  0  0  0  0  0
  -20.5096  -25.8361  134.3918 C   0  0  0  0  0  0  0  0  0  0  0  0
  -19.9511  -22.8360  136.7707 C   0  0  0  0  0  0  0  0  0  0  0  0
  -18.5536  -25.7306  136.1296 C   0  0  0  0  0  0  0  0  0  0  0  0
  -22.0743  -24.2125  136.3039 C   0  0  0  0  0  0  0  0  0  0  0  0
  -22.8672  -24.9116  137.1353 C   0  0  0  0  0  0  0  0  0  0  0  0
  -19.4906  -25.1735  138.1524 O   0  0  0  0  0  0  0  0  0  0  0  0
  -17.9564  -27.0413  135.4984 C   0  0  0  0  0  0  0  0  0  0  0  0
  -20.5966  -22.2075  138.0156 C   0  0  0  0  0  0  0  0  0  0  0  0
  -18.0479  -28.4214  136.2083 C   0  0  0  0  0  0  0  0  0  0  0  0
  -17.5302  -24.8238  136.5388 O   0  0  0  0  0  0  0  0  0  0  0  0
  -19.1228  -24.9009  132.3867 C   0  0  0  0  0  0  0  0  0  0  0  0
  -16.9659  -23.0633  133.8463 C   0  0  0  0  0  0  0  0  0  0  0  0
  -18.7783  -23.4125  132.0501 C   0  0  0  0  0  0  0  0  0  0  0  0
  -21.6179  -24.0788  132.8386 C   0  0  0  0  0  0  0  0  0  0  0  0
  -24.1446  -23.4698  132.8026 C   0  0  0  0  0  0  0  0  0  0  0  0
  -19.9116  -25.5510  136.8653 C   0  0  0  0  0  0  0  0  0  0  0  0
  -18.9607  -28.5787  137.4353 C   0  0  0  0  0  0  0  0  0  0  0  0
  -19.0542  -23.1354  130.5536 C   0  0  0  0  0  0  0  0  0  0  0  0
  -20.5626  -25.2233  132.9561 C   0  0  0  0  0  0  0  0  0  0  0  0
  -20.3346  -29.0525  137.0666 C   0  0  0  0  0  0  0  0  0  0  0  0
  -21.1079  -28.3371  136.3305 N   0  0  0  0  0  0  0  0  0  0  0  0
  -23.0782  -24.5692  133.0257 C   0  0  0  0  0  0  0  0  0  0  0  0
  -23.6737  -22.1417  133.2068 N   0  0  0  0  0  0  0  0  0  0  0  0
  -17.2885  -23.0738  132.3559 C   0  0  0  0  0  0  0  0  0  0  0  0
  -24.7408  -23.4430  130.9548 Br  0  0  0  0  0  0  0  0  0  0  0  0
  3  2  1  0
  4  3  1  0
  5  2  1  0
  6  3  1  0
  7  2  1  0
  8  7  2  0
 10  6  1  0
 11  1  1  0
 11  5  1  0
 12 10  1  0
 13  6  1  0
 16 14  1  0
 19  2  1  0
 19  3  1  0
 19  6  1  0
 19  9  1  0
 20 12  1  0
 21 16  1  0
 22  4  1  0
 22 14  1  0
 22 17  1  0
 23 20  1  0
 24 23  2  0
 25 17  1  0
 25 18  1  0
 26 18  1  0
 27 15  1  0
 27 16  1  0
 28 18  1  0
M  END
$$$$

     RDKit          3D

 30 33  0  0  0  0  0  0  0  0999 V2000
  -22.3270  -11.9626  143.8491 C   0  0  0  0  0  0  0  0  0  0  0  0
  -21.4400  -12.9891  144.7899 C   0  0  0  0  0  0  0  0  0  0  0  0
  -21.9160  -11.1589  142.5287 C   0  0  0  0  0  0  0  0  0  0  0  0
  -23.5400  -12.7498  143.5358 C   0  0  0  0  0  0  0  0  0  0  0  0
  -21.4042   -9.6406  142.5412 C   0  0  0  0  0  0  0  0  0  0  0  0
  -22.1888  -13.9814  145.8130 C   0  0  0  0  0  0  0  0  0  0  0  0
  -22.1443  -13.4283  143.5265 C   0  0  0  0  0  0  0  0  0  0  0  0
  -21.5486  -14.4606  147.0860 C   0  0  0  0  0  0  0  0  0  0  0  0
  -22.8458  -14.5409  148.9748 C   0  0  0  0  0  0  0  0  0  0  0  0
  -21.9038  -13.5516  148.2669 C   0  0  0  0  0  0  0  0  0  0  0  0
  -22.5043  -15.9112  147.8280 S   0  0  0  0  0  0  0  0  0  0  0  0
  -22.1781   -8.7132  141.3934 C   0  0  0  0  0  0  0  0  0  0  0  0
  -21.9722   -6.7535  139.6660 C   0  0  0  0  0  0  0  0  0  0  0  0
  -22.6012  -12.1632  148.0280 C   0  0  0  0  0  0  0  0  0  0  0  0
  -21.6792   -8.3059  139.8775 C   0  0  0  0  0  0  0  0  0  0  0  0
  -22.2237  -11.0717  149.0523 C   0  0  0  0  0  0  0  0  0  0  0  0
  -21.6156   -8.8850  143.9971 C   0  0  0  0  0  0  0  0  0  0  0  0
  -19.9037   -9.6279  142.1921 C   0  0  0  0  0  0  0  0  0  0  0  0
  -22.1831  -11.6019  150.5377 C   0  0  0  0  0  0  0  0  0  0  0  0
  -21.0349   -6.2274  138.5592 C   0  0  0  0  0  0  0  0  0  0  0  0
  -25.6405  -16.6339  144.7509 C   0  0  0  0  0  0  0  0  0  0  0  0
  -22.6228   -7.6772  144.1422 C   0  0  0  0  0  0  0  0  0  0  0  0
  -25.3375  -15.0995  144.6415 C   0  0  0  0  0  0  0  0  0  0  0  0
  -25.6662  -14.2871  146.0584 C   0  0  0  0  0  0  0  0  0  0  0  0
  -22.6808  -10.5572  151.5554 C   0  0  0  0  0  0  0  0  0  0  0  0
  -25.2880  -12.8308  146.7700 C   0  0  0  0  0  0  0  0  0  0  0  0
  -24.3926  -10.9770  146.7865 C   0  0  0  0  0  0  0  0  0  0  0  0
  -25.3595  -11.6598  145.9329 N   0  0  0  0  0  0  0  0  0  0  0  0
  -24.5118  -17.3608  145.3819 C   0  0  0  0  0  0  0  0  0  0  0  0
  -24.1725  -12.1622  147.7391 C   0  0  0  0  0  0  0  0  0  0  0  0
  2  1  1  0
  3  1  1  0
  4  1  1  0
  5  3  1  0
  6  2  1  0
  7  1  1  0
  7  2  1  0
  7  4  1  0
  8  6  1  0
 10  8  1  0
 10  9  1  0
 11  8  1  0
 11  9  1  0
 12  5  1  0
 14 10  1  0
 15 12  1  0
 15 13  1  0
 16 14  1  0
 17  5  1  0
 18  5  1  0
 19 16  1  0
 20 13  1  0
 22 17  1  0
 23 21  1  0
 24 23  1  0
 25 19  1  0
 26 24  1  0
 28 26  1  0
 28 27  1  0
 29 21  1  0
 30 14  1  0
 30 26  1  0
 30 27  1  0
M  END
$$$$

     RDKit          3D

 31 39  0  0  0  0  0  0  0  0999 V2000
  -19.0922   -2.0371  136.0750 C   0  0  0  0  0  0  0  0  0  0  0  0
  -17.5828   -0.7830  136.9824 C   0  0  0  0  0  0  0  0  0  0  0  0
  -18.5416   -0.6078  138.1543 C   0  0  0  0  0  0  0  0  0  0  0  0
  -18.1663   -0.9416  135.5835 C   0  0  0  0  0  0  0  0  0  0  0  0
  -17.7827   -0.4646  139.4816 C   0  0  0  0  0  0  0  0  0  0  0  0
  -18.8572    0.3241  135.0447 C   0  0  0  0  0  0  0  0  0  0  0  0
  -18.6984   -0.3471  140.6912 C   0  0  0  0  0  0  0  0  0  0  0  0
  -20.1922   -0.6171  140.9008 C   0  0  0  0  0  0  0  0  0  0  0  0
  -18.4683   -1.9531  137.4584 C   0  0  0  0  0  0  0  0  0  0  0  0
  -19.4579    0.0697  133.6534 C   0  0  0  0  0  0  0  0  0  0  0  0
  -18.4557    0.3160  142.0454 C   0  0  0  0  0  0  0  0  0  0  0  0
  -17.8772   -1.6214  140.4751 C   0  0  0  0  0  0  0  0  0  0  0  0
  -19.7645    1.3919  132.9286 C   0  0  0  0  0  0  0  0  0  0  0  0
  -20.5167    1.1707  131.6106 C   0  0  0  0  0  0  0  0  0  0  0  0
  -19.9153   -0.0290  142.2816 C   0  0  0  0  0  0  0  0  0  0  0  0
  -19.6898    0.2779  130.6488 C   0  0  0  0  0  0  0  0  0  0  0  0
  -20.3169   -0.6437  143.6136 C   0  0  0  0  0  0  0  0  0  0  0  0
  -21.3237   -1.8172  143.6116 C   0  0  0  0  0  0  0  0  0  0  0  0
  -20.8959    0.7170  143.1545 C   0  0  0  0  0  0  0  0  0  0  0  0
  -20.6125   -3.1854  143.4389 C   0  0  0  0  0  0  0  0  0  0  0  0
  -22.2500   -1.7904  144.8536 C   0  0  0  0  0  0  0  0  0  0  0  0
  -19.1781    0.8825  129.3509 C   0  0  0  0  0  0  0  0  0  0  0  0
  -17.9420    0.0813  128.8829 C   0  0  0  0  0  0  0  0  0  0  0  0
  -20.2447   -1.0969  130.3222 C   0  0  0  0  0  0  0  0  0  0  0  0
  -19.0743   -2.0236  129.9275 C   0  0  0  0  0  0  0  0  0  0  0  0
  -18.2083   -1.4509  128.7636 C   0  0  0  0  0  0  0  0  0  0  0  0
  -21.5180   -1.9661  146.2014 C   0  0  0  0  0  0  0  0  0  0  0  0
  -20.4520    0.0489  129.3439 C   0  0  0  0  0  0  0  0  0  0  0  0
  -19.1556   -3.3975  144.4600 Cl  0  0  0  0  0  0  0  0  0  0  0  0
  -22.2323   -1.3431  147.3965 C   0  0  0  0  0  0  0  0  0  0  0  0
  -20.9740   -0.6971  146.8467 C   0  0  0  0  0  0  0  0  0  0  0  0
  3  2  1  0
  4  1  1  0
  4  2  1  0
  5  3  1  0
  6  4  1  0
  7  5  1  0
  8  7  1  0
  9  1  1  0
  9  2  1  0
  9  3  1  0
 10  6  1  0
 11  7  1  0
 12  5  1  0
 12  7  1  0
 13 10  1  0
 14 13  1  0
 15  8  1  0
 15 11  1  0
 16 14  1  0
 17 15  1  0
 18 17  1  0
 19 15  1  0
 19 17  1  0
 20 18  1  0
 21 18  1  0
 22 16  1  0
 23 22  1  0
 24 16  1  0
 25 24  1  0
 26 23  1  0
 26 25  1  0
 27 21  1  0
 28 16  1  0
 28 22  1  0
 28 24  1  0
 29 20  1  0
 30 27  1  0
 31 27  1  0
 31 30  1  0
M  END
$$$$

     RDKit          3D

 30 35  0  0  0  0  0  0  0  0999 V2000
  -24.7299  -23.6205  151.5137 O   0  0  0  0  0  0  0  0  0  0  0  0
  -25.4105  -23.6851  150.2854 C   0  0  0  0  0  0  0  0  0  0  0  0
  -25.3345  -22.3577  149.4493 C   0  0  0  0  0  0  0  0  0  0  0  0
  -25.9215  -20.9633  149.8807 C   0  0  0  0  0  0  0  0  0  0  0  0
  -26.7062  -24.5604  150.2910 C   0  0  0  0  0  0  0  0  0  0  0  0
  -27.8295  -24.3516  151.3819 C   0  0  0  0  0  0  0  0  0  0  0  0
  -29.1627  -23.9067  150.7087 C   0  0  0  0  0  0  0  0  0  0  0  0
  -28.9086  -22.6968  149.8479 C   0  0  0  0  0  0  0  0  0  0  0  0
  -27.4314  -20.7484  149.5380 C   0  0  0  0  0  0  0  0  0  0  0  0
  -25.2838  -20.2769  151.1526 C   0  0  0  0  0  0  0  0  0  0  0  0
  -26.2647  -20.1556  152.2366 C   0  0  0  0  0  0  0  0  0  0  0  0
  -30.3119  -23.6371  151.7140 C   0  0  0  0  0  0  0  0  0  0  0  0
  -30.2640  -24.5146  152.9807 C   0  0  0  0  0  0  0  0  0  0  0  0
  -25.6690  -20.4849  153.5381 C   0  0  0  0  0  0  0  0  0  0  0  0
  -28.3283  -21.6082  150.3695 C   0  0  0  0  0  0  0  0  0  0  0  0
  -25.7727  -18.8844  151.5405 C   0  0  0  0  0  0  0  0  0  0  0  0
  -29.5981  -23.5875  154.3610 Cl  0  0  0  0  0  0  0  0  0  0  0  0
  -24.6811  -19.5617  154.2076 C   0  0  0  0  0  0  0  0  0  0  0  0
  -25.1329  -21.1405  152.3331 N   0  0  0  0  0  0  0  0  0  0  0  0
  -29.4940  -25.8284  152.7696 C   0  0  0  0  0  0  0  0  0  0  0  0
  -28.0370  -25.6405  152.2617 C   0  0  0  0  0  0  0  0  0  0  0  0
  -27.0130  -25.6760  153.4249 C   0  0  0  0  0  0  0  0  0  0  0  0
  -25.0909  -18.4362  154.8135 C   0  0  0  0  0  0  0  0  0  0  0  0
  -26.7729  -27.0590  154.0530 C   0  0  0  0  0  0  0  0  0  0  0  0
  -25.5118  -27.0571  154.9465 C   0  0  0  0  0  0  0  0  0  0  0  0
  -24.1925  -27.1163  154.1371 C   0  0  0  0  0  0  0  0  0  0  0  0
  -23.9183  -28.4815  153.7004 N   0  0  0  0  0  0  0  0  0  0  0  0
  -23.0488  -26.6628  154.9320 N   0  0  0  0  0  0  0  0  0  0  0  0
  -21.9176  -27.3234  154.2957 C   0  0  0  0  0  0  0  0  0  0  0  0
  -22.4667  -28.5565  153.5979 C   0  0  0  0  0  0  0  0  0  0  0  0
  2  1  1  0
  3  2  1  0
  4  3  1  0
  5  2  1  0
  6  5  1  0
  7  6  1  0
  8  7  1  0
  9  4  1  0
 10  4  1  0
 11 10  1  0
 12  7  1  0
 13 12  1  0
 14 11  1  0
 15  8  2  3
 15  9  1  0
 16 10  1  0
 16 11  1  0
 17 13  1  0
 18 14  1  0
 19 10  1  0
 19 11  1  0
 19 14  1  0
 20 13  1  0
 21  6  1  0
 21 20  1  0
 22 21  1  0
 23 18  2  0
 24 22  1  0
 25 24  1  0
 26 25  1  0
 27 26  1  0
 28 26  1  0
 29 28  1  0
 30 27  1  0
 30 29  1  0
M  END
$$$$

     RDKit          3D

 30 34  0  0  0  0  0  0  0  0999 V2000
  -15.9517   -2.5423  146.4246 C   0  0  0  0  0  0  0  0  0  0  0  0
  -14.3244   -0.9662  144.9121 C   0  0  0  0  0  0  0  0  0  0  0  0
  -16.6752   -3.1576  145.1177 C   0  0  0  0  0  0  0  0  0  0  0  0
  -15.3003    0.2077  144.6272 C   0  0  0  0  0  0  0  0  0  0  0  0
  -15.6669   -3.5510  147.6167 C   0  0  0  0  0  0  0  0  0  0  0  0
  -14.7753    1.6578  144.7458 C   0  0  0  0  0  0  0  0  0  0  0  0
  -17.2073   -4.6201  145.2867 C   0  0  0  0  0  0  0  0  0  0  0  0
  -13.4284    1.9236  145.3695 C   0  0  0  0  0  0  0  0  0  0  0  0
  -13.2624    2.8310  146.3425 C   0  0  0  0  0  0  0  0  0  0  0  0
  -14.4297    3.3701  147.0940 C   0  0  0  0  0  0  0  0  0  0  0  0
  -14.9886    2.2186  147.9382 C   0  0  0  0  0  0  0  0  0  0  0  0
  -17.1189   -5.5986  142.8589 C   0  0  0  0  0  0  0  0  0  0  0  0
  -15.9116    1.1803  145.6621 C   0  0  0  0  0  0  0  0  0  0  0  0
  -17.9655   -5.9529  141.5964 C   0  0  0  0  0  0  0  0  0  0  0  0
  -19.0579   -4.9565  141.1864 C   0  0  0  0  0  0  0  0  0  0  0  0
  -16.4993    2.0077  147.9337 C   0  0  0  0  0  0  0  0  0  0  0  0
  -15.5936    1.0450  147.1498 C   0  0  0  0  0  0  0  0  0  0  0  0
  -14.5433   -1.9097  146.1100 C   0  0  0  0  0  0  0  0  0  0  0  0
  -18.2798   -4.5627  139.9382 C   0  0  0  0  0  0  0  0  0  0  0  0
  -17.7425   -2.1129  144.5145 C   0  0  0  0  0  0  0  0  0  0  0  0
  -17.9595   -5.2820  144.1099 C   0  0  0  0  0  0  0  0  0  0  0  0
  -16.6168   -3.6018  148.8342 C   0  0  0  0  0  0  0  0  0  0  0  0
  -17.3906   -4.7656  148.7257 O   0  0  0  0  0  0  0  0  0  0  0  0
  -18.0805   -3.5491  148.7328 C   0  0  0  0  0  0  0  0  0  0  0  0
  -15.3191   -3.9239  140.2419 C   0  0  0  0  0  0  0  0  0  0  0  0
  -17.6787   -1.9917  142.9744 C   0  0  0  0  0  0  0  0  0  0  0  0
  -19.2225   -2.1559  145.0125 C   0  0  0  0  0  0  0  0  0  0  0  0
  -20.1096   -2.7362  144.0816 O   0  0  0  0  0  0  0  0  0  0  0  0
  -17.2742   -5.6914  140.2236 C   0  0  0  0  0  0  0  0  0  0  0  0
  -15.7592   -5.3932  140.1700 C   0  0  0  0  0  0  0  0  0  0  0  0
  3  1  1  0
  4  2  1  0
  5  1  1  0
  6  4  1  0
  7  3  1  0
  8  6  1  0
  9  8  2  0
 10  9  1  0
 11 10  1  0
 13  4  1  0
 13  6  1  0
 14 12  1  0
 15 14  1  0
 16 11  1  0
 17 11  1  0
 17 13  1  0
 17 16  1  0
 18  1  1  0
 18  2  1  0
 19 15  1  0
 20  3  1  0
 21  7  1  0
 21 12  1  0
 22  5  1  0
 23 22  1  0
 24 22  1  0
 24 23  1  0
 26 20  1  0
 27 20  1  0
 28 27  1  0
 29 14  1  0
 29 19  1  0
 30 25  1  0
 30 29  1  0
M  END
$$$$

     RDKit          3D

 31 35  0  0  0  0  0  0  0  0999 V2000
  -22.7816   -5.3439  147.4518 C   0  0  0  0  0  0  0  0  0  0  0  0
  -24.6378   -6.2591  146.0756 C   0  0  0  0  0  0  0  0  0  0  0  0
  -22.4836   -2.6357  142.8114 C   0  0  0  0  0  0  0  0  0  0  0  0
  -23.8708   -0.0732  141.9534 C   0  0  0  0  0  0  0  0  0  0  0  0
  -23.1334    0.7459  140.7222 C   0  0  0  0  0  0  0  0  0  0  0  0
  -25.6379    1.5423  140.8250 C   0  0  0  0  0  0  0  0  0  0  0  0
  -24.1497    1.9568  140.0455 C   0  0  0  0  0  0  0  0  0  0  0  0
  -26.0482   -0.1863  136.0584 F   0  0  0  0  0  0  0  0  0  0  0  0
  -24.3602   -8.1559  146.3134 C   0  0  0  0  0  0  0  0  0  0  0  0
  -24.2190   -5.8957  147.4699 C   0  0  0  0  0  0  0  0  0  0  0  0
  -25.0773   -8.5819  145.1950 C   0  0  0  0  0  0  0  0  0  0  0  0
  -25.6890   -9.5447  146.7714 C   0  0  0  0  0  0  0  0  0  0  0  0
  -24.3383   -7.3511  143.7862 C   0  0  0  0  0  0  0  0  0  0  0  0
  -25.1424   -5.3016  143.7611 C   0  0  0  0  0  0  0  0  0  0  0  0
  -24.7712   -3.4191  144.3583 C   0  0  0  0  0  0  0  0  0  0  0  0
  -24.7146   -6.7462  141.4530 Si  0  0  0  0  0  4  0  0  0  0  0  0
  -25.7682   -3.1029  142.2471 C   0  0  0  0  0  0  0  0  0  0  0  0
  -22.7908   -8.2528  142.4064 C   0  0  0  0  0  0  0  0  0  0  0  0
  -24.8536   -2.1264  143.3676 C   0  0  0  0  0  0  0  0  0  0  0  0
  -26.0424   -6.4330  139.9362 C   0  0  0  0  0  0  0  0  0  0  0  0
  -25.9870   -5.0510  142.4932 C   0  0  0  0  0  0  0  0  0  0  0  0
  -27.8984   -6.5056  140.4225 C   0  0  0  0  0  0  0  0  0  0  0  0
  -25.3025   -5.2906  138.9976 N   0  0  0  0  0  0  0  0  0  0  0  0
  -28.6786   -5.2108  140.0088 N   0  0  0  0  0  0  0  0  0  0  0  0
  -29.0320   -7.6050  141.4596 C   0  0  0  0  0  0  0  0  0  0  0  0
  -29.4877   -4.4684  141.0911 C   0  0  0  0  0  0  0  0  0  0  0  0
  -31.2559   -2.8372  139.6340 C   0  0  0  0  0  0  0  0  0  0  0  0
  -24.1357    1.8779  138.4405 C   0  0  0  0  0  0  0  0  0  0  0  0
  -30.7669   -3.4984  140.7269 N   0  0  0  0  0  0  0  0  0  0  0  0
  -23.0410   -4.8964  145.0575 C   0  0  0  0  0  0  0  0  0  0  0  0
  -29.5314   -7.4883  142.9723 C   0  0  0  0  0  0  0  0  0  0  0  0
  4  3  1  0
  5  4  1  0
  6  4  1  0
  7  5  1  0
  7  6  1  0
  9  2  1  0
 10  1  1  0
 10  2  1  0
 11  9  1  0
 12  9  1  0
 12 11  1  0
 13 11  1  0
 14 13  1  0
 15 14  1  0
 18 13  1  0
 18 16  1  0
 19 15  1  0
 19 17  1  0
 20 16  1  0
 21 14  1  0
 21 16  1  0
 21 17  1  0
 22 20  1  0
 23 20  1  0
 24 22  1  0
 25 22  1  0
 26 24  1  0
 28  7  1  0
 28  8  1  0
 29 26  1  0
 29 27  2  0
 30  1  1  0
 30  2  1  0
 30  3  1  0
 31 25  1  0
M  END
$$$$

     RDKit          3D

 30 38  0  0  0  0  0  0  0  0999 V2000
  -27.9758   -0.3606  141.3845 C   0  0  0  0  0  0  0  0  0  0  0  0
  -28.0092   -0.9824  143.1833 C   0  0  0  0  0  0  0  0  0  0  0  0
  -25.4128   -2.5791  139.8949 N   0  0  0  0  0  0  0  0  0  0  0  0
  -24.9805   -2.7397  138.3387 C   0  0  0  0  0  0  0  0  0  0  0  0
  -27.6352   -2.0691  144.4239 C   0  0  0  0  0  0  0  0  0  0  0  0
  -23.6256   -1.7441  137.8335 C   0  0  0  0  0  0  0  0  0  0  0  0
  -28.2747    0.4711  143.3387 C   0  0  0  0  0  0  0  0  0  0  0  0
  -25.8622   -2.2104  144.0375 C   0  0  0  0  0  0  0  0  0  0  0  0
  -20.3214   -2.0377  135.1953 C   0  0  0  0  0  0  0  0  0  0  0  0
  -25.2741   -1.9196  142.8570 C   0  0  0  0  0  0  0  0  0  0  0  0
  -23.5918   -0.5816  136.7685 C   0  0  0  0  0  0  0  0  0  0  0  0
  -25.4420   -0.4593  137.3884 C   0  0  0  0  0  0  0  0  0  0  0  0
  -26.6828   -1.1995  139.4987 C   0  0  0  0  0  0  0  0  0  0  0  0
  -25.6086   -0.6633  143.8674 C   0  0  0  0  0  0  0  0  0  0  0  0
  -19.5262   -3.5383  134.2404 C   0  0  0  0  0  0  0  0  0  0  0  0
  -20.0617   -3.7680  132.9285 C   0  0  0  0  0  0  0  0  0  0  0  0
  -21.7828   -4.1108  137.4706 C   0  0  0  0  0  0  0  0  0  0  0  0
  -20.9921   -3.6636  136.0588 C   0  0  0  0  0  0  0  0  0  0  0  0
  -21.0062   -3.3724  134.4349 C   0  0  0  0  0  0  0  0  0  0  0  0
  -18.5026   -1.9928  134.1508 C   0  0  0  0  0  0  0  0  0  0  0  0
  -21.5750   -0.8210  135.0190 C   0  0  0  0  0  0  0  0  0  0  0  0
  -27.9009   -1.5682  146.2448 C   0  0  0  0  0  0  0  0  0  0  0  0
  -29.5341   -2.8287  144.1471 C   0  0  0  0  0  0  0  0  0  0  0  0
  -29.6000    0.4508  144.6889 C   0  0  0  0  0  0  0  0  0  0  0  0
  -30.6401   -2.6586  142.4265 C   0  0  0  0  0  0  0  0  0  0  0  0
  -28.9826   -1.2772  144.7081 C   0  0  0  0  0  0  0  0  0  0  0  0
  -31.1664   -1.2752  141.7743 C   0  0  0  0  0  0  0  0  0  0  0  0
  -32.6231   -0.9596  142.0156 N   0  0  0  0  0  0  0  0  0  0  0  0
  -33.2736   -0.5099  140.7134 C   0  0  0  0  0  0  0  0  0  0  0  0
  -31.0027   -2.4541  140.6821 C   0  0  0  0  0  0  0  0  0  0  0  0
  2  1  1  0
  4  3  1  0
  5  2  1  0
  6  4  1  0
  7  1  1  0
  7  2  1  0
  8  5  1  0
 10  8  1  0
 11  6  1  0
 12 11  1  0
 13  1  1  0
 13  3  1  0
 13 12  1  0
 14  8  1  0
 14 10  1  0
 16 15  1  0
 18  9  1  0
 18 17  2  0
 19 15  1  0
 19 16  1  0
 19 18  1  0
 20  9  1  0
 20 15  1  0
 21  9  1  0
 21 11  1  0
 22  5  1  0
 23  5  1  0
 24  7  1  0
 25 23  1  0
 26  2  1  0
 26 22  1  0
 26 23  1  0
 26 24  1  0
 27 25  1  0
 28 27  1  0
 29 28  1  0
 30 25  1  0
 30 27  1  0
M  END
$$$$

     RDKit          3D

 31 38  0  0  0  0  0  0  0  0999 V2000
  -29.2437   -8.3712  133.9879 O   0  0  0  0  0  0  0  0  0  0  0  0
  -28.1897   -7.1825  135.1727 C   0  0  0  0  0  0  0  0  0  0  0  0
  -27.7484   -5.7387  135.5528 C   0  0  0  0  0  0  0  0  0  0  0  0
  -30.6300   -7.8192  135.9942 N   0  0  0  0  0  0  0  0  0  0  0  0
  -26.2794   -5.3263  135.5745 C   0  0  0  0  0  0  0  0  0  0  0  0
  -25.0248   -5.7050  134.7829 C   0  0  0  0  0  0  0  0  0  0  0  0
  -30.1569   -6.1851  134.0497 C   0  0  0  0  0  0  0  0  0  0  0  0
  -27.8954   -7.9459  134.0112 N   0  0  0  0  0  0  0  0  0  0  0  0
  -27.2328   -3.3928  135.3379 C   0  0  0  0  0  0  0  0  0  0  0  0
  -26.2238   -3.9560  136.2727 C   0  0  0  0  0  0  0  0  0  0  0  0
  -27.2709   -4.6934  134.6085 C   0  0  0  0  0  0  0  0  0  0  0  0
  -30.1383   -6.2860  132.4492 C   0  0  0  0  0  0  0  0  0  0  0  0
  -31.6816   -6.7948  136.3441 C   0  0  0  0  0  0  0  0  0  0  0  0
  -29.6895   -7.3858  134.8513 C   0  0  0  0  0  0  0  0  0  0  0  0
  -31.9237   -8.5131  135.6405 C   0  0  0  0  0  0  0  0  0  0  0  0
  -31.3802   -6.1809  131.3510 C   0  0  0  0  0  0  0  0  0  0  0  0
  -32.8675   -6.8679  131.4555 C   0  0  0  0  0  0  0  0  0  0  0  0
  -32.8704   -6.9215  133.8667 C   0  0  0  0  0  0  0  0  0  0  0  0
  -32.8764   -7.3267  135.4253 C   0  0  0  0  0  0  0  0  0  0  0  0
  -32.6305   -8.2597  131.7265 O   0  0  0  0  0  0  0  0  0  0  0  0
  -33.5362   -7.5869  132.6729 C   0  0  0  0  0  0  0  0  0  0  0  0
  -33.8185   -6.3660  136.1651 C   0  0  0  0  0  0  0  0  0  0  0  0
  -31.1547   -4.5918  131.2029 C   0  0  0  0  0  0  0  0  0  0  0  0
  -34.9594   -5.6184  135.2886 C   0  0  0  0  0  0  0  0  0  0  0  0
  -30.6393   -3.6153  130.0930 C   0  0  0  0  0  0  0  0  0  0  0  0
  -32.5338   -5.4649  136.5397 C   0  0  0  0  0  0  0  0  0  0  0  0
  -30.3933   -2.1176  130.6015 C   0  0  0  0  0  0  0  0  0  0  0  0
  -29.0202   -1.4545  130.2473 C   0  0  0  0  0  0  0  0  0  0  0  0
  -29.6933   -1.8490  132.9039 C   0  0  0  0  0  0  0  0  0  0  0  0
  -30.6581   -1.7199  132.0132 C   0  0  0  0  0  0  0  0  0  0  0  0
  -30.0465   -4.7489  132.1888 C   0  0  0  0  0  0  0  0  0  0  0  0
  3  2  1  0
  5  3  1  0
  6  5  1  0
  8  1  1  0
  8  2  1  0
 10  5  1  0
 10  9  1  0
 11  3  1  0
 11  5  1  0
 11  9  1  0
 12  7  1  0
 13  4  1  0
 14  1  1  0
 14  2  1  0
 14  4  1  0
 14  7  1  0
 15  4  1  0
 16 12  1  0
 17 16  1  0
 19 13  1  0
 19 15  1  0
 19 18  1  0
 20 17  1  0
 21 17  1  0
 21 18  1  0
 21 20  1  0
 22 19  1  0
 23 16  1  0
 24 22  1  0
 25 23  1  0
 26 13  1  0
 26 22  1  0
 27 25  1  0
 28 27  1  0
 30 27  1  0
 30 29  2  0
 31 12  1  0
 31 23  1  0
M  END
$$$$

     RDKit          3D

 31 34  0  0  0  0  0  0  0  0999 V2000
  -20.6458  -28.4395  124.8323 N   0  0  0  0  0  0  0  0  0  0  0  0
  -20.7762  -27.1159  123.6598 C   0  0  0  0  0  0  0  0  0  0  0  0
  -21.9619  -26.7031  124.1557 O   0  0  0  0  0  0  0  0  0  0  0  0
  -21.7093  -29.1760  125.6836 C   0  0  0  0  0  0  0  0  0  0  0  0
  -21.1176  -28.5034  128.7924 C   0  0  0  0  0  0  0  0  0  0  0  0
  -21.7382  -27.1272  121.2282 C   0  0  0  0  0  0  0  0  0  0  0  0
  -22.6251  -28.2934  121.4536 O   0  0  0  0  0  0  0  0  0  0  0  0
  -20.2262  -29.6776  129.7254 C   0  0  0  0  0  0  0  0  0  0  0  0
  -19.3977  -26.3339  124.9399 C   0  0  0  0  0  0  0  0  0  0  0  0
  -21.8593  -26.8012  130.9696 C   0  0  0  0  0  0  0  0  0  0  0  0
  -20.7716  -28.6680  126.6176 C   0  0  0  0  0  0  0  0  0  0  0  0
  -20.5513  -25.6234  128.7818 C   0  0  0  0  0  0  0  0  0  0  0  0
  -19.2709  -25.2920  126.5473 C   0  0  0  0  0  0  0  0  0  0  0  0
  -24.3463  -25.5086  133.1704 C   0  0  0  0  0  0  0  0  0  0  0  0
  -17.7517  -26.2603  125.6687 C   0  0  0  0  0  0  0  0  0  0  0  0
  -26.3587  -24.2268  135.3320 C   0  0  0  0  0  0  0  0  0  0  0  0
  -22.5046  -27.1452  118.7258 C   0  0  0  0  0  0  0  0  0  0  0  0
  -15.9828  -26.3172  125.6874 C   0  0  0  0  0  0  0  0  0  0  0  0
  -27.7481  -23.5961  136.7711 N   0  0  0  0  0  0  0  0  0  0  0  0
  -29.2691  -22.4927  138.5198 C   0  0  0  0  0  0  0  0  0  0  0  0
  -30.9784  -23.1054  140.8563 C   0  0  0  0  0  0  0  0  0  0  0  0
  -33.6408  -22.9993  144.4854 C   0  0  0  0  0  0  0  0  0  0  0  0
  -34.0429  -21.9968  146.5847 C   0  0  0  0  0  0  0  0  0  0  0  0
  -32.6471  -24.4027  143.0269 C   0  0  0  0  0  0  0  0  0  0  0  0
  -23.0690  -27.4182  116.3032 C   0  0  0  0  0  0  0  0  0  0  0  0
  -35.7730  -20.2412  148.4730 C   0  0  0  0  0  0  0  0  0  0  0  0
  -16.5772  -25.7926  124.4479 C   0  0  0  0  0  0  0  0  0  0  0  0
  -34.9470  -20.0636  147.1886 C   0  0  0  0  0  0  0  0  0  0  0  0
  -34.5881  -20.3316  151.0301 N   0  0  0  0  0  0  0  0  0  0  0  0
  -35.5257  -19.5330  146.0088 O   0  0  0  0  0  0  0  0  0  0  0  0
  -34.9290  -20.9075  149.6168 C   0  0  0  0  0  0  0  0  0  0  0  0
  2  1  1  0
  3  2  1  0
  4  1  1  0
  6  2  1  0
  7  6  1  0
  8  5  1  0
  9  2  1  0
 10  8  1  0
 11  1  1  0
 11  4  1  0
 11  5  1  0
 12 10  1  0
 13  9  1  0
 13 12  1  0
 14 10  1  0
 15  9  1  0
 15 13  1  0
 16 14  1  0
 17  6  1  0
 18 15  1  0
 19 16  2  3
 20 19  1  0
 21 20  1  0
 23 22  1  0
 24 21  1  0
 24 22  1  0
 25 17  1  0
 27 15  1  0
 27 18  1  0
 28 23  1  0
 28 26  1  0
 30 28  1  0
 31 26  1  0
 31 29  1  0
M  END
$$$$

     RDKit          3D

 11 11  0  0  0  0  0  0  0  0999 V2000
  -23.3293  -12.8148  147.4213 O   0  0  0  0  0  0  0  0  0  0  0  0
  -24.4372  -12.7541  146.5637 C   0  0  0  0  0  0  0  0  0  0  0  0
  -24.0632  -13.3741  145.2428 C   0  0  0  0  0  0  0  0  0  0  0  0
  -24.5077  -12.9584  144.0413 C   0  0  0  0  0  0  0  0  0  0  0  0
  -26.4612  -14.1408  147.6284 C   0  0  0  0  0  0  0  0  0  0  0  0
  -25.5490  -13.5149  147.1489 C   0  0  0  0  0  0  0  0  0  0  0  0
  -25.3948  -11.7618  143.8137 C   0  0  0  0  0  0  0  0  0  0  0  0
  -26.8216  -12.0237  144.3175 C   0  0  0  0  0  0  0  0  0  0  0  0
  -27.3718  -11.0237  145.3263 C   0  0  0  0  0  0  0  0  0  0  0  0
  -27.8244  -10.9589  143.8800 C   0  0  0  0  0  0  0  0  0  0  0  0
  -28.3549  -11.5576  146.1647 O   0  0  0  0  0  0  0  0  0  0  0  0
  2  1  1  0
  3  2  1  0
  4  3  2  3
  6  2  1  0
  6  5  3  0
  7  4  1  0
  8  7  1  0
  9  8  1  0
 10  8  1  0
 10  9  1  0
 11  9  1  0
M  END
$$$$

     RDKit          3D

 31 37  0  0  0  0  0  0  0  0999 V2000
  -19.0792   -3.0628  145.9528 N   0  0  0  0  0  0  0  0  0  0  0  0
  -17.6676   -3.4610  146.0440 C   0  0  0  0  0  0  0  0  0  0  0  0
  -17.1763   -4.3660  147.1833 C   0  0  0  0  0  0  0  0  0  0  0  0
  -15.6453   -4.6582  147.1428 C   0  0  0  0  0  0  0  0  0  0  0  0
  -20.1437   -3.3150  146.9330 C   0  0  0  0  0  0  0  0  0  0  0  0
  -18.0518   -2.1153  146.4925 C   0  0  0  0  0  0  0  0  0  0  0  0
  -14.8012   -3.7365  146.2458 C   0  0  0  0  0  0  0  0  0  0  0  0
  -15.3687   -2.3080  146.2189 C   0  0  0  0  0  0  0  0  0  0  0  0
  -16.7900   -2.3037  145.6452 C   0  0  0  0  0  0  0  0  0  0  0  0
  -21.5059   -3.0211  146.1923 C   0  0  0  0  0  0  0  0  0  0  0  0
  -20.2182   -4.6471  147.7225 C   0  0  0  0  0  0  0  0  0  0  0  0
  -22.8802   -3.7147  146.4920 C   0  0  0  0  0  0  0  0  0  0  0  0
  -19.1240   -5.0485  148.7366 C   0  0  0  0  0  0  0  0  0  0  0  0
  -23.9540   -2.6557  146.8657 C   0  0  0  0  0  0  0  0  0  0  0  0
  -21.0120   -2.0948  147.2864 C   0  0  0  0  0  0  0  0  0  0  0  0
  -24.2267   -2.5007  148.3725 C   0  0  0  0  0  0  0  0  0  0  0  0
  -17.7687   -4.3249  148.6395 C   0  0  0  0  0  0  0  0  0  0  0  0
  -24.4542   -1.0776  148.9477 C   0  0  0  0  0  0  0  0  0  0  0  0
  -21.4412   -2.3859  144.7754 C   0  0  0  0  0  0  0  0  0  0  0  0
  -17.6169   -3.1169  149.6626 C   0  0  0  0  0  0  0  0  0  0  0  0
  -25.3603   -0.0822  148.2049 C   0  0  0  0  0  0  0  0  0  0  0  0
  -25.2593   -3.1771  147.4613 C   0  0  0  0  0  0  0  0  0  0  0  0
  -14.6070   -4.2355  144.8006 C   0  0  0  0  0  0  0  0  0  0  0  0
  -16.2884   -2.3499  149.6606 C   0  0  0  0  0  0  0  0  0  0  0  0
  -24.7588    0.5309  146.8398 B   0  0  0  0  0  0  0  0  0  0  0  0
  -18.8533   -2.2071  149.9534 C   0  0  0  0  0  0  0  0  0  0  0  0
  -25.7688    1.1327  145.7638 C   0  0  0  0  0  0  0  0  0  0  0  0
  -25.3124    2.4512  145.1433 C   0  0  0  0  0  0  0  0  0  0  0  0
  -25.6716    0.4601  144.3917 C   0  0  0  0  0  0  0  0  0  0  0  0
  -18.7380   -0.7395  149.5780 C   0  0  0  0  0  0  0  0  0  0  0  0
  -25.2880    1.7969  143.7715 C   0  0  0  0  0  0  0  0  0  0  0  0
  2  1  1  0
  3  2  1  0
  4  3  1  0
  5  1  1  0
  6  1  1  0
  6  2  1  0
  7  4  1  0
  8  7  1  0
  9  2  1  0
  9  6  1  0
  9  8  1  0
 10  5  1  0
 11  5  1  0
 12 10  1  0
 13 11  1  0
 14 12  1  0
 15  5  1  0
 15 10  1  0
 16 14  1  0
 17  3  1  0
 17 13  1  0
 18 16  1  0
 19 10  1  0
 20 17  1  0
 21 18  1  0
 22 14  1  0
 22 16  1  0
 23  7  1  0
 24 20  1  0
 25 21  1  0
 26 20  1  0
 27 25  1  0
 28 27  1  0
 29 27  1  0
 30 26  1  0
 31 28  1  0
 31 29  1  0
M  END
$$$$

     RDKit          3D

 31 36  0  0  0  0  0  0  0  0999 V2000
  -17.7211   -4.5230  141.5462 O   0  0  0  0  0  0  0  0  0  0  0  0
  -16.5410   -5.1753  141.9500 C   0  0  0  0  0  0  0  0  0  0  0  0
  -15.7554   -4.3515  142.7737 O   0  0  0  0  0  0  0  0  0  0  0  0
  -16.7869   -6.5578  142.6104 C   0  0  0  0  0  0  0  0  0  0  0  0
  -17.7369   -7.4777  141.8391 C   0  0  0  0  0  0  0  0  0  0  0  0
  -18.6746   -7.5184  143.0488 C   0  0  0  0  0  0  0  0  0  0  0  0
  -19.9645   -6.8801  142.7567 N   0  0  0  0  0  0  0  0  0  0  0  0
  -20.7956   -7.7067  141.9653 N   0  0  0  0  0  0  0  0  0  0  0  0
  -21.3450   -8.9690  142.5726 C   0  0  0  0  0  0  0  0  0  0  0  0
  -21.8112   -6.8822  141.2809 C   0  0  0  0  0  0  0  0  0  0  0  0
  -20.5697  -10.1812  142.0020 C   0  0  0  0  0  0  0  0  0  0  0  0
  -20.9866  -10.5069  140.5538 C   0  0  0  0  0  0  0  0  0  0  0  0
  -21.5632   -9.1657  144.1133 C   0  0  0  0  0  0  0  0  0  0  0  0
  -21.0320   -8.4107  145.3243 C   0  0  0  0  0  0  0  0  0  0  0  0
  -21.1468   -5.8867  140.3312 C   0  0  0  0  0  0  0  0  0  0  0  0
  -22.4045   -8.0741  144.7589 C   0  0  0  0  0  0  0  0  0  0  0  0
  -17.7308   -6.5907  143.8140 C   0  0  0  0  0  0  0  0  0  0  0  0
  -20.4838  -11.8909  140.0791 C   0  0  0  0  0  0  0  0  0  0  0  0
  -21.6127  -12.7986  139.5102 C   0  0  0  0  0  0  0  0  0  0  0  0
  -22.3625  -12.2535  138.2568 C   0  0  0  0  0  0  0  0  0  0  0  0
  -22.2597  -13.9013  140.3728 C   0  0  0  0  0  0  0  0  0  0  0  0
  -23.9017  -12.3576  138.3111 C   0  0  0  0  0  0  0  0  0  0  0  0
  -24.5280  -11.2744  139.2073 C   0  0  0  0  0  0  0  0  0  0  0  0
  -26.0439   -9.8751  138.5698 C   0  0  0  0  0  0  0  0  0  0  0  0
  -26.0587  -11.2771  139.1694 C   0  0  0  0  0  0  0  0  0  0  0  0
  -21.9052  -13.9827  141.8815 C   0  0  0  0  0  0  0  0  0  0  0  0
  -24.5221   -9.8749  138.5833 C   0  0  0  0  0  0  0  0  0  0  0  0
  -20.6894  -14.8370  142.2850 C   0  0  0  0  0  0  0  0  0  0  0  0
  -22.2599  -15.2615  139.6969 C   0  0  0  0  0  0  0  0  0  0  0  0
  -21.5708  -15.1900  138.3492 C   0  0  0  0  0  0  0  0  0  0  0  0
  -21.1166  -14.2585  139.4481 C   0  0  0  0  0  0  0  0  0  0  0  0
  2  1  1  0
  3  2  1  0
  4  2  1  0
  5  4  1  0
  6  5  1  0
  7  6  1  0
  8  7  1  0
  9  8  1  0
 10  8  1  0
 11  9  1  0
 12 11  1  0
 13  9  1  0
 14 13  1  0
 15 10  1  0
 16 13  1  0
 16 14  1  0
 17  4  1  0
 17  6  1  0
 18 12  1  0
 19 18  1  0
 20 19  1  0
 21 19  1  0
 22 20  1  0
 23 22  1  0
 25 23  1  0
 25 24  1  0
 26 21  1  0
 27 23  1  0
 27 24  1  0
 28 26  1  0
 29 21  1  0
 30 29  1  0
 31 19  1  0
 31 21  1  0
 31 29  1  0
 31 30  1  0
M  END
$$$$

     RDKit          3D

 31 38  0  0  0  0  0  0  0  0999 V2000
  -28.6218  -11.3015  148.9198 C   0  0  0  0  0  0  0  0  0  0  0  0
  -27.2604  -11.3101  148.2116 C   0  0  0  0  0  0  0  0  0  0  0  0
  -26.1088  -11.7081  149.1697 C   0  0  0  0  0  0  0  0  0  0  0  0
  -25.6615  -13.2054  149.2058 C   0  0  0  0  0  0  0  0  0  0  0  0
  -24.4973  -13.2924  150.2388 C   0  0  0  0  0  0  0  0  0  0  0  0
  -28.3582  -12.2907  147.8125 C   0  0  0  0  0  0  0  0  0  0  0  0
  -24.8824  -10.7181  149.0164 C   0  0  0  0  0  0  0  0  0  0  0  0
  -24.6498  -13.4305  148.1113 C   0  0  0  0  0  0  0  0  0  0  0  0
  -23.5887  -12.8352  149.0866 C   0  0  0  0  0  0  0  0  0  0  0  0
  -23.7652  -10.5211  148.0378 C   0  0  0  0  0  0  0  0  0  0  0  0
  -23.3117  -11.2974  146.8872 N   0  0  0  0  0  0  0  0  0  0  0  0
  -23.5425  -11.3414  149.2512 N   0  0  0  0  0  0  0  0  0  0  0  0
  -22.5360  -13.1377  144.6459 C   0  0  0  0  0  0  0  0  0  0  0  0
  -22.0732  -13.5589  143.5208 N   0  0  0  0  0  0  0  0  0  0  0  0
  -23.7470  -12.1933  144.6388 C   0  0  0  0  0  0  0  0  0  0  0  0
  -24.3583  -11.8141  146.0292 C   0  0  0  0  0  0  0  0  0  0  0  0
  -25.0430  -13.0282  146.6621 C   0  0  0  0  0  0  0  0  0  0  0  0
  -21.8783  -13.6051  145.9283 C   0  0  0  0  0  0  0  0  0  0  0  0
  -20.7393  -12.6914  146.3721 C   0  0  0  0  0  0  0  0  0  0  0  0
  -20.4282  -14.1118  145.9025 C   0  0  0  0  0  0  0  0  0  0  0  0
  -20.0968  -15.1200  147.0267 C   0  0  0  0  0  0  0  0  0  0  0  0
  -18.6744  -15.3729  147.4151 C   0  0  0  0  0  0  0  0  0  0  0  0
  -20.9740  -16.9785  149.0612 As  0  0  0  0  0  3  0  0  0  0  0  0
  -17.5364  -14.5195  146.8478 C   0  0  0  0  0  0  0  0  0  0  0  0
  -19.5312  -14.5556  148.1897 O   0  0  0  0  0  0  0  0  0  0  0  0
  -21.0989  -16.1627  147.3175 N   0  0  0  0  0  0  0  0  0  0  0  0
  -21.9511  -15.5998  150.0314 C   0  0  0  0  0  0  0  0  0  0  0  0
  -23.4417  -15.7981  150.2515 C   0  0  0  0  0  0  0  0  0  0  0  0
  -21.2777  -14.6359  150.5537 N   0  0  0  0  0  0  0  0  0  0  0  0
  -24.2395  -14.6688  150.9700 C   0  0  0  0  0  0  0  0  0  0  0  0
  -25.5652  -15.2346  151.5036 C   0  0  0  0  0  0  0  0  0  0  0  0
  2  1  1  0
  3  2  1  0
  4  3  1  0
  5  4  1  0
  6  1  1  0
  6  2  1  0
  7  3  1  0
  8  4  1  0
  9  5  1  0
  9  8  1  0
 10  7  1  0
 11 10  1  0
 12  7  1  0
 12  9  1  0
 12 10  1  0
 14 13  2  0
 15 13  1  0
 16 11  1  0
 16 15  1  0
 17  8  1  0
 17 16  1  0
 18 13  1  0
 19 18  1  0
 20 18  1  0
 20 19  1  0
 21 20  1  0
 22 21  1  0
 24 22  1  0
 25 21  1  0
 25 22  1  0
 26 21  1  0
 26 23  1  0
 27 23  1  0
 28 27  1  0
 29 27  2  0
 30  5  1  0
 30 28  1  0
 31 30  1  0
M  END
$$$$

     RDKit          3D

 30 35  0  0  0  0  0  0  0  0999 V2000
  -31.0409   -0.6579  141.8102 O   0  0  0  0  0  0  0  0  0  0  0  0
  -30.5615    0.1073  140.9315 C   0  0  0  0  0  0  0  0  0  0  0  0
  -31.2309    0.1989  139.6641 N   0  0  0  0  0  0  0  0  0  0  0  0
  -29.3627    0.9974  141.2545 C   0  0  0  0  0  0  0  0  0  0  0  0
  -30.8806    0.5347  138.2725 C   0  0  0  0  0  0  0  0  0  0  0  0
  -29.0744    1.4483  142.6625 C   0  0  0  0  0  0  0  0  0  0  0  0
  -27.9890    0.7682  140.7104 C   0  0  0  0  0  0  0  0  0  0  0  0
  -26.6682    1.1849  140.0864 C   0  0  0  0  0  0  0  0  0  0  0  0
  -29.8079    0.6829  137.6222 O   0  0  0  0  0  0  0  0  0  0  0  0
  -32.3339    0.6535  137.9465 C   0  0  0  0  0  0  0  0  0  0  0  0
  -32.6278    0.2437  139.2817 C   0  0  0  0  0  0  0  0  0  0  0  0
  -28.3053    0.7193  144.9614 C   0  0  0  0  0  0  0  0  0  0  0  0
  -25.6155    1.5447  141.1416 C   0  0  0  0  0  0  0  0  0  0  0  0
  -26.5668   -0.2406  139.5328 C   0  0  0  0  0  0  0  0  0  0  0  0
  -25.3694   -0.8929  139.8747 O   0  0  0  0  0  0  0  0  0  0  0  0
  -26.8232    0.4772  145.2681 C   0  0  0  0  0  0  0  0  0  0  0  0
  -28.7640    0.2137  143.5663 C   0  0  0  0  0  0  0  0  0  0  0  0
  -26.5760   -0.9449  145.8041 C   0  0  0  0  0  0  0  0  0  0  0  0
  -27.8501   -0.8604  143.0332 N   0  0  0  0  0  0  0  0  0  0  0  0
  -26.6721   -2.0320  144.7370 C   0  0  0  0  0  0  0  0  0  0  0  0
  -25.4115   -2.8291  144.3939 C   0  0  0  0  0  0  0  0  0  0  0  0
  -28.2188   -3.2283  143.1585 C   0  0  0  0  0  0  0  0  0  0  0  0
  -27.5599   -1.4457  141.6822 C   0  0  0  0  0  0  0  0  0  0  0  0
  -27.7151   -2.0116  143.8721 C   0  0  0  0  0  0  0  0  0  0  0  0
  -25.6103   -4.5038  146.3702 C   0  0  0  0  0  0  0  0  0  0  0  0
  -28.9256    1.6387  140.1079 O   0  0  0  0  0  0  0  0  0  0  0  0
  -25.9246   -5.7749  145.5869 C   0  0  0  0  0  0  0  0  0  0  0  0
  -27.8273   -0.6594  140.3422 C   0  0  0  0  0  0  0  0  0  0  0  0
  -24.7167   -3.5135  145.5875 C   0  0  0  0  0  0  0  0  0  0  0  0
  -28.2294   -2.8144  141.6888 C   0  0  0  0  0  0  0  0  0  0  0  0
  2  1  2  0
  3  2  1  0
  4  2  1  0
  5  3  1  0
  6  4  1  0
  7  4  1  0
  8  7  1  0
  9  5  2  0
 10  5  1  0
 11  3  1  0
 11 10  1  0
 13  8  1  0
 14  8  1  0
 15 14  1  0
 16 12  1  0
 17  6  1  0
 17 12  1  0
 18 16  1  0
 19 17  1  0
 20 18  1  0
 21 20  1  0
 23 19  1  0
 24 19  1  0
 24 20  2  0
 24 22  1  0
 26  4  1  0
 26  7  1  0
 27 25  1  0
 28  7  1  0
 28 14  1  0
 28 23  1  0
 29 21  1  0
 29 25  1  0
 30 22  1  0
 30 23  1  0
M  END
$$$$

     RDKit          3D

 30 33  0  0  0  0  0  0  0  0999 V2000
  -21.2261  -12.5498  158.4638 O   0  0  0  0  0  0  0  0  0  0  0  0
  -21.7418  -13.7914  158.4390 C   0  0  0  0  0  0  0  0  0  0  0  0
  -23.1918  -13.8195  158.1621 C   0  0  0  0  0  0  0  0  0  0  0  0
  -21.1301  -14.1498  157.0718 C   0  0  0  0  0  0  0  0  0  0  0  0
  -23.7794  -14.9020  157.5105 C   0  0  0  0  0  0  0  0  0  0  0  0
  -23.1816  -16.2847  157.1961 C   0  0  0  0  0  0  0  0  0  0  0  0
  -22.1334  -16.3399  158.4617 C   0  0  0  0  0  0  0  0  0  0  0  0
  -19.8732  -13.5065  156.6430 C   0  0  0  0  0  0  0  0  0  0  0  0
  -21.0244  -15.1626  158.2423 C   0  0  0  0  0  0  0  0  0  0  0  0
  -24.2306  -17.2508  156.5095 C   0  0  0  0  0  0  0  0  0  0  0  0
  -24.7265  -16.7458  154.9732 C   0  0  0  0  0  0  0  0  0  0  0  0
  -18.6951  -15.2083  155.5747 C   0  0  0  0  0  0  0  0  0  0  0  0
  -26.3003  -16.5933  154.8017 C   0  0  0  0  0  0  0  0  0  0  0  0
  -27.0300  -15.1878  154.8585 C   0  0  0  0  0  0  0  0  0  0  0  0
  -27.3829  -14.2183  156.0983 C   0  0  0  0  0  0  0  0  0  0  0  0
  -27.5632  -15.1381  157.3618 C   0  0  0  0  0  0  0  0  0  0  0  0
  -20.9074  -12.5481  157.0882 C   0  0  0  0  0  0  0  0  0  0  0  0
  -26.1833  -11.7097  156.8425 C   0  0  0  0  0  0  0  0  0  0  0  0
  -26.7334  -11.5375  158.3012 C   0  0  0  0  0  0  0  0  0  0  0  0
  -26.2725  -13.0740  156.1514 C   0  0  0  0  0  0  0  0  0  0  0  0
  -19.6260  -14.0033  155.2335 C   0  0  0  0  0  0  0  0  0  0  0  0
  -21.4467  -17.6300  158.8922 C   0  0  0  0  0  0  0  0  0  0  0  0
  -19.2219  -16.6039  155.1940 C   0  0  0  0  0  0  0  0  0  0  0  0
  -27.5055  -14.8230  158.9168 C   0  0  0  0  0  0  0  0  0  0  0  0
  -20.9554  -14.1081  154.3829 C   0  0  0  0  0  0  0  0  0  0  0  0
  -20.8647  -13.9496  152.8594 C   0  0  0  0  0  0  0  0  0  0  0  0
  -26.9079  -16.0055  159.7197 C   0  0  0  0  0  0  0  0  0  0  0  0
  -20.9952  -15.2317  151.9423 C   0  0  0  0  0  0  0  0  0  0  0  0
  -22.2872  -15.8291  152.0069 N   0  0  0  0  0  0  0  0  0  0  0  0
  -25.7607  -15.4357  160.6163 C   0  0  0  0  0  0  0  0  0  0  0  0
  2  1  1  0
  3  2  1  0
  4  2  1  0
  5  3  2  0
  6  5  1  0
  7  6  1  0
  8  4  1  0
  9  2  1  0
  9  4  1  0
  9  7  1  0
 10  6  1  0
 11 10  1  0
 13 11  1  0
 14 13  1  0
 15 14  1  0
 16 15  1  0
 17  1  1  0
 17  4  1  0
 17  8  1  0
 19 18  1  0
 20 15  1  0
 20 18  1  0
 21  8  1  0
 21 12  1  0
 22  7  1  0
 23 12  1  0
 24 16  1  0
 25 21  1  0
 26 25  1  0
 27 24  1  0
 28 26  1  0
 29 28  1  0
 30 27  1  0
M  END
$$$$

     RDKit          3D

 31 31  0  0  0  0  0  0  0  0999 V2000
  -22.5668  -29.9206  135.4588 O   0  0  0  0  0  0  0  0  0  0  0  0
  -22.1323  -30.4578  137.5744 C   0  0  0  0  0  0  0  0  0  0  0  0
  -22.4102  -30.9823  136.2828 O   0  0  0  0  0  0  0  0  0  0  0  0
  -20.4910  -29.4482  139.1133 C   0  0  0  0  0  0  0  0  0  0  0  0
  -19.2955  -28.5828  139.1670 N   0  0  0  0  0  0  0  0  0  0  0  0
  -20.7737  -29.8180  137.6398 C   0  0  0  0  0  0  0  0  0  0  0  0
  -19.6764  -30.5790  136.9852 O   0  0  0  0  0  0  0  0  0  0  0  0
  -19.6783  -27.1241  139.5119 C   0  0  0  0  0  0  0  0  0  0  0  0
  -21.8713  -25.9271  137.7337 C   0  0  0  0  0  0  0  0  0  0  0  0
  -23.1378  -25.0525  138.1032 C   0  0  0  0  0  0  0  0  0  0  0  0
  -23.8660  -23.8746  137.3169 C   0  0  0  0  0  0  0  0  0  0  0  0
  -25.4893  -23.8837  136.9416 C   0  0  0  0  0  0  0  0  0  0  0  0
  -27.1507  -23.8797  137.4814 C   0  0  0  0  0  0  0  0  0  0  0  0
  -20.9594  -26.2708  139.0738 C   0  0  0  0  0  0  0  0  0  0  0  0
  -24.8053  -23.2548  138.2228 C   0  0  0  0  0  0  0  0  0  0  0  0
  -27.5275  -24.3954  139.0627 C   0  0  0  0  0  0  0  0  0  0  0  0
  -28.7310  -23.7201  140.1744 C   0  0  0  0  0  0  0  0  0  0  0  0
  -29.5832  -26.5891  140.5714 C   0  0  0  0  0  0  0  0  0  0  0  0
  -30.7224  -24.5984  142.2515 C   0  0  0  0  0  0  0  0  0  0  0  0
  -30.1177  -23.9865  143.5990 C   0  0  0  0  0  0  0  0  0  0  0  0
  -28.1350  -22.6557  137.2733 C   0  0  0  0  0  0  0  0  0  0  0  0
  -30.5369  -22.4434  143.9205 C   0  0  0  0  0  0  0  0  0  0  0  0
  -30.6033  -22.0157  145.5028 C   0  0  0  0  0  0  0  0  0  0  0  0
  -27.9541  -21.3372  137.1379 C   0  0  0  0  0  0  0  0  0  0  0  0
  -30.5163  -22.1546  147.4926 C   0  0  0  0  0  0  0  0  0  0  0  0
  -29.9038  -23.0090  139.5248 C   0  0  0  0  0  0  0  0  0  0  0  0
  -30.5499  -23.4225  138.4017 C   0  0  0  0  0  0  0  0  0  0  0  0
  -28.1244  -22.6862  141.2873 C   0  0  0  0  0  0  0  0  0  0  0  0
  -29.5825  -25.1117  141.0547 C   0  0  0  0  0  0  0  0  0  0  0  0
  -28.5565  -20.6157  136.0003 C   0  0  0  0  0  0  0  0  0  0  0  0
  -27.5884  -19.8243  135.4769 C   0  0  0  0  0  0  0  0  0  0  0  0
  3  1  1  0
  3  2  1  0
  5  4  1  0
  6  2  1  0
  6  4  1  0
  7  6  1  0
  8  5  1  0
 10  9  1  0
 11 10  1  0
 12 11  1  0
 13 12  1  0
 14  8  1  0
 14  9  1  0
 15 11  1  0
 15 12  1  0
 16 13  1  0
 17 16  1  0
 20 19  1  0
 21 13  1  0
 22 20  1  0
 23 22  2  3
 24 21  2  3
 25 23  1  0
 26 17  1  0
 27 26  2  0
 28 17  1  0
 29 17  1  0
 29 18  2  0
 29 19  1  0
 30 24  1  0
 31 30  2  0
M  END
$$$$

     RDKit          3D

 30 32  0  0  0  0  0  0  0  0999 V2000
  -17.5127  -11.6590  141.3170 O   0  0  0  0  0  0  0  0  0  0  0  0
  -18.7903  -10.0322  142.6796 C   0  0  0  0  0  0  0  0  0  0  0  0
  -20.2909   -8.8021  141.1569 O   0  0  0  0  0  0  0  0  0  0  0  0
  -15.9288   -8.9764  142.9849 C   0  0  0  0  0  0  0  0  0  0  0  0
  -17.7314  -10.2826  141.4936 C   0  0  0  0  0  0  0  0  0  0  0  0
  -16.2742   -9.6776  141.6742 C   0  0  0  0  0  0  0  0  0  0  0  0
  -21.4839  -10.0753  142.7948 C   0  0  0  0  0  0  0  0  0  0  0  0
  -15.9755   -8.7963  140.6220 O   0  0  0  0  0  0  0  0  0  0  0  0
  -21.5635  -10.9225  144.1178 C   0  0  0  0  0  0  0  0  0  0  0  0
  -21.4975  -12.4014  143.5496 C   0  0  0  0  0  0  0  0  0  0  0  0
  -14.9977   -9.3340  139.8975 O   0  0  0  0  0  0  0  0  0  0  0  0
  -22.3675  -14.3135  143.0225 C   0  0  0  0  0  0  0  0  0  0  0  0
  -21.8596  -14.0939  141.6022 C   0  0  0  0  0  0  0  0  0  0  0  0
  -20.3466  -14.0283  141.2452 C   0  0  0  0  0  0  0  0  0  0  0  0
  -20.1844   -9.2471  142.4900 C   0  0  0  0  0  0  0  0  0  0  0  0
  -22.5153  -13.7960  145.6051 C   0  0  0  0  0  0  0  0  0  0  0  0
  -15.7290   -9.9533  144.1611 C   0  0  0  0  0  0  0  0  0  0  0  0
  -23.3023  -15.1270  145.8537 C   0  0  0  0  0  0  0  0  0  0  0  0
  -22.3798  -12.8862  142.3866 C   0  0  0  0  0  0  0  0  0  0  0  0
  -22.4802   -9.6819  143.8872 C   0  0  0  0  0  0  0  0  0  0  0  0
  -13.7398   -8.8148  140.3413 C   0  0  0  0  0  0  0  0  0  0  0  0
  -21.6309  -13.7530  144.2913 C   0  0  0  0  0  0  0  0  0  0  0  0
  -18.4244  -14.6139  142.9413 C   0  0  0  0  0  0  0  0  0  0  0  0
  -19.4659  -15.1374  141.8777 C   0  0  0  0  0  0  0  0  0  0  0  0
  -24.0239   -9.8755  143.6059 C   0  0  0  0  0  0  0  0  0  0  0  0
  -26.1070  -11.3538  144.1432 C   0  0  0  0  0  0  0  0  0  0  0  0
  -26.8098  -12.3288  145.1455 C   0  0  0  0  0  0  0  0  0  0  0  0
  -28.2895  -11.9846  145.4678 C   0  0  0  0  0  0  0  0  0  0  0  0
  -24.8605  -10.5955  144.7160 C   0  0  0  0  0  0  0  0  0  0  0  0
  -28.4642  -10.9421  146.6016 C   0  0  0  0  0  0  0  0  0  0  0  0
  5  1  1  0
  5  2  1  0
  6  4  1  0
  6  5  1  0
  8  6  1  0
  9  7  1  0
 10  9  1  0
 11  8  1  0
 13 12  1  0
 14 13  1  0
 15  2  1  0
 15  3  1  0
 15  7  1  0
 17  4  1  0
 18 16  1  0
 19 10  1  0
 19 12  1  0
 19 13  1  0
 20  7  1  0
 20  9  1  0
 21 11  1  0
 22 10  1  0
 22 12  1  0
 22 16  1  0
 24 14  1  0
 24 23  1  0
 25 20  1  0
 27 26  1  0
 28 27  1  0
 29 25  1  0
 29 26  1  0
 30 28  1  0
M  END
$$$$

     RDKit          3D

 30 37  0  0  0  0  0  0  0  0999 V2000
  -22.7066    1.9058  135.6119 O   0  0  0  0  0  0  0  0  0  0  0  0
  -19.0832    2.6419  132.3517 O   0  0  0  0  0  0  0  0  0  0  0  0
  -20.9622    1.9598  135.6578 C   0  0  0  0  0  0  0  0  0  0  0  0
  -20.3213    0.5282  135.4832 O   0  0  0  0  0  0  0  0  0  0  0  0
  -20.5492    3.1033  133.4802 C   0  0  0  0  0  0  0  0  0  0  0  0
  -22.4803    3.2278  132.7390 C   0  0  0  0  0  0  0  0  0  0  0  0
  -23.3122    3.1199  131.0973 C   0  0  0  0  0  0  0  0  0  0  0  0
  -23.0514    4.0154  129.2025 C   0  0  0  0  0  0  0  0  0  0  0  0
  -23.7948    3.1211  127.3326 C   0  0  0  0  0  0  0  0  0  0  0  0
  -23.3156    2.2365  131.3880 C   0  0  0  0  0  0  0  0  0  0  0  0
  -22.1941    4.7066  134.3813 C   0  0  0  0  0  0  0  0  0  0  0  0
  -20.2962    4.2235  130.6577 C   0  0  0  0  0  0  0  0  0  0  0  0
  -19.8190   -0.1802  134.3136 C   0  0  0  0  0  0  0  0  0  0  0  0
  -24.9474    2.7586  129.4012 C   0  0  0  0  0  0  0  0  0  0  0  0
  -23.1278    1.8095  129.4343 C   0  0  0  0  0  0  0  0  0  0  0  0
  -20.0635    5.8000  131.8894 C   0  0  0  0  0  0  0  0  0  0  0  0
  -22.6533    2.1200  132.9782 C   0  0  0  0  0  0  0  0  0  0  0  0
  -22.5222    5.5148  129.4723 C   0  0  0  0  0  0  0  0  0  0  0  0
  -22.4556    8.3452  129.6325 C   0  0  0  0  0  0  0  0  0  0  0  0
  -24.3503    3.2915  131.7222 C   0  0  0  0  0  0  0  0  0  0  0  0
  -22.9357    9.3306  130.2621 C   0  0  0  0  0  0  0  0  0  0  0  0
  -21.2560    4.4841  132.7091 C   0  0  0  0  0  0  0  0  0  0  0  0
  -21.7316    3.9828  130.3065 C   0  0  0  0  0  0  0  0  0  0  0  0
  -21.9891    7.6840  129.2648 C   0  0  0  0  0  0  0  0  0  0  0  0
  -23.9126    6.6072  128.7278 C   0  0  0  0  0  0  0  0  0  0  0  0
  -23.2661    8.3611  131.5596 C   0  0  0  0  0  0  0  0  0  0  0  0
  -21.3721    1.6417  128.5753 C   0  0  0  0  0  0  0  0  0  0  0  0
  -19.3902    2.1138  127.5159 C   0  0  0  0  0  0  0  0  0  0  0  0
  -18.4862    1.2774  128.8487 C   0  0  0  0  0  0  0  0  0  0  0  0
  -20.9625    5.0948  127.8184 C   0  0  0  0  0  0  0  0  0  0  0  0
  3  1  1  0
  4  3  1  0
  5  2  1  0
  5  3  1  0
  6  5  1  0
  7  6  1  0
  8  7  1  0
  9  8  1  0
 10  6  1  0
 13  4  1  0
 14  9  1  0
 15 10  1  0
 15 14  1  0
 16 12  1  0
 17 10  1  0
 17 11  1  0
 18  8  1  0
 20  6  1  0
 20 10  1  0
 20 14  1  0
 21 19  1  0
 22  5  1  0
 22 11  1  0
 22 12  1  0
 23  7  1  0
 23  8  1  0
 23 16  1  0
 23 18  1  0
 24 21  1  0
 25 18  1  0
 25 19  1  0
 26 19  1  0
 26 21  1  0
 27 15  1  0
 29 28  1  0
 30 24  1  0
 30 28  1  0
M  END
$$$$

     RDKit          3D

 29 33  0  0  0  0  0  0  0  0999 V2000
  -26.5732   -8.8921  137.1920 O   0  0  0  0  0  0  0  0  0  0  0  0
  -27.8300   -9.9417  138.7853 O   0  0  0  0  0  0  0  0  0  0  0  0
  -26.2582   -6.1170  137.7513 O   0  0  0  0  0  0  0  0  0  0  0  0
  -27.1570  -11.1202  138.7529 C   0  0  0  0  0  0  0  0  0  0  0  0
  -27.8130   -9.8832  140.1402 N   0  0  0  0  0  0  0  0  0  0  0  0
  -26.8503  -11.7672  137.4205 C   0  0  0  0  0  0  0  0  0  0  0  0
  -25.5379  -12.6424  137.6441 C   0  0  0  0  0  0  0  0  0  0  0  0
  -28.0219  -12.3003  138.3543 C   0  0  0  0  0  0  0  0  0  0  0  0
  -27.9645  -13.3801  139.3799 N   0  0  0  0  0  0  0  0  0  0  0  0
  -24.4914  -12.5407  136.6782 N   0  0  0  0  0  0  0  0  0  0  0  0
  -26.8137  -13.7831  140.1883 C   0  0  0  0  0  0  0  0  0  0  0  0
  -25.6801  -11.2999  138.3120 C   0  0  0  0  0  0  0  0  0  0  0  0
  -26.3365  -15.1595  139.9585 C   0  0  0  0  0  0  0  0  0  0  0  0
  -26.5880  -16.0309  141.1928 C   0  0  0  0  0  0  0  0  0  0  0  0
  -28.0691  -16.3463  141.4400 C   0  0  0  0  0  0  0  0  0  0  0  0
  -25.6975   -5.6774  137.5575 P   0  0  0  0  0  0  0  0  0  0  0  0
  -26.7573  -18.2851  140.5766 C   0  0  0  0  0  0  0  0  0  0  0  0
  -28.2160  -17.6892  140.5296 C   0  0  0  0  0  0  0  0  0  0  0  0
  -25.8601  -17.2406  141.0438 O   0  0  0  0  0  0  0  0  0  0  0  0
  -25.9592   -9.3150  137.0377 S   0  0  0  0  0  4  0  0  0  0  0  0
  -25.7861   -8.5370  136.2101 O   0  0  0  0  0  0  0  0  0  0  0  0
  -24.2671   -8.2301  139.2322 O   0  0  0  0  0  0  0  0  0  0  0  0
  -27.6865   -6.2358  139.6593 C   0  0  0  0  0  0  0  0  0  0  0  0
  -28.5800   -4.9626  139.7953 C   0  0  0  0  0  0  0  0  0  0  0  0
  -30.8062   -4.9808  137.8674 O   0  0  0  0  0  0  0  0  0  0  0  0
  -27.1862   -6.6503  138.3094 C   0  0  0  0  0  0  0  0  0  0  0  0
  -29.5809   -5.3191  138.4466 C   0  0  0  0  0  0  0  0  0  0  0  0
  -29.5982   -4.0620  139.2321 C   0  0  0  0  0  0  0  0  0  0  0  0
  -25.8441  -12.9793  140.6598 C   0  0  0  0  0  0  0  0  0  0  0  0
  4  2  1  0
  5  2  1  0
  6  4  1  0
  7  6  1  0
  8  4  1  0
  8  6  1  0
  9  8  1  0
 10  7  1  0
 11  9  1  0
 12  4  1  0
 12  6  1  0
 12  7  1  0
 13 11  1  0
 14 13  1  0
 15 14  1  0
 18 15  1  0
 18 17  1  0
 19 14  1  0
 19 17  1  0
 20  5  1  0
 20 16  1  0
 21  1  1  0
 21 20  1  0
 22 20  1  0
 24 23  1  0
 26  3  2  0
 26 16  1  0
 26 23  1  0
 27 24  1  0
 27 25  1  0
 28 24  1  0
 28 27  1  0
 29 11  2  0
M  END
$$$$

     RDKit          3D

 31 35  0  0  0  0  0  0  0  0999 V2000
  -36.0273  -20.8219  145.3217 C   0  0  0  0  0  0  0  0  0  0  0  0
  -38.2652  -19.2579  145.2040 C   0  0  0  0  0  0  0  0  0  0  0  0
  -34.5595  -20.5098  145.7924 C   0  0  0  0  0  0  0  0  0  0  0  0
  -38.4305  -15.2962  145.6571 C   0  0  0  0  0  0  0  0  0  0  0  0
  -37.9039  -17.7676  145.0854 C   0  0  0  0  0  0  0  0  0  0  0  0
  -36.8082  -17.4064  144.0945 C   0  0  0  0  0  0  0  0  0  0  0  0
  -34.1590  -19.3001  146.6729 C   0  0  0  0  0  0  0  0  0  0  0  0
  -32.8579  -18.9875  147.4931 C   0  0  0  0  0  0  0  0  0  0  0  0
  -35.4220  -17.0577  144.7060 C   0  0  0  0  0  0  0  0  0  0  0  0
  -32.2466  -19.9858  148.5078 C   0  0  0  0  0  0  0  0  0  0  0  0
  -34.3217  -18.1038  144.3177 C   0  0  0  0  0  0  0  0  0  0  0  0
  -33.8325  -19.3042  145.1927 C   0  0  0  0  0  0  0  0  0  0  0  0
  -37.3752  -20.1235  147.5643 C   0  0  0  0  0  0  0  0  0  0  0  0
  -38.2161  -22.5724  147.8936 C   0  0  0  0  0  0  0  0  0  0  0  0
  -38.2425  -21.1174  148.3808 C   0  0  0  0  0  0  0  0  0  0  0  0
  -37.3208  -20.2015  146.0201 C   0  0  0  0  0  0  0  0  0  0  0  0
  -33.1156  -17.6827  148.3913 C   0  0  0  0  0  0  0  0  0  0  0  0
  -35.2946  -16.3943  146.0930 C   0  0  0  0  0  0  0  0  0  0  0  0
  -31.4277  -21.1383  147.9414 C   0  0  0  0  0  0  0  0  0  0  0  0
  -38.6233  -16.8327  145.7341 C   0  0  0  0  0  0  0  0  0  0  0  0
  -35.9618  -16.6971  147.1861 C   0  0  0  0  0  0  0  0  0  0  0  0
  -32.9478  -16.1884  148.8862 C   0  0  0  0  0  0  0  0  0  0  0  0
  -32.7643  -18.1394  149.8297 C   0  0  0  0  0  0  0  0  0  0  0  0
  -31.6559  -19.1673  149.6731 C   0  0  0  0  0  0  0  0  0  0  0  0
  -32.2122  -17.7056  147.1079 C   0  0  0  0  0  0  0  0  0  0  0  0
  -33.4530  -16.2680  151.4452 C   0  0  0  0  0  0  0  0  0  0  0  0
  -30.7352  -17.6846  146.6434 C   0  0  0  0  0  0  0  0  0  0  0  0
  -34.9848  -16.5056  151.2983 C   0  0  0  0  0  0  0  0  0  0  0  0
  -32.5271  -16.6643  150.2829 C   0  0  0  0  0  0  0  0  0  0  0  0
  -31.0650  -16.3236  150.6025 C   0  0  0  0  0  0  0  0  0  0  0  0
  -29.5309  -18.3195  147.3309 C   0  0  0  0  0  0  0  0  0  0  0  0
  3  1  1  0
  5  2  1  0
  6  5  1  0
  7  3  1  0
  8  7  1  0
  9  6  1  0
 10  8  1  0
 11  9  1  0
 12  3  1  0
 12  7  1  0
 12 11  1  0
 15 13  1  0
 15 14  1  0
 16  1  1  0
 16  2  1  0
 16 13  1  0
 17  8  1  0
 18  9  1  0
 19 10  1  0
 20  4  1  0
 20  5  2  3
 21 18  2  0
 22 17  1  0
 23 17  1  0
 24 10  1  0
 24 23  1  0
 25  8  1  0
 25 17  1  0
 27 25  1  0
 28 26  1  0
 29 22  1  0
 29 23  1  0
 29 26  1  0
 30 29  1  0
 31 27  1  0
M  END
$$$$

     RDKit          3D

 11 13  0  0  0  0  0  0  0  0999 V2000
  -29.7988   -2.4196  141.0658 N   0  0  0  0  0  0  0  0  0  0  0  0
  -30.3459   -2.1119  139.7731 C   0  0  0  0  0  0  0  0  0  0  0  0
  -29.5122   -1.3756  141.7417 C   0  0  0  0  0  0  0  0  0  0  0  0
  -29.4447   -2.7114  138.6811 C   0  0  0  0  0  0  0  0  0  0  0  0
  -29.7839   -0.0950  141.0308 C   0  0  0  0  0  0  0  0  0  0  0  0
  -30.1618   -3.1140  137.3995 C   0  0  0  0  0  0  0  0  0  0  0  0
  -32.3812   -0.4389  141.3325 C   0  0  0  0  0  0  0  0  0  0  0  0
  -31.2129    0.2573  140.6190 C   0  0  0  0  0  0  0  0  0  0  0  0
  -30.3384   -0.5747  139.6834 C   0  0  0  0  0  0  0  0  0  0  0  0
  -29.6136   -4.1892  138.3294 C   0  0  0  0  0  0  0  0  0  0  0  0
  -31.0065   -5.2203  139.2203 Br  0  0  0  0  0  0  0  0  0  0  0  0
  2  1  1  0
  3  1  2  0
  4  2  1  0
  5  3  1  0
  6  4  1  0
  8  5  1  0
  8  7  1  0
  9  2  1  0
  9  5  1  0
  9  8  1  0
 10  4  1  0
 10  6  1  0
 11 10  1  0
M  END
$$$$

     RDKit          3D

 31 39  0  0  0  0  0  0  0  0999 V2000
  -29.5862   -5.5215  136.8047 O   0  0  0  0  0  0  0  0  0  0  0  0
  -28.5246   -4.5869  136.6192 C   0  0  0  0  0  0  0  0  0  0  0  0
  -28.3467   -4.1346  135.2122 N   0  0  0  0  0  0  0  0  0  0  0  0
  -28.0826   -5.0637  134.0695 C   0  0  0  0  0  0  0  0  0  0  0  0
  -28.8145   -6.3247  133.8877 N   0  0  0  0  0  0  0  0  0  0  0  0
  -30.0278   -5.7502  134.2809 N   0  0  0  0  0  0  0  0  0  0  0  0
  -27.1657   -5.1112  137.1632 C   0  0  0  0  0  0  0  0  0  0  0  0
  -25.9476   -6.9803  138.5676 C   0  0  0  0  0  0  0  0  0  0  0  0
  -26.5855   -4.1551  138.2301 C   0  0  0  0  0  0  0  0  0  0  0  0
  -26.8633   -8.1002  139.0993 C   0  0  0  0  0  0  0  0  0  0  0  0
  -28.1112   -7.2924  138.7120 C   0  0  0  0  0  0  0  0  0  0  0  0
  -29.4305   -4.4164  134.2748 C   0  0  0  0  0  0  0  0  0  0  0  0
  -28.4212   -7.3535  134.7768 N   0  0  0  0  0  0  0  0  0  0  0  0
  -25.8578   -2.7485  138.0904 C   0  0  0  0  0  0  0  0  0  0  0  0
  -26.7370   -5.1511  139.3579 C   0  0  0  0  0  0  0  0  0  0  0  0
  -25.2916   -1.7594  139.1559 C   0  0  0  0  0  0  0  0  0  0  0  0
  -23.7370   -1.6920  139.1661 C   0  0  0  0  0  0  0  0  0  0  0  0
  -25.0878   -4.0215  137.9639 C   0  0  0  0  0  0  0  0  0  0  0  0
  -23.8504   -4.8521  137.6661 C   0  0  0  0  0  0  0  0  0  0  0  0
  -27.0273   -2.4995  141.0086 C   0  0  0  0  0  0  0  0  0  0  0  0
  -24.4263   -4.8371  139.0911 C   0  0  0  0  0  0  0  0  0  0  0  0
  -22.9369   -2.7982  139.8740 C   0  0  0  0  0  0  0  0  0  0  0  0
  -21.1529   -3.2145  138.7202 Mg  0  0  0  0  0  2  0  0  0  0  0  0
  -25.4538   -5.8915  139.5603 C   0  0  0  0  0  0  0  0  0  0  0  0
  -30.5684   -5.0800  137.7319 C   0  0  0  0  0  0  0  0  0  0  0  0
  -30.0005   -4.6545  138.9216 F   0  0  0  0  0  0  0  0  0  0  0  0
  -23.6727   -4.0935  140.2121 C   0  0  0  0  0  0  0  0  0  0  0  0
  -31.4648   -3.9849  137.1434 C   0  0  0  0  0  0  0  0  0  0  0  0
  -25.2264   -0.8563  141.6126 C   0  0  0  0  0  0  0  0  0  0  0  0
  -26.0992   -1.4085  140.4717 C   0  0  0  0  0  0  0  0  0  0  0  0
  -27.1940   -6.1523  138.3097 C   0  0  0  0  0  0  0  0  0  0  0  0
  2  1  1  0
  3  2  1  0
  4  3  1  0
  5  4  1  0
  6  5  1  0
  7  2  1  0
  9  7  1  0
 10  8  1  0
 11 10  1  0
 12  3  1  0
 12  4  1  0
 12  6  1  0
 13  5  1  0
 14  9  1  0
 15  9  1  0
 16 14  1  0
 17 16  1  0
 18  9  1  0
 18 14  1  0
 19 18  1  0
 21 18  1  0
 21 19  1  0
 22 17  1  0
 23 22  1  0
 24  8  1  0
 24 15  1  0
 24 21  1  0
 25  1  1  0
 26 25  1  0
 27 21  1  0
 27 22  1  0
 28 25  1  0
 30 16  1  0
 30 20  1  0
 30 29  1  0
 31  7  1  0
 31  8  1  0
 31 11  1  0
 31 15  1  0
M  END
$$$$

     RDKit          3D

 31 35  0  0  0  0  0  0  0  0999 V2000
  -23.0611    0.5585  145.0515 O   0  0  0  0  0  0  0  0  0  0  0  0
  -22.5789   -0.6237  144.4991 C   0  0  0  0  0  0  0  0  0  0  0  0
  -23.6033   -1.3737  143.8214 C   0  0  0  0  0  0  0  0  0  0  0  0
  -21.6736   -0.2121  143.1103 C   0  0  0  0  0  0  0  0  0  0  0  0
  -23.2913   -2.9092  144.0402 C   0  0  0  0  0  0  0  0  0  0  0  0
  -20.1532   -0.1914  143.3596 C   0  0  0  0  0  0  0  0  0  0  0  0
  -23.8421   -3.9035  143.0178 C   0  0  0  0  0  0  0  0  0  0  0  0
  -22.8813   -4.4325  142.0354 C   0  0  0  0  0  0  0  0  0  0  0  0
  -22.3722   -5.9322  141.9494 C   0  0  0  0  0  0  0  0  0  0  0  0
  -22.0230   -6.7596  143.3122 C   0  0  0  0  0  0  0  0  0  0  0  0
  -22.3387   -3.5352  143.0815 C   0  0  0  0  0  0  0  0  0  0  0  0
  -21.0916   -5.9523  141.0615 C   0  0  0  0  0  0  0  0  0  0  0  0
  -22.4440   -0.5522  141.7127 C   0  0  0  0  0  0  0  0  0  0  0  0
  -19.6313    1.3761  143.0289 C   0  0  0  0  0  0  0  0  0  0  0  0
  -18.6299    4.1260  148.6427 I   0  0  0  0  0  0  0  0  0  0  0  0
  -22.2377   -1.6945  140.5406 C   0  0  0  0  0  0  0  0  0  0  0  0
  -19.0066    1.6219  144.4153 N   0  0  0  0  0  0  0  0  0  0  0  0
  -17.6313    1.2989  144.5496 C   0  0  0  0  0  0  0  0  0  0  0  0
  -23.8490   -0.6381  142.3957 C   0  0  0  0  0  0  0  0  0  0  0  0
  -16.9993    1.8777  143.3442 N   0  0  0  0  0  0  0  0  0  0  0  0
  -19.5773    3.0741  145.5035 S   0  0  0  0  0  0  0  0  0  0  0  0
  -21.9281   -1.6156  138.9747 C   0  0  0  0  0  0  0  0  0  0  0  0
  -17.8026    4.3228  146.3274 S   0  0  0  0  0  0  0  0  0  0  0  0
  -17.3749    3.2655  143.1382 C   0  0  0  0  0  0  0  0  0  0  0  0
  -18.8081    3.7071  142.4421 C   0  0  0  0  0  0  0  0  0  0  0  0
  -18.8784    1.1217  141.5549 C   0  0  0  0  0  0  0  0  0  0  0  0
  -19.5691    1.1993  140.0717 C   0  0  0  0  0  0  0  0  0  0  0  0
  -20.2172    2.8625  142.6101 C   0  0  0  0  0  0  0  0  0  0  0  0
  -20.5199   -1.9848  139.1197 N   0  0  0  0  0  0  0  0  0  0  0  0
  -20.9251   -2.3191  140.4689 C   0  0  0  0  0  0  0  0  0  0  0  0
  -25.1268   -0.9957  141.7292 C   0  0  0  0  0  0  0  0  0  0  0  0
  2  1  1  0
  3  2  1  0
  4  2  1  0
  5  3  1  0
  6  4  1  0
  7  5  1  0
  8  7  1  0
  9  8  1  0
 10  9  1  0
 11  5  1  0
 11  7  1  0
 11  8  1  0
 12  9  1  0
 13  4  1  0
 14  6  1  0
 16 13  1  0
 17 14  1  0
 18 17  1  0
 19  3  1  0
 19 13  1  0
 20 18  1  0
 21 17  1  0
 22 16  1  0
 23 15  1  0
 23 21  1  0
 24 20  1  0
 25 24  1  0
 26 14  1  0
 27 26  1  0
 28 14  1  0
 28 25  1  0
 29 22  1  0
 30 16  1  0
 30 29  1  0
 31 19  1  0
M  END
$$$$

     RDKit          3D

 31 36  0  0  0  0  0  0  0  0999 V2000
  -24.9202   -8.6245  143.3461 C   0  0  0  0  0  0  0  0  0  0  0  0
  -24.0379   -6.9025  142.8667 O   0  0  0  0  0  0  0  0  0  0  0  0
  -27.1253  -10.6146  144.9101 C   0  0  0  0  0  0  0  0  0  0  0  0
  -26.7010  -12.2691  144.0151 C   0  0  0  0  0  0  0  0  0  0  0  0
  -27.5173  -11.4986  141.2848 C   0  0  0  0  0  0  0  0  0  0  0  0
  -25.0236  -12.4763  143.5241 C   0  0  0  0  0  0  0  0  0  0  0  0
  -28.5978  -11.5200  140.0996 C   0  0  0  0  0  0  0  0  0  0  0  0
  -26.6946   -9.9805  141.0586 C   0  0  0  0  0  0  0  0  0  0  0  0
  -20.8299  -10.3899  141.1170 Cl  0  0  0  0  0  0  0  0  0  0  0  0
  -24.4957  -11.0499  142.7048 C   0  0  0  0  0  0  0  0  0  0  0  0
  -28.6827  -11.9021  138.5409 C   0  0  0  0  0  0  0  0  0  0  0  0
  -23.0301  -10.8063  142.1514 C   0  0  0  0  0  0  0  0  0  0  0  0
  -26.9684  -13.7006  139.2157 C   0  0  0  0  0  0  0  0  0  0  0  0
  -25.6401  -12.9989  138.5768 C   0  0  0  0  0  0  0  0  0  0  0  0
  -26.0888  -12.6704  137.2207 C   0  0  0  0  0  0  0  0  0  0  0  0
  -26.8502  -13.7626  136.4438 C   0  0  0  0  0  0  0  0  0  0  0  0
  -24.5421  -12.6608  137.3358 C   0  0  0  0  0  0  0  0  0  0  0  0
  -24.7144  -10.1903  143.7880 C   0  0  0  0  0  0  0  0  0  0  0  0
  -28.4491  -13.0182  139.4887 C   0  0  0  0  0  0  0  0  0  0  0  0
  -22.0376   -7.0084  140.5890 C   0  0  0  0  0  0  0  0  0  0  0  0
  -22.6311   -5.6322  140.9702 C   0  0  0  0  0  0  0  0  0  0  0  0
  -22.6667   -9.9194  140.9218 C   0  0  0  0  0  0  0  0  0  0  0  0
  -22.7086   -8.2621  141.3935 C   0  0  0  0  0  0  0  0  0  0  0  0
  -23.4250  -10.3744  139.3415 Cl  0  0  0  0  0  0  0  0  0  0  0  0
  -26.6613   -8.0839  141.1162 C   0  0  0  0  0  0  0  0  0  0  0  0
  -24.0612  -12.8608  135.8451 C   0  0  0  0  0  0  0  0  0  0  0  0
  -23.6488  -14.3152  135.5148 C   0  0  0  0  0  0  0  0  0  0  0  0
  -27.6773  -12.5920  142.5905 C   0  0  0  0  0  0  0  0  0  0  0  0
  -22.4671   -5.2136  142.3592 O   0  0  0  0  0  0  0  0  0  0  0  0
  -23.5344   -8.0321  142.6280 C   0  0  0  0  0  0  0  0  0  0  0  0
  -25.5303   -9.6698  142.3644 C   0  0  0  0  0  0  0  0  0  0  0  0
  4  3  1  0
  6  4  1  0
  7  5  1  0
  8  5  1  0
 10  6  1  0
 11  7  1  0
 12 10  1  0
 14 13  1  0
 15 14  1  0
 16 15  1  0
 17 14  1  0
 17 15  1  0
 18  1  1  0
 18 10  1  0
 19  7  1  0
 19 11  1  0
 19 13  1  0
 21 20  1  0
 22  9  1  0
 22 12  1  0
 23 20  1  0
 23 22  1  0
 24 22  1  0
 25  8  1  0
 26 17  1  0
 27 26  1  0
 28  4  1  0
 28  5  1  0
 29 21  1  0
 30  1  1  0
 30  2  2  0
 30 23  1  0
 31  1  1  0
 31  8  1  0
 31 10  1  0
 31 18  1  0
M  END
$$$$

     RDKit          3D

 31 34  0  0  0  0  0  0  0  0999 V2000
  -25.8921    6.9519  146.0409 O   0  0  0  0  0  0  0  0  0  0  0  0
  -23.9482    4.9160  145.6294 Si  0  0  0  0  0  4  0  0  0  0  0  0
  -20.9248    3.1648  145.3306 O   0  0  0  0  0  0  0  0  0  0  0  0
  -25.4920    6.2019  147.2780 C   0  0  0  0  0  0  0  0  0  0  0  0
  -23.6639    7.0322  144.6724 C   0  0  0  0  0  0  0  0  0  0  0  0
  -25.7231    2.6187  146.6866 C   0  0  0  0  0  0  0  0  0  0  0  0
  -26.3473    3.3681  145.0969 N   0  0  0  0  0  0  0  0  0  0  0  0
  -26.1307    4.4461  147.2092 C   0  0  0  0  0  0  0  0  0  0  0  0
  -22.0650    1.4699  147.0032 C   0  0  0  0  0  0  0  0  0  0  0  0
  -27.7490    3.7163  144.8759 C   0  0  0  0  0  0  0  0  0  0  0  0
  -28.3010    4.9907  145.5008 C   0  0  0  0  0  0  0  0  0  0  0  0
  -29.0187    2.7097  144.9174 C   0  0  0  0  0  0  0  0  0  0  0  0
  -24.6379    2.2921  144.1926 C   0  0  0  0  0  0  0  0  0  0  0  0
  -25.6862    4.4903  143.6550 C   0  0  0  0  0  0  0  0  0  0  0  0
  -23.9292    5.0866  142.8244 C   0  0  0  0  0  0  0  0  0  0  0  0
  -27.9247    5.3742  144.0781 C   0  0  0  0  0  0  0  0  0  0  0  0
  -26.8849    5.1635  142.4409 C   0  0  0  0  0  0  0  0  0  0  0  0
  -22.2081    3.5480  145.1410 C   0  0  0  0  0  0  0  0  0  0  0  0
  -23.6067    2.7111  147.2483 N   0  0  0  0  0  0  0  0  0  0  0  0
  -20.6147    1.1932  147.9569 C   0  0  0  0  0  0  0  0  0  0  0  0
  -21.1694    1.6755  145.4971 C   0  0  0  0  0  0  0  0  0  0  0  0
  -18.5221    1.4038  148.0594 C   0  0  0  0  0  0  0  0  0  0  0  0
  -17.1428    0.5785  147.2069 C   0  0  0  0  0  0  0  0  0  0  0  0
  -16.8759    1.0748  145.7151 C   0  0  0  0  0  0  0  0  0  0  0  0
  -17.6726   -0.1900  145.9296 C   0  0  0  0  0  0  0  0  0  0  0  0
  -17.5468    1.9543  144.6129 C   0  0  0  0  0  0  0  0  0  0  0  0
  -15.3780   -0.1947  147.9127 C   0  0  0  0  0  0  0  0  0  0  0  0
  -13.8760    1.0486  147.8059 C   0  0  0  0  0  0  0  0  0  0  0  0
  -12.9459    0.2044  144.8922 P   0  0  0  0  0  0  0  0  0  0  0  0
  -13.5101    1.7033  146.2297 C   0  0  0  0  0  0  0  0  0  0  0  0
  -23.4192    6.5767  141.6000 C   0  0  0  0  0  0  0  0  0  0  0  0
  4  1  1  0
  4  2  1  0
  5  2  1  0
  7  6  1  0
  8  4  1  0
  8  6  1  0
 10  7  1  0
 11 10  1  0
 12 10  1  0
 13  2  1  0
 14  7  1  0
 15 14  1  0
 16 10  1  0
 16 11  1  0
 17 14  1  0
 17 16  1  0
 18  2  1  0
 18  3  1  0
 19  6  1  0
 19  9  1  0
 20  9  2  3
 21  3  1  0
 21  9  1  0
 22 20  1  0
 23 22  1  0
 24 23  1  0
 25 23  1  0
 25 24  1  0
 26 24  1  0
 27 23  1  0
 28 27  1  0
 30 28  1  0
 30 29  1  0
 31 15  1  0
M  END
$$$$

     RDKit          3D

 30 36  0  0  0  0  0  0  0  0999 V2000
  -24.8204  -10.3282  137.0522 C   0  0  0  0  0  0  0  0  0  0  0  0
  -26.1722  -10.0373  136.5010 C   0  0  0  0  0  0  0  0  0  0  0  0
  -25.4325  -11.6604  139.1008 C   0  0  0  0  0  0  0  0  0  0  0  0
  -24.6576  -10.4663  138.5683 C   0  0  0  0  0  0  0  0  0  0  0  0
  -27.2144   -9.9096  137.4418 O   0  0  0  0  0  0  0  0  0  0  0  0
  -25.2161   -9.0205  136.6905 O   0  0  0  0  0  0  0  0  0  0  0  0
  -24.0883  -13.6483  142.8929 S   0  0  0  0  0  4  0  0  0  0  0  0
  -27.8501  -12.9137  142.2195 N   0  0  0  0  0  0  0  0  0  0  0  0
  -25.3262  -15.0350  140.5268 O   0  0  0  0  0  0  0  0  0  0  0  0
  -21.2352  -12.6210  142.0852 C   0  0  0  0  0  0  0  0  0  0  0  0
  -22.2908  -11.1469  143.9235 C   0  0  0  0  0  0  0  0  0  0  0  0
  -21.4123   -9.9093  143.9810 C   0  0  0  0  0  0  0  0  0  0  0  0
  -27.2373  -11.2055  145.5616 N   0  0  0  0  0  0  0  0  0  0  0  0
  -21.0893  -11.9850  143.4858 C   0  0  0  0  0  0  0  0  0  0  0  0
  -24.5086  -14.7183  141.6310 C   0  0  0  0  0  0  0  0  0  0  0  0
  -20.2190  -10.7286  143.5124 C   0  0  0  0  0  0  0  0  0  0  0  0
  -25.8857  -14.1447  141.4627 C   0  0  0  0  0  0  0  0  0  0  0  0
  -26.1831  -12.9757  144.8496 C   0  0  0  0  0  0  0  0  0  0  0  0
  -25.8868  -11.7517  145.7103 C   0  0  0  0  0  0  0  0  0  0  0  0
  -22.1537  -13.8676  142.1105 C   0  0  0  0  0  0  0  0  0  0  0  0
  -23.4274  -13.6664  141.2712 C   0  0  0  0  0  0  0  0  0  0  0  0
  -25.3888  -14.4551  142.8640 C   0  0  0  0  0  0  0  0  0  0  0  0
  -25.9622  -15.7240  143.5060 C   0  0  0  0  0  0  0  0  0  0  0  0
  -25.1281  -13.2080  143.7469 C   0  0  0  0  0  0  0  0  0  0  0  0
  -27.5337  -12.2817  144.6014 C   0  0  0  0  0  0  0  0  0  0  0  0
  -27.9797  -11.8131  143.1691 C   0  0  0  0  0  0  0  0  0  0  0  0
  -27.3420  -10.5243  142.5760 C   0  0  0  0  0  0  0  0  0  0  0  0
  -27.9118  -10.1756  141.2222 C   0  0  0  0  0  0  0  0  0  0  0  0
  -29.2098   -9.8959  141.0398 C   0  0  0  0  0  0  0  0  0  0  0  0
  -28.1277  -10.9597  137.2334 C   0  0  0  0  0  0  0  0  0  0  0  0
  2  1  1  0
  4  1  1  0
  4  3  1  0
  5  2  1  0
  6  1  1  0
  6  2  1  0
  7  3  1  0
  7  4  1  0
  8  7  1  0
 12 11  1  0
 14 10  1  0
 14 11  1  0
 15  9  1  0
 16 12  1  0
 16 14  1  0
 17  7  1  0
 17  9  1  0
 17 15  1  0
 19 13  1  0
 19 18  1  0
 20 10  1  0
 21 15  1  0
 21 20  1  0
 22 15  1  0
 22 17  1  0
 23 22  1  0
 24 18  1  0
 24 22  1  0
 25 13  1  0
 25 18  1  0
 26  8  1  0
 26 25  1  0
 27 26  1  0
 28 27  1  0
 29 28  2  0
 30  5  1  0
M  END
$$$$

     RDKit          3D

 27 32  0  0  0  0  0  0  0  0999 V2000
  -29.1631   -2.6224  142.4656 N   0  0  0  0  0  0  0  0  0  0  0  0
  -30.1236   -0.5588  143.5633 C   0  0  0  0  0  0  0  0  0  0  0  0
  -30.5799   -1.6532  144.4743 N   0  0  0  0  0  0  0  0  0  0  0  0
  -27.8539   -0.4988  142.1925 C   0  0  0  0  0  0  0  0  0  0  0  0
  -26.3397   -2.2937  141.8569 O   0  0  0  0  0  0  0  0  0  0  0  0
  -29.2905    0.4124  144.3047 N   0  0  0  0  0  0  0  0  0  0  0  0
  -29.3054   -1.1567  142.3116 C   0  0  0  0  0  0  0  0  0  0  0  0
  -30.0124    1.1666  145.3416 C   0  0  0  0  0  0  0  0  0  0  0  0
  -29.4286    1.0082  146.6819 N   0  0  0  0  0  0  0  0  0  0  0  0
  -28.1426    1.7214  146.7577 C   0  0  0  0  0  0  0  0  0  0  0  0
  -29.2704   -0.0517  145.6825 C   0  0  0  0  0  0  0  0  0  0  0  0
  -28.2000    2.8320  147.8123 C   0  0  0  0  0  0  0  0  0  0  0  0
  -32.6005   -2.6439  145.1288 F   0  0  0  0  0  0  0  0  0  0  0  0
  -30.1103   -0.9047  141.0067 C   0  0  0  0  0  0  0  0  0  0  0  0
  -31.9163   -1.4452  145.0426 C   0  0  0  0  0  0  0  0  0  0  0  0
  -30.1638   -1.2743  145.8139 C   0  0  0  0  0  0  0  0  0  0  0  0
  -31.4596   -1.0552  146.3124 O   0  0  0  0  0  0  0  0  0  0  0  0
  -25.7555    2.9602  148.5446 C   0  0  0  0  0  0  0  0  0  0  0  0
  -26.9032    3.6658  147.8247 C   0  0  0  0  0  0  0  0  0  0  0  0
  -27.8787    0.9950  141.7579 C   0  0  0  0  0  0  0  0  0  0  0  0
  -27.9381    1.1409  140.3016 N   0  0  0  0  0  0  0  0  0  0  0  0
  -26.8388    0.5215  139.5284 C   0  0  0  0  0  0  0  0  0  0  0  0
  -26.3175   -0.8111  140.0554 C   0  0  0  0  0  0  0  0  0  0  0  0
  -26.8351   -1.2842  141.3783 C   0  0  0  0  0  0  0  0  0  0  0  0
  -26.8444    0.8403  138.0140 C   0  0  0  0  0  0  0  0  0  0  0  0
  -25.4438    0.4490  140.1677 C   0  0  0  0  0  0  0  0  0  0  0  0
  -26.1500   -0.1826  137.1065 C   0  0  0  0  0  0  0  0  0  0  0  0
  3  2  1  0
  6  2  1  0
  7  1  1  0
  7  2  1  0
  7  4  1  0
  8  6  1  0
  9  8  1  0
 10  9  1  0
 11  6  1  0
 11  8  1  0
 11  9  1  0
 12 10  1  0
 14  7  1  0
 15  3  1  0
 15 13  1  0
 16  3  1  0
 16 11  1  0
 17 15  1  0
 17 16  1  0
 19 12  1  0
 19 18  1  0
 20  4  1  0
 21 20  1  0
 22 21  1  0
 23 22  1  0
 24  4  1  0
 24  5  2  0
 24 23  1  0
 25 22  1  0
 26 22  1  0
 26 23  1  0
 27 25  1  0
M  END
$$$$

     RDKit          3D

 30 33  0  0  0  0  0  0  0  0999 V2000
  -28.0752    2.5494  143.6042 O   0  0  0  0  0  0  0  0  0  0  0  0
  -24.2017    0.1593  145.5842 C   0  0  0  0  0  0  0  0  0  0  0  0
  -20.0225   -0.8575  145.2292 C   0  0  0  0  0  0  0  0  0  0  0  0
  -24.3438    1.2563  146.6521 C   0  0  0  0  0  0  0  0  0  0  0  0
  -22.1095   -0.3126  145.3304 Mg  0  0  0  0  0  2  0  0  0  0  0  0
  -26.3720    2.0382  145.7527 O   0  0  0  0  0  0  0  0  0  0  0  0
  -25.0984    1.6218  147.9362 C   0  0  0  0  0  0  0  0  0  0  0  0
  -25.8972    1.1898  146.7728 C   0  0  0  0  0  0  0  0  0  0  0  0
  -22.7043    1.2343  136.0525 N   0  0  0  0  0  0  0  0  0  0  0  0
  -26.7544    2.1399  143.3792 C   0  0  0  0  0  0  0  0  0  0  0  0
  -24.8576    0.6916  144.2771 C   0  0  0  0  0  0  0  0  0  0  0  0
  -26.2904    1.2726  144.5473 C   0  0  0  0  0  0  0  0  0  0  0  0
  -21.0883    2.6981  139.2433 C   0  0  0  0  0  0  0  0  0  0  0  0
  -19.5974    2.7838  138.8954 C   0  0  0  0  0  0  0  0  0  0  0  0
  -19.2060    0.3914  144.9224 C   0  0  0  0  0  0  0  0  0  0  0  0
  -19.1325    4.1991  138.5423 C   0  0  0  0  0  0  0  0  0  0  0  0
  -22.2309    2.3044  136.9202 C   0  0  0  0  0  0  0  0  0  0  0  0
  -22.8967    4.1040  141.6060 C   0  0  0  0  0  0  0  0  0  0  0  0
  -19.1742    0.6610  143.4101 C   0  0  0  0  0  0  0  0  0  0  0  0
  -21.3117    1.7482  138.0474 C   0  0  0  0  0  0  0  0  0  0  0  0
  -19.6861    3.2146  143.5490 C   0  0  0  0  0  0  0  0  0  0  0  0
  -21.1798    3.0509  143.1721 C   0  0  0  0  0  0  0  0  0  0  0  0
  -21.3893    2.1990  140.7005 C   0  0  0  0  0  0  0  0  0  0  0  0
  -21.5227    3.4101  141.6880 C   0  0  0  0  0  0  0  0  0  0  0  0
  -20.4042    0.5442  137.7215 C   0  0  0  0  0  0  0  0  0  0  0  0
  -23.8322    1.3122  140.1585 C   0  0  0  0  0  0  0  0  0  0  0  0
  -22.4844    1.0911  140.8409 C   0  0  0  0  0  0  0  0  0  0  0  0
  -19.7980    1.9249  137.6597 C   0  0  0  0  0  0  0  0  0  0  0  0
  -18.7289    2.0925  143.0780 C   0  0  0  0  0  0  0  0  0  0  0  0
  -19.8598   -0.3470  138.8353 C   0  0  0  0  0  0  0  0  0  0  0  0
  4  2  1  0
  5  2  1  0
  5  3  1  0
  7  4  1  0
  8  4  1  0
  8  6  1  0
  8  7  1  0
 10  1  1  0
 11  2  1  0
 12  6  1  0
 12 10  1  0
 12 11  1  0
 14 13  1  0
 15  3  1  0
 16 14  1  0
 17  9  1  0
 19 15  1  0
 20 13  1  0
 20 17  1  0
 22 21  1  0
 23 13  1  0
 24 18  1  0
 24 22  1  0
 24 23  1  0
 25 20  1  0
 27 23  1  0
 27 26  1  0
 28 14  1  0
 28 20  1  0
 28 25  1  0
 29 19  1  0
 29 21  1  0
 30 25  1  0
M  END
$$$$

     RDKit          3D

 31 36  0  0  0  0  0  0  0  0999 V2000
  -23.8378  -11.1377  136.8559 O   0  0  0  0  0  0  0  0  0  0  0  0
  -24.4203   -9.2923  137.8130 C   0  0  0  0  0  0  0  0  0  0  0  0
  -24.5923   -9.3971  139.2389 O   0  0  0  0  0  0  0  0  0  0  0  0
  -23.2247  -10.0472  137.4405 C   0  0  0  0  0  0  0  0  0  0  0  0
  -25.9847   -6.4877  139.5513 C   0  0  0  0  0  0  0  0  0  0  0  0
  -24.2057   -8.4364  140.3156 C   0  0  0  0  0  0  0  0  0  0  0  0
  -25.0372   -7.9644  141.5277 C   0  0  0  0  0  0  0  0  0  0  0  0
  -23.4609   -5.9345  140.6927 C   0  0  0  0  0  0  0  0  0  0  0  0
  -23.5194   -8.4454  142.5099 N   0  0  0  0  0  0  0  0  0  0  0  0
  -26.7389   -6.7010  142.1317 C   0  0  0  0  0  0  0  0  0  0  0  0
  -25.5981   -8.8635  136.9317 C   0  0  0  0  0  0  0  0  0  0  0  0
  -23.7012   -5.3655  139.2990 C   0  0  0  0  0  0  0  0  0  0  0  0
  -21.9978   -6.2135  141.2172 C   0  0  0  0  0  0  0  0  0  0  0  0
  -22.0986   -7.4743  142.3027 C   0  0  0  0  0  0  0  0  0  0  0  0
  -28.4950   -7.4302  141.7056 C   0  0  0  0  0  0  0  0  0  0  0  0
  -25.2971   -5.1460  139.0405 C   0  0  0  0  0  0  0  0  0  0  0  0
  -24.6827   -7.0246  140.4264 C   0  0  0  0  0  0  0  0  0  0  0  0
  -24.9682  -10.4061  136.6766 C   0  0  0  0  0  0  0  0  0  0  0  0
  -29.2088   -7.6922  139.4647 C   0  0  0  0  0  0  0  0  0  0  0  0
  -30.6053  -10.6499  134.0672 C   0  0  0  0  0  0  0  0  0  0  0  0
  -31.0551  -11.9301  132.2298 C   0  0  0  0  0  0  0  0  0  0  0  0
  -29.3434   -8.6013  137.3164 C   0  0  0  0  0  0  0  0  0  0  0  0
  -29.4995  -10.0721  135.5288 C   0  0  0  0  0  0  0  0  0  0  0  0
  -32.1829  -12.9570  130.7320 C   0  0  0  0  0  0  0  0  0  0  0  0
  -29.0384   -8.4605  143.4586 C   0  0  0  0  0  0  0  0  0  0  0  0
  -33.1741  -12.5169  129.4808 C   0  0  0  0  0  0  0  0  0  0  0  0
  -33.8974  -13.4996  129.6442 C   0  0  0  0  0  0  0  0  0  0  0  0
  -33.3824  -14.4965  126.7242 C   0  0  0  0  0  0  0  0  0  0  0  0
  -32.5914  -13.1383  127.9550 C   0  0  0  0  0  0  0  0  0  0  0  0
  -35.0575  -13.0519  128.1099 C   0  0  0  0  0  0  0  0  0  0  0  0
  -35.2689  -12.9917  126.1840 C   0  0  0  0  0  0  0  0  0  0  0  0
  3  2  1  0
  4  1  1  0
  4  2  1  0
  6  3  1  0
  7  6  1  0
  9  7  1  0
 10  7  1  0
 11  2  1  0
 12  8  1  0
 13  8  1  0
 14  9  1  0
 14 13  1  0
 15 10  1  0
 16  5  1  0
 16 12  1  0
 17  5  1  0
 17  6  1  0
 17  7  1  0
 17  8  1  0
 18  1  1  0
 18  2  1  0
 18 11  1  0
 19 15  1  0
 21 20  1  0
 22 19  1  0
 23 20  2  3
 23 22  1  0
 24 21  1  0
 25 15  1  0
 26 24  1  0
 27 24  1  0
 27 26  1  0
 29 26  1  0
 29 28  1  0
 30 27  1  0
 31 30  1  0
M  END
$$$$

     RDKit          3D

 31 34  0  0  0  0  0  0  0  0999 V2000
  -31.3572  -11.8296  144.2991 O   0  0  0  0  0  0  0  0  0  0  0  0
  -29.9153  -12.6858  142.5883 C   0  0  0  0  0  0  0  0  0  0  0  0
  -28.7685  -12.7690  142.1835 O   0  0  0  0  0  0  0  0  0  0  0  0
  -29.0330  -12.1724  144.9477 C   0  0  0  0  0  0  0  0  0  0  0  0
  -28.2150   -9.8890  144.0056 C   0  0  0  0  0  0  0  0  0  0  0  0
  -30.2268  -12.6309  144.0664 C   0  0  0  0  0  0  0  0  0  0  0  0
  -29.2477   -9.3318  143.0026 C   0  0  0  0  0  0  0  0  0  0  0  0
  -28.8432  -10.6466  145.2179 C   0  0  0  0  0  0  0  0  0  0  0  0
  -27.9188  -10.5105  146.4267 C   0  0  0  0  0  0  0  0  0  0  0  0
  -30.0619   -8.1359  143.5383 C   0  0  0  0  0  0  0  0  0  0  0  0
  -32.2359   -7.6788  144.7579 C   0  0  0  0  0  0  0  0  0  0  0  0
  -32.3131   -7.8064  142.2275 C   0  0  0  0  0  0  0  0  0  0  0  0
  -27.9099   -9.4854  147.3003 C   0  0  0  0  0  0  0  0  0  0  0  0
  -32.4168   -8.7406  140.9784 C   0  0  0  0  0  0  0  0  0  0  0  0
  -28.7943   -8.2780  147.2058 C   0  0  0  0  0  0  0  0  0  0  0  0
  -31.6053   -8.3364  143.5188 C   0  0  0  0  0  0  0  0  0  0  0  0
  -32.8517  -10.2044  141.2960 C   0  0  0  0  0  0  0  0  0  0  0  0
  -34.0665  -10.3179  142.2250 C   0  0  0  0  0  0  0  0  0  0  0  0
  -35.0902  -11.1679  141.9839 C   0  0  0  0  0  0  0  0  0  0  0  0
  -35.1521  -12.0094  140.7249 C   0  0  0  0  0  0  0  0  0  0  0  0
  -34.4503  -11.2352  139.6083 C   0  0  0  0  0  0  0  0  0  0  0  0
  -33.2988  -11.0762  138.6260 C   0  0  0  0  0  0  0  0  0  0  0  0
  -33.9818   -9.8316  138.0680 C   0  0  0  0  0  0  0  0  0  0  0  0
  -35.4562   -9.8470  137.6592 C   0  0  0  0  0  0  0  0  0  0  0  0
  -36.1105  -11.0696  137.1558 N   0  0  0  0  0  0  0  0  0  0  0  0
  -35.4013  -11.8304  136.1217 C   0  0  0  0  0  0  0  0  0  0  0  0
  -32.9798  -11.1842  140.0929 C   0  0  0  0  0  0  0  0  0  0  0  0
  -34.7303  -10.9567  135.2294 O   0  0  0  0  0  0  0  0  0  0  0  0
  -35.0871   -9.9436  139.1227 C   0  0  0  0  0  0  0  0  0  0  0  0
  -36.4005  -12.6878  135.3360 C   0  0  0  0  0  0  0  0  0  0  0  0
  -31.1237   -8.6957  140.1379 C   0  0  0  0  0  0  0  0  0  0  0  0
  3  2  2  0
  6  1  1  0
  6  2  1  0
  6  4  1  0
  7  5  1  0
  8  4  1  0
  8  5  1  0
  9  8  1  0
 10  7  1  0
 13  9  2  3
 14 12  1  0
 15 13  1  0
 16 10  1  0
 16 11  1  0
 16 12  1  0
 17 14  1  0
 18 17  1  0
 19 18  2  0
 20 19  1  0
 21 20  1  0
 22 21  1  0
 23 22  1  0
 24 23  1  0
 25 24  1  0
 26 25  1  0
 27 17  1  0
 27 21  1  0
 27 22  1  0
 28 26  1  0
 29 21  1  0
 29 23  1  0
 29 24  1  0
 30 26  1  0
 31 14  1  0
M  END
$$$$

     RDKit          3D

 23 24  0  0  0  0  0  0  0  0999 V2000
  -18.0411  -14.2429  150.6853 O   0  0  0  0  0  0  0  0  0  0  0  0
  -20.5700  -14.2246  150.6605 C   0  0  0  0  0  0  0  0  0  0  0  0
  -21.2420  -16.5848  151.6097 N   0  0  0  0  0  0  0  0  0  0  0  0
  -21.8405  -13.5212  149.9730 C   0  0  0  0  0  0  0  0  0  0  0  0
  -23.2918  -14.3157  150.1479 C   0  0  0  0  0  0  0  0  0  0  0  0
  -25.5592  -15.2918  153.6980 Al  0  0  0  0  0  3  0  0  0  0  0  0
  -20.0369  -16.6861  149.4016 C   0  0  0  0  0  0  0  0  0  0  0  0
  -19.3277  -17.9351  149.7998 N   0  0  0  0  0  0  0  0  0  0  0  0
  -20.3217  -15.8540  150.7102 C   0  0  0  0  0  0  0  0  0  0  0  0
  -26.4099  -13.7839  152.8284 C   0  0  0  0  0  0  0  0  0  0  0  0
  -21.8475  -12.0140  150.0253 O   0  0  0  0  0  0  0  0  0  0  0  0
  -22.2498  -11.0293  148.9379 C   0  0  0  0  0  0  0  0  0  0  0  0
  -23.5036  -15.1718  152.9250 S   0  0  0  0  0  0  0  0  0  0  0  0
  -21.1240   -9.9081  148.4939 C   0  0  0  0  0  0  0  0  0  0  0  0
  -25.2918  -13.4663  151.7261 C   0  0  0  0  0  0  0  0  0  0  0  0
  -21.6052   -8.5898  148.7401 O   0  0  0  0  0  0  0  0  0  0  0  0
  -22.3396   -8.7839  149.8965 C   0  0  0  0  0  0  0  0  0  0  0  0
  -19.2204  -13.6662  150.0944 C   0  0  0  0  0  0  0  0  0  0  0  0
  -24.2756  -14.5551  151.3379 C   0  0  0  0  0  0  0  0  0  0  0  0
  -22.8058  -11.7512  147.6484 C   0  0  0  0  0  0  0  0  0  0  0  0
  -24.2947  -12.3229  147.5187 C   0  0  0  0  0  0  0  0  0  0  0  0
  -25.2642  -12.0094  148.6853 C   0  0  0  0  0  0  0  0  0  0  0  0
  -23.1974  -10.0152  149.6055 C   0  0  0  0  0  0  0  0  0  0  0  0
  4  2  1  0
  5  4  1  0
  8  7  1  0
  9  2  1  0
  9  3  1  0
  9  7  1  0
 10  6  1  0
 11  4  1  0
 12 11  1  0
 13  6  1  0
 14 12  1  0
 15 10  1  0
 16 14  1  0
 17 16  1  0
 18  1  1  0
 18  2  1  0
 19  5  1  0
 19 13  1  0
 19 15  1  0
 20 12  1  0
 21 20  1  0
 22 21  1  0
 23 12  1  0
 23 17  1  0
M  END
$$$$

     RDKit          3D

 10 12  0  0  0  0  0  0  0  0999 V2000
  -30.9654   -9.9950  133.2872 C   0  0  0  0  0  0  0  0  0  0  0  0
  -31.8374   -9.8156  132.0624 C   0  0  0  0  0  0  0  0  0  0  0  0
  -31.7814  -10.3317  134.5182 C   0  0  0  0  0  0  0  0  0  0  0  0
  -32.3071  -10.7475  133.1602 C   0  0  0  0  0  0  0  0  0  0  0  0
  -31.3352  -10.5104  130.8847 N   0  0  0  0  0  0  0  0  0  0  0  0
  -31.7143   -8.5289  136.2742 C   0  0  0  0  0  0  0  0  0  0  0  0
  -32.5373   -9.1547  135.1425 C   0  0  0  0  0  0  0  0  0  0  0  0
  -32.3592   -7.3991  136.8089 O   0  0  0  0  0  0  0  0  0  0  0  0
  -31.3652   -6.5395  136.4168 N   0  0  0  0  0  0  0  0  0  0  0  0
  -30.6090   -7.6282  135.8296 C   0  0  0  0  0  0  0  0  0  0  0  0
  2  1  1  0
  3  1  1  0
  4  1  1  0
  4  2  1  0
  4  3  1  0
  5  2  1  0
  7  3  1  0
  7  6  1  0
  8  6  1  0
  9  8  1  0
 10  6  1  0
 10  9  1  0
M  END
$$$$

     RDKit          3D

 31 38  0  0  0  0  0  0  0  0999 V2000
  -26.7522  -21.8247  147.1573 S   0  0  0  0  0  4  0  0  0  0  0  0
  -29.7071  -18.0615  144.6866 C   0  0  0  0  0  0  0  0  0  0  0  0
  -28.8009  -17.6441  145.8522 C   0  0  0  0  0  0  0  0  0  0  0  0
  -30.3387  -19.4715  144.7939 C   0  0  0  0  0  0  0  0  0  0  0  0
  -29.9385  -20.9788  149.8927 O   0  0  0  0  0  0  0  0  0  0  0  0
  -32.9871  -21.3045  147.7552 O   0  0  0  0  0  0  0  0  0  0  0  0
  -30.0443  -20.5626  145.8338 C   0  0  0  0  0  0  0  0  0  0  0  0
  -31.0294  -20.5871  147.0660 C   0  0  0  0  0  0  0  0  0  0  0  0
  -32.2412  -21.1506  146.6348 O   0  0  0  0  0  0  0  0  0  0  0  0
  -29.2748  -19.1543  151.2215 C   0  0  0  0  0  0  0  0  0  0  0  0
  -31.2573  -19.1727  147.7415 C   0  0  0  0  0  0  0  0  0  0  0  0
  -31.2159  -22.4455  144.0654 C   0  0  0  0  0  0  0  0  0  0  0  0
  -28.6240  -17.2514  152.7240 C   0  0  0  0  0  0  0  0  0  0  0  0
  -27.8461  -18.2440  141.8464 C   0  0  0  0  0  0  0  0  0  0  0  0
  -28.8187  -16.6524  153.9672 F   0  0  0  0  0  0  0  0  0  0  0  0
  -27.7924  -18.9395  143.2343 C   0  0  0  0  0  0  0  0  0  0  0  0
  -29.5398  -16.8097  151.7368 O   0  0  0  0  0  0  0  0  0  0  0  0
  -29.7225  -18.1046  152.1517 C   0  0  0  0  0  0  0  0  0  0  0  0
  -29.2794  -19.2489  143.6635 C   0  0  0  0  0  0  0  0  0  0  0  0
  -30.0938  -22.0107  145.0522 B   0  0  0  0  0  0  0  0  0  0  0  0
  -26.4077  -20.7107  144.4527 C   0  0  0  0  0  0  0  0  0  0  0  0
  -30.3703  -19.6813  150.2372 C   0  0  0  0  0  0  0  0  0  0  0  0
  -30.3724  -18.8302  148.9540 C   0  0  0  0  0  0  0  0  0  0  0  0
  -26.2324  -22.8950  143.7537 C   0  0  0  0  0  0  0  0  0  0  0  0
  -25.2260  -20.7151  145.3422 C   0  0  0  0  0  0  0  0  0  0  0  0
  -24.2122  -21.6863  143.2551 C   0  0  0  0  0  0  0  0  0  0  0  0
  -25.3288  -21.7765  144.2874 C   0  0  0  0  0  0  0  0  0  0  0  0
  -27.0139  -21.1736  142.0323 C   0  0  0  0  0  0  0  0  0  0  0  0
  -24.8056  -22.3596  142.0020 C   0  0  0  0  0  0  0  0  0  0  0  0
  -26.2731  -22.5084  142.2808 C   0  0  0  0  0  0  0  0  0  0  0  0
  -26.6895  -20.0361  143.1081 C   0  0  0  0  0  0  0  0  0  0  0  0
  2  1  1  0
  3  2  1  0
  4  2  1  0
  5  1  1  0
  7  4  1  0
  8  7  1  0
  9  6  1  0
  9  8  1  0
 11  8  1  0
 15 13  1  0
 16 14  1  0
 17 13  1  0
 18 10  1  0
 18 13  1  0
 18 17  1  0
 19  2  1  0
 19  4  1  0
 19 16  1  0
 20  1  1  0
 20  7  1  0
 20 12  1  0
 22  5  1  0
 22 10  1  0
 23  1  1  0
 23 11  1  0
 23 22  1  0
 25 21  1  0
 27 21  1  0
 27 24  1  0
 27 25  1  0
 27 26  1  0
 29 26  1  0
 30 24  1  0
 30 28  1  0
 30 29  1  0
 31 16  1  0
 31 21  1  0
 31 28  1  0
M  END
$$$$

     RDKit          3D

 31 35  0  0  0  0  0  0  0  0999 V2000
  -29.2995  -12.1958  146.9204 O   0  0  0  0  0  0  0  0  0  0  0  0
  -30.0314  -11.9710  148.0897 C   0  0  0  0  0  0  0  0  0  0  0  0
  -30.4785  -12.9682  148.7147 O   0  0  0  0  0  0  0  0  0  0  0  0
  -30.4096  -10.5715  148.5431 C   0  0  0  0  0  0  0  0  0  0  0  0
  -30.1672  -10.4128  150.0794 C   0  0  0  0  0  0  0  0  0  0  0  0
  -29.6658   -9.4549  147.7331 C   0  0  0  0  0  0  0  0  0  0  0  0
  -31.4229  -11.9374  151.7237 C   0  0  0  0  0  0  0  0  0  0  0  0
  -30.3599   -8.0457  147.8456 C   0  0  0  0  0  0  0  0  0  0  0  0
  -29.4993   -6.8963  147.2308 C   0  0  0  0  0  0  0  0  0  0  0  0
  -31.7996   -8.1003  147.2186 C   0  0  0  0  0  0  0  0  0  0  0  0
  -29.4585   -9.8754  146.2605 C   0  0  0  0  0  0  0  0  0  0  0  0
  -30.7585  -11.6251  153.0584 C   0  0  0  0  0  0  0  0  0  0  0  0
  -32.0734   -7.0294  146.3449 O   0  0  0  0  0  0  0  0  0  0  0  0
  -28.0635   -6.8206  147.7641 C   0  0  0  0  0  0  0  0  0  0  0  0
  -27.4412   -5.5656  147.3045 N   0  0  0  0  0  0  0  0  0  0  0  0
  -31.7916   -9.8387  154.5424 C   0  0  0  0  0  0  0  0  0  0  0  0
  -29.5422   -9.4402  153.4980 C   0  0  0  0  0  0  0  0  0  0  0  0
  -26.2805   -6.2751  145.2174 C   0  0  0  0  0  0  0  0  0  0  0  0
  -31.4522  -10.6244  150.9424 C   0  0  0  0  0  0  0  0  0  0  0  0
  -30.9201  -10.1051  153.2980 C   0  0  0  0  0  0  0  0  0  0  0  0
  -26.4163   -5.0882  144.2328 C   0  0  0  0  0  0  0  0  0  0  0  0
  -25.0871   -7.1636  144.8014 C   0  0  0  0  0  0  0  0  0  0  0  0
  -25.1649   -8.5543  145.4539 C   0  0  0  0  0  0  0  0  0  0  0  0
  -27.6807   -4.2608  144.4650 C   0  0  0  0  0  0  0  0  0  0  0  0
  -31.6069   -9.5538  152.0286 C   0  0  0  0  0  0  0  0  0  0  0  0
  -32.9224   -8.2911  148.2235 C   0  0  0  0  0  0  0  0  0  0  0  0
  -32.6797   -6.9348  147.6108 C   0  0  0  0  0  0  0  0  0  0  0  0
  -28.6396  -11.1587  146.2085 C   0  0  0  0  0  0  0  0  0  0  0  0
  -23.9164   -9.3991  145.2485 C   0  0  0  0  0  0  0  0  0  0  0  0
  -24.2237   -8.8223  146.6190 C   0  0  0  0  0  0  0  0  0  0  0  0
  -26.1267   -5.7882  146.6840 C   0  0  0  0  0  0  0  0  0  0  0  0
  2  1  1  0
  3  2  2  0
  4  2  1  0
  5  4  1  0
  6  4  1  0
  8  6  1  0
  9  8  1  0
 10  8  1  0
 11  6  1  0
 12  7  1  0
 13 10  1  0
 14  9  1  0
 15 14  1  0
 19  5  1  0
 19  7  1  0
 20 12  1  0
 20 16  1  0
 20 17  1  0
 21 18  1  0
 22 18  1  0
 23 22  1  0
 24 21  1  0
 25 19  1  0
 25 20  1  0
 26 10  1  0
 27 10  1  0
 27 13  1  0
 27 26  1  0
 28  1  1  0
 28 11  1  0
 29 23  1  0
 30 23  1  0
 30 29  1  0
 31 15  1  0
 31 18  1  0
M  END
$$$$

     RDKit          3D

 28 30  0  0  0  0  0  0  0  0999 V2000
  -22.3247  -18.7563  137.8302 N   0  0  0  0  0  0  0  0  0  0  0  0
  -23.6738  -18.6228  138.3938 C   0  0  0  0  0  0  0  0  0  0  0  0
  -24.6395  -18.1519  137.3870 N   0  0  0  0  0  0  0  0  0  0  0  0
  -25.0111  -19.0960  136.3145 C   0  0  0  0  0  0  0  0  0  0  0  0
  -28.6150  -19.9236  136.2814 N   0  0  0  0  0  0  0  0  0  0  0  0
  -23.7354  -21.2233  137.0257 N   0  0  0  0  0  0  0  0  0  0  0  0
  -21.8385  -17.1871  137.1384 S   0  0  0  0  0  0  0  0  0  0  0  0
  -20.1466  -17.6764  136.9004 N   0  0  0  0  0  0  0  0  0  0  0  0
  -19.9985  -18.4751  135.6486 C   0  0  0  0  0  0  0  0  0  0  0  0
  -20.2048  -19.9835  135.9192 C   0  0  0  0  0  0  0  0  0  0  0  0
  -19.4257  -16.5154  136.8772 O   0  0  0  0  0  0  0  0  0  0  0  0
  -19.8873  -20.3932  137.3055 N   0  0  0  0  0  0  0  0  0  0  0  0
  -26.0364  -18.2580  137.8669 C   0  0  0  0  0  0  0  0  0  0  0  0
  -26.3434  -19.4349  136.9399 C   0  0  0  0  0  0  0  0  0  0  0  0
  -28.4064  -19.9792  132.8339 F   0  0  0  0  0  0  0  0  0  0  0  0
  -26.6967  -19.8720  133.0534 S   0  0  0  0  0  0  0  0  0  0  0  0
  -26.7428  -20.5857  134.7264 C   0  0  0  0  0  0  0  0  0  0  0  0
  -18.5161  -20.8746  137.6356 C   0  0  0  0  0  0  0  0  0  0  0  0
  -17.9255  -21.8490  136.5788 C   0  0  0  0  0  0  0  0  0  0  0  0
  -17.2203  -23.0775  137.1534 C   0  0  0  0  0  0  0  0  0  0  0  0
  -17.5844  -19.6969  137.9265 C   0  0  0  0  0  0  0  0  0  0  0  0
  -16.1222  -22.7153  137.9474 O   0  0  0  0  0  0  0  0  0  0  0  0
  -24.3247  -20.4230  135.9245 C   0  0  0  0  0  0  0  0  0  0  0  0
  -24.0795  -20.7609  134.4229 C   0  0  0  0  0  0  0  0  0  0  0  0
  -23.1438  -21.9131  134.0190 C   0  0  0  0  0  0  0  0  0  0  0  0
  -25.3581  -21.2574  135.1029 C   0  0  0  0  0  0  0  0  0  0  0  0
  -27.3149  -19.5290  135.7728 C   0  0  0  0  0  0  0  0  0  0  0  0
  -18.6679  -18.2313  134.8558 C   0  0  0  0  0  0  0  0  0  0  0  0
  2  1  1  0
  3  2  1  0
  4  3  1  0
  7  1  1  0
  8  7  1  0
  9  8  1  0
 10  9  1  0
 11  8  1  0
 12 10  1  0
 13  3  1  0
 14  4  1  0
 14 13  1  0
 16 15  1  0
 17 16  1  0
 18 12  1  0
 19 18  1  0
 20 19  1  0
 21 18  1  0
 22 20  1  0
 23  4  1  0
 23  6  1  0
 24 23  1  0
 25 24  1  0
 26 17  1  0
 26 23  1  0
 26 24  1  0
 27  5  1  0
 27 14  1  0
 27 17  1  0
 28  9  1  0
M  END
$$$$

     RDKit          3D

 23 28  0  0  0  0  0  0  0  0999 V2000
  -24.1739   -5.3982  148.5736 O   0  0  0  0  0  0  0  0  0  0  0  0
  -24.2883   -5.3524  149.9718 C   0  0  0  0  0  0  0  0  0  0  0  0
  -25.4594   -4.4766  150.3945 C   0  0  0  0  0  0  0  0  0  0  0  0
  -22.4486   -3.5399  149.6811 C   0  0  0  0  0  0  0  0  0  0  0  0
  -22.7008   -4.7452  151.8390 N   0  0  0  0  0  0  0  0  0  0  0  0
  -23.4210   -4.2702  150.6358 C   0  0  0  0  0  0  0  0  0  0  0  0
  -24.5938   -3.4520  150.9981 N   0  0  0  0  0  0  0  0  0  0  0  0
  -24.8047   -8.6095  153.8281 O   0  0  0  0  0  0  0  0  0  0  0  0
  -24.1823   -9.4617  152.8801 C   0  0  0  0  0  0  0  0  0  0  0  0
  -24.8407   -7.2606  153.3899 C   0  0  0  0  0  0  0  0  0  0  0  0
  -25.0891  -10.5680  152.3694 C   0  0  0  0  0  0  0  0  0  0  0  0
  -24.8596  -10.9036  150.8786 C   0  0  0  0  0  0  0  0  0  0  0  0
  -23.4532   -6.6489  153.1208 C   0  0  0  0  0  0  0  0  0  0  0  0
  -26.5921  -10.4046  152.7413 C   0  0  0  0  0  0  0  0  0  0  0  0
  -24.2735  -12.3088  151.1591 C   0  0  0  0  0  0  0  0  0  0  0  0
  -24.6798   -9.4470  151.4383 C   0  0  0  0  0  0  0  0  0  0  0  0
  -27.4416  -11.6570  152.4678 C   0  0  0  0  0  0  0  0  0  0  0  0
  -23.4191  -11.2808  150.4575 C   0  0  0  0  0  0  0  0  0  0  0  0
  -23.6260   -5.2180  152.8081 N   0  0  0  0  0  0  0  0  0  0  0  0
  -23.2104  -11.6870  148.9980 C   0  0  0  0  0  0  0  0  0  0  0  0
  -24.4174  -11.7115  148.0969 C   0  0  0  0  0  0  0  0  0  0  0  0
  -24.7196  -12.7884  147.3699 C   0  0  0  0  0  0  0  0  0  0  0  0
  -23.2610  -12.7264  150.1109 C   0  0  0  0  0  0  0  0  0  0  0  0
  2  1  1  0
  3  2  1  0
  6  2  1  0
  6  4  1  0
  6  5  1  0
  7  3  1  0
  7  6  1  0
  9  8  1  0
 10  8  1  0
 11  9  1  0
 12 11  1  0
 13 10  1  0
 14 11  1  0
 15 12  1  0
 16  9  1  0
 16 11  1  0
 16 12  1  0
 17 14  1  0
 18 12  1  0
 18 15  1  0
 19  5  1  0
 19 13  1  0
 20 18  1  0
 21 20  1  0
 22 21  2  0
 23 15  1  0
 23 18  1  0
 23 20  1  0
M  END
$$$$

     RDKit          3D

 31 33  0  0  0  0  0  0  0  0999 V2000
  -31.8411   -8.3778  139.3507 C   0  0  0  0  0  0  0  0  0  0  0  0
  -31.9911   -6.9921  139.5619 O   0  0  0  0  0  0  0  0  0  0  0  0
  -32.6704   -9.0270  138.3238 N   0  0  0  0  0  0  0  0  0  0  0  0
  -33.8518   -9.7440  138.8591 C   0  0  0  0  0  0  0  0  0  0  0  0
  -34.1650  -11.0749  138.1601 C   0  0  0  0  0  0  0  0  0  0  0  0
  -33.8327  -11.1992  136.6465 C   0  0  0  0  0  0  0  0  0  0  0  0
  -34.0428   -8.4666  138.2000 C   0  0  0  0  0  0  0  0  0  0  0  0
  -30.3867   -8.8697  139.2842 C   0  0  0  0  0  0  0  0  0  0  0  0
  -29.0700   -8.1342  139.6534 C   0  0  0  0  0  0  0  0  0  0  0  0
  -28.8505   -6.6313  140.0862 C   0  0  0  0  0  0  0  0  0  0  0  0
  -31.2522   -9.2215  140.4993 C   0  0  0  0  0  0  0  0  0  0  0  0
  -29.2149   -5.4951  139.0259 C   0  0  0  0  0  0  0  0  0  0  0  0
  -34.0165   -9.6814  140.2409 F   0  0  0  0  0  0  0  0  0  0  0  0
  -30.7059   -5.1236  138.8574 C   0  0  0  0  0  0  0  0  0  0  0  0
  -27.5458   -4.5130  137.0944 C   0  0  0  0  0  0  0  0  0  0  0  0
  -26.0144   -4.8659  137.1008 C   0  0  0  0  0  0  0  0  0  0  0  0
  -27.9369   -3.1032  137.3875 N   0  0  0  0  0  0  0  0  0  0  0  0
  -29.4784   -6.3087  141.4802 C   0  0  0  0  0  0  0  0  0  0  0  0
  -31.5935   -6.2766  138.4116 C   0  0  0  0  0  0  0  0  0  0  0  0
  -32.3994  -11.0892  136.3522 N   0  0  0  0  0  0  0  0  0  0  0  0
  -28.9644   -6.4560  143.9782 C   0  0  0  0  0  0  0  0  0  0  0  0
  -25.0740   -4.1365  138.0649 C   0  0  0  0  0  0  0  0  0  0  0  0
  -28.5077   -5.6423  137.6376 C   0  0  0  0  0  0  0  0  0  0  0  0
  -23.6102   -4.6192  137.8972 C   0  0  0  0  0  0  0  0  0  0  0  0
  -27.0123   -6.4885  140.2981 S   0  0  0  0  0  0  0  0  0  0  0  0
  -28.9672   -7.2125  142.6449 C   0  0  0  0  0  0  0  0  0  0  0  0
  -22.6541   -3.6825  137.1120 C   0  0  0  0  0  0  0  0  0  0  0  0
  -21.9479   -2.5882  137.9647 C   0  0  0  0  0  0  0  0  0  0  0  0
  -27.6540   -2.5407  138.7141 C   0  0  0  0  0  0  0  0  0  0  0  0
  -23.2422   -3.0941  135.8098 C   0  0  0  0  0  0  0  0  0  0  0  0
  -22.8669   -1.6188  138.7056 C   0  0  0  0  0  0  0  0  0  0  0  0
  2  1  1  0
  3  1  1  0
  4  3  1  0
  5  4  1  0
  6  5  1  0
  7  3  1  0
  7  4  1  0
  8  1  1  0
  9  8  1  0
 10  9  1  0
 11  1  1  0
 11  8  1  0
 12 10  1  0
 13  4  1  0
 14 12  1  0
 16 15  1  0
 17 15  1  0
 18 10  1  0
 19  2  1  0
 19 14  1  0
 20  6  1  0
 22 16  1  0
 23 12  1  0
 23 15  1  0
 24 22  1  0
 25 10  1  0
 26 18  1  0
 26 21  1  0
 27 24  1  0
 28 27  1  0
 29 17  1  0
 30 27  1  0
 31 28  1  0
M  END
$$$$

     RDKit          3D

 31 34  0  0  0  0  0  0  0  0999 V2000
  -25.7471   -5.9002  136.3714 O   0  0  0  0  0  0  0  0  0  0  0  0
  -27.1710   -6.1563  136.2918 C   0  0  0  0  0  0  0  0  0  0  0  0
  -26.4626   -8.2733  135.0322 C   0  0  0  0  0  0  0  0  0  0  0  0
  -25.2696   -5.3101  137.6156 C   0  0  0  0  0  0  0  0  0  0  0  0
  -26.8753   -8.3838  137.5692 C   0  0  0  0  0  0  0  0  0  0  0  0
  -27.0979   -7.6732  138.8960 C   0  0  0  0  0  0  0  0  0  0  0  0
  -27.3289   -7.6862  136.2356 C   0  0  0  0  0  0  0  0  0  0  0  0
  -26.9283   -8.5171  140.0022 C   0  0  0  0  0  0  0  0  0  0  0  0
  -26.1994   -4.2555  138.3772 C   0  0  0  0  0  0  0  0  0  0  0  0
  -28.4343   -7.1159  138.9051 C   0  0  0  0  0  0  0  0  0  0  0  0
  -29.4971   -7.9960  139.1090 C   0  0  0  0  0  0  0  0  0  0  0  0
  -26.1643   -2.8977  137.6049 C   0  0  0  0  0  0  0  0  0  0  0  0
  -26.4283   -2.9505  136.2011 O   0  0  0  0  0  0  0  0  0  0  0  0
  -27.9422   -9.5095  140.1197 C   0  0  0  0  0  0  0  0  0  0  0  0
  -25.5089   -8.4578  140.7580 C   0  0  0  0  0  0  0  0  0  0  0  0
  -29.1883   -9.3245  139.5199 C   0  0  0  0  0  0  0  0  0  0  0  0
  -24.6277  -10.6936  142.2277 C   0  0  0  0  0  0  0  0  0  0  0  0
  -25.5145  -10.8441  143.5199 C   0  0  0  0  0  0  0  0  0  0  0  0
  -26.9796  -11.3025  143.5274 C   0  0  0  0  0  0  0  0  0  0  0  0
  -24.9627   -9.9702  140.8709 C   0  0  0  0  0  0  0  0  0  0  0  0
  -27.7188  -11.4519  142.2233 C   0  0  0  0  0  0  0  0  0  0  0  0
  -28.2314  -12.8474  141.9024 C   0  0  0  0  0  0  0  0  0  0  0  0
  -27.3911  -14.0776  142.3154 C   0  0  0  0  0  0  0  0  0  0  0  0
  -26.3546  -14.4310  143.4151 C   0  0  0  0  0  0  0  0  0  0  0  0
  -26.6232  -14.1513  144.8736 C   0  0  0  0  0  0  0  0  0  0  0  0
  -27.1877  -13.0472  145.4336 C   0  0  0  0  0  0  0  0  0  0  0  0
  -28.4520  -13.0610  140.3624 C   0  0  0  0  0  0  0  0  0  0  0  0
  -27.8728  -14.3332  139.9639 N   0  0  0  0  0  0  0  0  0  0  0  0
  -26.5953   -9.7783  143.7656 C   0  0  0  0  0  0  0  0  0  0  0  0
  -26.7995  -14.5451  140.9723 C   0  0  0  0  0  0  0  0  0  0  0  0
  -27.7900  -11.8748  144.7133 C   0  0  0  0  0  0  0  0  0  0  0  0
  2  1  1  0
  4  1  1  0
  6  5  1  0
  7  2  1  0
  7  3  1  0
  7  5  1  0
  8  6  4  0
  9  4  1  0
 10  6  4  0
 11 10  4  0
 12  9  1  0
 13 12  1  0
 14  8  4  0
 15  8  1  0
 16 11  4  0
 16 14  4  0
 18 17  1  0
 19 18  1  0
 20 15  1  0
 20 17  1  0
 21 19  1  0
 22 21  1  0
 23 22  1  0
 24 23  1  0
 25 24  1  0
 26 25  2  3
 27 22  1  0
 28 27  1  0
 29 18  1  0
 29 19  1  0
 30 23  1  0
 30 28  1  0
 31 19  1  0
 31 26  1  0
M  END
$$$$

     RDKit          3D

 31 38  0  0  0  0  0  0  0  0999 V2000
  -34.8368   -9.0433  145.5973 N   0  0  0  0  0  0  0  0  0  0  0  0
  -33.6067   -9.9840  145.6443 C   0  0  0  0  0  0  0  0  0  0  0  0
  -35.6471   -9.4853  144.4070 C   0  0  0  0  0  0  0  0  0  0  0  0
  -32.2343   -9.8757  144.5897 C   0  0  0  0  0  0  0  0  0  0  0  0
  -33.1239  -10.0603  147.1695 C   0  0  0  0  0  0  0  0  0  0  0  0
  -32.4767   -9.2496  143.1039 C   0  0  0  0  0  0  0  0  0  0  0  0
  -32.7513   -8.7556  148.1582 C   0  0  0  0  0  0  0  0  0  0  0  0
  -29.9811   -8.1128  143.8019 C   0  0  0  0  0  0  0  0  0  0  0  0
  -32.1170   -7.8359  143.7613 C   0  0  0  0  0  0  0  0  0  0  0  0
  -31.2723   -8.6826  144.7045 C   0  0  0  0  0  0  0  0  0  0  0  0
  -35.8641  -10.9760  144.2293 N   0  0  0  0  0  0  0  0  0  0  0  0
  -35.2868  -12.1205  143.4668 C   0  0  0  0  0  0  0  0  0  0  0  0
  -35.5096  -13.1981  144.4418 N   0  0  0  0  0  2  0  0  0  0  0  0
  -33.0534  -13.3515  143.3147 C   0  0  0  0  0  0  0  0  0  0  0  0
  -33.8026  -12.0694  143.1555 N   0  0  0  0  0  2  0  0  0  0  0  0
  -33.9867   -8.8459  149.1659 C   0  0  0  0  0  0  0  0  0  0  0  0
  -34.6759   -7.6707  149.5422 O   0  0  0  0  0  0  0  0  0  0  0  0
  -33.8653   -6.5326  149.6633 C   0  0  0  0  0  0  0  0  0  0  0  0
  -31.6677  -10.2673  149.7323 C   0  0  0  0  0  0  0  0  0  0  0  0
  -32.5451  -11.1929  150.7051 C   0  0  0  0  0  0  0  0  0  0  0  0
  -32.7735  -12.4658  150.0851 C   0  0  0  0  0  0  0  0  0  0  0  0
  -33.0520  -13.2966  151.1683 C   0  0  0  0  0  0  0  0  0  0  0  0
  -31.9925  -12.3173  151.3259 N   0  0  0  0  0  0  0  0  0  0  0  0
  -30.8018   -9.1412  150.4075 C   0  0  0  0  0  0  0  0  0  0  0  0
  -33.6639   -5.5912  148.3942 C   0  0  0  0  0  0  0  0  0  0  0  0
  -32.0914   -8.2893  150.6889 C   0  0  0  0  0  0  0  0  0  0  0  0
  -32.6396   -9.0911  149.5745 C   0  0  0  0  0  0  0  0  0  0  0  0
  -32.5163   -6.6977  150.4492 C   0  0  0  0  0  0  0  0  0  0  0  0
  -34.2562   -6.2179  147.1766 C   0  0  0  0  0  0  0  0  0  0  0  0
  -30.9385   -7.0331  143.2619 C   0  0  0  0  0  0  0  0  0  0  0  0
  -32.7581   -6.0556  147.1948 C   0  0  0  0  0  0  0  0  0  0  0  0
  2  1  1  0
  3  1  1  0
  4  2  1  0
  5  2  1  0
  6  4  1  0
  7  5  1  0
  9  6  1  0
 10  4  1  0
 10  8  1  0
 10  9  1  0
 11  3  1  0
 12 11  1  0
 13 12  1  0
 15 12  1  0
 15 14  1  0
 16  7  1  0
 17 16  1  0
 18 17  1  0
 20 19  1  0
 21 20  1  0
 22 21  1  0
 23 20  1  0
 23 21  1  0
 23 22  1  0
 24 19  1  0
 25 18  1  0
 26 24  1  0
 27  7  1  0
 27 16  1  0
 27 19  1  0
 27 26  1  0
 28 18  1  0
 28 26  1  0
 29 25  1  0
 30  8  1  0
 30  9  1  0
 31 25  1  0
 31 29  1  0
M  RAD  2  13   2  15   2
M  END
$$$$

     RDKit          3D

 31 35  0  0  0  0  0  0  0  0999 V2000
  -32.7189    1.0930  139.4808 O   0  0  0  0  0  0  0  0  0  0  0  0
  -33.7162    1.9712  139.1189 C   0  0  0  0  0  0  0  0  0  0  0  0
  -33.9985    2.1467  137.8960 O   0  0  0  0  0  0  0  0  0  0  0  0
  -32.0843    0.2004  138.5704 C   0  0  0  0  0  0  0  0  0  0  0  0
  -32.8356   -1.1146  138.2773 C   0  0  0  0  0  0  0  0  0  0  0  0
  -31.5882   -1.0998  139.2164 C   0  0  0  0  0  0  0  0  0  0  0  0
  -32.9301   -0.9571  136.3009 Br  0  0  0  0  0  0  0  0  0  0  0  0
  -33.8342   -5.2817  141.0995 F   0  0  0  0  0  0  0  0  0  0  0  0
  -30.5140   -1.7935  138.4956 N   0  0  0  0  0  0  0  0  0  0  0  0
  -29.5326   -2.6398  139.2765 C   0  0  0  0  0  0  0  0  0  0  0  0
  -30.1305   -3.9171  139.9650 C   0  0  0  0  0  0  0  0  0  0  0  0
  -29.2284   -4.5708  141.0073 C   0  0  0  0  0  0  0  0  0  0  0  0
  -28.7509   -1.8702  140.2736 N   0  0  0  0  0  0  0  0  0  0  0  0
  -28.8321   -0.4292  140.0334 C   0  0  0  0  0  0  0  0  0  0  0  0
  -31.9016   -2.3072  138.5257 C   0  0  0  0  0  0  0  0  0  0  0  0
  -27.5325    0.3368  139.7223 C   0  0  0  0  0  0  0  0  0  0  0  0
  -29.7055   -5.9558  140.9856 N   0  0  0  0  0  0  0  0  0  0  0  0
  -30.2161   -6.2109  139.7110 N   0  0  0  0  0  0  0  0  0  0  0  0
  -30.4188   -7.8954  142.1249 C   0  0  0  0  0  0  0  0  0  0  0  0
  -29.2710   -8.3942  142.7552 O   0  0  0  0  0  0  0  0  0  0  0  0
  -30.4084   -6.4285  142.1130 N   0  0  0  0  0  0  0  0  0  0  0  0
  -34.0768    0.0276  142.3898 O   0  0  0  0  0  0  0  0  0  0  0  0
  -30.3987   -5.0989  139.0761 C   0  0  0  0  0  0  0  0  0  0  0  0
  -28.3931   -0.1005  138.5596 C   0  0  0  0  0  0  0  0  0  0  0  0
  -33.6057   -0.9743  141.8615 C   0  0  0  0  0  0  0  0  0  0  0  0
  -32.6240   -1.8472  142.6250 C   0  0  0  0  0  0  0  0  0  0  0  0
  -30.8201    0.0245  141.9365 C   0  0  0  0  0  0  0  0  0  0  0  0
  -33.7772   -3.8728  141.2728 C   0  0  0  0  0  0  0  0  0  0  0  0
  -29.4458    0.3821  141.2541 C   0  0  0  0  0  0  0  0  0  0  0  0
  -32.9317   -3.4052  142.5223 C   0  0  0  0  0  0  0  0  0  0  0  0
  -31.0897   -1.4189  142.4616 C   0  0  0  0  0  0  0  0  0  0  0  0
  2  1  1  0
  3  2  2  0
  4  1  1  0
  5  4  1  0
  6  4  1  0
  6  5  1  0
  7  5  1  0
  9  6  1  0
 10  9  1  0
 11 10  1  0
 12 11  1  0
 13 10  1  0
 14 13  1  0
 15  5  1  0
 15  6  1  0
 15  9  1  0
 16 14  1  0
 17 12  1  0
 18 17  1  0
 20 19  1  0
 21 17  1  0
 21 19  1  0
 23 11  1  0
 23 18  2  0
 24 14  1  0
 24 16  1  0
 25 22  2  0
 26 25  1  0
 28  8  1  0
 29 14  1  0
 29 27  1  0
 30 26  1  0
 30 28  1  0
 31 26  1  0
 31 27  1  0
M  END
$$$$

     RDKit          3D

 30 38  0  0  0  0  0  0  0  0999 V2000
  -30.1134  -21.2918  146.9973 C   0  0  0  0  0  0  0  0  0  0  0  0
  -30.3275  -21.6509  145.5343 C   0  0  0  0  0  0  0  0  0  0  0  0
  -30.0891  -21.2632  144.2007 O   0  0  0  0  0  0  0  0  0  0  0  0
  -30.8467  -20.0205  147.5384 C   0  0  0  0  0  0  0  0  0  0  0  0
  -32.3983  -19.9638  147.6210 C   0  0  0  0  0  0  0  0  0  0  0  0
  -32.7575  -18.8662  148.4382 O   0  0  0  0  0  0  0  0  0  0  0  0
  -31.0811  -22.9093  145.8350 C   0  0  0  0  0  0  0  0  0  0  0  0
  -33.0943  -19.3945  146.3498 C   0  0  0  0  0  0  0  0  0  0  0  0
  -34.4021  -20.0207  145.8225 C   0  0  0  0  0  0  0  0  0  0  0  0
  -34.0539  -21.0170  144.6979 C   0  0  0  0  0  0  0  0  0  0  0  0
  -34.6343  -19.6480  144.3713 C   0  0  0  0  0  0  0  0  0  0  0  0
  -36.0112  -19.7461  143.8711 N   0  0  0  0  0  0  0  0  0  0  0  0
  -36.8312  -18.5696  144.2050 C   0  0  0  0  0  0  0  0  0  0  0  0
  -39.1037  -17.4975  143.5441 C   0  0  0  0  0  0  0  0  0  0  0  0
  -39.7794  -18.0306  144.8026 C   0  0  0  0  0  0  0  0  0  0  0  0
  -37.8583  -18.2745  143.0624 C   0  0  0  0  0  0  0  0  0  0  0  0
  -40.4140  -18.2651  143.4449 C   0  0  0  0  0  0  0  0  0  0  0  0
  -30.7765  -22.6448  147.3229 C   0  0  0  0  0  0  0  0  0  0  0  0
  -37.5373  -18.7668  145.5854 C   0  0  0  0  0  0  0  0  0  0  0  0
  -34.6243  -21.5027  146.0228 C   0  0  0  0  0  0  0  0  0  0  0  0
  -26.4768  -22.1685  143.7337 S   0  0  0  0  0  0  0  0  0  0  0  0
  -27.9119  -19.0114  146.0379 C   0  0  0  0  0  0  0  0  0  0  0  0
  -27.1141  -20.2462  145.6149 C   0  0  0  0  0  0  0  0  0  0  0  0
  -27.7563  -21.0563  144.4892 C   0  0  0  0  0  0  0  0  0  0  0  0
  -29.0074  -21.9245  144.8243 C   0  0  0  0  0  0  0  0  0  0  0  0
  -33.3850  -18.2990  147.3345 C   0  0  0  0  0  0  0  0  0  0  0  0
  -39.0093  -19.1802  145.4632 C   0  0  0  0  0  0  0  0  0  0  0  0
  -34.6612  -17.5035  147.4822 C   0  0  0  0  0  0  0  0  0  0  0  0
  -34.4207  -16.0256  147.6877 C   0  0  0  0  0  0  0  0  0  0  0  0
  -33.2965  -16.8325  147.0647 C   0  0  0  0  0  0  0  0  0  0  0  0
  2  1  1  0
  3  2  1  0
  4  1  1  0
  5  4  1  0
  6  5  1  0
  7  2  1  0
  8  5  1  0
  9  8  1  0
 10  9  1  0
 11  9  1  0
 11 10  1  0
 12 11  1  0
 13 12  1  0
 15 14  1  0
 16 13  1  0
 16 14  1  0
 17 14  1  0
 17 15  1  0
 18  1  1  0
 18  7  1  0
 19 13  1  0
 20  9  1  0
 20 10  1  0
 23 22  1  0
 24 21  1  0
 24 23  1  0
 25  2  1  0
 25  3  1  0
 25 24  1  0
 26  6  1  0
 26  8  1  0
 27 15  1  0
 27 19  1  0
 28 26  1  0
 29 28  1  0
 30 26  1  0
 30 28  1  0
 30 29  1  0
M  END
$$$$

     RDKit          3D

 17 21  0  0  0  0  0  0  0  0999 V2000
  -29.5734    0.2273  135.7988 C   0  0  0  0  0  0  0  0  0  0  0  0
  -29.2248   -0.4202  137.1785 C   0  0  0  0  0  0  0  0  0  0  0  0
  -29.1934   -0.7574  134.6482 C   0  0  0  0  0  0  0  0  0  0  0  0
  -28.4185   -1.7075  136.9012 C   0  0  0  0  0  0  0  0  0  0  0  0
  -28.8340   -3.0762  137.5091 C   0  0  0  0  0  0  0  0  0  0  0  0
  -28.5831    0.8828  136.7931 C   0  0  0  0  0  0  0  0  0  0  0  0
  -29.3347   -3.3152  139.9947 C   0  0  0  0  0  0  0  0  0  0  0  0
  -30.6230   -5.4693  138.1128 C   0  0  0  0  0  0  0  0  0  0  0  0
  -29.9463   -3.0427  138.6414 C   0  0  0  0  0  0  0  0  0  0  0  0
  -31.0982   -4.0374  138.3789 C   0  0  0  0  0  0  0  0  0  0  0  0
  -28.3596   -0.0515  133.5751 C   0  0  0  0  0  0  0  0  0  0  0  0
  -28.9526    1.1350  133.0932 O   0  0  0  0  0  0  0  0  0  0  0  0
  -29.6020   -2.8043  141.2553 C   0  0  0  0  0  0  0  0  0  0  0  0
  -29.5774   -1.2835  136.0184 C   0  0  0  0  0  0  0  0  0  0  0  0
  -27.0621    0.8448  136.6247 C   0  0  0  0  0  0  0  0  0  0  0  0
  -27.8095    2.1754  136.6072 C   0  0  0  0  0  0  0  0  0  0  0  0
  -27.9208    2.8769  135.2816 C   0  0  0  0  0  0  0  0  0  0  0  0
  2  1  1  0
  3  1  1  0
  4  2  1  0
  5  4  1  0
  6  1  1  0
  6  2  1  0
  9  5  1  0
  9  7  1  0
 10  8  1  0
 10  9  1  0
 11  3  1  0
 12 11  1  0
 13  7  2  0
 14  1  1  0
 14  2  1  0
 14  3  1  0
 14  4  1  0
 15  6  1  0
 16  6  1  0
 16 15  1  0
 17 16  1  0
M  END
$$$$

     RDKit          3D

 11 13  0  0  0  0  0  0  0  0999 V2000
  -25.7301   -0.2390  145.1106 C   0  0  0  0  0  0  0  0  0  0  0  0
  -25.7464   -0.4616  143.6012 C   0  0  0  0  0  0  0  0  0  0  0  0
  -26.9850    0.4810  145.6402 C   0  0  0  0  0  0  0  0  0  0  0  0
  -24.4659   -0.9721  142.9791 C   0  0  0  0  0  0  0  0  0  0  0  0
  -24.5221    0.4607  143.4626 C   0  0  0  0  0  0  0  0  0  0  0  0
  -28.2363   -0.4136  145.6285 C   0  0  0  0  0  0  0  0  0  0  0  0
  -28.1920   -1.5182  146.7033 C   0  0  0  0  0  0  0  0  0  0  0  0
  -24.5251    0.6774  144.9679 C   0  0  0  0  0  0  0  0  0  0  0  0
  -28.4107   -1.0167  148.1311 C   0  0  0  0  0  0  0  0  0  0  0  0
  -29.4889   -2.3212  146.7942 C   0  0  0  0  0  0  0  0  0  0  0  0
  -29.6967   -1.8263  148.2188 C   0  0  0  0  0  0  0  0  0  0  0  0
  2  1  1  0
  3  1  1  0
  4  2  1  0
  5  2  1  0
  5  4  1  0
  6  3  1  0
  7  6  1  0
  8  1  1  0
  8  5  1  0
  9  7  1  0
 10  7  1  0
 11  9  1  0
 11 10  1  0
M  END
$$$$

     RDKit          3D

  6  5  0  0  0  0  0  0  0  0999 V2000
  -23.4685   -3.6015  134.0242 C   0  0  0  0  0  0  0  0  0  0  0  0
  -21.1795   -3.4218  136.6988 N   0  0  0  0  0  0  0  0  0  0  0  0
  -25.7516   -4.7133  133.9662 C   0  0  0  0  0  0  0  0  0  0  0  0
  -22.8802   -4.4289  135.0743 N   0  0  0  0  0  0  0  0  0  0  0  0
  -21.9487   -3.8773  135.9640 C   0  0  0  0  0  0  0  0  0  0  0  0
  -24.4795   -4.3914  133.1832 C   0  0  0  0  0  0  0  0  0  0  0  0
  4  1  1  0
  5  2  3  0
  5  4  1  0
  6  1  1  0
  6  3  1  0
M  END
$$$$

     RDKit          3D

 30 33  0  0  0  0  0  0  0  0999 V2000
  -37.3921   -6.0872  141.9568 O   0  0  0  0  0  0  0  0  0  0  0  0
  -38.5138   -6.7798  141.4847 C   0  0  0  0  0  0  0  0  0  0  0  0
  -38.3846   -8.3975  141.3543 C   0  0  0  0  0  0  0  0  0  0  0  0
  -39.3423   -9.3296  140.5738 C   0  0  0  0  0  0  0  0  0  0  0  0
  -39.5520   -9.3112  139.0010 C   0  0  0  0  0  0  0  0  0  0  0  0
  -39.7027  -10.6558  138.4127 N   0  0  0  0  0  0  0  0  0  0  0  0
  -39.3326   -8.5092  142.5339 C   0  0  0  0  0  0  0  0  0  0  0  0
  -39.4737   -6.9451  142.6683 C   0  0  0  0  0  0  0  0  0  0  0  0
  -40.5616   -8.3846  138.1789 C   0  0  0  0  0  0  0  0  0  0  0  0
  -41.9948   -8.9641  138.0535 C   0  0  0  0  0  0  0  0  0  0  0  0
  -42.8681   -8.7801  136.6815 C   0  0  0  0  0  0  0  0  0  0  0  0
  -42.5467   -7.6503  135.5389 C   0  0  0  0  0  0  0  0  0  0  0  0
  -43.1164   -6.0962  135.7801 C   0  0  0  0  0  0  0  0  0  0  0  0
  -42.6421   -9.7330  139.0507 O   0  0  0  0  0  0  0  0  0  0  0  0
  -40.3900   -9.2313  141.6835 C   0  0  0  0  0  0  0  0  0  0  0  0
  -39.0849   -6.4876  144.1622 C   0  0  0  0  0  0  0  0  0  0  0  0
  -41.9972   -5.0046  136.2343 C   0  0  0  0  0  0  0  0  0  0  0  0
  -41.7229   -7.6481  138.7720 C   0  0  0  0  0  0  0  0  0  0  0  0
  -42.4812   -3.6425  136.9904 C   0  0  0  0  0  0  0  0  0  0  0  0
  -37.8523   -6.9687  144.6355 O   0  0  0  0  0  0  0  0  0  0  0  0
  -44.4361   -6.1438  136.5506 C   0  0  0  0  0  0  0  0  0  0  0  0
  -43.5810   -2.8762  136.2046 C   0  0  0  0  0  0  0  0  0  0  0  0
  -43.0906   -8.1681  134.1506 C   0  0  0  0  0  0  0  0  0  0  0  0
  -36.1769   -6.5381  141.3403 C   0  0  0  0  0  0  0  0  0  0  0  0
  -44.2058   -1.8170  137.0694 C   0  0  0  0  0  0  0  0  0  0  0  0
  -44.6856   -2.2105  138.2575 C   0  0  0  0  0  0  0  0  0  0  0  0
  -44.3463   -3.6222  138.7623 C   0  0  0  0  0  0  0  0  0  0  0  0
  -42.8333   -3.8485  138.5136 C   0  0  0  0  0  0  0  0  0  0  0  0
  -44.8778   -3.8974  140.1717 C   0  0  0  0  0  0  0  0  0  0  0  0
  -44.7022   -3.0194  141.1327 C   0  0  0  0  0  0  0  0  0  0  0  0
  2  1  1  0
  3  2  1  0
  4  3  1  0
  5  4  1  0
  6  5  1  0
  7  3  1  0
  8  2  1  0
  8  7  1  0
  9  5  1  0
 10  9  1  0
 11 10  1  0
 12 11  1  0
 13 12  1  0
 14 10  1  0
 15  4  1  0
 15  7  1  0
 16  8  1  0
 17 13  1  0
 18  9  1  0
 18 10  1  0
 19 17  1  0
 20 16  1  0
 21 13  1  0
 22 19  1  0
 23 12  1  0
 24  1  1  0
 25 22  1  0
 26 25  2  0
 27 26  1  0
 28 19  1  0
 28 27  1  0
 29 27  1  0
 30 29  2  0
M  END
$$$$

     RDKit          3D

 31 33  0  0  0  0  0  0  0  0999 V2000
  -28.2324  -17.3093  140.2102 O   0  0  0  0  0  0  0  0  0  0  0  0
  -28.6655  -17.4388  138.8800 C   0  0  0  0  0  0  0  0  0  0  0  0
  -27.3581  -17.7451  138.0900 C   0  0  0  0  0  0  0  0  0  0  0  0
  -27.3985  -17.3386  136.5801 C   0  0  0  0  0  0  0  0  0  0  0  0
  -28.5232  -18.0121  135.6645 C   0  0  0  0  0  0  0  0  0  0  0  0
  -30.4484  -19.8844  135.4942 C   0  0  0  0  0  0  0  0  0  0  0  0
  -27.4448  -16.7252  139.2091 C   0  0  0  0  0  0  0  0  0  0  0  0
  -29.5177  -21.3269  135.4127 C   0  0  0  0  0  0  0  0  0  0  0  0
  -29.4034  -22.9440  134.9266 C   0  0  0  0  0  0  0  0  0  0  0  0
  -28.7392  -22.7241  133.1193 C   0  0  0  0  0  0  0  0  0  0  0  0
  -26.8853  -23.0175  132.7550 C   0  0  0  0  0  0  0  0  0  0  0  0
  -26.9134  -25.7547  132.0684 C   0  0  0  0  0  0  0  0  0  0  0  0
  -26.1541  -22.3555  133.9706 C   0  0  0  0  0  0  0  0  0  0  0  0
  -29.8054  -18.7881  136.3955 C   0  0  0  0  0  0  0  0  0  0  0  0
  -30.4112  -23.5543  136.2022 C   0  0  0  0  0  0  0  0  0  0  0  0
  -26.7324  -19.0369  138.3764 N   0  0  0  0  0  0  0  0  0  0  0  0
  -31.8299  -24.9484  136.0097 C   0  0  0  0  0  0  0  0  0  0  0  0
  -30.6503  -24.7218  136.4745 C   0  0  0  0  0  0  0  0  0  0  0  0
  -33.0232  -24.6054  134.0015 C   0  0  0  0  0  0  0  0  0  0  0  0
  -26.5326  -20.2676  135.3363 C   0  0  0  0  0  0  0  0  0  0  0  0
  -28.2947  -26.0830  132.7151 C   0  0  0  0  0  0  0  0  0  0  0  0
  -24.6139  -20.5630  134.2856 C   0  0  0  0  0  0  0  0  0  0  0  0
  -26.0431  -24.4282  132.2094 C   0  0  0  0  0  0  0  0  0  0  0  0
  -26.0156  -20.8379  134.0638 N   0  0  0  0  0  0  0  0  0  0  0  0
  -32.9496  -22.7136  135.8023 C   0  0  0  0  0  0  0  0  0  0  0  0
  -31.0223  -30.4860  131.2546 C   0  0  0  0  0  0  0  0  0  0  0  0
  -32.2048  -24.0930  135.2621 C   0  0  0  0  0  0  0  0  0  0  0  0
  -30.3232  -29.3210  132.1195 C   0  0  0  0  0  0  0  0  0  0  0  0
  -29.6799  -27.9418  131.6950 N   0  0  0  0  0  0  0  0  0  0  0  0
  -33.0236  -25.1886  137.1436 C   0  0  0  0  0  0  0  0  0  0  0  0
  -28.5942  -27.5471  132.3316 C   0  0  0  0  0  0  0  0  0  0  0  0
  2  1  1  0
  3  2  1  0
  4  3  1  0
  5  4  1  0
  7  1  1  0
  7  2  1  0
  7  3  1  0
  8  6  1  0
  9  8  1  0
 10  9  1  0
 11 10  1  0
 13 11  1  0
 14  5  1  0
 14  6  1  0
 15  9  1  0
 16  3  1  0
 17 15  1  0
 18 15  1  0
 21 12  1  0
 23 11  1  0
 23 12  1  0
 24 13  1  0
 24 20  1  0
 24 22  1  0
 27 17  1  0
 27 18  1  0
 27 19  1  0
 27 25  1  0
 28 26  2  0
 29 28  1  0
 30 17  1  0
 31 21  1  0
 31 29  2  3
M  END
$$$$

     RDKit          3D

 30 32  0  0  0  0  0  0  0  0999 V2000
  -23.8400  -19.2673  150.2434 N   0  0  0  0  0  0  0  0  0  0  0  0
  -24.5656  -18.0687  150.4362 C   0  0  0  0  0  0  0  0  0  0  0  0
  -23.9243  -16.8122  150.7020 N   0  0  0  0  0  0  0  0  0  0  0  0
  -25.8033  -18.1477  150.1036 N   0  0  0  0  0  0  0  0  0  0  0  0
  -24.8183  -20.2666  149.8481 C   0  0  0  0  0  0  0  0  0  0  0  0
  -23.4509  -15.9432  149.6062 C   0  0  0  0  0  0  0  0  0  0  0  0
  -26.0565  -19.4366  149.4586 C   0  0  0  0  0  0  0  0  0  0  0  0
  -24.6611  -15.2793  148.9195 C   0  0  0  0  0  0  0  0  0  0  0  0
  -22.5637  -14.9009  150.1512 N   0  0  0  0  0  0  0  0  0  0  0  0
  -26.2201  -19.1209  147.9388 C   0  0  0  0  0  0  0  0  0  0  0  0
  -22.6560  -16.7486  148.5637 C   0  0  0  0  0  0  0  0  0  0  0  0
  -26.3630  -20.2372  146.8352 C   0  0  0  0  0  0  0  0  0  0  0  0
  -27.0999  -19.5490  145.6163 C   0  0  0  0  0  0  0  0  0  0  0  0
  -26.9789  -20.2501  144.2461 C   0  0  0  0  0  0  0  0  0  0  0  0
  -24.9733  -20.8192  146.3899 C   0  0  0  0  0  0  0  0  0  0  0  0
  -23.9740  -19.7403  146.0104 C   0  0  0  0  0  0  0  0  0  0  0  0
  -27.2401  -21.3876  147.3466 C   0  0  0  0  0  0  0  0  0  0  0  0
  -27.8052  -19.5183  143.1709 C   0  0  0  0  0  0  0  0  0  0  0  0
  -27.5388  -20.0169  141.7245 C   0  0  0  0  0  0  0  0  0  0  0  0
  -27.9236  -21.5006  141.5552 C   0  0  0  0  0  0  0  0  0  0  0  0
  -27.9629  -21.9168  140.0715 C   0  0  0  0  0  0  0  0  0  0  0  0
  -26.0694  -19.7801  141.3068 C   0  0  0  0  0  0  0  0  0  0  0  0
  -22.6506  -19.8268  146.2349 C   0  0  0  0  0  0  0  0  0  0  0  0
  -28.8402  -23.1329  139.7771 C   0  0  0  0  0  0  0  0  0  0  0  0
  -29.2608  -21.7470  139.2704 C   0  0  0  0  0  0  0  0  0  0  0  0
  -30.5042  -21.1503  139.9392 C   0  0  0  0  0  0  0  0  0  0  0  0
  -25.7339  -18.4616  141.0772 C   0  0  0  0  0  0  0  0  0  0  0  0
  -25.4773  -17.2949  141.4675 O   0  0  0  0  0  0  0  0  0  0  0  0
  -21.9975  -20.9947  146.9030 C   0  0  0  0  0  0  0  0  0  0  0  0
  -25.9207  -19.4704  139.9810 O   0  0  0  0  0  0  0  0  0  0  0  0
  2  1  1  0
  3  2  1  0
  4  2  2  0
  5  1  1  0
  6  3  1  0
  7  4  1  0
  7  5  1  0
  8  6  1  0
  9  6  1  0
 10  7  1  0
 11  6  1  0
 12 10  1  0
 13 12  1  0
 14 13  1  0
 15 12  1  0
 16 15  1  0
 17 12  1  0
 18 14  1  0
 19 18  1  0
 20 19  1  0
 21 20  1  0
 22 19  1  0
 23 16  2  3
 24 21  1  0
 25 21  1  0
 25 24  1  0
 26 25  1  0
 27 22  1  0
 28 27  2  0
 29 23  1  0
 30 22  1  0
 30 27  1  0
M  END
$$$$

     RDKit          3D

 21 26  0  0  0  0  0  0  0  0999 V2000
  -26.2031  -16.7395  149.3492 C   0  0  0  0  0  0  0  0  0  0  0  0
  -24.2787  -15.1466  149.6428 C   0  0  0  0  0  0  0  0  0  0  0  0
  -23.0662  -12.7266  146.5338 C   0  0  0  0  0  0  0  0  0  0  0  0
  -25.6551  -16.6080  146.8983 C   0  0  0  0  0  0  0  0  0  0  0  0
  -22.0115  -15.0274  145.9295 C   0  0  0  0  0  0  0  0  0  0  0  0
  -22.4649  -14.1734  148.4246 C   0  0  0  0  0  0  0  0  0  0  0  0
  -23.6044  -16.5147  149.8951 C   0  0  0  0  0  0  0  0  0  0  0  0
  -22.4046  -16.7429  149.1639 C   0  0  0  0  0  0  0  0  0  0  0  0
  -25.2382  -17.0396  148.2562 N   0  0  0  0  0  0  0  0  0  0  0  0
  -20.7574  -15.8453  146.2691 C   0  0  0  0  0  0  0  0  0  0  0  0
  -25.1700  -15.3287  146.4643 O   0  0  0  0  0  0  0  0  0  0  0  0
  -22.8108  -14.1791  147.0337 C   0  0  0  0  0  0  0  0  0  0  0  0
  -27.0583  -15.4712  149.2498 C   0  0  0  0  0  0  0  0  0  0  0  0
  -23.8127  -17.4254  148.6388 C   0  0  0  0  0  0  0  0  0  0  0  0
  -28.3611  -15.4937  150.0819 C   0  0  0  0  0  0  0  0  0  0  0  0
  -25.7566  -15.4461  150.0704 C   0  0  0  0  0  0  0  0  0  0  0  0
  -21.6711  -15.3445  149.0682 C   0  0  0  0  0  0  0  0  0  0  0  0
  -25.1024  -14.4204  147.4404 O   0  0  0  0  0  0  0  0  0  0  0  0
  -22.9018  -15.8209  144.9774 C   0  0  0  0  0  0  0  0  0  0  0  0
  -23.9176  -14.7117  148.1207 C   0  0  0  0  0  0  0  0  0  0  0  0
  -29.1083  -16.8339  150.0137 C   0  0  0  0  0  0  0  0  0  0  0  0
  7  2  1  0
  8  7  1  0
  9  1  1  0
  9  4  1  0
 10  5  1  0
 11  4  1  0
 12  3  1  0
 12  5  1  0
 12  6  1  0
 13  1  1  0
 14  7  1  0
 14  8  1  0
 14  9  1  0
 15 13  1  0
 16  1  1  0
 16  2  1  0
 16 13  1  0
 17  6  1  0
 17  8  1  0
 18 11  1  0
 19  5  1  0
 20  2  1  0
 20  6  1  0
 20 12  1  0
 20 18  1  0
 21 15  1  0
M  END
$$$$

     RDKit          3D

 31 33  0  0  0  0  0  0  0  0999 V2000
  -20.6934    1.1799  131.6562 O   0  0  0  0  0  0  0  0  0  0  0  0
  -21.1758    2.4428  131.2702 C   0  0  0  0  0  0  0  0  0  0  0  0
  -22.2533    2.3264  130.2051 C   0  0  0  0  0  0  0  0  0  0  0  0
  -22.6305    2.7153  131.6258 C   0  0  0  0  0  0  0  0  0  0  0  0
  -20.4692    1.1911  133.0491 C   0  0  0  0  0  0  0  0  0  0  0  0
  -21.1256    0.0135  133.7581 C   0  0  0  0  0  0  0  0  0  0  0  0
  -21.5018    0.2294  135.2310 C   0  0  0  0  0  0  0  0  0  0  0  0
  -21.7209   -1.1227  135.9308 C   0  0  0  0  0  0  0  0  0  0  0  0
  -19.6244   -0.0011  133.4902 C   0  0  0  0  0  0  0  0  0  0  0  0
  -19.6139   -1.4944  137.2254 C   0  0  0  0  0  0  0  0  0  0  0  0
  -18.7540   -0.3683  136.9645 N   0  0  0  0  0  0  0  0  0  0  0  0
  -17.5518   -0.1958  137.4527 C   0  0  0  0  0  0  0  0  0  0  0  0
  -16.8841    1.0245  137.1398 N   0  0  0  0  0  0  0  0  0  0  0  0
  -16.9335    2.1614  138.0111 C   0  0  0  0  0  0  0  0  0  0  0  0
  -16.9630   -1.1595  138.3675 N   0  0  0  0  0  0  0  0  0  0  0  0
  -15.5275   -1.4111  138.7087 C   0  0  0  0  0  0  0  0  0  0  0  0
  -14.6025   -1.5946  137.4332 C   0  0  0  0  0  0  0  0  0  0  0  0
  -20.9396   -1.3699  137.2002 C   0  0  0  0  0  0  0  0  0  0  0  0
  -15.2314   -1.3696  136.0863 C   0  0  0  0  0  0  0  0  0  0  0  0
  -14.9886   -0.2304  139.5836 C   0  0  0  0  0  0  0  0  0  0  0  0
  -15.3515   -0.3785  141.0634 C   0  0  0  0  0  0  0  0  0  0  0  0
  -14.6831   -0.5599  135.1741 C   0  0  0  0  0  0  0  0  0  0  0  0
  -16.0828    3.2834  137.7547 N   0  0  0  0  0  0  0  0  0  0  0  0
  -14.7284    3.3437  138.2953 C   0  0  0  0  0  0  0  0  0  0  0  0
  -14.6287   -1.5856  141.6812 C   0  0  0  0  0  0  0  0  0  0  0  0
  -14.3518   -2.7148  140.6467 C   0  0  0  0  0  0  0  0  0  0  0  0
  -14.2252   -4.0793  141.3311 C   0  0  0  0  0  0  0  0  0  0  0  0
  -15.4546   -2.7432  139.5625 C   0  0  0  0  0  0  0  0  0  0  0  0
  -13.7839    2.4260  137.5071 C   0  0  0  0  0  0  0  0  0  0  0  0
  -17.6285    2.1274  139.1046 N   0  0  0  0  0  0  0  0  0  0  0  0
  -12.4355    2.2467  138.2030 C   0  0  0  0  0  0  0  0  0  0  0  0
  2  1  1  0
  3  2  1  0
  4  2  1  0
  4  3  1  0
  5  1  1  0
  6  5  1  0
  7  6  1  0
  8  7  1  0
  9  5  1  0
  9  6  1  0
 11 10  1  0
 12 11  2  3
 13 12  1  0
 14 13  1  0
 15 12  1  0
 16 15  1  0
 17 16  1  0
 18  8  1  0
 18 10  2  3
 19 17  1  0
 20 16  1  0
 21 20  1  0
 22 19  2  0
 23 14  1  0
 24 23  1  0
 25 21  1  0
 26 25  1  0
 27 26  1  0
 28 16  1  0
 28 26  1  0
 29 24  1  0
 30 14  2  0
 31 29  1  0
M  END
$$$$

     RDKit          3D

 31 36  0  0  0  0  0  0  0  0999 V2000
  -29.7603  -11.5859  133.2670 O   0  0  0  0  0  0  0  0  0  0  0  0
  -29.3344  -11.5067  134.6026 C   0  0  0  0  0  0  0  0  0  0  0  0
  -29.6867  -12.7665  135.3511 C   0  0  0  0  0  0  0  0  0  0  0  0
  -27.7870  -12.6178  136.3700 C   0  0  0  0  0  0  0  0  0  0  0  0
  -26.8448  -13.8126  136.5898 C   0  0  0  0  0  0  0  0  0  0  0  0
  -25.5011  -13.5522  135.9671 C   0  0  0  0  0  0  0  0  0  0  0  0
  -25.0766  -14.2416  134.8953 C   0  0  0  0  0  0  0  0  0  0  0  0
  -23.7523  -13.9474  134.2446 C   0  0  0  0  0  0  0  0  0  0  0  0
  -28.2331  -12.4896  134.9154 C   0  0  0  0  0  0  0  0  0  0  0  0
  -29.2180  -12.8842  136.7927 C   0  0  0  0  0  0  0  0  0  0  0  0
  -29.8687  -10.2936  132.7199 C   0  0  0  0  0  0  0  0  0  0  0  0
  -22.5676  -14.3973  135.1274 C   0  0  0  0  0  0  0  0  0  0  0  0
  -21.7387  -13.2086  135.6224 C   0  0  0  0  0  0  0  0  0  0  0  0
  -31.2419   -9.8945  132.1279 C   0  0  0  0  0  0  0  0  0  0  0  0
  -32.5576  -10.7182  132.4119 C   0  0  0  0  0  0  0  0  0  0  0  0
  -29.9118  -10.3988  130.7292 Al  0  0  0  0  0  3  0  0  0  0  0  0
  -33.7923   -9.9820  131.6481 C   0  0  0  0  0  0  0  0  0  0  0  0
  -34.5703   -8.9722  132.5584 C   0  0  0  0  0  0  0  0  0  0  0  0
  -34.6672  -10.6303  130.4650 C   0  0  0  0  0  0  0  0  0  0  0  0
  -32.4224  -12.2170  132.0437 C   0  0  0  0  0  0  0  0  0  0  0  0
  -35.9039   -9.3652  133.2210 C   0  0  0  0  0  0  0  0  0  0  0  0
  -36.4788  -10.7751  133.0130 C   0  0  0  0  0  0  0  0  0  0  0  0
  -36.6153   -8.2713  132.4119 C   0  0  0  0  0  0  0  0  0  0  0  0
  -35.2862   -7.8270  131.8184 C   0  0  0  0  0  0  0  0  0  0  0  0
  -32.7253  -10.6991  134.2493 S   0  0  0  0  0  0  0  0  0  0  0  0
  -35.0227  -12.1172  130.2615 C   0  0  0  0  0  0  0  0  0  0  0  0
  -36.4820  -12.5595  129.9337 C   0  0  0  0  0  0  0  0  0  0  0  0
  -37.6238  -11.5779  129.6578 C   0  0  0  0  0  0  0  0  0  0  0  0
  -36.9529  -12.2793  128.5027 C   0  0  0  0  0  0  0  0  0  0  0  0
  -33.8633  -10.8575  129.2020 C   0  0  0  0  0  0  0  0  0  0  0  0
  -34.2175  -12.2163  129.1068 O   0  0  0  0  0  0  0  0  0  0  0  0
  2  1  1  0
  3  2  1  0
  5  4  1  0
  6  5  1  0
  7  6  2  3
  8  7  1  0
  9  2  1  0
  9  3  1  0
  9  4  1  0
 10  3  1  0
 10  4  1  0
 11  1  1  0
 12  8  1  0
 13 12  1  0
 14 11  1  0
 15 14  1  0
 16 11  1  0
 16 14  1  0
 17 15  1  0
 18 17  1  0
 19 17  1  0
 20 15  1  0
 21 18  1  0
 22 21  1  0
 23 21  1  0
 24 18  1  0
 24 23  1  0
 25 15  1  0
 26 19  1  0
 27 26  1  0
 28 27  1  0
 29 27  1  0
 29 28  1  0
 30 19  1  0
 31 26  1  0
 31 30  1  0
M  END
$$$$

     RDKit          3D

 21 24  0  0  0  0  0  0  0  0999 V2000
  -29.1745  -20.6437  140.6487 O   0  0  0  0  0  0  0  0  0  0  0  0
  -32.3542  -18.7562  139.5244 C   0  0  0  0  0  0  0  0  0  0  0  0
  -32.2529  -19.1293  140.8823 O   0  0  0  0  0  0  0  0  0  0  0  0
  -30.4624  -20.5848  140.0852 C   0  0  0  0  0  0  0  0  0  0  0  0
  -33.0121  -21.1802  138.5780 C   0  0  0  0  0  0  0  0  0  0  0  0
  -31.6384  -21.3691  137.8700 C   0  0  0  0  0  0  0  0  0  0  0  0
  -29.8974  -22.4981  138.4603 C   0  0  0  0  0  0  0  0  0  0  0  0
  -29.3290  -20.8007  141.9586 F   0  0  0  0  0  0  0  0  0  0  0  0
  -30.3464  -21.0417  138.6261 C   0  0  0  0  0  0  0  0  0  0  0  0
  -35.2694  -18.1047  138.8335 N   0  0  0  0  0  0  0  0  0  0  0  0
  -36.2561  -16.8188  137.1370 O   0  0  0  0  0  0  0  0  0  0  0  0
  -30.0779  -18.0305  140.6902 C   0  0  0  0  0  0  0  0  0  0  0  0
  -33.3379  -19.6703  138.7380 C   0  0  0  0  0  0  0  0  0  0  0  0
  -36.8510  -16.8430  135.8603 C   0  0  0  0  0  0  0  0  0  0  0  0
  -29.8165  -16.8887  139.7169 C   0  0  0  0  0  0  0  0  0  0  0  0
  -31.0371  -19.1413  140.1614 C   0  0  0  0  0  0  0  0  0  0  0  0
  -33.3256  -22.0312  139.8383 C   0  0  0  0  0  0  0  0  0  0  0  0
  -35.9587  -18.1397  137.5372 C   0  0  0  0  0  0  0  0  0  0  0  0
  -31.1641  -22.8084  137.6670 C   0  0  0  0  0  0  0  0  0  0  0  0
  -30.5882  -16.6269  141.0054 C   0  0  0  0  0  0  0  0  0  0  0  0
  -34.7914  -19.4425  139.2226 C   0  0  0  0  0  0  0  0  0  0  0  0
  3  2  1  0
  4  1  1  0
  6  5  1  0
  8  1  1  0
  9  4  1  0
  9  6  1  0
  9  7  1  0
 13  2  1  0
 13  5  1  0
 14 11  1  0
 15 12  1  0
 16  2  1  0
 16  3  1  0
 16  4  1  0
 16 12  1  0
 17  5  1  0
 18 10  1  0
 18 11  1  0
 19  6  1  0
 19  7  1  0
 20 12  1  0
 20 15  1  0
 21 10  1  0
 21 13  1  0
M  END
$$$$

     RDKit          3D

 31 37  0  0  0  0  0  0  0  0999 V2000
  -25.6351    2.0590  140.8311 O   0  0  0  0  0  0  0  0  0  0  0  0
  -25.6925    3.2837  140.5386 C   0  0  0  0  0  0  0  0  0  0  0  0
  -26.5260    3.6879  139.4957 O   0  0  0  0  0  0  0  0  0  0  0  0
  -24.8157    4.2491  141.2912 C   0  0  0  0  0  0  0  0  0  0  0  0
  -25.3714    5.6538  141.3845 C   0  0  0  0  0  0  0  0  0  0  0  0
  -24.4645    6.8504  141.0947 C   0  0  0  0  0  0  0  0  0  0  0  0
  -24.5593    7.2884  139.6159 C   0  0  0  0  0  0  0  0  0  0  0  0
  -26.6287    5.8595  141.8146 C   0  0  0  0  0  0  0  0  0  0  0  0
  -24.0494    6.2184  138.6847 C   0  0  0  0  0  0  0  0  0  0  0  0
  -24.7552    5.8257  137.6172 C   0  0  0  0  0  0  0  0  0  0  0  0
  -27.1458    7.2217  142.0249 C   0  0  0  0  0  0  0  0  0  0  0  0
  -24.2850    4.7138  136.7130 C   0  0  0  0  0  0  0  0  0  0  0  0
  -24.1420    5.1885  135.2642 C   0  0  0  0  0  0  0  0  0  0  0  0
  -25.4929    5.6873  134.7149 C   0  0  0  0  0  0  0  0  0  0  0  0
  -25.4911    5.9774  133.2308 C   0  0  0  0  0  0  0  0  0  0  0  0
  -26.3075    8.2590  142.0845 C   0  0  0  0  0  0  0  0  0  0  0  0
  -24.8185    8.0293  142.0321 C   0  0  0  0  0  0  0  0  0  0  0  0
  -26.6231    5.9499  132.2070 C   0  0  0  0  0  0  0  0  0  0  0  0
  -26.5176    7.3709  131.5996 C   0  0  0  0  0  0  0  0  0  0  0  0
  -26.5857    7.1088  133.0839 C   0  0  0  0  0  0  0  0  0  0  0  0
  -27.9829    9.4764  131.9109 C   0  0  0  0  0  0  0  0  0  0  0  0
  -26.7744   10.4333  132.1762 C   0  0  0  0  0  0  0  0  0  0  0  0
  -26.0378   11.0140  130.9320 C   0  0  0  0  0  0  0  0  0  0  0  0
  -25.8706   10.1077  129.7011 C   0  0  0  0  0  0  0  0  0  0  0  0
  -27.2029    9.6787  129.0716 C   0  0  0  0  0  0  0  0  0  0  0  0
  -27.7396    8.3339  129.5931 C   0  0  0  0  0  0  0  0  0  0  0  0
  -27.7555    8.1476  131.1300 C   0  0  0  0  0  0  0  0  0  0  0  0
  -25.8607   10.0742  133.4016 C   0  0  0  0  0  0  0  0  0  0  0  0
  -24.5363    9.3149  133.1122 C   0  0  0  0  0  0  0  0  0  0  0  0
  -24.3014    8.0260  133.9498 C   0  0  0  0  0  0  0  0  0  0  0  0
  -25.5502    7.1285  134.1630 C   0  0  0  0  0  0  0  0  0  0  0  0
  2  1  2  0
  3  2  1  0
  4  2  1  0
  5  4  1  0
  6  5  1  0
  7  6  1  0
  8  5  2  0
  9  7  1  0
 10  9  2  3
 11  8  1  0
 12 10  1  0
 13 12  1  0
 14 13  1  0
 15 14  1  0
 16 11  2  0
 17  6  1  0
 17 16  1  0
 18 15  1  0
 19 18  1  0
 20 15  1  0
 20 18  1  0
 20 19  1  0
 22 21  1  0
 23 22  1  0
 24 23  1  0
 25 24  1  0
 26 25  1  0
 27 19  1  0
 27 21  1  0
 27 26  1  0
 28 22  1  0
 29 28  1  0
 30 29  1  0
 31 14  1  0
 31 15  1  0
 31 20  1  0
 31 30  1  0
M  END
$$$$

     RDKit          3D

 28 30  0  0  0  0  0  0  0  0999 V2000
  -23.1719    3.5010  134.7752 C   0  0  0  0  0  0  0  0  0  0  0  0
  -22.2331    2.4943  133.9694 C   0  0  0  0  0  0  0  0  0  0  0  0
  -21.9058    1.0140  134.4641 C   0  0  0  0  0  0  0  0  0  0  0  0
  -23.6662    0.0996  132.6419 C   0  0  0  0  0  0  0  0  0  0  0  0
  -22.2846   -1.5297  134.0870 C   0  0  0  0  0  0  0  0  0  0  0  0
  -22.6309    4.2855  137.2315 C   0  0  0  0  0  0  0  0  0  0  0  0
  -21.7935   -1.9362  135.4130 C   0  0  0  0  0  0  0  0  0  0  0  0
  -22.9812   -0.1230  134.0861 C   0  0  0  0  0  0  0  0  0  0  0  0
  -23.2770    5.5978  137.6502 C   0  0  0  0  0  0  0  0  0  0  0  0
  -23.4193    3.2905  136.3098 C   0  0  0  0  0  0  0  0  0  0  0  0
  -20.4967   -1.9999  135.7315 C   0  0  0  0  0  0  0  0  0  0  0  0
  -24.8836    2.7959  136.6483 C   0  0  0  0  0  0  0  0  0  0  0  0
  -20.0489   -2.5639  137.0815 C   0  0  0  0  0  0  0  0  0  0  0  0
  -26.4425    3.7260  138.6085 C   0  0  0  0  0  0  0  0  0  0  0  0
  -20.6069   -1.7507  138.2873 C   0  0  0  0  0  0  0  0  0  0  0  0
  -22.7440    6.2110  138.9402 C   0  0  0  0  0  0  0  0  0  0  0  0
  -24.1191    0.0303  135.1137 C   0  0  0  0  0  0  0  0  0  0  0  0
  -25.2834    3.4050  139.5071 C   0  0  0  0  0  0  0  0  0  0  0  0
  -24.1680    5.5872  138.9358 C   0  0  0  0  0  0  0  0  0  0  0  0
  -20.9963    3.0932  133.2192 C   0  0  0  0  0  0  0  0  0  0  0  0
  -24.2780    4.2635  139.6950 C   0  0  0  0  0  0  0  0  0  0  0  0
  -21.3921    4.0044  132.0499 C   0  0  0  0  0  0  0  0  0  0  0  0
  -22.1017    3.5805  130.9986 C   0  0  0  0  0  0  0  0  0  0  0  0
  -20.3916   -0.3053  138.2491 C   0  0  0  0  0  0  0  0  0  0  0  0
  -20.3658   -4.0457  137.2162 C   0  0  0  0  0  0  0  0  0  0  0  0
  -26.1836    3.4532  137.1202 C   0  0  0  0  0  0  0  0  0  0  0  0
  -19.5717   -1.1153  139.0578 O   0  0  0  0  0  0  0  0  0  0  0  0
  -25.4445   -0.6337  134.6994 C   0  0  0  0  0  0  0  0  0  0  0  0
  2  1  1  0
  3  2  1  0
  7  5  1  0
  8  3  1  0
  8  4  1  0
  8  5  1  0
  9  6  1  0
 10  1  1  0
 10  6  1  0
 11  7  2  3
 12 10  1  0
 13 11  1  0
 15 13  1  0
 16  9  1  0
 17  8  1  0
 18 14  1  0
 19  9  1  0
 19 16  1  0
 20  2  1  0
 21 18  2  3
 21 19  1  0
 22 20  1  0
 23 22  2  0
 24 15  1  0
 25 13  1  0
 26 12  1  0
 26 14  1  0
 27 15  1  0
 27 24  1  0
 28 17  1  0
M  END
$$$$

     RDKit          3D

 31 34  0  0  0  0  0  0  0  0999 V2000
  -24.8013   -2.2246  141.6685 O   0  0  0  0  0  0  0  0  0  0  0  0
  -26.3432   -3.3671  140.2026 C   0  0  0  0  0  0  0  0  0  0  0  0
  -27.4876   -3.5455  141.3020 C   0  0  0  0  0  0  0  0  0  0  0  0
  -27.1201   -4.6348  137.8130 C   0  0  0  0  0  0  0  0  0  0  0  0
  -26.7945   -3.3559  138.6595 C   0  0  0  0  0  0  0  0  0  0  0  0
  -25.9179   -5.5138  137.2270 C   0  0  0  0  0  0  0  0  0  0  0  0
  -25.4068   -2.1927  140.3955 C   0  0  0  0  0  0  0  0  0  0  0  0
  -25.0541   -6.2357  138.2884 C   0  0  0  0  0  0  0  0  0  0  0  0
  -25.4986   -4.4984  140.2751 F   0  0  0  0  0  0  0  0  0  0  0  0
  -24.9783   -4.9975  136.0187 C   0  0  0  0  0  0  0  0  0  0  0  0
  -23.3736   -6.0050  138.9330 Al  0  0  0  0  0  3  0  0  0  0  0  0
  -28.1608   -2.5905  143.5220 O   0  0  0  0  0  0  0  0  0  0  0  0
  -27.8896   -2.2606  142.1639 C   0  0  0  0  0  0  0  0  0  0  0  0
  -25.4556   -4.9200  134.6513 O   0  0  0  0  0  0  0  0  0  0  0  0
  -24.5608   -1.6926  134.1097 S   0  0  0  0  0  4  0  0  0  0  0  0
  -23.2617   -3.5230  134.1484 C   0  0  0  0  0  0  0  0  0  0  0  0
  -22.7585   -2.0126  133.8143 C   0  0  0  0  0  0  0  0  0  0  0  0
  -21.8423   -1.3721  134.8845 C   0  0  0  0  0  0  0  0  0  0  0  0
  -22.4323   -1.5028  136.3389 C   0  0  0  0  0  0  0  0  0  0  0  0
  -23.9016   -2.0059  136.5329 C   0  0  0  0  0  0  0  0  0  0  0  0
  -24.7033   -0.8529  136.9554 N   0  0  0  0  0  0  0  0  0  0  0  0
  -21.4758    0.1576  134.5180 C   0  0  0  0  0  0  0  0  0  0  0  0
  -21.9587    1.5587  135.0760 C   0  0  0  0  0  0  0  0  0  0  0  0
  -20.4846   -2.2145  134.8426 C   0  0  0  0  0  0  0  0  0  0  0  0
  -20.7162    0.8863  135.6539 C   0  0  0  0  0  0  0  0  0  0  0  0
  -25.0757   -1.5374  135.7325 C   0  0  0  0  0  0  0  0  0  0  0  0
  -23.2950    1.5218  135.8063 C   0  0  0  0  0  0  0  0  0  0  0  0
  -21.5934    2.9172  134.3630 C   0  0  0  0  0  0  0  0  0  0  0  0
  -24.4185    1.6621  135.0776 C   0  0  0  0  0  0  0  0  0  0  0  0
  -24.8041   -3.8794  133.8897 C   0  0  0  0  0  0  0  0  0  0  0  0
  -26.1268   -7.1160  138.5319 O   0  0  0  0  0  0  0  0  0  0  0  0
  3  2  1  0
  5  2  1  0
  5  4  1  0
  6  4  1  0
  7  1  1  0
  7  2  1  0
  8  6  1  0
  9  2  1  0
 10  6  1  0
 11  8  2  0
 13  3  1  0
 13 12  1  0
 14 10  1  0
 15  6  1  0
 15 10  1  0
 17 16  1  0
 18 17  1  0
 19 18  1  0
 20 19  1  0
 21 20  1  0
 22 18  1  0
 23 22  1  0
 24 18  1  0
 25 22  1  0
 25 23  1  0
 26 20  1  0
 26 21  1  0
 27 23  1  0
 28 23  1  0
 29 27  2  0
 30 14  1  0
 30 16  1  0
 31  8  1  0
 31 15  1  0
M  END
$$$$

     RDKit          3D

 11 12  0  0  0  0  0  0  0  0999 V2000
  -30.3215  -11.1659  146.6854 O   0  0  0  0  0  0  0  0  0  0  0  0
  -29.2345  -11.3256  146.0700 C   0  0  0  0  0  0  0  0  0  0  0  0
  -28.7932  -10.3355  145.1957 O   0  0  0  0  0  0  0  0  0  0  0  0
  -28.4392  -12.5819  146.2681 C   0  0  0  0  0  0  0  0  0  0  0  0
  -27.1073  -12.2346  146.5946 O   0  0  0  0  0  0  0  0  0  0  0  0
  -28.4561  -13.4053  145.0039 C   0  0  0  0  0  0  0  0  0  0  0  0
  -27.5067  -14.3298  144.8239 C   0  0  0  0  0  0  0  0  0  0  0  0
  -26.4664  -14.5647  145.8859 C   0  0  0  0  0  0  0  0  0  0  0  0
  -26.3653  -13.4052  146.8926 C   0  0  0  0  0  0  0  0  0  0  0  0
  -25.2609  -13.6316  145.8650 C   0  0  0  0  0  0  0  0  0  0  0  0
  -23.9746  -14.2408  146.4200 C   0  0  0  0  0  0  0  0  0  0  0  0
  2  1  2  0
  3  2  1  0
  4  2  1  0
  5  4  1  0
  6  4  1  0
  7  6  2  0
  8  7  1  0
  9  5  1  0
  9  8  1  0
 10  8  1  0
 10  9  1  0
 11 10  1  0
M  END
$$$$

     RDKit          3D

 31 33  0  0  0  0  0  0  0  0999 V2000
  -29.5652   -6.4560  143.7373 C   0  0  0  0  0  0  0  0  0  0  0  0
  -29.9230   -7.9434  143.2728 C   0  0  0  0  0  0  0  0  0  0  0  0
  -27.4799   -4.6515  144.2433 C   0  0  0  0  0  0  0  0  0  0  0  0
  -26.0110   -4.5625  144.9977 C   0  0  0  0  0  0  0  0  0  0  0  0
  -28.1700   -3.2736  143.9089 C   0  0  0  0  0  0  0  0  0  0  0  0
  -26.1886   -4.7788  146.5322 C   0  0  0  0  0  0  0  0  0  0  0  0
  -29.4061   -8.9878  144.2403 C   0  0  0  0  0  0  0  0  0  0  0  0
  -28.5095   -5.7256  144.7566 C   0  0  0  0  0  0  0  0  0  0  0  0
  -25.9516   -3.4718  147.3225 C   0  0  0  0  0  0  0  0  0  0  0  0
  -28.0495   -8.8491  144.7691 C   0  0  0  0  0  0  0  0  0  0  0  0
  -30.0967   -5.6353  142.5376 C   0  0  0  0  0  0  0  0  0  0  0  0
  -26.5498  -10.6719  143.9332 C   0  0  0  0  0  0  0  0  0  0  0  0
  -29.3765   -9.2412  142.7632 C   0  0  0  0  0  0  0  0  0  0  0  0
  -24.9556   -4.7250  147.4353 C   0  0  0  0  0  0  0  0  0  0  0  0
  -27.4283  -11.5036  142.8800 C   0  0  0  0  0  0  0  0  0  0  0  0
  -27.1122  -11.2291  141.3192 C   0  0  0  0  0  0  0  0  0  0  0  0
  -28.4149  -11.0965  140.3089 C   0  0  0  0  0  0  0  0  0  0  0  0
  -27.3165  -10.1406  145.0921 C   0  0  0  0  0  0  0  0  0  0  0  0
  -25.8824  -11.9681  140.9761 C   0  0  0  0  0  0  0  0  0  0  0  0
  -26.9484  -13.6815  139.4068 C   0  0  0  0  0  0  0  0  0  0  0  0
  -27.9991  -13.4031  138.2146 C   0  0  0  0  0  0  0  0  0  0  0  0
  -25.7996  -12.6272  139.6430 C   0  0  0  0  0  0  0  0  0  0  0  0
  -29.6553  -12.0393  140.5850 C   0  0  0  0  0  0  0  0  0  0  0  0
  -27.4347  -13.2127  136.8303 C   0  0  0  0  0  0  0  0  0  0  0  0
  -27.0478  -14.6092  136.2698 C   0  0  0  0  0  0  0  0  0  0  0  0
  -28.3509  -15.5918  136.0341 C   0  0  0  0  0  0  0  0  0  0  0  0
  -29.6147  -15.4106  135.2204 C   0  0  0  0  0  0  0  0  0  0  0  0
  -27.1452  -15.3676  134.9748 C   0  0  0  0  0  0  0  0  0  0  0  0
  -31.9360  -17.5259  136.9675 C   0  0  0  0  0  0  0  0  0  0  0  0
  -31.3572  -15.7602  136.1842 Al  0  0  0  0  0  3  0  0  0  0  0  0
  -30.0072  -14.3235  134.1927 C   0  0  0  0  0  0  0  0  0  0  0  0
  2  1  1  0
  4  3  1  0
  5  3  1  0
  6  4  1  0
  7  2  1  0
  8  1  1  0
  8  3  1  0
  9  6  1  0
 10  7  1  0
 11  1  1  0
 13  2  1  0
 13  7  1  0
 14  6  1  0
 14  9  1  0
 15 12  1  0
 16 15  1  0
 17 16  1  0
 18 10  1  0
 18 12  1  0
 19 16  1  0
 21 20  1  0
 22 19  1  0
 22 20  1  0
 23 17  1  0
 24 21  1  0
 25 24  1  0
 26 25  1  0
 27 26  1  0
 28 25  1  0
 28 26  1  0
 30 27  1  0
 30 29  1  0
 31 27  1  0
M  END
$$$$

     RDKit          3D

 31 36  0  0  0  0  0  0  0  0999 V2000
  -21.2206  -12.7311  141.8259 O   0  0  0  0  0  0  0  0  0  0  0  0
  -21.7279  -13.6208  142.5544 C   0  0  0  0  0  0  0  0  0  0  0  0
  -21.5372  -14.9588  142.2219 O   0  0  0  0  0  0  0  0  0  0  0  0
  -22.6603  -13.1212  143.6246 C   0  0  0  0  0  0  0  0  0  0  0  0
  -24.0089  -13.8376  143.6456 C   0  0  0  0  0  0  0  0  0  0  0  0
  -25.1160  -12.7708  143.3772 C   0  0  0  0  0  0  0  0  0  0  0  0
  -21.8978  -13.0341  144.9212 C   0  0  0  0  0  0  0  0  0  0  0  0
  -22.1409  -11.6899  145.6139 C   0  0  0  0  0  0  0  0  0  0  0  0
  -24.7705  -12.1163  141.9740 C   0  0  0  0  0  0  0  0  0  0  0  0
  -25.8897  -12.0187  140.9280 C   0  0  0  0  0  0  0  0  0  0  0  0
  -20.8159  -10.9903  146.0484 C   0  0  0  0  0  0  0  0  0  0  0  0
  -25.4438  -11.9280  139.3932 C   0  0  0  0  0  0  0  0  0  0  0  0
  -21.5979  -10.5539  144.7999 C   0  0  0  0  0  0  0  0  0  0  0  0
  -23.0596  -14.0325  144.8257 C   0  0  0  0  0  0  0  0  0  0  0  0
  -21.7307  -11.6547  147.0676 C   0  0  0  0  0  0  0  0  0  0  0  0
  -26.1386  -12.9965  138.4624 C   0  0  0  0  0  0  0  0  0  0  0  0
  -25.5099  -13.4804  137.1444 C   0  0  0  0  0  0  0  0  0  0  0  0
  -26.8196  -14.2712  139.0307 C   0  0  0  0  0  0  0  0  0  0  0  0
  -26.4967  -12.3687  137.1141 C   0  0  0  0  0  0  0  0  0  0  0  0
  -23.9289  -11.8461  139.0920 C   0  0  0  0  0  0  0  0  0  0  0  0
  -23.1391  -11.0265  139.7825 C   0  0  0  0  0  0  0  0  0  0  0  0
  -25.6630  -15.1380  139.6491 C   0  0  0  0  0  0  0  0  0  0  0  0
  -26.0782  -16.3087  140.5409 C   0  0  0  0  0  0  0  0  0  0  0  0
  -25.3286  -11.6878  144.4712 C   0  0  0  0  0  0  0  0  0  0  0  0
  -25.5684  -12.2987  145.7271 O   0  0  0  0  0  0  0  0  0  0  0  0
  -27.3911  -16.3175  141.2385 C   0  0  0  0  0  0  0  0  0  0  0  0
  -23.3144  -12.6396  138.0152 C   0  0  0  0  0  0  0  0  0  0  0  0
  -27.3516  -17.1026  142.5224 C   0  0  0  0  0  0  0  0  0  0  0  0
  -24.0320  -13.2876  137.0892 C   0  0  0  0  0  0  0  0  0  0  0  0
  -25.2528  -17.3726  140.5296 C   0  0  0  0  0  0  0  0  0  0  0  0
  -23.8694  -17.2095  140.9156 N   0  0  0  0  0  0  0  0  0  0  0  0
  2  1  2  0
  3  2  1  0
  4  2  1  0
  5  4  1  0
  6  5  1  0
  7  4  1  0
  8  7  1  0
  9  6  1  0
 10  9  1  0
 11  8  1  0
 12 10  1  0
 13  8  1  0
 13 11  1  0
 14  4  1  0
 14  5  1  0
 14  7  1  0
 15  8  1  0
 15 11  1  0
 16 12  1  0
 17 16  1  0
 18 16  1  0
 19 16  1  0
 19 17  1  0
 20 12  1  0
 21 20  2  0
 22 18  1  0
 23 22  1  0
 24  6  1  0
 25 24  1  0
 26 23  1  0
 27 20  1  0
 28 26  1  0
 29 17  1  0
 29 27  2  0
 30 23  2  3
 31 30  1  0
M  END
$$$$

     RDKit          3D

 31 34  0  0  0  0  0  0  0  0999 V2000
  -23.4586   -7.5970  147.3851 O   0  0  0  0  0  0  0  0  0  0  0  0
  -24.1956   -6.9331  146.2551 C   0  0  0  0  0  0  0  0  0  0  0  0
  -25.2260   -7.8339  144.8433 C   0  0  0  0  0  0  0  0  0  0  0  0
  -24.1853   -8.3504  144.0416 C   0  0  0  0  0  0  0  0  0  0  0  0
  -23.7832   -9.6661  144.8004 C   0  0  0  0  0  0  0  0  0  0  0  0
  -25.1159   -6.1772  147.0079 C   0  0  0  0  0  0  0  0  0  0  0  0
  -27.2135  -10.1811  146.2249 C   0  0  0  0  0  0  0  0  0  0  0  0
  -26.2660  -11.1179  147.1267 C   0  0  0  0  0  0  0  0  0  0  0  0
  -26.7233   -9.0511  145.0136 C   0  0  0  0  0  0  0  0  0  0  0  0
  -24.1211   -9.4122  146.2727 O   0  0  0  0  0  0  0  0  0  0  0  0
  -27.3184   -6.6250  146.0646 C   0  0  0  0  0  0  0  0  0  0  0  0
  -27.3874   -5.5746  144.7478 C   0  0  0  0  0  0  0  0  0  0  0  0
  -27.9716   -5.3013  142.1315 C   0  0  0  0  0  0  0  0  0  0  0  0
  -26.0676   -7.3204  147.0530 C   0  0  0  0  0  0  0  0  0  0  0  0
  -25.3241   -8.8322  146.8456 O   0  0  0  0  0  0  0  0  0  0  0  0
  -26.8927   -4.2497  141.6134 C   0  0  0  0  0  0  0  0  0  0  0  0
  -24.5798  -10.9672  144.3608 C   0  0  0  0  0  0  0  0  0  0  0  0
  -24.5331   -8.6066  149.8010 C   0  0  0  0  0  0  0  0  0  0  0  0
  -24.4280   -9.7775  143.4460 C   0  0  0  0  0  0  0  0  0  0  0  0
  -26.0247   -8.9063  149.6828 C   0  0  0  0  0  0  0  0  0  0  0  0
  -28.2979   -6.6833  141.5063 C   0  0  0  0  0  0  0  0  0  0  0  0
  -27.4992   -3.4864  140.3989 C   0  0  0  0  0  0  0  0  0  0  0  0
  -23.5123   -7.6356  148.8985 C   0  0  0  0  0  0  0  0  0  0  0  0
  -28.0381   -7.2930  142.8679 C   0  0  0  0  0  0  0  0  0  0  0  0
  -27.3354   -6.0634  143.2601 C   0  0  0  0  0  0  0  0  0  0  0  0
  -26.2189   -4.5441  138.3699 C   0  0  0  0  0  0  0  0  0  0  0  0
  -25.6374   -3.2843  137.5250 C   0  0  0  0  0  0  0  0  0  0  0  0
  -26.5129   -2.5063  136.7591 C   0  0  0  0  0  0  0  0  0  0  0  0
  -25.1625   -5.2583  139.2101 C   0  0  0  0  0  0  0  0  0  0  0  0
  -25.2210   -6.5645  139.4173 C   0  0  0  0  0  0  0  0  0  0  0  0
  -27.5393   -4.3207  139.2024 C   0  0  0  0  0  0  0  0  0  0  0  0
  2  1  1  0
  3  2  1  0
  4  3  1  0
  5  4  1  0
  6  2  1  0
  8  7  1  0
  9  3  1  0
  9  7  1  0
 10  5  1  0
 12 11  1  0
 14  6  1  0
 14 11  1  0
 15 10  1  0
 15 14  1  0
 16 13  1  0
 17  5  1  0
 19  4  1  0
 19  5  1  0
 19 17  1  0
 20 18  1  0
 21 13  1  0
 22 16  1  0
 23  1  1  0
 23 18  1  0
 24 21  1  0
 25 12  1  0
 25 13  1  0
 25 24  1  0
 27 26  1  0
 28 27  2  0
 29 26  1  0
 30 29  2  0
 31 22  1  0
 31 26  1  0
M  END
$$$$

     RDKit          3D

 26 27  0  0  0  0  0  0  0  0999 V2000
  -29.0687  -20.2200  147.7810 O   0  0  0  0  0  0  0  0  0  0  0  0
  -29.9174  -20.0516  148.9179 C   0  0  0  0  0  0  0  0  0  0  0  0
  -29.7902  -18.8103  149.4201 N   0  0  0  0  0  0  0  0  0  0  0  0
  -28.6104  -18.1828  148.6620 C   0  0  0  0  0  0  0  0  0  0  0  0
  -28.7538  -16.7092  148.2933 C   0  0  0  0  0  0  0  0  0  0  0  0
  -27.6174  -17.2825  149.2303 C   0  0  0  0  0  0  0  0  0  0  0  0
  -29.9984  -15.8961  148.7342 C   0  0  0  0  0  0  0  0  0  0  0  0
  -27.2426  -17.1666  150.7316 C   0  0  0  0  0  0  0  0  0  0  0  0
  -25.1409  -16.0305  151.7032 C   0  0  0  0  0  0  0  0  0  0  0  0
  -24.9136  -14.6936  152.4840 C   0  0  0  0  0  0  0  0  0  0  0  0
  -28.1920  -19.0692  147.5293 C   0  0  0  0  0  0  0  0  0  0  0  0
  -26.4651  -18.4800  151.0509 C   0  0  0  0  0  0  0  0  0  0  0  0
  -23.7125  -16.8421  151.5574 C   0  0  0  0  0  0  0  0  0  0  0  0
  -23.0972  -17.9356  150.5827 N   0  0  0  0  0  0  0  0  0  0  0  0
  -26.2121  -15.8962  150.6516 C   0  0  0  0  0  0  0  0  0  0  0  0
  -23.5034  -19.3347  150.0254 C   0  0  0  0  0  0  0  0  0  0  0  0
  -30.0906  -15.7296  150.2993 C   0  0  0  0  0  0  0  0  0  0  0  0
  -23.7918  -19.6429  148.3694 C   0  0  0  0  0  0  0  0  0  0  0  0
  -21.7126  -18.1574  151.1686 C   0  0  0  0  0  0  0  0  0  0  0  0
  -22.8789  -20.5120  147.2435 C   0  0  0  0  0  0  0  0  0  0  0  0
  -30.8682  -14.5654  150.8572 C   0  0  0  0  0  0  0  0  0  0  0  0
  -32.6541  -16.1000  148.5278 C   0  0  0  0  0  0  0  0  0  0  0  0
  -33.6689  -15.1437  146.4867 C   0  0  0  0  0  0  0  0  0  0  0  0
  -33.6983  -16.1311  147.4166 C   0  0  0  0  0  0  0  0  0  0  0  0
  -23.3481  -20.4502  146.0049 C   0  0  0  0  0  0  0  0  0  0  0  0
  -31.2427  -16.4878  148.0475 C   0  0  0  0  0  0  0  0  0  0  0  0
  2  1  1  0
  3  2  2  0
  4  3  1  0
  5  4  1  0
  6  4  1  0
  6  5  1  0
  7  5  1  0
  8  6  1  0
 10  9  1  0
 11  1  1  0
 11  4  1  0
 12  8  1  0
 13  9  1  0
 14 13  1  0
 15  8  1  0
 15  9  1  0
 16 14  1  0
 17  7  1  0
 18 16  1  0
 19 14  1  0
 20 18  1  0
 21 17  1  0
 24 22  1  0
 24 23  2  0
 25 20  2  0
 26  7  1  0
 26 22  1  0
M  END
$$$$

     RDKit          3D

 31 40  0  0  0  0  0  0  0  0999 V2000
  -38.7744   -6.8106  144.1084 C   0  0  0  0  0  0  0  0  0  0  0  0
  -38.0919   -7.2336  142.8072 C   0  0  0  0  0  0  0  0  0  0  0  0
  -37.9541   -8.7535  142.4050 C   0  0  0  0  0  0  0  0  0  0  0  0
  -37.2765   -6.5732  143.9363 C   0  0  0  0  0  0  0  0  0  0  0  0
  -39.4198   -9.3157  142.4526 C   0  0  0  0  0  0  0  0  0  0  0  0
  -37.9300   -8.9450  140.8891 C   0  0  0  0  0  0  0  0  0  0  0  0
  -37.1559  -10.1286  140.4751 N   0  0  0  0  0  2  0  0  0  0  0  0
  -38.2773   -9.9831  143.2281 C   0  0  0  0  0  0  0  0  0  0  0  0
  -36.2752   -9.8464  139.3378 C   0  0  0  0  0  0  0  0  0  0  0  0
  -36.5149  -10.6871  138.1765 C   0  0  0  0  0  0  0  0  0  0  0  0
  -34.3944   -9.2502  141.0001 C   0  0  0  0  0  0  0  0  0  0  0  0
  -34.8313   -9.3545  139.5534 C   0  0  0  0  0  0  0  0  0  0  0  0
  -36.9622   -9.2823  138.1682 N   0  0  0  0  0  2  0  0  0  0  0  0
  -34.3508  -11.6202  140.5922 O   0  0  0  0  0  0  0  0  0  0  0  0
  -38.3283   -9.7955  144.6127 O   0  0  0  0  0  0  0  0  0  0  0  0
  -33.8585  -10.3889  140.1368 C   0  0  0  0  0  0  0  0  0  0  0  0
  -39.4109   -9.2685  140.8910 C   0  0  0  0  0  0  0  0  0  0  0  0
  -39.9244  -10.4793  141.5850 C   0  0  0  0  0  0  0  0  0  0  0  0
  -35.1641   -7.9166  144.1170 C   0  0  0  0  0  0  0  0  0  0  0  0
  -32.3459  -10.3008  140.0612 C   0  0  0  0  0  0  0  0  0  0  0  0
  -31.9558  -10.5228  138.6141 C   0  0  0  0  0  0  0  0  0  0  0  0
  -33.7827   -7.8030  144.7642 C   0  0  0  0  0  0  0  0  0  0  0  0
  -32.0105  -11.4092  141.0132 C   0  0  0  0  0  0  0  0  0  0  0  0
  -30.8256   -9.6011  138.1422 C   0  0  0  0  0  0  0  0  0  0  0  0
  -36.3571   -7.3559  144.8862 C   0  0  0  0  0  0  0  0  0  0  0  0
  -31.5686  -11.6050  139.5950 C   0  0  0  0  0  0  0  0  0  0  0  0
  -34.4334   -9.1765  144.6180 C   0  0  0  0  0  0  0  0  0  0  0  0
  -34.6156   -9.9566  145.9644 C   0  0  0  0  0  0  0  0  0  0  0  0
  -33.2937  -12.1449  141.3672 C   0  0  0  0  0  0  0  0  0  0  0  0
  -35.3147   -9.2672  147.1578 C   0  0  0  0  0  0  0  0  0  0  0  0
  -33.2458  -10.4891  146.4066 C   0  0  0  0  0  0  0  0  0  0  0  0
  2  1  1  0
  3  2  1  0
  4  1  1  0
  4  2  1  0
  5  3  1  0
  6  3  1  0
  7  6  1  0
  8  3  1  0
  8  5  1  0
  9  7  1  0
 10  9  1  0
 12  9  1  0
 12 11  1  0
 13  9  1  0
 13 10  1  0
 15  8  1  0
 16 11  1  0
 16 12  1  0
 16 14  1  0
 17  5  1  0
 17  6  1  0
 18  5  1  0
 18 17  1  0
 20 16  1  0
 21 20  1  0
 22 19  1  0
 23 20  1  0
 24 21  1  0
 25  4  1  0
 25 19  1  0
 26 20  1  0
 26 21  1  0
 26 23  1  0
 27 19  1  0
 27 22  1  0
 28 27  1  0
 29 14  1  0
 29 23  1  0
 30 28  1  0
 31 28  1  0
M  RAD  2   7   2  13   2
M  END
$$$$

     RDKit          3D

 30 37  0  0  0  0  0  0  0  0999 V2000
  -23.1962   -1.7221  144.9192 O   0  0  0  0  0  0  0  0  0  0  0  0
  -23.0035   -1.0265  142.5960 C   0  0  0  0  0  0  0  0  0  0  0  0
  -24.5543   -0.7601  142.6295 C   0  0  0  0  0  0  0  0  0  0  0  0
  -25.0612   -0.0703  141.3483 C   0  0  0  0  0  0  0  0  0  0  0  0
  -25.0274   -2.8354  141.1391 C   0  0  0  0  0  0  0  0  0  0  0  0
  -25.6807   -3.6848  139.9687 C   0  0  0  0  0  0  0  0  0  0  0  0
  -27.1292   -3.5397  139.5392 C   0  0  0  0  0  0  0  0  0  0  0  0
  -26.8521   -1.9964  142.2294 C   0  0  0  0  0  0  0  0  0  0  0  0
  -26.8160   -4.1772  140.8548 C   0  0  0  0  0  0  0  0  0  0  0  0
  -26.6685   -2.2781  144.9059 C   0  0  0  0  0  0  0  0  0  0  0  0
  -22.3097   -1.1300  143.9866 C   0  0  0  0  0  0  0  0  0  0  0  0
  -20.9304   -1.8811  143.9514 C   0  0  0  0  0  0  0  0  0  0  0  0
  -20.9617    0.5179  145.6313 C   0  0  0  0  0  0  0  0  0  0  0  0
  -22.2508    0.1956  144.8141 C   0  0  0  0  0  0  0  0  0  0  0  0
  -20.6557   -2.9227  142.8199 C   0  0  0  0  0  0  0  0  0  0  0  0
  -27.0798   -0.9629  145.5537 C   0  0  0  0  0  0  0  0  0  0  0  0
  -18.6566   -4.3911  142.0987 C   0  0  0  0  0  0  0  0  0  0  0  0
  -23.2522   -0.5384  145.7046 C   0  0  0  0  0  0  0  0  0  0  0  0
  -28.5153   -0.5026  145.5112 C   0  0  0  0  0  0  0  0  0  0  0  0
  -27.4533   -1.9459  143.6661 C   0  0  0  0  0  0  0  0  0  0  0  0
  -19.1670   -3.0081  142.4720 C   0  0  0  0  0  0  0  0  0  0  0  0
  -20.1274   -2.3697  141.4587 C   0  0  0  0  0  0  0  0  0  0  0  0
  -29.4723   -1.5392  145.6247 O   0  0  0  0  0  0  0  0  0  0  0  0
  -26.2167   -3.3786  141.9647 C   0  0  0  0  0  0  0  0  0  0  0  0
  -25.5437   -1.4835  141.6745 C   0  0  0  0  0  0  0  0  0  0  0  0
  -27.7428   -0.5530  144.2187 C   0  0  0  0  0  0  0  0  0  0  0  0
  -30.0715   -1.6426  146.9046 C   0  0  0  0  0  0  0  0  0  0  0  0
  -28.8004    0.8932  146.0914 C   0  0  0  0  0  0  0  0  0  0  0  0
  -22.7843    1.4778  144.1838 C   0  0  0  0  0  0  0  0  0  0  0  0
  -29.1100   -2.2601  147.9433 C   0  0  0  0  0  0  0  0  0  0  0  0
  3  2  1  0
  4  3  1  0
  6  5  1  0
  7  6  1  0
  9  6  1  0
  9  7  1  0
 11  1  1  0
 11  2  1  0
 12 11  1  0
 14 11  1  0
 14 13  1  0
 15 12  1  0
 16 10  1  0
 18  1  1  0
 18 14  1  0
 19 16  1  0
 20  8  1  0
 20 10  1  0
 21 15  1  0
 21 17  1  0
 22 15  1  0
 22 21  1  0
 23 19  1  0
 24  5  1  0
 24  8  1  0
 24  9  1  0
 25  3  1  0
 25  4  1  0
 25  5  1  0
 25  8  1  0
 26 16  1  0
 26 19  1  0
 26 20  1  0
 27 23  1  0
 28 19  1  0
 29 14  1  0
 30 27  1  0
M  END
$$$$

     RDKit          3D

 31 39  0  0  0  0  0  0  0  0999 V2000
  -23.4005   -9.6679  146.2719 C   0  0  0  0  0  0  0  0  0  0  0  0
  -22.6596   -7.1729  144.7889 C   0  0  0  0  0  0  0  0  0  0  0  0
  -24.3830   -8.5338  143.6382 C   0  0  0  0  0  0  0  0  0  0  0  0
  -23.7210   -8.3539  144.9901 C   0  0  0  0  0  0  0  0  0  0  0  0
  -22.4237   -6.9924  143.5200 C   0  0  0  0  0  0  0  0  0  0  0  0
  -23.6289   -7.5809  142.7153 C   0  0  0  0  0  0  0  0  0  0  0  0
  -23.5696   -9.1368  142.3933 C   0  0  0  0  0  0  0  0  0  0  0  0
  -23.1173   -9.6786  144.9591 C   0  0  0  0  0  0  0  0  0  0  0  0
  -21.9608  -10.5126  144.5335 C   0  0  0  0  0  0  0  0  0  0  0  0
  -22.9045   -8.1374  141.4765 C   0  0  0  0  0  0  0  0  0  0  0  0
  -20.9306  -10.2417  145.4328 C   0  0  0  0  0  0  0  0  0  0  0  0
  -22.0173  -10.6234  146.6655 C   0  0  0  0  0  0  0  0  0  0  0  0
  -20.5928   -8.6852  145.5047 C   0  0  0  0  0  0  0  0  0  0  0  0
  -22.4089  -12.1268  146.9741 C   0  0  0  0  0  0  0  0  0  0  0  0
  -21.2153   -7.6589  144.2515 C   0  0  0  0  0  0  0  0  0  0  0  0
  -20.6633   -7.9865  146.8770 C   0  0  0  0  0  0  0  0  0  0  0  0
  -20.5327   -7.8241  142.7503 C   0  0  0  0  0  0  0  0  0  0  0  0
  -24.2503  -14.0169  147.1101 C   0  0  0  0  0  0  0  0  0  0  0  0
  -19.7691  -10.8029  144.3685 C   0  0  0  0  0  0  0  0  0  0  0  0
  -23.2613  -14.9346  146.5925 N   0  0  0  0  0  0  0  0  0  0  0  0
  -23.6810  -15.6179  145.4351 C   0  0  0  0  0  0  0  0  0  0  0  0
  -23.9144  -12.5922  146.7305 C   0  0  0  0  0  0  0  0  0  0  0  0
  -19.2629  -11.6582  143.1819 C   0  0  0  0  0  0  0  0  0  0  0  0
  -20.6751  -13.5634  142.6612 C   0  0  0  0  0  0  0  0  0  0  0  0
  -19.4529  -12.6295  140.9101 C   0  0  0  0  0  0  0  0  0  0  0  0
  -20.2568  -12.2399  142.1554 C   0  0  0  0  0  0  0  0  0  0  0  0
  -18.7083  -13.9461  141.2721 C   0  0  0  0  0  0  0  0  0  0  0  0
  -19.4636  -14.5446  142.4486 C   0  0  0  0  0  0  0  0  0  0  0  0
  -21.3912   -8.3814  141.5443 C   0  0  0  0  0  0  0  0  0  0  0  0
  -17.2283  -13.7808  141.4696 C   0  0  0  0  0  0  0  0  0  0  0  0
  -19.7111   -6.6208  142.2494 C   0  0  0  0  0  0  0  0  0  0  0  0
  4  1  1  0
  4  2  1  0
  4  3  1  0
  5  2  1  0
  6  3  1  0
  6  5  1  0
  7  3  1  0
  7  6  1  0
  8  1  1  0
  8  4  1  0
  9  8  1  0
 10  6  1  0
 10  7  1  0
 11  9  1  0
 12  1  1  0
 12 11  1  0
 13 11  1  0
 14 12  1  0
 15  2  1  0
 15  5  1  0
 15 13  1  0
 16 13  1  0
 17 15  1  0
 19 11  1  0
 20 18  1  0
 21 20  1  0
 22 14  1  0
 22 18  1  0
 23 19  1  0
 26 23  1  0
 26 24  1  0
 26 25  1  0
 27 25  1  0
 28 24  1  0
 28 27  1  0
 29 10  1  0
 29 17  1  0
 30 27  1  0
 31 17  1  0
M  END
$$$$

     RDKit          3D

 28 34  0  0  0  0  0  0  0  0999 V2000
  -23.5336   -1.1954  135.8537 C   0  0  0  0  0  0  0  0  0  0  0  0
  -23.9599   -3.8397  136.7189 N   0  0  0  0  0  0  0  0  0  0  0  0
  -22.6346    0.4164  135.9682 C   0  0  0  0  0  0  0  0  0  0  0  0
  -23.1542   -1.0301  137.1399 C   0  0  0  0  0  0  0  0  0  0  0  0
  -23.0573   -2.6007  139.2763 B   0  0  0  0  0  0  0  0  0  0  0  0
  -23.8555   -1.4571  138.2504 C   0  0  0  0  0  0  0  0  0  0  0  0
  -24.5261   -2.4246  136.6092 C   0  0  0  0  0  0  0  0  0  0  0  0
  -23.8485    0.1492  137.6691 C   0  0  0  0  0  0  0  0  0  0  0  0
  -26.2057   -1.0279  138.4177 C   0  0  0  0  0  0  0  0  0  0  0  0
  -26.5455   -0.7176  139.8510 C   0  0  0  0  0  0  0  0  0  0  0  0
  -23.3308    1.6494  135.6457 C   0  0  0  0  0  0  0  0  0  0  0  0
  -24.9841   -1.9989  138.1560 C   0  0  0  0  0  0  0  0  0  0  0  0
  -23.1227    1.2400  137.1119 C   0  0  0  0  0  0  0  0  0  0  0  0
  -25.1318   -1.0905  139.5688 C   0  0  0  0  0  0  0  0  0  0  0  0
  -21.7085   -5.2151  137.1598 C   0  0  0  0  0  0  0  0  0  0  0  0
  -22.1404    0.0167  140.0933 C   0  0  0  0  0  0  0  0  0  0  0  0
  -21.1140   -4.8144  140.4270 C   0  0  0  0  0  0  0  0  0  0  0  0
  -22.6479   -4.2925  136.2237 C   0  0  0  0  0  0  0  0  0  0  0  0
  -19.9489   -4.9778  141.4298 C   0  0  0  0  0  0  0  0  0  0  0  0
  -22.4318   -4.2950  141.2060 C   0  0  0  0  0  0  0  0  0  0  0  0
  -20.3272   -4.8248  137.8285 C   0  0  0  0  0  0  0  0  0  0  0  0
  -23.2603   -3.0151  140.7547 C   0  0  0  0  0  0  0  0  0  0  0  0
  -23.8951    0.0511  140.3183 C   0  0  0  0  0  0  0  0  0  0  0  0
  -20.4923   -4.0208  139.2199 C   0  0  0  0  0  0  0  0  0  0  0  0
  -20.5753   -0.4679  139.5148 C   0  0  0  0  0  0  0  0  0  0  0  0
  -19.7670   -0.9141  138.1181 C   0  0  0  0  0  0  0  0  0  0  0  0
  -20.2307   -1.8385  136.8518 C   0  0  0  0  0  0  0  0  0  0  0  0
  -18.4699   -0.8983  138.2169 C   0  0  0  0  0  0  0  0  0  0  0  0
  3  1  1  0
  4  1  1  0
  6  4  1  0
  6  5  1  0
  7  1  1  0
  7  2  1  0
  8  4  1  0
  8  6  1  0
 10  9  1  0
 11  3  1  0
 12  6  1  0
 12  7  1  0
 12  9  1  0
 13  3  1  0
 13  8  1  0
 13 11  1  0
 14  9  1  0
 14 10  1  0
 14 12  1  0
 18  2  1  0
 18 15  1  0
 19 17  1  0
 20 17  1  0
 21 15  1  0
 22  5  1  0
 22 20  1  0
 23 14  1  0
 23 16  1  0
 24 17  1  0
 24 21  1  0
 25 16  1  0
 26 25  1  0
 27 26  1  0
 28 26  2  0
M  END
$$$$

     RDKit          3D

 30 37  0  0  0  0  0  0  0  0999 V2000
  -31.0875  -11.5746  142.8292 C   0  0  0  0  0  0  0  0  0  0  0  0
  -30.6907  -10.7363  143.9769 N   0  0  0  0  0  0  0  0  0  0  0  0
  -29.5273  -11.2857  144.7074 C   0  0  0  0  0  0  0  0  0  0  0  0
  -28.1689  -10.6529  144.3706 C   0  0  0  0  0  0  0  0  0  0  0  0
  -31.7944  -12.8301  143.1658 N   0  0  0  0  0  0  0  0  0  0  0  0
  -31.3782  -10.9063  141.5354 N   0  0  0  0  0  0  0  0  0  0  0  0
  -28.1443   -9.1377  144.5229 C   0  0  0  0  0  0  0  0  0  0  0  0
  -29.7126  -12.5140  145.6021 C   0  0  0  0  0  0  0  0  0  0  0  0
  -28.4147  -10.9372  142.8956 C   0  0  0  0  0  0  0  0  0  0  0  0
  -28.5736   -9.6791  142.1524 N   0  0  0  0  0  0  0  0  0  0  0  0
  -28.3362   -8.5728  143.1188 C   0  0  0  0  0  0  0  0  0  0  0  0
  -27.3211   -8.8777  142.1212 C   0  0  0  0  0  0  0  0  0  0  0  0
  -33.0922  -12.5441  143.8227 C   0  0  0  0  0  0  0  0  0  0  0  0
  -29.7066  -11.6668  143.3038 C   0  0  0  0  0  0  0  0  0  0  0  0
  -30.7940   -8.7952  139.8877 S   0  0  0  0  0  0  0  0  0  0  0  0
  -27.2587   -7.9676  140.9827 N   0  0  0  0  0  0  0  0  0  0  0  0
  -33.0740  -13.0630  142.4585 C   0  0  0  0  0  0  0  0  0  0  0  0
  -31.3552   -9.4305  141.5370 C   0  0  0  0  0  0  0  0  0  0  0  0
  -26.7564  -11.4733  145.1249 Cl  0  0  0  0  0  0  0  0  0  0  0  0
  -27.3242  -12.0968  142.0753 Cl  0  0  0  0  0  0  0  0  0  0  0  0
  -33.6258   -9.4071  140.1602 C   0  0  0  0  0  0  0  0  0  0  0  0
  -32.3978   -8.6863  140.7857 C   0  0  0  0  0  0  0  0  0  0  0  0
  -33.5399   -9.9421  138.6769 C   0  0  0  0  0  0  0  0  0  0  0  0
  -32.8770  -11.3278  138.6024 C   0  0  0  0  0  0  0  0  0  0  0  0
  -34.9900   -8.7897  140.5924 C   0  0  0  0  0  0  0  0  0  0  0  0
  -34.5584  -10.1313  141.1389 C   0  0  0  0  0  0  0  0  0  0  0  0
  -35.0455   -7.6737  141.6550 C   0  0  0  0  0  0  0  0  0  0  0  0
  -34.8688   -9.9843  137.8950 C   0  0  0  0  0  0  0  0  0  0  0  0
  -26.1455   -9.4998  142.5323 F   0  0  0  0  0  0  0  0  0  0  0  0
  -36.4601   -7.5092  142.1921 C   0  0  0  0  0  0  0  0  0  0  0  0
  2  1  1  0
  3  2  1  0
  4  3  1  0
  5  1  1  0
  6  1  1  0
  7  4  1  0
  8  3  1  0
  9  4  1  0
 10  9  1  0
 11  7  1  0
 11 10  1  0
 12 10  1  0
 12 11  1  0
 13  5  1  0
 14  1  1  0
 14  2  1  0
 14  3  1  0
 14  9  1  0
 16 12  1  0
 17  5  1  0
 17 13  1  0
 18  6  1  0
 18 15  1  0
 19  4  1  0
 20  9  1  0
 22 15  1  0
 22 18  1  0
 22 21  1  0
 23 21  1  0
 24 23  1  0
 25 21  1  0
 26 21  1  0
 26 25  1  0
 27 25  1  0
 28 23  1  0
 29 12  1  0
 30 27  1  0
M  END
$$$$

     RDKit          3D

 31 40  0  0  0  0  0  0  0  0999 V2000
  -30.0688  -17.0747  142.8430 O   0  0  0  0  0  0  0  0  0  0  0  0
  -31.5681  -18.2552  141.7878 C   0  0  0  0  0  0  0  0  0  0  0  0
  -30.5635  -18.3020  142.7661 O   0  0  0  0  0  0  0  0  0  0  0  0
  -31.3929  -19.2667  140.6456 C   0  0  0  0  0  0  0  0  0  0  0  0
  -32.3266  -19.5687  141.8080 C   0  0  0  0  0  0  0  0  0  0  0  0
  -31.8650  -18.6723  139.2767 C   0  0  0  0  0  0  0  0  0  0  0  0
  -33.3927  -18.6451  138.8977 C   0  0  0  0  0  0  0  0  0  0  0  0
  -32.9844  -19.4959  137.6938 C   0  0  0  0  0  0  0  0  0  0  0  0
  -33.7375  -19.6729  136.3929 C   0  0  0  0  0  0  0  0  0  0  0  0
  -32.7461  -19.6265  135.2359 C   0  0  0  0  0  0  0  0  0  0  0  0
  -32.6224  -20.9291  134.4778 C   0  0  0  0  0  0  0  0  0  0  0  0
  -33.8197  -21.3512  133.6289 C   0  0  0  0  0  0  0  0  0  0  0  0
  -33.5791  -20.8652  137.4410 C   0  0  0  0  0  0  0  0  0  0  0  0
  -34.3868  -21.0138  136.1726 C   0  0  0  0  0  0  0  0  0  0  0  0
  -33.6974  -21.8246  135.0683 C   0  0  0  0  0  0  0  0  0  0  0  0
  -31.5355  -19.5932  138.0883 C   0  0  0  0  0  0  0  0  0  0  0  0
  -35.9072  -20.9721  136.2429 C   0  0  0  0  0  0  0  0  0  0  0  0
  -31.7480  -18.5080  134.9679 C   0  0  0  0  0  0  0  0  0  0  0  0
  -34.0696  -17.2927  138.4773 C   0  0  0  0  0  0  0  0  0  0  0  0
  -33.0933  -18.4627  134.2954 C   0  0  0  0  0  0  0  0  0  0  0  0
  -35.6313  -17.2582  138.5344 C   0  0  0  0  0  0  0  0  0  0  0  0
  -36.5630  -17.3238  137.3189 C   0  0  0  0  0  0  0  0  0  0  0  0
  -36.6021  -16.0219  136.5028 C   0  0  0  0  0  0  0  0  0  0  0  0
  -33.5463  -15.9889  139.1453 C   0  0  0  0  0  0  0  0  0  0  0  0
  -37.8588  -15.1444  136.3023 C   0  0  0  0  0  0  0  0  0  0  0  0
  -36.1778  -15.9766  137.9660 C   0  0  0  0  0  0  0  0  0  0  0  0
  -37.4316  -13.6451  136.4828 C   0  0  0  0  0  0  0  0  0  0  0  0
  -32.4614  -16.0348  139.9917 F   0  0  0  0  0  0  0  0  0  0  0  0
  -33.2327  -16.2662  137.6878 C   0  0  0  0  0  0  0  0  0  0  0  0
  -38.0428  -13.0126  137.7396 C   0  0  0  0  0  0  0  0  0  0  0  0
  -38.3640  -15.3567  135.0024 O   0  0  0  0  0  0  0  0  0  0  0  0
  3  1  1  0
  3  2  1  0
  4  2  1  0
  5  2  1  0
  5  4  1  0
  6  4  1  0
  7  6  1  0
  8  7  1  0
  9  8  1  0
 10  9  1  0
 11 10  1  0
 12 11  1  0
 13  8  1  0
 13  9  1  0
 14  9  1  0
 14 13  1  0
 15 11  1  0
 15 12  1  0
 15 14  1  0
 16  6  1  0
 16  8  1  0
 17 14  1  0
 18 10  1  0
 19  7  1  0
 20 10  1  0
 20 18  1  0
 21 19  1  0
 22 21  1  0
 23 22  1  0
 24 19  1  0
 25 23  1  0
 26 21  1  0
 26 22  1  0
 26 23  1  0
 27 25  1  0
 28 24  1  0
 29 19  1  0
 29 24  1  0
 30 27  1  0
 31 25  1  0
M  END
$$$$

     RDKit          3D

 10 13  0  0  0  0  0  0  0  0999 V2000
  -21.6396    0.8352  139.5805 C   0  0  0  0  0  0  0  0  0  0  0  0
  -21.7509   -0.4466  138.9047 C   0  0  0  0  0  0  0  0  0  0  0  0
  -23.7253   -0.2797  138.2584 O   0  0  0  0  0  0  0  0  0  0  0  0
  -21.3607    0.6389  141.0642 C   0  0  0  0  0  0  0  0  0  0  0  0
  -19.9206    0.2242  141.4037 C   0  0  0  0  0  0  0  0  0  0  0  0
  -22.1962   -0.3990  140.3225 C   0  0  0  0  0  0  0  0  0  0  0  0
  -23.0612    0.3073  139.3344 C   0  0  0  0  0  0  0  0  0  0  0  0
  -19.8675   -0.7423  142.5950 C   0  0  0  0  0  0  0  0  0  0  0  0
  -20.2849   -0.0753  143.9112 C   0  0  0  0  0  0  0  0  0  0  0  0
  -20.1443   -1.0175  145.0169 N   0  0  0  0  0  0  0  0  0  0  0  0
  2  1  1  0
  4  1  1  0
  5  4  1  0
  6  1  1  0
  6  2  1  0
  6  4  1  0
  7  1  1  0
  7  2  1  0
  7  3  1  0
  7  6  1  0
  8  5  1  0
  9  8  1  0
 10  9  1  0
M  END
$$$$

     RDKit          3D

 31 36  0  0  0  0  0  0  0  0999 V2000
  -25.7300   -8.6875  151.6975 N   0  0  0  0  0  0  0  0  0  0  0  0
  -26.6539   -9.3059  152.6796 C   0  0  0  0  0  0  0  0  0  0  0  0
  -25.5033   -7.2234  151.7839 C   0  0  0  0  0  0  0  0  0  0  0  0
  -26.5777   -6.2879  151.1453 C   0  0  0  0  0  0  0  0  0  0  0  0
  -26.6316  -10.8406  152.4628 C   0  0  0  0  0  0  0  0  0  0  0  0
  -26.2329   -5.8302  149.7361 C   0  0  0  0  0  0  0  0  0  0  0  0
  -28.0062   -6.7990  151.0116 C   0  0  0  0  0  0  0  0  0  0  0  0
  -27.5336   -5.2104  149.1915 C   0  0  0  0  0  0  0  0  0  0  0  0
  -27.9772  -11.3687  152.9613 C   0  0  0  0  0  0  0  0  0  0  0  0
  -27.7800   -5.5215  147.7106 C   0  0  0  0  0  0  0  0  0  0  0  0
  -29.6247   -6.5667  149.0210 C   0  0  0  0  0  0  0  0  0  0  0  0
  -26.2572   -9.0873  154.1780 C   0  0  0  0  0  0  0  0  0  0  0  0
  -27.1594  -13.2373  151.4087 C   0  0  0  0  0  0  0  0  0  0  0  0
  -27.8070  -11.8324  154.4390 C   0  0  0  0  0  0  0  0  0  0  0  0
  -28.2029  -11.0405  150.3765 C   0  0  0  0  0  0  0  0  0  0  0  0
  -27.6044  -11.3483  148.9927 C   0  0  0  0  0  0  0  0  0  0  0  0
  -29.4631   -4.7379  150.7827 C   0  0  0  0  0  0  0  0  0  0  0  0
  -29.4559   -6.9519  146.5730 C   0  0  0  0  0  0  0  0  0  0  0  0
  -26.0535  -11.3426  149.0297 C   0  0  0  0  0  0  0  0  0  0  0  0
  -27.4877  -11.7424  151.5612 C   0  0  0  0  0  0  0  0  0  0  0  0
  -26.0817  -13.7927  154.4851 C   0  0  0  0  0  0  0  0  0  0  0  0
  -27.3775   -9.2987  155.2573 C   0  0  0  0  0  0  0  0  0  0  0  0
  -28.9901   -6.3819  147.6894 C   0  0  0  0  0  0  0  0  0  0  0  0
  -25.4187  -12.3969  148.1390 C   0  0  0  0  0  0  0  0  0  0  0  0
  -25.4465   -9.9654  148.8252 C   0  0  0  0  0  0  0  0  0  0  0  0
  -24.0724  -12.9172  148.6513 C   0  0  0  0  0  0  0  0  0  0  0  0
  -28.3121   -8.0711  155.2751 C   0  0  0  0  0  0  0  0  0  0  0  0
  -26.4893  -12.4274  155.0242 C   0  0  0  0  0  0  0  0  0  0  0  0
  -28.2379  -10.6185  155.3041 C   0  0  0  0  0  0  0  0  0  0  0  0
  -25.4126  -10.9559  147.6741 C   0  0  0  0  0  0  0  0  0  0  0  0
  -28.6898   -5.8320  150.0167 C   0  0  0  0  0  0  0  0  0  0  0  0
  2  1  1  0
  3  1  1  0
  4  3  1  0
  5  2  1  0
  6  4  1  0
  7  4  1  0
  8  6  1  0
  9  5  1  0
 10  8  1  0
 12  2  1  0
 14  9  1  0
 16 15  1  0
 19 16  1  0
 20  5  1  0
 20  9  1  0
 20 13  1  0
 20 15  1  0
 22 12  1  0
 23 10  1  0
 23 11  1  0
 23 18  2  0
 24 19  1  0
 25 19  1  0
 26 24  1  0
 27 22  1  0
 28 14  1  0
 28 21  1  0
 29 14  1  0
 29 22  1  0
 30 19  1  0
 30 24  1  0
 30 25  1  0
 31  7  1  0
 31  8  1  0
 31 11  1  0
 31 17  1  0
M  END
$$$$

     RDKit          3D

 30 30  0  0  0  0  0  0  0  0999 V2000
  -34.5452   -4.7640  142.3918 O   0  0  0  0  0  0  0  0  0  0  0  0
  -35.4322   -4.2375  140.2333 C   0  0  0  0  0  0  0  0  0  0  0  0
  -36.7617   -4.1882  139.7534 O   0  0  0  0  0  0  0  0  0  0  0  0
  -35.4407   -3.3267  143.7624 C   0  0  0  0  0  0  0  0  0  0  0  0
  -36.9108   -4.2849  145.5938 C   0  0  0  0  0  0  0  0  0  0  0  0
  -36.0856   -5.0366  146.5310 N   0  0  0  0  0  0  0  0  0  0  0  0
  -34.1383   -4.1845  147.9180 C   0  0  0  0  0  0  0  0  0  0  0  0
  -34.7946   -3.4348  142.4726 N   0  0  0  0  0  0  0  0  0  0  0  0
  -37.8300   -4.1526  143.3867 C   0  0  0  0  0  0  0  0  0  0  0  0
  -30.9421   -6.9490  148.7326 N   0  0  0  0  0  0  0  0  0  0  0  0
  -36.4898   -4.3779  144.0945 C   0  0  0  0  0  0  0  0  0  0  0  0
  -35.2567   -2.8837  141.1914 C   0  0  0  0  0  0  0  0  0  0  0  0
  -35.2789   -7.6409  142.3681 C   0  0  0  0  0  0  0  0  0  0  0  0
  -35.2037   -5.3116  141.3112 C   0  0  0  0  0  0  0  0  0  0  0  0
  -38.7232   -7.2265  142.7578 C   0  0  0  0  0  0  0  0  0  0  0  0
  -38.5454   -7.5500  144.2869 C   0  0  0  0  0  0  0  0  0  0  0  0
  -31.0071   -6.4100  146.3961 N   0  0  0  0  0  0  0  0  0  0  0  0
  -37.7345   -6.6047  141.7956 C   0  0  0  0  0  0  0  0  0  0  0  0
  -35.6583   -8.9299  142.2574 C   0  0  0  0  0  0  0  0  0  0  0  0
  -33.8290   -5.5362  148.6307 C   0  0  0  0  0  0  0  0  0  0  0  0
  -34.6082   -4.8315  139.0171 C   0  0  0  0  0  0  0  0  0  0  0  0
  -34.7797   -4.3687  146.5764 C   0  0  0  0  0  0  0  0  0  0  0  0
  -34.9497   -3.1002  148.7244 C   0  0  0  0  0  0  0  0  0  0  0  0
  -36.1149   -6.6360  141.5620 C   0  0  0  0  0  0  0  0  0  0  0  0
  -34.1472   -1.7171  148.7806 C   0  0  0  0  0  0  0  0  0  0  0  0
  -33.1475   -6.6804  147.7645 C   0  0  0  0  0  0  0  0  0  0  0  0
  -31.6573   -6.5423  147.6643 C   0  0  0  0  0  0  0  0  0  0  0  0
  -35.0715   -1.1234  146.6529 O   0  0  0  0  0  0  0  0  0  0  0  0
  -34.7500   -0.6413  147.8917 C   0  0  0  0  0  0  0  0  0  0  0  0
  -36.2754   -0.5112  146.2576 N   0  0  0  0  0  0  0  0  0  0  0  0
  3  2  1  0
  6  5  1  0
  8  1  1  0
  8  4  1  0
 11  4  1  0
 11  5  1  0
 11  9  1  0
 12  2  1  0
 12  8  1  0
 14  1  1  0
 14  2  1  0
 16 15  1  0
 18 15  1  0
 19 13  2  0
 20  7  1  0
 21  2  1  0
 22  6  1  0
 22  7  1  0
 23  7  1  0
 24 13  1  0
 24 14  1  0
 24 18  1  0
 25 23  1  0
 26 20  1  0
 27 10  2  0
 27 17  1  0
 27 26  1  0
 29 25  1  0
 29 28  1  0
 30 28  1  0
M  END
$$$$

     RDKit          3D

 31 32  0  0  0  0  0  0  0  0999 V2000
  -23.8107  -19.4414  147.5962 O   0  0  0  0  0  0  0  0  0  0  0  0
  -25.1389  -19.2378  147.3445 C   0  0  0  0  0  0  0  0  0  0  0  0
  -25.5181  -19.8113  146.0167 O   0  0  0  0  0  0  0  0  0  0  0  0
  -26.6429  -17.0964  146.8736 C   0  0  0  0  0  0  0  0  0  0  0  0
  -25.4221  -17.7029  147.5198 C   0  0  0  0  0  0  0  0  0  0  0  0
  -29.4297  -17.6872  148.6283 C   0  0  0  0  0  0  0  0  0  0  0  0
  -30.6508  -18.7265  148.8106 C   0  0  0  0  0  0  0  0  0  0  0  0
  -28.2685  -17.4038  147.4777 C   0  0  0  0  0  0  0  0  0  0  0  0
  -31.9897  -18.5002  147.9765 C   0  0  0  0  0  0  0  0  0  0  0  0
  -33.8363  -20.2409  147.1588 C   0  0  0  0  0  0  0  0  0  0  0  0
  -33.5036  -21.8626  147.1433 C   0  0  0  0  0  0  0  0  0  0  0  0
  -31.0052  -18.9232  150.3262 C   0  0  0  0  0  0  0  0  0  0  0  0
  -30.4093  -20.1634  150.9882 C   0  0  0  0  0  0  0  0  0  0  0  0
  -29.0613  -21.0054  150.9400 C   0  0  0  0  0  0  0  0  0  0  0  0
  -27.8858  -20.4301  150.0523 C   0  0  0  0  0  0  0  0  0  0  0  0
  -31.9860  -22.6333  147.6586 C   0  0  0  0  0  0  0  0  0  0  0  0
  -27.9205  -20.7419  148.4465 C   0  0  0  0  0  0  0  0  0  0  0  0
  -30.3162  -18.7810  151.7234 C   0  0  0  0  0  0  0  0  0  0  0  0
  -27.2194  -21.7869  147.8480 C   0  0  0  0  0  0  0  0  0  0  0  0
  -31.6307  -24.2468  148.0495 C   0  0  0  0  0  0  0  0  0  0  0  0
  -30.9003  -22.0155  146.7019 C   0  0  0  0  0  0  0  0  0  0  0  0
  -32.6068  -25.2056  148.9787 C   0  0  0  0  0  0  0  0  0  0  0  0
  -32.5914  -25.1862  150.6525 C   0  0  0  0  0  0  0  0  0  0  0  0
  -30.1731  -24.7991  148.6366 C   0  0  0  0  0  0  0  0  0  0  0  0
  -27.2473  -19.3575  150.8090 C   0  0  0  0  0  0  0  0  0  0  0  0
  -33.3874  -19.4789  148.3048 C   0  0  0  0  0  0  0  0  0  0  0  0
  -32.8361  -23.8935  151.2806 C   0  0  0  0  0  0  0  0  0  0  0  0
  -27.3146  -22.4114  146.4577 C   0  0  0  0  0  0  0  0  0  0  0  0
  -31.6787  -22.0510  149.0630 C   0  0  0  0  0  0  0  0  0  0  0  0
  -30.5466  -24.9104  147.1256 C   0  0  0  0  0  0  0  0  0  0  0  0
  -26.7402  -18.2843  150.2753 C   0  0  0  0  0  0  0  0  0  0  0  0
  2  1  1  0
  3  2  1  0
  5  2  1  0
  5  4  1  0
  7  6  1  0
  8  4  1  0
  8  6  1  0
  9  7  1  0
 11 10  1  0
 12  7  1  0
 13 12  1  0
 14 13  1  0
 15 14  1  0
 16 11  1  0
 17 15  1  0
 18 12  1  0
 18 13  1  0
 19 17  2  3
 20 16  1  0
 21 16  1  0
 22 20  1  0
 23 22  1  0
 24 20  1  0
 25 15  1  0
 26  9  1  0
 26 10  1  0
 27 23  1  0
 28 19  1  0
 29 16  1  0
 30 20  1  0
 30 24  1  0
 31 25  2  0
M  END
$$$$

     RDKit          3D

 31 37  0  0  0  0  0  0  0  0999 V2000
  -26.9049   -2.5218  144.1427 N   0  0  0  0  0  0  0  0  0  0  0  0
  -25.8068   -3.5073  143.9089 C   0  0  0  0  0  0  0  0  0  0  0  0
  -26.0981   -4.8333  143.2213 N   0  0  0  0  0  0  0  0  0  0  0  0
  -24.0828   -3.5042  145.4623 N   0  0  0  0  0  0  0  0  0  0  0  0
  -23.5972   -4.9371  145.4018 C   0  0  0  0  0  0  0  0  0  0  0  0
  -25.0184   -5.8165  142.8193 C   0  0  0  0  0  0  0  0  0  0  0  0
  -25.0697   -6.6013  141.4590 C   0  0  0  0  0  0  0  0  0  0  0  0
  -21.9475   -5.0325  145.5434 C   0  0  0  0  0  0  0  0  0  0  0  0
  -25.4915   -8.0661  141.8243 C   0  0  0  0  0  0  0  0  0  0  0  0
  -21.1627   -6.2063  146.0385 C   0  0  0  0  0  0  0  0  0  0  0  0
  -27.4142  -10.4828  142.0584 C   0  0  0  0  0  0  0  0  0  0  0  0
  -20.4609   -5.8573  147.3773 C   0  0  0  0  0  0  0  0  0  0  0  0
  -23.6354   -6.8264  141.0542 C   0  0  0  0  0  0  0  0  0  0  0  0
  -26.6729  -11.8136  141.5985 C   0  0  0  0  0  0  0  0  0  0  0  0
  -21.7864   -7.5643  145.6675 C   0  0  0  0  0  0  0  0  0  0  0  0
  -22.7323   -7.4540  139.9047 C   0  0  0  0  0  0  0  0  0  0  0  0
  -23.9448   -5.5748  141.8460 C   0  0  0  0  0  0  0  0  0  0  0  0
  -21.8502   -5.3325  147.0740 C   0  0  0  0  0  0  0  0  0  0  0  0
  -27.4384   -9.4910  140.8538 C   0  0  0  0  0  0  0  0  0  0  0  0
  -26.2939   -2.3487  145.4846 C   0  0  0  0  0  0  0  0  0  0  0  0
  -23.6089   -6.3836  139.7476 O   0  0  0  0  0  0  0  0  0  0  0  0
  -22.9685   -9.0924  139.7364 C   0  0  0  0  0  0  0  0  0  0  0  0
  -22.0333  -11.0974  138.2241 C   0  0  0  0  0  0  0  0  0  0  0  0
  -19.7414  -11.4784  137.3918 C   0  0  0  0  0  0  0  0  0  0  0  0
  -25.9748   -8.9616  140.6477 C   0  0  0  0  0  0  0  0  0  0  0  0
  -21.8090   -9.9503  139.2481 C   0  0  0  0  0  0  0  0  0  0  0  0
  -25.6486  -12.9560  141.8465 C   0  0  0  0  0  0  0  0  0  0  0  0
  -24.5519   -6.0944  145.7330 C   0  0  0  0  0  0  0  0  0  0  0  0
  -25.4455   -3.5497  145.3210 N   0  0  0  0  0  0  0  0  0  0  0  0
  -21.1357  -10.7908  136.9784 C   0  0  0  0  0  0  0  0  0  0  0  0
  -23.2804   -8.1434  138.6706 C   0  0  0  0  0  0  0  0  0  0  0  0
  2  1  1  0
  3  2  1  0
  5  4  1  0
  6  3  1  0
  7  6  1  0
  8  5  1  0
  9  7  1  0
 10  8  1  0
 12 10  1  0
 13  7  1  0
 14 11  1  0
 15 10  1  0
 16 13  1  0
 17  6  1  0
 17  7  1  0
 17 13  1  0
 18  8  1  0
 18 10  1  0
 18 12  1  0
 19 11  1  0
 20  1  1  0
 21 13  1  0
 21 16  1  0
 22 16  1  0
 25  9  1  0
 25 19  1  0
 26 22  1  0
 26 23  1  0
 27 14  1  0
 28  5  2  0
 29  2  1  0
 29  4  1  0
 29 20  1  0
 30 23  1  0
 30 24  1  0
 31 16  1  0
 31 22  1  0
M  END
$$$$

     RDKit          3D

 28 29  0  0  0  0  0  0  0  0999 V2000
  -28.9839  -28.7135  135.1706 O   0  0  0  0  0  0  0  0  0  0  0  0
  -30.6692  -27.7533  136.6657 C   0  0  0  0  0  0  0  0  0  0  0  0
  -30.4225  -26.6192  136.3032 O   0  0  0  0  0  0  0  0  0  0  0  0
  -29.0209  -29.7160  137.4876 C   0  0  0  0  0  0  0  0  0  0  0  0
  -28.6862  -28.6226  138.8692 C   0  0  0  0  0  0  0  0  0  0  0  0
  -29.7982  -28.9587  136.3009 C   0  0  0  0  0  0  0  0  0  0  0  0
  -28.7361  -27.4418  140.2266 C   0  0  0  0  0  0  0  0  0  0  0  0
  -27.8273  -26.2704  139.6109 C   0  0  0  0  0  0  0  0  0  0  0  0
  -29.5148  -24.2822  139.3418 N   0  0  0  0  0  0  0  0  0  0  0  0
  -29.3444  -26.8601  141.8080 C   0  0  0  0  0  0  0  0  0  0  0  0
  -25.8135  -25.4947  141.6382 C   0  0  0  0  0  0  0  0  0  0  0  0
  -26.1636  -26.3592  142.7504 N   0  0  0  0  0  0  0  0  0  0  0  0
  -23.2593  -25.1102  139.1603 O   0  0  0  0  0  0  0  0  0  0  0  0
  -27.1121  -25.7538  143.7148 C   0  0  0  0  0  0  0  0  0  0  0  0
  -26.9951  -25.3509  140.5918 C   0  0  0  0  0  0  0  0  0  0  0  0
  -28.6808  -23.3049  139.7614 O   0  0  0  0  0  0  0  0  0  0  0  0
  -28.1832  -26.6429  144.0109 O   0  0  0  0  0  0  0  0  0  0  0  0
  -26.3265  -25.4338  144.9949 C   0  0  0  0  0  0  0  0  0  0  0  0
  -30.7463  -29.1316  140.3038 C   0  0  0  0  0  0  0  0  0  0  0  0
  -30.2293  -22.4431  141.2431 O   0  0  0  0  0  0  0  0  0  0  0  0
  -27.6449  -24.5180  143.3196 F   0  0  0  0  0  0  0  0  0  0  0  0
  -24.2948  -25.4978  141.3402 C   0  0  0  0  0  0  0  0  0  0  0  0
  -28.6389  -25.2567  138.6618 C   0  0  0  0  0  0  0  0  0  0  0  0
  -29.9625  -28.0658  139.5157 C   0  0  0  0  0  0  0  0  0  0  0  0
  -23.9114  -24.4578  140.2369 C   0  0  0  0  0  0  0  0  0  0  0  0
  -29.3813  -22.1750  140.1465 C   0  0  0  0  0  0  0  0  0  0  0  0
  -28.5200  -27.5341  142.9383 C   0  0  0  0  0  0  0  0  0  0  0  0
  -23.1966  -24.2619  138.0994 N   0  0  0  0  0  0  0  0  0  0  0  0
  3  2  2  0
  5  4  1  0
  6  1  1  0
  6  2  1  0
  6  4  1  0
  7  5  1  0
  8  7  1  0
 10  7  1  0
 12 11  1  0
 14 12  1  0
 15  8  1  0
 15 11  1  0
 16  9  1  0
 17 14  1  0
 18 14  1  0
 21 14  1  0
 22 11  1  0
 23  8  1  0
 23  9  1  0
 24  5  1  0
 24  7  1  0
 24 19  1  0
 25 13  1  0
 25 22  1  0
 26 16  1  0
 26 20  1  0
 27 10  1  0
 27 17  1  0
 28 13  1  0
M  END
$$$$

     RDKit          3D

 30 37  0  0  0  0  0  0  0  0999 V2000
  -19.8126   -4.4246  145.7438 C   0  0  0  0  0  0  0  0  0  0  0  0
  -20.0450   -3.6341  147.1338 C   0  0  0  0  0  0  0  0  0  0  0  0
  -20.3867   -3.2220  145.3954 C   0  0  0  0  0  0  0  0  0  0  0  0
  -19.7934   -2.2877  146.4809 C   0  0  0  0  0  0  0  0  0  0  0  0
  -21.0484   -2.1747  144.5617 C   0  0  0  0  0  0  0  0  0  0  0  0
  -23.5612    2.4885  146.2936 O   0  0  0  0  0  0  0  0  0  0  0  0
  -24.2356   -0.4852  144.4234 O   0  0  0  0  0  0  0  0  0  0  0  0
  -25.4535   -0.0512  144.0001 O   0  0  0  0  0  0  0  0  0  0  0  0
  -22.4683    1.6820  146.7765 C   0  0  0  0  0  0  0  0  0  0  0  0
  -23.2819   -3.8299  143.9807 C   0  0  0  0  0  0  0  0  0  0  0  0
  -23.9393   -0.2672  145.8744 C   0  0  0  0  0  0  0  0  0  0  0  0
  -23.5970   -3.0738  142.7986 C   0  0  0  0  0  0  0  0  0  0  0  0
  -19.1355   -3.4065  144.5838 C   0  0  0  0  0  0  0  0  0  0  0  0
  -21.5629   -3.5421  147.9101 C   0  0  0  0  0  0  0  0  0  0  0  0
  -21.2920   -3.7322  149.3041 O   0  0  0  0  0  0  0  0  0  0  0  0
  -24.0037   -4.3563  141.9879 C   0  0  0  0  0  0  0  0  0  0  0  0
  -22.5110    0.3471  145.9770 C   0  0  0  0  0  0  0  0  0  0  0  0
  -23.9443   -1.5448  146.8950 C   0  0  0  0  0  0  0  0  0  0  0  0
  -21.6336    3.3514  147.7133 C   0  0  0  0  0  0  0  0  0  0  0  0
  -22.2296    2.0138  148.2623 C   0  0  0  0  0  0  0  0  0  0  0  0
  -24.0175   -5.7730  142.4195 C   0  0  0  0  0  0  0  0  0  0  0  0
  -23.0241   -4.9990  143.1210 C   0  0  0  0  0  0  0  0  0  0  0  0
  -22.1745    1.1096  144.6051 C   0  0  0  0  0  0  0  0  0  0  0  0
  -22.3618   -2.9797  144.9115 C   0  0  0  0  0  0  0  0  0  0  0  0
  -19.4477   -3.7130  143.0568 C   0  0  0  0  0  0  0  0  0  0  0  0
  -18.8658   -2.6754  142.0139 C   0  0  0  0  0  0  0  0  0  0  0  0
  -19.6026   -1.9851  144.9678 C   0  0  0  0  0  0  0  0  0  0  0  0
  -21.1422    2.5104  146.4329 C   0  0  0  0  0  0  0  0  0  0  0  0
  -21.2294    2.2671  144.9219 C   0  0  0  0  0  0  0  0  0  0  0  0
  -22.9472   -2.4741  147.8417 C   0  0  0  0  0  0  0  0  0  0  0  0
  2  1  1  0
  3  1  1  0
  4  2  1  0
  4  3  1  0
  5  3  1  0
  8  7  1  0
  9  6  1  0
 11  7  1  0
 12 10  1  0
 13  1  1  0
 13  3  1  0
 14  2  1  0
 15 14  1  0
 16 12  1  0
 17  9  1  0
 17 11  1  0
 18 11  1  0
 20  9  1  0
 20 19  1  0
 21 16  1  0
 22 10  1  0
 22 16  1  0
 22 21  1  0
 23 17  1  0
 24  5  1  0
 24 10  1  0
 25 13  1  0
 26 25  1  0
 27  4  1  0
 27  5  1  0
 27 13  1  0
 28  9  1  0
 28 19  1  0
 29 23  1  0
 29 28  1  0
 30 14  1  0
 30 18  1  0
M  END
$$$$

     RDKit          3D

 31 38  0  0  0  0  0  0  0  0999 V2000
  -35.4449   -9.9994  140.8166 C   0  0  0  0  0  0  0  0  0  0  0  0
  -34.3804   -9.0160  140.2193 C   0  0  0  0  0  0  0  0  0  0  0  0
  -34.1755   -7.6832  141.0135 C   0  0  0  0  0  0  0  0  0  0  0  0
  -33.6936  -11.2883  142.2790 C   0  0  0  0  0  0  0  0  0  0  0  0
  -33.3612  -12.7017  142.7611 C   0  0  0  0  0  0  0  0  0  0  0  0
  -34.1302   -8.0393  142.5294 C   0  0  0  0  0  0  0  0  0  0  0  0
  -35.9679  -12.2175  142.0971 C   0  0  0  0  0  0  0  0  0  0  0  0
  -32.9757   -6.8758  140.3966 C   0  0  0  0  0  0  0  0  0  0  0  0
  -33.3831   -7.0987  143.5256 C   0  0  0  0  0  0  0  0  0  0  0  0
  -37.0412  -12.5143  141.5711 O   0  0  0  0  0  0  0  0  0  0  0  0
  -34.0135   -6.2656  144.6333 C   0  0  0  0  0  0  0  0  0  0  0  0
  -35.5274   -8.6021  142.9844 C   0  0  0  0  0  0  0  0  0  0  0  0
  -33.4901   -7.6451  144.9618 C   0  0  0  0  0  0  0  0  0  0  0  0
  -34.3092  -12.7496  144.0215 C   0  0  0  0  0  0  0  0  0  0  0  0
  -35.3057  -13.9218  144.0398 C   0  0  0  0  0  0  0  0  0  0  0  0
  -35.7848  -12.5573  143.5791 C   0  0  0  0  0  0  0  0  0  0  0  0
  -34.9013  -11.4056  141.3236 C   0  0  0  0  0  0  0  0  0  0  0  0
  -32.3179  -11.7662  142.1148 C   0  0  0  0  0  0  0  0  0  0  0  0
  -31.6086   -7.6560  140.4039 C   0  0  0  0  0  0  0  0  0  0  0  0
  -32.1776   -7.8305  145.7139 C   0  0  0  0  0  0  0  0  0  0  0  0
  -31.6395   -9.2964  145.5199 C   0  0  0  0  0  0  0  0  0  0  0  0
  -30.4516   -6.9577  139.7151 C   0  0  0  0  0  0  0  0  0  0  0  0
  -32.4553  -10.3422  146.3354 C   0  0  0  0  0  0  0  0  0  0  0  0
  -31.1182   -8.2429  139.0815 C   0  0  0  0  0  0  0  0  0  0  0  0
  -36.3226   -9.2439  141.8321 C   0  0  0  0  0  0  0  0  0  0  0  0
  -32.8179   -5.1918  141.0946 S   0  0  0  0  0  0  0  0  0  0  0  0
  -30.3612   -7.2565  138.2457 C   0  0  0  0  0  0  0  0  0  0  0  0
  -30.1560   -9.3176  145.9061 C   0  0  0  0  0  0  0  0  0  0  0  0
  -32.6443  -11.7080  145.6156 C   0  0  0  0  0  0  0  0  0  0  0  0
  -34.0431  -11.8895  145.2127 N   0  0  0  0  0  0  0  0  0  0  0  0
  -34.9356  -11.9597  146.3726 C   0  0  0  0  0  0  0  0  0  0  0  0
  2  1  1  0
  3  2  1  0
  5  4  1  0
  6  3  1  0
  8  3  1  0
  9  6  1  0
 10  7  2  0
 11  9  1  0
 12  6  1  0
 13  9  1  0
 13 11  1  0
 14  5  1  0
 15 14  1  0
 16  7  1  0
 16 14  1  0
 16 15  1  0
 17  1  1  0
 17  4  1  0
 17  7  1  0
 18  4  1  0
 18  5  1  0
 19  8  1  0
 20 13  1  0
 21 20  1  0
 22 19  1  0
 23 21  1  0
 24 19  1  0
 24 22  1  0
 25  1  1  0
 25 12  1  0
 26  8  1  0
 27 22  1  0
 27 24  1  0
 28 21  1  0
 29 23  1  0
 30 14  1  0
 30 29  1  0
 31 30  1  0
M  END
$$$$

     RDKit          3D

 30 33  0  0  0  0  0  0  0  0999 V2000
  -19.3513   -2.5351  143.8016 C   0  0  0  0  0  0  0  0  0  0  0  0
  -19.5758   -2.2051  142.3479 C   0  0  0  0  0  0  0  0  0  0  0  0
  -19.6780   -4.7978  146.4451 C   0  0  0  0  0  0  0  0  0  0  0  0
  -24.4165   -7.1908  143.1704 C   0  0  0  0  0  0  0  0  0  0  0  0
  -24.9913   -7.0360  144.5390 N   0  0  0  0  0  0  0  0  0  0  0  0
  -20.6350   -4.2817  147.7059 C   0  0  0  0  0  0  0  0  0  0  0  0
  -19.8536   -0.1645  142.3401 Si  0  0  0  0  0  4  0  0  0  0  0  0
  -19.2473   -4.5054  144.3847 As  0  0  0  0  0  3  0  0  0  0  0  0
  -21.7547   -4.4385  145.2778 C   0  0  0  0  0  0  0  0  0  0  0  0
  -23.7080   -6.1748  146.2316 F   0  0  0  0  0  0  0  0  0  0  0  0
  -24.7915   -4.4818  144.8518 C   0  0  0  0  0  0  0  0  0  0  0  0
  -19.0027    1.1628  143.4483 C   0  0  0  0  0  0  0  0  0  0  0  0
  -26.5996    0.2885  143.7977 C   0  0  0  0  0  0  0  0  0  0  0  0
  -19.7776    2.1412  144.4908 C   0  0  0  0  0  0  0  0  0  0  0  0
  -27.1889   -1.4335  145.2085 C   0  0  0  0  0  0  0  0  0  0  0  0
  -21.1286   -5.1399  144.1097 C   0  0  0  0  0  0  0  0  0  0  0  0
  -27.2544   -1.9605  146.5638 O   0  0  0  0  0  0  0  0  0  0  0  0
  -24.9293   -2.6398  147.4571 C   0  0  0  0  0  0  0  0  0  0  0  0
  -25.1144   -3.2973  146.0070 C   0  0  0  0  0  0  0  0  0  0  0  0
  -23.7052   -2.5571  146.5117 C   0  0  0  0  0  0  0  0  0  0  0  0
  -20.7674   -3.8842  146.2942 C   0  0  0  0  0  0  0  0  0  0  0  0
  -29.5262    0.9899  144.8486 C   0  0  0  0  0  0  0  0  0  0  0  0
  -26.6263   -2.8282  145.6502 C   0  0  0  0  0  0  0  0  0  0  0  0
  -21.6875   -1.4970  146.6853 F   0  0  0  0  0  0  0  0  0  0  0  0
  -24.7113   -5.8971  145.3723 N   0  0  0  0  0  0  0  0  0  0  0  0
  -25.0066   -3.7525  148.8327 Cl  0  0  0  0  0  0  0  0  0  0  0  0
  -28.0855    1.5082  143.4644 Se  0  0  0  0  0  2  0  0  0  0  0  0
  -22.4470   -2.2173  147.5079 C   0  0  0  0  0  0  0  0  0  0  0  0
  -22.0467   -3.6399  148.0205 C   0  0  0  0  0  0  0  0  0  0  0  0
  -26.3623   -0.3045  145.1501 O   0  0  0  0  0  0  0  0  0  0  0  0
  2  1  1  0
  5  4  1  0
  6  3  1  0
  7  2  1  0
  8  1  1  0
  8  3  1  0
 12  7  1  0
 14 12  1  0
 16  8  1  0
 16  9  1  0
 17 15  1  0
 19 11  1  0
 19 18  1  0
 20 18  1  0
 20 19  1  0
 21  3  1  0
 21  6  1  0
 21  9  1  0
 23 15  1  0
 23 17  1  0
 23 19  1  0
 25  5  1  0
 25 10  1  0
 25 11  1  0
 26 18  1  0
 27 13  1  0
 27 22  1  0
 28 20  1  0
 28 24  1  0
 29  6  1  0
 29 28  1  0
 30 13  1  0
 30 15  1  0
M  END
$$$$

     RDKit          3D

 20 23  0  0  0  0  0  0  0  0999 V2000
  -29.6751   -2.9813  135.7639 O   0  0  0  0  0  0  0  0  0  0  0  0
  -30.5624   -2.3244  134.8795 C   0  0  0  0  0  0  0  0  0  0  0  0
  -27.8836   -1.8527  132.6817 As  0  0  0  0  0  3  0  0  0  0  0  0
  -31.8940   -2.0719  135.5994 C   0  0  0  0  0  0  0  0  0  0  0  0
  -32.9289   -1.2028  134.8410 C   0  0  0  0  0  0  0  0  0  0  0  0
  -33.3470   -1.6419  133.4500 C   0  0  0  0  0  0  0  0  0  0  0  0
  -28.5622   -3.5107  135.0653 C   0  0  0  0  0  0  0  0  0  0  0  0
  -26.8214   -0.1668  132.6115 C   0  0  0  0  0  0  0  0  0  0  0  0
  -32.4214   -0.3925  133.6786 C   0  0  0  0  0  0  0  0  0  0  0  0
  -32.5580   -1.0190  132.3228 C   0  0  0  0  0  0  0  0  0  0  0  0
  -27.5882   -2.4112  134.5973 C   0  0  0  0  0  0  0  0  0  0  0  0
  -26.4936   -2.8632  133.7396 C   0  0  0  0  0  0  0  0  0  0  0  0
  -26.7774    0.5830  131.2673 C   0  0  0  0  0  0  0  0  0  0  0  0
  -27.2402   -1.3157  135.6148 C   0  0  0  0  0  0  0  0  0  0  0  0
  -27.6766    0.0719  130.1142 C   0  0  0  0  0  0  0  0  0  0  0  0
  -27.0203   -0.9429  129.1773 C   0  0  0  0  0  0  0  0  0  0  0  0
  -25.5802   -0.2534  131.7314 C   0  0  0  0  0  0  0  0  0  0  0  0
  -24.3804    0.5776  132.2077 C   0  0  0  0  0  0  0  0  0  0  0  0
  -23.5886   -0.1728  133.2756 C   0  0  0  0  0  0  0  0  0  0  0  0
  -22.1081    0.7737  133.7494 S   0  0  0  0  0  0  0  0  0  0  0  0
  2  1  1  0
  4  2  1  0
  5  4  1  0
  6  5  1  0
  7  1  1  0
  8  3  1  0
  9  5  1  0
  9  6  1  0
 10  6  1  0
 10  9  1  0
 11  3  1  0
 11  7  1  0
 12  3  1  0
 12 11  1  0
 13  8  1  0
 14 11  1  0
 15 13  1  0
 16 15  1  0
 17  8  1  0
 17 13  1  0
 18 17  1  0
 19 18  1  0
 20 19  1  0
M  END
$$$$

     RDKit          3D

 31 36  0  0  0  0  0  0  0  0999 V2000
  -30.0053  -13.8465  143.0955 S   0  0  0  0  0  4  0  0  0  0  0  0
  -25.3735  -14.1026  126.4782 C   0  0  0  0  0  0  0  0  0  0  0  0
  -22.6655  -13.7328  127.7314 C   0  0  0  0  0  0  0  0  0  0  0  0
  -24.3940  -14.2247  129.1378 C   0  0  0  0  0  0  0  0  0  0  0  0
  -10.9986  -10.2276  210.1668 C   0  0  0  0  0  0  0  0  0  0  0  0
  -25.2216  -11.3283  132.8172 C   0  0  0  0  0  0  0  0  0  0  0  0
  -25.8015  -10.7351  135.8001 C   0  0  0  0  0  0  0  0  0  0  0  0
   -9.6453  -12.9485  211.5737 O   0  0  0  0  0  0  0  0  0  0  0  0
  -21.7892  -13.9954  125.2161 C   0  0  0  0  0  0  0  0  0  0  0  0
  -27.5386  -14.7945  128.9763 C   0  0  0  0  0  0  0  0  0  0  0  0
  -24.6037  -20.4459  128.2848 O   0  0  0  0  0  0  0  0  0  0  0  0
  -22.7646  -12.5646  124.9913 C   0  0  0  0  0  0  0  0  0  0  0  0
  -33.3917  -13.9642  129.4351 C   0  0  0  0  0  0  0  0  0  0  0  0
  -38.7790  -13.6303  129.6027 C   0  0  0  0  0  0  0  0  0  0  0  0
  -25.4988  -13.2957  131.4143 C   0  0  0  0  0  0  0  0  0  0  0  0
  -15.2841  -10.3416  208.4245 C   0  0  0  0  0  0  0  0  0  0  0  0
  -17.8954  -13.0035  206.7042 C   0  0  0  0  0  0  0  0  0  0  0  0
  -23.4547  -15.6171  127.5032 C   0  0  0  0  0  0  0  0  0  0  0  0
  -39.8090  -10.5261  131.7338 C   0  0  0  0  0  0  0  0  0  0  0  0
  -13.1706  -10.2733  209.9872 C   0  0  0  0  0  0  0  0  0  0  0  0
  -43.7412  -14.8977  127.7815 C   0  0  0  0  0  0  0  0  0  0  0  0
  -32.7501  -12.6878  133.9991 C   0  0  0  0  0  0  0  0  0  0  0  0
  -44.3123  -16.0862  125.8865 C   0  0  0  0  0  0  0  0  0  0  0  0
  -34.7848  -10.4564  134.1328 C   0  0  0  0  0  0  0  0  0  0  0  0
  -23.9022  -17.7490  128.3097 C   0  0  0  0  0  0  0  0  0  0  0  0
  -15.8377  -11.9422  207.5473 C   0  0  0  0  0  0  0  0  0  0  0  0
  -51.0344  -17.1528  125.5179 C   0  0  0  0  0  0  0  0  0  0  0  0
  -47.6885  -17.0425  126.4901 C   0  0  0  0  0  0  0  0  0  0  0  0
  -24.1424  -11.2208  136.3319 C   0  0  0  0  0  0  0  0  0  0  0  0
  -24.3999   -9.4431  137.7935 C   0  0  0  0  0  0  0  0  0  0  0  0
  -25.2469  -11.2491  138.1613 C   0  0  0  0  0  0  0  0  0  0  0  0
  2  1  1  0
  3  2  1  0
  4  3  1  0
  5  1  1  0
  7  6  1  0
  8  5  1  0
  9  2  1  0
 11  1  1  0
 12  1  1  0
 12  2  1  0
 12  9  1  0
 13 10  1  0
 14 13  1  0
 15  4  1  0
 15  6  1  0
 15 10  1  0
 18  3  1  0
 18  4  1  0
 19 14  1  0
 20  5  1  0
 20 16  1  0
 21 14  1  0
 23 21  1  0
 24 19  1  0
 24 22  1  0
 25 11  1  0
 25 18  1  0
 26 16  1  0
 26 17  1  0
 28 21  1  0
 28 23  1  0
 28 27  1  0
 29  7  1  0
 30 29  1  0
 31 29  1  0
 31 30  1  0
M  END
$$$$

     RDKit          3D

 11 12  0  0  0  0  0  0  0  0999 V2000
  -37.5935   -5.0024  139.9404 O   0  0  0  0  0  0  0  0  0  0  0  0
  -37.0450   -5.4215  140.9940 C   0  0  0  0  0  0  0  0  0  0  0  0
  -36.8407   -4.5447  142.0553 O   0  0  0  0  0  0  0  0  0  0  0  0
  -36.5754   -6.8400  141.0740 C   0  0  0  0  0  0  0  0  0  0  0  0
  -37.6874   -7.8576  140.9220 C   0  0  0  0  0  0  0  0  0  0  0  0
  -38.5252   -7.9688  142.1802 C   0  0  0  0  0  0  0  0  0  0  0  0
  -39.4986   -9.3981  144.1219 P   0  0  0  0  0  0  0  0  0  0  0  0
  -40.8728   -8.3748  143.8274 O   0  0  0  0  0  0  0  0  0  0  0  0
  -38.5253   -8.1888  144.9089 O   0  0  0  0  0  0  0  0  0  0  0  0
  -38.7983   -9.3082  142.5105 O   0  0  0  0  0  0  0  0  0  0  0  0
  -37.0653   -7.5785  142.3015 C   0  0  0  0  0  0  0  0  0  0  0  0
  2  1  2  0
  3  2  1  0
  4  2  1  0
  5  4  1  0
  6  5  1  0
  8  7  1  0
  9  7  1  0
 10  6  1  0
 10  7  1  0
 11  4  1  0
 11  5  1  0
 11  6  1  0
M  END
$$$$

     RDKit          3D

 26 28  0  0  0  0  0  0  0  0999 V2000
  -24.2903   -6.9688  131.4539 O   0  0  0  0  0  0  0  0  0  0  0  0
  -25.4082   -7.0565  132.3030 C   0  0  0  0  0  0  0  0  0  0  0  0
  -22.1505   -5.4166  135.6957 C   0  0  0  0  0  0  0  0  0  0  0  0
  -24.9950   -6.5614  133.6962 C   0  0  0  0  0  0  0  0  0  0  0  0
  -26.1417   -5.8941  134.5280 C   0  0  0  0  0  0  0  0  0  0  0  0
  -19.1642   -3.6468  137.4934 C   0  0  0  0  0  0  0  0  0  0  0  0
  -20.9084   -5.3122  136.5695 C   0  0  0  0  0  0  0  0  0  0  0  0
  -24.6450   -5.4705  136.5419 C   0  0  0  0  0  0  0  0  0  0  0  0
  -25.1144   -6.2664  137.7418 C   0  0  0  0  0  0  0  0  0  0  0  0
  -19.6941   -3.3160  135.4461 C   0  0  0  0  0  0  0  0  0  0  0  0
  -25.6508   -4.9046  135.6098 C   0  0  0  0  0  0  0  0  0  0  0  0
  -18.5482   -2.8862  136.3154 C   0  0  0  0  0  0  0  0  0  0  0  0
  -23.3803   -5.4820  136.1794 C   0  0  0  0  0  0  0  0  0  0  0  0
  -24.6564   -7.6063  130.2170 C   0  0  0  0  0  0  0  0  0  0  0  0
  -20.4150   -3.8662  136.6649 C   0  0  0  0  0  0  0  0  0  0  0  0
  -23.4851   -7.7427  129.3021 N   0  0  0  0  0  0  0  0  0  0  0  0
  -22.2950   -8.2864  130.0265 C   0  0  0  0  0  0  0  0  0  0  0  0
  -22.3390   -9.7736  129.6955 C   0  0  0  0  0  0  0  0  0  0  0  0
  -22.9886  -10.0013  128.3537 C   0  0  0  0  0  0  0  0  0  0  0  0
  -21.6196  -10.8729  130.4825 C   0  0  0  0  0  0  0  0  0  0  0  0
  -23.0842  -10.5334  130.8263 C   0  0  0  0  0  0  0  0  0  0  0  0
  -23.1421   -7.9602  126.8283 C   0  0  0  0  0  0  0  0  0  0  0  0
  -23.7357   -8.6529  128.1077 C   0  0  0  0  0  0  0  0  0  0  0  0
  -25.2428   -8.9385  127.8158 C   0  0  0  0  0  0  0  0  0  0  0  0
  -20.8438   -6.1470  129.8530 C   0  0  0  0  0  0  0  0  0  0  0  0
  -21.0046   -7.6404  129.4922 C   0  0  0  0  0  0  0  0  0  0  0  0
  2  1  1  0
  4  2  1  0
  5  4  1  0
  7  3  1  0
  9  8  1  0
 11  5  1  0
 11  8  1  0
 12  6  1  0
 12 10  1  0
 13  3  2  0
 13  8  2  0
 14  1  1  0
 15  6  1  0
 15  7  1  0
 15 10  1  0
 16 14  1  0
 17 16  1  0
 18 17  1  0
 19 18  1  0
 20 18  1  0
 21 18  1  0
 21 20  1  0
 23 16  1  0
 23 19  1  0
 23 22  1  0
 24 23  1  0
 26 17  1  0
 26 25  1  0
M  END
$$$$

     RDKit          3D

 25 29  0  0  0  0  0  0  0  0999 V2000
  -32.2118   -6.5008  136.6631 C   0  0  0  0  0  0  0  0  0  0  0  0
  -30.5997   -9.2333  137.2238 O   0  0  0  0  0  0  0  0  0  0  0  0
  -33.7814   -5.1473  137.0974 O   0  0  0  0  0  0  0  0  0  0  0  0
  -29.9893   -7.8587  136.5903 C   0  0  0  0  0  0  0  0  0  0  0  0
  -31.2104   -7.0888  139.1736 C   0  0  0  0  0  0  0  0  0  0  0  0
  -29.6591   -8.8660  138.1320 C   0  0  0  0  0  0  0  0  0  0  0  0
  -30.7429  -14.7063  139.7808 C   0  0  0  0  0  0  0  0  0  0  0  0
  -33.3614   -4.8352  138.5854 F   0  0  0  0  0  0  0  0  0  0  0  0
  -29.5553   -7.3889  139.4527 C   0  0  0  0  0  0  0  0  0  0  0  0
  -30.6916   -7.7478  134.5722 C   0  0  0  0  0  0  0  0  0  0  0  0
  -29.4158   -9.4862  132.1477 C   0  0  0  0  0  0  0  0  0  0  0  0
  -30.5957  -12.3380  139.5871 N   0  0  0  0  0  0  0  0  0  0  0  0
  -30.7819   -9.7945  139.6801 C   0  0  0  0  0  0  0  0  0  0  0  0
  -30.3655  -18.9436  142.5886 C   0  0  0  0  0  0  0  0  0  0  0  0
  -29.0956  -20.8905  145.0421 C   0  0  0  0  0  0  0  0  0  0  0  0
  -26.8650  -22.0226  147.2280 C   0  0  0  0  0  0  0  0  0  0  0  0
  -25.8012  -24.1714  149.0886 C   0  0  0  0  0  0  0  0  0  0  0  0
  -24.6212  -26.3742  150.2206 C   0  0  0  0  0  0  0  0  0  0  0  0
  -23.6110  -28.6395  150.8270 C   0  0  0  0  0  0  0  0  0  0  0  0
  -28.1020  -11.5004  132.6773 C   0  0  0  0  0  0  0  0  0  0  0  0
  -22.8732  -30.1401  151.8933 C   0  0  0  0  0  0  0  0  0  0  0  0
  -28.4898  -14.3293  130.1978 C   0  0  0  0  0  0  0  0  0  0  0  0
  -30.2113  -17.5042  140.8442 C   0  0  0  0  0  0  0  0  0  0  0  0
  -27.7785  -13.6495  131.9957 C   0  0  0  0  0  0  0  0  0  0  0  0
  -29.2186  -11.7345  131.0627 C   0  0  0  0  0  0  0  0  0  0  0  0
  3  1  1  0
  4  2  1  0
  5  1  1  0
  6  2  1  0
  6  4  1  0
  8  3  1  0
  9  5  1  0
  9  6  1  0
 10  1  1  0
 10  4  1  0
 11 10  1  0
 12  7  1  0
 13  5  1  0
 13  6  1  0
 13 12  1  0
 15 14  1  0
 16 15  1  0
 17 16  1  0
 18 17  1  0
 19 18  1  0
 20 11  1  0
 21 19  1  0
 23  7  1  0
 23 14  1  0
 24 20  1  0
 24 22  1  0
 25 11  1  0
 25 20  1  0
 25 22  1  0
M  END
$$$$

     RDKit          3D

 31 34  0  0  0  0  0  0  0  0999 V2000
  -28.7567   -9.3087  140.7512 I   0  0  0  0  0  0  0  0  0  0  0  0
  -31.3367   -7.8537  141.3151 C   0  0  0  0  0  0  0  0  0  0  0  0
  -32.2818   -8.3563  142.4050 C   0  0  0  0  0  0  0  0  0  0  0  0
  -33.1887   -9.5724  142.1955 C   0  0  0  0  0  0  0  0  0  0  0  0
  -32.4354   -7.6330  143.5379 C   0  0  0  0  0  0  0  0  0  0  0  0
  -29.3156   -6.3399  141.0273 C   0  0  0  0  0  0  0  0  0  0  0  0
  -31.6292   -6.3996  143.8225 C   0  0  0  0  0  0  0  0  0  0  0  0
  -30.1907   -6.7742  144.2094 C   0  0  0  0  0  0  0  0  0  0  0  0
  -29.3605   -5.5082  144.5442 C   0  0  0  0  0  0  0  0  0  0  0  0
  -34.0225   -9.5489  140.8817 C   0  0  0  0  0  0  0  0  0  0  0  0
  -35.1926   -8.5482  140.9050 C   0  0  0  0  0  0  0  0  0  0  0  0
  -32.4483  -10.9114  142.4368 C   0  0  0  0  0  0  0  0  0  0  0  0
  -27.7906   -6.0746  141.0369 C   0  0  0  0  0  0  0  0  0  0  0  0
  -29.4837   -7.7467  143.2123 C   0  0  0  0  0  0  0  0  0  0  0  0
  -29.8155   -7.6630  141.6836 C   0  0  0  0  0  0  0  0  0  0  0  0
  -34.7838   -7.1408  140.4267 C   0  0  0  0  0  0  0  0  0  0  0  0
  -28.3607   -5.7333  145.7049 C   0  0  0  0  0  0  0  0  0  0  0  0
  -27.4470   -4.9536  140.0415 C   0  0  0  0  0  0  0  0  0  0  0  0
  -25.9868   -2.9829  140.8028 C   0  0  0  0  0  0  0  0  0  0  0  0
  -34.4729   -6.1694  141.5294 C   0  0  0  0  0  0  0  0  0  0  0  0
  -24.6071   -2.4587  140.7421 N   0  0  0  0  0  0  0  0  0  0  0  0
  -25.0429   -0.9344  142.6470 C   0  0  0  0  0  0  0  0  0  0  0  0
  -26.0121   -4.4127  140.2339 C   0  0  0  0  0  0  0  0  0  0  0  0
  -35.6434   -5.3985  142.0592 C   0  0  0  0  0  0  0  0  0  0  0  0
  -26.5166   -2.9359  142.2523 C   0  0  0  0  0  0  0  0  0  0  0  0
  -35.7866   -6.0272  140.6915 C   0  0  0  0  0  0  0  0  0  0  0  0
  -24.5489   -1.0617  141.1992 C   0  0  0  0  0  0  0  0  0  0  0  0
  -31.6083  -11.4400  141.2678 C   0  0  0  0  0  0  0  0  0  0  0  0
  -27.2365   -4.6904  145.6571 C   0  0  0  0  0  0  0  0  0  0  0  0
  -26.4588   -1.5023  142.7857 C   0  0  0  0  0  0  0  0  0  0  0  0
  -29.0712   -5.6651  147.0713 C   0  0  0  0  0  0  0  0  0  0  0  0
  3  2  1  0
  4  3  1  0
  5  3  2  0
  7  5  1  0
  8  7  1  0
  9  8  1  0
 10  4  1  0
 11 10  1  0
 12  4  1  0
 13  6  1  0
 14  8  1  0
 15  1  1  0
 15  2  1  0
 15  6  1  0
 15 14  1  0
 16 11  1  0
 17  9  1  0
 18 13  1  0
 20 16  1  0
 21 19  1  0
 23 18  1  0
 23 19  1  0
 24 20  1  0
 25 19  1  0
 26 16  1  0
 26 20  1  0
 26 24  1  0
 27 21  1  0
 27 22  1  0
 28 12  1  0
 29 17  1  0
 30 22  1  0
 30 25  1  0
 31 17  1  0
M  END
$$$$

     RDKit          3D

 30 39  0  0  0  0  0  0  0  0999 V2000
  -27.5109  -14.4657  142.8995 O   0  0  0  0  0  0  0  0  0  0  0  0
  -27.0636  -15.6323  143.6338 C   0  0  0  0  0  0  0  0  0  0  0  0
  -26.9706  -14.8837  142.6172 O   0  0  0  0  0  0  0  0  0  0  0  0
  -28.6150  -13.6624  143.6106 C   0  0  0  0  0  0  0  0  0  0  0  0
  -28.6248  -14.2770  144.9903 C   0  0  0  0  0  0  0  0  0  0  0  0
  -29.1820  -14.2502  146.4039 C   0  0  0  0  0  0  0  0  0  0  0  0
  -29.7787  -14.5394  143.9840 C   0  0  0  0  0  0  0  0  0  0  0  0
  -29.2152  -15.7523  146.7332 C   0  0  0  0  0  0  0  0  0  0  0  0
  -29.2432  -15.8937  148.2619 C   0  0  0  0  0  0  0  0  0  0  0  0
  -30.5698  -15.2822  148.8224 C   0  0  0  0  0  0  0  0  0  0  0  0
  -28.0199  -16.3963  145.9631 C   0  0  0  0  0  0  0  0  0  0  0  0
  -28.9970  -17.3026  148.7383 C   0  0  0  0  0  0  0  0  0  0  0  0
  -30.9246  -13.8586  148.2341 C   0  0  0  0  0  0  0  0  0  0  0  0
  -29.9724  -18.0892  149.2119 C   0  0  0  0  0  0  0  0  0  0  0  0
  -30.3134  -12.7090  149.0193 C   0  0  0  0  0  0  0  0  0  0  0  0
  -31.4168  -17.6827  149.2361 C   0  0  0  0  0  0  0  0  0  0  0  0
  -30.5239  -11.4784  148.1248 C   0  0  0  0  0  0  0  0  0  0  0  0
  -31.9095  -10.8032  148.2873 C   0  0  0  0  0  0  0  0  0  0  0  0
  -32.2750  -10.4510  149.7404 C   0  0  0  0  0  0  0  0  0  0  0  0
  -31.8044  -16.2577  148.9088 C   0  0  0  0  0  0  0  0  0  0  0  0
  -31.8350   -9.0847  150.2425 C   0  0  0  0  0  0  0  0  0  0  0  0
  -32.3043   -8.7262  151.6479 C   0  0  0  0  0  0  0  0  0  0  0  0
  -32.7949  -16.1688  147.7698 C   0  0  0  0  0  0  0  0  0  0  0  0
  -31.9921   -7.2821  152.0498 C   0  0  0  0  0  0  0  0  0  0  0  0
  -33.7496   -8.9489  151.2387 C   0  0  0  0  0  0  0  0  0  0  0  0
  -33.3038   -9.3433  149.8413 C   0  0  0  0  0  0  0  0  0  0  0  0
  -30.3670  -12.0219  146.6868 C   0  0  0  0  0  0  0  0  0  0  0  0
  -30.5160  -13.5583  146.7641 C   0  0  0  0  0  0  0  0  0  0  0  0
  -27.4966  -15.2921  145.0348 C   0  0  0  0  0  0  0  0  0  0  0  0
  -31.8994  -17.3808  147.8303 C   0  0  0  0  0  0  0  0  0  0  0  0
  2  1  1  0
  3  2  2  0
  4  1  1  0
  5  4  1  0
  6  5  1  0
  7  4  1  0
  7  5  1  0
  8  6  1  0
  9  8  1  0
 10  9  1  0
 11  8  1  0
 12  9  1  0
 13 10  1  0
 14 12  2  0
 15 13  1  0
 16 14  1  0
 17 15  1  0
 18 17  1  0
 19 18  1  0
 20 10  1  0
 20 16  1  0
 21 19  1  0
 22 21  1  0
 23 20  1  0
 24 22  1  0
 25 22  1  0
 26 19  1  0
 26 21  1  0
 26 25  1  0
 27 17  1  0
 28  6  1  0
 28 13  1  0
 28 27  1  0
 29  2  1  0
 29  5  1  0
 29 11  1  0
 30 16  1  0
 30 20  1  0
 30 23  1  0
M  END
$$$$

     RDKit          3D

 31 35  0  0  0  0  0  0  0  0999 V2000
  -22.0971    4.7381  151.9164 C   0  0  0  0  0  0  0  0  0  0  0  0
  -25.7346    6.1776  151.8863 C   0  0  0  0  0  0  0  0  0  0  0  0
  -25.7247    9.3187  150.1881 C   0  0  0  0  0  0  0  0  0  0  0  0
  -28.0765    8.8513  150.3192 C   0  0  0  0  0  0  0  0  0  0  0  0
  -25.7088    8.6188  148.5292 N   0  0  0  0  0  0  0  0  0  0  0  0
  -26.3053    5.4474  145.8528 C   0  0  0  0  0  0  0  0  0  0  0  0
  -26.5515    8.0416  151.0091 C   0  0  0  0  0  0  0  0  0  0  0  0
  -26.4980    5.6249  143.9892 N   0  0  0  0  0  0  0  0  0  0  0  0
  -24.0802    7.3337  149.3683 C   0  0  0  0  0  0  0  0  0  0  0  0
  -22.8319    6.7066  152.7986 C   0  0  0  0  0  0  0  0  0  0  0  0
  -27.2316    4.5112  142.7180 C   0  0  0  0  0  0  0  0  0  0  0  0
  -25.4819    6.7850  147.9315 C   0  0  0  0  0  0  0  0  0  0  0  0
  -27.4693    2.3738  140.7915 S   0  0  0  0  0  0  0  0  0  0  0  0
  -27.8458    6.1820  143.3123 C   0  0  0  0  0  0  0  0  0  0  0  0
  -26.7694    0.0799  139.4412 C   0  0  0  0  0  0  0  0  0  0  0  0
  -25.4946   -0.0280  139.9156 F   0  0  0  0  0  0  0  0  0  0  0  0
  -26.3112   -3.7737  140.4934 C   0  0  0  0  0  0  0  0  0  0  0  0
  -27.0390   -3.7081  141.8415 C   0  0  0  0  0  0  0  0  0  0  0  0
  -24.8035   -4.3624  140.5133 C   0  0  0  0  0  0  0  0  0  0  0  0
  -26.5257   -2.3445  141.0446 C   0  0  0  0  0  0  0  0  0  0  0  0
  -29.5228    9.3638  151.2879 C   0  0  0  0  0  0  0  0  0  0  0  0
  -24.0885    6.5632  151.1246 C   0  0  0  0  0  0  0  0  0  0  0  0
  -26.6118   -0.8473  137.5163 C   0  0  0  0  0  0  0  0  0  0  0  0
  -27.4010   -1.5532  139.8148 C   0  0  0  0  0  0  0  0  0  0  0  0
  -25.5686   -0.9315  136.1490 C   0  0  0  0  0  0  0  0  0  0  0  0
  -27.8497   -2.1956  137.1510 C   0  0  0  0  0  0  0  0  0  0  0  0
  -29.3361   -2.8649  137.6300 C   0  0  0  0  0  0  0  0  0  0  0  0
  -26.3706   -1.2733  134.7787 C   0  0  0  0  0  0  0  0  0  0  0  0
  -24.5254   -2.0456  134.4969 S   0  0  0  0  0  0  0  0  0  0  0  0
  -25.1493   -1.7496  137.3689 C   0  0  0  0  0  0  0  0  0  0  0  0
  -23.5765   -1.3456  137.5826 C   0  0  0  0  0  0  0  0  0  0  0  0
  5  3  1  0
  7  2  1  0
  7  3  1  0
  7  4  1  0
  8  6  1  0
 10  1  1  0
 11  8  1  0
 12  5  1  0
 12  6  1  0
 12  9  1  0
 13 11  1  0
 14  8  1  0
 14 11  1  0
 15 13  1  0
 16 15  1  0
 18 17  1  0
 19 17  1  0
 20 17  1  0
 20 18  1  0
 21  4  1  0
 22  2  1  0
 22  9  1  0
 22 10  1  0
 23 15  1  0
 24 15  1  0
 24 20  1  0
 25 23  1  0
 26 23  1  0
 27 26  1  0
 28 25  1  0
 29 25  1  0
 29 28  1  0
 30 23  1  0
 30 25  1  0
 31 30  1  0
M  END
$$$$

     RDKit          3D

 17 20  0  0  0  0  0  0  0  0999 V2000
  -27.2334  -15.1543  141.7362 Al  0  0  0  0  0  2  0  0  0  0  0  0
  -28.0211  -16.5269  142.3134 C   0  0  0  0  0  0  0  0  0  0  0  0
  -27.8233  -14.1739  144.5358 C   0  0  0  0  0  0  0  0  0  0  0  0
  -28.1692  -12.9700  145.1357 C   0  0  0  0  0  0  0  0  0  0  0  0
  -28.4116  -11.8361  144.3313 C   0  0  0  0  0  0  0  0  0  0  0  0
  -27.1810  -12.0997  145.5342 C   0  0  0  0  0  0  0  0  0  0  0  0
  -28.9385  -10.5180  144.8768 C   0  0  0  0  0  0  0  0  0  0  0  0
  -26.4824  -14.6757  144.6852 C   0  0  0  0  0  0  0  0  0  0  0  0
  -28.3133  -15.5673  141.3304 N   0  0  0  0  0  2  0  0  0  0  0  0
  -27.8036  -14.2714  145.4628 C   0  0  0  0  0  0  0  0  0  0  0  0
  -26.8398  -15.5657  142.9872 C   0  0  0  0  0  0  0  0  0  0  0  0
  -29.0275  -13.5640  143.9663 C   0  0  0  0  0  0  0  0  0  0  0  0
  -28.5153  -10.2058  146.1497 O   0  0  0  0  0  0  0  0  0  0  0  0
  -30.3473  -11.1094  144.9452 C   0  0  0  0  0  0  0  0  0  0  0  0
  -30.6247  -12.3729  144.1270 C   0  0  0  0  0  0  0  0  0  0  0  0
  -28.6586  -17.7346  142.2309 O   0  0  0  0  0  0  0  0  0  0  0  0
  -30.2550  -13.6842  145.1410 C   0  0  0  0  0  0  0  0  0  0  0  0
  2  1  1  0
  4  3  1  0
  5  4  1  0
  6  4  1  0
  6  5  1  0
  7  5  1  0
  8  3  1  0
  9  2  1  0
 10  3  1  0
 11  1  1  0
 11  2  1  0
 11  8  1  0
 12  3  1  0
 12  5  1  0
 13  7  1  0
 14  7  1  0
 15 14  1  0
 16  2  1  0
 17 12  1  0
 17 15  1  0
M  RAD  2   1   2   9   2
M  END
$$$$

     RDKit          3D

 31 35  0  0  0  0  0  0  0  0999 V2000
  -29.8194  -24.8378  136.8328 O   0  0  0  0  0  0  0  0  0  0  0  0
  -30.1163  -24.6079  138.0322 C   0  0  0  0  0  0  0  0  0  0  0  0
  -31.4164  -24.1796  138.3202 O   0  0  0  0  0  0  0  0  0  0  0  0
  -29.4578  -24.1848  140.4616 C   0  0  0  0  0  0  0  0  0  0  0  0
  -28.7122  -26.4047  139.2103 C   0  0  0  0  0  0  0  0  0  0  0  0
  -27.9109  -26.7729  140.3955 C   0  0  0  0  0  0  0  0  0  0  0  0
  -29.0869  -24.8784  139.1248 C   0  0  0  0  0  0  0  0  0  0  0  0
  -26.8633  -27.8847  140.1437 C   0  0  0  0  0  0  0  0  0  0  0  0
  -26.8617  -29.1370  141.0588 C   0  0  0  0  0  0  0  0  0  0  0  0
  -28.0093  -30.1571  140.9292 C   0  0  0  0  0  0  0  0  0  0  0  0
  -27.9708  -31.3632  139.8950 C   0  0  0  0  0  0  0  0  0  0  0  0
  -27.1957  -31.4214  138.4983 C   0  0  0  0  0  0  0  0  0  0  0  0
  -25.6812  -31.8149  138.6579 C   0  0  0  0  0  0  0  0  0  0  0  0
  -24.6736  -30.6490  138.7150 C   0  0  0  0  0  0  0  0  0  0  0  0
  -23.7449  -30.6076  137.4914 C   0  0  0  0  0  0  0  0  0  0  0  0
  -27.4076  -30.3924  137.3263 C   0  0  0  0  0  0  0  0  0  0  0  0
  -28.6261  -29.3165  135.3908 C   0  0  0  0  0  0  0  0  0  0  0  0
  -29.4793  -28.2343  136.0367 C   0  0  0  0  0  0  0  0  0  0  0  0
  -29.8460  -29.2027  137.1523 C   0  0  0  0  0  0  0  0  0  0  0  0
  -23.0170  -29.2550  137.3610 C   0  0  0  0  0  0  0  0  0  0  0  0
  -29.6760  -28.7579  138.6034 C   0  0  0  0  0  0  0  0  0  0  0  0
  -29.8756  -27.3029  139.0035 C   0  0  0  0  0  0  0  0  0  0  0  0
  -23.9147  -28.1997  136.7543 C   0  0  0  0  0  0  0  0  0  0  0  0
  -29.3519  -27.1192  140.3789 N   0  0  0  0  0  0  0  0  0  0  0  0
  -28.8042  -30.2276  136.6210 C   0  0  0  0  0  0  0  0  0  0  0  0
  -29.3963  -31.9474  139.7248 C   0  0  0  0  0  0  0  0  0  0  0  0
  -24.5343  -27.2380  137.5688 C   0  0  0  0  0  0  0  0  0  0  0  0
  -25.4428  -26.3293  137.0246 C   0  0  0  0  0  0  0  0  0  0  0  0
  -25.6923  -26.3271  135.6434 C   0  0  0  0  0  0  0  0  0  0  0  0
  -25.0698  -27.2747  134.8206 C   0  0  0  0  0  0  0  0  0  0  0  0
  -24.1904  -28.2131  135.3783 C   0  0  0  0  0  0  0  0  0  0  0  0
  2  1  2  0
  3  2  1  0
  6  5  1  0
  7  2  1  0
  7  4  1  0
  7  5  1  0
  8  6  1  0
  9  8  1  0
 10  9  1  0
 11 10  1  0
 12 11  1  0
 13 12  1  0
 14 13  1  0
 15 14  1  0
 16 12  1  0
 18 17  1  0
 19 18  1  0
 20 15  1  0
 21 19  1  0
 22  5  1  0
 22 21  1  0
 23 20  1  0
 24  5  1  0
 24  6  1  0
 24 22  1  0
 25 16  1  0
 25 17  1  0
 25 19  1  0
 26 11  1  0
 27 23  4  0
 28 27  4  0
 29 28  4  0
 30 29  4  0
 31 23  4  0
 31 30  4  0
M  END
$$$$

     RDKit          3D

 31 36  0  0  0  0  0  0  0  0999 V2000
  -18.2936  -10.3053  136.2174 O   0  0  0  0  0  0  0  0  0  0  0  0
  -18.7275   -9.3499  135.2492 C   0  0  0  0  0  0  0  0  0  0  0  0
  -17.1063   -9.9301  136.6657 O   0  0  0  0  0  0  0  0  0  0  0  0
  -17.7587   -6.7744  135.8011 C   0  0  0  0  0  0  0  0  0  0  0  0
  -17.7708   -5.8568  137.0708 C   0  0  0  0  0  0  0  0  0  0  0  0
  -16.4962   -6.5002  137.5857 C   0  0  0  0  0  0  0  0  0  0  0  0
  -16.0982   -6.2281  138.9889 C   0  0  0  0  0  0  0  0  0  0  0  0
  -14.5955   -6.2558  139.3256 C   0  0  0  0  0  0  0  0  0  0  0  0
  -15.5073   -6.3644  136.4309 C   0  0  0  0  0  0  0  0  0  0  0  0
  -16.7590   -5.1323  138.0878 C   0  0  0  0  0  0  0  0  0  0  0  0
  -17.2691   -6.1393  134.4776 C   0  0  0  0  0  0  0  0  0  0  0  0
  -17.7374   -4.4865  139.1206 C   0  0  0  0  0  0  0  0  0  0  0  0
  -18.3401   -3.1877  138.5762 C   0  0  0  0  0  0  0  0  0  0  0  0
  -18.8613   -7.8863  135.7943 C   0  0  0  0  0  0  0  0  0  0  0  0
  -17.6153   -6.7908  133.3041 O   0  0  0  0  0  0  0  0  0  0  0  0
  -16.3336   -7.0052  135.3180 C   0  0  0  0  0  0  0  0  0  0  0  0
  -14.4507   -5.9192  140.8501 C   0  0  0  0  0  0  0  0  0  0  0  0
  -18.1005   -9.5862  133.8832 C   0  0  0  0  0  0  0  0  0  0  0  0
  -13.8085   -7.6097  139.1207 C   0  0  0  0  0  0  0  0  0  0  0  0
  -13.4869   -4.7365  141.1823 C   0  0  0  0  0  0  0  0  0  0  0  0
  -11.4762   -6.1499  141.4062 N   0  0  0  0  0  0  0  0  0  0  0  0
  -10.3908   -5.8269  142.3345 C   0  0  0  0  0  0  0  0  0  0  0  0
  -12.0201   -4.9590  140.7526 C   0  0  0  0  0  0  0  0  0  0  0  0
   -9.6688   -7.0784  142.8436 C   0  0  0  0  0  0  0  0  0  0  0  0
  -10.3731   -7.8492  143.9908 C   0  0  0  0  0  0  0  0  0  0  0  0
  -12.3897   -7.8997  144.0953 Al  0  0  0  0  0  3  0  0  0  0  0  0
  -10.2392   -7.2958  145.4361 C   0  0  0  0  0  0  0  0  0  0  0  0
  -11.7156   -7.0555  145.7914 C   0  0  0  0  0  0  0  0  0  0  0  0
  -14.7704   -8.7736  139.5863 C   0  0  0  0  0  0  0  0  0  0  0  0
   -9.4027   -6.0077  145.6519 C   0  0  0  0  0  0  0  0  0  0  0  0
  -14.0098   -8.9229  138.3272 C   0  0  0  0  0  0  0  0  0  0  0  0
  2  1  1  0
  3  1  1  0
  5  4  1  0
  6  5  1  0
  7  6  1  0
  8  7  1  0
  9  6  1  0
 10  5  1  0
 10  6  1  0
 10  7  1  0
 11  4  1  0
 12 10  1  0
 13 12  1  0
 14  2  1  0
 14  4  1  0
 15 11  1  0
 16  4  1  0
 16  9  1  0
 16 11  1  0
 17  8  1  0
 18  2  1  0
 19  8  1  0
 20 17  1  0
 22 21  1  0
 23 20  1  0
 23 21  1  0
 24 22  1  0
 25 24  1  0
 26 25  1  0
 27 25  1  0
 28 26  1  0
 28 27  1  0
 29 19  1  0
 30 27  1  0
 31 19  1  0
 31 29  1  0
M  END
$$$$

     RDKit          3D

 30 34  0  0  0  0  0  0  0  0999 V2000
  -21.2340  -15.1427  144.3681 O   0  0  0  0  0  0  0  0  0  0  0  0
  -22.0259  -14.0771  143.8247 C   0  0  0  0  0  0  0  0  0  0  0  0
  -21.6304  -15.6716  146.4517 Sb  0  0  0  0  0  3  0  0  0  0  0  0
  -23.2520  -14.6573  143.1665 N   0  0  0  0  0  0  0  0  0  0  0  0
  -22.8826  -17.3948  145.7947 C   0  0  0  0  0  0  0  0  0  0  0  0
  -24.7591  -14.4193  143.0198 C   0  0  0  0  0  0  0  0  0  0  0  0
  -22.5686  -18.5569  144.6972 C   0  0  0  0  0  0  0  0  0  0  0  0
  -24.2357  -16.6450  145.8521 C   0  0  0  0  0  0  0  0  0  0  0  0
  -21.3180  -18.4680  143.7937 C   0  0  0  0  0  0  0  0  0  0  0  0
  -21.4369  -13.7990  142.5023 N   0  0  0  0  0  0  0  0  0  0  0  0
  -22.6581  -14.3057  141.8862 C   0  0  0  0  0  0  0  0  0  0  0  0
  -21.2886  -19.5038  142.6394 C   0  0  0  0  0  0  0  0  0  0  0  0
  -23.8244  -15.8423  147.0590 C   0  0  0  0  0  0  0  0  0  0  0  0
  -25.4437  -17.5495  145.2334 C   0  0  0  0  0  0  0  0  0  0  0  0
  -23.8552  -19.0310  144.1834 C   0  0  0  0  0  0  0  0  0  0  0  0
  -25.7053  -13.8666  144.1415 C   0  0  0  0  0  0  0  0  0  0  0  0
  -26.8923  -17.4211  145.6103 C   0  0  0  0  0  0  0  0  0  0  0  0
  -25.3993  -13.2822  145.5204 C   0  0  0  0  0  0  0  0  0  0  0  0
  -26.5135  -13.7480  146.6246 C   0  0  0  0  0  0  0  0  0  0  0  0
  -25.2960  -13.0222  142.9158 C   0  0  0  0  0  0  0  0  0  0  0  0
  -27.8467  -17.9086  144.5130 C   0  0  0  0  0  0  0  0  0  0  0  0
  -24.9129  -18.9862  145.3737 C   0  0  0  0  0  0  0  0  0  0  0  0
  -28.0427  -19.4399  143.9715 C   0  0  0  0  0  0  0  0  0  0  0  0
  -26.8823  -12.7694  147.7801 C   0  0  0  0  0  0  0  0  0  0  0  0
  -27.4796  -11.4967  147.1663 C   0  0  0  0  0  0  0  0  0  0  0  0
  -27.7459  -13.4326  148.8619 C   0  0  0  0  0  0  0  0  0  0  0  0
  -28.9386  -11.6319  146.4885 C   0  0  0  0  0  0  0  0  0  0  0  0
  -28.7781  -10.8389  147.7942 C   0  0  0  0  0  0  0  0  0  0  0  0
  -27.1027  -19.6785  142.7007 C   0  0  0  0  0  0  0  0  0  0  0  0
  -26.0001  -20.8953  142.5905 C   0  0  0  0  0  0  0  0  0  0  0  0
  2  1  1  0
  3  1  1  0
  4  2  1  0
  5  3  1  0
  6  4  1  0
  7  5  1  0
  8  5  1  0
  9  7  1  0
 10  2  1  0
 11  4  1  0
 11 10  1  0
 12  9  1  0
 13  3  1  0
 13  8  1  0
 14  8  1  0
 15  7  1  0
 16  6  1  0
 17 14  1  0
 18 16  1  0
 19 18  1  0
 20  6  1  0
 20 16  1  0
 21 17  1  0
 22 14  1  0
 22 15  1  0
 23 21  1  0
 24 19  1  0
 25 24  1  0
 26 24  1  0
 27 25  1  0
 28 25  1  0
 28 27  1  0
 29 23  1  0
 30 29  1  0
M  END
$$$$

     RDKit          3D

 22 27  0  0  0  0  0  0  0  0999 V2000
  -25.0567  -21.1709  139.5425 C   0  0  0  0  0  0  0  0  0  0  0  0
  -23.7894  -21.8628  139.0253 C   0  0  0  0  0  0  0  0  0  0  0  0
  -22.8395  -20.8188  138.4015 C   0  0  0  0  0  0  0  0  0  0  0  0
  -23.0990  -22.6714  140.1579 C   0  0  0  0  0  0  0  0  0  0  0  0
  -21.5198  -21.4885  137.9691 C   0  0  0  0  0  0  0  0  0  0  0  0
  -20.5782  -20.4372  137.3780 C   0  0  0  0  0  0  0  0  0  0  0  0
  -21.7261  -23.2891  139.7775 C   0  0  0  0  0  0  0  0  0  0  0  0
  -21.7922  -24.7049  139.0959 C   0  0  0  0  0  0  0  0  0  0  0  0
  -20.8281  -20.2544  135.8875 C   0  0  0  0  0  0  0  0  0  0  0  0
  -21.8869  -21.2228  135.3876 C   0  0  0  0  0  0  0  0  0  0  0  0
  -20.3688  -25.3000  138.9011 C   0  0  0  0  0  0  0  0  0  0  0  0
  -20.8073  -22.2535  139.0822 C   0  0  0  0  0  0  0  0  0  0  0  0
  -20.4048  -26.8228  138.6848 C   0  0  0  0  0  0  0  0  0  0  0  0
  -20.6692  -27.6264  139.9588 C   0  0  0  0  0  0  0  0  0  0  0  0
  -21.5585  -28.8730  139.7707 C   0  0  0  0  0  0  0  0  0  0  0  0
  -22.6037  -24.7721  137.7733 C   0  0  0  0  0  0  0  0  0  0  0  0
  -21.2033  -29.7111  138.5720 C   0  0  0  0  0  0  0  0  0  0  0  0
  -19.9499  -29.7760  138.1026 C   0  0  0  0  0  0  0  0  0  0  0  0
  -18.8388  -28.9712  138.7234 C   0  0  0  0  0  0  0  0  0  0  0  0
  -20.9791  -21.6345  136.5350 C   0  0  0  0  0  0  0  0  0  0  0  0
  -19.2752  -27.6233  139.3428 C   0  0  0  0  0  0  0  0  0  0  0  0
  -24.6208  -25.4575  138.1072 I   0  0  0  0  0  0  0  0  0  0  0  0
  2  1  1  0
  3  2  1  0
  4  2  1  0
  5  3  1  0
  6  5  1  0
  7  4  1  0
  8  7  1  0
  9  6  1  0
 10  9  1  0
 11  8  1  0
 12  5  1  0
 12  7  1  0
 13 11  1  0
 14 13  1  0
 15 14  1  0
 16  8  1  0
 17 15  1  0
 18 17  2  0
 19 18  1  0
 20  5  1  0
 20  6  1  0
 20  9  1  0
 20 10  1  0
 21 13  1  0
 21 14  1  0
 21 19  1  0
 22 16  1  0
M  END
$$$$

     RDKit          3D

 10 11  0  0  0  0  0  0  0  0999 V2000
  -25.5617  -16.6135  138.1533 C   0  0  0  0  0  0  0  0  0  0  0  0
  -24.4430  -17.4996  137.5867 C   0  0  0  0  0  0  0  0  0  0  0  0
  -24.8225  -18.9886  137.6943 C   0  0  0  0  0  0  0  0  0  0  0  0
  -23.7380  -19.9252  137.1574 C   0  0  0  0  0  0  0  0  0  0  0  0
  -25.2358  -15.1269  138.1364 C   0  0  0  0  0  0  0  0  0  0  0  0
  -25.2634  -15.8811  139.4545 C   0  0  0  0  0  0  0  0  0  0  0  0
  -23.6143  -20.5787  138.5300 C   0  0  0  0  0  0  0  0  0  0  0  0
  -22.3471  -20.3566  139.0899 O   0  0  0  0  0  0  0  0  0  0  0  0
  -24.2002  -18.7653  140.0644 O   0  0  0  0  0  0  0  0  0  0  0  0
  -24.6907  -19.6378  139.0803 C   0  0  0  0  0  0  0  0  0  0  0  0
  2  1  1  0
  3  2  1  0
  4  3  1  0
  5  1  1  0
  6  1  1  0
  6  5  1  0
  7  4  1  0
  8  7  1  0
 10  3  1  0
 10  7  1  0
 10  9  1  0
M  END
$$$$

     RDKit          3D

 30 34  0  0  0  0  0  0  0  0999 V2000
  -27.6090    1.7078  143.9371 O   0  0  0  0  0  0  0  0  0  0  0  0
  -25.2121    1.1832  142.1500 O   0  0  0  0  0  0  0  0  0  0  0  0
  -25.1029   -1.2153  141.9734 O   0  0  0  0  0  0  0  0  0  0  0  0
  -26.0043   -0.0501  144.0982 C   0  0  0  0  0  0  0  0  0  0  0  0
  -25.7810   -0.0672  142.5264 C   0  0  0  0  0  0  0  0  0  0  0  0
  -23.9611   -1.5898  142.7545 C   0  0  0  0  0  0  0  0  0  0  0  0
  -28.9076    2.1382  144.3724 C   0  0  0  0  0  0  0  0  0  0  0  0
  -27.3595    0.4697  144.5937 C   0  0  0  0  0  0  0  0  0  0  0  0
  -29.4768    3.4885  143.8815 C   0  0  0  0  0  0  0  0  0  0  0  0
  -31.1278    1.5390  143.6609 C   0  0  0  0  0  0  0  0  0  0  0  0
  -30.7566    2.4973  141.9394 C   0  0  0  0  0  0  0  0  0  0  0  0
  -31.3245    4.0189  141.4567 C   0  0  0  0  0  0  0  0  0  0  0  0
  -32.2103    5.3109  141.9979 C   0  0  0  0  0  0  0  0  0  0  0  0
  -31.9943    6.0572  143.4007 C   0  0  0  0  0  0  0  0  0  0  0  0
  -29.9434    2.2401  143.2251 C   0  0  0  0  0  0  0  0  0  0  0  0
  -32.2634    3.4757  140.2646 C   0  0  0  0  0  0  0  0  0  0  0  0
  -33.1161    7.0673  144.0229 C   0  0  0  0  0  0  0  0  0  0  0  0
  -31.8743    6.2278  140.7941 C   0  0  0  0  0  0  0  0  0  0  0  0
  -32.8552    7.4636  145.4965 C   0  0  0  0  0  0  0  0  0  0  0  0
  -32.9096    6.3758  146.6262 C   0  0  0  0  0  0  0  0  0  0  0  0
  -30.0100    4.7227  140.9235 C   0  0  0  0  0  0  0  0  0  0  0  0
  -32.3466    4.3142  139.0769 C   0  0  0  0  0  0  0  0  0  0  0  0
  -33.7609    5.0485  146.0935 C   0  0  0  0  0  0  0  0  0  0  0  0
  -30.3527    6.1247  140.5010 C   0  0  0  0  0  0  0  0  0  0  0  0
  -32.5721    5.8306  139.4748 C   0  0  0  0  0  0  0  0  0  0  0  0
  -31.8893    1.8351  142.5019 O   0  0  0  0  0  0  0  0  0  0  0  0
  -33.5483    3.8512  147.0545 C   0  0  0  0  0  0  0  0  0  0  0  0
  -33.0608    4.2365  148.4829 C   0  0  0  0  0  0  0  0  0  0  0  0
  -31.5330    5.8977  147.1854 C   0  0  0  0  0  0  0  0  0  0  0  0
  -31.6871    4.9561  148.3787 C   0  0  0  0  0  0  0  0  0  0  0  0
  5  2  1  0
  5  3  1  0
  5  4  1  0
  6  3  1  0
  7  1  1  0
  8  1  1  0
  8  4  1  0
  9  7  1  0
 12 11  1  0
 13 12  1  0
 14 13  1  0
 15  7  1  0
 15  9  1  0
 15 10  1  0
 15 11  1  0
 16 12  1  0
 17 14  1  0
 18 13  1  0
 19 17  1  0
 20 19  1  0
 21 12  1  0
 22 16  1  0
 23 20  1  0
 24 18  1  0
 24 21  1  0
 25 18  1  0
 25 22  1  0
 26 10  1  0
 26 11  1  0
 27 23  1  0
 28 27  1  0
 29 20  1  0
 30 28  1  0
 30 29  1  0
M  END
$$$$

     RDKit          3D

 31 39  0  0  0  0  0  0  0  0999 V2000
  -26.9308  -10.0472  149.3215 O   0  0  0  0  0  0  0  0  0  0  0  0
  -28.3498   -9.9266  149.1980 C   0  0  0  0  0  0  0  0  0  0  0  0
  -29.0123  -10.9593  149.7885 O   0  0  0  0  0  0  0  0  0  0  0  0
  -28.7389   -8.1970  147.5746 C   0  0  0  0  0  0  0  0  0  0  0  0
  -31.2140   -7.9673  147.5905 O   0  0  0  0  0  0  0  0  0  0  0  0
  -27.5133  -10.2214  148.0100 C   0  0  0  0  0  0  0  0  0  0  0  0
  -27.4800   -8.9227  147.2260 C   0  0  0  0  0  0  0  0  0  0  0  0
  -28.8330   -8.4688  149.0909 C   0  0  0  0  0  0  0  0  0  0  0  0
  -30.2370   -7.9254  145.3717 C   0  0  0  0  0  0  0  0  0  0  0  0
  -31.4855   -7.6963  144.4475 C   0  0  0  0  0  0  0  0  0  0  0  0
  -30.3969   -9.9541  146.8514 O   0  0  0  0  0  0  0  0  0  0  0  0
  -34.2162   -7.0952  144.2016 C   0  0  0  0  0  0  0  0  0  0  0  0
  -32.9356   -6.6193  142.1090 C   0  0  0  0  0  0  0  0  0  0  0  0
  -34.7637   -8.3293  141.5940 C   0  0  0  0  0  0  0  0  0  0  0  0
  -35.3826   -5.9678  144.3536 C   0  0  0  0  0  0  0  0  0  0  0  0
  -30.1195   -8.5456  146.8459 C   0  0  0  0  0  0  0  0  0  0  0  0
  -32.7720   -6.6770  144.8459 C   0  0  0  0  0  0  0  0  0  0  0  0
  -30.6653   -8.5394  141.4179 C   0  0  0  0  0  0  0  0  0  0  0  0
  -28.9972   -7.1972  144.7100 C   0  0  0  0  0  0  0  0  0  0  0  0
  -30.7785   -9.1221  144.4971 C   0  0  0  0  0  0  0  0  0  0  0  0
  -32.0131   -8.8741  143.6038 C   0  0  0  0  0  0  0  0  0  0  0  0
  -27.3198   -9.1469  145.9093 O   0  0  0  0  0  0  0  0  0  0  0  0
  -34.0106   -7.4483  142.6615 C   0  0  0  0  0  0  0  0  0  0  0  0
  -31.8516   -9.0040  141.8707 C   0  0  0  0  0  0  0  0  0  0  0  0
  -30.0093   -6.5384  140.3657 C   0  0  0  0  0  0  0  0  0  0  0  0
  -34.1983   -6.8726  141.2633 C   0  0  0  0  0  0  0  0  0  0  0  0
  -30.9643   -7.2188  141.6725 C   0  0  0  0  0  0  0  0  0  0  0  0
  -31.5068   -7.7712  140.6591 C   0  0  0  0  0  0  0  0  0  0  0  0
  -32.7493   -5.8407  146.1463 C   0  0  0  0  0  0  0  0  0  0  0  0
  -31.3928   -4.4428  141.5067 C   0  0  0  0  0  0  0  0  0  0  0  0
  -30.8929   -5.9418  141.0418 C   0  0  0  0  0  0  0  0  0  0  0  0
  2  1  1  0
  3  2  1  0
  6  1  1  0
  6  2  1  0
  7  4  1  0
  7  6  1  0
  8  2  1  0
  8  4  1  0
 10  9  1  0
 15 12  1  0
 16  4  1  0
 16  5  1  0
 16  9  1  0
 16 11  1  0
 17 10  1  0
 17 12  1  0
 19  9  1  0
 20  9  1  0
 20 10  1  0
 21 10  1  0
 21 20  1  0
 22  7  1  0
 23 12  1  0
 23 13  1  0
 23 14  1  0
 24 18  1  0
 24 21  1  0
 26 13  1  0
 26 14  1  0
 26 23  1  0
 27 13  1  0
 27 18  1  0
 27 25  1  0
 28 18  1  0
 28 24  1  0
 29 17  1  0
 31 25  1  0
 31 28  1  0
 31 30  1  0
M  END
$$$$

     RDKit          3D

 29 32  0  0  0  0  0  0  0  0999 V2000
  -26.5278    3.4388  139.4798 O   0  0  0  0  0  0  0  0  0  0  0  0
  -28.6299    2.6372  139.8038 O   0  0  0  0  0  0  0  0  0  0  0  0
  -27.1796    2.8685  141.5987 O   0  0  0  0  0  0  0  0  0  0  0  0
  -32.0408    4.0484  138.2528 C   0  0  0  0  0  0  0  0  0  0  0  0
  -32.4361    2.6659  138.7951 C   0  0  0  0  0  0  0  0  0  0  0  0
  -26.6364    0.2515  142.2726 O   0  0  0  0  0  0  0  0  0  0  0  0
  -28.9948   -0.4569  140.0365 C   0  0  0  0  0  0  0  0  0  0  0  0
  -33.1629    4.9259  137.6921 C   0  0  0  0  0  0  0  0  0  0  0  0
  -27.2941    2.5253  140.2315 C   0  0  0  0  0  0  0  0  0  0  0  0
  -32.3525    2.6294  140.3359 C   0  0  0  0  0  0  0  0  0  0  0  0
  -33.5078    3.4708  140.9605 C   0  0  0  0  0  0  0  0  0  0  0  0
  -32.3877    1.1475  140.8015 C   0  0  0  0  0  0  0  0  0  0  0  0
  -28.0447    0.4539  137.8180 C   0  0  0  0  0  0  0  0  0  0  0  0
  -32.2297    1.0012  142.3278 C   0  0  0  0  0  0  0  0  0  0  0  0
  -29.3294   -0.0075  141.2704 C   0  0  0  0  0  0  0  0  0  0  0  0
  -32.9019    6.4274  137.8261 C   0  0  0  0  0  0  0  0  0  0  0  0
  -26.7539    1.0627  139.9608 C   0  0  0  0  0  0  0  0  0  0  0  0
  -26.9084    0.0583  136.8406 C   0  0  0  0  0  0  0  0  0  0  0  0
  -27.7359    0.0223  139.2856 C   0  0  0  0  0  0  0  0  0  0  0  0
  -28.2595   -0.6181  136.7430 C   0  0  0  0  0  0  0  0  0  0  0  0
  -30.1534   -0.8079  142.2506 C   0  0  0  0  0  0  0  0  0  0  0  0
  -32.7070   -0.3562  142.8295 C   0  0  0  0  0  0  0  0  0  0  0  0
  -30.5383   -2.2125  141.7444 C   0  0  0  0  0  0  0  0  0  0  0  0
  -30.9043   -2.1870  140.2720 C   0  0  0  0  0  0  0  0  0  0  0  0
  -29.7358   -1.6490  139.4380 C   0  0  0  0  0  0  0  0  0  0  0  0
  -31.2405    0.0205  143.0071 C   0  0  0  0  0  0  0  0  0  0  0  0
  -25.8872    0.4691  141.1119 C   0  0  0  0  0  0  0  0  0  0  0  0
  -32.2329    4.1845  136.7436 C   0  0  0  0  0  0  0  0  0  0  0  0
  -33.0018    4.4575  142.0146 C   0  0  0  0  0  0  0  0  0  0  0  0
  5  4  1  0
  8  4  1  0
  9  1  1  0
  9  2  1  0
  9  3  1  0
 10  5  1  0
 11 10  1  0
 12 10  1  0
 14 12  1  0
 15  7  2  0
 16  8  1  0
 17  9  1  0
 18 13  1  0
 19  7  1  0
 19 13  1  0
 19 17  1  0
 20 13  1  0
 20 18  1  0
 21 15  1  0
 22 14  1  0
 23 21  1  0
 24 23  1  0
 25  7  1  0
 25 24  1  0
 26 14  1  0
 26 21  1  0
 26 22  1  0
 27  6  1  0
 27 17  1  0
 28  4  1  0
 28  8  1  0
 29 11  1  0
M  END
$$$$

     RDKit          3D

 30 32  0  0  0  0  0  0  0  0999 V2000
  -30.5090   -7.6693  149.6908 N   0  0  0  0  0  0  0  0  0  0  0  0
  -31.9811   -7.9316  150.1651 C   0  0  0  0  0  0  0  0  0  0  0  0
  -28.2596   -6.9605  148.3891 C   0  0  0  0  0  0  0  0  0  0  0  0
  -27.3198   -5.9185  149.1507 C   0  0  0  0  0  0  0  0  0  0  0  0
  -32.8953   -9.0239  149.2333 C   0  0  0  0  0  0  0  0  0  0  0  0
  -33.6263  -12.5873  148.9659 Al  0  0  0  0  0  3  0  0  0  0  0  0
  -30.0251   -8.9322  149.3060 C   0  0  0  0  0  0  0  0  0  0  0  0
  -29.8810   -9.6969  150.6122 N   0  0  0  0  0  0  0  0  0  0  0  0
  -33.6049  -10.4835  149.7046 C   0  0  0  0  0  0  0  0  0  0  0  0
  -27.7301   -5.5375  150.5332 N   0  0  0  0  0  0  0  0  0  0  0  0
  -29.8652   -6.6625  148.6822 C   0  0  0  0  0  0  0  0  0  0  0  0
  -34.8236  -16.1868  149.6798 C   0  0  0  0  0  0  0  0  0  0  0  0
  -24.6496   -7.1513  147.1500 C   0  0  0  0  0  0  0  0  0  0  0  0
  -26.1811   -7.0252  149.3742 C   0  0  0  0  0  0  0  0  0  0  0  0
  -32.2519  -11.4399  147.8514 C   0  0  0  0  0  0  0  0  0  0  0  0
  -27.2170   -8.0832  148.9225 C   0  0  0  0  0  0  0  0  0  0  0  0
  -34.2136  -17.7557  149.6120 C   0  0  0  0  0  0  0  0  0  0  0  0
  -36.3884  -16.0604  149.1888 C   0  0  0  0  0  0  0  0  0  0  0  0
  -28.3269   -7.2793  146.8574 C   0  0  0  0  0  0  0  0  0  0  0  0
  -36.6408  -14.6895  148.4909 C   0  0  0  0  0  0  0  0  0  0  0  0
  -38.1383  -14.2627  148.4403 C   0  0  0  0  0  0  0  0  0  0  0  0
  -31.9666  -10.8477  146.3928 C   0  0  0  0  0  0  0  0  0  0  0  0
  -24.7596   -6.8143  148.6916 C   0  0  0  0  0  0  0  0  0  0  0  0
  -33.8283  -18.8335  148.7148 C   0  0  0  0  0  0  0  0  0  0  0  0
  -36.0044  -14.5842  147.0619 C   0  0  0  0  0  0  0  0  0  0  0  0
  -37.3051  -16.2652  150.4166 C   0  0  0  0  0  0  0  0  0  0  0  0
  -31.2243  -11.8989  145.5186 C   0  0  0  0  0  0  0  0  0  0  0  0
  -33.9385  -14.7920  149.8743 C   0  0  0  0  0  0  0  0  0  0  0  0
  -32.2399  -10.4082  149.0616 C   0  0  0  0  0  0  0  0  0  0  0  0
  -33.2738  -10.4494  145.6551 C   0  0  0  0  0  0  0  0  0  0  0  0
  2  1  1  0
  4  3  1  0
  5  2  1  0
  7  1  1  0
  8  7  1  0
  9  5  1  0
  9  6  1  0
 10  4  1  0
 11  1  1  0
 11  3  1  0
 14  4  1  0
 15  6  1  0
 16  3  1  0
 16 14  1  0
 17 12  1  0
 18 12  1  0
 19  3  1  0
 20 18  1  0
 21 20  1  0
 22 15  1  0
 23 13  1  0
 23 14  1  0
 24 17  2  0
 25 20  1  0
 26 18  1  0
 27 22  1  0
 28  6  1  0
 28 12  1  0
 29  5  1  0
 29  9  1  0
 29 15  1  0
 30 22  1  0
M  END
$$$$

     RDKit          3D

 31 30  0  0  0  0  0  0  0  0999 V2000
  -10.7629   -9.5933  136.4062 Cl  0  0  0  0  0  0  0  0  0  0  0  0
  -17.2364   -4.6234  138.8967 C   0  0  0  0  0  0  0  0  0  0  0  0
  -16.1996   -5.7778  138.9074 C   0  0  0  0  0  0  0  0  0  0  0  0
  -16.7679   -7.1737  139.3154 C   0  0  0  0  0  0  0  0  0  0  0  0
  -16.1757   -7.7254  140.6521 C   0  0  0  0  0  0  0  0  0  0  0  0
  -15.4245   -9.0677  140.4249 C   0  0  0  0  0  0  0  0  0  0  0  0
  -16.5391   -3.3182  138.4062 C   0  0  0  0  0  0  0  0  0  0  0  0
  -18.4615   -4.9558  138.0188 C   0  0  0  0  0  0  0  0  0  0  0  0
  -17.2709   -2.0066  138.7620 C   0  0  0  0  0  0  0  0  0  0  0  0
  -14.1642   -8.9604  139.5484 C   0  0  0  0  0  0  0  0  0  0  0  0
  -13.0858   -8.1254  140.2049 C   0  0  0  0  0  0  0  0  0  0  0  0
  -11.9506   -7.7179  139.5978 C   0  0  0  0  0  0  0  0  0  0  0  0
  -17.2814   -7.9375  141.7289 C   0  0  0  0  0  0  0  0  0  0  0  0
  -18.0103   -6.6498  142.2035 C   0  0  0  0  0  0  0  0  0  0  0  0
  -12.4834   -7.1188  137.1884 C   0  0  0  0  0  0  0  0  0  0  0  0
  -11.5927   -7.9463  138.1352 C   0  0  0  0  0  0  0  0  0  0  0  0
  -17.0989   -5.5462  142.8033 C   0  0  0  0  0  0  0  0  0  0  0  0
  -17.3322   -1.7295  140.2701 C   0  0  0  0  0  0  0  0  0  0  0  0
  -17.6633   -0.2521  140.5438 C   0  0  0  0  0  0  0  0  0  0  0  0
  -16.3462   -6.0237  144.0776 C   0  0  0  0  0  0  0  0  0  0  0  0
  -14.8547   -5.6502  144.0750 C   0  0  0  0  0  0  0  0  0  0  0  0
  -14.0504   -6.5413  145.0545 C   0  0  0  0  0  0  0  0  0  0  0  0
  -17.8056    0.0651  142.0381 C   0  0  0  0  0  0  0  0  0  0  0  0
  -11.6641   -9.3176  137.8397 O   0  0  0  0  0  0  0  0  0  0  0  0
  -17.9127   -4.2753  143.1120 C   0  0  0  0  0  0  0  0  0  0  0  0
  -16.5820    0.4899  144.2120 C   0  0  0  0  0  0  0  0  0  0  0  0
  -16.3361    2.0027  144.2327 C   0  0  0  0  0  0  0  0  0  0  0  0
  -13.8419   -7.9766  144.5284 C   0  0  0  0  0  0  0  0  0  0  0  0
  -16.4886   -0.1069  142.8024 C   0  0  0  0  0  0  0  0  0  0  0  0
  -14.2928   -9.0662  145.5250 C   0  0  0  0  0  0  0  0  0  0  0  0
  -13.3845   -9.1601  146.6630 N   0  0  0  0  0  0  0  0  0  0  0  0
  3  2  1  0
  4  3  1  0
  5  4  1  0
  6  5  1  0
  7  2  1  0
  8  2  1  0
  9  7  1  0
 10  6  1  0
 11 10  1  0
 12 11  2  3
 13  5  1  0
 14 13  1  0
 16 12  1  0
 16 15  1  0
 17 14  1  0
 18  9  1  0
 19 18  1  0
 20 17  1  0
 21 20  1  0
 22 21  1  0
 23 19  1  0
 24  1  1  0
 24 16  1  0
 25 17  1  0
 27 26  1  0
 28 22  1  0
 29 23  1  0
 29 26  1  0
 30 28  1  0
 31 30  1  0
M  END
$$$$

     RDKit          3D

 31 34  0  0  0  0  0  0  0  0999 V2000
  -27.3786  -10.9410  155.3226 O   0  0  0  0  0  0  0  0  0  0  0  0
  -29.0060  -11.4246  153.6443 C   0  0  0  0  0  0  0  0  0  0  0  0
  -30.0411  -10.3068  153.9182 C   0  0  0  0  0  0  0  0  0  0  0  0
  -30.5486  -10.3138  155.3743 C   0  0  0  0  0  0  0  0  0  0  0  0
  -30.1308  -12.5182  151.5382 C   0  0  0  0  0  0  0  0  0  0  0  0
  -30.4881  -13.8145  152.2963 C   0  0  0  0  0  0  0  0  0  0  0  0
  -31.0655   -8.9381  155.8380 C   0  0  0  0  0  0  0  0  0  0  0  0
  -28.9171  -11.7693  152.1321 C   0  0  0  0  0  0  0  0  0  0  0  0
  -32.4617   -8.5629  155.2881 C   0  0  0  0  0  0  0  0  0  0  0  0
  -32.4303   -7.8420  153.9304 C   0  0  0  0  0  0  0  0  0  0  0  0
  -31.8322   -6.4152  153.9961 C   0  0  0  0  0  0  0  0  0  0  0  0
  -30.9054   -6.1708  152.7897 C   0  0  0  0  0  0  0  0  0  0  0  0
  -29.4568   -5.7666  153.1075 C   0  0  0  0  0  0  0  0  0  0  0  0
  -27.4668   -5.5389  151.4277 C   0  0  0  0  0  0  0  0  0  0  0  0
  -28.4671   -6.4367  152.1393 C   0  0  0  0  0  0  0  0  0  0  0  0
  -31.7131  -14.4265  154.4879 C   0  0  0  0  0  0  0  0  0  0  0  0
  -30.4691   -4.7220  152.6165 C   0  0  0  0  0  0  0  0  0  0  0  0
  -30.3947   -4.2463  151.1631 C   0  0  0  0  0  0  0  0  0  0  0  0
  -31.7106  -15.9603  154.3385 C   0  0  0  0  0  0  0  0  0  0  0  0
  -30.2805  -16.5336  154.1982 C   0  0  0  0  0  0  0  0  0  0  0  0
  -31.7582  -13.6536  153.1602 C   0  0  0  0  0  0  0  0  0  0  0  0
  -27.0201   -6.3477  152.6369 C   0  0  0  0  0  0  0  0  0  0  0  0
  -29.9527  -17.8981  154.8140 C   0  0  0  0  0  0  0  0  0  0  0  0
  -31.0287  -18.6055  155.6677 C   0  0  0  0  0  0  0  0  0  0  0  0
  -27.6352  -10.9977  154.1288 C   0  0  0  0  0  0  0  0  0  0  0  0
  -29.3191  -16.5985  155.3960 C   0  0  0  0  0  0  0  0  0  0  0  0
  -25.4130   -8.0399  153.5583 C   0  0  0  0  0  0  0  0  0  0  0  0
  -28.5596  -17.9141  155.4258 C   0  0  0  0  0  0  0  0  0  0  0  0
  -26.0976   -7.5322  152.2941 C   0  0  0  0  0  0  0  0  0  0  0  0
  -29.8000  -16.1149  156.7939 C   0  0  0  0  0  0  0  0  0  0  0  0
  -28.9350  -14.9427  157.2433 C   0  0  0  0  0  0  0  0  0  0  0  0
  3  2  1  0
  4  3  1  0
  6  5  1  0
  7  4  1  0
  8  2  1  0
  8  5  1  0
  9  7  1  0
 10  9  1  0
 11 10  1  0
 12 11  1  0
 13 12  1  0
 15 13  1  0
 15 14  1  0
 17 12  1  0
 17 13  1  0
 18 17  1  0
 19 16  1  0
 20 19  1  0
 21  6  1  0
 21 16  1  0
 22 14  1  0
 22 15  1  0
 23 20  1  0
 24 23  1  0
 25  1  2  0
 25  2  1  0
 26 20  1  0
 26 23  1  0
 28 23  1  0
 28 26  1  0
 29 22  1  0
 29 27  1  0
 30 26  1  0
 31 30  1  0
M  END
$$$$

     RDKit          3D

 31 34  0  0  0  0  0  0  0  0999 V2000
  -30.2229  -27.4061  140.5442 O   0  0  0  0  0  0  0  0  0  0  0  0
  -30.8059  -28.1486  139.4611 C   0  0  0  0  0  0  0  0  0  0  0  0
  -31.4173  -27.2617  138.5666 O   0  0  0  0  0  0  0  0  0  0  0  0
  -29.0809  -28.1886  140.7610 C   0  0  0  0  0  0  0  0  0  0  0  0
  -27.6941  -27.9714  141.3894 C   0  0  0  0  0  0  0  0  0  0  0  0
  -26.7438  -26.7968  141.0810 C   0  0  0  0  0  0  0  0  0  0  0  0
  -26.0615  -27.6600  140.0002 C   0  0  0  0  0  0  0  0  0  0  0  0
  -27.1681  -28.6799  140.1134 C   0  0  0  0  0  0  0  0  0  0  0  0
  -25.8842  -26.1645  142.2741 C   0  0  0  0  0  0  0  0  0  0  0  0
  -26.0864  -24.6165  142.2621 C   0  0  0  0  0  0  0  0  0  0  0  0
  -26.9206  -23.9528  143.3932 C   0  0  0  0  0  0  0  0  0  0  0  0
  -24.3637  -26.6568  142.4248 C   0  0  0  0  0  0  0  0  0  0  0  0
  -28.4825  -28.3149  139.3962 C   0  0  0  0  0  0  0  0  0  0  0  0
  -24.1239  -27.4306  143.7524 C   0  0  0  0  0  0  0  0  0  0  0  0
  -21.0796  -25.2771  144.0537 C   0  0  0  0  0  0  0  0  0  0  0  0
  -20.4752  -24.7310  145.3449 C   0  0  0  0  0  0  0  0  0  0  0  0
  -28.3281  -24.2584  143.9759 C   0  0  0  0  0  0  0  0  0  0  0  0
  -29.6557  -28.9831  138.7666 C   0  0  0  0  0  0  0  0  0  0  0  0
  -24.8648  -28.7998  143.7669 C   0  0  0  0  0  0  0  0  0  0  0  0
  -24.2281  -29.7356  144.6138 O   0  0  0  0  0  0  0  0  0  0  0  0
  -21.2110  -25.1961  146.5869 C   0  0  0  0  0  0  0  0  0  0  0  0
  -22.8064  -24.4571  143.7200 Se  0  0  0  0  0  2  0  0  0  0  0  0
  -28.6299  -23.5559  145.3454 C   0  0  0  0  0  0  0  0  0  0  0  0
  -23.1819  -30.4111  143.9350 C   0  0  0  0  0  0  0  0  0  0  0  0
  -23.6836  -31.7138  143.3028 C   0  0  0  0  0  0  0  0  0  0  0  0
  -29.0735  -25.5848  143.6776 C   0  0  0  0  0  0  0  0  0  0  0  0
  -23.2087  -25.6277  142.1779 C   0  0  0  0  0  0  0  0  0  0  0  0
  -29.4811  -22.3208  145.2244 C   0  0  0  0  0  0  0  0  0  0  0  0
  -30.7698  -22.3767  144.8195 C   0  0  0  0  0  0  0  0  0  0  0  0
  -28.1797  -23.3154  142.7799 C   0  0  0  0  0  0  0  0  0  0  0  0
  -24.2879  -32.6552  144.3413 C   0  0  0  0  0  0  0  0  0  0  0  0
  2  1  1  0
  3  2  1  0
  4  1  1  0
  5  4  1  0
  6  5  1  0
  7  6  1  0
  8  5  1  0
  8  7  1  0
  9  6  1  0
 10  9  1  0
 11 10  1  0
 12  9  1  0
 13  4  1  0
 13  8  1  0
 14 12  1  0
 16 15  1  0
 17 11  1  0
 18  2  1  0
 18 13  1  0
 19 14  1  0
 20 19  1  0
 21 16  1  0
 22 15  1  0
 23 17  1  0
 24 20  1  0
 25 24  1  0
 26 17  1  0
 27 12  1  0
 27 22  1  0
 28 23  1  0
 29 28  2  0
 30 11  1  0
 30 17  1  0
 31 25  1  0
M  END
$$$$

     RDKit          3D

 30 34  0  0  0  0  0  0  0  0999 V2000
  -25.9729  -18.2862  145.9983 O   0  0  0  0  0  0  0  0  0  0  0  0
  -27.9600  -19.4699  145.9454 As  0  0  0  0  0  2  0  0  0  0  0  0
  -29.1041  -19.1740  144.7754 O   0  0  0  0  0  0  0  0  0  0  0  0
  -25.2815  -18.3408  144.8135 C   0  0  0  0  0  0  0  0  0  0  0  0
  -25.3977  -19.4780  144.0048 C   0  0  0  0  0  0  0  0  0  0  0  0
  -24.5033  -19.4791  144.5262 C   0  0  0  0  0  0  0  0  0  0  0  0
  -27.3819  -18.2611  147.0203 O   0  0  0  0  0  0  0  0  0  0  0  0
  -26.3270  -19.7530  145.3392 S   0  0  0  0  0  5  0  0  0  0  0  0
  -24.1586  -18.3843  145.5501 C   0  0  0  0  0  0  0  0  0  0  0  0
  -24.1157  -19.0373  146.8674 C   0  0  0  0  0  0  0  0  0  0  0  0
  -28.0665  -19.4418  145.6150 C   0  0  0  0  0  0  0  0  0  0  0  0
  -24.9226  -20.6367  144.6771 C   0  0  0  0  0  0  0  0  0  0  0  0
  -26.1500  -21.0036  146.3135 C   0  0  0  0  0  0  0  0  0  0  0  0
  -26.6313  -18.6764  146.3406 C   0  0  0  0  0  0  0  0  0  0  0  0
  -29.4365  -18.7856  145.3306 C   0  0  0  0  0  0  0  0  0  0  0  0
  -23.6335  -19.7908  143.4795 C   0  0  0  0  0  0  0  0  0  0  0  0
  -24.9916  -21.8468  146.0880 C   0  0  0  0  0  0  0  0  0  0  0  0
  -26.7798  -17.3699  148.0037 C   0  0  0  0  0  0  0  0  0  0  0  0
  -23.6508  -21.2659  146.4856 C   0  0  0  0  0  0  0  0  0  0  0  0
  -29.1477  -18.9614  147.2802 N   0  0  0  0  0  0  0  0  0  0  0  0
  -27.5811  -16.1642  148.4447 C   0  0  0  0  0  0  0  0  0  0  0  0
  -24.3197  -18.7715  148.6898 C   0  0  0  0  0  0  0  0  0  0  0  0
  -26.8727  -15.4882  149.5072 N   0  0  0  0  0  0  0  0  0  0  0  0
  -24.6988  -19.9197  147.9465 C   0  0  0  0  0  0  0  0  0  0  0  0
  -23.2494  -20.3348  145.4288 O   0  0  0  0  0  0  0  0  0  0  0  0
  -27.6053  -14.6505  150.3679 C   0  0  0  0  0  0  0  0  0  0  0  0
  -29.0213  -14.8497  150.5333 C   0  0  0  0  0  0  0  0  0  0  0  0
  -25.4612  -15.4738  149.5922 C   0  0  0  0  0  0  0  0  0  0  0  0
  -29.6595  -15.7240  149.5325 C   0  0  0  0  0  0  0  0  0  0  0  0
  -29.0266  -15.9390  148.3299 C   0  0  0  0  0  0  0  0  0  0  0  0
  5  4  1  0
  6  5  1  0
  8  5  1  0
  9  4  1  0
 10  9  1  0
 11  2  1  0
 12  5  1  0
 12  6  1  0
 12  8  1  0
 13  8  1  0
 14  1  1  0
 14  2  1  0
 14  7  1  0
 14  8  1  0
 15  3  1  0
 15 11  1  0
 16  6  1  0
 17 12  1  0
 17 13  1  0
 19 17  1  0
 20 15  1  0
 21 18  1  0
 22 10  1  0
 22 18  1  0
 23 21  1  0
 24 10  1  0
 24 22  1  0
 25 19  1  0
 26 23  1  0
 27 26  2  0
 28 23  1  0
 29 27  1  0
 30 21  1  0
 30 29  1  0
M  RAD  2   2   2   8   2
M  END
$$$$

     RDKit          3D

 30 34  0  0  0  0  0  0  0  0999 V2000
  -25.6881   -1.1692  130.2082 O   0  0  0  0  0  0  0  0  0  0  0  0
  -27.0148   -1.1970  130.2181 C   0  0  0  0  0  0  0  0  0  0  0  0
  -27.7615   -0.1930  129.7758 N   0  0  0  0  0  2  0  0  0  0  0  0
  -27.3884    1.1115  130.0248 C   0  0  0  0  0  0  0  0  0  0  0  0
  -27.7288   -2.0262  129.4148 N   0  0  0  0  0  2  0  0  0  0  0  0
  -26.1878    1.7169  129.5087 C   0  0  0  0  0  0  0  0  0  0  0  0
  -25.9295    3.0845  129.6172 C   0  0  0  0  0  0  0  0  0  0  0  0
  -26.8718    3.9155  130.2137 C   0  0  0  0  0  0  0  0  0  0  0  0
  -28.0689    3.3793  130.6937 C   0  0  0  0  0  0  0  0  0  0  0  0
  -28.3401    1.9977  130.6193 C   0  0  0  0  0  0  0  0  0  0  0  0
  -29.4146    1.4891  129.7277 C   0  0  0  0  0  0  0  0  0  0  0  0
  -29.4790    2.0240  128.4159 C   0  0  0  0  0  0  0  0  0  0  0  0
  -28.4967    2.8683  127.8963 C   0  0  0  0  0  0  0  0  0  0  0  0
  -30.1762    0.3693  130.0024 C   0  0  0  0  0  0  0  0  0  0  0  0
  -27.6216    2.3476  127.0036 C   0  0  0  0  0  0  0  0  0  0  0  0
  -30.0921    2.3421  129.6294 C   0  0  0  0  0  0  0  0  0  0  0  0
  -31.3921    0.0182  129.2890 C   0  0  0  0  0  0  0  0  0  0  0  0
  -27.3449   -2.2028  128.0935 C   0  0  0  0  0  0  0  0  0  0  0  0
  -26.1838   -1.5823  127.6858 C   0  0  0  0  0  0  0  0  0  0  0  0
  -26.7098    1.6092  127.6257 C   0  0  0  0  0  0  0  0  0  0  0  0
  -27.5208    2.3231  125.5622 C   0  0  0  0  0  0  0  0  0  0  0  0
  -26.7492    1.7688  129.0768 C   0  0  0  0  0  0  0  0  0  0  0  0
  -25.0795   -1.4553  128.5362 C   0  0  0  0  0  0  0  0  0  0  0  0
  -23.8415   -1.5137  128.0709 C   0  0  0  0  0  0  0  0  0  0  0  0
  -31.7862    0.7484  128.1689 C   0  0  0  0  0  0  0  0  0  0  0  0
  -28.0297    3.3992  124.8488 C   0  0  0  0  0  0  0  0  0  0  0  0
  -27.8306    4.7175  125.2875 C   0  0  0  0  0  0  0  0  0  0  0  0
  -24.6630    3.7996  129.2094 C   0  0  0  0  0  0  0  0  0  0  0  0
  -27.5532    5.7159  124.3925 C   0  0  0  0  0  0  0  0  0  0  0  0
  -29.2515    3.8658  125.2699 C   0  0  0  0  0  0  0  0  0  0  0  0
  2  1  1  0
  3  2  1  0
  4  3  1  0
  5  2  1  0
  7  6  1  0
  8  7  2  0
  9  8  1  0
 10  4  1  0
 10  9  1  0
 11 10  1  0
 12 11  1  0
 13 12  1  0
 14 11  1  0
 15 13  1  0
 16 11  1  0
 16 12  1  0
 17 14  2  3
 18  5  1  0
 19 18  1  0
 20 15  1  0
 21 15  1  0
 22  4  1  0
 22  6  1  0
 22 20  1  0
 23  1  1  0
 23 19  1  0
 24 23  2  0
 25 17  1  0
 26 21  1  0
 27 26  1  0
 28  7  1  0
 29 27  1  0
 30 26  1  0
 30 27  1  0
M  RAD  2   3   2   5   2
M  END
$$$$

     RDKit          3D

 27 31  0  0  0  0  0  0  0  0999 V2000
  -23.0667  -24.0425  151.4283 O   0  0  0  0  0  0  0  0  0  0  0  0
  -21.8028  -23.8849  150.8028 C   0  0  0  0  0  0  0  0  0  0  0  0
  -22.0199  -23.4341  149.3220 C   0  0  0  0  0  0  0  0  0  0  0  0
  -21.7835  -23.8743  147.8925 C   0  0  0  0  0  0  0  0  0  0  0  0
  -20.9721  -24.9904  147.1651 C   0  0  0  0  0  0  0  0  0  0  0  0
  -20.8478  -25.0934  151.1415 C   0  0  0  0  0  0  0  0  0  0  0  0
  -21.4792  -26.3748  151.8559 C   0  0  0  0  0  0  0  0  0  0  0  0
  -23.6026  -22.8304  151.9176 C   0  0  0  0  0  0  0  0  0  0  0  0
  -19.6196  -25.4510  147.7082 C   0  0  0  0  0  0  0  0  0  0  0  0
  -22.8354  -24.3897  148.6775 O   0  0  0  0  0  0  0  0  0  0  0  0
  -18.4841  -24.5902  148.2497 C   0  0  0  0  0  0  0  0  0  0  0  0
  -22.5882  -27.0077  150.9883 C   0  0  0  0  0  0  0  0  0  0  0  0
  -20.1258  -26.8864  147.8341 C   0  0  0  0  0  0  0  0  0  0  0  0
  -17.6370  -25.2784  149.3220 C   0  0  0  0  0  0  0  0  0  0  0  0
  -25.0747  -22.7596  151.5444 C   0  0  0  0  0  0  0  0  0  0  0  0
  -21.4686  -26.4484  147.2377 C   0  0  0  0  0  0  0  0  0  0  0  0
  -22.0700  -26.0780  153.2619 C   0  0  0  0  0  0  0  0  0  0  0  0
  -20.3917  -27.4697  152.0439 C   0  0  0  0  0  0  0  0  0  0  0  0
  -16.2584  -25.6831  148.8534 C   0  0  0  0  0  0  0  0  0  0  0  0
  -16.3180  -27.0557  148.1960 C   0  0  0  0  0  0  0  0  0  0  0  0
  -16.9139  -27.0905  146.7858 C   0  0  0  0  0  0  0  0  0  0  0  0
  -17.3662  -25.8022  146.1979 N   0  0  0  0  0  0  0  0  0  0  0  0
  -15.5253  -27.4895  146.2574 C   0  0  0  0  0  0  0  0  0  0  0  0
  -19.6296  -24.5417  151.9312 C   0  0  0  0  0  0  0  0  0  0  0  0
  -14.9598  -27.4872  147.6600 C   0  0  0  0  0  0  0  0  0  0  0  0
  -18.4953  -24.9854  146.7539 C   0  0  0  0  0  0  0  0  0  0  0  0
  -17.6743  -26.0068  144.7689 C   0  0  0  0  0  0  0  0  0  0  0  0
  2  1  1  0
  3  2  1  0
  4  3  1  0
  5  4  1  0
  6  2  1  0
  7  6  1  0
  8  1  1  0
  9  5  1  0
 10  3  1  0
 10  4  1  0
 11  9  1  0
 12  7  1  0
 13  9  1  0
 14 11  1  0
 15  8  1  0
 16  5  1  0
 16 13  1  0
 17  7  1  0
 18  7  1  0
 19 14  1  0
 20 19  1  0
 21 20  1  0
 22 21  1  0
 23 21  1  0
 24  6  1  0
 25 20  1  0
 25 23  1  0
 26  9  1  0
 26 11  1  0
 26 22  1  0
 27 22  1  0
M  END
$$$$

     RDKit          3D

  8  8  0  0  0  0  0  0  0  0999 V2000
  -20.7501  -17.6307  134.9122 C   0  0  0  0  0  0  0  0  0  0  0  0
  -23.0485  -18.5211  134.8567 C   0  0  0  0  0  0  0  0  0  0  0  0
  -21.9988  -21.0249  136.1181 C   0  0  0  0  0  0  0  0  0  0  0  0
  -20.6037  -19.5244  137.3894 C   0  0  0  0  0  0  0  0  0  0  0  0
  -20.7090  -20.8320  138.1730 C   0  0  0  0  0  0  0  0  0  0  0  0
  -21.4313  -21.8340  137.2730 C   0  0  0  0  0  0  0  0  0  0  0  0
  -21.0369  -19.8487  135.9615 C   0  0  0  0  0  0  0  0  0  0  0  0
  -21.5903  -18.6287  135.2325 C   0  0  0  0  0  0  0  0  0  0  0  0
  5  4  1  0
  6  3  1  0
  6  5  1  0
  7  3  1  0
  7  4  1  0
  8  1  2  0
  8  2  1  0
  8  7  1  0
M  END
$$$$

     RDKit          3D

 31 34  0  0  0  0  0  0  0  0999 V2000
  -28.8129   -5.5710  136.9338 N   0  0  0  0  0  0  0  0  0  0  0  0
  -27.8732   -6.3751  139.0799 C   0  0  0  0  0  0  0  0  0  0  0  0
  -27.8707   -7.7597  139.7059 N   0  0  0  0  0  0  0  0  0  0  0  0
  -30.0271   -4.9317  139.0218 C   0  0  0  0  0  0  0  0  0  0  0  0
  -28.7809   -2.8953  138.4634 C   0  0  0  0  0  0  0  0  0  0  0  0
  -27.6983   -7.6546  141.2127 C   0  0  0  0  0  0  0  0  0  0  0  0
  -29.1718   -6.0207  138.2940 C   0  0  0  0  0  0  0  0  0  0  0  0
  -30.0469   -3.6337  138.3209 N   0  0  0  0  0  0  0  0  0  0  0  0
  -26.6714   -8.5500  141.8852 C   0  0  0  0  0  0  0  0  0  0  0  0
  -30.4778   -3.7552  136.9087 C   0  0  0  0  0  0  0  0  0  0  0  0
  -29.0345   -7.7331  142.0294 C   0  0  0  0  0  0  0  0  0  0  0  0
  -29.9783   -5.0414  136.2288 C   0  0  0  0  0  0  0  0  0  0  0  0
  -27.0610   -8.7252  138.8463 C   0  0  0  0  0  0  0  0  0  0  0  0
  -27.8980   -9.2029  137.6015 C   0  0  0  0  0  0  0  0  0  0  0  0
  -27.0933  -10.0386  141.9341 C   0  0  0  0  0  0  0  0  0  0  0  0
  -30.2480   -7.2342  141.2806 C   0  0  0  0  0  0  0  0  0  0  0  0
  -26.2519   -9.9054  139.4789 C   0  0  0  0  0  0  0  0  0  0  0  0
  -26.8927  -10.7490  140.5810 C   0  0  0  0  0  0  0  0  0  0  0  0
  -29.3390   -9.0994  142.7451 C   0  0  0  0  0  0  0  0  0  0  0  0
  -26.3048  -10.6896  142.9078 O   0  0  0  0  0  0  0  0  0  0  0  0
  -30.8793   -7.9885  140.3731 C   0  0  0  0  0  0  0  0  0  0  0  0
  -28.5202  -10.2305  142.2784 N   0  0  0  0  0  0  0  0  0  0  0  0
  -27.2901   -8.0826  145.4260 C   0  0  0  0  0  0  0  0  0  0  0  0
  -28.1695   -8.7380  146.4836 C   0  0  0  0  0  0  0  0  0  0  0  0
  -29.4497   -9.0097  144.2956 C   0  0  0  0  0  0  0  0  0  0  0  0
  -27.4304   -9.5755  147.4893 C   0  0  0  0  0  0  0  0  0  0  0  0
  -26.5104   -9.0409  148.2975 C   0  0  0  0  0  0  0  0  0  0  0  0
  -28.1491   -9.2840  145.0576 C   0  0  0  0  0  0  0  0  0  0  0  0
  -28.9789  -10.2805  137.8858 C   0  0  0  0  0  0  0  0  0  0  0  0
  -27.0272   -9.4989  136.3629 C   0  0  0  0  0  0  0  0  0  0  0  0
  -28.5702  -11.7266  137.5759 C   0  0  0  0  0  0  0  0  0  0  0  0
  3  2  1  0
  6  3  1  0
  7  1  1  0
  7  2  1  0
  7  4  1  0
  8  4  1  0
  8  5  1  0
  9  6  1  0
 10  8  1  0
 11  6  1  0
 12  1  1  0
 12 10  1  0
 13  3  1  0
 14 13  1  0
 15  9  1  0
 16 11  1  0
 17 13  1  0
 18 15  1  0
 18 17  1  0
 19 11  1  0
 20 15  1  0
 21 16  2  0
 22 15  1  0
 22 19  1  0
 24 23  1  0
 25 19  1  0
 26 24  1  0
 27 26  2  0
 28 23  1  0
 28 24  1  0
 28 25  1  0
 29 14  1  0
 30 14  1  0
 31 29  1  0
M  END
$$$$

     RDKit          3D

 31 34  0  0  0  0  0  0  0  0999 V2000
  -30.3642   -2.7262  138.1354 O   0  0  0  0  0  0  0  0  0  0  0  0
  -30.2812   -3.4762  134.9109 C   0  0  0  0  0  0  0  0  0  0  0  0
  -29.9851   -2.3866  134.0504 O   0  0  0  0  0  0  0  0  0  0  0  0
  -29.6096   -5.5094  134.4701 C   0  0  0  0  0  0  0  0  0  0  0  0
  -30.3898   -6.9494  136.5441 C   0  0  0  0  0  0  0  0  0  0  0  0
  -31.4221   -7.9966  137.0541 C   0  0  0  0  0  0  0  0  0  0  0  0
  -31.7670   -5.6784  134.7559 C   0  0  0  0  0  0  0  0  0  0  0  0
  -30.5700   -6.5894  135.0641 C   0  0  0  0  0  0  0  0  0  0  0  0
  -32.6287   -7.2949  138.7616 C   0  0  0  0  0  0  0  0  0  0  0  0
  -32.0107   -9.9550  140.7010 Si  0  0  0  0  0  4  0  0  0  0  0  0
  -33.7238   -5.0103  139.1417 C   0  0  0  0  0  0  0  0  0  0  0  0
  -32.7637   -6.3420  133.7964 C   0  0  0  0  0  0  0  0  0  0  0  0
  -34.8112   -9.6314  141.3300 C   0  0  0  0  0  0  0  0  0  0  0  0
  -31.8349   -9.6400  138.8426 C   0  0  0  0  0  0  0  0  0  0  0  0
  -31.6812   -5.7115  140.2949 O   0  0  0  0  0  0  0  0  0  0  0  0
  -32.4018   -5.8073  139.0832 C   0  0  0  0  0  0  0  0  0  0  0  0
  -33.3665  -10.5024  143.7997 N   0  0  0  0  0  0  0  0  0  0  0  0
  -32.8951   -7.6039  137.2748 C   0  0  0  0  0  0  0  0  0  0  0  0
  -33.7100   -8.8426  137.2068 N   0  0  0  0  0  0  0  0  0  0  0  0
  -33.6572  -10.6642  141.3484 C   0  0  0  0  0  0  0  0  0  0  0  0
  -28.7139   -1.0642  137.2286 C   0  0  0  0  0  0  0  0  0  0  0  0
  -30.4370   -0.4613  138.9884 C   0  0  0  0  0  0  0  0  0  0  0  0
  -30.8287   -4.6577  134.0879 C   0  0  0  0  0  0  0  0  0  0  0  0
  -29.5784   -1.5786  138.4046 C   0  0  0  0  0  0  0  0  0  0  0  0
  -31.2978   -2.7690  136.5311 Al  0  0  0  0  0  3  0  0  0  0  0  0
  -34.3792   -8.3912  141.8206 O   0  0  0  0  0  0  0  0  0  0  0  0
  -34.5083   -5.0394  140.7844 S   0  0  0  0  0  0  0  0  0  0  0  0
  -33.4364  -11.2297  142.7379 C   0  0  0  0  0  0  0  0  0  0  0  0
  -29.0599   -4.3510  135.3129 C   0  0  0  0  0  0  0  0  0  0  0  0
  -33.1457   -9.9795  138.0132 C   0  0  0  0  0  0  0  0  0  0  0  0
  -31.3823   -8.1748  138.5887 C   0  0  0  0  0  0  0  0  0  0  0  0
  3  2  1  0
  6  5  1  0
  8  4  1  0
  8  5  1  0
  8  7  1  0
 12  7  1  0
 14 10  1  0
 16  9  1  0
 16 11  1  0
 16 15  1  0
 18  6  1  0
 18  9  1  0
 19 18  1  0
 20 10  1  0
 20 13  1  0
 23  2  1  0
 23  4  1  0
 23  7  1  0
 24  1  1  0
 24 21  1  0
 24 22  1  0
 25  1  1  0
 25  2  1  0
 26 13  1  0
 27 11  1  0
 28 17  2  0
 28 20  1  0
 29  2  1  0
 29  4  1  0
 30 14  1  0
 30 19  1  0
 31  6  1  0
 31  9  1  0
 31 14  1  0
M  END
$$$$

     RDKit          3D

 41 52  0  0  0  0  0  0  0  0999 V2000
  -20.7348  -11.1461  144.7517 C   0  0  0  0  0  0  0  0  0  0  0  0
  -22.3665  -11.7760  144.8293 C   0  0  0  0  0  0  0  0  0  0  0  0
  -23.2863  -11.8564  146.3187 C   0  0  0  0  0  0  0  0  0  0  0  0
  -19.3080  -12.0581  146.4753 C   0  0  0  0  0  0  0  0  0  0  0  0
  -19.8648   -8.8231  146.9589 C   0  0  0  0  0  0  0  0  0  0  0  0
  -19.3195  -11.6580  147.7527 C   0  0  0  0  0  0  0  0  0  0  0  0
  -18.9926  -11.2657  143.8885 C   0  0  0  0  0  0  0  0  0  0  0  0
  -20.2493  -11.2651  141.7010 C   0  0  0  0  0  0  0  0  0  0  0  0
  -18.1708  -12.3784  144.6322 O   0  0  0  0  0  0  0  0  0  0  0  0
  -16.8859  -12.4960  145.4273 C   0  0  0  0  0  0  0  0  0  0  0  0
  -20.4518  -11.8684  147.7597 C   0  0  0  0  0  0  0  0  0  0  0  0
  -21.4279  -15.4874  144.6495 C   0  0  0  0  0  0  0  0  0  0  0  0
  -20.6556  -14.4222  145.4823 C   0  0  0  0  0  0  0  0  0  0  0  0
  -22.7455  -13.1918  144.6166 C   0  0  0  0  0  0  0  0  0  0  0  0
  -21.1414  -13.6294  146.3529 C   0  0  0  0  0  0  0  0  0  0  0  0
  -19.0209  -10.8569  140.7761 C   0  0  0  0  0  0  0  0  0  0  0  0
  -17.5015  -11.4989  139.3077 C   0  0  0  0  0  0  0  0  0  0  0  0
  -16.3240  -12.9764  139.7697 C   0  0  0  0  0  0  0  0  0  0  0  0
  -16.6980  -11.4199  146.8595 C   0  0  0  0  0  0  0  0  0  0  0  0
  -21.2983  -10.3684  143.5380 O   0  0  0  0  0  0  0  0  0  0  0  0
  -18.7801  -12.0993  139.8529 C   0  0  0  0  0  0  0  0  0  0  0  0
  -21.4669  -13.9612  144.2797 C   0  0  0  0  0  0  0  0  0  0  0  0
  -18.9404  -12.7753  143.7012 C   0  0  0  0  0  0  0  0  0  0  0  0
  -19.9691  -10.5941  142.9797 C   0  0  0  0  0  0  0  0  0  0  0  0
  -22.6578  -13.3174  146.1011 C   0  0  0  0  0  0  0  0  0  0  0  0
  -19.0709  -10.4371  147.0500 C   0  0  0  0  0  0  0  0  0  0  0  0
  -19.8457   -8.2437  145.3312 C   0  0  0  0  0  0  0  0  0  0  0  0
  -20.6525   -7.3210  142.8785 C   0  0  0  0  0  0  0  0  0  0  0  0
  -18.9304  -13.0629  147.6585 C   0  0  0  0  0  0  0  0  0  0  0  0
  -16.4172  -11.6447  140.3532 N   0  0  0  0  0  0  0  0  0  0  0  0
  -21.8722   -7.6697  142.4974 C   0  0  0  0  0  0  0  0  0  0  0  0
  -16.2780  -14.2483  140.5783 C   0  0  0  0  0  0  0  0  0  0  0  0
  -19.3356  -14.4866  146.2510 C   0  0  0  0  0  0  0  0  0  0  0  0
  -19.2266  -16.0284  146.4648 C   0  0  0  0  0  0  0  0  0  0  0  0
  -17.1126  -15.2981  140.3078 N   0  0  0  0  0  0  0  0  0  0  0  0
  -17.1659  -12.4291  148.2304 C   0  0  0  0  0  0  0  0  0  0  0  0
  -17.6560  -12.8683  139.0442 C   0  0  0  0  0  0  0  0  0  0  0  0
  -20.1463   -7.0770  144.3779 C   0  0  0  0  0  0  0  0  0  0  0  0
  -18.7127   -7.6809  144.4386 C   0  0  0  0  0  0  0  0  0  0  0  0
  -17.8094  -13.5025  137.6509 C   0  0  0  0  0  0  0  0  0  0  0  0
  -21.1709  -10.8100  146.3177 N   0  0  0  0  0  0  0  0  0  0  0  0
  2  1  1  0
  3  2  1  0
  6  4  1  0
  7  1  1  0
 10  9  1  0
 11  6  1  0
 13 12  1  0
 14  2  1  0
 15  4  1  0
 15 13  1  0
 16  8  1  0
 19 10  1  0
 20  1  1  0
 21 16  1  0
 21 17  1  0
 22 12  1  0
 22 13  1  0
 22 14  1  0
 23  7  1  0
 23  9  1  0
 24  7  1  0
 24  8  1  0
 24 20  1  0
 25  3  1  0
 25 14  1  0
 25 15  1  0
 26  4  1  0
 26  5  1  0
 26  6  1  0
 27  5  1  0
 29  6  1  0
 29 11  1  0
 30 17  1  0
 30 18  1  0
 31 28  2  0
 32 18  1  0
 33 13  1  0
 33 29  1  0
 34 33  1  0
 35 32  2  0
 36 19  1  0
 36 29  1  0
 37 17  1  0
 37 18  1  0
 37 21  1  0
 38 27  1  0
 38 28  1  0
 39 27  1  0
 39 38  1  0
 40 37  1  0
 41  1  1  0
 41 11  1  0
M  END
$$$$

     RDKit          3D

 45 55  0  0  0  0  0  0  0  0999 V2000
   -9.8533   -3.0929  138.3528 C   0  0  0  0  0  0  0  0  0  0  0  0
  -10.1487   -3.9275  137.0427 C   0  0  0  0  0  0  0  0  0  0  0  0
  -10.2584   -1.6496  138.8987 C   0  0  0  0  0  0  0  0  0  0  0  0
  -11.3365   -0.3306  141.0870 C   0  0  0  0  0  0  0  0  0  0  0  0
  -10.7448   -0.9029  142.3400 C   0  0  0  0  0  0  0  0  0  0  0  0
  -12.3864   -2.8541  140.0563 C   0  0  0  0  0  0  0  0  0  0  0  0
  -13.8118   -4.0345  140.6669 C   0  0  0  0  0  0  0  0  0  0  0  0
  -15.3838   -3.8139  141.2496 C   0  0  0  0  0  0  0  0  0  0  0  0
  -11.2375   -4.8136  136.3223 C   0  0  0  0  0  0  0  0  0  0  0  0
  -16.9690   -2.9484  141.4504 C   0  0  0  0  0  0  0  0  0  0  0  0
  -11.6361   -1.3019  139.7779 C   0  0  0  0  0  0  0  0  0  0  0  0
   -9.9173   -4.5815  138.4646 C   0  0  0  0  0  0  0  0  0  0  0  0
  -11.5384   -0.7500  143.5428 N   0  0  0  0  0  2  0  0  0  0  0  0
   -8.8574   -3.8843  139.2655 C   0  0  0  0  0  0  0  0  0  0  0  0
  -17.7585    0.8030  141.6822 C   0  0  0  0  0  0  0  0  0  0  0  0
  -10.2949    0.3926  141.9157 N   0  0  0  0  0  2  0  0  0  0  0  0
  -11.9737   -5.9689  137.2189 C   0  0  0  0  0  0  0  0  0  0  0  0
  -14.9680   -4.7675  140.0106 C   0  0  0  0  0  0  0  0  0  0  0  0
  -13.8347   -5.8454  140.6064 C   0  0  0  0  0  0  0  0  0  0  0  0
  -12.8899   -8.6010  140.6828 C   0  0  0  0  0  0  0  0  0  0  0  0
  -12.5987   -5.2256  138.2029 C   0  0  0  0  0  0  0  0  0  0  0  0
  -17.1616    1.3522  143.2262 C   0  0  0  0  0  0  0  0  0  0  0  0
  -12.7464  -11.0072  139.9530 C   0  0  0  0  0  0  0  0  0  0  0  0
  -11.1540   -5.2445  139.2222 C   0  0  0  0  0  0  0  0  0  0  0  0
  -12.9508  -12.9801  138.3715 C   0  0  0  0  0  0  0  0  0  0  0  0
  -16.0255    1.7693  144.4169 C   0  0  0  0  0  0  0  0  0  0  0  0
  -10.8530   -6.3915  140.3363 C   0  0  0  0  0  0  0  0  0  0  0  0
  -14.2468  -12.5412  137.3929 C   0  0  0  0  0  0  0  0  0  0  0  0
  -16.0992  -13.5944  139.5934 C   0  0  0  0  0  0  0  0  0  0  0  0
  -14.8513  -10.9190  136.6079 C   0  0  0  0  0  0  0  0  0  0  0  0
  -15.2354   -9.2820  137.1308 C   0  0  0  0  0  0  0  0  0  0  0  0
  -15.4727  -13.5630  138.0556 C   0  0  0  0  0  0  0  0  0  0  0  0
  -14.9177    0.4986  140.9846 C   0  0  0  0  0  0  0  0  0  0  0  0
  -17.7651   -9.1455  134.7491 C   0  0  0  0  0  0  0  0  0  0  0  0
  -13.0326  -12.4603  139.8378 N   0  0  0  0  0  0  0  0  0  0  0  0
  -16.6285   -8.9359  136.1471 C   0  0  0  0  0  0  0  0  0  0  0  0
  -14.0975    1.5143  141.8232 C   0  0  0  0  0  0  0  0  0  0  0  0
  -14.8962   -7.7068  138.3810 C   0  0  0  0  0  0  0  0  0  0  0  0
  -13.4751   -9.9174  140.9371 C   0  0  0  0  0  0  0  0  0  0  0  0
  -17.0577   -1.0418  141.5476 C   0  0  0  0  0  0  0  0  0  0  0  0
  -15.4672   -0.8609  141.5879 C   0  0  0  0  0  0  0  0  0  0  0  0
  -13.8991   -9.7347  136.2830 C   0  0  0  0  0  0  0  0  0  0  0  0
  -13.6772   -7.3733  139.6137 C   0  0  0  0  0  0  0  0  0  0  0  0
  -12.8177   -7.1947  138.0393 C   0  0  0  0  0  0  0  0  0  0  0  0
  -14.0290   -6.2889  137.9080 C   0  0  0  0  0  0  0  0  0  0  0  0
  2  1  1  0
  3  1  1  0
  5  4  1  0
  7  6  1  0
  8  7  1  0
  9  2  1  0
 10  8  1  0
 11  3  1  0
 11  4  1  0
 11  6  1  0
 12  1  1  0
 12  2  1  0
 13  5  1  0
 14  1  1  0
 14 12  1  0
 16  4  1  0
 16  5  1  0
 17  9  1  0
 18  7  1  0
 18  8  1  0
 19  7  1  0
 19 18  1  0
 21 17  1  0
 22 15  1  0
 24 12  1  0
 24 21  1  0
 26 22  1  0
 27 24  1  0
 28 25  1  0
 30 28  1  0
 31 30  1  0
 32 28  1  0
 32 29  1  0
 35 23  1  0
 35 25  1  0
 36 31  1  0
 36 34  1  0
 37 33  1  0
 38 31  1  0
 39 20  1  0
 39 23  1  0
 40 10  1  0
 40 15  1  0
 41 33  1  0
 41 40  1  0
 42 30  1  0
 42 31  1  0
 43 19  1  0
 43 20  1  0
 43 38  1  0
 44 17  1  0
 44 43  1  0
 45 21  1  0
 45 38  1  0
 45 44  1  0
M  RAD  2  13   2  16   2
M  END
$$$$

     RDKit          3D

 35 41  0  0  0  0  0  0  0  0999 V2000
  -22.5477    5.8917  144.7351 O   0  0  0  0  0  0  0  0  0  0  0  0
  -25.2105    4.9037  146.5581 P   0  0  0  0  0  0  0  0  0  0  0  0
  -26.0232    3.1887  145.0022 O   0  0  0  0  0  0  0  0  0  0  0  0
  -23.9608   11.8084  142.6365 O   0  0  0  0  0  0  0  0  0  0  0  0
  -22.8256    5.0045  145.7148 O   0  0  0  0  0  0  0  0  0  0  0  0
  -22.4835    5.0907  143.6144 C   0  0  0  0  0  0  0  0  0  0  0  0
  -25.2012    4.3027  144.9621 C   0  0  0  0  0  0  0  0  0  0  0  0
  -26.8736    5.1320  145.6790 C   0  0  0  0  0  0  0  0  0  0  0  0
  -23.8388    4.1031  145.2589 C   0  0  0  0  0  0  0  0  0  0  0  0
  -26.4265    4.2433  143.1874 C   0  0  0  0  0  0  0  0  0  0  0  0
  -28.1030    5.7955  146.2225 C   0  0  0  0  0  0  0  0  0  0  0  0
  -27.0268    3.9790  144.5910 C   0  0  0  0  0  0  0  0  0  0  0  0
  -24.4010   11.1523  141.5241 N   0  0  0  0  0  0  0  0  0  0  0  0
  -25.4483   10.1897  141.9001 C   0  0  0  0  0  0  0  0  0  0  0  0
  -26.0142   10.2596  143.6492 Cl  0  0  0  0  0  0  0  0  0  0  0  0
  -28.7149    4.8953  147.3575 C   0  0  0  0  0  0  0  0  0  0  0  0
  -23.9806    8.1613  148.2548 I   0  0  0  0  0  0  0  0  0  0  0  0
  -25.8177   11.4342  141.1854 C   0  0  0  0  0  0  0  0  0  0  0  0
  -25.1292    4.9967  143.5618 C   0  0  0  0  0  0  0  0  0  0  0  0
  -23.7509    4.2903  143.6969 C   0  0  0  0  0  0  0  0  0  0  0  0
  -24.6852    7.6972  141.2202 C   0  0  0  0  0  0  0  0  0  0  0  0
  -23.3367    7.9456  140.4770 C   0  0  0  0  0  0  0  0  0  0  0  0
  -22.4426    6.8173  140.4256 C   0  0  0  0  0  0  0  0  0  0  0  0
  -27.9441    7.2459  146.9243 C   0  0  0  0  0  0  0  0  0  0  0  0
  -25.6230    8.9276  140.9945 C   0  0  0  0  0  0  0  0  0  0  0  0
  -24.3947    7.3134  142.6338 N   0  0  0  0  0  0  0  0  0  0  0  0
  -25.3872    6.5859  143.4736 C   0  0  0  0  0  0  0  0  0  0  0  0
  -22.8366    5.6884  139.8943 N   0  0  0  0  0  0  0  0  0  0  0  0
  -26.9724    6.9965  143.1366 C   0  0  0  0  0  0  0  0  0  0  0  0
  -28.9213    3.4131  147.1119 C   0  0  0  0  0  0  0  0  0  0  0  0
  -28.4857    6.9327  143.8601 C   0  0  0  0  0  0  0  0  0  0  0  0
  -25.7867    7.1898  148.1065 O   0  0  0  0  0  0  0  0  0  0  0  0
  -26.6402    7.9566  147.2908 C   0  0  0  0  0  0  0  0  0  0  0  0
  -28.9413    5.9444  144.9598 N   0  0  0  0  0  0  0  0  0  0  0  0
  -29.2335    2.8086  148.3466 O   0  0  0  0  0  0  0  0  0  0  0  0
  5  1  1  0
  6  1  1  0
  7  2  1  0
  7  3  1  0
  8  2  1  0
  9  2  1  0
  9  5  1  0
  9  7  1  0
 11  8  1  0
 12  3  1  0
 12  8  1  0
 12 10  1  0
 13  4  1  0
 14 13  1  0
 15 14  1  0
 16 11  1  0
 18 13  1  0
 18 14  1  0
 19  7  1  0
 19 10  1  0
 20  6  1  0
 20  9  1  0
 20 19  1  0
 22 21  1  0
 23 22  1  0
 24 11  1  0
 25 14  1  0
 25 21  1  0
 26 21  1  0
 27 19  1  0
 27 26  1  0
 28 23  2  0
 29 27  1  0
 30 16  1  0
 31 29  1  0
 32 17  1  0
 33 24  1  0
 33 32  1  0
 34 11  1  0
 34 31  1  0
 35 30  1  0
M  END
$$$$

     RDKit          3D

 45 57  0  0  0  0  0  0  0  0999 V2000
  -28.8575  -14.2405  136.3413 O   0  0  0  0  0  0  0  0  0  0  0  0
  -29.4766  -11.8721  138.6601 C   0  0  0  0  0  0  0  0  0  0  0  0
  -29.0157  -10.3307  141.9386 O   0  0  0  0  0  0  0  0  0  0  0  0
  -27.7800  -14.4604  137.2920 C   0  0  0  0  0  0  0  0  0  0  0  0
  -24.0285  -14.5722  135.6088 C   0  0  0  0  0  0  0  0  0  0  0  0
  -24.7992  -16.0251  137.2630 C   0  0  0  0  0  0  0  0  0  0  0  0
  -22.2595  -16.5976  133.0163 C   0  0  0  0  0  0  0  0  0  0  0  0
  -25.8660  -14.0861  139.0273 C   0  0  0  0  0  0  0  0  0  0  0  0
  -25.1477  -12.3900  139.6190 C   0  0  0  0  0  0  0  0  0  0  0  0
  -24.1441  -18.4024  133.0075 C   0  0  0  0  0  0  0  0  0  0  0  0
  -24.7614  -16.2943  132.8997 O   0  0  0  0  0  0  0  0  0  0  0  0
  -23.7370  -15.9289  135.6579 C   0  0  0  0  0  0  0  0  0  0  0  0
  -26.0223  -14.2619  135.3629 Cl  0  0  0  0  0  0  0  0  0  0  0  0
  -21.7842  -14.2624  135.3975 C   0  0  0  0  0  0  0  0  0  0  0  0
  -30.1883  -12.7094  142.9196 C   0  0  0  0  0  0  0  0  0  0  0  0
  -24.9336  -15.2621  138.5207 C   0  0  0  0  0  0  0  0  0  0  0  0
  -23.8648  -13.0025  139.1667 C   0  0  0  0  0  0  0  0  0  0  0  0
  -25.0790  -19.8261  129.5529 C   0  0  0  0  0  0  0  0  0  0  0  0
  -24.4194  -14.3939  138.1434 C   0  0  0  0  0  0  0  0  0  0  0  0
  -23.7440  -16.8816  133.7836 C   0  0  0  0  0  0  0  0  0  0  0  0
  -28.2262  -11.6749  144.2123 C   0  0  0  0  0  0  0  0  0  0  0  0
  -27.1681  -11.1671  145.1322 O   0  0  0  0  0  0  0  0  0  0  0  0
  -28.8627  -13.5922  143.1479 C   0  0  0  0  0  0  0  0  0  0  0  0
  -23.3268  -14.9451  138.9626 C   0  0  0  0  0  0  0  0  0  0  0  0
  -23.6315  -19.1889  129.9646 C   0  0  0  0  0  0  0  0  0  0  0  0
  -25.9896  -12.0855  145.0867 C   0  0  0  0  0  0  0  0  0  0  0  0
  -26.4578  -13.7004  145.9988 C   0  0  0  0  0  0  0  0  0  0  0  0
  -25.4380  -12.0274  143.4869 C   0  0  0  0  0  0  0  0  0  0  0  0
  -27.4490  -15.1345  145.6555 C   0  0  0  0  0  0  0  0  0  0  0  0
  -29.5180  -11.1628  143.2001 C   0  0  0  0  0  0  0  0  0  0  0  0
  -23.6431  -19.6020  131.6105 C   0  0  0  0  0  0  0  0  0  0  0  0
  -28.2684  -15.3949  138.5040 C   0  0  0  0  0  0  0  0  0  0  0  0
  -22.5278  -13.6799  139.8703 C   0  0  0  0  0  0  0  0  0  0  0  0
  -24.5535  -21.1524  131.7490 C   0  0  0  0  0  0  0  0  0  0  0  0
  -23.2923  -17.7976  129.3723 C   0  0  0  0  0  0  0  0  0  0  0  0
  -29.1894  -14.3196  138.9928 C   0  0  0  0  0  0  0  0  0  0  0  0
  -30.1974  -13.3920  137.2908 P   0  0  0  0  0  0  0  0  0  0  0  0
  -28.1645  -13.0818  138.3876 C   0  0  0  0  0  0  0  0  0  0  0  0
  -27.6041  -12.5934  143.0910 C   0  0  0  0  0  0  0  0  0  0  0  0
  -27.0391  -15.4259  139.4721 C   0  0  0  0  0  0  0  0  0  0  0  0
  -28.8564  -10.8651  140.2737 C   0  0  0  0  0  0  0  0  0  0  0  0
  -30.4815  -14.4952  138.4063 O   0  0  0  0  0  0  0  0  0  0  0  0
  -25.4169  -17.5501  132.5252 C   0  0  0  0  0  0  0  0  0  0  0  0
  -26.3029  -13.1570  143.0509 O   0  0  0  0  0  0  0  0  0  0  0  0
  -25.6318  -14.8466  136.8555 C   0  0  0  0  0  0  0  0  0  0  0  0
  4  1  1  0
  9  8  1  0
 12  5  1  0
 12  6  1  0
 13  5  1  0
 14  5  1  0
 16  6  1  0
 16  8  1  0
 17  9  1  0
 19  6  1  0
 19  8  1  0
 19 17  1  0
 20  7  1  0
 20 10  1  0
 20 11  1  0
 20 12  1  0
 22 21  1  0
 23 15  1  0
 24 16  1  0
 24 19  1  0
 25 18  1  0
 26 22  1  0
 27 26  1  0
 28 26  1  0
 29 27  1  0
 30  3  1  0
 30 15  1  0
 30 21  1  0
 31 10  1  0
 31 25  1  0
 32  4  1  0
 33 17  1  0
 33 24  1  0
 34 31  1  0
 35 25  1  0
 36 32  1  0
 37  1  1  0
 37  2  1  0
 38  2  1  0
 38  4  1  0
 38 36  1  0
 39 21  1  0
 39 23  1  0
 40  8  1  0
 40 32  1  0
 41  2  1  0
 41  3  1  0
 42 36  1  0
 42 37  1  0
 43 10  1  0
 43 11  1  0
 44 28  1  0
 44 39  1  0
 45  4  1  0
 45  5  1  0
 45  6  1  0
 45 16  1  0
M  END
$$$$

     RDKit          3D

 45 55  0  0  0  0  0  0  0  0999 V2000
  -18.1391  -18.2878  138.6311 C   0  0  0  0  0  0  0  0  0  0  0  0
  -21.8082  -13.9418  141.3067 C   0  0  0  0  0  0  0  0  0  0  0  0
  -16.8298  -21.6385  137.4284 C   0  0  0  0  0  0  0  0  0  0  0  0
  -20.4361  -22.6737  137.5252 C   0  0  0  0  0  0  0  0  0  0  0  0
  -21.3391  -20.8769  137.1143 C   0  0  0  0  0  0  0  0  0  0  0  0
  -16.6818  -19.0812  134.9521 C   0  0  0  0  0  0  0  0  0  0  0  0
  -27.1663  -17.1186  142.6922 C   0  0  0  0  0  0  0  0  0  0  0  0
  -23.6552  -17.1949  142.8217 C   0  0  0  0  0  0  0  0  0  0  0  0
  -27.3504  -15.4978  149.4659 C   0  0  0  0  0  0  0  0  0  0  0  0
  -22.6735  -16.3623  141.1702 C   0  0  0  0  0  0  0  0  0  0  0  0
  -24.6842  -18.8113  139.7328 C   0  0  0  0  0  0  0  0  0  0  0  0
  -18.6453  -18.9856  132.7001 N   0  0  0  0  0  0  0  0  0  0  0  0
  -22.5044  -21.7601  141.8853 C   0  0  0  0  0  0  0  0  0  0  0  0
  -21.1214  -16.0217  139.1561 C   0  0  0  0  0  0  0  0  0  0  0  0
  -15.3146  -17.2830  136.7145 C   0  0  0  0  0  0  0  0  0  0  0  0
  -17.0542  -19.6122  137.5361 C   0  0  0  0  0  0  0  0  0  0  0  0
  -30.2940  -19.9934  151.3740 C   0  0  0  0  0  0  0  0  0  0  0  0
  -26.1823  -24.4189  140.7475 C   0  0  0  0  0  0  0  0  0  0  0  0
  -28.7465  -17.7100  149.8655 C   0  0  0  0  0  0  0  0  0  0  0  0
  -27.2505  -15.4900  145.9672 C   0  0  0  0  0  0  0  0  0  0  0  0
  -18.3529  -20.4792  139.8960 Sb  0  0  0  0  0  3  0  0  0  0  0  0
  -15.3945  -21.3043  135.7078 C   0  0  0  0  0  0  0  0  0  0  0  0
  -18.7804  -21.5146  136.2319 C   0  0  0  0  0  0  0  0  0  0  0  0
  -25.4140  -16.2008  135.3661 C   0  0  0  0  0  0  0  0  0  0  0  0
  -31.8700  -17.3043  135.4966 C   0  0  0  0  0  0  0  0  0  0  0  0
  -25.8460  -15.8016  139.5743 C   0  0  0  0  0  0  0  0  0  0  0  0
  -20.7835  -23.0188  136.6200 C   0  0  0  0  0  0  0  0  0  0  0  0
  -27.0850  -12.2439  145.5537 C   0  0  0  0  0  0  0  0  0  0  0  0
  -18.3287  -12.6815  139.7425 C   0  0  0  0  0  0  0  0  0  0  0  0
  -19.1826  -10.4364  137.3479 C   0  0  0  0  0  0  0  0  0  0  0  0
  -19.8674  -25.2835  136.0322 C   0  0  0  0  0  0  0  0  0  0  0  0
  -23.5641  -23.2826  137.7219 C   0  0  0  0  0  0  0  0  0  0  0  0
  -31.6944  -11.3779  134.3411 C   0  0  0  0  0  0  0  0  0  0  0  0
  -25.1449  -28.1479  137.0408 C   0  0  0  0  0  0  0  0  0  0  0  0
  -25.4211  -25.6842  135.6193 C   0  0  0  0  0  0  0  0  0  0  0  0
  -24.2255  -20.6744  138.7064 C   0  0  0  0  0  0  0  0  0  0  0  0
  -29.1027  -13.5999  141.7362 C   0  0  0  0  0  0  0  0  0  0  0  0
  -28.5342  -17.2910  145.7688 C   0  0  0  0  0  0  0  0  0  0  0  0
  -26.5144  -18.7976  136.8208 C   0  0  0  0  0  0  0  0  0  0  0  0
  -26.0606  -17.8108  141.1546 C   0  0  0  0  0  0  0  0  0  0  0  0
  -24.4712  -14.8410  133.9440 C   0  0  0  0  0  0  0  0  0  0  0  0
  -24.1635  -25.9341  136.5865 C   0  0  0  0  0  0  0  0  0  0  0  0
  -29.2115  -16.8202  150.9208 C   0  0  0  0  0  0  0  0  0  0  0  0
  -25.5359  -13.1065  134.1029 C   0  0  0  0  0  0  0  0  0  0  0  0
  -26.5469  -11.3483  133.9039 C   0  0  0  0  0  0  0  0  0  0  0  0
  3  1  1  0
  5  3  1  0
  5  4  1  0
  8  2  1  0
  8  7  1  0
 10  2  1  0
 10  7  1  0
 10  8  1  0
 11  5  1  0
 11  9  1  0
 12  6  2  0
 13  7  1  0
 14  1  1  0
 14  2  1  0
 14  7  1  0
 15  1  1  0
 15  6  1  0
 16  1  1  0
 16  6  1  0
 18 13  1  0
 19 17  1  0
 20 19  1  0
 21  8  1  0
 21 13  1  0
 22 21  1  0
 23 22  1  0
 26 20  1  0
 27  3  1  0
 27  4  1  0
 27  5  1  0
 28 20  1  0
 29  2  1  0
 30 29  1  0
 31 23  1  0
 32 31  1  0
 35 34  1  0
 36 32  1  0
 37 33  1  0
 38 37  1  0
 39 23  1  0
 39 24  2  0
 39 25  1  0
 40 36  1  0
 41 26  1  0
 41 33  1  0
 42 31  1  0
 42 32  1  0
 42 34  1  0
 42 35  1  0
 43  9  1  0
 43 17  1  0
 43 19  1  0
 43 28  1  0
 44 41  1  0
 45 44  2  0
M  END
$$$$

     RDKit          3D

 26 27  0  0  0  0  0  0  0  0999 V2000
  -25.8469  -12.9383  150.8886 C   0  0  0  0  0  0  0  0  0  0  0  0
  -23.0725  -13.1634  149.9023 C   0  0  0  0  0  0  0  0  0  0  0  0
  -24.2400  -13.9114  149.1722 C   0  0  0  0  0  0  0  0  0  0  0  0
  -25.1152  -14.1649  150.3172 N   0  0  0  0  0  0  0  0  0  0  0  0
  -23.7418   -9.4984  151.7081 C   0  0  0  0  0  0  0  0  0  0  0  0
  -21.8064  -10.4830  153.6452 Br  0  0  0  0  0  0  0  0  0  0  0  0
  -25.1458  -13.6368  147.8674 C   0  0  0  0  0  0  0  0  0  0  0  0
  -24.7320  -11.8214  150.9521 C   0  0  0  0  0  0  0  0  0  0  0  0
  -23.4867  -12.6400  151.2960 C   0  0  0  0  0  0  0  0  0  0  0  0
  -24.8645  -10.5565  151.8943 C   0  0  0  0  0  0  0  0  0  0  0  0
  -25.5811  -14.8914  147.0900 N   0  0  0  0  0  0  0  0  0  0  0  0
  -22.2627   -9.7754  151.8057 C   0  0  0  0  0  0  0  0  0  0  0  0
  -23.0498  -16.6816  151.7226 C   0  0  0  0  0  0  0  0  0  0  0  0
  -24.0259   -8.1458  151.5684 C   0  0  0  0  0  0  0  0  0  0  0  0
  -23.5240  -17.7356  146.9008 C   0  0  0  0  0  0  0  0  0  0  0  0
  -25.0012  -18.2522  147.4349 C   0  0  0  0  0  0  0  0  0  0  0  0
  -21.7197  -16.7511  150.8585 C   0  0  0  0  0  0  0  0  0  0  0  0
  -21.8935  -16.6667  149.2322 C   0  0  0  0  0  0  0  0  0  0  0  0
  -26.8468  -16.3172  148.2799 C   0  0  0  0  0  0  0  0  0  0  0  0
  -22.8394  -17.2903  148.1625 C   0  0  0  0  0  0  0  0  0  0  0  0
  -25.7881  -17.5085  148.6656 C   0  0  0  0  0  0  0  0  0  0  0  0
  -26.9073  -15.5445  146.8325 C   0  0  0  0  0  0  0  0  0  0  0  0
  -27.1175  -14.7138  145.4421 C   0  0  0  0  0  0  0  0  0  0  0  0
  -28.5660  -15.8691  146.7504 C   0  0  0  0  0  0  0  0  0  0  0  0
  -25.4495  -17.7312  150.2631 C   0  0  0  0  0  0  0  0  0  0  0  0
  -24.2120  -17.7449  151.3856 C   0  0  0  0  0  0  0  0  0  0  0  0
  3  2  1  0
  4  1  1  0
  4  3  1  0
  7  3  1  0
  8  1  1  0
  9  2  1  0
  9  8  1  0
 10  5  1  0
 10  8  1  0
 11  7  1  0
 12  5  1  0
 12  6  1  0
 14  5  2  0
 16 15  1  0
 17 13  1  0
 18 17  1  0
 20 15  1  0
 20 18  1  0
 21 16  1  0
 21 19  1  0
 22 11  1  0
 22 19  1  0
 23 22  1  0
 24 22  1  0
 25 21  1  0
 26 13  1  0
 26 25  1  0
M  END
$$$$

     RDKit          3D

 39 49  0  0  0  0  0  0  0  0999 V2000
  -30.9794   -9.9895  143.7510 C   0  0  0  0  0  0  0  0  0  0  0  0
  -32.2069  -13.2262  139.1901 O   0  0  0  0  0  0  0  0  0  0  0  0
  -28.9470  -10.3772  144.8379 C   0  0  0  0  0  0  0  0  0  0  0  0
  -27.3354   -9.5575  146.2120 C   0  0  0  0  0  0  0  0  0  0  0  0
  -32.4446  -10.7094  143.4788 C   0  0  0  0  0  0  0  0  0  0  0  0
  -31.2496   -8.4317  142.9023 C   0  0  0  0  0  0  0  0  0  0  0  0
  -26.6357  -11.4854  147.8222 C   0  0  0  0  0  0  0  0  0  0  0  0
  -28.0813  -12.2166  146.7285 C   0  0  0  0  0  0  0  0  0  0  0  0
  -32.7138  -11.7881  142.0103 C   0  0  0  0  0  0  0  0  0  0  0  0
  -28.2593  -12.6877  145.3979 C   0  0  0  0  0  0  0  0  0  0  0  0
  -27.1906  -12.2926  144.0939 C   0  0  0  0  0  0  0  0  0  0  0  0
  -25.5914   -9.9127  147.1158 C   0  0  0  0  0  0  0  0  0  0  0  0
  -24.6102   -9.2733  143.3514 N   0  0  0  0  0  0  0  0  0  0  0  0
  -25.5078  -12.1593  143.5079 C   0  0  0  0  0  0  0  0  0  0  0  0
  -26.1172   -8.2637  145.6584 C   0  0  0  0  0  0  0  0  0  0  0  0
  -33.0287  -11.1074  140.7710 C   0  0  0  0  0  0  0  0  0  0  0  0
  -25.4835   -7.7064  141.7188 O   0  0  0  0  0  0  0  0  0  0  0  0
  -34.0224  -10.0540  140.4646 C   0  0  0  0  0  0  0  0  0  0  0  0
  -29.1303  -13.7632  147.8345 C   0  0  0  0  0  0  0  0  0  0  0  0
  -28.7856  -15.0781  146.3496 C   0  0  0  0  0  0  0  0  0  0  0  0
  -32.2252   -8.6367  141.3345 C   0  0  0  0  0  0  0  0  0  0  0  0
  -34.6221  -12.2154  140.9413 N   0  0  0  0  0  0  0  0  0  0  0  0
  -27.6274  -11.0290  147.1179 C   0  0  0  0  0  0  0  0  0  0  0  0
  -30.5035  -16.0823  146.1268 C   0  0  0  0  0  0  0  0  0  0  0  0
  -31.1777  -15.4393  144.7892 C   0  0  0  0  0  0  0  0  0  0  0  0
  -32.8305  -14.9475  144.7830 C   0  0  0  0  0  0  0  0  0  0  0  0
  -27.5484  -15.9689  147.1053 C   0  0  0  0  0  0  0  0  0  0  0  0
  -31.1648   -9.7452  140.5475 C   0  0  0  0  0  0  0  0  0  0  0  0
  -31.6579  -10.3581  142.3419 C   0  0  0  0  0  0  0  0  0  0  0  0
  -28.9542  -12.0844  147.7747 C   0  0  0  0  0  0  0  0  0  0  0  0
  -31.1530  -17.1232  144.5815 C   0  0  0  0  0  0  0  0  0  0  0  0
  -23.0817   -8.9966  143.2129 C   0  0  0  0  0  0  0  0  0  0  0  0
  -26.9330   -7.6867  142.3320 C   0  0  0  0  0  0  0  0  0  0  0  0
  -26.3162   -5.5807  141.7094 C   0  0  0  0  0  0  0  0  0  0  0  0
  -24.0977   -7.3706  142.6079 C   0  0  0  0  0  0  0  0  0  0  0  0
  -25.3337  -10.3759  144.5823 C   0  0  0  0  0  0  0  0  0  0  0  0
  -32.8208  -11.6067  139.7582 C   0  0  0  0  0  0  0  0  0  0  0  0
  -25.5545   -9.1295  141.5974 C   0  0  0  0  0  0  0  0  0  0  0  0
  -24.6334   -5.5838  141.9848 C   0  0  0  0  0  0  0  0  0  0  0  0
  3  1  1  0
  4  3  1  0
  5  1  1  0
  6  1  1  0
  8  7  1  0
  9  5  1  0
 10  8  2  0
 11 10  1  0
 12  4  1  0
 12  7  1  0
 14 11  1  0
 15  4  1  0
 16  9  1  0
 18 16  1  0
 20 19  1  0
 21  6  1  0
 22 16  1  0
 23  4  1  0
 23  7  1  0
 24 20  1  0
 25 24  1  0
 26 25  1  0
 27 20  1  0
 28 16  1  0
 28 21  1  0
 29  1  1  0
 29  5  1  0
 29  9  1  0
 29 21  1  0
 30  8  1  0
 30 19  1  0
 30 23  1  0
 31 24  1  0
 31 25  1  0
 32 13  1  0
 34 33  1  0
 35 17  1  0
 35 32  1  0
 36 12  1  0
 36 13  1  0
 36 14  1  0
 37  2  1  0
 37  9  1  0
 37 18  1  0
 38 13  1  0
 38 17  1  0
 38 33  1  0
 39 34  1  0
 39 35  1  0
M  END
$$$$

     RDKit          3D

 44 49  0  0  0  0  0  0  0  0999 V2000
  -25.5455    2.4058  140.7242 C   0  0  0  0  0  0  0  0  0  0  0  0
  -24.6148    5.1705  141.3591 C   0  0  0  0  0  0  0  0  0  0  0  0
  -28.2223    2.3718  140.5808 C   0  0  0  0  0  0  0  0  0  0  0  0
  -28.8428    2.4842  142.6246 C   0  0  0  0  0  0  0  0  0  0  0  0
  -25.0690    5.8379  140.0463 C   0  0  0  0  0  0  0  0  0  0  0  0
  -28.3913    3.7539  143.4467 C   0  0  0  0  0  0  0  0  0  0  0  0
  -28.0026    3.7801  144.8746 N   0  0  0  0  0  0  0  0  0  0  0  0
  -28.5118    4.8995  142.7803 C   0  0  0  0  0  0  0  0  0  0  0  0
  -25.7992    5.2281  138.7608 C   0  0  0  0  0  0  0  0  0  0  0  0
  -26.1341    5.2291  137.2509 C   0  0  0  0  0  0  0  0  0  0  0  0
  -27.7642    4.7678  141.5624 C   0  0  0  0  0  0  0  0  0  0  0  0
  -23.8189    3.3721  141.1381 C   0  0  0  0  0  0  0  0  0  0  0  0
  -25.8853    6.7373  141.1700 C   0  0  0  0  0  0  0  0  0  0  0  0
  -29.0369    4.2193  145.8998 C   0  0  0  0  0  0  0  0  0  0  0  0
  -29.0018    3.1293  147.0526 C   0  0  0  0  0  0  0  0  0  0  0  0
  -27.6372    3.4478  140.8521 C   0  0  0  0  0  0  0  0  0  0  0  0
  -30.1592    1.8624  146.2392 C   0  0  0  0  0  0  0  0  0  0  0  0
  -27.2482    4.1011  137.1862 C   0  0  0  0  0  0  0  0  0  0  0  0
  -28.9081    4.6063  147.3607 C   0  0  0  0  0  0  0  0  0  0  0  0
  -28.7039    4.7252  137.4985 C   0  0  0  0  0  0  0  0  0  0  0  0
  -29.2354    4.0041  139.0521 C   0  0  0  0  0  0  0  0  0  0  0  0
  -29.9852    0.0642  146.1737 C   0  0  0  0  0  0  0  0  0  0  0  0
  -31.7166    2.2342  146.5985 C   0  0  0  0  0  0  0  0  0  0  0  0
  -26.1894    6.5210  137.9881 C   0  0  0  0  0  0  0  0  0  0  0  0
  -36.3412    0.1772  147.9742 C   0  0  0  0  0  0  0  0  0  0  0  0
  -30.7426   -0.5102  147.6186 C   0  0  0  0  0  0  0  0  0  0  0  0
  -30.7232    0.8220  148.6203 C   0  0  0  0  0  0  0  0  0  0  0  0
  -30.2780   -1.9417  148.6659 F   0  0  0  0  0  0  0  0  0  0  0  0
  -37.5217   -0.0248  146.7996 C   0  0  0  0  0  0  0  0  0  0  0  0
  -34.1410   -0.9582  147.9388 C   0  0  0  0  0  0  0  0  0  0  0  0
  -34.8898   -2.6847  147.2032 C   0  0  0  0  0  0  0  0  0  0  0  0
  -32.3930   -1.2394  147.7672 C   0  0  0  0  0  0  0  0  0  0  0  0
  -39.0268    0.4776  143.9041 C   0  0  0  0  0  0  0  0  0  0  0  0
  -38.0100    2.8086  137.9749 C   0  0  0  0  0  0  0  0  0  0  0  0
  -35.4177    2.0055  147.3755 C   0  0  0  0  0  0  0  0  0  0  0  0
  -38.5301    2.4182  139.3687 C   0  0  0  0  0  0  0  0  0  0  0  0
  -34.5642   -2.8058  145.5388 C   0  0  0  0  0  0  0  0  0  0  0  0
  -38.1305    1.1712  145.2923 C   0  0  0  0  0  0  0  0  0  0  0  0
  -37.4291    2.3486  144.2254 C   0  0  0  0  0  0  0  0  0  0  0  0
  -38.1586    1.6800  142.7263 C   0  0  0  0  0  0  0  0  0  0  0  0
  -34.9071    0.3062  147.1482 C   0  0  0  0  0  0  0  0  0  0  0  0
  -37.8349    1.5940  140.8187 C   0  0  0  0  0  0  0  0  0  0  0  0
  -37.5083    4.0561  144.6813 C   0  0  0  0  0  0  0  0  0  0  0  0
  -35.7281   -2.3826  144.5475 C   0  0  0  0  0  0  0  0  0  0  0  0
  3  1  1  0
  4  3  1  0
  5  2  1  0
  6  4  1  0
  7  6  1  0
  8  6  2  0
  9  5  1  0
 10  9  1  0
 11  8  1  0
 12  1  1  0
 12  2  1  0
 13  2  1  0
 13  5  1  0
 14  7  1  0
 15 14  1  0
 16 11  1  0
 17 15  1  0
 18 10  1  0
 19 14  1  0
 19 15  1  0
 20 18  1  0
 21  3  1  0
 21 16  1  0
 21 20  1  0
 22 17  1  0
 23 17  1  0
 24  9  1  0
 24 10  1  0
 26 22  1  0
 27 26  1  0
 28 26  1  0
 29 25  1  0
 31 30  1  0
 32 26  1  0
 32 30  1  0
 36 34  2  0
 37 31  1  0
 38 29  1  0
 38 33  1  0
 39 38  1  0
 40 33  1  0
 40 39  1  0
 41 25  1  0
 41 30  1  0
 41 35  1  0
 42 36  1  0
 42 40  1  0
 43 39  1  0
 44 37  1  0
M  END
$$$$

     RDKit          3D

 11 12  0  0  0  0  0  0  0  0999 V2000
  -21.9072   -9.9518  152.6304 O   0  0  0  0  0  0  0  0  0  0  0  0
  -21.7857  -12.3408  152.6396 C   0  0  0  0  0  0  0  0  0  0  0  0
  -22.6500  -11.1097  152.3510 C   0  0  0  0  0  0  0  0  0  0  0  0
  -24.0126  -11.0589  153.0918 C   0  0  0  0  0  0  0  0  0  0  0  0
  -23.9173  -10.8236  154.5969 C   0  0  0  0  0  0  0  0  0  0  0  0
  -24.4087  -12.1662  154.0716 C   0  0  0  0  0  0  0  0  0  0  0  0
  -25.9265  -12.3685  154.1950 C   0  0  0  0  0  0  0  0  0  0  0  0
  -26.3428  -13.7241  154.7568 C   0  0  0  0  0  0  0  0  0  0  0  0
  -26.5773  -13.4117  153.2836 C   0  0  0  0  0  0  0  0  0  0  0  0
  -25.7016  -14.2152  152.3129 C   0  0  0  0  0  0  0  0  0  0  0  0
  -25.4937  -13.3027  150.7992 Cl  0  0  0  0  0  0  0  0  0  0  0  0
  3  1  1  0
  3  2  1  0
  4  3  1  0
  5  4  1  0
  6  4  1  0
  6  5  1  0
  7  6  1  0
  8  7  1  0
  9  7  1  0
  9  8  1  0
 10  9  1  0
 11 10  1  0
M  END
$$$$

     RDKit          3D

 45 47  0  0  0  0  0  0  0  0999 V2000
  -20.2465   -2.8167  137.9592 N   0  0  0  0  0  0  0  0  0  0  0  0
  -19.8478   -4.0217  138.7041 C   0  0  0  0  0  0  0  0  0  0  0  0
  -22.5031   -7.4385  139.6405 N   0  0  0  0  0  0  0  0  0  0  0  0
  -22.7761   -5.0399  140.4320 C   0  0  0  0  0  0  0  0  0  0  0  0
  -19.0905   -3.5264  140.0041 N   0  0  0  0  0  0  0  0  0  0  0  0
  -22.2245   -5.5990  141.8325 C   0  0  0  0  0  0  0  0  0  0  0  0
  -24.8917   -4.1657  141.0897 C   0  0  0  0  0  0  0  0  0  0  0  0
  -21.7755   -5.5887  138.7689 Sb  0  0  0  0  0  3  0  0  0  0  0  0
  -20.8136   -6.1923  141.8728 N   0  0  0  0  0  0  0  0  0  0  0  0
  -18.7049   -4.4481  141.1487 C   0  0  0  0  0  0  0  0  0  0  0  0
  -25.5902   -4.5751  142.4780 C   0  0  0  0  0  0  0  0  0  0  0  0
  -19.7654   -7.4256  141.9000 C   0  0  0  0  0  0  0  0  0  0  0  0
  -22.3799   -4.2887  142.7837 C   0  0  0  0  0  0  0  0  0  0  0  0
  -25.1196   -5.9212  143.0686 C   0  0  0  0  0  0  0  0  0  0  0  0
  -17.9547   -0.4222  138.3862 C   0  0  0  0  0  0  0  0  0  0  0  0
  -25.7724   -3.3232  143.4257 C   0  0  0  0  0  0  0  0  0  0  0  0
  -17.2644   -6.7111  142.8560 C   0  0  0  0  0  0  0  0  0  0  0  0
  -18.6137   -7.8885  140.8553 C   0  0  0  0  0  0  0  0  0  0  0  0
  -18.4657   -6.8440  138.4217 C   0  0  0  0  0  0  0  0  0  0  0  0
  -18.7579   -7.2535  143.0213 C   0  0  0  0  0  0  0  0  0  0  0  0
  -18.4036   -3.6852  142.7508 C   0  0  0  0  0  0  0  0  0  0  0  0
  -26.2291   -6.6204  143.8728 C   0  0  0  0  0  0  0  0  0  0  0  0
  -25.6648   -7.8833  144.5291 C   0  0  0  0  0  0  0  0  0  0  0  0
  -24.2145   -5.1952  140.3778 O   0  0  0  0  0  0  0  0  0  0  0  0
  -26.3435   -4.5425  141.1957 C   0  0  0  0  0  0  0  0  0  0  0  0
  -18.0545   -3.9750  144.4403 C   0  0  0  0  0  0  0  0  0  0  0  0
  -19.1037   -4.3353  145.6709 C   0  0  0  0  0  0  0  0  0  0  0  0
  -18.7942   -4.3376  147.1952 C   0  0  0  0  0  0  0  0  0  0  0  0
  -19.5890   -5.7035  145.4728 C   0  0  0  0  0  0  0  0  0  0  0  0
  -19.6185   -2.7389  142.9358 C   0  0  0  0  0  0  0  0  0  0  0  0
  -18.0491   -6.1929  140.1061 Si  0  0  0  0  0  4  0  0  0  0  0  0
  -18.0499   -0.2858  136.0855 C   0  0  0  0  0  0  0  0  0  0  0  0
  -20.0272    0.7597  137.4476 C   0  0  0  0  0  0  0  0  0  0  0  0
  -18.5212   -1.1963  139.6425 C   0  0  0  0  0  0  0  0  0  0  0  0
  -19.8886    2.0258  138.5389 C   0  0  0  0  0  0  0  0  0  0  0  0
  -19.3383   -0.6259  140.7816 C   0  0  0  0  0  0  0  0  0  0  0  0
  -22.8863    3.2196  140.8910 N   0  0  0  0  0  0  0  0  0  0  0  0
  -18.2836    2.0191  141.1158 C   0  0  0  0  0  0  0  0  0  0  0  0
  -21.4935    2.9825  140.5148 C   0  0  0  0  0  0  0  0  0  0  0  0
  -19.6576   -1.8682  136.8986 C   0  0  0  0  0  0  0  0  0  0  0  0
  -18.9630   -0.4407  137.2420 C   0  0  0  0  0  0  0  0  0  0  0  0
  -21.3519    2.4061  139.0567 C   0  0  0  0  0  0  0  0  0  0  0  0
  -18.7251    2.5352  139.6111 C   0  0  0  0  0  0  0  0  0  0  0  0
  -17.9888   -2.6766  139.7145 C   0  0  0  0  0  0  0  0  0  0  0  0
  -22.2865    1.3153  138.9696 O   0  0  0  0  0  0  0  0  0  0  0  0
  2  1  1  0
  5  2  1  0
  6  4  1  0
  8  2  1  0
  8  3  1  0
  8  4  1  0
  9  6  1  0
 10  5  1  0
 11  7  1  0
 12  9  1  0
 13  6  1  0
 14 11  1  0
 16 11  1  0
 18 12  1  0
 20 12  1  0
 20 17  1  0
 21 10  1  0
 22 14  1  0
 23 22  1  0
 24  4  1  0
 24  7  1  0
 25  7  1  0
 25 11  1  0
 26 21  1  0
 27 26  1  0
 28 27  1  0
 29 27  1  0
 30 21  1  0
 31 10  1  0
 31 18  1  0
 31 19  1  0
 34 15  1  0
 35 33  1  0
 36 34  1  0
 39 37  1  0
 40  1  1  0
 41 15  1  0
 41 32  1  0
 41 33  1  0
 41 40  1  0
 42 35  1  0
 42 39  1  0
 43 35  1  0
 43 38  1  0
 44  5  1  0
 44 34  1  0
 45 42  1  0
M  END
$$$$

     RDKit          3D

 44 50  0  0  0  0  0  0  0  0999 V2000
  -21.5418    0.0976  143.3113 C   0  0  0  0  0  0  0  0  0  0  0  0
  -21.3912   -1.3280  140.8888 C   0  0  0  0  0  0  0  0  0  0  0  0
  -22.4001   -2.8597  140.4997 C   0  0  0  0  0  0  0  0  0  0  0  0
  -22.0171    2.2298  143.9181 C   0  0  0  0  0  0  0  0  0  0  0  0
  -25.9583   -1.1255  141.0101 C   0  0  0  0  0  0  0  0  0  0  0  0
  -18.6872    2.2004  140.0140 C   0  0  0  0  0  0  0  0  0  0  0  0
  -20.5830    0.5539  141.0989 C   0  0  0  0  0  0  0  0  0  0  0  0
  -19.1595   -0.4850  140.1160 C   0  0  0  0  0  0  0  0  0  0  0  0
  -23.9298    0.4036  143.1545 Cl  0  0  0  0  0  0  0  0  0  0  0  0
  -25.7835   -2.3042  145.7610 C   0  0  0  0  0  0  0  0  0  0  0  0
  -24.2640   -1.9774  140.6724 O   0  0  0  0  0  0  0  0  0  0  0  0
  -20.4638   -4.6147  139.9734 C   0  0  0  0  0  0  0  0  0  0  0  0
  -23.9180    3.5719  144.0069 C   0  0  0  0  0  0  0  0  0  0  0  0
  -26.9298   -2.4562  146.8838 C   0  0  0  0  0  0  0  0  0  0  0  0
  -25.5644   -0.9057  144.4684 C   0  0  0  0  0  0  0  0  0  0  0  0
  -19.8517    0.7408  144.2975 C   0  0  0  0  0  0  0  0  0  0  0  0
  -22.8496    3.7506  145.1803 C   0  0  0  0  0  0  0  0  0  0  0  0
  -23.6436    5.4274  146.2241 C   0  0  0  0  0  0  0  0  0  0  0  0
  -22.8750    6.7681  147.7526 Se  0  0  0  0  0  2  0  0  0  0  0  0
  -28.2500   -0.3128  144.7967 C   0  0  0  0  0  0  0  0  0  0  0  0
  -29.6859    0.1442  144.5997 C   0  0  0  0  0  0  0  0  0  0  0  0
  -23.9246    7.0486  145.8926 C   0  0  0  0  0  0  0  0  0  0  0  0
  -27.7018   -1.2611  142.5329 C   0  0  0  0  0  0  0  0  0  0  0  0
  -18.8190   -5.1524  141.3339 C   0  0  0  0  0  0  0  0  0  0  0  0
  -18.4161    1.8405  142.4561 C   0  0  0  0  0  0  0  0  0  0  0  0
  -31.1106   -0.5289  144.5442 C   0  0  0  0  0  0  0  0  0  0  0  0
  -32.3423    0.6087  145.5831 C   0  0  0  0  0  0  0  0  0  0  0  0
  -22.0274   -2.0271  146.3724 C   0  0  0  0  0  0  0  0  0  0  0  0
  -29.6460   -0.4596  143.2447 C   0  0  0  0  0  0  0  0  0  0  0  0
  -22.4990   -0.4696  145.4004 C   0  0  0  0  0  0  0  0  0  0  0  0
  -20.2554   -4.7880  141.2926 C   0  0  0  0  0  0  0  0  0  0  0  0
  -27.0600   -4.4560  146.9841 C   0  0  0  0  0  0  0  0  0  0  0  0
  -27.9211   -5.2644  149.4696 C   0  0  0  0  0  0  0  0  0  0  0  0
  -29.1351   -4.0555  151.0783 C   0  0  0  0  0  0  0  0  0  0  0  0
  -29.7010   -5.1842  149.8024 C   0  0  0  0  0  0  0  0  0  0  0  0
  -26.2691   -4.6248  148.5432 C   0  0  0  0  0  0  0  0  0  0  0  0
  -33.6616    1.4195  149.0653 C   0  0  0  0  0  0  0  0  0  0  0  0
  -28.2477   -1.1823  146.6954 C   0  0  0  0  0  0  0  0  0  0  0  0
  -32.8516    1.5928  147.2999 C   0  0  0  0  0  0  0  0  0  0  0  0
  -25.8155   -5.3994  147.2549 C   0  0  0  0  0  0  0  0  0  0  0  0
  -31.9346   -5.6557  149.2971 C   0  0  0  0  0  0  0  0  0  0  0  0
  -26.3107   -7.0321  146.2395 C   0  0  0  0  0  0  0  0  0  0  0  0
  -27.4814   -7.6732  146.3264 O   0  0  0  0  0  0  0  0  0  0  0  0
  -31.7447    3.2005  146.0119 C   0  0  0  0  0  0  0  0  0  0  0  0
  2  1  1  0
  3  2  1  0
  4  1  1  0
  8  2  1  0
  8  6  1  0
  8  7  1  0
 11  3  1  0
 11  5  1  0
 12  3  1  0
 13  4  1  0
 14 10  1  0
 15  9  1  0
 15 10  1  0
 16  1  1  0
 16  4  1  0
 17  4  1  0
 17 13  1  0
 18 17  1  0
 19 18  1  0
 21 20  1  0
 22 18  1  0
 22 19  1  0
 23  5  1  0
 23 20  1  0
 24 12  1  0
 25  6  1  0
 25 16  1  0
 26 21  1  0
 27 26  1  0
 29 21  1  0
 29 23  1  0
 29 26  1  0
 30  1  1  0
 30 28  1  0
 31 24  2  0
 32 14  1  0
 35 33  1  0
 35 34  1  0
 36 32  1  0
 36 33  1  0
 38 14  1  0
 38 20  1  0
 39 27  1  0
 39 37  1  0
 40 32  1  0
 40 36  1  0
 41 35  1  0
 42 40  1  0
 43 42  2  0
 44 39  1  0
M  END
$$$$

     RDKit          3D

 45 57  0  0  0  0  0  0  0  0999 V2000
  -25.3910   -4.2846  135.0927 C   0  0  0  0  0  0  0  0  0  0  0  0
  -26.5319   -4.2678  134.4318 C   0  0  0  0  0  0  0  0  0  0  0  0
  -26.2189   -5.6458  135.3696 C   0  0  0  0  0  0  0  0  0  0  0  0
  -26.7308   -4.6142  136.1653 C   0  0  0  0  0  0  0  0  0  0  0  0
  -26.0013   -6.7614  136.3744 C   0  0  0  0  0  0  0  0  0  0  0  0
  -25.6295   -5.4817  137.2599 C   0  0  0  0  0  0  0  0  0  0  0  0
  -24.0146   -4.3493  134.8758 C   0  0  0  0  0  0  0  0  0  0  0  0
  -24.0006   -5.1037  133.5777 C   0  0  0  0  0  0  0  0  0  0  0  0
  -22.7685   -6.9495  133.0263 O   0  0  0  0  0  0  0  0  0  0  0  0
  -23.0005   -6.1627  134.2133 C   0  0  0  0  0  0  0  0  0  0  0  0
  -24.5652   -3.9336  132.6312 C   0  0  0  0  0  0  0  0  0  0  0  0
  -23.9477   -5.6009  137.5097 C   0  0  0  0  0  0  0  0  0  0  0  0
  -23.2692   -7.4833  135.1590 C   0  0  0  0  0  0  0  0  0  0  0  0
  -23.7850   -6.1720  132.4688 C   0  0  0  0  0  0  0  0  0  0  0  0
  -27.0849   -6.9452  135.1389 C   0  0  0  0  0  0  0  0  0  0  0  0
  -23.9367   -5.8845  140.4661 C   0  0  0  0  0  0  0  0  0  0  0  0
  -24.6399   -4.5947  139.9442 C   0  0  0  0  0  0  0  0  0  0  0  0
  -24.5246   -2.0787  139.3964 C   0  0  0  0  0  0  0  0  0  0  0  0
  -23.3975   -1.9310  141.5920 C   0  0  0  0  0  0  0  0  0  0  0  0
  -23.1371   -5.6819  141.8647 C   0  0  0  0  0  0  0  0  0  0  0  0
  -22.2858   -5.2933  137.0989 C   0  0  0  0  0  0  0  0  0  0  0  0
  -22.7258   -2.8957  140.6105 C   0  0  0  0  0  0  0  0  0  0  0  0
  -24.5689   -1.3449  140.7248 C   0  0  0  0  0  0  0  0  0  0  0  0
  -25.9687   -1.4583  141.4657 C   0  0  0  0  0  0  0  0  0  0  0  0
  -24.8718   -5.3204  138.6349 C   0  0  0  0  0  0  0  0  0  0  0  0
  -26.0775   -3.6901  132.9963 C   0  0  0  0  0  0  0  0  0  0  0  0
  -23.7621   -3.2576  139.4364 C   0  0  0  0  0  0  0  0  0  0  0  0
  -27.5345   -1.1291  141.1892 C   0  0  0  0  0  0  0  0  0  0  0  0
  -23.4600   -5.9996  138.9395 C   0  0  0  0  0  0  0  0  0  0  0  0
  -26.1439   -3.0095  134.3622 C   0  0  0  0  0  0  0  0  0  0  0  0
  -23.2163   -8.1253  136.6367 C   0  0  0  0  0  0  0  0  0  0  0  0
  -27.9202   -0.0441  142.3401 C   0  0  0  0  0  0  0  0  0  0  0  0
  -26.8173   -0.3204  138.5253 C   0  0  0  0  0  0  0  0  0  0  0  0
  -25.6982  -10.1881  133.3341 C   0  0  0  0  0  0  0  0  0  0  0  0
  -28.3365   -2.6202  141.4370 C   0  0  0  0  0  0  0  0  0  0  0  0
  -29.2861   -2.9273  140.2461 C   0  0  0  0  0  0  0  0  0  0  0  0
  -29.2060    0.9330  142.2871 C   0  0  0  0  0  0  0  0  0  0  0  0
  -29.9292   -2.7506  141.6055 C   0  0  0  0  0  0  0  0  0  0  0  0
  -26.4883   -7.6849  133.8289 C   0  0  0  0  0  0  0  0  0  0  0  0
  -27.7143   -0.2121  139.8063 C   0  0  0  0  0  0  0  0  0  0  0  0
  -26.5664   -8.9252  132.8988 C   0  0  0  0  0  0  0  0  0  0  0  0
  -27.9920   -7.2802  133.9083 C   0  0  0  0  0  0  0  0  0  0  0  0
  -27.4408   -0.0511  137.0909 C   0  0  0  0  0  0  0  0  0  0  0  0
  -30.5054   -1.7836  142.6653 C   0  0  0  0  0  0  0  0  0  0  0  0
  -27.8786   -3.6141  142.5790 C   0  0  0  0  0  0  0  0  0  0  0  0
  2  1  1  0
  3  1  1  0
  4  2  1  0
  4  3  1  0
  5  3  1  0
  6  4  1  0
  6  5  1  0
  7  1  1  0
  8  7  1  0
 10  8  1  0
 10  9  1  0
 11  8  1  0
 12  6  1  0
 13 10  1  0
 14  8  1  0
 14  9  1  0
 15  3  1  0
 15  5  1  0
 17 16  1  0
 20 16  1  0
 21 12  1  0
 22 19  1  0
 23 18  1  0
 23 19  1  0
 24 23  1  0
 25  6  1  0
 25 12  1  0
 25 17  1  0
 26  2  1  0
 26 11  1  0
 27 17  1  0
 27 18  1  0
 27 22  1  0
 28 24  1  0
 29 12  1  0
 29 16  1  0
 29 25  1  0
 30  1  1  0
 30  2  1  0
 30 26  1  0
 31 13  1  0
 32 28  1  0
 35 28  1  0
 36 35  1  0
 37 32  1  0
 38 35  1  0
 38 36  1  0
 39 15  1  0
 40 28  1  0
 40 33  1  0
 41 34  1  0
 41 39  1  0
 42 15  1  0
 42 39  1  0
 43 33  1  0
 44 38  1  0
 45 35  1  0
M  END
$$$$

     RDKit          3D

 45 49  0  0  0  0  0  0  0  0999 V2000
  -25.2861  -10.8724  139.1662 N   0  0  0  0  0  0  0  0  0  0  0  0
  -25.6294   -9.8380  140.1778 C   0  0  0  0  0  0  0  0  0  0  0  0
  -29.6609   -9.5956  140.5954 N   0  0  0  0  0  0  0  0  0  0  0  0
  -28.5512   -8.4584  146.1265 C   0  0  0  0  0  0  0  0  0  0  0  0
  -28.3274  -15.8636  144.8446 N   0  0  0  0  0  0  0  0  0  0  0  0
  -26.2258  -11.5477  138.1500 C   0  0  0  0  0  0  0  0  0  0  0  0
  -25.2137  -11.1441  140.6684 C   0  0  0  0  0  0  0  0  0  0  0  0
  -30.4780  -10.6741  140.9723 N   0  0  0  0  0  0  0  0  0  0  0  0
  -28.6616  -14.6656  144.0505 C   0  0  0  0  0  0  0  0  0  0  0  0
  -30.1834  -14.4190  143.7604 C   0  0  0  0  0  0  0  0  0  0  0  0
  -30.0391  -13.0194  144.4805 C   0  0  0  0  0  0  0  0  0  0  0  0
  -30.7622  -14.1302  142.3114 C   0  0  0  0  0  0  0  0  0  0  0  0
  -26.3919  -13.1487  138.3717 C   0  0  0  0  0  0  0  0  0  0  0  0
  -27.4030  -10.6942  137.1920 C   0  0  0  0  0  0  0  0  0  0  0  0
  -28.6003  -13.3957  144.9027 C   0  0  0  0  0  0  0  0  0  0  0  0
  -27.4082  -11.1712  135.6128 C   0  0  0  0  0  0  0  0  0  0  0  0
  -31.3101   -7.8404  136.6172 S   0  0  0  0  0  0  0  0  0  0  0  0
  -28.7247  -10.9067  134.7718 C   0  0  0  0  0  0  0  0  0  0  0  0
  -28.4503   -8.6410  133.4442 C   0  0  0  0  0  0  0  0  0  0  0  0
  -29.5980   -7.5335  133.5866 C   0  0  0  0  0  0  0  0  0  0  0  0
  -29.2188   -6.1201  134.2130 C   0  0  0  0  0  0  0  0  0  0  0  0
  -28.8307  -10.1617  133.3850 C   0  0  0  0  0  0  0  0  0  0  0  0
  -27.5207   -5.7517  138.2644 C   0  0  0  0  0  0  0  0  0  0  0  0
  -28.5241   -6.7145  137.5872 C   0  0  0  0  0  0  0  0  0  0  0  0
  -27.1851   -8.2462  133.3658 C   0  0  0  0  0  0  0  0  0  0  0  0
  -30.1733   -8.7123  137.7973 C   0  0  0  0  0  0  0  0  0  0  0  0
  -28.6141   -8.2618  137.7774 C   0  0  0  0  0  0  0  0  0  0  0  0
  -29.6713  -14.9234  140.1242 C   0  0  0  0  0  0  0  0  0  0  0  0
  -27.5592  -13.6074  139.3556 C   0  0  0  0  0  0  0  0  0  0  0  0
  -31.1346  -15.4087  144.5505 C   0  0  0  0  0  0  0  0  0  0  0  0
  -29.7811  -13.7937  141.1728 C   0  0  0  0  0  0  0  0  0  0  0  0
  -27.5768  -16.2030  139.5900 C   0  0  0  0  0  0  0  0  0  0  0  0
  -28.3688  -14.9429  139.1810 C   0  0  0  0  0  0  0  0  0  0  0  0
  -27.6668   -6.7927  142.0351 C   0  0  0  0  0  0  0  0  0  0  0  0
  -25.8051   -9.2365  142.9213 C   0  0  0  0  0  0  0  0  0  0  0  0
  -28.5789   -9.4259  141.5536 C   0  0  0  0  0  0  0  0  0  0  0  0
  -27.9069   -8.0320  141.1837 C   0  0  0  0  0  0  0  0  0  0  0  0
  -28.1707   -8.1470  144.6564 C   0  0  0  0  0  0  0  0  0  0  0  0
  -28.9563   -6.4998  142.7215 C   0  0  0  0  0  0  0  0  0  0  0  0
  -28.4955   -6.5972  144.2389 C   0  0  0  0  0  0  0  0  0  0  0  0
  -26.1361  -10.2751  141.6234 C   0  0  0  0  0  0  0  0  0  0  0  0
  -30.9721   -9.6473  136.9704 C   0  0  0  0  0  0  0  0  0  0  0  0
  -27.6002  -10.6801  141.5208 C   0  0  0  0  0  0  0  0  0  0  0  0
  -27.4338   -9.0659  137.1367 C   0  0  0  0  0  0  0  0  0  0  0  0
  -26.8736   -9.0958  144.1805 C   0  0  0  0  0  0  0  0  0  0  0  0
  2  1  1  0
  6  1  1  0
  7  1  1  0
  7  2  1  0
  8  3  1  0
  9  5  1  0
 10  9  1  0
 11 10  1  0
 12 10  1  0
 13  6  1  0
 14  6  1  0
 15  9  1  0
 15 11  1  0
 16 14  1  0
 18 16  1  0
 20 19  1  0
 21 20  1  0
 22 18  1  0
 22 19  1  0
 24 23  1  0
 25 19  2  0
 26 17  1  0
 27 24  1  0
 27 26  1  0
 29 13  1  0
 30 10  1  0
 31 12  1  0
 31 28  1  0
 33 28  1  0
 33 29  1  0
 33 32  1  0
 36  3  1  0
 37 34  1  0
 37 36  1  0
 38  4  1  0
 39 34  1  0
 40 38  1  0
 40 39  1  0
 41  2  1  0
 41  7  1  0
 41 35  1  0
 42 17  1  0
 42 26  1  0
 43 36  1  0
 43 41  1  0
 44 14  1  0
 44 27  1  0
 45 35  1  0
 45 38  1  0
M  END
$$$$

     RDKit          3D

 45 52  0  0  0  0  0  0  0  0999 V2000
  -25.6563  -19.2842  146.6188 C   0  0  0  0  0  0  0  0  0  0  0  0
  -25.9685  -18.5753  143.7891 C   0  0  0  0  0  0  0  0  0  0  0  0
  -25.3983  -19.8782  145.2133 C   0  0  0  0  0  0  0  0  0  0  0  0
  -24.4193  -20.4248  143.7400 C   0  0  0  0  0  0  0  0  0  0  0  0
  -26.8717  -21.4899  145.7394 C   0  0  0  0  0  0  0  0  0  0  0  0
  -25.7841  -18.3196  140.7615 C   0  0  0  0  0  0  0  0  0  0  0  0
  -21.3426  -20.0263  146.7243 C   0  0  0  0  0  0  0  0  0  0  0  0
  -20.2375  -16.5891  148.0190 C   0  0  0  0  0  0  0  0  0  0  0  0
  -23.7072  -16.4752  140.8518 C   0  0  0  0  0  0  0  0  0  0  0  0
  -24.8983  -19.7742  141.7978 C   0  0  0  0  0  0  0  0  0  0  0  0
  -26.0942  -21.0006  140.5502 C   0  0  0  0  0  0  0  0  0  0  0  0
  -21.0839  -16.9451  142.8625 C   0  0  0  0  0  0  0  0  0  0  0  0
  -19.4516  -16.0277  140.9789 C   0  0  0  0  0  0  0  0  0  0  0  0
  -25.6152  -18.4228  141.1110 C   0  0  0  0  0  0  0  0  0  0  0  0
  -19.4287  -13.6738  138.1226 C   0  0  0  0  0  0  0  0  0  0  0  0
  -24.4314  -14.9109  139.1850 C   0  0  0  0  0  0  0  0  0  0  0  0
  -25.0875  -16.4225  141.6564 C   0  0  0  0  0  0  0  0  0  0  0  0
  -24.7539  -15.0818  140.4730 C   0  0  0  0  0  0  0  0  0  0  0  0
  -18.3524  -14.0785  142.2036 C   0  0  0  0  0  0  0  0  0  0  0  0
  -23.5809  -19.3485  145.9514 C   0  0  0  0  0  0  0  0  0  0  0  0
  -25.4643  -17.1656  142.8915 C   0  0  0  0  0  0  0  0  0  0  0  0
  -24.7886  -19.2510  147.9964 C   0  0  0  0  0  0  0  0  0  0  0  0
  -27.1687  -18.5345  144.3593 C   0  0  0  0  0  0  0  0  0  0  0  0
  -31.8211  -17.2654  141.4408 C   0  0  0  0  0  0  0  0  0  0  0  0
  -24.4552  -16.3476  139.7124 C   0  0  0  0  0  0  0  0  0  0  0  0
  -21.9459  -15.8038  146.2241 C   0  0  0  0  0  0  0  0  0  0  0  0
  -18.6058  -13.6077  144.9405 C   0  0  0  0  0  0  0  0  0  0  0  0
  -32.7788  -14.9507  139.5041 C   0  0  0  0  0  0  0  0  0  0  0  0
  -23.2154  -19.4534  140.3654 S   0  0  0  0  0  0  0  0  0  0  0  0
  -23.3160  -17.6068  150.3688 C   0  0  0  0  0  0  0  0  0  0  0  0
  -23.0698  -19.3527  151.2708 C   0  0  0  0  0  0  0  0  0  0  0  0
  -18.3082  -13.2774  146.7651 C   0  0  0  0  0  0  0  0  0  0  0  0
  -28.2610  -17.7393  146.0385 C   0  0  0  0  0  0  0  0  0  0  0  0
  -29.2087  -21.8012  147.6034 C   0  0  0  0  0  0  0  0  0  0  0  0
  -23.2299  -15.9263  145.4340 C   0  0  0  0  0  0  0  0  0  0  0  0
  -31.7840  -16.0519  137.4234 C   0  0  0  0  0  0  0  0  0  0  0  0
  -19.1464  -12.0504  147.9553 C   0  0  0  0  0  0  0  0  0  0  0  0
  -24.0822  -22.4570  144.8863 C   0  0  0  0  0  0  0  0  0  0  0  0
  -28.0680  -19.9140  147.5643 C   0  0  0  0  0  0  0  0  0  0  0  0
  -22.3741  -13.4444  143.5442 C   0  0  0  0  0  0  0  0  0  0  0  0
  -17.8372  -22.0234  144.6715 C   0  0  0  0  0  0  0  0  0  0  0  0
  -21.5263  -19.3142  148.5850 C   0  0  0  0  0  0  0  0  0  0  0  0
  -26.5874  -16.2525  146.2593 C   0  0  0  0  0  0  0  0  0  0  0  0
  -22.2425  -12.8999  146.9621 C   0  0  0  0  0  0  0  0  0  0  0  0
  -31.1720  -15.1809  136.1623 C   0  0  0  0  0  0  0  0  0  0  0  0
  2  1  1  0
  3  2  1  0
  4  3  1  0
  6  2  1  0
  8  7  1  0
 10  6  1  0
 11 10  1  0
 13 12  1  0
 14 10  1  0
 14 11  1  0
 15 13  1  0
 17  9  1  0
 17 14  1  0
 18  9  1  0
 18 16  1  0
 19 15  1  0
 20  1  1  0
 21  2  1  0
 21 14  1  0
 21 17  1  0
 22 20  1  0
 23  3  1  0
 23  4  1  0
 24 23  1  0
 25 16  1  0
 25 17  1  0
 26  8  1  0
 26 12  1  0
 27 19  1  0
 28 24  1  0
 29  4  1  0
 29  9  1  0
 30 22  1  0
 31 30  1  0
 32 27  1  0
 35 20  1  0
 35 26  1  0
 36 28  1  0
 37 32  1  0
 38  5  1  0
 38  7  1  0
 39  5  1  0
 39 33  1  0
 39 34  2  0
 40 35  1  0
 41  7  1  0
 42  8  1  0
 42 31  1  0
 43 23  1  0
 43 33  1  0
 44 40  1  0
 45 36  2  0
M  END
$$$$

     RDKit          3D

 44 48  0  0  0  0  0  0  0  0999 V2000
  -21.9723    3.8712  143.9021 O   0  0  0  0  0  0  0  0  0  0  0  0
  -20.0679    5.1450  143.4281 C   0  0  0  0  0  0  0  0  0  0  0  0
  -19.2112    5.9311  143.8476 O   0  0  0  0  0  0  0  0  0  0  0  0
  -20.9862    3.8729  141.5682 C   0  0  0  0  0  0  0  0  0  0  0  0
  -22.3682    3.5340  140.9769 C   0  0  0  0  0  0  0  0  0  0  0  0
  -21.5678    3.8119  138.4456 C   0  0  0  0  0  0  0  0  0  0  0  0
  -21.8329    4.5303  137.1325 C   0  0  0  0  0  0  0  0  0  0  0  0
  -20.8460    5.1508  136.4647 C   0  0  0  0  0  0  0  0  0  0  0  0
  -20.4485    6.5801  136.7405 C   0  0  0  0  0  0  0  0  0  0  0  0
  -22.6615    4.0540  139.5161 C   0  0  0  0  0  0  0  0  0  0  0  0
  -20.9925    4.3201  143.0054 C   0  0  0  0  0  0  0  0  0  0  0  0
  -19.0762    6.8944  136.1420 C   0  0  0  0  0  0  0  0  0  0  0  0
  -19.0233    7.9164  134.9881 C   0  0  0  0  0  0  0  0  0  0  0  0
  -19.6075    9.2821  135.2687 C   0  0  0  0  0  0  0  0  0  0  0  0
  -19.4056   10.3454  134.4621 C   0  0  0  0  0  0  0  0  0  0  0  0
  -24.1434    3.7466  139.0306 C   0  0  0  0  0  0  0  0  0  0  0  0
  -21.3920    2.4082  141.3794 C   0  0  0  0  0  0  0  0  0  0  0  0
  -20.6064    1.6663  140.3252 C   0  0  0  0  0  0  0  0  0  0  0  0
  -24.3875    2.7436  137.8638 C   0  0  0  0  0  0  0  0  0  0  0  0
  -18.3464   10.3355  133.3685 C   0  0  0  0  0  0  0  0  0  0  0  0
  -25.1131    3.3343  140.1647 C   0  0  0  0  0  0  0  0  0  0  0  0
  -18.2085   11.2186  131.4025 C   0  0  0  0  0  0  0  0  0  0  0  0
  -19.1190   12.0810  130.4791 C   0  0  0  0  0  0  0  0  0  0  0  0
  -19.8904    6.9453  138.1218 C   0  0  0  0  0  0  0  0  0  0  0  0
  -20.4675   12.5473  131.0790 C   0  0  0  0  0  0  0  0  0  0  0  0
  -24.9849    1.9706  140.8338 C   0  0  0  0  0  0  0  0  0  0  0  0
  -25.9260    4.4198  140.8895 C   0  0  0  0  0  0  0  0  0  0  0  0
  -18.5609    7.3429  137.4908 C   0  0  0  0  0  0  0  0  0  0  0  0
  -25.3955    1.6895  138.3445 C   0  0  0  0  0  0  0  0  0  0  0  0
  -18.8213    9.9195  131.9745 C   0  0  0  0  0  0  0  0  0  0  0  0
  -16.4281   12.0050  133.0767 C   0  0  0  0  0  0  0  0  0  0  0  0
  -25.9425    2.1571  139.6774 C   0  0  0  0  0  0  0  0  0  0  0  0
  -18.3055   13.2201  129.7860 C   0  0  0  0  0  0  0  0  0  0  0  0
  -21.0410    0.5011  139.8461 C   0  0  0  0  0  0  0  0  0  0  0  0
  -18.2327   14.5270  130.5926 C   0  0  0  0  0  0  0  0  0  0  0  0
  -16.9099   15.3247  130.4555 C   0  0  0  0  0  0  0  0  0  0  0  0
  -17.9210   11.7177  132.8344 C   0  0  0  0  0  0  0  0  0  0  0  0
  -15.9885   15.1629  131.6935 C   0  0  0  0  0  0  0  0  0  0  0  0
  -15.8821   17.6109  131.9357 O   0  0  0  0  0  0  0  0  0  0  0  0
  -14.6353   16.3307  133.5506 C   0  0  0  0  0  0  0  0  0  0  0  0
  -15.7623   16.4599  134.6193 C   0  0  0  0  0  0  0  0  0  0  0  0
  -15.1448   16.4226  132.0863 C   0  0  0  0  0  0  0  0  0  0  0  0
  -15.8010   17.8240  135.3168 C   0  0  0  0  0  0  0  0  0  0  0  0
  -14.7039   17.9710  136.3748 C   0  0  0  0  0  0  0  0  0  0  0  0
  3  2  2  0
  5  4  1  0
  7  6  1  0
  8  7  2  3
  9  8  1  0
 10  5  1  0
 10  6  1  0
 11  1  1  0
 11  2  2  0
 11  4  1  0
 12  9  1  0
 13 12  1  0
 14 13  1  0
 15 14  2  3
 16 10  1  0
 17  4  1  0
 17  5  1  0
 18 17  1  0
 19 16  1  0
 20 15  1  0
 21 16  1  0
 23 22  1  0
 24  9  1  0
 25 23  1  0
 26 21  1  0
 27 21  1  0
 28 12  1  0
 28 24  1  0
 29 19  1  0
 30 20  1  0
 30 22  1  0
 32 21  1  0
 32 26  1  0
 32 29  1  0
 33 23  1  0
 34 18  2  0
 35 33  1  0
 36 35  1  0
 37 20  1  0
 37 22  1  0
 37 31  1  0
 38 36  1  0
 41 40  1  0
 42 38  1  0
 42 39  1  0
 42 40  1  0
 43 41  1  0
 44 43  1  0
M  END
$$$$

     RDKit          3D

 44 55  0  0  0  0  0  0  0  0999 V2000
  -28.6328   -5.6891  150.4264 C   0  0  0  0  0  0  0  0  0  0  0  0
  -26.1503   -8.1967  149.8834 C   0  0  0  0  0  0  0  0  0  0  0  0
  -27.8248   -9.0610  151.2437 C   0  0  0  0  0  0  0  0  0  0  0  0
  -29.4352  -10.1118  151.8749 C   0  0  0  0  0  0  0  0  0  0  0  0
  -29.5419   -6.7344  149.2838 C   0  0  0  0  0  0  0  0  0  0  0  0
  -30.8575  -11.1827  152.6706 C   0  0  0  0  0  0  0  0  0  0  0  0
  -34.5465  -10.6593  148.1528 C   0  0  0  0  0  0  0  0  0  0  0  0
  -26.7155  -10.5456  152.2226 C   0  0  0  0  0  0  0  0  0  0  0  0
  -30.3009   -9.5037  153.1199 C   0  0  0  0  0  0  0  0  0  0  0  0
  -32.3087   -8.6029  147.9818 C   0  0  0  0  0  0  0  0  0  0  0  0
  -25.6588  -11.5032  151.1467 C   0  0  0  0  0  0  0  0  0  0  0  0
  -26.5498  -12.8827  151.6103 C   0  0  0  0  0  0  0  0  0  0  0  0
  -28.3373  -15.0102  151.1936 C   0  0  0  0  0  0  0  0  0  0  0  0
  -33.6572  -10.1484  146.8896 C   0  0  0  0  0  0  0  0  0  0  0  0
  -35.0745  -11.9577  147.0869 N   0  0  0  0  0  0  0  0  0  0  0  0
  -32.3599   -8.6670  146.3798 C   0  0  0  0  0  0  0  0  0  0  0  0
  -34.1533   -9.1913  147.9254 C   0  0  0  0  0  0  0  0  0  0  0  0
  -27.7501   -5.9572  147.8479 C   0  0  0  0  0  0  0  0  0  0  0  0
  -34.4731  -13.5156  152.5055 C   0  0  0  0  0  0  0  0  0  0  0  0
  -22.7354  -11.8630  150.0886 C   0  0  0  0  0  0  0  0  0  0  0  0
  -24.0875  -11.4753  150.9717 C   0  0  0  0  0  0  0  0  0  0  0  0
  -26.8998   -6.4388  149.5789 C   0  0  0  0  0  0  0  0  0  0  0  0
  -32.7220  -13.3264  150.3688 C   0  0  0  0  0  0  0  0  0  0  0  0
  -27.0451   -4.4732  147.6236 C   0  0  0  0  0  0  0  0  0  0  0  0
  -27.7441  -10.4837  151.3558 C   0  0  0  0  0  0  0  0  0  0  0  0
  -35.7547  -11.1930  152.6482 C   0  0  0  0  0  0  0  0  0  0  0  0
  -26.7579   -9.0635  152.3466 C   0  0  0  0  0  0  0  0  0  0  0  0
  -26.1177   -7.6254  151.0979 C   0  0  0  0  0  0  0  0  0  0  0  0
  -35.0549  -12.1314  151.7300 C   0  0  0  0  0  0  0  0  0  0  0  0
  -32.1876   -9.6524  151.0300 C   0  0  0  0  0  0  0  0  0  0  0  0
  -32.7700  -12.6554  152.8594 C   0  0  0  0  0  0  0  0  0  0  0  0
  -35.4187  -12.4086  153.3041 C   0  0  0  0  0  0  0  0  0  0  0  0
  -25.4828  -15.0395  151.3893 C   0  0  0  0  0  0  0  0  0  0  0  0
  -29.7449  -10.5133  147.9776 C   0  0  0  0  0  0  0  0  0  0  0  0
  -26.9456  -14.3751  151.7879 C   0  0  0  0  0  0  0  0  0  0  0  0
  -33.1428   -8.9844  152.3308 C   0  0  0  0  0  0  0  0  0  0  0  0
  -32.7661  -10.1163  149.7246 C   0  0  0  0  0  0  0  0  0  0  0  0
  -34.3817  -14.5943  150.7557 C   0  0  0  0  0  0  0  0  0  0  0  0
  -29.3245  -14.1578  149.7625 C   0  0  0  0  0  0  0  0  0  0  0  0
  -30.1560  -11.5064  146.6069 C   0  0  0  0  0  0  0  0  0  0  0  0
  -31.2821  -10.7482  148.6195 C   0  0  0  0  0  0  0  0  0  0  0  0
  -32.4907  -11.4549  150.7305 C   0  0  0  0  0  0  0  0  0  0  0  0
  -30.8912  -10.5850  147.1196 C   0  0  0  0  0  0  0  0  0  0  0  0
  -27.7185  -16.6280  150.6507 C   0  0  0  0  0  0  0  0  0  0  0  0
  3  2  1  0
  4  3  1  0
  5  1  1  0
  6  4  1  0
  9  4  1  0
  9  6  1  0
 10  5  1  0
 10  7  1  0
 11  8  1  0
 12 11  1  0
 15  7  1  0
 15 14  1  0
 16 10  1  0
 16 14  1  0
 17  7  1  0
 17 10  1  0
 17 14  1  0
 18  5  1  0
 21 11  1  0
 21 20  1  0
 22  1  1  0
 22  2  1  0
 22 18  1  0
 24 18  1  0
 25  3  1  0
 25  4  1  0
 25  8  1  0
 27  3  1  0
 27  8  1  0
 28  2  1  0
 28 22  1  0
 28 27  1  0
 29 26  1  0
 31  6  1  0
 31 19  1  0
 31 29  1  0
 32 19  1  0
 32 26  1  0
 35 12  1  0
 35 13  1  0
 35 33  1  0
 36 30  1  0
 37 30  1  0
 38 19  1  0
 38 23  1  0
 39 13  1  0
 40 34  1  0
 41 34  1  0
 41 37  1  0
 42 23  1  0
 42 30  1  0
 43 34  1  0
 43 40  1  0
 43 41  1  0
 44 13  1  0
M  END
$$$$

     RDKit          3D

 44 54  0  0  0  0  0  0  0  0999 V2000
  -24.6654   -9.8231  142.0800 C   0  0  0  0  0  0  0  0  0  0  0  0
  -24.7771  -11.4088  142.4125 C   0  0  0  0  0  0  0  0  0  0  0  0
  -28.3654  -10.6544  147.5928 C   0  0  0  0  0  0  0  0  0  0  0  0
  -27.2032   -9.5102  148.6052 C   0  0  0  0  0  0  0  0  0  0  0  0
  -27.1252  -10.3956  146.0655 C   0  0  0  0  0  0  0  0  0  0  0  0
  -24.6692  -12.3510  145.7060 N   0  0  0  0  0  0  0  0  0  0  0  0
  -27.6643  -13.7814  147.9362 C   0  0  0  0  0  0  0  0  0  0  0  0
  -22.9362  -12.0653  146.8009 C   0  0  0  0  0  0  0  0  0  0  0  0
  -27.3917   -8.5780  150.0562 C   0  0  0  0  0  0  0  0  0  0  0  0
  -26.5650  -13.3101  149.6015 C   0  0  0  0  0  0  0  0  0  0  0  0
  -26.3789   -9.4702  143.8453 Cl  0  0  0  0  0  0  0  0  0  0  0  0
  -28.7229  -13.3833  148.2973 C   0  0  0  0  0  0  0  0  0  0  0  0
  -21.5459  -11.1911  145.4733 C   0  0  0  0  0  0  0  0  0  0  0  0
  -25.6883  -14.6812  150.4284 C   0  0  0  0  0  0  0  0  0  0  0  0
  -28.2555  -11.7490  148.8781 O   0  0  0  0  0  0  0  0  0  0  0  0
  -25.0595  -14.9545  146.7217 C   0  0  0  0  0  0  0  0  0  0  0  0
  -27.1604   -8.9466  146.8546 N   0  0  0  0  0  0  0  0  0  0  0  0
  -26.6578  -12.2647  147.3542 N   0  0  0  0  0  0  0  0  0  0  0  0
  -25.3700  -13.9895  148.3514 C   0  0  0  0  0  0  0  0  0  0  0  0
  -25.3777  -10.9050  151.0059 F   0  0  0  0  0  0  0  0  0  0  0  0
  -25.3388  -11.8759  148.0518 C   0  0  0  0  0  0  0  0  0  0  0  0
  -20.8276   -9.6170  146.3752 C   0  0  0  0  0  0  0  0  0  0  0  0
  -25.9816   -7.7952  149.7214 C   0  0  0  0  0  0  0  0  0  0  0  0
  -18.8231   -8.2129  148.2763 C   0  0  0  0  0  0  0  0  0  0  0  0
  -20.4770   -9.5471  148.6631 C   0  0  0  0  0  0  0  0  0  0  0  0
  -25.5444   -9.1630  149.2682 C   0  0  0  0  0  0  0  0  0  0  0  0
  -17.8280   -9.3496  149.1051 C   0  0  0  0  0  0  0  0  0  0  0  0
  -19.0939  -10.3223  149.3224 C   0  0  0  0  0  0  0  0  0  0  0  0
  -25.4982  -11.6887  149.8158 C   0  0  0  0  0  0  0  0  0  0  0  0
  -23.4411  -14.9826  146.8360 C   0  0  0  0  0  0  0  0  0  0  0  0
  -26.1698  -16.4297  146.1904 C   0  0  0  0  0  0  0  0  0  0  0  0
  -28.1540  -16.7227  146.8419 C   0  0  0  0  0  0  0  0  0  0  0  0
  -25.5145  -11.0014  144.5973 C   0  0  0  0  0  0  0  0  0  0  0  0
  -22.7648  -16.4857  147.2541 C   0  0  0  0  0  0  0  0  0  0  0  0
  -25.6122   -8.0919  151.1888 C   0  0  0  0  0  0  0  0  0  0  0  0
  -23.9095   -8.7462  143.9001 C   0  0  0  0  0  0  0  0  0  0  0  0
  -23.8793  -14.5174  145.3691 O   0  0  0  0  0  0  0  0  0  0  0  0
  -26.8636   -8.8430  151.6758 C   0  0  0  0  0  0  0  0  0  0  0  0
  -24.5380   -8.8558  150.5017 C   0  0  0  0  0  0  0  0  0  0  0  0
  -22.0884   -9.2669  145.1086 C   0  0  0  0  0  0  0  0  0  0  0  0
  -28.4674  -17.6168  148.3847 C   0  0  0  0  0  0  0  0  0  0  0  0
  -28.6770  -19.4217  149.1530 C   0  0  0  0  0  0  0  0  0  0  0  0
  -26.6145  -11.1055  141.2361 C   0  0  0  0  0  0  0  0  0  0  0  0
  -24.3687   -7.9864  151.9396 C   0  0  0  0  0  0  0  0  0  0  0  0
  2  1  1  0
  4  3  1  0
  5  3  1  0
  8  6  1  0
  9  4  1  0
 10  7  1  0
 12  7  1  0
 13  8  1  0
 14 10  1  0
 15  3  1  0
 15 12  1  0
 17  4  1  0
 17  5  1  0
 18  7  1  0
 19 14  1  0
 19 16  1  0
 21 18  1  0
 21 19  1  0
 22 13  1  0
 23  9  1  0
 25 22  1  0
 25 24  1  0
 26  4  1  0
 26 23  1  0
 27 24  1  0
 28 25  1  0
 28 27  1  0
 29 10  1  0
 29 20  1  0
 29 21  1  0
 30 16  1  0
 31 16  1  0
 32 31  1  0
 33  2  1  0
 33  5  1  0
 33  6  1  0
 33 11  1  0
 34 30  1  0
 35 23  1  0
 36  1  1  0
 37 16  1  0
 37 30  1  0
 38  9  1  0
 38 35  1  0
 39 26  1  0
 39 35  1  0
 40 13  1  0
 40 22  1  0
 40 36  1  0
 41 32  1  0
 42 41  1  0
 43  1  1  0
 44 35  1  0
 44 39  1  0
M  END
$$$$

     RDKit          3D

 35 39  0  0  0  0  0  0  0  0999 V2000
  -21.7359   -0.7195  144.0422 O   0  0  0  0  0  0  0  0  0  0  0  0
  -21.8448   -1.7147  141.3692 O   0  0  0  0  0  0  0  0  0  0  0  0
  -19.8319    0.4781  143.8944 O   0  0  0  0  0  0  0  0  0  0  0  0
  -21.1606    0.4302  143.5689 N   0  0  0  0  0  0  0  0  0  0  0  0
  -20.6831   -1.9667  142.0991 C   0  0  0  0  0  0  0  0  0  0  0  0
  -20.0952   -3.3290  141.7255 C   0  0  0  0  0  0  0  0  0  0  0  0
  -21.0232   -1.8954  143.5948 C   0  0  0  0  0  0  0  0  0  0  0  0
  -20.5261    2.9077  144.2911 C   0  0  0  0  0  0  0  0  0  0  0  0
  -18.1472    2.1418  144.0935 N   0  0  0  0  0  0  0  0  0  0  0  0
  -20.5623    3.9689  145.4257 C   0  0  0  0  0  0  0  0  0  0  0  0
  -20.8439    3.4747  146.8852 C   0  0  0  0  0  0  0  0  0  0  0  0
  -22.1655    2.6411  146.9558 C   0  0  0  0  0  0  0  0  0  0  0  0
  -20.9137    4.6685  147.9466 C   0  0  0  0  0  0  0  0  0  0  0  0
  -22.2864    1.8173  148.2557 C   0  0  0  0  0  0  0  0  0  0  0  0
  -17.0681    1.5583  144.9311 C   0  0  0  0  0  0  0  0  0  0  0  0
  -19.5191    1.7250  144.5415 C   0  0  0  0  0  0  0  0  0  0  0  0
  -19.7651    5.0238  149.0060 C   0  0  0  0  0  0  0  0  0  0  0  0
  -21.7432    0.3919  148.0955 C   0  0  0  0  0  0  0  0  0  0  0  0
  -21.9151   -0.3090  149.3711 N   0  0  0  0  0  0  0  0  0  0  0  0
  -18.3387    5.1983  148.4379 C   0  0  0  0  0  0  0  0  0  0  0  0
  -18.1765    6.2185  147.2689 C   0  0  0  0  0  0  0  0  0  0  0  0
  -17.4865    3.9164  148.2117 C   0  0  0  0  0  0  0  0  0  0  0  0
  -16.3782    3.6735  149.2535 C   0  0  0  0  0  0  0  0  0  0  0  0
  -16.4699    4.3247  150.6428 C   0  0  0  0  0  0  0  0  0  0  0  0
  -17.3714    3.1777  151.1015 C   0  0  0  0  0  0  0  0  0  0  0  0
  -14.9692    3.4018  148.7907 C   0  0  0  0  0  0  0  0  0  0  0  0
  -14.2458    2.1852  149.4811 C   0  0  0  0  0  0  0  0  0  0  0  0
  -18.8963    3.5607  151.3737 C   0  0  0  0  0  0  0  0  0  0  0  0
  -15.3205    1.5977  151.9378 C   0  0  0  0  0  0  0  0  0  0  0  0
  -16.6273    2.4439  152.2617 C   0  0  0  0  0  0  0  0  0  0  0  0
  -17.1498    2.4478  149.7729 C   0  0  0  0  0  0  0  0  0  0  0  0
  -19.3051    5.0228  151.5968 C   0  0  0  0  0  0  0  0  0  0  0  0
  -19.9250    4.2744  150.4139 C   0  0  0  0  0  0  0  0  0  0  0  0
  -14.1096    2.1553  151.0784 C   0  0  0  0  0  0  0  0  0  0  0  0
  -18.1463    2.5667  148.6555 C   0  0  0  0  0  0  0  0  0  0  0  0
  4  1  1  0
  4  3  1  0
  5  2  1  0
  6  5  1  0
  7  1  1  0
  7  5  1  0
 10  8  1  0
 11 10  1  0
 12 11  1  0
 13 11  1  0
 14 12  1  0
 15  9  1  0
 16  3  1  0
 16  8  1  0
 16  9  1  0
 17 13  1  0
 18 14  1  0
 19 18  1  0
 20 17  1  0
 21 20  1  0
 22 20  1  0
 23 22  1  0
 24 23  1  0
 25 24  1  0
 26 23  1  0
 27 26  1  0
 28 25  1  0
 30 25  1  0
 30 29  1  0
 31 23  1  0
 31 25  1  0
 32 28  1  0
 33 17  1  0
 33 28  1  0
 33 32  1  0
 34 27  1  0
 34 29  1  0
 35 22  1  0
 35 31  1  0
M  END
$$$$

     RDKit          3D

 45 52  0  0  0  0  0  0  0  0999 V2000
  -25.7857    0.3453  136.7235 C   0  0  0  0  0  0  0  0  0  0  0  0
  -27.2363    1.6733  138.0955 N   0  0  0  0  0  0  0  0  0  0  0  0
  -27.6802    2.3240  136.6951 C   0  0  0  0  0  0  0  0  0  0  0  0
  -23.7926   -0.1256  135.3586 C   0  0  0  0  0  0  0  0  0  0  0  0
  -26.4812    0.3082  138.0021 C   0  0  0  0  0  0  0  0  0  0  0  0
  -27.3218    3.7991  136.3918 C   0  0  0  0  0  0  0  0  0  0  0  0
  -25.4137   -0.2244  139.1051 C   0  0  0  0  0  0  0  0  0  0  0  0
  -28.7703    1.4438  134.5216 C   0  0  0  0  0  0  0  0  0  0  0  0
  -26.2496    4.7704  136.8920 C   0  0  0  0  0  0  0  0  0  0  0  0
  -28.6710    2.6613  133.5526 C   0  0  0  0  0  0  0  0  0  0  0  0
  -26.5613    2.7036  135.6705 C   0  0  0  0  0  0  0  0  0  0  0  0
  -22.7789   -2.3742  137.8904 C   0  0  0  0  0  0  0  0  0  0  0  0
  -23.1912    0.6887  140.2458 C   0  0  0  0  0  0  0  0  0  0  0  0
  -28.5083    4.2361  134.0188 C   0  0  0  0  0  0  0  0  0  0  0  0
  -27.9463    4.8531  135.4414 C   0  0  0  0  0  0  0  0  0  0  0  0
  -25.1254    5.2628  135.9250 C   0  0  0  0  0  0  0  0  0  0  0  0
  -25.3190   -2.1580  136.0683 C   0  0  0  0  0  0  0  0  0  0  0  0
  -24.0837    5.4111  136.9883 C   0  0  0  0  0  0  0  0  0  0  0  0
  -25.4413   -2.9633  135.0219 C   0  0  0  0  0  0  0  0  0  0  0  0
  -29.1332    5.5828  136.0569 C   0  0  0  0  0  0  0  0  0  0  0  0
  -23.3566    4.2804  137.2270 C   0  0  0  0  0  0  0  0  0  0  0  0
  -23.7030    2.0876  140.5627 C   0  0  0  0  0  0  0  0  0  0  0  0
  -22.9005   -1.4134  139.0707 C   0  0  0  0  0  0  0  0  0  0  0  0
  -23.8060   -0.0405  139.0381 C   0  0  0  0  0  0  0  0  0  0  0  0
  -25.2626   -0.6862  135.7933 C   0  0  0  0  0  0  0  0  0  0  0  0
  -21.6689   -2.5247  137.1648 C   0  0  0  0  0  0  0  0  0  0  0  0
  -26.6508    5.7791  135.8211 C   0  0  0  0  0  0  0  0  0  0  0  0
  -26.2785   -2.4356  133.9389 C   0  0  0  0  0  0  0  0  0  0  0  0
  -26.0037   -1.2372  132.8624 C   0  0  0  0  0  0  0  0  0  0  0  0
  -29.0121    1.9861  136.0505 C   0  0  0  0  0  0  0  0  0  0  0  0
  -24.6197    5.2906  134.4328 C   0  0  0  0  0  0  0  0  0  0  0  0
  -29.2278    5.7826  137.4210 C   0  0  0  0  0  0  0  0  0  0  0  0
  -24.2681    3.8691  133.8884 C   0  0  0  0  0  0  0  0  0  0  0  0
  -25.1743    3.4958  132.6639 C   0  0  0  0  0  0  0  0  0  0  0  0
  -22.1127    4.2072  131.7053 C   0  0  0  0  0  0  0  0  0  0  0  0
  -23.1969    4.9776  133.8331 C   0  0  0  0  0  0  0  0  0  0  0  0
  -27.3878   -0.4215  132.7621 C   0  0  0  0  0  0  0  0  0  0  0  0
  -24.9771   -0.1893  133.0975 N   0  0  0  0  0  0  0  0  0  0  0  0
  -28.6756   -2.4835  131.7669 C   0  0  0  0  0  0  0  0  0  0  0  0
  -27.7141    0.2462  134.2588 C   0  0  0  0  0  0  0  0  0  0  0  0
  -25.5538   -1.8750  131.6664 O   0  0  0  0  0  0  0  0  0  0  0  0
  -28.5961   -0.9761  131.9191 C   0  0  0  0  0  0  0  0  0  0  0  0
  -28.4813   -0.4521  130.5069 C   0  0  0  0  0  0  0  0  0  0  0  0
  -26.7641   -0.1590  135.5637 C   0  0  0  0  0  0  0  0  0  0  0  0
  -22.6933    5.1757  132.3850 C   0  0  0  0  0  0  0  0  0  0  0  0
  3  2  1  0
  5  1  1  0
  5  2  1  0
  6  3  1  0
  7  5  1  0
  9  6  1  0
 10  8  1  0
 11  3  1  0
 11  6  1  0
 14 10  1  0
 15  6  1  0
 15 14  1  0
 16  9  1  0
 18 16  1  0
 19 17  2  3
 20 15  1  0
 21 18  2  0
 22 13  1  0
 23 12  1  0
 24  7  1  0
 24 13  1  0
 24 23  1  0
 25  1  1  0
 25  4  1  0
 25 17  1  0
 26 12  2  0
 27  9  1  0
 27 15  1  0
 27 16  1  0
 28 19  1  0
 29 28  1  0
 30  3  1  0
 30  8  1  0
 31 16  1  0
 32 20  2  0
 33 31  1  0
 34 33  1  0
 36 31  1  0
 36 33  1  0
 37 29  1  0
 38 29  1  0
 40  8  1  0
 40 37  1  0
 41 29  1  0
 42 37  1  0
 42 39  1  0
 43 42  1  0
 44  1  1  0
 44 25  1  0
 44 40  1  0
 45 35  2  0
 45 36  1  0
M  END
$$$$

     RDKit          3D

 11 15  0  0  0  0  0  0  0  0999 V2000
  -22.9647    2.0768  140.4799 I   0  0  0  0  0  0  0  0  0  0  0  0
  -24.7664   -0.2576  139.5662 C   0  0  0  0  0  0  0  0  0  0  0  0
  -23.8031    0.7820  138.9874 C   0  0  0  0  0  0  0  0  0  0  0  0
  -22.8465   -0.3270  138.5539 C   0  0  0  0  0  0  0  0  0  0  0  0
  -23.8088   -1.3807  139.0988 C   0  0  0  0  0  0  0  0  0  0  0  0
  -24.3577   -2.3152  137.9989 C   0  0  0  0  0  0  0  0  0  0  0  0
  -25.8044   -2.7539  138.1961 C   0  0  0  0  0  0  0  0  0  0  0  0
  -25.4523   -1.6409  137.2432 C   0  0  0  0  0  0  0  0  0  0  0  0
  -26.1752   -0.2188  138.8859 C   0  0  0  0  0  0  0  0  0  0  0  0
  -27.1408   -1.1059  139.5558 C   0  0  0  0  0  0  0  0  0  0  0  0
  -26.6991   -1.4755  138.1043 C   0  0  0  0  0  0  0  0  0  0  0  0
  3  1  1  0
  3  2  1  0
  4  3  1  0
  5  2  1  0
  5  4  1  0
  6  5  1  0
  7  6  1  0
  8  6  1  0
  8  7  1  0
  9  2  1  0
 10  9  1  0
 11  7  1  0
 11  8  1  0
 11  9  1  0
 11 10  1  0
M  END
$$$$

     RDKit          3D

 43 48  0  0  0  0  0  0  0  0999 V2000
  -29.9145  -18.4814  147.5090 O   0  0  0  0  0  0  0  0  0  0  0  0
  -25.5808  -18.6744  153.7803 C   0  0  0  0  0  0  0  0  0  0  0  0
  -26.6098  -22.8662  151.4046 C   0  0  0  0  0  0  0  0  0  0  0  0
  -21.8177  -19.7848  156.7464 C   0  0  0  0  0  0  0  0  0  0  0  0
  -20.1498  -12.6232  160.7982 N   0  0  0  0  0  0  0  0  0  0  0  0
  -23.2836  -18.9511  153.1048 O   0  0  0  0  0  0  0  0  0  0  0  0
  -37.7083  -15.0986  140.5495 C   0  0  0  0  0  0  0  0  0  0  0  0
  -25.8308  -19.1407  150.0142 C   0  0  0  0  0  0  0  0  0  0  0  0
  -23.3868  -18.9369  159.4149 C   0  0  0  0  0  0  0  0  0  0  0  0
  -32.5337  -18.5370  143.4647 C   0  0  0  0  0  0  0  0  0  0  0  0
  -19.2916   -3.0044  150.9765 C   0  0  0  0  0  0  0  0  0  0  0  0
  -20.2645    0.5748  147.4243 C   0  0  0  0  0  0  0  0  0  0  0  0
  -26.9544  -12.4404  164.5144 C   0  0  0  0  0  0  0  0  0  0  0  0
  -21.0648   -0.5850  153.3097 F   0  0  0  0  0  0  0  0  0  0  0  0
  -15.4863   -9.7613  154.8204 C   0  0  0  0  0  0  0  0  0  0  0  0
  -36.3446   -5.7674  136.9709 N   0  0  0  0  0  0  0  0  0  0  0  0
  -27.4244   -9.6794  162.7306 F   0  0  0  0  0  0  0  0  0  0  0  0
  -38.8485  -23.0983  144.7364 C   0  0  0  0  0  0  0  0  0  0  0  0
  -19.4429   -0.3713  145.1426 C   0  0  0  0  0  0  0  0  0  0  0  0
  -20.3491   -0.4814  140.4220 C   0  0  0  0  0  0  0  0  0  0  0  0
  -18.1391  -11.1657  157.9593 O   0  0  0  0  0  0  0  0  0  0  0  0
   -9.9331   14.8637  134.9997 C   0  0  0  0  0  0  0  0  0  0  0  0
  -23.5282  -14.0947  161.1674 C   0  0  0  0  0  0  0  0  0  0  0  0
  -18.9152    2.2491  143.6951 C   0  0  0  0  0  0  0  0  0  0  0  0
  -24.4229    0.1795  133.8378 C   0  0  0  0  0  0  0  0  0  0  0  0
  -18.3713    6.1520  143.9000 C   0  0  0  0  0  0  0  0  0  0  0  0
  -21.2082   -1.1991  147.2547 C   0  0  0  0  0  0  0  0  0  0  0  0
  -20.8313    1.2516  145.6376 C   0  0  0  0  0  0  0  0  0  0  0  0
  -15.6435    4.3649  134.1595 C   0  0  0  0  0  0  0  0  0  0  0  0
  -20.4684    5.0063  142.9802 C   0  0  0  0  0  0  0  0  0  0  0  0
  -19.7468    4.5728  133.9238 C   0  0  0  0  0  0  0  0  0  0  0  0
  -20.8808    1.1840  140.4385 C   0  0  0  0  0  0  0  0  0  0  0  0
  -36.4342   -9.4735  138.2173 C   0  0  0  0  0  0  0  0  0  0  0  0
   -8.2179  -13.2955  156.9188 C   0  0  0  0  0  0  0  0  0  0  0  0
  -20.0364    2.1942  138.9964 C   0  0  0  0  0  0  0  0  0  0  0  0
  -18.5851    0.1290  140.3369 C   0  0  0  0  0  0  0  0  0  0  0  0
  -18.1524   -5.2443  146.6628 C   0  0  0  0  0  0  0  0  0  0  0  0
  -22.9178    0.2679  139.9037 C   0  0  0  0  0  0  0  0  0  0  0  0
  -11.9472    9.7209  135.2859 C   0  0  0  0  0  0  0  0  0  0  0  0
  -14.7956    5.8086  136.5990 C   0  0  0  0  0  0  0  0  0  0  0  0
  -35.2212  -22.3060  141.4493 C   0  0  0  0  0  0  0  0  0  0  0  0
  -35.7162  -20.3349  139.8940 C   0  0  0  0  0  0  0  0  0  0  0  0
  -16.7646    8.3036  143.9430 C   0  0  0  0  0  0  0  0  0  0  0  0
  3  2  1  0
  6  4  1  0
  8  1  1  0
  8  2  1  0
  8  6  1  0
  9  2  1  0
  9  4  1  0
 10  1  1  0
 10  7  1  0
 12 11  1  0
 14 11  1  0
 15 11  1  0
 17 13  1  0
 19 12  1  0
 20 19  1  0
 21  5  1  0
 21 15  1  0
 23  5  1  0
 23  9  1  0
 23 13  1  0
 24 19  1  0
 24 20  1  0
 26 24  1  0
 27 11  1  0
 27 12  1  0
 27 19  1  0
 28 12  1  0
 28 24  1  0
 30 26  1  0
 31 25  1  0
 31 29  1  0
 33  7  1  0
 33 16  1  0
 34 15  1  0
 35 32  1  0
 36 20  1  0
 36 32  1  0
 37 27  1  0
 38 35  1  0
 39 22  1  0
 40 29  1  0
 40 36  1  0
 40 39  1  0
 41 18  1  0
 42  7  1  0
 42 10  1  0
 42 41  1  0
 43 26  2  0
M  END
$$$$

     RDKit          3D

 45 59  0  0  0  0  0  0  0  0999 V2000
  -16.7013   -6.8169  142.3855 O   0  0  0  0  0  0  0  0  0  0  0  0
  -17.6647   -5.8864  143.3687 C   0  0  0  0  0  0  0  0  0  0  0  0
  -17.1699   -3.5841  144.5620 C   0  0  0  0  0  0  0  0  0  0  0  0
  -17.3824   -2.2530  143.6404 C   0  0  0  0  0  0  0  0  0  0  0  0
  -18.8305   -6.5261  143.5846 C   0  0  0  0  0  0  0  0  0  0  0  0
  -18.4212   -1.4741  146.4307 C   0  0  0  0  0  0  0  0  0  0  0  0
  -19.8047   -0.9727  146.6625 C   0  0  0  0  0  0  0  0  0  0  0  0
  -19.5728   -1.8602  145.4269 C   0  0  0  0  0  0  0  0  0  0  0  0
  -17.2249   -6.0011  144.3280 C   0  0  0  0  0  0  0  0  0  0  0  0
  -17.4548   -0.7132  143.7809 C   0  0  0  0  0  0  0  0  0  0  0  0
  -18.0696   -6.4221  145.9784 C   0  0  0  0  0  0  0  0  0  0  0  0
  -18.4118   -8.0306  146.4931 C   0  0  0  0  0  0  0  0  0  0  0  0
  -17.6335   -9.2338  146.0434 C   0  0  0  0  0  0  0  0  0  0  0  0
  -16.5106   -1.3596  142.7059 C   0  0  0  0  0  0  0  0  0  0  0  0
  -18.0058   -9.6545  144.5749 C   0  0  0  0  0  0  0  0  0  0  0  0
  -18.2664   -6.2541  147.5765 B   0  0  0  0  0  0  0  0  0  0  0  0
  -15.0392   -0.9239  142.9338 C   0  0  0  0  0  0  0  0  0  0  0  0
  -19.5043   -9.8653  144.1852 C   0  0  0  0  0  0  0  0  0  0  0  0
  -17.8271   -5.0340  146.4446 C   0  0  0  0  0  0  0  0  0  0  0  0
  -19.6625  -10.9025  143.0311 C   0  0  0  0  0  0  0  0  0  0  0  0
  -17.3329   -2.8940  140.8380 C   0  0  0  0  0  0  0  0  0  0  0  0
  -18.1163   -0.3712  140.8197 C   0  0  0  0  0  0  0  0  0  0  0  0
  -16.8764   -6.4496  148.2503 C   0  0  0  0  0  0  0  0  0  0  0  0
  -16.3688   -5.7681  146.9670 C   0  0  0  0  0  0  0  0  0  0  0  0
  -19.2750   -4.5077  145.1766 C   0  0  0  0  0  0  0  0  0  0  0  0
  -17.4020   -3.7940  147.6359 C   0  0  0  0  0  0  0  0  0  0  0  0
  -19.2124   -3.9555  143.3408 C   0  0  0  0  0  0  0  0  0  0  0  0
  -18.5282   -2.6921  142.9154 C   0  0  0  0  0  0  0  0  0  0  0  0
  -20.2297   -8.5150  143.8554 C   0  0  0  0  0  0  0  0  0  0  0  0
  -19.7879   -3.3494  145.7330 C   0  0  0  0  0  0  0  0  0  0  0  0
  -19.8644   -1.7021  139.5038 C   0  0  0  0  0  0  0  0  0  0  0  0
  -18.3989   -2.7685  145.6413 C   0  0  0  0  0  0  0  0  0  0  0  0
  -17.0034   -1.4107  141.2059 C   0  0  0  0  0  0  0  0  0  0  0  0
  -20.8602   -4.4025  140.7071 C   0  0  0  0  0  0  0  0  0  0  0  0
  -19.3788   -7.8712  142.7355 C   0  0  0  0  0  0  0  0  0  0  0  0
  -18.6945   -5.5287  139.9555 O   0  0  0  0  0  0  0  0  0  0  0  0
  -19.6785   -0.7416  140.6797 C   0  0  0  0  0  0  0  0  0  0  0  0
  -19.9184   -5.6968  140.7507 C   0  0  0  0  0  0  0  0  0  0  0  0
  -16.1793   -4.4677  142.6761 C   0  0  0  0  0  0  0  0  0  0  0  0
  -19.6904   -6.5117  142.1931 C   0  0  0  0  0  0  0  0  0  0  0  0
  -20.4609   -3.1230  139.7614 C   0  0  0  0  0  0  0  0  0  0  0  0
  -17.8031   -3.7602  142.0932 C   0  0  0  0  0  0  0  0  0  0  0  0
  -18.9259   -5.6215  138.5513 C   0  0  0  0  0  0  0  0  0  0  0  0
  -20.7334   -1.8751  140.6584 C   0  0  0  0  0  0  0  0  0  0  0  0
  -17.7788   -6.3053  137.7701 C   0  0  0  0  0  0  0  0  0  0  0  0
  2  1  1  0
  3  2  1  0
  4  3  1  0
  5  2  1  0
  7  6  1  0
  8  6  1  0
  8  7  1  0
  9  5  1  0
 10  4  1  0
 11  9  1  0
 12 11  1  0
 13 12  1  0
 14  4  1  0
 14 10  1  0
 15 13  1  0
 16 11  1  0
 17 14  1  0
 18 15  1  0
 19 11  1  0
 20 18  1  0
 23 16  1  0
 24 19  1  0
 24 23  1  0
 25 19  1  0
 26 19  1  0
 27 25  1  0
 28  4  1  0
 28 27  1  0
 29 18  1  0
 30  8  1  0
 30 25  1  0
 32  3  1  0
 32  6  1  0
 32  8  1  0
 32 30  1  0
 33 14  1  0
 33 21  1  0
 33 22  1  0
 35  5  1  0
 35 29  1  0
 37 22  1  0
 37 31  1  0
 38 34  1  0
 38 36  1  0
 39  9  1  0
 40  5  1  0
 40 35  1  0
 40 38  1  0
 41 31  1  0
 41 34  1  0
 42 21  1  0
 42 27  1  0
 42 28  1  0
 42 39  1  0
 43 36  1  0
 44 31  1  0
 44 37  1  0
 44 41  1  0
 45 43  1  0
M  END
$$$$

     RDKit          3D

 45 55  0  0  0  0  0  0  0  0999 V2000
  -26.7756  -13.2425  151.7790 O   0  0  0  0  0  0  0  0  0  0  0  0
  -23.5079  -13.3460  152.4701 C   0  0  0  0  0  0  0  0  0  0  0  0
  -22.8575   -9.9188  151.8421 O   0  0  0  0  0  0  0  0  0  0  0  0
  -24.1979  -12.0108  152.4611 C   0  0  0  0  0  0  0  0  0  0  0  0
  -22.5044  -11.1617  149.1124 C   0  0  0  0  0  0  0  0  0  0  0  0
  -25.8253  -14.5425  153.8524 C   0  0  0  0  0  0  0  0  0  0  0  0
  -29.2574  -12.2077  153.9737 C   0  0  0  0  0  0  0  0  0  0  0  0
  -28.8633  -14.3959  151.2799 C   0  0  0  0  0  0  0  0  0  0  0  0
  -32.7215  -10.2008  154.8562 C   0  0  0  0  0  0  0  0  0  0  0  0
  -31.3417   -6.6850  157.2959 C   0  0  0  0  0  0  0  0  0  0  0  0
  -33.6283  -10.5235  159.0632 C   0  0  0  0  0  0  0  0  0  0  0  0
  -26.8960  -10.8415  150.5800 C   0  0  0  0  0  0  0  0  0  0  0  0
  -14.7870  -15.5917  166.5440 C   0  0  0  0  0  0  0  0  0  0  0  0
  -24.8908   -9.6568  154.7123 C   0  0  0  0  0  0  0  0  0  0  0  0
  -24.5098   -6.1628  152.4519 C   0  0  0  0  0  0  0  0  0  0  0  0
  -23.2301   -8.9656  156.5003 C   0  0  0  0  0  0  0  0  0  0  0  0
  -28.5254  -14.7520  154.2103 C   0  0  0  0  0  0  0  0  0  0  0  0
  -27.2158   -9.7133  158.3418 C   0  0  0  0  0  0  0  0  0  0  0  0
  -24.2064   -6.8762  158.5243 C   0  0  0  0  0  0  0  0  0  0  0  0
  -24.5930  -11.3599  150.9575 C   0  0  0  0  0  0  0  0  0  0  0  0
  -25.4015  -10.0592  158.5452 C   0  0  0  0  0  0  0  0  0  0  0  0
  -23.2710   -5.6012  155.3508 C   0  0  0  0  0  0  0  0  0  0  0  0
  -23.9127  -14.3426  163.9374 C   0  0  0  0  0  0  0  0  0  0  0  0
  -10.8597  -14.4085  167.1532 C   0  0  0  0  0  0  0  0  0  0  0  0
  -25.2769   -8.8287  155.9692 C   0  0  0  0  0  0  0  0  0  0  0  0
  -28.9725  -13.0970  161.4313 O   0  0  0  0  0  0  0  0  0  0  0  0
  -21.7498  -12.2301  158.2898 C   0  0  0  0  0  0  0  0  0  0  0  0
  -24.1432   -5.8589  157.1050 C   0  0  0  0  0  0  0  0  0  0  0  0
  -20.8293  -18.1151  166.9394 C   0  0  0  0  0  0  0  0  0  0  0  0
  -17.7464  -15.4586  165.4842 C   0  0  0  0  0  0  0  0  0  0  0  0
  -27.3036   -7.7859  157.0688 C   0  0  0  0  0  0  0  0  0  0  0  0
  -21.8832  -25.6059  170.9213 C   0  0  0  0  0  0  0  0  0  0  0  0
   -6.9845   -9.8177  173.2622 C   0  0  0  0  0  0  0  0  0  0  0  0
   -8.8539  -10.1609  169.1668 C   0  0  0  0  0  0  0  0  0  0  0  0
  -33.0759  -10.0458  157.3058 C   0  0  0  0  0  0  0  0  0  0  0  0
  -23.4499  -32.1017  174.8814 C   0  0  0  0  0  0  0  0  0  0  0  0
  -34.7429   -8.4965  155.6237 C   0  0  0  0  0  0  0  0  0  0  0  0
  -14.1433  -11.1493  164.5788 S   0  0  0  0  0  0  0  0  0  0  0  0
  -19.8953  -12.5608  161.5594 O   0  0  0  0  0  0  0  0  0  0  0  0
  -10.2517  -12.0674  173.1832 C   0  0  0  0  0  0  0  0  0  0  0  0
  -27.4618  -10.9164  156.1105 C   0  0  0  0  0  0  0  0  0  0  0  0
  -26.8161  -13.5333  153.2469 C   0  0  0  0  0  0  0  0  0  0  0  0
  -24.2520   -9.3550  147.7000 C   0  0  0  0  0  0  0  0  0  0  0  0
  -24.9817   -7.3623  158.2467 C   0  0  0  0  0  0  0  0  0  0  0  0
  -10.8746   -8.1654  171.5054 C   0  0  0  0  0  0  0  0  0  0  0  0
  4  1  1  0
  4  3  1  0
  5  4  1  0
  6  2  1  0
  8  7  1  0
  9  7  1  0
 10  9  1  0
 11 10  1  0
 12  8  1  0
 14 12  1  0
 15 14  1  0
 17  6  1  0
 17  7  1  0
 17  8  1  0
 19 16  1  0
 19 18  1  0
 20  2  1  0
 20  5  1  0
 21 16  1  0
 22 15  1  0
 24 13  1  0
 25 15  1  0
 26 11  1  0
 26 23  1  0
 27 25  1  0
 28 19  1  0
 28 22  1  0
 29 23  1  0
 30 13  1  0
 30 23  1  0
 30 24  1  0
 30 29  1  0
 31 14  1  0
 31 25  1  0
 32 29  1  0
 34 33  1  0
 35 10  1  0
 35 11  1  0
 36 32  1  0
 37  9  1  0
 37 10  1  0
 38 34  1  0
 39 27  1  0
 39 38  1  0
 40 33  1  0
 41  7  1  0
 41 18  1  0
 41 21  1  0
 42  2  1  0
 42  4  1  0
 43  5  1  0
 44 18  1  0
 44 21  1  0
 44 28  1  0
 45 40  2  0
M  END
$$$$

     RDKit          3D

 38 41  0  0  0  0  0  0  0  0999 V2000
  -20.9177   -7.2579  131.7363 C   0  0  0  0  0  0  0  0  0  0  0  0
  -21.9852   -6.2836  130.8833 C   0  0  0  0  0  0  0  0  0  0  0  0
  -20.7109   -3.6665  131.0326 C   0  0  0  0  0  0  0  0  0  0  0  0
  -21.0211   -2.4268  131.9482 C   0  0  0  0  0  0  0  0  0  0  0  0
  -20.8533   -2.1929  133.6579 C   0  0  0  0  0  0  0  0  0  0  0  0
  -21.2204   -2.9236  135.0589 C   0  0  0  0  0  0  0  0  0  0  0  0
  -22.7573   -5.0205  133.4968 Sb  0  0  0  0  0  3  0  0  0  0  0  0
  -23.3314   -3.3821  132.1483 C   0  0  0  0  0  0  0  0  0  0  0  0
  -19.5831   -1.3624  133.9835 C   0  0  0  0  0  0  0  0  0  0  0  0
  -23.3427   -6.6252  131.2616 N   0  0  0  0  0  0  0  0  0  0  0  0
  -19.6380   -0.3559  135.1466 C   0  0  0  0  0  0  0  0  0  0  0  0
  -19.6189   -7.9692  132.4507 C   0  0  0  0  0  0  0  0  0  0  0  0
  -22.1891   -3.1779  131.0825 C   0  0  0  0  0  0  0  0  0  0  0  0
  -20.9647    0.1273  135.7906 C   0  0  0  0  0  0  0  0  0  0  0  0
  -19.7819   -9.2232  133.2607 N   0  0  0  0  0  0  0  0  0  0  0  0
  -19.4822    0.1383  133.7225 C   0  0  0  0  0  0  0  0  0  0  0  0
  -18.5948   -8.4781  131.4201 C   0  0  0  0  0  0  0  0  0  0  0  0
  -19.4725   -9.3888  130.3805 C   0  0  0  0  0  0  0  0  0  0  0  0
  -21.0547   -9.7705  130.5115 C   0  0  0  0  0  0  0  0  0  0  0  0
  -22.2899  -10.7501  133.0972 C   0  0  0  0  0  0  0  0  0  0  0  0
  -17.3681   -9.3023  132.1758 C   0  0  0  0  0  0  0  0  0  0  0  0
  -16.9138   -9.0666  133.7099 C   0  0  0  0  0  0  0  0  0  0  0  0
  -21.8001  -10.7835  131.5508 C   0  0  0  0  0  0  0  0  0  0  0  0
  -20.6553   -9.4941  134.4129 C   0  0  0  0  0  0  0  0  0  0  0  0
  -21.8289   -4.6620  130.4653 C   0  0  0  0  0  0  0  0  0  0  0  0
  -21.1833  -10.9403  134.1535 C   0  0  0  0  0  0  0  0  0  0  0  0
  -16.0966   -9.2781  131.2995 C   0  0  0  0  0  0  0  0  0  0  0  0
  -17.0811   -7.8070  134.6691 C   0  0  0  0  0  0  0  0  0  0  0  0
  -15.0882   -5.6162  132.6426 C   0  0  0  0  0  0  0  0  0  0  0  0
  -20.4422   -4.9179  133.2623 C   0  0  0  0  0  0  0  0  0  0  0  0
  -18.3189   -7.4568  135.5675 C   0  0  0  0  0  0  0  0  0  0  0  0
  -17.8999   -6.3286  136.3923 N   0  0  0  0  0  2  0  0  0  0  0  0
  -16.9475   -3.9030  133.6841 C   0  0  0  0  0  0  0  0  0  0  0  0
  -17.0093  -10.3667  134.5443 C   0  0  0  0  0  0  0  0  0  0  0  0
  -14.1691   -5.7224  133.8812 C   0  0  0  0  0  0  0  0  0  0  0  0
  -16.7558   -4.8540  134.8125 N   0  0  0  0  0  2  0  0  0  0  0  0
  -15.7886   -4.1972  132.6064 C   0  0  0  0  0  0  0  0  0  0  0  0
  -17.9339   -5.0648  135.7014 C   0  0  0  0  0  0  0  0  0  0  0  0
  2  1  1  0
  4  3  1  0
  5  4  1  0
  6  5  1  0
  8  7  1  0
  9  5  1  0
 10  2  1  0
 11  9  1  0
 12  1  1  0
 13  3  1  0
 13  4  1  0
 13  8  1  0
 14 11  1  0
 15 12  1  0
 16  9  1  0
 16 11  1  0
 17 12  1  0
 18 17  1  0
 19 18  1  0
 21 17  1  0
 22 21  1  0
 23 19  1  0
 23 20  1  0
 24 15  1  0
 25  2  1  0
 25  3  1  0
 25 13  1  0
 26 20  1  0
 26 24  1  0
 27 21  1  0
 28 22  1  0
 30  7  1  0
 31 28  1  0
 32 31  1  0
 34 22  1  0
 35 29  1  0
 36 33  1  0
 37 29  1  0
 37 33  1  0
 38 32  1  0
 38 36  1  0
M  RAD  2  32   2  36   2
M  END
$$$$

     RDKit          3D

 44 50  0  0  0  0  0  0  0  0999 V2000
  -32.7771   -8.3460  142.0213 O   0  0  0  0  0  0  0  0  0  0  0  0
  -32.0458   -8.1700  140.8147 C   0  0  0  0  0  0  0  0  0  0  0  0
  -31.4804   -9.5054  140.3457 O   0  0  0  0  0  0  0  0  0  0  0  0
  -32.3288   -7.7468  143.2151 C   0  0  0  0  0  0  0  0  0  0  0  0
  -29.9667   -7.9792  141.0796 O   0  0  0  0  0  0  0  0  0  0  0  0
  -29.5770   -6.1858  140.9752 C   0  0  0  0  0  0  0  0  0  0  0  0
  -28.5347   -6.9587  139.6520 C   0  0  0  0  0  0  0  0  0  0  0  0
  -30.3680   -9.0001  137.8753 C   0  0  0  0  0  0  0  0  0  0  0  0
  -30.1017   -8.3266  136.4432 C   0  0  0  0  0  0  0  0  0  0  0  0
  -30.4961  -11.8164  137.0366 C   0  0  0  0  0  0  0  0  0  0  0  0
  -30.9716  -12.0556  135.5780 C   0  0  0  0  0  0  0  0  0  0  0  0
  -29.9877  -11.4990  134.3465 C   0  0  0  0  0  0  0  0  0  0  0  0
  -28.9507   -9.1936  135.6327 C   0  0  0  0  0  0  0  0  0  0  0  0
  -30.4189  -11.7672  132.8412 C   0  0  0  0  0  0  0  0  0  0  0  0
  -29.3249  -10.0442  134.3152 C   0  0  0  0  0  0  0  0  0  0  0  0
  -32.4831  -11.6724  135.7888 C   0  0  0  0  0  0  0  0  0  0  0  0
  -33.5644  -10.6423  135.5052 C   0  0  0  0  0  0  0  0  0  0  0  0
  -32.2423  -10.2590  136.3086 C   0  0  0  0  0  0  0  0  0  0  0  0
  -31.8202  -11.7034  133.0156 C   0  0  0  0  0  0  0  0  0  0  0  0
  -32.2061  -12.9758  133.5311 O   0  0  0  0  0  0  0  0  0  0  0  0
  -26.9000   -7.1744  139.8496 C   0  0  0  0  0  0  0  0  0  0  0  0
  -31.3488  -10.4680  137.6369 C   0  0  0  0  0  0  0  0  0  0  0  0
  -26.5181   -7.5620  141.3885 C   0  0  0  0  0  0  0  0  0  0  0  0
  -31.1818  -13.8461  134.9358 Se  0  0  0  0  0  2  0  0  0  0  0  0
  -28.6053   -4.9699  141.2591 C   0  0  0  0  0  0  0  0  0  0  0  0
  -31.6932   -4.6352  138.8995 C   0  0  0  0  0  0  0  0  0  0  0  0
  -29.2833   -8.2115  138.8421 N   0  0  0  0  0  0  0  0  0  0  0  0
  -27.5007   -8.7178  141.8289 C   0  0  0  0  0  0  0  0  0  0  0  0
  -26.2857   -9.5271  137.8967 C   0  0  0  0  0  0  0  0  0  0  0  0
  -30.1987   -6.1451  142.6088 C   0  0  0  0  0  0  0  0  0  0  0  0
  -26.6189  -11.0643  138.3466 C   0  0  0  0  0  0  0  0  0  0  0  0
  -26.0698   -8.1041  138.7769 C   0  0  0  0  0  0  0  0  0  0  0  0
  -31.2424   -6.2525  139.0647 C   0  0  0  0  0  0  0  0  0  0  0  0
  -30.8642   -6.9962  140.5678 C   0  0  0  0  0  0  0  0  0  0  0  0
  -29.2267  -10.7058  140.9501 C   0  0  0  0  0  0  0  0  0  0  0  0
  -31.8634   -3.0511  142.7539 C   0  0  0  0  0  0  0  0  0  0  0  0
  -28.0453   -9.6906  140.9700 C   0  0  0  0  0  0  0  0  0  0  0  0
  -31.7596   -6.3496  142.9763 C   0  0  0  0  0  0  0  0  0  0  0  0
  -31.6212   -2.9357  140.3838 C   0  0  0  0  0  0  0  0  0  0  0  0
  -31.0531   -1.9365  143.4081 C   0  0  0  0  0  0  0  0  0  0  0  0
  -31.1176   -3.5030  141.5959 O   0  0  0  0  0  0  0  0  0  0  0  0
  -30.8086   -3.3821  139.1872 C   0  0  0  0  0  0  0  0  0  0  0  0
  -30.7826  -10.3964  141.2963 C   0  0  0  0  0  0  0  0  0  0  0  0
  -32.6426   -4.0921  139.9304 C   0  0  0  0  0  0  0  0  0  0  0  0
  2  1  1  0
  3  2  1  0
  4  1  1  0
  7  6  1  0
  9  8  1  0
 11 10  1  0
 12 11  1  0
 13  9  1  0
 14 12  1  0
 15 12  1  0
 15 13  1  0
 16 11  1  0
 17 16  1  0
 18 16  1  0
 18 17  1  0
 19 14  1  0
 20 19  1  0
 21  7  1  0
 22  8  1  0
 22 10  1  0
 22 18  1  0
 23 21  1  0
 24 11  1  0
 24 20  1  0
 25  6  1  0
 27  7  1  0
 27  8  1  0
 28 23  1  0
 30  6  1  0
 31 29  1  0
 32 21  1  0
 32 29  1  0
 33 26  1  0
 34  2  1  0
 34  5  1  0
 34  6  1  0
 34 33  1  0
 37 28  2  3
 37 35  1  0
 38  4  1  0
 38 30  1  0
 40 36  1  0
 41 36  1  0
 41 39  1  0
 42 26  1  0
 42 39  1  0
 43  3  1  0
 43 35  1  0
 44 26  1  0
 44 39  1  0
M  END
$$$$

     RDKit          3D

 32 37  0  0  0  0  0  0  0  0999 V2000
  -19.9900   -2.6782  144.3414 C   0  0  0  0  0  0  0  0  0  0  0  0
  -20.4828   -3.2207  142.9230 C   0  0  0  0  0  0  0  0  0  0  0  0
  -21.1006   -1.8887  145.3600 C   0  0  0  0  0  0  0  0  0  0  0  0
  -21.7958   -2.4285  146.6722 C   0  0  0  0  0  0  0  0  0  0  0  0
  -21.5508   -4.9923  145.7976 C   0  0  0  0  0  0  0  0  0  0  0  0
  -21.4231   -5.1433  144.1710 C   0  0  0  0  0  0  0  0  0  0  0  0
  -22.5657   -1.9746  145.4394 C   0  0  0  0  0  0  0  0  0  0  0  0
  -23.6714   -6.2304  145.3943 C   0  0  0  0  0  0  0  0  0  0  0  0
  -21.4492   -3.8442  146.8688 C   0  0  0  0  0  0  0  0  0  0  0  0
  -21.6859   -4.1774  143.0034 C   0  0  0  0  0  0  0  0  0  0  0  0
  -20.6990   -2.4177  141.5709 C   0  0  0  0  0  0  0  0  0  0  0  0
  -20.4275    0.3434  142.8705 C   0  0  0  0  0  0  0  0  0  0  0  0
  -18.8171   -3.6610  145.0473 C   0  0  0  0  0  0  0  0  0  0  0  0
  -23.5904   -3.1311  144.8167 C   0  0  0  0  0  0  0  0  0  0  0  0
  -23.3597   -7.7002  144.9289 C   0  0  0  0  0  0  0  0  0  0  0  0
  -21.3635    0.3979  145.9180 C   0  0  0  0  0  0  0  0  0  0  0  0
  -21.7304   -8.1545  144.6658 C   0  0  0  0  0  0  0  0  0  0  0  0
  -20.3796   -8.3441  145.7094 C   0  0  0  0  0  0  0  0  0  0  0  0
  -21.8188   -0.2055  143.3944 C   0  0  0  0  0  0  0  0  0  0  0  0
  -19.3574   -1.9558  140.8385 C   0  0  0  0  0  0  0  0  0  0  0  0
  -18.9444   -7.8508  145.1456 C   0  0  0  0  0  0  0  0  0  0  0  0
  -21.9115   -0.6035  144.8948 C   0  0  0  0  0  0  0  0  0  0  0  0
  -23.9826   -8.8440  145.6564 N   0  0  0  0  0  0  0  0  0  0  0  0
  -20.4129   -8.0245  147.2483 C   0  0  0  0  0  0  0  0  0  0  0  0
  -23.3874   -9.3609  146.8244 C   0  0  0  0  0  0  0  0  0  0  0  0
  -22.6860   -5.8798  146.4286 C   0  0  0  0  0  0  0  0  0  0  0  0
  -25.6165   -4.7194  144.4067 C   0  0  0  0  0  0  0  0  0  0  0  0
  -24.6681   -4.8145  143.1873 C   0  0  0  0  0  0  0  0  0  0  0  0
  -24.0870   -4.7138  144.5493 C   0  0  0  0  0  0  0  0  0  0  0  0
  -25.3083   -8.3476  148.2141 C   0  0  0  0  0  0  0  0  0  0  0  0
  -23.8762   -8.6020  148.0638 C   0  0  0  0  0  0  0  0  0  0  0  0
  -24.6736   -9.5197  148.7654 O   0  0  0  0  0  0  0  0  0  0  0  0
  2  1  1  0
  3  1  1  0
  4  3  1  0
  6  5  1  0
  7  3  1  0
  7  4  1  0
  9  4  1  0
  9  5  1  0
 10  2  1  0
 10  6  1  0
 11  2  1  0
 13  1  1  0
 14  7  1  0
 15  8  1  0
 17 15  1  0
 18 17  1  0
 19 12  1  0
 20 11  1  0
 21 18  1  0
 22  3  1  0
 22  7  1  0
 22 16  1  0
 22 19  1  0
 23 15  1  0
 24 18  1  0
 25 23  1  0
 26  5  1  0
 26  8  1  0
 28 27  1  0
 29  8  1  0
 29 14  1  0
 29 27  1  0
 29 28  1  0
 31 25  1  0
 31 30  1  0
 32 30  1  0
 32 31  1  0
M  END
$$$$

     RDKit          3D

 45 49  0  0  0  0  0  0  0  0999 V2000
  -17.5335    7.8094  129.8165 C   0  0  0  0  0  0  0  0  0  0  0  0
  -17.7563    4.7928  131.4464 C   0  0  0  0  0  0  0  0  0  0  0  0
  -17.3015   -0.3823  132.0250 C   0  0  0  0  0  0  0  0  0  0  0  0
   -7.3937   -1.0037  133.9620 C   0  0  0  0  0  0  0  0  0  0  0  0
   -3.6843   -2.8383  137.2063 C   0  0  0  0  0  0  0  0  0  0  0  0
  -13.1857   -3.0504  144.2992 C   0  0  0  0  0  0  0  0  0  0  0  0
  -12.7105    9.8509  125.3822 C   0  0  0  0  0  0  0  0  0  0  0  0
  -17.7782  -11.5430  143.3890 C   0  0  0  0  0  0  0  0  0  0  0  0
  -11.4263    5.1515  129.7130 C   0  0  0  0  0  0  0  0  0  0  0  0
  -21.7093    7.8390  126.6987 C   0  0  0  0  0  0  0  0  0  0  0  0
  -18.6488   -2.9491  136.9315 C   0  0  0  0  0  0  0  0  0  0  0  0
   -7.4725    4.5316  122.1854 C   0  0  0  0  0  0  0  0  0  0  0  0
  -12.2580    4.7345  130.1388 C   0  0  0  0  0  0  0  0  0  0  0  0
  -26.8653   -2.6530  141.0044 C   0  0  0  0  0  0  0  0  0  0  0  0
  -11.6180    4.8759  137.2032 C   0  0  0  0  0  0  0  0  0  0  0  0
  -11.9577    7.0041  135.8348 C   0  0  0  0  0  0  0  0  0  0  0  0
  -25.8140   -3.5380  134.1344 O   0  0  0  0  0  0  0  0  0  0  0  0
  -10.4007    2.2199  123.2519 O   0  0  0  0  0  0  0  0  0  0  0  0
  -10.2019   -0.8377  134.0309 C   0  0  0  0  0  0  0  0  0  0  0  0
  -23.2993   -3.2538  135.5197 C   0  0  0  0  0  0  0  0  0  0  0  0
  -24.3533   -6.9953  141.5755 C   0  0  0  0  0  0  0  0  0  0  0  0
  -21.6254  -12.1678  144.4902 C   0  0  0  0  0  0  0  0  0  0  0  0
  -17.2319    9.6613  126.8968 C   0  0  0  0  0  0  0  0  0  0  0  0
  -11.4155    7.6981  140.5310 C   0  0  0  0  0  0  0  0  0  0  0  0
  -11.3337    1.5075  137.3995 C   0  0  0  0  0  0  0  0  0  0  0  0
  -18.8584  -12.0256  155.5755 C   0  0  0  0  0  0  0  0  0  0  0  0
  -20.0019   -6.1463  141.3022 C   0  0  0  0  0  0  0  0  0  0  0  0
  -15.9330   -1.8717  139.0513 C   0  0  0  0  0  0  0  0  0  0  0  0
  -14.2314    6.7952  138.1165 C   0  0  0  0  0  0  0  0  0  0  0  0
  -16.5302    2.0160  135.4799 C   0  0  0  0  0  0  0  0  0  0  0  0
  -30.9264   -0.9517  143.6329 C   0  0  0  0  0  0  0  0  0  0  0  0
  -31.6189    1.8808  144.5155 C   0  0  0  0  0  0  0  0  0  0  0  0
  -20.0088   -1.8249  140.8099 C   0  0  0  0  0  0  0  0  0  0  0  0
    0.5766   -6.9127  141.1333 C   0  0  0  0  0  0  0  0  0  0  0  0
  -27.6610   -4.3547  140.3103 C   0  0  0  0  0  0  0  0  0  0  0  0
  -11.0898    3.9981  139.7972 C   0  0  0  0  0  0  0  0  0  0  0  0
  -11.8755   -6.0410  143.7669 C   0  0  0  0  0  0  0  0  0  0  0  0
  -17.2327   -4.2601  141.9179 C   0  0  0  0  0  0  0  0  0  0  0  0
  -13.1970    0.0647  141.5893 C   0  0  0  0  0  0  0  0  0  0  0  0
   -7.8282   -1.5638  138.2390 C   0  0  0  0  0  0  0  0  0  0  0  0
  -18.7930   -9.2095  140.7448 C   0  0  0  0  0  0  0  0  0  0  0  0
  -18.9390   -9.2531  148.5967 C   0  0  0  0  0  0  0  0  0  0  0  0
  -17.1715   -8.0237  144.8239 C   0  0  0  0  0  0  0  0  0  0  0  0
   -9.2381    1.2218  139.0417 C   0  0  0  0  0  0  0  0  0  0  0  0
  -23.8090   -4.8809  139.0788 C   0  0  0  0  0  0  0  0  0  0  0  0
  2  1  2  3
  3  2  1  0
 11 10  1  0
 12  9  1  0
 13 12  1  0
 16 13  1  0
 16 15  1  0
 18 12  1  0
 19  3  1  0
 19  4  1  0
 19  5  1  0
 20  3  1  0
 20 14  1  0
 20 17  2  0
 23  1  1  0
 23  7  2  0
 23 10  1  0
 24 16  1  0
 27  6  1  0
 27 21  2  0
 29 24  1  0
 29 25  1  0
 30  2  1  0
 30 15  1  0
 30 28  1  0
 31 14  1  0
 32 31  1  0
 33 11  1  0
 34  5  1  0
 35 31  1  0
 35 32  1  0
 37 25  1  0
 38  6  1  0
 38 27  1  0
 38 37  1  0
 39 36  1  0
 40  6  1  0
 40 39  1  0
 41  8  1  0
 41 22  1  0
 41 38  1  0
 42  8  1  0
 42 22  1  0
 43 26  2  0
 43 42  1  0
 44  6  1  0
 44 36  1  0
 45 11  1  0
 45 14  1  0
M  END
$$$$

     RDKit          3D

 45 52  0  0  0  0  0  0  0  0999 V2000
  -24.4689   -2.8470  143.3151 C   0  0  0  0  0  0  0  0  0  0  0  0
  -22.0861    0.4291  142.2359 C   0  0  0  0  0  0  0  0  0  0  0  0
  -24.2782   -2.6454  141.8404 C   0  0  0  0  0  0  0  0  0  0  0  0
  -25.1757   -1.7491  141.2956 O   0  0  0  0  0  0  0  0  0  0  0  0
  -21.9359   -3.9762  143.5955 C   0  0  0  0  0  0  0  0  0  0  0  0
  -23.8533   -1.3444  141.1863 C   0  0  0  0  0  0  0  0  0  0  0  0
  -21.4141    0.5911  143.5939 C   0  0  0  0  0  0  0  0  0  0  0  0
  -21.5665   -4.1120  140.9660 C   0  0  0  0  0  0  0  0  0  0  0  0
  -23.5961   -0.0613  141.9724 C   0  0  0  0  0  0  0  0  0  0  0  0
  -21.0130   -3.2290  139.9504 O   0  0  0  0  0  0  0  0  0  0  0  0
  -20.9709   -5.4992  140.7458 C   0  0  0  0  0  0  0  0  0  0  0  0
  -21.3052   -3.3675  142.3239 C   0  0  0  0  0  0  0  0  0  0  0  0
  -21.6009   -6.6391  141.3301 O   0  0  0  0  0  0  0  0  0  0  0  0
  -22.9822   -6.9439  141.1159 C   0  0  0  0  0  0  0  0  0  0  0  0
  -23.1867   -6.9324  138.5490 C   0  0  0  0  0  0  0  0  0  0  0  0
  -22.4211    0.3963  144.7303 C   0  0  0  0  0  0  0  0  0  0  0  0
  -20.9911    2.1293  143.3038 C   0  0  0  0  0  0  0  0  0  0  0  0
  -23.5872   -6.4605  139.7657 C   0  0  0  0  0  0  0  0  0  0  0  0
  -23.2332   -3.2984  144.1192 C   0  0  0  0  0  0  0  0  0  0  0  0
  -22.7332    1.5336  145.7080 C   0  0  0  0  0  0  0  0  0  0  0  0
  -23.7062   -9.7471  143.6466 C   0  0  0  0  0  0  0  0  0  0  0  0
  -24.0878    1.3726  146.4617 C   0  0  0  0  0  0  0  0  0  0  0  0
  -23.9541    2.3490  145.3995 C   0  0  0  0  0  0  0  0  0  0  0  0
  -24.9080   -5.6805  139.7667 C   0  0  0  0  0  0  0  0  0  0  0  0
  -22.7691   -9.2376  142.5669 C   0  0  0  0  0  0  0  0  0  0  0  0
  -21.0691   -0.2913  144.8630 C   0  0  0  0  0  0  0  0  0  0  0  0
  -19.5369    2.3757  142.7779 C   0  0  0  0  0  0  0  0  0  0  0  0
  -18.0898    1.3397  144.8111 C   0  0  0  0  0  0  0  0  0  0  0  0
  -21.9110    1.9503  142.0512 C   0  0  0  0  0  0  0  0  0  0  0  0
  -21.3841   -9.9348  142.6827 C   0  0  0  0  0  0  0  0  0  0  0  0
  -15.9955    0.9195  139.6471 C   0  0  0  0  0  0  0  0  0  0  0  0
  -16.9529    2.0560  142.2956 C   0  0  0  0  0  0  0  0  0  0  0  0
  -17.0713    1.7905  140.6793 C   0  0  0  0  0  0  0  0  0  0  0  0
  -21.2754  -11.2596  142.5045 C   0  0  0  0  0  0  0  0  0  0  0  0
  -23.1108   -8.4881  141.2567 C   0  0  0  0  0  0  0  0  0  0  0  0
  -16.7703    0.6599  142.2902 C   0  0  0  0  0  0  0  0  0  0  0  0
  -21.5121   -8.2032  144.3526 C   0  0  0  0  0  0  0  0  0  0  0  0
  -22.9360   -8.3155  143.7484 C   0  0  0  0  0  0  0  0  0  0  0  0
  -18.1235    2.1762  143.4563 C   0  0  0  0  0  0  0  0  0  0  0  0
  -23.9182   -8.8035  144.8267 C   0  0  0  0  0  0  0  0  0  0  0  0
  -20.4639   -9.0913  143.6169 C   0  0  0  0  0  0  0  0  0  0  0  0
  -17.8453    0.5716  141.1190 C   0  0  0  0  0  0  0  0  0  0  0  0
  -25.1453   -9.8228  143.0076 C   0  0  0  0  0  0  0  0  0  0  0  0
  -19.5246    3.7072  142.0068 C   0  0  0  0  0  0  0  0  0  0  0  0
  -15.4769   -0.3447  139.8438 C   0  0  0  0  0  0  0  0  0  0  0  0
  3  1  1  0
  4  3  1  0
  6  3  1  0
  6  4  1  0
  7  2  1  0
  9  2  1  0
  9  6  1  0
 10  8  1  0
 11  8  1  0
 12  5  1  0
 12  8  1  0
 13 11  1  0
 14 13  1  0
 16  7  1  0
 17  7  1  0
 18 14  1  0
 18 15  2  0
 19  1  1  0
 19  5  1  0
 20 16  1  0
 22 20  1  0
 23 20  1  0
 23 22  1  0
 24 18  1  0
 25 21  1  0
 26  7  1  0
 26 16  1  0
 27 17  1  0
 29  2  1  0
 29 17  1  0
 30 25  1  0
 33 31  1  0
 33 32  1  0
 34 30  2  0
 35 14  1  0
 35 25  1  0
 36 32  1  0
 38 21  1  0
 38 25  1  0
 38 37  1  0
 39 27  1  0
 39 28  1  0
 39 32  1  0
 40 21  1  0
 40 38  1  0
 41 30  1  0
 41 37  1  0
 42 33  1  0
 42 36  1  0
 43 21  1  0
 44 27  1  0
 45 31  2  0
M  END
$$$$

     RDKit          3D

 45 52  0  0  0  0  0  0  0  0999 V2000
  -11.6827    6.8843  133.1303 O   0  0  0  0  0  0  0  0  0  0  0  0
  -11.3891    5.5209  133.3727 C   0  0  0  0  0  0  0  0  0  0  0  0
  -10.1894    5.3507  134.1166 O   0  0  0  0  0  0  0  0  0  0  0  0
  -12.6338    4.8376  134.0166 C   0  0  0  0  0  0  0  0  0  0  0  0
  -12.3834    4.2738  135.4721 C   0  0  0  0  0  0  0  0  0  0  0  0
  -13.2945    5.1049  136.4521 C   0  0  0  0  0  0  0  0  0  0  0  0
  -12.6705    5.0824  137.9072 C   0  0  0  0  0  0  0  0  0  0  0  0
  -13.5049    2.7262  139.4658 C   0  0  0  0  0  0  0  0  0  0  0  0
  -12.7106    1.6940  140.4444 C   0  0  0  0  0  0  0  0  0  0  0  0
  -11.4318    2.2744  141.1496 C   0  0  0  0  0  0  0  0  0  0  0  0
   -9.9964    1.9699  140.9052 C   0  0  0  0  0  0  0  0  0  0  0  0
  -12.4892    3.6600  138.6413 C   0  0  0  0  0  0  0  0  0  0  0  0
  -11.7338    3.4948  141.8502 C   0  0  0  0  0  0  0  0  0  0  0  0
   -9.7101    1.9612  142.4018 C   0  0  0  0  0  0  0  0  0  0  0  0
  -14.8591    2.0751  138.8794 C   0  0  0  0  0  0  0  0  0  0  0  0
  -10.1116    2.9405  143.5650 C   0  0  0  0  0  0  0  0  0  0  0  0
  -10.0326    4.5155  143.5944 C   0  0  0  0  0  0  0  0  0  0  0  0
  -14.8157    0.5273  138.4529 C   0  0  0  0  0  0  0  0  0  0  0  0
  -11.3209    5.2586  144.0217 C   0  0  0  0  0  0  0  0  0  0  0  0
  -12.6150    4.5001  144.6162 C   0  0  0  0  0  0  0  0  0  0  0  0
  -12.7611    4.8393  146.0997 C   0  0  0  0  0  0  0  0  0  0  0  0
  -11.2238    2.2960  142.7031 C   0  0  0  0  0  0  0  0  0  0  0  0
  -11.4777    4.4727  146.8130 C   0  0  0  0  0  0  0  0  0  0  0  0
  -10.2679    4.5517  146.2300 C   0  0  0  0  0  0  0  0  0  0  0  0
  -12.3880    3.4052  134.2268 C   0  0  0  0  0  0  0  0  0  0  0  0
  -13.8893    4.2204  146.6984 O   0  0  0  0  0  0  0  0  0  0  0  0
  -13.9801    4.7207  143.8708 C   0  0  0  0  0  0  0  0  0  0  0  0
  -14.1534    0.2926  137.0244 C   0  0  0  0  0  0  0  0  0  0  0  0
  -10.0740    5.2779  144.9185 C   0  0  0  0  0  0  0  0  0  0  0  0
  -11.8731    0.6123  135.6044 C   0  0  0  0  0  0  0  0  0  0  0  0
  -16.2085   -0.2173  138.5812 C   0  0  0  0  0  0  0  0  0  0  0  0
  -15.7734   -1.6857  138.4821 C   0  0  0  0  0  0  0  0  0  0  0  0
  -17.4809    0.4814  139.1690 C   0  0  0  0  0  0  0  0  0  0  0  0
  -12.8161    0.9010  134.3821 C   0  0  0  0  0  0  0  0  0  0  0  0
  -13.4781    2.3439  134.1718 C   0  0  0  0  0  0  0  0  0  0  0  0
  -12.6599   -0.0161  136.8298 C   0  0  0  0  0  0  0  0  0  0  0  0
  -16.1864   -2.5836  139.5115 O   0  0  0  0  0  0  0  0  0  0  0  0
  -16.7373   -1.1577  137.6445 O   0  0  0  0  0  0  0  0  0  0  0  0
  -15.0215   -3.1973  140.1249 C   0  0  0  0  0  0  0  0  0  0  0  0
  -18.3834    1.1372  138.3915 C   0  0  0  0  0  0  0  0  0  0  0  0
  -14.7023    2.7067  135.0247 C   0  0  0  0  0  0  0  0  0  0  0  0
  -13.6059   -3.0602  139.4271 C   0  0  0  0  0  0  0  0  0  0  0  0
  -15.3161   -4.7004  140.2551 C   0  0  0  0  0  0  0  0  0  0  0  0
  -12.5753   -3.5363  140.2704 O   0  0  0  0  0  0  0  0  0  0  0  0
  -18.4304    1.1781  136.8718 C   0  0  0  0  0  0  0  0  0  0  0  0
  2  1  1  0
  3  2  1  0
  4  2  1  0
  5  4  1  0
  6  5  1  0
  7  6  1  0
  9  8  1  0
 10  9  1  0
 11 10  1  0
 12  7  1  0
 12  8  1  0
 13 10  1  0
 14 11  1  0
 15  8  1  0
 16 14  1  0
 17 16  1  0
 18 15  1  0
 19 17  1  0
 20 19  1  0
 21 20  1  0
 22 10  1  0
 22 13  1  0
 22 14  1  0
 22 16  1  0
 23 21  1  0
 24 23  2  0
 25  4  1  0
 25  5  1  0
 26 21  1  0
 27 20  1  0
 28 18  1  0
 29 17  1  0
 29 19  1  0
 29 24  1  0
 31 18  1  0
 32 31  1  0
 33 31  1  0
 34 30  1  0
 35 25  1  0
 35 34  1  0
 36 28  1  0
 36 30  1  0
 37 32  1  0
 38 31  1  0
 38 32  1  0
 39 37  1  0
 40 33  2  3
 41 35  1  0
 42 39  1  0
 43 39  1  0
 44 42  1  0
 45 40  1  0
M  END
$$$$

     RDKit          3D

 43 49  0  0  0  0  0  0  0  0999 V2000
  -19.2627    2.3525  138.8986 O   0  0  0  0  0  0  0  0  0  0  0  0
  -20.4041    2.8694  139.4335 C   0  0  0  0  0  0  0  0  0  0  0  0
  -20.8137    4.1587  139.0186 C   0  0  0  0  0  0  0  0  0  0  0  0
  -21.1000    3.9212  138.7853 C   0  0  0  0  0  0  0  0  0  0  0  0
  -19.6052    3.4072  139.2625 C   0  0  0  0  0  0  0  0  0  0  0  0
  -20.3156    3.1045  137.6090 S   0  0  0  0  0  6  0  0  0  0  0  0
  -18.7894    3.4765  137.4217 S   0  0  0  0  0  5  0  0  0  0  0  0
  -20.7612    2.1148  139.5210 O   0  0  0  0  0  0  0  0  0  0  0  0
  -18.3644    4.6004  138.3300 N   0  0  0  0  0  2  0  0  0  0  0  0
  -19.5459    5.0489  139.3101 C   0  0  0  0  0  0  0  0  0  0  0  0
  -19.2084    3.8493  136.0752 N   0  0  0  0  0  0  0  0  0  0  0  0
  -21.3349    2.8652  136.5442 C   0  0  0  0  0  0  0  0  0  0  0  0
  -19.9519    0.7934  139.7950 C   0  0  0  0  0  0  0  0  0  0  0  0
  -19.9576    1.9913  138.5634 C   0  0  0  0  0  0  0  0  0  0  0  0
  -19.3877    2.0037  137.8069 C   0  0  0  0  0  0  0  0  0  0  0  0
  -20.9690    1.9137  135.5777 C   0  0  0  0  0  0  0  0  0  0  0  0
  -19.8541    2.4873  134.7757 C   0  0  0  0  0  0  0  0  0  0  0  0
  -19.3565    5.5477  138.7848 C   0  0  0  0  0  0  0  0  0  0  0  0
  -19.0229    5.1054  137.2844 C   0  0  0  0  0  0  0  0  0  0  0  0
  -21.2072    0.2101  139.2326 C   0  0  0  0  0  0  0  0  0  0  0  0
  -20.0623    1.6692  138.5897 C   0  0  0  0  0  0  0  0  0  0  0  0
  -19.9610    2.8328  135.2621 C   0  0  0  0  0  0  0  0  0  0  0  0
  -21.0915   -1.3535  139.1021 C   0  0  0  0  0  0  0  0  0  0  0  0
  -21.0893    0.1784  140.5698 C   0  0  0  0  0  0  0  0  0  0  0  0
  -20.2949    1.1055  138.3475 C   0  0  0  0  0  0  0  0  0  0  0  0
  -22.3505    3.6747  139.7126 C   0  0  0  0  0  0  0  0  0  0  0  0
  -19.9321   -1.4892  138.2656 C   0  0  0  0  0  0  0  0  0  0  0  0
  -19.1285    1.2512  134.8587 C   0  0  0  0  0  0  0  0  0  0  0  0
  -22.1798   -0.4783  138.5593 C   0  0  0  0  0  0  0  0  0  0  0  0
  -19.0545    0.7963  136.1712 C   0  0  0  0  0  0  0  0  0  0  0  0
  -22.2691   -2.1734  138.8072 C   0  0  0  0  0  0  0  0  0  0  0  0
  -19.3664    1.7376  137.5154 Cl  0  0  0  0  0  0  0  0  0  0  0  0
  -18.9246    1.7671  137.1878 C   0  0  0  0  0  0  0  0  0  0  0  0
  -21.9306   -1.3834  138.7929 N   0  0  0  0  0  0  0  0  0  0  0  0
  -23.4568   -2.1190  139.6248 O   0  0  0  0  0  0  0  0  0  0  0  0
  -22.4022   -2.7435  140.0232 O   0  0  0  0  0  0  0  0  0  0  0  0
  -21.8587    1.3605  141.1811 C   0  0  0  0  0  0  0  0  0  0  0  0
  -20.8539   -0.0775  139.8060 C   0  0  0  0  0  0  0  0  0  0  0  0
  -22.1361   -3.0471  141.3848 C   0  0  0  0  0  0  0  0  0  0  0  0
  -19.3924    0.2795  133.9155 C   0  0  0  0  0  0  0  0  0  0  0  0
  -19.4762    1.2580  135.9057 N   0  0  0  0  0  0  0  0  0  0  0  0
  -23.8771   -3.2401  138.9012 C   0  0  0  0  0  0  0  0  0  0  0  0
  -18.3253    2.4477  134.7247 C   0  0  0  0  0  0  0  0  0  0  0  0
  3  2  1  0
  4  3  1  0
  5  2  1  0
  6  4  1  0
  6  5  1  0
  7  6  1  0
  8  2  2  0
 10  5  1  0
 11  6  1  0
 11  7  1  0
 12  6  1  0
 14  1  1  0
 15 14  1  0
 16 12  1  0
 18  9  1  0
 18 10  1  0
 19  7  1  0
 19  9  1  0
 19 18  1  0
 21 14  1  0
 22 11  1  0
 22 16  1  0
 22 17  1  0
 25 13  1  0
 25 21  1  0
 26  4  1  0
 27 23  1  0
 28 17  1  0
 29 20  1  0
 32 15  1  0
 33  7  1  0
 33 15  1  0
 33 30  1  0
 34 23  1  0
 34 29  1  0
 34 31  1  0
 36 31  1  0
 36 35  1  0
 37 24  1  0
 38 13  1  0
 38 20  1  0
 38 23  1  0
 38 24  1  0
 40 28  1  0
 41 28  1  0
 41 30  1  0
 42 35  1  0
 42 39  1  0
 43 17  1  0
M  RAD  2   7   2   9   2
M  END
$$$$

     RDKit          3D

 11 15  0  0  0  0  0  0  0  0999 V2000
  -29.1665   -9.7791  136.3264 O   0  0  0  0  0  0  0  0  0  0  0  0
  -29.8159   -8.5879  135.9486 C   0  0  0  0  0  0  0  0  0  0  0  0
  -31.3042   -8.7431  136.2153 C   0  0  0  0  0  0  0  0  0  0  0  0
  -31.8687   -7.4100  136.7380 C   0  0  0  0  0  0  0  0  0  0  0  0
  -30.7748   -8.7887  134.7841 C   0  0  0  0  0  0  0  0  0  0  0  0
  -30.2656   -9.3823  137.1142 C   0  0  0  0  0  0  0  0  0  0  0  0
  -30.9395   -7.5233  133.9237 C   0  0  0  0  0  0  0  0  0  0  0  0
  -30.6913   -7.6498  132.4273 C   0  0  0  0  0  0  0  0  0  0  0  0
  -31.7956   -7.0082  131.6160 C   0  0  0  0  0  0  0  0  0  0  0  0
  -30.4352   -8.9601  132.0051 O   0  0  0  0  0  0  0  0  0  0  0  0
  -32.1284   -7.5639  132.9831 C   0  0  0  0  0  0  0  0  0  0  0  0
  2  1  1  0
  3  2  1  0
  4  3  1  0
  5  2  1  0
  5  3  1  0
  6  1  1  0
  6  2  1  0
  6  3  1  0
  7  5  1  0
  8  7  1  0
  9  8  1  0
 10  8  1  0
 11  7  1  0
 11  8  1  0
 11  9  1  0
M  END
$$$$

     RDKit          3D

 45 61  0  0  0  0  0  0  0  0999 V2000
  -25.7683    3.4760  143.7137 O   0  0  0  0  0  0  0  0  0  0  0  0
  -25.7697    3.2429  142.2924 C   0  0  0  0  0  0  0  0  0  0  0  0
  -24.8971    2.2634  141.7870 O   0  0  0  0  0  0  0  0  0  0  0  0
  -27.1401    3.0768  141.8503 C   0  0  0  0  0  0  0  0  0  0  0  0
  -26.8237    2.8032  144.5174 C   0  0  0  0  0  0  0  0  0  0  0  0
  -26.4262    4.3225  141.2735 C   0  0  0  0  0  0  0  0  0  0  0  0
  -29.0369    0.9059  144.5961 C   0  0  0  0  0  0  0  0  0  0  0  0
  -30.0420   -0.1525  143.9786 C   0  0  0  0  0  0  0  0  0  0  0  0
  -30.0881   -2.3476  141.7455 C   0  0  0  0  0  0  0  0  0  0  0  0
  -27.7631    1.6297  143.8876 C   0  0  0  0  0  0  0  0  0  0  0  0
  -29.1811   -2.9651  142.8887 C   0  0  0  0  0  0  0  0  0  0  0  0
  -25.4207    5.5199  141.4873 C   0  0  0  0  0  0  0  0  0  0  0  0
  -30.2652   -2.7478  143.9464 C   0  0  0  0  0  0  0  0  0  0  0  0
  -30.0546   -1.4516  143.1152 C   0  0  0  0  0  0  0  0  0  0  0  0
  -28.7036   -0.6545  144.5520 C   0  0  0  0  0  0  0  0  0  0  0  0
  -28.5616   -1.5820  143.2697 C   0  0  0  0  0  0  0  0  0  0  0  0
  -24.2660    5.4753  142.3737 O   0  0  0  0  0  0  0  0  0  0  0  0
  -26.5720    6.4999  141.7420 C   0  0  0  0  0  0  0  0  0  0  0  0
  -27.5765    5.3219  141.5561 C   0  0  0  0  0  0  0  0  0  0  0  0
  -28.2429    3.5856  143.0060 C   0  0  0  0  0  0  0  0  0  0  0  0
  -22.4877    2.9768  141.4789 C   0  0  0  0  0  0  0  0  0  0  0  0
  -22.1443    2.2771  142.8207 C   0  0  0  0  0  0  0  0  0  0  0  0
  -22.4477   -0.1638  142.3867 C   0  0  0  0  0  0  0  0  0  0  0  0
  -22.4098   -0.1264  143.8678 N   0  0  0  0  0  0  0  0  0  0  0  0
  -23.9018    2.7307  140.8504 C   0  0  0  0  0  0  0  0  0  0  0  0
  -24.2355    6.3534  143.4788 C   0  0  0  0  0  0  0  0  0  0  0  0
  -28.6556    4.6921  142.9085 C   0  0  0  0  0  0  0  0  0  0  0  0
  -25.5627    6.7289  140.6156 C   0  0  0  0  0  0  0  0  0  0  0  0
  -22.9646    0.9942  143.1062 C   0  0  0  0  0  0  0  0  0  0  0  0
  -21.0963    0.0105  144.4397 C   0  0  0  0  0  0  0  0  0  0  0  0
  -20.1382   -1.1873  144.2427 C   0  0  0  0  0  0  0  0  0  0  0  0
  -19.7930   -1.7671  145.5939 C   0  0  0  0  0  0  0  0  0  0  0  0
  -21.3188    0.0732  145.9421 C   0  0  0  0  0  0  0  0  0  0  0  0
  -20.6129    1.2470  145.2431 C   0  0  0  0  0  0  0  0  0  0  0  0
  -30.2411    5.0488  142.5624 C   0  0  0  0  0  0  0  0  0  0  0  0
  -29.9960    6.4995  142.2917 C   0  0  0  0  0  0  0  0  0  0  0  0
  -31.1994    7.3687  142.7001 C   0  0  0  0  0  0  0  0  0  0  0  0
  -28.2062    3.2211  144.1567 C   0  0  0  0  0  0  0  0  0  0  0  0
  -18.4010   -0.6859  143.8347 S   0  0  0  0  0  0  0  0  0  0  0  0
  -28.5065    5.5218  140.3588 C   0  0  0  0  0  0  0  0  0  0  0  0
  -28.8628    6.6667  143.2363 N   0  0  0  0  0  0  0  0  0  0  0  0
  -20.4154   -0.8738  146.6930 C   0  0  0  0  0  0  0  0  0  0  0  0
  -18.2785   -1.5604  145.4466 C   0  0  0  0  0  0  0  0  0  0  0  0
  -28.3372    5.3705  143.7960 C   0  0  0  0  0  0  0  0  0  0  0  0
  -29.5938    6.5717  140.7392 C   0  0  0  0  0  0  0  0  0  0  0  0
  2  1  1  0
  3  2  1  0
  4  2  1  0
  5  1  1  0
  6  2  1  0
  6  4  1  0
  8  7  1  0
 10  5  1  0
 10  7  1  0
 11  9  1  0
 12  6  1  0
 13 11  1  0
 14  8  1  0
 14  9  1  0
 14 13  1  0
 15  7  1  0
 15  8  1  0
 16 11  1  0
 16 14  1  0
 16 15  1  0
 17 12  1  0
 18 12  1  0
 19  6  1  0
 19 18  1  0
 20  4  1  0
 22 21  1  0
 24 23  1  0
 25  3  1  0
 25 21  1  0
 26 17  1  0
 27 19  1  0
 28 12  1  0
 28 18  1  0
 29 22  1  0
 29 23  1  0
 29 24  1  0
 30 24  1  0
 31 30  1  0
 32 31  1  0
 33 30  1  0
 34 30  1  0
 34 33  1  0
 35 27  1  0
 36 35  1  0
 37 36  1  0
 38  5  1  0
 38 10  1  0
 38 20  1  0
 38 27  1  0
 39 31  1  0
 40 19  1  0
 41 36  1  0
 42 32  1  0
 42 33  1  0
 43 32  1  0
 43 39  1  0
 44 20  1  0
 44 27  1  0
 44 41  1  0
 45 36  1  0
 45 40  1  0
M  END
$$$$

     RDKit          3D

 40 45  0  0  0  0  0  0  0  0999 V2000
  -27.3167   -7.0579  150.2709 O   0  0  0  0  0  0  0  0  0  0  0  0
  -27.8190   -5.8554  149.1866 C   0  0  0  0  0  0  0  0  0  0  0  0
  -28.9865   -7.0858  144.6254 O   0  0  0  0  0  0  0  0  0  0  0  0
  -25.8746   -9.1387  150.9353 C   0  0  0  0  0  0  0  0  0  0  0  0
  -29.4360  -11.4307  152.0613 O   0  0  0  0  0  0  0  0  0  0  0  0
  -27.6504   -7.9251  152.0168 C   0  0  0  0  0  0  0  0  0  0  0  0
  -26.4304   -7.4701  152.8757 O   0  0  0  0  0  0  0  0  0  0  0  0
  -26.6248   -6.9230  150.8852 C   0  0  0  0  0  0  0  0  0  0  0  0
  -29.6851   -4.2583  148.6118 C   0  0  0  0  0  0  0  0  0  0  0  0
  -27.5550   -9.5286  152.2467 C   0  0  0  0  0  0  0  0  0  0  0  0
  -28.2582   -2.7373  147.2719 C   0  0  0  0  0  0  0  0  0  0  0  0
  -29.4893   -5.6061  147.4719 C   0  0  0  0  0  0  0  0  0  0  0  0
  -27.8494   -2.2619  145.2852 C   0  0  0  0  0  0  0  0  0  0  0  0
  -28.5655   -2.3282  143.6841 C   0  0  0  0  0  0  0  0  0  0  0  0
  -30.8099   -5.9526  145.7165 C   0  0  0  0  0  0  0  0  0  0  0  0
  -29.5105   -7.8046  148.3764 C   0  0  0  0  0  0  0  0  0  0  0  0
  -30.2195   -9.3421  151.2822 C   0  0  0  0  0  0  0  0  0  0  0  0
  -26.7155   -2.4616  143.1688 C   0  0  0  0  0  0  0  0  0  0  0  0
  -29.0016   -2.6725  146.3432 O   0  0  0  0  0  0  0  0  0  0  0  0
  -30.6941   -4.0163  142.7279 C   0  0  0  0  0  0  0  0  0  0  0  0
  -28.0791   -9.9058  151.4872 C   0  0  0  0  0  0  0  0  0  0  0  0
  -29.9442   -4.1831  144.6245 C   0  0  0  0  0  0  0  0  0  0  0  0
  -31.0066  -10.6721  150.3630 N   0  0  0  0  0  0  0  0  0  0  0  0
  -26.8560  -10.5057  152.7120 C   0  0  0  0  0  0  0  0  0  0  0  0
  -27.9243   -8.5799  148.3883 C   0  0  0  0  0  0  0  0  0  0  0  0
  -26.7527  -10.9015  147.3691 C   0  0  0  0  0  0  0  0  0  0  0  0
  -26.9713   -4.2536  144.3982 C   0  0  0  0  0  0  0  0  0  0  0  0
  -25.9382   -4.8654  148.8939 C   0  0  0  0  0  0  0  0  0  0  0  0
  -30.3723   -4.8295  140.7907 C   0  0  0  0  0  0  0  0  0  0  0  0
  -25.9441   -3.1684  150.6349 C   0  0  0  0  0  0  0  0  0  0  0  0
  -26.6366   -5.8442  145.0294 C   0  0  0  0  0  0  0  0  0  0  0  0
  -29.0335  -13.1482  146.5613 C   0  0  0  0  0  0  0  0  0  0  0  0
  -28.5045   -4.3649  142.5298 C   0  0  0  0  0  0  0  0  0  0  0  0
  -30.0892  -14.4643  146.4813 C   0  0  0  0  0  0  0  0  0  0  0  0
  -28.1300   -9.7253  148.2538 C   0  0  0  0  0  0  0  0  0  0  0  0
  -27.4460   -6.1409  146.2073 C   0  0  0  0  0  0  0  0  0  0  0  0
  -27.6167   -7.9588  147.5046 C   0  0  0  0  0  0  0  0  0  0  0  0
  -29.3734   -8.6327  146.7136 C   0  0  0  0  0  0  0  0  0  0  0  0
  -29.2572  -10.7084  145.9486 C   0  0  0  0  0  0  0  0  0  0  0  0
  -30.0036   -4.8308  143.4604 C   0  0  0  0  0  0  0  0  0  0  0  0
  2  1  1  0
  7  6  1  0
  8  1  1  0
  8  2  1  0
  8  4  1  0
  8  6  1  0
 10  4  1  0
 10  5  1  0
 10  6  1  0
 11  9  1  0
 12  9  1  0
 13 11  1  0
 14 13  1  0
 15 12  1  0
 16 12  1  0
 18 13  1  0
 19 11  1  0
 19 13  1  0
 21  6  1  0
 21 17  1  0
 22 15  1  0
 22 20  1  0
 23 17  1  0
 24 10  1  0
 24 21  1  0
 25 16  1  0
 27 22  1  0
 29 20  1  0
 30 28  1  0
 31 27  1  0
 33 14  1  0
 34 32  1  0
 35 25  1  0
 35 26  1  0
 36  2  1  0
 36  3  1  0
 36 31  1  0
 37 28  1  0
 37 35  1  0
 38 16  1  0
 38 37  1  0
 39 32  1  0
 39 38  1  0
 40 20  1  0
 40 33  1  0
M  END
$$$$

     RDKit          3D

 44 54  0  0  0  0  0  0  0  0999 V2000
  -28.0395   -2.2726  150.5208 C   0  0  0  0  0  0  0  0  0  0  0  0
  -26.8819   -1.2934  150.1393 C   0  0  0  0  0  0  0  0  0  0  0  0
  -26.8404   -3.0351  151.8430 Si  0  0  0  0  0  4  0  0  0  0  0  0
  -26.8197   -3.3908  148.1536 C   0  0  0  0  0  0  0  0  0  0  0  0
  -26.4850   -3.8058  144.8193 C   0  0  0  0  0  0  0  0  0  0  0  0
  -25.8077   -5.5824  149.4053 C   0  0  0  0  0  0  0  0  0  0  0  0
  -27.8361   -3.9974  147.1074 C   0  0  0  0  0  0  0  0  0  0  0  0
  -27.6345   -6.7140  148.7090 F   0  0  0  0  0  0  0  0  0  0  0  0
  -24.3766   -4.8798  145.3024 F   0  0  0  0  0  0  0  0  0  0  0  0
  -27.5241   -2.2036  149.0919 C   0  0  0  0  0  0  0  0  0  0  0  0
  -22.9057   -0.5975  152.4078 C   0  0  0  0  0  0  0  0  0  0  0  0
  -25.8452   -1.7689  151.1645 C   0  0  0  0  0  0  0  0  0  0  0  0
  -21.0875   -1.7426  151.8286 C   0  0  0  0  0  0  0  0  0  0  0  0
  -20.6714   -3.0388  152.5675 C   0  0  0  0  0  0  0  0  0  0  0  0
  -23.3743    0.7848  151.7004 C   0  0  0  0  0  0  0  0  0  0  0  0
  -21.4188   -0.9336  153.0898 C   0  0  0  0  0  0  0  0  0  0  0  0
  -22.7929    0.2335  149.1508 C   0  0  0  0  0  0  0  0  0  0  0  0
  -23.8459    0.7196  150.1828 C   0  0  0  0  0  0  0  0  0  0  0  0
  -21.1127   -2.3837  153.8577 C   0  0  0  0  0  0  0  0  0  0  0  0
  -23.6317   -0.9504  148.3316 C   0  0  0  0  0  0  0  0  0  0  0  0
  -22.4339    2.0734  152.0743 C   0  0  0  0  0  0  0  0  0  0  0  0
  -23.5986   -2.9100  151.6713 C   0  0  0  0  0  0  0  0  0  0  0  0
  -23.6847   -2.0154  146.4203 C   0  0  0  0  0  0  0  0  0  0  0  0
  -25.0015   -2.9974  151.0364 C   0  0  0  0  0  0  0  0  0  0  0  0
  -22.6603   -1.6730  151.3613 C   0  0  0  0  0  0  0  0  0  0  0  0
  -26.3777   -8.3413  146.8320 C   0  0  0  0  0  0  0  0  0  0  0  0
  -22.6968    0.2961  146.6557 C   0  0  0  0  0  0  0  0  0  0  0  0
  -23.9013   -0.6054  146.9076 C   0  0  0  0  0  0  0  0  0  0  0  0
  -21.3382   -0.4405  146.7575 C   0  0  0  0  0  0  0  0  0  0  0  0
  -25.8045   -9.5739  146.1211 C   0  0  0  0  0  0  0  0  0  0  0  0
  -26.2797   -6.8902  148.9281 C   0  0  0  0  0  0  0  0  0  0  0  0
  -25.5057   -7.4841  147.7675 C   0  0  0  0  0  0  0  0  0  0  0  0
  -25.0555   -4.2737  144.2640 C   0  0  0  0  0  0  0  0  0  0  0  0
  -27.1510   -6.3099  145.3534 C   0  0  0  0  0  0  0  0  0  0  0  0
  -21.4267   -1.8287  147.4662 C   0  0  0  0  0  0  0  0  0  0  0  0
  -25.7343   -4.3488  148.7125 C   0  0  0  0  0  0  0  0  0  0  0  0
  -27.4104   -4.7296  145.6893 C   0  0  0  0  0  0  0  0  0  0  0  0
  -27.5513   -7.6158  146.1332 C   0  0  0  0  0  0  0  0  0  0  0  0
  -26.5799   -9.7969  147.4493 C   0  0  0  0  0  0  0  0  0  0  0  0
  -20.8041    0.6491  147.6653 C   0  0  0  0  0  0  0  0  0  0  0  0
  -27.0383   -6.5609  144.0215 C   0  0  0  0  0  0  0  0  0  0  0  0
  -22.2714    1.0587  147.9550 C   0  0  0  0  0  0  0  0  0  0  0  0
  -22.9165   -2.1864  147.7752 C   0  0  0  0  0  0  0  0  0  0  0  0
  -25.5938  -10.5920  148.3448 C   0  0  0  0  0  0  0  0  0  0  0  0
  2  1  1  0
  3  1  1  0
  7  4  1  0
 10  1  1  0
 10  2  1  0
 10  4  1  0
 12  2  1  0
 12  3  1  0
 14 13  1  0
 15 11  1  0
 16 11  1  0
 16 13  1  0
 18 15  1  0
 18 17  1  0
 19 14  1  0
 19 16  1  0
 20 17  1  0
 21 15  1  0
 24  3  1  0
 24 12  1  0
 24 22  1  0
 25 11  1  0
 25 13  1  0
 25 22  1  0
 28 20  1  0
 28 23  1  0
 28 27  1  0
 29 27  1  0
 30 26  1  0
 31  6  1  0
 31  8  1  0
 32 26  1  0
 32 31  1  0
 33  5  1  0
 33  9  1  0
 35 29  1  0
 36  4  1  0
 36  6  2  3
 37  5  1  0
 37  7  1  0
 37 34  1  0
 38 26  1  0
 38 34  1  0
 39 26  1  0
 39 30  1  0
 40 29  1  0
 41 34  2  0
 42 17  1  0
 42 27  1  0
 42 40  1  0
 43 20  1  0
 43 23  1  0
 43 35  1  0
 44 39  1  0
M  END
$$$$

     RDKit          3D

 27 30  0  0  0  0  0  0  0  0999 V2000
  -25.0033  -29.3954  149.1155 F   0  0  0  0  0  0  0  0  0  0  0  0
  -28.1384  -26.2833  148.5841 O   0  0  0  0  0  0  0  0  0  0  0  0
  -25.1455  -29.2151  152.2221 O   0  0  0  0  0  0  0  0  0  0  0  0
  -25.9290  -25.7267  152.5446 P   0  0  0  0  0  0  0  0  0  0  0  0
  -26.5779  -27.6602  150.5564 S   0  0  0  0  0  4  0  0  0  0  0  0
  -25.6194  -23.5107  154.0479 O   0  0  0  0  0  0  0  0  0  0  0  0
  -30.5300  -25.7474  154.3116 O   0  0  0  0  0  0  0  0  0  0  0  0
  -27.2830  -28.5269  153.1092 C   0  0  0  0  0  0  0  0  0  0  0  0
  -29.3193  -27.8206  153.9236 C   0  0  0  0  0  0  0  0  0  0  0  0
  -30.5791  -26.6132  152.0757 C   0  0  0  0  0  0  0  0  0  0  0  0
  -27.9262  -27.8114  154.1524 O   0  0  0  0  0  0  0  0  0  0  0  0
  -25.0646  -27.1358  153.4069 C   0  0  0  0  0  0  0  0  0  0  0  0
  -25.6645  -28.6254  148.1702 C   0  0  0  0  0  0  0  0  0  0  0  0
  -27.2525  -26.7014  147.8558 C   0  0  0  0  0  0  0  0  0  0  0  0
  -25.9040  -27.1331  148.4793 C   0  0  0  0  0  0  0  0  0  0  0  0
  -25.7528  -28.5036  153.2545 C   0  0  0  0  0  0  0  0  0  0  0  0
  -24.7738  -27.6070  147.5025 C   0  0  0  0  0  0  0  0  0  0  0  0
  -29.7741  -26.4561  153.3602 C   0  0  0  0  0  0  0  0  0  0  0  0
  -23.3071  -27.6877  147.9787 C   0  0  0  0  0  0  0  0  0  0  0  0
  -27.5842  -26.8462  146.3757 C   0  0  0  0  0  0  0  0  0  0  0  0
  -28.4255  -25.7972  145.9610 O   0  0  0  0  0  0  0  0  0  0  0  0
  -25.3173  -24.3737  150.1546 C   0  0  0  0  0  0  0  0  0  0  0  0
  -25.6560  -26.8913  150.0124 C   0  0  0  0  0  0  0  0  0  0  0  0
  -22.2610  -27.1608  146.9883 C   0  0  0  0  0  0  0  0  0  0  0  0
  -26.6246  -24.4112  153.6680 C   0  0  0  0  0  0  0  0  0  0  0  0
  -26.1303  -25.5681  150.6639 C   0  0  0  0  0  0  0  0  0  0  0  0
  -22.4730  -28.6600  147.1509 C   0  0  0  0  0  0  0  0  0  0  0  0
  8  5  1  0
 10  5  1  0
 11  8  1  0
 11  9  1  0
 12  4  1  0
 13  1  1  0
 14  2  2  0
 15 13  1  0
 15 14  1  0
 16  3  1  0
 16  5  1  0
 16  8  1  0
 16 12  1  0
 17 13  1  0
 17 15  1  0
 18  7  1  0
 18  9  1  0
 18 10  1  0
 19 17  1  0
 20 14  1  0
 21 20  1  0
 23 15  1  0
 24 19  1  0
 25  4  1  0
 25  6  1  0
 26  4  1  0
 26 22  1  0
 26 23  1  0
 27 19  1  0
 27 24  1  0
M  END
$$$$

     RDKit          3D

 45 55  0  0  0  0  0  0  0  0999 V2000
  -31.5652   -3.1957  134.9838 O   0  0  0  0  0  0  0  0  0  0  0  0
  -31.0387   -5.3253  133.3570 C   0  0  0  0  0  0  0  0  0  0  0  0
  -28.2532   -6.3345  131.0848 O   0  0  0  0  0  0  0  0  0  0  0  0
  -28.2677   -0.1925  131.8902 C   0  0  0  0  0  0  0  0  0  0  0  0
  -28.1234   -4.9050  133.8601 C   0  0  0  0  0  0  0  0  0  0  0  0
  -20.5135  -11.6097  140.0641 C   0  0  0  0  0  0  0  0  0  0  0  0
  -26.6245   -0.1477  131.2324 C   0  0  0  0  0  0  0  0  0  0  0  0
  -27.0062   -4.2588  130.3682 C   0  0  0  0  0  0  0  0  0  0  0  0
  -29.3305   -4.3595  132.1208 C   0  0  0  0  0  0  0  0  0  0  0  0
  -33.1337   -3.3208  134.7859 C   0  0  0  0  0  0  0  0  0  0  0  0
  -31.8586   -5.9143  136.6298 C   0  0  0  0  0  0  0  0  0  0  0  0
  -31.4796   -4.1763  135.9866 C   0  0  0  0  0  0  0  0  0  0  0  0
  -30.4346   -1.2893  134.9593 C   0  0  0  0  0  0  0  0  0  0  0  0
  -29.8820   -2.9312  136.5096 C   0  0  0  0  0  0  0  0  0  0  0  0
  -32.0482   -2.6791  137.4717 C   0  0  0  0  0  0  0  0  0  0  0  0
  -31.7142   -6.7980  135.2954 C   0  0  0  0  0  0  0  0  0  0  0  0
  -29.9510   -7.5060  137.3305 C   0  0  0  0  0  0  0  0  0  0  0  0
  -31.4513  -10.1856  129.4390 C   0  0  0  0  0  0  0  0  0  0  0  0
  -31.2327   -3.6846  137.1501 C   0  0  0  0  0  0  0  0  0  0  0  0
  -24.5092   -8.1507  138.3180 C   0  0  0  0  0  0  0  0  0  0  0  0
  -22.9073   -6.5869  135.6624 C   0  0  0  0  0  0  0  0  0  0  0  0
  -28.3134   -4.4401  137.1521 C   0  0  0  0  0  0  0  0  0  0  0  0
  -28.4644   -9.9552  129.4564 C   0  0  0  0  0  0  0  0  0  0  0  0
  -24.7928   -5.5971  133.9658 C   0  0  0  0  0  0  0  0  0  0  0  0
  -26.4086   -9.9855  128.5535 C   0  0  0  0  0  0  0  0  0  0  0  0
  -31.1500   -0.7528  137.3495 C   0  0  0  0  0  0  0  0  0  0  0  0
  -27.8387  -10.1443  137.3478 C   0  0  0  0  0  0  0  0  0  0  0  0
  -25.3377   -3.0205  133.7608 C   0  0  0  0  0  0  0  0  0  0  0  0
  -22.1743   -9.3304  140.1887 C   0  0  0  0  0  0  0  0  0  0  0  0
  -25.0984  -10.1412  130.5028 C   0  0  0  0  0  0  0  0  0  0  0  0
  -25.9634   -6.2716  127.6180 C   0  0  0  0  0  0  0  0  0  0  0  0
  -22.2043   -4.4213  135.0222 C   0  0  0  0  0  0  0  0  0  0  0  0
  -28.6454   -1.2913  140.0660 C   0  0  0  0  0  0  0  0  0  0  0  0
  -29.3074   -7.6179  126.8175 C   0  0  0  0  0  0  0  0  0  0  0  0
  -24.1339   -7.1533  128.0773 C   0  0  0  0  0  0  0  0  0  0  0  0
  -26.4730   -6.7522  126.6129 C   0  0  0  0  0  0  0  0  0  0  0  0
  -27.4034   -6.8384  129.1168 C   0  0  0  0  0  0  0  0  0  0  0  0
  -28.1596  -10.9642  133.6007 C   0  0  0  0  0  0  0  0  0  0  0  0
  -26.5844   -8.4183  137.2971 C   0  0  0  0  0  0  0  0  0  0  0  0
  -22.6694  -12.4822  131.5995 C   0  0  0  0  0  0  0  0  0  0  0  0
  -22.2755  -13.5510  130.6934 C   0  0  0  0  0  0  0  0  0  0  0  0
  -28.9763   -0.8726  137.6060 C   0  0  0  0  0  0  0  0  0  0  0  0
  -29.2448  -10.5983  141.0959 C   0  0  0  0  0  0  0  0  0  0  0  0
  -31.5705  -11.9236  140.6738 O   0  0  0  0  0  0  0  0  0  0  0  0
  -27.4254   -8.1151  126.1281 C   0  0  0  0  0  0  0  0  0  0  0  0
  2  1  1  0
  5  2  1  0
  5  3  1  0
  7  4  1  0
  8  7  1  0
  9  2  1  0
  9  4  1  0
  9  5  1  0
  9  8  1  0
 10  1  1  0
 12 10  1  0
 12 11  1  0
 13  7  1  0
 14 12  1  0
 15 14  1  0
 16 12  1  0
 16 14  1  0
 17 11  1  0
 17 16  1  0
 19 11  1  0
 19 15  1  0
 21 20  1  0
 22 13  1  0
 23 18  1  0
 24 21  1  0
 25 23  1  0
 26 15  1  0
 26 19  1  0
 27 17  1  0
 27 20  1  0
 28 24  2  0
 29  6  1  0
 29 20  1  0
 30 25  1  0
 31 25  1  0
 32 21  1  0
 33 22  1  0
 34 18  1  0
 35 31  1  0
 36 34  1  0
 36 35  1  0
 37 30  1  0
 38 23  1  0
 39 22  1  0
 39 38  1  0
 40 30  1  0
 41 40  2  0
 42 13  1  0
 42 26  1  0
 42 33  1  0
 43 39  1  0
 44 43  1  0
 45 23  1  0
 45 31  1  0
 45 34  1  0
M  END
$$$$

     RDKit          3D

 44 49  0  0  0  0  0  0  0  0999 V2000
  -18.2709  -10.7900  135.4740 C   0  0  0  0  0  0  0  0  0  0  0  0
  -20.2287   -6.1050  136.0084 F   0  0  0  0  0  0  0  0  0  0  0  0
  -23.7396   -8.7072  135.0293 F   0  0  0  0  0  0  0  0  0  0  0  0
  -24.5409   -8.7183  136.6352 C   0  0  0  0  0  0  0  0  0  0  0  0
  -17.1968   -7.3467  133.0271 F   0  0  0  0  0  0  0  0  0  0  0  0
  -20.5720   -8.3071  137.9990 C   0  0  0  0  0  0  0  0  0  0  0  0
  -18.9170   -9.3533  136.8870 C   0  0  0  0  0  0  0  0  0  0  0  0
  -24.8461   -5.6383  135.7459 C   0  0  0  0  0  0  0  0  0  0  0  0
  -25.1000   -1.2269  135.6224 C   0  0  0  0  0  0  0  0  0  0  0  0
  -17.2600   -0.2189  138.4340 C   0  0  0  0  0  0  0  0  0  0  0  0
  -16.5141   -7.7452  140.1891 C   0  0  0  0  0  0  0  0  0  0  0  0
  -22.4300    3.2434  138.6782 C   0  0  0  0  0  0  0  0  0  0  0  0
  -25.6406   -8.7676  140.7426 C   0  0  0  0  0  0  0  0  0  0  0  0
  -24.1834   -2.5877  136.8963 C   0  0  0  0  0  0  0  0  0  0  0  0
  -17.1799    2.3470  146.1139 C   0  0  0  0  0  0  0  0  0  0  0  0
  -21.3776    1.7733  139.9699 C   0  0  0  0  0  0  0  0  0  0  0  0
  -15.0682   -3.1088  137.9801 C   0  0  0  0  0  0  0  0  0  0  0  0
  -23.7968    1.6323  135.7774 C   0  0  0  0  0  0  0  0  0  0  0  0
  -21.6671    9.0243  144.4685 C   0  0  0  0  0  0  0  0  0  0  0  0
  -15.2307   -5.3180  135.9586 C   0  0  0  0  0  0  0  0  0  0  0  0
  -19.4546    4.5607  146.3224 C   0  0  0  0  0  0  0  0  0  0  0  0
  -18.3701   -5.7112  133.9224 C   0  0  0  0  0  0  0  0  0  0  0  0
  -17.8296    0.5980  148.5182 C   0  0  0  0  0  0  0  0  0  0  0  0
  -22.3866    1.7688  131.9083 C   0  0  0  0  0  0  0  0  0  0  0  0
  -22.3856   -9.6113  136.0049 C   0  0  0  0  0  0  0  0  0  0  0  0
  -11.0051    0.7148  149.6907 C   0  0  0  0  0  0  0  0  0  0  0  0
  -13.8492   -5.5779  138.5065 N   0  0  0  0  0  0  0  0  0  0  0  0
  -18.3993   -5.2940  137.6545 C   0  0  0  0  0  0  0  0  0  0  0  0
  -18.0844   -2.4008  133.5665 C   0  0  0  0  0  0  0  0  0  0  0  0
  -22.0708    4.8724  139.8279 C   0  0  0  0  0  0  0  0  0  0  0  0
  -14.4231   -0.1063  150.0664 C   0  0  0  0  0  0  0  0  0  0  0  0
  -14.6479   -1.2288  140.7594 C   0  0  0  0  0  0  0  0  0  0  0  0
  -17.8920   -6.0933  135.7245 C   0  0  0  0  0  0  0  0  0  0  0  0
  -15.9292    5.5070  133.5478 C   0  0  0  0  0  0  0  0  0  0  0  0
  -14.4209   -3.7947  140.0073 C   0  0  0  0  0  0  0  0  0  0  0  0
  -19.5288    3.6914  141.5972 C   0  0  0  0  0  0  0  0  0  0  0  0
  -20.8758   -6.7820  136.3678 O   0  0  0  0  0  0  0  0  0  0  0  0
  -11.8000   -1.4249  144.6564 C   0  0  0  0  0  0  0  0  0  0  0  0
  -17.9899    4.1742  140.2432 C   0  0  0  0  0  0  0  0  0  0  0  0
  -14.7991   -3.2003  136.0150 C   0  0  0  0  0  0  0  0  0  0  0  0
  -19.1561   -0.1373  131.1722 C   0  0  0  0  0  0  0  0  0  0  0  0
  -22.0371    6.4532  141.8718 C   0  0  0  0  0  0  0  0  0  0  0  0
  -20.3940   -4.0589  131.8831 C   0  0  0  0  0  0  0  0  0  0  0  0
  -23.6092    4.4650  142.3723 C   0  0  0  0  0  0  0  0  0  0  0  0
  5  1  1  0
  6  1  1  0
  8  4  1  0
  9  8  1  0
 11  7  1  0
 12  9  1  0
 13  6  1  0
 14  8  1  0
 14  9  1  0
 16 14  1  0
 18  9  1  0
 19 12  1  0
 20 17  1  0
 21 15  1  0
 21 19  1  0
 22 20  2  0
 23 21  1  0
 24 18  1  0
 25  3  1  0
 25  4  1  0
 25  6  1  0
 26 15  1  0
 28  7  1  0
 28 13  1  0
 28 17  1  0
 30 12  1  0
 30 15  1  0
 30 18  1  0
 31 15  1  0
 31 23  1  0
 31 26  1  0
 32 10  1  0
 33  1  1  0
 33  2  1  0
 33 10  1  0
 35 27  1  0
 36 16  1  0
 37 33  1  0
 38 32  1  0
 38 35  1  0
 39 10  1  0
 40 27  1  0
 40 29  1  0
 40 32  1  0
 41 29  1  0
 41 34  1  0
 42 16  1  0
 43 29  1  0
 44 42  1  0
M  END
$$$$

     RDKit          3D

 45 48  0  0  0  0  0  0  0  0999 V2000
  -19.2740   -4.0320  140.9389 C   0  0  0  0  0  0  0  0  0  0  0  0
  -18.0413   -4.4541  140.1217 C   0  0  0  0  0  0  0  0  0  0  0  0
  -18.4899   -5.7705  139.4587 C   0  0  0  0  0  0  0  0  0  0  0  0
  -21.4845   -5.3477  141.0927 C   0  0  0  0  0  0  0  0  0  0  0  0
  -17.7788   -3.3444  139.0444 C   0  0  0  0  0  0  0  0  0  0  0  0
  -20.5169   -4.5476  140.2265 C   0  0  0  0  0  0  0  0  0  0  0  0
  -17.4510   -6.5247  138.4571 C   0  0  0  0  0  0  0  0  0  0  0  0
  -17.7297   -1.7421  139.3239 C   0  0  0  0  0  0  0  0  0  0  0  0
  -16.2994   -6.4731  137.2767 C   0  0  0  0  0  0  0  0  0  0  0  0
  -15.6381   -8.7526  138.2527 C   0  0  0  0  0  0  0  0  0  0  0  0
  -15.6313  -10.3351  138.4358 C   0  0  0  0  0  0  0  0  0  0  0  0
  -14.3695  -11.0938  138.9567 C   0  0  0  0  0  0  0  0  0  0  0  0
  -16.6414   -0.9455  140.1993 C   0  0  0  0  0  0  0  0  0  0  0  0
  -13.1776   -6.7900  136.6218 C   0  0  0  0  0  0  0  0  0  0  0  0
  -17.9866   -3.6844  137.5806 C   0  0  0  0  0  0  0  0  0  0  0  0
  -14.5120   -1.9694  141.2327 C   0  0  0  0  0  0  0  0  0  0  0  0
  -14.4516   -0.9797  137.2025 C   0  0  0  0  0  0  0  0  0  0  0  0
  -14.8322    0.0015  134.5502 C   0  0  0  0  0  0  0  0  0  0  0  0
  -13.3254  -11.3923  137.9364 C   0  0  0  0  0  0  0  0  0  0  0  0
  -13.6656  -10.6085  140.2781 C   0  0  0  0  0  0  0  0  0  0  0  0
  -13.2107  -12.5413  137.2888 C   0  0  0  0  0  0  0  0  0  0  0  0
  -12.8226  -12.5131  135.8220 C   0  0  0  0  0  0  0  0  0  0  0  0
  -16.3682    0.0005  134.8429 C   0  0  0  0  0  0  0  0  0  0  0  0
  -15.6254   -7.9220  136.9228 C   0  0  0  0  0  0  0  0  0  0  0  0
  -20.0239   -5.4662  139.0727 C   0  0  0  0  0  0  0  0  0  0  0  0
  -15.6868  -10.2382  141.7391 C   0  0  0  0  0  0  0  0  0  0  0  0
  -16.9708  -10.3009  140.8494 C   0  0  0  0  0  0  0  0  0  0  0  0
  -14.9939   -1.1647  140.0411 C   0  0  0  0  0  0  0  0  0  0  0  0
  -14.8296   -0.7109  133.1866 C   0  0  0  0  0  0  0  0  0  0  0  0
  -13.8496  -14.9011  135.4998 C   0  0  0  0  0  0  0  0  0  0  0  0
  -14.2415   -7.9109  136.2499 C   0  0  0  0  0  0  0  0  0  0  0  0
  -14.4141   -9.5672  141.1391 C   0  0  0  0  0  0  0  0  0  0  0  0
  -16.8102   -1.4067  134.3563 C   0  0  0  0  0  0  0  0  0  0  0  0
  -16.1741   -2.7129  134.9636 C   0  0  0  0  0  0  0  0  0  0  0  0
  -17.2828   -0.2962  141.5266 C   0  0  0  0  0  0  0  0  0  0  0  0
  -16.2833   -1.3760  132.9728 C   0  0  0  0  0  0  0  0  0  0  0  0
  -16.6102   -3.7476  138.2011 C   0  0  0  0  0  0  0  0  0  0  0  0
  -13.0057  -13.7616  134.9034 C   0  0  0  0  0  0  0  0  0  0  0  0
  -11.7604  -14.2567  134.3021 C   0  0  0  0  0  0  0  0  0  0  0  0
  -14.1055   -1.6683  138.6389 C   0  0  0  0  0  0  0  0  0  0  0  0
  -16.8636  -10.8263  139.3796 C   0  0  0  0  0  0  0  0  0  0  0  0
  -13.8790   -0.4537  135.8527 C   0  0  0  0  0  0  0  0  0  0  0  0
  -12.9670    0.4612  136.2969 C   0  0  0  0  0  0  0  0  0  0  0  0
  -15.2710   -0.0346  137.3665 C   0  0  0  0  0  0  0  0  0  0  0  0
  -14.9383   -1.7432  142.3355 O   0  0  0  0  0  0  0  0  0  0  0  0
  2  1  1  0
  3  2  1  0
  5  2  1  0
  6  1  1  0
  6  4  1  0
  7  3  1  0
  8  5  1  0
  9  7  1  0
 11 10  1  0
 12 11  1  0
 13  8  1  0
 15  5  1  0
 19 12  1  0
 20 12  1  0
 21 19  2  3
 22 21  1  0
 23 18  1  0
 24  9  1  0
 24 10  1  0
 25  3  1  0
 25  6  1  0
 27 26  1  0
 28 13  1  0
 28 16  1  0
 29 18  1  0
 31 14  1  0
 31 24  1  0
 32 20  1  0
 32 26  1  0
 33 23  1  0
 34 33  1  0
 35 13  1  0
 36 29  1  0
 36 33  1  0
 37  5  1  0
 37 15  1  0
 38 22  1  0
 38 30  1  0
 39 38  1  0
 40 17  1  0
 40 28  1  0
 41 11  1  0
 41 27  1  0
 42 17  1  0
 42 18  1  0
 43 42  2  0
 44 17  2  0
 45 16  2  0
M  END
$$$$

     RDKit          3D

 45 50  0  0  0  0  0  0  0  0999 V2000
  -22.9497  -23.1780  133.0850 C   0  0  0  0  0  0  0  0  0  0  0  0
  -20.8540  -21.4147  135.4266 C   0  0  0  0  0  0  0  0  0  0  0  0
  -21.3003  -24.4242  132.4771 C   0  0  0  0  0  0  0  0  0  0  0  0
  -22.2059  -19.3226  134.0812 C   0  0  0  0  0  0  0  0  0  0  0  0
  -17.2678  -25.1466  132.1714 C   0  0  0  0  0  0  0  0  0  0  0  0
  -14.7608  -25.2069  131.3805 C   0  0  0  0  0  0  0  0  0  0  0  0
  -12.4181  -26.8858  130.7380 C   0  0  0  0  0  0  0  0  0  0  0  0
  -23.1987  -18.8605  132.1353 C   0  0  0  0  0  0  0  0  0  0  0  0
  -12.1181  -29.3380  130.0302 C   0  0  0  0  0  0  0  0  0  0  0  0
  -20.6730  -14.8943  133.2546 C   0  0  0  0  0  0  0  0  0  0  0  0
  -10.6511  -31.3086  129.6949 C   0  0  0  0  0  0  0  0  0  0  0  0
  -19.2462  -12.0489  133.2263 O   0  0  0  0  0  0  0  0  0  0  0  0
  -18.3613  -16.4808  133.9670 C   0  0  0  0  0  0  0  0  0  0  0  0
  -19.6819  -19.6592  134.0152 C   0  0  0  0  0  0  0  0  0  0  0  0
  -20.2961  -24.6189  134.7873 C   0  0  0  0  0  0  0  0  0  0  0  0
  -17.1954  -23.8160  137.3282 C   0  0  0  0  0  0  0  0  0  0  0  0
  -18.9210  -10.1573  134.5085 C   0  0  0  0  0  0  0  0  0  0  0  0
  -25.0451  -23.4776  132.7988 C   0  0  0  0  0  0  0  0  0  0  0  0
  -17.1001  -26.4041  138.4483 C   0  0  0  0  0  0  0  0  0  0  0  0
  -17.4386  -26.9367  136.1360 C   0  0  0  0  0  0  0  0  0  0  0  0
  -16.4949  -24.1230  129.9875 C   0  0  0  0  0  0  0  0  0  0  0  0
  -19.1333  -16.9486  134.5042 C   0  0  0  0  0  0  0  0  0  0  0  0
  -18.0456  -14.4026  134.7341 C   0  0  0  0  0  0  0  0  0  0  0  0
  -15.0440  -23.1908  129.9981 C   0  0  0  0  0  0  0  0  0  0  0  0
  -14.0412  -24.0340  130.7287 O   0  0  0  0  0  0  0  0  0  0  0  0
  -19.6000  -14.1623  132.3772 C   0  0  0  0  0  0  0  0  0  0  0  0
  -22.8989  -25.6571  134.4447 As  0  0  0  0  0  3  0  0  0  0  0  0
  -20.8760  -23.1189  136.8191 C   0  0  0  0  0  0  0  0  0  0  0  0
  -24.2936  -27.1250  135.6568 C   0  0  0  0  0  0  0  0  0  0  0  0
  -27.5454  -23.8562  139.6061 Sb  0  0  0  0  0  3  0  0  0  0  0  0
  -23.8416  -27.9473  136.6984 O   0  0  0  0  0  0  0  0  0  0  0  0
  -16.5231  -11.1804  138.9046 C   0  0  0  0  0  0  0  0  0  0  0  0
  -22.0536  -22.6083  135.0303 C   0  0  0  0  0  0  0  0  0  0  0  0
  -16.7968  -12.4897  136.5052 C   0  0  0  0  0  0  0  0  0  0  0  0
  -27.4825  -25.1811  131.5377 C   0  0  0  0  0  0  0  0  0  0  0  0
  -11.5176  -32.5897  129.1514 N   0  0  0  0  0  0  0  0  0  0  0  0
  -26.8420  -25.3181  134.0993 C   0  0  0  0  0  0  0  0  0  0  0  0
  -25.2512  -24.9150  132.7694 C   0  0  0  0  0  0  0  0  0  0  0  0
  -27.4804  -27.5128  134.3691 C   0  0  0  0  0  0  0  0  0  0  0  0
  -28.2397  -26.4319  131.9211 C   0  0  0  0  0  0  0  0  0  0  0  0
  -28.9940  -29.0784  133.1638 C   0  0  0  0  0  0  0  0  0  0  0  0
  -14.2369  -14.4311  137.1078 C   0  0  0  0  0  0  0  0  0  0  0  0
  -15.3662  -13.0612  137.6005 C   0  0  0  0  0  0  0  0  0  0  0  0
  -26.9710  -23.7790  132.9127 C   0  0  0  0  0  0  0  0  0  0  0  0
  -29.6975  -29.6683  131.2947 C   0  0  0  0  0  0  0  0  0  0  0  0
  3  1  1  0
  4  2  1  0
  5  3  1  0
  6  5  1  0
  7  6  1  0
  8  4  1  0
  9  7  1  0
 10  8  1  0
 11  9  1  0
 13 10  1  0
 14 13  1  0
 15 14  1  0
 17 10  1  0
 17 12  1  0
 18  1  1  0
 19 16  1  0
 20 19  1  0
 21  6  1  0
 22 14  1  0
 23 22  1  0
 24 21  1  0
 25  6  1  0
 25 24  1  0
 26 10  1  0
 26 12  1  0
 26 13  1  0
 27 15  1  0
 28  2  1  0
 28 16  1  0
 29 27  1  0
 30 28  1  0
 31 29  1  0
 33  1  1  0
 33  2  1  0
 33 28  1  0
 34 23  1  0
 34 32  1  0
 36 11  1  0
 38  3  1  0
 38 18  1  0
 38 37  1  0
 39 37  1  0
 40 35  1  0
 41 39  1  0
 43 34  1  0
 43 42  1  0
 44 18  1  0
 44 35  1  0
 44 37  1  0
 45 41  1  0
M  END
$$$$

     RDKit          3D

 45 59  0  0  0  0  0  0  0  0999 V2000
  -26.6338   -7.5673  148.8941 C   0  0  0  0  0  0  0  0  0  0  0  0
  -25.2408   -8.1194  148.4769 C   0  0  0  0  0  0  0  0  0  0  0  0
  -24.0818   -7.6886  149.4987 C   0  0  0  0  0  0  0  0  0  0  0  0
  -23.8056   -8.6138  150.6870 C   0  0  0  0  0  0  0  0  0  0  0  0
  -24.7966   -9.7760  151.0353 C   0  0  0  0  0  0  0  0  0  0  0  0
  -22.8933   -7.6466  151.5777 C   0  0  0  0  0  0  0  0  0  0  0  0
  -22.0499   -8.0401  152.8258 C   0  0  0  0  0  0  0  0  0  0  0  0
  -27.1827   -6.0712  148.5232 C   0  0  0  0  0  0  0  0  0  0  0  0
  -26.1952   -9.8872  151.7459 C   0  0  0  0  0  0  0  0  0  0  0  0
  -27.0243   -8.7600  152.4475 C   0  0  0  0  0  0  0  0  0  0  0  0
  -21.6562   -9.4888  152.6250 C   0  0  0  0  0  0  0  0  0  0  0  0
  -28.5166   -6.0765  149.2580 C   0  0  0  0  0  0  0  0  0  0  0  0
  -24.8370  -10.2266  152.4509 C   0  0  0  0  0  0  0  0  0  0  0  0
  -28.4772   -4.0553  150.5893 C   0  0  0  0  0  0  0  0  0  0  0  0
  -29.9955   -3.6265  150.7482 C   0  0  0  0  0  0  0  0  0  0  0  0
  -27.3718   -9.6663  153.7438 C   0  0  0  0  0  0  0  0  0  0  0  0
  -28.4268   -5.4757  150.6116 O   0  0  0  0  0  0  0  0  0  0  0  0
  -27.5002   -8.6562  149.1520 O   0  0  0  0  0  0  0  0  0  0  0  0
  -24.2780   -7.1719  151.0094 C   0  0  0  0  0  0  0  0  0  0  0  0
  -30.9444   -4.1031  149.7226 C   0  0  0  0  0  0  0  0  0  0  0  0
  -30.6402   -4.4015  152.0597 C   0  0  0  0  0  0  0  0  0  0  0  0
  -22.1301   -9.0559  154.0050 C   0  0  0  0  0  0  0  0  0  0  0  0
  -26.6903   -8.3163  153.8505 C   0  0  0  0  0  0  0  0  0  0  0  0
  -27.2031   -4.7977  147.4084 C   0  0  0  0  0  0  0  0  0  0  0  0
  -26.6528   -4.8936  145.8684 C   0  0  0  0  0  0  0  0  0  0  0  0
  -25.1717   -4.1862  146.0284 C   0  0  0  0  0  0  0  0  0  0  0  0
  -26.8681   -4.7361  144.2387 C   0  0  0  0  0  0  0  0  0  0  0  0
  -31.3109   -5.6641  151.5717 N   0  0  0  0  0  0  0  0  0  0  0  0
  -24.9821   -2.7184  145.5899 C   0  0  0  0  0  0  0  0  0  0  0  0
  -31.7306   -5.4274  150.2111 C   0  0  0  0  0  0  0  0  0  0  0  0
  -27.6920   -6.1465  145.7083 C   0  0  0  0  0  0  0  0  0  0  0  0
  -26.2325   -3.4846  149.8021 C   0  0  0  0  0  0  0  0  0  0  0  0
  -28.1961   -8.5146  153.3977 C   0  0  0  0  0  0  0  0  0  0  0  0
  -26.6672   -2.4845  148.7333 C   0  0  0  0  0  0  0  0  0  0  0  0
  -27.5598   -3.6046  149.3852 C   0  0  0  0  0  0  0  0  0  0  0  0
  -25.7844   -2.1293  150.4123 C   0  0  0  0  0  0  0  0  0  0  0  0
  -24.2953   -3.6770  144.7857 C   0  0  0  0  0  0  0  0  0  0  0  0
  -26.1795   -1.3139  149.4203 O   0  0  0  0  0  0  0  0  0  0  0  0
  -24.7764    0.0840  151.5898 C   0  0  0  0  0  0  0  0  0  0  0  0
  -24.1620    0.2688  150.1332 C   0  0  0  0  0  0  0  0  0  0  0  0
  -25.1618    1.1308  149.1717 C   0  0  0  0  0  0  0  0  0  0  0  0
  -22.8870    1.1292  150.3183 C   0  0  0  0  0  0  0  0  0  0  0  0
  -25.4596   -1.3808  151.7706 C   0  0  0  0  0  0  0  0  0  0  0  0
  -22.6850   -7.6677  154.1417 C   0  0  0  0  0  0  0  0  0  0  0  0
  -26.4289   -4.7277  148.7862 C   0  0  0  0  0  0  0  0  0  0  0  0
  2  1  1  0
  3  2  1  0
  4  3  1  0
  5  4  1  0
  6  4  1  0
  7  6  1  0
  8  1  1  0
  9  5  1  0
 10  9  1  0
 11  7  1  0
 12  8  1  0
 13  5  1  0
 13  9  1  0
 15 14  1  0
 16 10  1  0
 17 12  1  0
 17 14  1  0
 18  1  1  0
 19  3  1  0
 19  4  1  0
 19  6  1  0
 20 15  1  0
 21 15  1  0
 22  7  1  0
 22 11  1  0
 23 10  1  0
 23 16  1  0
 24  8  1  0
 25 24  1  0
 26 25  1  0
 27 25  1  0
 28 21  1  0
 29 26  1  0
 30 20  1  0
 30 28  1  0
 31 25  1  0
 33 10  1  0
 33 16  1  0
 33 23  1  0
 34 32  1  0
 35 14  1  0
 35 32  1  0
 35 34  1  0
 36 32  1  0
 37 26  1  0
 37 29  1  0
 38 34  1  0
 38 36  1  0
 40 39  1  0
 41 40  1  0
 42 40  1  0
 43 36  1  0
 43 39  1  0
 44  7  1  0
 44 22  1  0
 45  8  1  0
 45 24  1  0
 45 32  1  0
 45 35  1  0
M  END
$$$$

     RDKit          3D

 44 57  0  0  0  0  0  0  0  0999 V2000
  -35.1420  -10.6553  134.9266 Cl  0  0  0  0  0  0  0  0  0  0  0  0
  -34.8855   -8.0040  138.3222 C   0  0  0  0  0  0  0  0  0  0  0  0
  -34.8283   -9.0643  136.6362 C   0  0  0  0  0  0  0  0  0  0  0  0
  -32.3012   -8.5556  136.0649 C   0  0  0  0  0  0  0  0  0  0  0  0
  -32.8359   -9.9437  140.7016 C   0  0  0  0  0  0  0  0  0  0  0  0
  -34.0981  -10.0545  162.4533 C   0  0  0  0  0  0  0  0  0  0  0  0
  -25.4178   -7.0592  131.9251 C   0  0  0  0  0  0  0  0  0  0  0  0
  -22.1010   -6.2417  128.9632 C   0  0  0  0  0  0  0  0  0  0  0  0
  -29.8711   -6.6909  132.3096 C   0  0  0  0  0  0  0  0  0  0  0  0
  -33.4589   -9.0448  164.6298 S   0  0  0  0  0  0  0  0  0  0  0  0
  -21.3374   -7.5236  129.2590 C   0  0  0  0  0  0  0  0  0  0  0  0
  -28.4656  -10.6817  158.5071 C   0  0  0  0  0  0  0  0  0  0  0  0
  -26.7947  -10.5080  160.4320 C   0  0  0  0  0  0  0  0  0  0  0  0
  -33.0063  -10.0437  129.9604 C   0  0  0  0  0  0  0  0  0  0  0  0
  -31.0842  -11.3372  162.3648 C   0  0  0  0  0  0  0  0  0  0  0  0
  -30.7245  -15.7248  160.7724 C   0  0  0  0  0  0  0  0  0  0  0  0
  -32.6237   -8.6825  160.7306 C   0  0  0  0  0  0  0  0  0  0  0  0
  -33.9600  -13.8454  159.7148 C   0  0  0  0  0  0  0  0  0  0  0  0
  -30.4690  -12.6989  149.9397 C   0  0  0  0  0  0  0  0  0  0  0  0
  -30.6442  -12.3315  161.2167 C   0  0  0  0  0  0  0  0  0  0  0  0
  -30.9286  -11.4040  154.6437 C   0  0  0  0  0  0  0  0  0  0  0  0
  -32.3002  -11.1951  158.2150 C   0  0  0  0  0  0  0  0  0  0  0  0
  -32.9746  -10.9746  155.8629 C   0  0  0  0  0  0  0  0  0  0  0  0
  -19.9056   -3.2386  125.6787 C   0  0  0  0  0  0  0  0  0  0  0  0
  -28.7490  -20.1742  159.5294 C   0  0  0  0  0  0  0  0  0  0  0  0
  -29.1081  -10.3766  164.4714 C   0  0  0  0  0  0  0  0  0  0  0  0
  -28.6317   -8.9248  166.0134 C   0  0  0  0  0  0  0  0  0  0  0  0
  -36.8411  -13.3411  158.1753 C   0  0  0  0  0  0  0  0  0  0  0  0
  -27.2429  -11.4930  163.1613 N   0  0  0  0  0  0  0  0  0  0  0  0
  -25.5277  -11.4234  165.0644 C   0  0  0  0  0  0  0  0  0  0  0  0
  -24.5527   -9.6995  164.1306 C   0  0  0  0  0  0  0  0  0  0  0  0
  -29.0116  -10.0262  161.2537 C   0  0  0  0  0  0  0  0  0  0  0  0
  -27.8741  -10.7765  166.4148 C   0  0  0  0  0  0  0  0  0  0  0  0
  -23.7083   -0.8492  132.4573 C   0  0  0  0  0  0  0  0  0  0  0  0
  -27.0715  -12.5955  161.6869 C   0  0  0  0  0  0  0  0  0  0  0  0
  -24.0251    0.9938  130.5475 C   0  0  0  0  0  0  0  0  0  0  0  0
  -22.3926   -1.2789  127.0788 C   0  0  0  0  0  0  0  0  0  0  0  0
  -28.4691   -2.6063  135.8401 C   0  0  0  0  0  0  0  0  0  0  0  0
  -22.3578   -2.8102  128.5357 C   0  0  0  0  0  0  0  0  0  0  0  0
  -21.2906   -2.4393  134.5764 C   0  0  0  0  0  0  0  0  0  0  0  0
  -22.3450   -0.7895  129.8119 C   0  0  0  0  0  0  0  0  0  0  0  0
  -23.8199   -3.5515  132.5819 C   0  0  0  0  0  0  0  0  0  0  0  0
  -24.4156   -1.5214  130.1669 C   0  0  0  0  0  0  0  0  0  0  0  0
  -22.9868    0.2152  132.4215 C   0  0  0  0  0  0  0  0  0  0  0  0
  3  2  1  0
  4  2  1  0
  5  2  1  0
  5  3  1  0
  5  4  1  0
  8  7  1  0
  9  1  1  0
  9  7  1  0
 10  6  1  0
 11  8  1  0
 13 12  1  0
 14  4  1  0
 14  9  1  0
 15 10  1  0
 17  6  1  0
 17 15  1  0
 18 16  1  0
 19  5  1  0
 20 12  1  0
 20 15  1  0
 20 16  1  0
 21 19  1  0
 22 17  1  0
 22 18  1  0
 22 21  1  0
 23 17  1  0
 23 19  1  0
 23 21  1  0
 24  8  1  0
 25 16  2  0
 27 26  1  0
 28 18  1  0
 29 13  1  0
 29 15  1  0
 29 26  1  0
 32 12  1  0
 32 31  1  0
 33 27  1  0
 33 30  1  0
 33 31  1  0
 35 13  1  0
 35 30  1  0
 35 32  1  0
 36 34  1  0
 37 24  1  0
 37 36  1  0
 38 34  1  0
 39 37  1  0
 40 34  1  0
 41 39  1  0
 42  7  1  0
 42 40  1  0
 43 36  1  0
 43 39  1  0
 43 42  1  0
 44 38  1  0
 44 41  1  0
M  END
$$$$

     RDKit          3D

 11 13  0  0  0  0  0  0  0  0999 V2000
  -28.7061  -19.8151  138.9174 O   0  0  0  0  0  0  0  0  0  0  0  0
  -27.6814  -21.1134  140.4611 C   0  0  0  0  0  0  0  0  0  0  0  0
  -28.9605  -20.5880  140.0051 N   0  0  0  0  0  0  0  0  0  0  0  0
  -29.8074  -18.9513  138.7962 C   0  0  0  0  0  0  0  0  0  0  0  0
  -28.9102  -20.6087  140.0230 S   0  0  0  0  0  3  0  0  0  0  0  0
  -26.9760  -20.1192  141.1383 O   0  0  0  0  0  1  0  0  0  0  0  0
  -29.5771  -17.4979  139.2045 C   0  0  0  0  0  0  0  0  0  0  0  0
  -29.5724  -17.8881  137.7322 C   0  0  0  0  0  0  0  0  0  0  0  0
  -28.2017  -17.1022  139.7581 C   0  0  0  0  0  0  0  0  0  0  0  0
  -28.2202  -17.1760  141.2812 C   0  0  0  0  0  0  0  0  0  0  0  0
  -26.8552  -16.8353  141.8577 C   0  0  0  0  0  0  0  0  0  0  0  0
  3  1  1  0
  3  2  1  0
  4  1  1  0
  5  2  1  0
  6  2  1  0
  7  4  1  0
  8  4  1  0
  8  7  1  0
  9  7  1  0
 10  5  1  0
 10  9  1  0
 11  5  1  0
 11 10  1  0
M  RAD  2   5   2   6   2
M  END
$$$$

     RDKit          3D

 45 56  0  0  0  0  0  0  0  0999 V2000
  -29.5579   -1.5059  139.5905 O   0  0  0  0  0  0  0  0  0  0  0  0
  -28.8448    0.0941  140.0608 C   0  0  0  0  0  0  0  0  0  0  0  0
  -28.5249    3.2380  140.0264 C   0  0  0  0  0  0  0  0  0  0  0  0
  -26.5191    2.3971  140.1176 C   0  0  0  0  0  0  0  0  0  0  0  0
  -27.9491    0.5394  140.6227 C   0  0  0  0  0  0  0  0  0  0  0  0
  -25.8335    1.8774  138.2042 C   0  0  0  0  0  0  0  0  0  0  0  0
  -30.2516   -0.3140  140.1850 C   0  0  0  0  0  0  0  0  0  0  0  0
  -30.3254   -2.1127  138.4515 C   0  0  0  0  0  0  0  0  0  0  0  0
  -27.4312    0.0493  136.8421 C   0  0  0  0  0  0  0  0  0  0  0  0
  -26.8037   -1.3512  135.9492 C   0  0  0  0  0  0  0  0  0  0  0  0
  -26.0135    4.8029  139.5415 C   0  0  0  0  0  0  0  0  0  0  0  0
  -25.9520    0.6118  137.4951 N   0  0  0  0  0  0  0  0  0  0  0  0
  -28.0450    1.1886  143.1128 C   0  0  0  0  0  0  0  0  0  0  0  0
  -26.9258    1.9331  141.8712 C   0  0  0  0  0  0  0  0  0  0  0  0
  -26.8129    4.5250  141.4622 C   0  0  0  0  0  0  0  0  0  0  0  0
  -29.9263    1.8097  140.1299 C   0  0  0  0  0  0  0  0  0  0  0  0
  -31.0602    6.3002  134.8926 C   0  0  0  0  0  0  0  0  0  0  0  0
  -32.0843    6.6754  133.3867 C   0  0  0  0  0  0  0  0  0  0  0  0
  -27.2424    3.3404  137.4010 C   0  0  0  0  0  0  0  0  0  0  0  0
  -27.4178    4.5644  138.8759 C   0  0  0  0  0  0  0  0  0  0  0  0
  -25.2824   -0.4148  137.8666 C   0  0  0  0  0  0  0  0  0  0  0  0
  -25.8900   -2.0222  137.7605 C   0  0  0  0  0  0  0  0  0  0  0  0
  -30.3913   -3.9654  139.4854 C   0  0  0  0  0  0  0  0  0  0  0  0
  -27.3089   -2.4758  136.7442 C   0  0  0  0  0  0  0  0  0  0  0  0
  -31.6394    5.7484  132.4314 O   0  0  0  0  0  0  0  0  0  0  0  0
  -29.3567    4.6572  140.3403 C   0  0  0  0  0  0  0  0  0  0  0  0
  -27.5489    2.8413  142.1739 C   0  0  0  0  0  0  0  0  0  0  0  0
  -31.0261    4.0443  140.8080 C   0  0  0  0  0  0  0  0  0  0  0  0
  -31.7459   -2.6589  138.8544 C   0  0  0  0  0  0  0  0  0  0  0  0
  -28.8144    2.3313  145.1532 C   0  0  0  0  0  0  0  0  0  0  0  0
  -27.2834   -2.3980  134.9663 C   0  0  0  0  0  0  0  0  0  0  0  0
  -29.3456    5.8015  135.4546 C   0  0  0  0  0  0  0  0  0  0  0  0
  -29.0858    1.0405  142.0569 N   0  0  0  0  0  0  0  0  0  0  0  0
  -27.5219   -1.1260  143.2024 C   0  0  0  0  0  0  0  0  0  0  0  0
  -31.5293    3.0387  143.9468 C   0  0  0  0  0  0  0  0  0  0  0  0
  -30.1833    0.7969  144.5861 C   0  0  0  0  0  0  0  0  0  0  0  0
  -28.8966    4.7324  137.0069 C   0  0  0  0  0  0  0  0  0  0  0  0
  -27.0295    3.9992  146.8989 C   0  0  0  0  0  0  0  0  0  0  0  0
  -27.7366    1.6959  145.7613 C   0  0  0  0  0  0  0  0  0  0  0  0
  -32.1500    2.9686  145.4781 C   0  0  0  0  0  0  0  0  0  0  0  0
  -29.2760    0.9099  143.4597 C   0  0  0  0  0  0  0  0  0  0  0  0
  -26.9236   -0.3094  141.5859 C   0  0  0  0  0  0  0  0  0  0  0  0
  -25.1523   -1.2441  136.3795 C   0  0  0  0  0  0  0  0  0  0  0  0
  -30.4874    0.4063  142.8062 C   0  0  0  0  0  0  0  0  0  0  0  0
  -29.7418    2.3981  143.9717 C   0  0  0  0  0  0  0  0  0  0  0  0
  4  3  1  0
  6  4  1  0
  7  1  1  0
  7  2  1  0
  8  1  1  0
 10  9  1  0
 12  6  1  0
 12  9  1  0
 13  5  1  0
 14  4  1  0
 15 11  1  0
 16  2  1  0
 16  3  1  0
 16  7  1  0
 18 17  1  0
 19  6  1  0
 20 11  1  0
 20 19  1  0
 21  6  1  0
 22 21  1  0
 24 10  1  0
 24 22  1  0
 25 18  1  0
 26  3  1  0
 26 20  1  0
 27 13  1  0
 27 14  1  0
 27 15  1  0
 28 26  1  0
 29  8  1  0
 29 23  1  0
 31 10  1  0
 31 24  1  0
 32 17  1  0
 33  5  1  0
 36 30  1  0
 37 19  1  0
 37 32  1  0
 39 13  1  0
 39 30  1  0
 39 38  1  0
 40 35  1  0
 41 13  1  0
 41 33  1  0
 42  2  1  0
 42  5  1  0
 42 34  1  0
 43 10  1  0
 43 21  1  0
 43 22  1  0
 44 33  1  0
 44 36  1  0
 44 41  1  0
 45 30  1  0
 45 35  1  0
 45 41  1  0
M  END
$$$$

     RDKit          3D

 37 40  0  0  0  0  0  0  0  0999 V2000
  -31.3429   -0.9103  127.9622 O   0  0  0  0  0  0  0  0  0  0  0  0
  -33.0549    0.2440  128.1467 O   0  0  0  0  0  0  0  0  0  0  0  0
  -31.3788    3.5818  126.4144 O   0  0  0  0  0  0  0  0  0  0  0  0
  -34.3446   -0.8560  127.5077 C   0  0  0  0  0  0  0  0  0  0  0  0
  -30.4347    1.7132  126.0392 O   0  0  0  0  0  0  0  0  0  0  0  0
  -34.3750    2.3673  127.5644 C   0  0  0  0  0  0  0  0  0  0  0  0
  -39.1358    5.7173  130.5140 C   0  0  0  0  0  0  0  0  0  0  0  0
  -37.1798    3.7063  128.9368 C   0  0  0  0  0  0  0  0  0  0  0  0
  -29.9532   -0.1374  129.6006 P   0  0  0  0  0  0  0  0  0  0  0  0
  -31.5765   -2.3392  129.1457 C   0  0  0  0  0  0  0  0  0  0  0  0
  -28.0241   -3.0104  133.9891 C   0  0  0  0  0  0  0  0  0  0  0  0
  -37.7551   -1.2287  123.0380 C   0  0  0  0  0  0  0  0  0  0  0  0
  -28.1511   -3.0899  137.4200 C   0  0  0  0  0  0  0  0  0  0  0  0
  -43.6859   -1.8732  123.8261 C   0  0  0  0  0  0  0  0  0  0  0  0
  -51.3356   -1.3570  124.8348 Cl  0  0  0  0  0  0  0  0  0  0  0  0
  -21.6697   -3.3765  142.3266 C   0  0  0  0  0  0  0  0  0  0  0  0
  -22.4024   -8.9027  135.4877 C   0  0  0  0  0  0  0  0  0  0  0  0
  -20.2731   -2.5979  141.0818 C   0  0  0  0  0  0  0  0  0  0  0  0
  -36.2901   -1.2367  128.5761 C   0  0  0  0  0  0  0  0  0  0  0  0
  -39.9408   -3.4398  131.7669 C   0  0  0  0  0  0  0  0  0  0  0  0
  -37.8015    1.0488  126.2200 C   0  0  0  0  0  0  0  0  0  0  0  0
  -50.1509    0.6485  123.2093 C   0  0  0  0  0  0  0  0  0  0  0  0
  -34.9111   -2.3342  126.2009 N   0  0  0  0  0  0  0  0  0  0  0  0
  -33.1846   -3.8147  134.7329 C   0  0  0  0  0  0  0  0  0  0  0  0
  -32.9611   -4.5845  131.5527 C   0  0  0  0  0  0  0  0  0  0  0  0
  -23.7037   -1.7187  142.6499 C   0  0  0  0  0  0  0  0  0  0  0  0
  -34.4976   -6.5433  133.5934 C   0  0  0  0  0  0  0  0  0  0  0  0
  -24.8480   -2.8514  145.0286 O   0  0  0  0  0  0  0  0  0  0  0  0
  -19.6205   -0.0776  139.9023 C   0  0  0  0  0  0  0  0  0  0  0  0
  -27.0759   -6.9163  133.2631 C   0  0  0  0  0  0  0  0  0  0  0  0
  -18.4753    1.0691  136.4187 C   0  0  0  0  0  0  0  0  0  0  0  0
  -38.3843   -1.8825  133.7938 N   0  0  0  0  0  0  0  0  0  0  0  0
  -19.8766   -4.2346  145.9832 C   0  0  0  0  0  0  0  0  0  0  0  0
  -25.7938   -5.6392  132.9657 C   0  0  0  0  0  0  0  0  0  0  0  0
  -18.6473    1.9987  134.4197 O   0  0  0  0  0  0  0  0  0  0  0  0
  -38.4342   -3.1864  127.9766 C   0  0  0  0  0  0  0  0  0  0  0  0
  -20.5916    0.4496  138.3126 F   0  0  0  0  0  0  0  0  0  0  0  0
  2  1  1  0
  5  3  1  0
  8  6  1  0
  8  7  1  0
  9  1  1  0
  9  5  1  0
 10  4  1  0
 11 10  1  0
 13 11  1  0
 14 12  1  0
 16 13  1  0
 18 16  1  0
 19  2  1  0
 19  4  1  0
 21  8  1  0
 21 19  1  0
 22 14  1  0
 22 15  1  0
 23  4  1  0
 23 10  1  0
 23 12  1  0
 24 13  1  0
 25 24  1  0
 26 18  1  0
 27 24  1  0
 28 26  1  0
 29 18  1  0
 30 11  1  0
 30 17  1  0
 30 25  1  0
 31 29  1  0
 32 20  1  0
 33 16  1  0
 34 11  1  0
 34 30  1  0
 35 31  1  0
 36 14  1  0
 36 20  1  0
 36 25  1  0
 37 29  1  0
M  END
$$$$

     RDKit          3D

 44 48  0  0  0  0  0  0  0  0999 V2000
  -23.9053   -0.6132  143.4902 N   0  0  0  0  0  0  0  0  0  0  0  0
  -22.6804   -0.0082  142.9463 C   0  0  0  0  0  0  0  0  0  0  0  0
  -24.2156   -2.0253  143.1689 C   0  0  0  0  0  0  0  0  0  0  0  0
  -21.4438   -0.1153  143.9151 C   0  0  0  0  0  0  0  0  0  0  0  0
  -24.9412   -2.2264  141.8978 N   0  0  0  0  0  0  0  0  0  0  0  0
  -22.9714    1.2832  141.9844 C   0  0  0  0  0  0  0  0  0  0  0  0
  -28.1858   -1.9437  145.6184 C   0  0  0  0  0  0  0  0  0  0  0  0
  -25.5495   -3.5085  141.8391 N   0  0  0  0  0  0  0  0  0  0  0  0
  -21.6146   -0.5228  145.4377 C   0  0  0  0  0  0  0  0  0  0  0  0
  -22.8922    2.9598  142.2308 C   0  0  0  0  0  0  0  0  0  0  0  0
  -27.2975   -2.0275  144.4467 N   0  0  0  0  0  0  0  0  0  0  0  0
  -23.0044   -0.3430  146.0919 C   0  0  0  0  0  0  0  0  0  0  0  0
  -24.2502    3.5637  141.7580 C   0  0  0  0  0  0  0  0  0  0  0  0
  -21.7119    2.7206  145.0565 Br  0  0  0  0  0  0  0  0  0  0  0  0
  -22.7074    3.9924  139.8961 C   0  0  0  0  0  0  0  0  0  0  0  0
  -21.9024    3.5577  141.1562 C   0  0  0  0  0  0  0  0  0  0  0  0
  -28.5347   -0.5008  145.9868 C   0  0  0  0  0  0  0  0  0  0  0  0
  -21.1424   -1.9759  145.6481 C   0  0  0  0  0  0  0  0  0  0  0  0
  -24.1308    3.9741  140.3622 C   0  0  0  0  0  0  0  0  0  0  0  0
  -23.4854    4.7103  144.4956 C   0  0  0  0  0  0  0  0  0  0  0  0
  -25.1608    4.6574  139.7897 C   0  0  0  0  0  0  0  0  0  0  0  0
  -23.8389    7.0560  142.9956 C   0  0  0  0  0  0  0  0  0  0  0  0
  -22.7713    0.8906  140.4265 C   0  0  0  0  0  0  0  0  0  0  0  0
  -21.3791    7.7993  143.3797 C   0  0  0  0  0  0  0  0  0  0  0  0
  -22.5380    3.7171  143.6609 C   0  0  0  0  0  0  0  0  0  0  0  0
  -27.8885   -2.0197  143.0777 C   0  0  0  0  0  0  0  0  0  0  0  0
  -24.2681    6.0215  144.0714 C   0  0  0  0  0  0  0  0  0  0  0  0
  -27.2817   -0.9757  142.0781 C   0  0  0  0  0  0  0  0  0  0  0  0
  -29.3883   -2.3356  142.8889 C   0  0  0  0  0  0  0  0  0  0  0  0
  -22.4050   -0.5098  139.9120 C   0  0  0  0  0  0  0  0  0  0  0  0
  -27.6672    0.5171  142.3072 C   0  0  0  0  0  0  0  0  0  0  0  0
  -28.3528   -3.4084  142.6071 C   0  0  0  0  0  0  0  0  0  0  0  0
  -27.2337    1.0907  139.9731 C   0  0  0  0  0  0  0  0  0  0  0  0
  -27.2894    0.2824  146.4718 C   0  0  0  0  0  0  0  0  0  0  0  0
  -27.3291   -0.3613  139.4639 C   0  0  0  0  0  0  0  0  0  0  0  0
  -20.2515    6.9131  143.9022 C   0  0  0  0  0  0  0  0  0  0  0  0
  -27.0302   -1.4204  140.5925 C   0  0  0  0  0  0  0  0  0  0  0  0
  -19.3931    6.2728  142.7933 C   0  0  0  0  0  0  0  0  0  0  0  0
  -28.3413    1.1302  141.0685 C   0  0  0  0  0  0  0  0  0  0  0  0
  -22.3963    7.0416  142.4990 C   0  0  0  0  0  0  0  0  0  0  0  0
  -27.1099    1.6190  145.7678 C   0  0  0  0  0  0  0  0  0  0  0  0
  -25.8385   -1.1176  141.5186 C   0  0  0  0  0  0  0  0  0  0  0  0
  -28.0394    2.3542  140.2425 C   0  0  0  0  0  0  0  0  0  0  0  0
  -29.6727    0.6266  140.7304 N   0  0  0  0  0  0  0  0  0  0  0  0
  2  1  1  0
  3  1  1  0
  4  2  1  0
  5  3  1  0
  6  2  1  0
  8  5  1  0
  9  4  1  0
 10  6  1  0
 11  7  1  0
 12  9  1  0
 13 10  1  0
 16 10  1  0
 16 15  1  0
 17  7  1  0
 18  9  1  0
 19 13  1  0
 19 15  1  0
 21 19  2  0
 23  6  1  0
 25 10  1  0
 25 14  1  0
 25 20  1  0
 26 11  1  0
 27 20  1  0
 27 22  1  0
 28 26  1  0
 29 26  1  0
 30 23  1  0
 31 28  1  0
 32 26  1  0
 32 29  1  0
 34 17  1  0
 35 33  1  0
 36 24  1  0
 37 28  1  0
 37 35  1  0
 38 36  1  0
 39 31  1  0
 39 33  1  0
 40 22  1  0
 40 24  1  0
 41 34  1  0
 42  5  1  0
 42 28  1  0
 42 37  1  0
 43 33  1  0
 43 39  1  0
 44 39  1  0
M  END
$$$$

     RDKit          3D

 40 45  0  0  0  0  0  0  0  0999 V2000
  -25.1850   -2.5291  143.5045 C   0  0  0  0  0  0  0  0  0  0  0  0
  -26.4217   -2.5322  142.5953 C   0  0  0  0  0  0  0  0  0  0  0  0
  -24.3427   -1.2238  143.6175 C   0  0  0  0  0  0  0  0  0  0  0  0
  -27.0248  -11.3251  150.2713 O   0  0  0  0  0  0  0  0  0  0  0  0
  -23.1902   -1.4416  144.5716 C   0  0  0  0  0  0  0  0  0  0  0  0
  -26.8687  -10.0052  150.1030 O   0  0  0  0  0  0  0  0  0  0  0  0
  -25.2444   -6.3637  145.3163 S   0  0  0  0  0  4  0  0  0  0  0  0
  -22.9780  -10.3642  147.8753 C   0  0  0  0  0  0  0  0  0  0  0  0
  -24.8324    1.4405  143.7999 C   0  0  0  0  0  0  0  0  0  0  0  0
  -23.9222   -8.1091  147.4556 C   0  0  0  0  0  0  0  0  0  0  0  0
  -21.9071   -0.7968  145.2693 C   0  0  0  0  0  0  0  0  0  0  0  0
  -24.9054    0.1764  143.0255 C   0  0  0  0  0  0  0  0  0  0  0  0
  -27.8037  -11.6921  149.2405 O   0  0  0  0  0  0  0  0  0  0  0  0
  -26.7936   -3.7482  144.5917 C   0  0  0  0  0  0  0  0  0  0  0  0
  -23.7155   -6.5569  146.9120 C   0  0  0  0  0  0  0  0  0  0  0  0
  -25.4539    1.5843  145.2372 C   0  0  0  0  0  0  0  0  0  0  0  0
  -25.6736   -2.9343  144.8211 O   0  0  0  0  0  0  0  0  0  0  0  0
  -27.5610   -3.1237  143.4981 C   0  0  0  0  0  0  0  0  0  0  0  0
  -24.1119   -9.5641  147.2232 C   0  0  0  0  0  0  0  0  0  0  0  0
  -27.4259    0.0660  145.5800 C   0  0  0  0  0  0  0  0  0  0  0  0
  -26.2144    0.7582  143.3738 C   0  0  0  0  0  0  0  0  0  0  0  0
  -23.9996   -5.7834  148.2297 C   0  0  0  0  0  0  0  0  0  0  0  0
  -22.7560   -7.6484  146.5090 C   0  0  0  0  0  0  0  0  0  0  0  0
  -26.8261    1.1930  144.7462 C   0  0  0  0  0  0  0  0  0  0  0  0
  -21.9268    0.6466  145.8444 C   0  0  0  0  0  0  0  0  0  0  0  0
  -23.0143   -1.2844  143.0815 N   0  0  0  0  0  0  0  0  0  0  0  0
  -22.2138   -4.6111  149.8734 C   0  0  0  0  0  0  0  0  0  0  0  0
  -22.3206   -0.0093  148.5148 C   0  0  0  0  0  0  0  0  0  0  0  0
  -22.9980   -3.5898  147.5291 C   0  0  0  0  0  0  0  0  0  0  0  0
  -20.4793    1.0833  146.2526 C   0  0  0  0  0  0  0  0  0  0  0  0
  -24.6277   -3.2851  148.6931 C   0  0  0  0  0  0  0  0  0  0  0  0
  -20.5044    2.2609  147.0227 O   0  0  0  0  0  0  0  0  0  0  0  0
  -23.4172   -4.3209  148.7879 C   0  0  0  0  0  0  0  0  0  0  0  0
  -22.0371   -5.9781  150.4983 O   0  0  0  0  0  0  0  0  0  0  0  0
  -28.3406    0.3279  146.4699 N   0  0  0  0  0  0  0  0  0  0  0  0
  -21.8229   -3.4893  151.0025 C   0  0  0  0  0  0  0  0  0  0  0  0
  -22.8516    0.6048  147.1952 C   0  0  0  0  0  0  0  0  0  0  0  0
  -22.2215   -6.3631  151.8791 C   0  0  0  0  0  0  0  0  0  0  0  0
  -24.4381   -3.1347  147.2414 C   0  0  0  0  0  0  0  0  0  0  0  0
  -28.9177    1.6312  146.4891 N   0  0  0  0  0  0  0  0  0  0  0  0
  2  1  1  0
  3  1  1  0
  5  3  1  0
  6  4  1  0
  8  7  1  0
 11  5  1  0
 12  3  1  0
 12  9  1  0
 13  4  1  0
 13  7  1  0
 14  7  1  0
 15 10  1  0
 16  9  1  0
 17  1  1  0
 17 14  1  0
 18  2  1  0
 18 14  1  0
 19  8  1  0
 19 10  1  0
 21  9  1  0
 21 12  1  0
 22 15  1  0
 23 10  1  0
 23 15  1  0
 24 16  1  0
 24 20  1  0
 24 21  1  0
 25 11  1  0
 26  3  1  0
 26  5  1  0
 30 25  1  0
 32 30  1  0
 33 22  1  0
 33 27  1  0
 33 29  1  0
 33 31  1  0
 34 27  1  0
 35 20  2  3
 36 27  1  0
 37 25  1  0
 37 28  1  0
 38 34  1  0
 39 29  1  0
 39 31  1  0
 40 35  1  0
M  END
$$$$

     RDKit          3D

 45 52  0  0  0  0  0  0  0  0999 V2000
  -28.3080  -14.0150  151.1039 N   0  0  0  0  0  0  0  0  0  0  0  0
  -27.3676  -17.7191  149.5690 C   0  0  0  0  0  0  0  0  0  0  0  0
  -25.0553  -20.2865  151.0208 C   0  0  0  0  0  0  0  0  0  0  0  0
  -26.8075  -21.7435  150.2264 C   0  0  0  0  0  0  0  0  0  0  0  0
  -23.9575  -19.9840  152.8764 C   0  0  0  0  0  0  0  0  0  0  0  0
  -30.3455  -11.8622  150.6750 C   0  0  0  0  0  0  0  0  0  0  0  0
  -32.2205   -9.7371  150.5155 N   0  0  0  0  0  0  0  0  0  0  0  0
  -30.0557   -9.8571  150.7036 C   0  0  0  0  0  0  0  0  0  0  0  0
  -28.2070  -20.9284  150.1591 C   0  0  0  0  0  0  0  0  0  0  0  0
  -31.3482  -21.2699  151.9830 C   0  0  0  0  0  0  0  0  0  0  0  0
  -27.7046  -22.5442  151.3800 C   0  0  0  0  0  0  0  0  0  0  0  0
  -28.9725  -10.3741  151.9137 C   0  0  0  0  0  0  0  0  0  0  0  0
  -31.4068  -20.4755  153.3989 N   0  0  0  0  0  0  0  0  0  0  0  0
  -28.1943  -24.4629  150.5270 C   0  0  0  0  0  0  0  0  0  0  0  0
  -27.6531  -23.0804  149.0836 C   0  0  0  0  0  0  0  0  0  0  0  0
  -29.8342  -20.3373  150.4228 C   0  0  0  0  0  0  0  0  0  0  0  0
  -29.1438  -26.5658  151.2142 C   0  0  0  0  0  0  0  0  0  0  0  0
  -29.6581  -18.4336  150.6875 C   0  0  0  0  0  0  0  0  0  0  0  0
  -28.7702  -18.2945  152.3277 C   0  0  0  0  0  0  0  0  0  0  0  0
  -26.4213  -16.7490  151.3074 C   0  0  0  0  0  0  0  0  0  0  0  0
  -27.6912   -9.6403  151.5565 N   0  0  0  0  0  0  0  0  0  0  0  0
  -34.9777   -8.1261  149.5379 C   0  0  0  0  0  0  0  0  0  0  0  0
  -29.1996  -11.3715  150.4873 C   0  0  0  0  0  0  0  0  0  0  0  0
  -28.4589  -12.2493  151.7886 C   0  0  0  0  0  0  0  0  0  0  0  0
  -29.1372  -20.8571  153.9244 C   0  0  0  0  0  0  0  0  0  0  0  0
  -27.6706   -8.2441  151.8161 N   0  0  0  0  0  0  0  0  0  0  0  0
  -37.1941   -3.8423  147.7694 C   0  0  0  0  0  0  0  0  0  0  0  0
  -30.5167  -23.2471  155.1505 C   0  0  0  0  0  0  0  0  0  0  0  0
  -28.1308  -16.4415  152.9080 C   0  0  0  0  0  0  0  0  0  0  0  0
  -36.3937  -11.0681  149.3745 C   0  0  0  0  0  0  0  0  0  0  0  0
  -25.9638  -15.9580  153.3951 C   0  0  0  0  0  0  0  0  0  0  0  0
  -22.4309  -13.9980  151.2834 C   0  0  0  0  0  0  0  0  0  0  0  0
  -21.5086  -12.6590  150.4541 C   0  0  0  0  0  0  0  0  0  0  0  0
  -25.9921  -17.3919  154.3555 C   0  0  0  0  0  0  0  0  0  0  0  0
  -23.8624  -15.2729  151.9176 C   0  0  0  0  0  0  0  0  0  0  0  0
  -37.3595   -4.1085  146.0974 C   0  0  0  0  0  0  0  0  0  0  0  0
  -38.0407   -3.5290  141.8964 C   0  0  0  0  0  0  0  0  0  0  0  0
  -37.7517   -3.3954  143.9743 C   0  0  0  0  0  0  0  0  0  0  0  0
  -29.1633  -27.9181  150.4795 C   0  0  0  0  0  0  0  0  0  0  0  0
  -36.6865  -14.5414  146.1241 C   0  0  0  0  0  0  0  0  0  0  0  0
  -31.2336  -22.1364  153.4874 C   0  0  0  0  0  0  0  0  0  0  0  0
  -30.9198  -28.7524  153.5874 C   0  0  0  0  0  0  0  0  0  0  0  0
  -30.3806  -27.6277  152.4289 C   0  0  0  0  0  0  0  0  0  0  0  0
  -30.9116  -25.6590  157.5408 C   0  0  0  0  0  0  0  0  0  0  0  0
  -36.2478  -12.8877  147.9139 C   0  0  0  0  0  0  0  0  0  0  0  0
  4  3  1  0
  5  3  1  0
  6  1  1  0
  7  6  1  0
  8  6  1  0
  8  7  1  0
  9  4  1  0
 11  4  1  0
 11  9  1  0
 12  8  1  0
 13 10  1  0
 14 11  1  0
 15  4  1  0
 15 14  1  0
 16  9  1  0
 16 10  1  0
 17 14  1  0
 18 16  1  0
 19 18  1  0
 20  1  1  0
 20  2  2  0
 20  5  1  0
 21 12  1  0
 22  7  1  0
 23  6  1  0
 23  8  1  0
 24  1  1  0
 24 12  1  0
 24 23  1  0
 25 19  1  0
 26 21  1  0
 27 22  1  0
 28 25  1  0
 29 19  1  0
 30 22  1  0
 31 29  1  0
 33 32  1  0
 34 31  1  0
 35 31  1  0
 35 32  1  0
 36 27  1  0
 38 36  1  0
 38 37  1  0
 39 17  2  0
 41 10  1  0
 41 13  1  0
 41 28  1  0
 43 17  1  0
 43 42  2  0
 44 28  1  0
 45 30  1  0
 45 40  1  0
M  END
$$$$

     RDKit          3D

 45 54  0  0  0  0  0  0  0  0999 V2000
  -27.2568   -3.1341  137.7402 Si  0  0  0  0  0  4  0  0  0  0  0  0
  -24.1618   -5.2502  140.5578 C   0  0  0  0  0  0  0  0  0  0  0  0
  -24.2489    0.5614  139.3775 C   0  0  0  0  0  0  0  0  0  0  0  0
  -24.3318   -8.0697  141.0701 N   0  0  0  0  0  0  0  0  0  0  0  0
  -20.5266   -1.5238  142.0135 C   0  0  0  0  0  0  0  0  0  0  0  0
  -25.4408   -6.5002  141.2523 C   0  0  0  0  0  0  0  0  0  0  0  0
  -25.3844   -6.8500  136.3155 C   0  0  0  0  0  0  0  0  0  0  0  0
  -24.3981   -8.2402  140.6440 C   0  0  0  0  0  0  0  0  0  0  0  0
  -28.6664   -3.9812  140.4334 C   0  0  0  0  0  0  0  0  0  0  0  0
  -28.3071    0.8643  142.0317 C   0  0  0  0  0  0  0  0  0  0  0  0
  -29.3311   -8.4466  137.9566 C   0  0  0  0  0  0  0  0  0  0  0  0
  -26.7097    8.8885  144.6110 C   0  0  0  0  0  0  0  0  0  0  0  0
  -25.9768   -0.4193  142.1254 C   0  0  0  0  0  0  0  0  0  0  0  0
  -24.8241    8.7758  149.8396 C   0  0  0  0  0  0  0  0  0  0  0  0
  -29.3767   -2.7660  139.6806 C   0  0  0  0  0  0  0  0  0  0  0  0
  -18.1819   -5.3719  141.0781 Br  0  0  0  0  0  0  0  0  0  0  0  0
  -31.7800   -0.8206  137.8493 C   0  0  0  0  0  0  0  0  0  0  0  0
  -25.2972  -10.1397  137.6862 C   0  0  0  0  0  0  0  0  0  0  0  0
  -26.5597    5.6978  146.2800 C   0  0  0  0  0  0  0  0  0  0  0  0
  -28.8081   10.5282  144.5003 C   0  0  0  0  0  0  0  0  0  0  0  0
  -14.7507   -3.7306  140.8309 N   0  0  0  0  0  0  0  0  0  0  0  0
  -24.6839   -0.1788  147.3390 C   0  0  0  0  0  0  0  0  0  0  0  0
  -37.6257   14.2263  140.0393 C   0  0  0  0  0  0  0  0  0  0  0  0
  -30.7387    7.2582  142.0101 C   0  0  0  0  0  0  0  0  0  0  0  0
  -26.3256    0.7365  143.3754 C   0  0  0  0  0  0  0  0  0  0  0  0
  -34.3524    4.6432  141.5470 C   0  0  0  0  0  0  0  0  0  0  0  0
  -23.9340    5.8388  150.5235 C   0  0  0  0  0  0  0  0  0  0  0  0
  -41.9222    4.9135  140.2960 C   0  0  0  0  0  0  0  0  0  0  0  0
   -3.9814    4.4439  135.5299 Cl  0  0  0  0  0  0  0  0  0  0  0  0
  -23.0041   -6.7074  137.9566 C   0  0  0  0  0  0  0  0  0  0  0  0
  -37.7489    2.3156  139.2550 C   0  0  0  0  0  0  0  0  0  0  0  0
   -4.1402    5.0410  138.2188 C   0  0  0  0  0  0  0  0  0  0  0  0
  -26.7751    8.9986  148.0325 C   0  0  0  0  0  0  0  0  0  0  0  0
  -24.6399   -0.1647  145.9522 C   0  0  0  0  0  0  0  0  0  0  0  0
  -30.2835    1.0096  144.6181 C   0  0  0  0  0  0  0  0  0  0  0  0
  -29.4756    2.0675  143.5330 C   0  0  0  0  0  0  0  0  0  0  0  0
  -27.7766   -8.9626  142.8799 C   0  0  0  0  0  0  0  0  0  0  0  0
  -35.0690   -3.0126  140.2287 C   0  0  0  0  0  0  0  0  0  0  0  0
  -37.4840   -1.0119  143.9135 C   0  0  0  0  0  0  0  0  0  0  0  0
  -25.3498    0.7633  157.8422 C   0  0  0  0  0  0  0  0  0  0  0  0
  -33.5147    3.0334  158.4749 C   0  0  0  0  0  0  0  0  0  0  0  0
  -13.0233    4.0261  149.4393 C   0  0  0  0  0  0  0  0  0  0  0  0
  -31.8470   -0.3447  140.8125 C   0  0  0  0  0  0  0  0  0  0  0  0
  -37.3993    7.9863  141.0137 C   0  0  0  0  0  0  0  0  0  0  0  0
  -40.1025   -1.9658  147.0699 C   0  0  0  0  0  0  0  0  0  0  0  0
  5  3  1  0
  6  1  1  0
  6  2  1  0
  6  4  1  0
  7  2  1  0
  8  6  1  0
  9  1  1  0
 10  1  1  0
 13  2  1  0
 13  3  1  0
 13 10  1  0
 15  9  1  0
 16  5  1  0
 17  9  1  0
 17 15  1  0
 18  7  1  0
 18  8  1  0
 18 11  1  0
 19 10  1  0
 19 12  1  0
 19 14  1  0
 21  5  1  0
 24 20  1  0
 25  5  1  0
 25 13  1  0
 26 24  1  0
 27 14  1  0
 30  7  1  0
 30 18  1  0
 31 26  1  0
 31 28  1  0
 32 29  1  0
 33 14  1  0
 33 20  1  0
 33 27  1  0
 34 22  1  0
 35 12  1  0
 35 22  1  0
 35 25  1  0
 36 34  1  0
 37  8  1  0
 37  9  1  0
 39 26  1  0
 39 38  1  0
 40 27  1  0
 41 40  1  0
 42 32  1  0
 42 40  1  0
 43 38  1  0
 44 23  1  0
 44 28  1  0
 44 36  1  0
 45 38  1  0
 45 39  1  0
M  END
$$$$

     RDKit          3D

 24 31  0  0  0  0  0  0  0  0999 V2000
  -20.3757  -22.6755  140.7184 As  0  0  0  0  0  3  0  0  0  0  0  0
  -21.9500  -21.7765  141.7596 C   0  0  0  0  0  0  0  0  0  0  0  0
  -24.1764  -20.1851  141.8211 C   0  0  0  0  0  0  0  0  0  0  0  0
  -24.3279  -21.6482  139.9069 C   0  0  0  0  0  0  0  0  0  0  0  0
  -24.1890  -19.2877  140.4211 C   0  0  0  0  0  0  0  0  0  0  0  0
  -19.3601  -20.9659  140.4601 C   0  0  0  0  0  0  0  0  0  0  0  0
  -23.4805  -21.8692  137.1682 C   0  0  0  0  0  0  0  0  0  0  0  0
  -22.9706  -20.0675  140.0060 C   0  0  0  0  0  0  0  0  0  0  0  0
  -23.7688  -20.3572  137.5632 C   0  0  0  0  0  0  0  0  0  0  0  0
  -22.4418  -19.4994  137.4280 C   0  0  0  0  0  0  0  0  0  0  0  0
  -17.3726  -19.6824  142.0728 C   0  0  0  0  0  0  0  0  0  0  0  0
  -18.5515  -22.5607  141.8434 C   0  0  0  0  0  0  0  0  0  0  0  0
  -16.0918  -18.6658  141.9056 C   0  0  0  0  0  0  0  0  0  0  0  0
  -24.5524  -19.8978  136.1900 C   0  0  0  0  0  0  0  0  0  0  0  0
  -23.2477  -21.1506  140.9994 C   0  0  0  0  0  0  0  0  0  0  0  0
  -24.4342  -20.9836  135.1236 C   0  0  0  0  0  0  0  0  0  0  0  0
  -24.5117  -23.0402  136.7780 C   0  0  0  0  0  0  0  0  0  0  0  0
  -24.5443  -22.5371  135.3427 C   0  0  0  0  0  0  0  0  0  0  0  0
  -18.4650  -20.9859  141.8361 C   0  0  0  0  0  0  0  0  0  0  0  0
  -14.8372  -18.8758  140.9372 C   0  0  0  0  0  0  0  0  0  0  0  0
  -18.1785  -18.4770  141.4048 C   0  0  0  0  0  0  0  0  0  0  0  0
  -23.2991  -21.7102  135.6549 C   0  0  0  0  0  0  0  0  0  0  0  0
  -24.2530  -20.2637  139.1458 C   0  0  0  0  0  0  0  0  0  0  0  0
  -16.9884  -17.5292  141.2759 C   0  0  0  0  0  0  0  0  0  0  0  0
  2  1  1  0
  5  3  1  0
  6  1  1  0
  8  5  1  0
  9  7  1  0
 10  9  1  0
 12  1  1  0
 13 11  1  0
 14  9  1  0
 15  2  1  0
 15  3  1  0
 15  4  1  0
 15  8  1  0
 16 14  1  0
 17  7  1  0
 18 16  1  0
 18 17  1  0
 19  6  1  0
 19 11  1  0
 19 12  1  0
 20 13  1  0
 21 11  1  0
 22  7  1  0
 22 16  1  0
 22 18  1  0
 23  4  1  0
 23  5  1  0
 23  8  1  0
 23  9  1  0
 24 13  1  0
 24 21  1  0
M  END
$$$$

     RDKit          3D

 38 43  0  0  0  0  0  0  0  0999 V2000
  -30.1291  -12.1962  147.5598 O   0  0  0  0  0  0  0  0  0  0  0  0
  -29.8252  -11.0025  147.8466 C   0  0  0  0  0  0  0  0  0  0  0  0
  -30.7812  -10.1583  148.4047 O   0  0  0  0  0  0  0  0  0  0  0  0
  -28.4778  -10.4365  147.4669 C   0  0  0  0  0  0  0  0  0  0  0  0
  -28.6790   -9.5760  146.3528 O   0  0  0  0  0  0  0  0  0  0  0  0
  -27.6482   -9.3995  145.3891 C   0  0  0  0  0  0  0  0  0  0  0  0
  -28.2429   -8.6364  144.2052 C   0  0  0  0  0  0  0  0  0  0  0  0
  -26.3995   -8.6577  145.9073 C   0  0  0  0  0  0  0  0  0  0  0  0
  -27.3661  -10.5836  144.4390 C   0  0  0  0  0  0  0  0  0  0  0  0
  -28.4939  -10.3020  142.0787 C   0  0  0  0  0  0  0  0  0  0  0  0
  -28.9454   -9.2192  141.0874 C   0  0  0  0  0  0  0  0  0  0  0  0
  -27.6906   -9.6840  143.2465 C   0  0  0  0  0  0  0  0  0  0  0  0
  -28.6027   -9.3299  139.5805 C   0  0  0  0  0  0  0  0  0  0  0  0
  -29.9751  -10.2115  141.7154 C   0  0  0  0  0  0  0  0  0  0  0  0
  -29.5398   -8.4882  138.7696 C   0  0  0  0  0  0  0  0  0  0  0  0
  -30.7873   -8.9521  141.9570 C   0  0  0  0  0  0  0  0  0  0  0  0
  -29.3073   -7.1722  138.5931 C   0  0  0  0  0  0  0  0  0  0  0  0
  -30.3723   -6.2379  138.0508 C   0  0  0  0  0  0  0  0  0  0  0  0
  -26.7586  -10.8074  148.7399 C   0  0  0  0  0  0  0  0  0  0  0  0
  -30.7749   -6.4727  136.5723 C   0  0  0  0  0  0  0  0  0  0  0  0
  -31.9690   -7.4869  136.3998 C   0  0  0  0  0  0  0  0  0  0  0  0
  -33.2257   -6.8503  135.8288 C   0  0  0  0  0  0  0  0  0  0  0  0
  -33.1586   -6.1087  134.8522 O   0  0  0  0  0  0  0  0  0  0  0  0
  -29.7557   -8.0597  141.4713 N   0  0  0  0  0  0  0  0  0  0  0  0
  -31.6725   -8.8254  135.6809 C   0  0  0  0  0  0  0  0  0  0  0  0
  -27.8279   -9.7181  148.6721 C   0  0  0  0  0  0  0  0  0  0  0  0
  -30.4271   -8.8670  134.7787 C   0  0  0  0  0  0  0  0  0  0  0  0
  -29.2545   -8.1010  135.4013 C   0  0  0  0  0  0  0  0  0  0  0  0
  -27.3340  -11.4767  147.4976 C   0  0  0  0  0  0  0  0  0  0  0  0
  -29.5843   -6.7120  135.7413 N   0  0  0  0  0  0  0  0  0  0  0  0
  -32.5233   -9.6944  132.3039 O   0  0  0  0  0  0  0  0  0  0  0  0
  -29.8175   -7.7050  132.6493 O   0  0  0  0  0  0  0  0  0  0  0  0
  -30.7110  -10.8852  132.7795 O   0  0  0  0  0  0  0  0  0  0  0  0
  -31.1527   -9.6653  132.3538 N   0  0  0  0  0  0  0  0  0  0  0  0
  -31.1402   -7.2356  132.7840 C   0  0  0  0  0  0  0  0  0  0  0  0
  -30.7434   -8.5843  133.2703 C   0  0  0  0  0  0  0  0  0  0  0  0
  -34.5627   -7.1052  136.4709 C   0  0  0  0  0  0  0  0  0  0  0  0
  -30.5652  -11.2627  140.7450 C   0  0  0  0  0  0  0  0  0  0  0  0
  2  1  2  0
  3  2  1  0
  4  2  1  0
  5  4  1  0
  6  5  1  0
  7  6  1  0
  8  6  1  0
  9  6  1  0
 11 10  1  0
 12  7  1  0
 12  9  1  0
 12 10  1  0
 13 11  1  0
 14 10  1  0
 14 11  1  0
 15 13  1  0
 16 14  1  0
 17 15  2  3
 18 17  1  0
 20 18  1  0
 21 20  1  0
 22 21  1  0
 23 22  2  0
 24 11  1  0
 24 16  1  0
 25 21  1  0
 26  4  1  0
 26 19  1  0
 27 25  1  0
 28 27  1  0
 29  4  1  0
 29 19  1  0
 30 20  1  0
 30 28  1  0
 34 31  1  0
 34 33  1  0
 35 32  1  0
 36 27  1  0
 36 32  1  0
 36 34  1  0
 36 35  1  0
 37 22  1  0
 38 14  1  0
M  END
$$$$

     RDKit          3D

 41 48  0  0  0  0  0  0  0  0999 V2000
  -25.8992   -1.9070  139.1032 O   0  0  0  0  0  0  0  0  0  0  0  0
  -25.7806    0.1766  137.8618 C   0  0  0  0  0  0  0  0  0  0  0  0
  -24.3509    0.5299  137.3998 C   0  0  0  0  0  0  0  0  0  0  0  0
  -23.1946   -0.3095  138.0952 C   0  0  0  0  0  0  0  0  0  0  0  0
  -21.9255    0.4523  138.2418 C   0  0  0  0  0  0  0  0  0  0  0  0
  -26.6707    0.9416  136.9123 C   0  0  0  0  0  0  0  0  0  0  0  0
  -26.0110   -1.3264  137.8289 C   0  0  0  0  0  0  0  0  0  0  0  0
  -22.0548   -0.7182  137.1976 C   0  0  0  0  0  0  0  0  0  0  0  0
  -21.9323   -2.2750  137.4515 C   0  0  0  0  0  0  0  0  0  0  0  0
  -20.9766   -2.9280  136.5513 C   0  0  0  0  0  0  0  0  0  0  0  0
  -20.7445   -3.0911  138.0714 C   0  0  0  0  0  0  0  0  0  0  0  0
  -27.8807    1.5220  137.6223 C   0  0  0  0  0  0  0  0  0  0  0  0
  -19.8756   -2.0862  139.0339 C   0  0  0  0  0  0  0  0  0  0  0  0
  -20.8669   -2.1071  141.6113 C   0  0  0  0  0  0  0  0  0  0  0  0
  -22.4985    0.1657  141.6645 C   0  0  0  0  0  0  0  0  0  0  0  0
  -18.9348   -0.9088  138.6206 C   0  0  0  0  0  0  0  0  0  0  0  0
  -20.9216    0.2742  143.0301 C   0  0  0  0  0  0  0  0  0  0  0  0
  -19.0054   -0.6403  137.1002 C   0  0  0  0  0  0  0  0  0  0  0  0
  -21.1370   -0.5105  141.7931 C   0  0  0  0  0  0  0  0  0  0  0  0
  -21.6953    2.5934  142.1761 C   0  0  0  0  0  0  0  0  0  0  0  0
  -22.1812   -2.9447  141.1317 C   0  0  0  0  0  0  0  0  0  0  0  0
  -19.7082   -2.6061  140.5114 C   0  0  0  0  0  0  0  0  0  0  0  0
  -21.7584    2.9079  140.7076 C   0  0  0  0  0  0  0  0  0  0  0  0
  -27.6531    2.8018  138.4065 C   0  0  0  0  0  0  0  0  0  0  0  0
  -22.7422    4.6359  143.0636 F   0  0  0  0  0  0  0  0  0  0  0  0
  -27.3471    3.7796  137.4829 O   0  0  0  0  0  0  0  0  0  0  0  0
  -21.7353   -2.9330  142.5860 C   0  0  0  0  0  0  0  0  0  0  0  0
  -22.9782    3.5376  142.2624 C   0  0  0  0  0  0  0  0  0  0  0  0
  -18.7926    0.7502  136.5846 C   0  0  0  0  0  0  0  0  0  0  0  0
  -27.1123    5.0683  138.0887 C   0  0  0  0  0  0  0  0  0  0  0  0
  -17.6530   -0.1645  136.5580 N   0  0  0  0  0  0  0  0  0  0  0  0
  -17.7436   -1.1767  137.6432 C   0  0  0  0  0  0  0  0  0  0  0  0
  -22.0948    1.1871  142.6836 C   0  0  0  0  0  0  0  0  0  0  0  0
  -22.8446    3.8906  140.7835 C   0  0  0  0  0  0  0  0  0  0  0  0
  -18.5890    1.8789  137.6742 C   0  0  0  0  0  0  0  0  0  0  0  0
  -17.6885   -2.4115  137.1420 F   0  0  0  0  0  0  0  0  0  0  0  0
  -19.2784    1.0787  135.1448 C   0  0  0  0  0  0  0  0  0  0  0  0
  -18.3033    1.6466  134.3483 O   0  0  0  0  0  0  0  0  0  0  0  0
  -20.6130    1.9278  135.1646 C   0  0  0  0  0  0  0  0  0  0  0  0
  -19.6016   -0.2331  134.4526 C   0  0  0  0  0  0  0  0  0  0  0  0
  -20.4953    3.4250  135.4008 C   0  0  0  0  0  0  0  0  0  0  0  0
  3  2  1  0
  4  3  1  0
  5  4  1  0
  6  2  1  0
  7  1  1  0
  7  2  1  0
  8  4  1  0
  8  5  1  0
  9  8  1  0
 10  9  1  0
 11  9  1  0
 11 10  1  0
 12  6  1  0
 13 11  1  0
 16 13  1  0
 18 16  1  0
 19 14  1  0
 19 15  1  0
 19 17  1  0
 21 14  1  0
 22 13  1  0
 22 14  1  0
 23 20  1  0
 24 12  1  0
 26 24  1  0
 27 14  1  0
 27 21  1  0
 28 20  1  0
 28 25  1  0
 29 18  1  0
 30 26  1  0
 31 18  1  0
 31 29  1  0
 32 16  1  0
 32 18  1  0
 32 31  1  0
 33 15  1  0
 33 17  1  0
 33 20  1  0
 34 23  1  0
 34 28  1  0
 35 29  1  0
 36 32  1  0
 37 29  1  0
 38 37  1  0
 39 37  1  0
 40 37  1  0
 41 39  1  0
M  END
$$$$

     RDKit          3D

 44 47  0  0  0  0  0  0  0  0999 V2000
  -18.5469    6.2774  136.4553 O   0  0  0  0  0  0  0  0  0  0  0  0
  -18.5294    7.5633  135.6757 C   0  0  0  0  0  0  0  0  0  0  0  0
  -19.7426    8.0657  134.8181 O   0  0  0  0  0  0  0  0  0  0  0  0
  -20.1871    6.2922  136.6347 C   0  0  0  0  0  0  0  0  0  0  0  0
  -22.0783    5.5854  135.5592 C   0  0  0  0  0  0  0  0  0  0  0  0
  -22.1855    3.8640  135.3572 O   0  0  0  0  0  0  0  0  0  0  0  0
  -23.8968    6.5123  136.2028 C   0  0  0  0  0  0  0  0  0  0  0  0
  -22.6903    9.3584  133.9547 C   0  0  0  0  0  0  0  0  0  0  0  0
  -22.4228    5.0748  126.0546 Se  0  0  0  0  0  2  0  0  0  0  0  0
  -24.0478    8.8550  132.1571 C   0  0  0  0  0  0  0  0  0  0  0  0
  -28.0124    9.3877  131.9587 Al  0  0  0  0  0  5  0  0  0  0  0  0
  -17.5304  -11.4051  129.6237 C   0  0  0  0  0  0  0  0  0  0  0  0
  -19.9836  -10.1669  129.6413 Se  0  0  0  0  0  2  0  0  0  0  0  0
  -23.4473  -14.1300  127.8491 O   0  0  0  0  0  0  0  0  0  0  0  0
  -19.0862  -11.9044  128.9595 C   0  0  0  0  0  0  0  0  0  0  0  0
  -29.7563   10.7739  132.5561 O   0  0  0  0  0  0  0  0  0  0  0  0
  -30.8765    8.5488  131.6805 C   0  0  0  0  0  0  0  0  0  0  0  0
  -17.7909   -8.3504  128.1463 C   0  0  0  0  0  0  0  0  0  0  0  0
  -16.4757  -11.4121  127.7528 C   0  0  0  0  0  0  0  0  0  0  0  0
  -20.6070  -12.9400  129.1625 C   0  0  0  0  0  0  0  0  0  0  0  0
  -18.4952   -5.9854  126.8039 C   0  0  0  0  0  0  0  0  0  0  0  0
  -19.4389   -3.1926  127.0180 C   0  0  0  0  0  0  0  0  0  0  0  0
  -20.3004   -2.1537  128.2906 C   0  0  0  0  0  0  0  0  0  0  0  0
  -16.4195  -10.3087  129.0902 C   0  0  0  0  0  0  0  0  0  0  0  0
  -22.2659  -13.0668  127.7605 C   0  0  0  0  0  0  0  0  0  0  0  0
  -21.7687  -13.1525  125.8052 C   0  0  0  0  0  0  0  0  0  0  0  0
  -30.1477    7.1572  130.8606 C   0  0  0  0  0  0  0  0  0  0  0  0
  -18.7923   -8.3820  129.3362 C   0  0  0  0  0  0  0  0  0  0  0  0
  -21.4889    8.6855  137.5714 C   0  0  0  0  0  0  0  0  0  0  0  0
  -30.5002    7.6097  129.3735 N   0  0  0  0  0  0  0  0  0  0  0  0
  -19.6804   -0.9079  129.0207 O   0  0  0  0  0  0  0  0  0  0  0  0
  -20.5377   -2.5463  126.5404 C   0  0  0  0  0  0  0  0  0  0  0  0
  -19.4251   -0.6857  126.4934 C   0  0  0  0  0  0  0  0  0  0  0  0
  -18.9448   10.0317  140.1812 C   0  0  0  0  0  0  0  0  0  0  0  0
  -18.0524   -0.8270  127.1701 O   0  0  0  0  0  0  0  0  0  0  0  0
  -22.6216    7.7700  127.7406 C   0  0  0  0  0  0  0  0  0  0  0  0
  -20.2318    9.6295  140.3255 O   0  0  0  0  0  0  0  0  0  0  0  0
  -18.2985    8.8017  139.4310 C   0  0  0  0  0  0  0  0  0  0  0  0
  -22.7234    8.2995  135.8485 C   0  0  0  0  0  0  0  0  0  0  0  0
  -20.4846    1.9947  126.6134 C   0  0  0  0  0  0  0  0  0  0  0  0
  -19.6038    8.4756  138.0851 C   0  0  0  0  0  0  0  0  0  0  0  0
  -23.5715    8.4176  129.8487 C   0  0  0  0  0  0  0  0  0  0  0  0
  -20.3478    5.5095  138.0311 C   0  0  0  0  0  0  0  0  0  0  0  0
  -16.7526    8.1795  139.5525 C   0  0  0  0  0  0  0  0  0  0  0  0
  2  1  1  0
  3  2  1  0
  4  1  1  0
  4  2  1  0
  5  4  1  0
  6  5  1  0
  7  5  1  0
 10  8  1  0
 11 10  1  0
 15 12  1  0
 15 13  1  0
 16 11  1  0
 17 11  1  0
 20 15  1  0
 21 18  1  0
 22 21  1  0
 23 22  1  0
 24 12  1  0
 24 18  1  0
 24 19  1  0
 25 14  1  0
 25 20  1  0
 26 25  1  0
 27 17  1  0
 28 13  1  0
 28 18  1  0
 30 27  1  0
 31 23  1  0
 32 22  1  0
 32 23  1  0
 33 22  1  0
 33 32  1  0
 35 33  1  0
 36  9  1  0
 37 34  1  0
 38 34  1  0
 39  7  1  0
 39  8  1  0
 39 29  1  0
 40  9  1  0
 40 33  1  0
 41 29  1  0
 41 38  1  0
 42 10  1  0
 42 36  1  0
 43  4  1  0
 44 38  2  0
M  END
$$$$

     RDKit          3D

 11 15  0  0  0  0  0  0  0  0999 V2000
  -26.7514   -1.0289  142.6833 C   0  0  0  0  0  0  0  0  0  0  0  0
  -26.2142   -2.3136  141.9988 C   0  0  0  0  0  0  0  0  0  0  0  0
  -25.8729    0.0807  143.2640 C   0  0  0  0  0  0  0  0  0  0  0  0
  -27.1119   -2.3452  140.7652 C   0  0  0  0  0  0  0  0  0  0  0  0
  -26.1922    0.2479  144.7524 C   0  0  0  0  0  0  0  0  0  0  0  0
  -27.9711   -1.0909  141.0512 C   0  0  0  0  0  0  0  0  0  0  0  0
  -25.0708    0.8404  145.5920 C   0  0  0  0  0  0  0  0  0  0  0  0
  -28.2298   -0.1009  140.1021 O   0  0  0  0  0  0  0  0  0  0  0  0
  -26.4896   -1.1037  141.2203 C   0  0  0  0  0  0  0  0  0  0  0  0
  -28.1200   -0.7510  142.4219 O   0  0  0  0  0  0  0  0  0  0  0  0
  -25.3980   -0.6418  145.6968 C   0  0  0  0  0  0  0  0  0  0  0  0
  2  1  1  0
  3  1  1  0
  4  2  1  0
  5  3  1  0
  6  4  1  0
  7  5  1  0
  8  6  1  0
  9  1  1  0
  9  2  1  0
  9  4  1  0
  9  6  1  0
 10  1  1  0
 10  6  1  0
 11  5  1  0
 11  7  1  0
M  END
$$$$

     RDKit          3D

 11 13  0  0  0  0  0  0  0  0999 V2000
  -24.0341   -1.0034  140.8876 O   0  0  0  0  0  0  0  0  0  0  0  0
  -23.6410    0.3364  141.0060 C   0  0  0  0  0  0  0  0  0  0  0  0
  -24.6218    1.1407  140.4103 O   0  0  0  0  0  0  0  0  0  0  0  0
  -22.3084    0.5378  140.2701 C   0  0  0  0  0  0  0  0  0  0  0  0
  -21.4663    1.6908  140.7725 C   0  0  0  0  0  0  0  0  0  0  0  0
  -20.6738    1.3502  142.0166 C   0  0  0  0  0  0  0  0  0  0  0  0
  -21.4318    1.3360  143.1976 O   0  0  0  0  0  0  0  0  0  0  0  0
  -21.3061    2.6061  143.7845 C   0  0  0  0  0  0  0  0  0  0  0  0
  -22.4645    3.5466  143.4971 C   0  0  0  0  0  0  0  0  0  0  0  0
  -22.3694    2.8464  144.8413 C   0  0  0  0  0  0  0  0  0  0  0  0
  -21.0693    0.2276  141.0839 C   0  0  0  0  0  0  0  0  0  0  0  0
  2  1  1  0
  3  2  1  0
  4  2  1  0
  5  4  1  0
  6  5  1  0
  7  6  1  0
  8  7  1  0
  9  8  1  0
 10  8  1  0
 10  9  1  0
 11  4  1  0
 11  5  1  0
 11  6  1  0
M  END
$$$$

     RDKit          3D

 11 12  0  0  0  0  0  0  0  0999 V2000
  -25.5146  -13.0900  157.0490 O   0  0  0  0  0  0  0  0  0  0  0  0
  -25.9907  -12.6592  154.8576 C   0  0  0  0  0  0  0  0  0  0  0  0
  -25.6513  -11.2276  155.0270 N   0  0  0  0  0  0  0  0  0  0  0  0
  -26.8275  -10.3411  155.0962 C   0  0  0  0  0  0  0  0  0  0  0  0
  -25.1990  -13.4655  155.7845 N   0  0  0  0  0  0  0  0  0  0  0  0
  -27.7529  -10.0569  153.9207 C   0  0  0  0  0  0  0  0  0  0  0  0
  -28.2033  -11.1772  152.9762 C   0  0  0  0  0  0  0  0  0  0  0  0
  -26.3397   -9.5223  153.8518 C   0  0  0  0  0  0  0  0  0  0  0  0
  -28.4830  -10.6223  151.6566 N   0  0  0  0  0  0  0  0  0  0  0  0
  -25.1286  -10.4418  153.9054 C   0  0  0  0  0  0  0  0  0  0  0  0
  -24.7433  -11.1446  152.5927 C   0  0  0  0  0  0  0  0  0  0  0  0
  3  2  1  0
  4  3  1  0
  5  1  1  0
  5  2  1  0
  6  4  1  0
  7  6  1  0
  8  4  1  0
  8  6  1  0
  9  7  1  0
 10  3  1  0
 10  8  1  0
 11 10  1  0
M  END
$$$$

     RDKit          3D

 43 46  0  0  0  0  0  0  0  0999 V2000
  -25.5143   -4.8138  142.7065 S   0  0  0  0  0  0  0  0  0  0  0  0
  -25.7427   -4.8739  140.9728 O   0  0  0  0  0  0  0  0  0  0  0  0
  -25.0034   -6.5709  142.9173 C   0  0  0  0  0  0  0  0  0  0  0  0
  -23.6930   -6.7307  143.7156 C   0  0  0  0  0  0  0  0  0  0  0  0
  -23.6863   -6.3825  145.2478 C   0  0  0  0  0  0  0  0  0  0  0  0
  -24.4475   -5.1035  138.9896 C   0  0  0  0  0  0  0  0  0  0  0  0
  -22.3036   -5.9195  145.7920 C   0  0  0  0  0  0  0  0  0  0  0  0
  -24.8246   -5.4503  145.7803 C   0  0  0  0  0  0  0  0  0  0  0  0
  -24.5219   -4.4619  140.3826 C   0  0  0  0  0  0  0  0  0  0  0  0
  -22.0445   -4.3987  146.0645 C   0  0  0  0  0  0  0  0  0  0  0  0
  -21.4703   -3.5530  144.8982 C   0  0  0  0  0  0  0  0  0  0  0  0
  -26.1925   -6.1154  145.7348 C   0  0  0  0  0  0  0  0  0  0  0  0
  -20.8767   -2.1723  145.3539 C   0  0  0  0  0  0  0  0  0  0  0  0
  -21.1445   -1.0771  144.3555 C   0  0  0  0  0  0  0  0  0  0  0  0
  -20.3077   -1.0758  143.0968 C   0  0  0  0  0  0  0  0  0  0  0  0
  -20.0571   -0.0056  144.1952 C   0  0  0  0  0  0  0  0  0  0  0  0
  -25.5468   -5.8331  147.0675 C   0  0  0  0  0  0  0  0  0  0  0  0
  -22.4276   -3.4470  143.6997 C   0  0  0  0  0  0  0  0  0  0  0  0
  -19.0874   -1.9979  142.7106 C   0  0  0  0  0  0  0  0  0  0  0  0
  -17.9238   -2.4977  143.6733 C   0  0  0  0  0  0  0  0  0  0  0  0
  -16.9008   -1.4297  144.1645 C   0  0  0  0  0  0  0  0  0  0  0  0
  -15.4608   -1.3977  143.5722 C   0  0  0  0  0  0  0  0  0  0  0  0
  -15.4696   -1.5735  142.0708 C   0  0  0  0  0  0  0  0  0  0  0  0
  -17.4306   -3.8614  143.1078 C   0  0  0  0  0  0  0  0  0  0  0  0
  -14.4684   -1.1204  141.3050 C   0  0  0  0  0  0  0  0  0  0  0  0
  -14.5019   -2.3635  144.3371 C   0  0  0  0  0  0  0  0  0  0  0  0
  -17.9169   -3.7942  144.5300 C   0  0  0  0  0  0  0  0  0  0  0  0
  -14.4896   -1.1023  139.7601 C   0  0  0  0  0  0  0  0  0  0  0  0
  -17.0175   -0.7033  139.6759 N   0  0  0  0  0  0  0  0  0  0  0  0
  -13.4903   -2.1472  139.2470 C   0  0  0  0  0  0  0  0  0  0  0  0
  -14.0274    0.1584  139.2767 O   0  0  0  0  0  0  0  0  0  0  0  0
  -15.8637   -1.3957  139.0635 C   0  0  0  0  0  0  0  0  0  0  0  0
  -16.7362    0.6180  139.9376 O   0  0  0  0  0  0  0  0  0  0  0  0
  -17.2643    1.6822  139.2016 C   0  0  0  0  0  0  0  0  0  0  0  0
  -18.0213    2.6502  139.8345 C   0  0  0  0  0  0  0  0  0  0  0  0
  -17.4201    2.9152  137.1174 C   0  0  0  0  0  0  0  0  0  0  0  0
  -18.3855    3.8343  139.1682 C   0  0  0  0  0  0  0  0  0  0  0  0
  -18.3736    2.4774  141.3033 C   0  0  0  0  0  0  0  0  0  0  0  0
  -19.2836    5.1354  140.0011 Cl  0  0  0  0  0  0  0  0  0  0  0  0
  -16.9812    1.7933  137.8230 C   0  0  0  0  0  0  0  0  0  0  0  0
  -18.0904    3.9592  137.7848 C   0  0  0  0  0  0  0  0  0  0  0  0
  -18.5426    5.1322  136.9829 C   0  0  0  0  0  0  0  0  0  0  0  0
  -17.9847    6.3502  137.0786 C   0  0  0  0  0  0  0  0  0  0  0  0
  2  1  1  0
  3  1  1  0
  4  3  1  0
  5  4  1  0
  7  5  1  0
  8  5  1  0
  9  2  1  0
  9  6  1  0
 10  7  1  0
 11 10  1  0
 12  8  1  0
 13 11  1  0
 14 13  1  0
 15 14  1  0
 16 14  1  0
 16 15  1  0
 17  8  1  0
 17 12  1  0
 18 11  1  0
 19 15  1  0
 20 19  1  0
 21 20  1  0
 22 21  1  0
 23 22  1  0
 24 20  1  0
 25 23  2  3
 26 22  1  0
 27 20  1  0
 27 24  1  0
 28 25  1  0
 30 28  1  0
 31 28  1  0
 32 28  1  0
 32 29  1  0
 33 29  1  0
 34 33  1  0
 35 34  4  0
 37 35  4  0
 38 35  1  0
 39 37  1  0
 40 34  4  0
 40 36  4  0
 41 36  4  0
 41 37  4  0
 42 41  1  0
 43 42  2  0
M  END
$$$$

     RDKit          3D

 11 14  0  0  0  0  0  0  0  0999 V2000
  -28.9244   -4.1926  134.8245 O   0  0  0  0  0  0  0  0  0  0  0  0
  -29.0247   -5.4653  134.2081 C   0  0  0  0  0  0  0  0  0  0  0  0
  -29.3508   -6.4990  135.2838 C   0  0  0  0  0  0  0  0  0  0  0  0
  -30.3612   -5.3396  133.4427 C   0  0  0  0  0  0  0  0  0  0  0  0
  -29.6758   -5.7663  136.5814 C   0  0  0  0  0  0  0  0  0  0  0  0
  -30.5450   -6.5402  132.5005 C   0  0  0  0  0  0  0  0  0  0  0  0
  -28.5892   -5.2606  135.6514 C   0  0  0  0  0  0  0  0  0  0  0  0
  -29.8988   -6.4079  131.1296 C   0  0  0  0  0  0  0  0  0  0  0  0
  -29.2241   -6.4098  137.8922 C   0  0  0  0  0  0  0  0  0  0  0  0
  -30.9161   -4.9966  136.5818 N   0  0  0  0  0  0  0  0  0  0  0  0
  -31.4076   -6.2762  131.2755 C   0  0  0  0  0  0  0  0  0  0  0  0
  2  1  1  0
  3  2  1  0
  4  2  1  0
  5  3  1  0
  6  4  1  0
  7  1  1  0
  7  2  1  0
  7  3  1  0
  7  5  1  0
  8  6  1  0
  9  5  1  0
 10  5  1  0
 11  6  1  0
 11  8  1  0
M  END
$$$$

     RDKit          3D

 11 12  0  0  0  0  0  0  0  0999 V2000
  -19.2912   -3.7496  139.3392 O   0  0  0  0  0  0  0  0  0  0  0  0
  -17.7969   -3.6709  137.7415 C   0  0  0  0  0  0  0  0  0  0  0  0
  -17.9940   -3.6066  139.1341 O   0  0  0  0  0  0  0  0  0  0  0  0
  -17.8050   -5.1224  137.2438 C   0  0  0  0  0  0  0  0  0  0  0  0
  -16.7473   -5.9953  137.9504 C   0  0  0  0  0  0  0  0  0  0  0  0
  -17.0643   -7.4920  137.9540 C   0  0  0  0  0  0  0  0  0  0  0  0
  -15.8751   -8.4673  137.8591 C   0  0  0  0  0  0  0  0  0  0  0  0
  -14.5663   -7.9227  138.3649 C   0  0  0  0  0  0  0  0  0  0  0  0
  -14.2855   -6.6161  138.3360 C   0  0  0  0  0  0  0  0  0  0  0  0
  -17.1883   -6.6814  139.2483 C   0  0  0  0  0  0  0  0  0  0  0  0
  -15.2587   -5.6038  137.7949 C   0  0  0  0  0  0  0  0  0  0  0  0
  3  1  1  0
  3  2  1  0
  4  2  1  0
  5  4  1  0
  6  5  1  0
  7  6  1  0
  8  7  1  0
  9  8  2  0
 10  5  1  0
 10  6  1  0
 11  5  1  0
 11  9  1  0
M  END
$$$$

     RDKit          3D

 11 12  0  0  0  0  0  0  0  0999 V2000
  -30.9558  -10.6258  141.4368 O   0  0  0  0  0  0  0  0  0  0  0  0
  -29.8019  -11.3676  141.6878 C   0  0  0  0  0  0  0  0  0  0  0  0
  -28.6758  -10.8093  141.6574 O   0  0  0  0  0  0  0  0  0  0  0  0
  -32.2594  -11.2082  141.4334 C   0  0  0  0  0  0  0  0  0  0  0  0
  -32.3382  -12.3356  140.3880 C   0  0  0  0  0  0  0  0  0  0  0  0
  -32.4700  -11.8527  138.9489 C   0  0  0  0  0  0  0  0  0  0  0  0
  -31.7755  -12.7630  137.9312 C   0  0  0  0  0  0  0  0  0  0  0  0
  -32.6155  -11.7421  142.8216 C   0  0  0  0  0  0  0  0  0  0  0  0
  -33.6672  -12.4780  139.6564 C   0  0  0  0  0  0  0  0  0  0  0  0
  -30.3005  -12.4503  137.7378 C   0  0  0  0  0  0  0  0  0  0  0  0
  -31.3047  -12.0634  136.6659 C   0  0  0  0  0  0  0  0  0  0  0  0
  2  1  1  0
  3  2  2  0
  4  1  1  0
  5  4  1  0
  6  5  1  0
  7  6  1  0
  8  4  1  0
  9  5  1  0
  9  6  1  0
 10  7  1  0
 11  7  1  0
 11 10  1  0
M  END
$$$$

     RDKit          3D

 11 11  0  0  0  0  0  0  0  0999 V2000
  -28.3882   -2.3158  141.7858 N   0  0  0  0  0  0  0  0  0  0  0  0
  -28.4970   -3.3964  141.0750 C   0  0  0  0  0  0  0  0  0  0  0  0
  -28.2142   -3.4944  139.6667 N   0  0  0  0  0  0  0  0  0  0  0  0
  -27.9637   -2.6237  138.7254 C   0  0  0  0  0  0  0  0  0  0  0  0
  -27.9230   -1.0162  141.3364 C   0  0  0  0  0  0  0  0  0  0  0  0
  -27.8395   -4.4592  137.0199 N   0  0  0  0  0  0  0  0  0  0  0  0
  -27.8601   -1.1294  138.9347 C   0  0  0  0  0  0  0  0  0  0  0  0
  -29.2122   -4.6929  136.5605 C   0  0  0  0  0  0  0  0  0  0  0  0
  -28.5906   -0.6264  140.0961 N   0  0  0  0  0  0  0  0  0  0  0  0
  -27.6939   -3.1078  137.3965 N   0  0  0  0  0  0  0  0  0  0  0  0
  -30.1559   -4.6351  137.6744 N   0  0  0  0  0  0  0  0  0  0  0  0
  2  1  2  0
  3  2  1  0
  4  3  2  0
  5  1  1  0
  7  4  1  0
  8  6  1  0
  9  5  1  0
  9  7  1  0
 10  4  1  0
 10  6  1  0
 11  8  1  0
M  END
$$$$

     RDKit          3D

 11 12  0  0  0  0  0  0  0  0999 V2000
  -25.7484  -19.2020  138.3073 O   0  0  0  0  0  0  0  0  0  0  0  0
  -26.2270  -20.2894  138.7298 C   0  0  0  0  0  0  0  0  0  0  0  0
  -25.7130  -18.9818  139.0683 O   0  0  0  0  0  0  0  0  0  0  0  0
  -25.9970  -20.6624  135.2612 C   0  0  0  0  0  0  0  0  0  0  0  0
  -27.1017  -23.6463  135.3660 C   0  0  0  0  0  0  0  0  0  0  0  0
  -26.9143  -21.3458  134.2675 C   0  0  0  0  0  0  0  0  0  0  0  0
  -26.4038  -22.7945  134.2502 C   0  0  0  0  0  0  0  0  0  0  0  0
  -26.5572  -21.3059  137.0717 Al  0  0  0  0  0  3  0  0  0  0  0  0
  -26.7896  -23.2708  136.8446 C   0  0  0  0  0  0  0  0  0  0  0  0
  -24.8797  -22.6816  134.4409 C   0  0  0  0  0  0  0  0  0  0  0  0
  -24.6222  -21.2397  134.9036 C   0  0  0  0  0  0  0  0  0  0  0  0
  2  1  2  0
  3  2  1  0
  6  4  1  0
  7  5  1  0
  7  6  1  0
  8  2  1  0
  8  4  1  0
  9  5  1  0
  9  8  1  0
 10  7  1  0
 11  4  1  0
 11 10  1  0
M  END
$$$$

     RDKit          3D

 11 12  0  0  0  0  0  0  0  0999 V2000
  -35.6959   -8.2623  138.0318 Mg  0  0  0  0  0  2  0  0  0  0  0  0
  -37.2307  -10.1968  139.9225 C   0  0  0  0  0  0  0  0  0  0  0  0
  -38.2138   -9.1974  139.9386 O   0  0  0  0  0  0  0  0  0  0  0  0
  -36.7124  -10.4663  138.1956 S   0  0  0  0  0  0  0  0  0  0  0  0
  -36.0449   -9.7749  140.8034 C   0  0  0  0  0  0  0  0  0  0  0  0
  -34.9887   -5.5116  139.2208 C   0  0  0  0  0  0  0  0  0  0  0  0
  -33.6469   -6.1655  138.9602 C   0  0  0  0  0  0  0  0  0  0  0  0
  -34.7702   -6.3127  137.9522 C   0  0  0  0  0  0  0  0  0  0  0  0
  -34.9773  -10.8762  140.8829 C   0  0  0  0  0  0  0  0  0  0  0  0
  -33.6578  -10.4214  141.4890 C   0  0  0  0  0  0  0  0  0  0  0  0
  -33.7530  -10.6936  139.9968 C   0  0  0  0  0  0  0  0  0  0  0  0
  3  2  1  0
  4  1  1  0
  4  2  1  0
  5  2  1  0
  7  6  1  0
  8  1  1  0
  8  6  1  0
  8  7  1  0
  9  5  1  0
 10  9  1  0
 11  9  1  0
 11 10  1  0
M  END
$$$$

     RDKit          3D

 11 12  0  0  0  0  0  0  0  0999 V2000
  -31.3941   -4.5910  139.0113 O   0  0  0  0  0  0  0  0  0  0  0  0
  -30.3491   -4.0845  139.8106 C   0  0  0  0  0  0  0  0  0  0  0  0
  -30.7401   -3.9926  141.1506 O   0  0  0  0  0  0  0  0  0  0  0  0
  -31.0881   -3.2228  138.8528 C   0  0  0  0  0  0  0  0  0  0  0  0
  -32.2187   -2.3203  139.3816 C   0  0  0  0  0  0  0  0  0  0  0  0
  -31.6129   -0.9842  139.8693 C   0  0  0  0  0  0  0  0  0  0  0  0
  -33.2473   -2.1045  138.2633 C   0  0  0  0  0  0  0  0  0  0  0  0
  -32.5981   -0.0903  140.6390 C   0  0  0  0  0  0  0  0  0  0  0  0
  -33.0241   -0.7294  141.9695 C   0  0  0  0  0  0  0  0  0  0  0  0
  -34.1695   -0.0114  142.6673 C   0  0  0  0  0  0  0  0  0  0  0  0
  -34.4102   -1.3571  142.0034 C   0  0  0  0  0  0  0  0  0  0  0  0
  2  1  1  0
  3  2  1  0
  4  1  1  0
  4  2  1  0
  5  4  1  0
  6  5  1  0
  7  5  1  0
  8  6  1  0
  9  8  1  0
 10  9  1  0
 11  9  1  0
 11 10  1  0
M  END
$$$$

     RDKit          3D

 11 13  0  0  0  0  0  0  0  0999 V2000
  -23.5011    0.7715  147.4740 F   0  0  0  0  0  0  0  0  0  0  0  0
  -23.2380   -1.7180  147.2941 C   0  0  0  0  0  0  0  0  0  0  0  0
  -23.4887   -0.3531  146.6652 C   0  0  0  0  0  0  0  0  0  0  0  0
  -25.2337   -1.6914  145.6156 C   0  0  0  0  0  0  0  0  0  0  0  0
  -24.4772   -2.4095  147.8767 C   0  0  0  0  0  0  0  0  0  0  0  0
  -23.9847   -2.1580  149.2971 C   0  0  0  0  0  0  0  0  0  0  0  0
  -24.5339   -3.8754  147.3945 C   0  0  0  0  0  0  0  0  0  0  0  0
  -24.8426   -1.2201  150.0270 N   0  0  0  0  0  0  0  0  0  0  0  0
  -26.5144   -1.4844  145.3071 C   0  0  0  0  0  0  0  0  0  0  0  0
  -22.7272   -1.5288  148.7408 C   0  0  0  0  0  0  0  0  0  0  0  0
  -24.6883   -1.2253  146.9430 C   0  0  0  0  0  0  0  0  0  0  0  0
  3  1  1  0
  3  2  1  0
  5  2  1  0
  6  5  1  0
  7  5  1  0
  8  6  1  0
  9  4  2  0
 10  2  1  0
 10  6  1  0
 11  2  1  0
 11  3  1  0
 11  4  1  0
 11  5  1  0
M  END
$$$$

     RDKit          3D

 11 11  0  0  0  0  0  0  0  0999 V2000
  -25.8942   -1.3562  131.6219 O   0  0  0  0  0  0  0  0  0  0  0  0
  -25.8339   -0.2240  130.7935 C   0  0  0  0  0  0  0  0  0  0  0  0
  -25.2394    0.8588  131.4661 O   0  0  0  0  0  0  0  0  0  0  0  0
  -27.2333    0.1572  130.2759 C   0  0  0  0  0  0  0  0  0  0  0  0
  -28.3069    0.3327  131.3983 C   0  0  0  0  0  0  0  0  0  0  0  0
  -29.4248   -0.7501  131.3528 C   0  0  0  0  0  0  0  0  0  0  0  0
  -30.4326   -0.5231  132.5017 C   0  0  0  0  0  0  0  0  0  0  0  0
  -28.8755   -2.1838  131.4609 C   0  0  0  0  0  0  0  0  0  0  0  0
  -30.8590    0.9122  132.6506 C   0  0  0  0  0  0  0  0  0  0  0  0
  -30.1258    1.9337  132.1896 C   0  0  0  0  0  0  0  0  0  0  0  0
  -28.9474    1.7342  131.2764 C   0  0  0  0  0  0  0  0  0  0  0  0
  2  1  1  0
  3  2  1  0
  4  2  1  0
  5  4  1  0
  6  5  1  0
  7  6  1  0
  8  6  1  0
  9  7  1  0
 10  9  2  0
 11  5  1  0
 11 10  1  0
M  END
$$$$

     RDKit          3D

 11 14  0  0  0  0  0  0  0  0999 V2000
  -29.5434  -19.3944  144.1816 C   0  0  0  0  0  0  0  0  0  0  0  0
  -30.9266  -20.0016  144.4397 C   0  0  0  0  0  0  0  0  0  0  0  0
  -31.9732  -18.9813  144.8466 C   0  0  0  0  0  0  0  0  0  0  0  0
  -28.4570  -20.3997  143.9220 C   0  0  0  0  0  0  0  0  0  0  0  0
  -31.7578  -18.5022  146.2757 C   0  0  0  0  0  0  0  0  0  0  0  0
  -31.3311  -19.9142  145.8969 C   0  0  0  0  0  0  0  0  0  0  0  0
  -27.6532  -20.1340  142.6768 C   0  0  0  0  0  0  0  0  0  0  0  0
  -33.7821  -17.1122  146.8607 C   0  0  0  0  0  0  0  0  0  0  0  0
  -33.0064  -18.3992  147.1585 C   0  0  0  0  0  0  0  0  0  0  0  0
  -29.0555  -19.5427  142.7515 C   0  0  0  0  0  0  0  0  0  0  0  0
  -26.4756  -19.1708  142.9060 C   0  0  0  0  0  0  0  0  0  0  0  0
  2  1  1  0
  3  2  1  0
  4  1  1  0
  5  3  1  0
  6  2  1  0
  6  3  1  0
  6  5  1  0
  7  4  1  0
  9  5  1  0
  9  8  1  0
 10  1  1  0
 10  4  1  0
 10  7  1  0
 11  7  1  0
M  END
$$$$

     RDKit          3D

 11 11  0  0  0  0  0  0  0  0999 V2000
  -27.9708   -5.3362  143.0190 C   0  0  0  0  0  0  0  0  0  0  0  0
  -27.1823   -6.2593  144.0050 C   0  0  0  0  0  0  0  0  0  0  0  0
  -27.2228   -3.9892  142.7199 C   0  0  0  0  0  0  0  0  0  0  0  0
  -26.1078   -3.9919  141.6372 C   0  0  0  0  0  0  0  0  0  0  0  0
  -25.8311   -6.8403  143.5214 C   0  0  0  0  0  0  0  0  0  0  0  0
  -24.6281   -6.1977  144.2282 C   0  0  0  0  0  0  0  0  0  0  0  0
  -28.3784   -6.0995  141.7338 C   0  0  0  0  0  0  0  0  0  0  0  0
  -29.2899   -4.9607  143.7432 C   0  0  0  0  0  0  0  0  0  0  0  0
  -24.7469   -3.4719  142.1487 C   0  0  0  0  0  0  0  0  0  0  0  0
  -24.6060   -4.8010  144.0123 O   0  0  0  0  0  0  0  0  0  0  0  0
  -23.9765   -4.5117  142.8297 N   0  0  0  0  0  0  0  0  0  0  0  0
  2  1  1  0
  3  1  1  0
  4  3  1  0
  5  2  1  0
  6  5  1  0
  7  1  1  0
  8  1  1  0
  9  4  1  0
 10  6  1  0
 11  9  1  0
 11 10  1  0
M  END
$$$$

     RDKit          3D

 11 13  0  0  0  0  0  0  0  0999 V2000
  -28.2738   -8.2042  146.9098 C   0  0  0  0  0  0  0  0  0  0  0  0
  -27.3205   -7.0080  147.1253 C   0  0  0  0  0  0  0  0  0  0  0  0
  -25.8862   -7.3324  147.5389 C   0  0  0  0  0  0  0  0  0  0  0  0
  -27.3551   -6.0121  145.9813 C   0  0  0  0  0  0  0  0  0  0  0  0
  -25.4876   -8.8023  147.7681 C   0  0  0  0  0  0  0  0  0  0  0  0
  -26.1643   -6.9390  146.0976 C   0  0  0  0  0  0  0  0  0  0  0  0
  -23.9610   -8.9265  147.9073 C   0  0  0  0  0  0  0  0  0  0  0  0
  -23.2076   -8.8777  146.6082 C   0  0  0  0  0  0  0  0  0  0  0  0
  -23.4779  -10.3427  148.0352 C   0  0  0  0  0  0  0  0  0  0  0  0
  -21.9396  -11.1345  146.0221 C   0  0  0  0  0  0  0  0  0  0  0  0
  -22.7029  -10.3054  146.7291 C   0  0  0  0  0  0  0  0  0  0  0  0
  2  1  1  0
  3  2  1  0
  4  2  1  0
  5  3  1  0
  6  2  1  0
  6  3  1  0
  6  4  1  0
  7  5  1  0
  8  7  1  0
  9  7  1  0
 11  8  1  0
 11  9  1  0
 11 10  2  0
M  END
$$$$

     RDKit          3D

 11 14  0  0  0  0  0  0  0  0999 V2000
  -30.6641   -3.5596  141.4043 C   0  0  0  0  0  0  0  0  0  0  0  0
  -29.8553   -4.7350  141.9349 C   0  0  0  0  0  0  0  0  0  0  0  0
  -28.8233   -5.3157  140.9542 C   0  0  0  0  0  0  0  0  0  0  0  0
  -27.6179   -5.9197  141.6880 C   0  0  0  0  0  0  0  0  0  0  0  0
  -26.7321   -7.7914  143.1166 C   0  0  0  0  0  0  0  0  0  0  0  0
  -26.7374   -9.2486  143.2627 C   0  0  0  0  0  0  0  0  0  0  0  0
  -25.3885   -9.7511  142.9444 C   0  0  0  0  0  0  0  0  0  0  0  0
  -25.8415   -9.7279  144.3856 C   0  0  0  0  0  0  0  0  0  0  0  0
  -27.9746   -7.2074  142.4424 C   0  0  0  0  0  0  0  0  0  0  0  0
  -29.5662   -3.3260  142.4314 C   0  0  0  0  0  0  0  0  0  0  0  0
  -25.9327   -8.6091  142.1868 N   0  0  0  0  0  0  0  0  0  0  0  0
  2  1  1  0
  3  2  1  0
  4  3  1  0
  6  5  1  0
  7  6  1  0
  8  6  1  0
  8  7  1  0
  9  4  1  0
  9  5  1  0
 10  1  1  0
 10  2  1  0
 11  5  1  0
 11  6  1  0
 11  7  1  0
M  END
$$$$

     RDKit          3D

 11 12  0  0  0  0  0  0  0  0999 V2000
  -32.7080   -0.7796  132.8878 O   0  0  0  0  0  0  0  0  0  0  0  0
  -33.4070    0.4154  133.1391 C   0  0  0  0  0  0  0  0  0  0  0  0
  -32.7413    1.1863  134.0997 O   0  0  0  0  0  0  0  0  0  0  0  0
  -33.9482   -0.9076  133.5630 C   0  0  0  0  0  0  0  0  0  0  0  0
  -33.7245   -1.5646  134.9423 C   0  0  0  0  0  0  0  0  0  0  0  0
  -33.6059   -0.6236  136.1540 C   0  0  0  0  0  0  0  0  0  0  0  0
  -32.1817   -0.3266  136.7259 C   0  0  0  0  0  0  0  0  0  0  0  0
  -32.0416   -0.7567  138.1953 C   0  0  0  0  0  0  0  0  0  0  0  0
  -30.6452   -0.6764  135.6520 P   0  0  0  0  0  0  0  0  0  0  0  0
  -30.2275   -2.4205  134.9945 C   0  0  0  0  0  0  0  0  0  0  0  0
  -30.5693   -2.4599  136.3669 C   0  0  0  0  0  0  0  0  0  0  0  0
  2  1  1  0
  3  2  1  0
  4  1  1  0
  4  2  1  0
  5  4  1  0
  6  5  1  0
  7  6  1  0
  8  7  1  0
  9  7  1  0
 10  9  1  0
 11  9  1  0
 11 10  1  0
M  END
$$$$

     RDKit          3D

 11 12  0  0  0  0  0  0  0  0999 V2000
  -23.3659  -14.3482  148.4102 O   0  0  0  0  0  0  0  0  0  0  0  0
  -22.9498  -13.5420  147.3392 C   0  0  0  0  0  0  0  0  0  0  0  0
  -21.9060  -14.3035  146.5117 C   0  0  0  0  0  0  0  0  0  0  0  0
  -21.4498  -13.5000  145.2745 C   0  0  0  0  0  0  0  0  0  0  0  0
  -22.3428  -12.2156  147.8736 C   0  0  0  0  0  0  0  0  0  0  0  0
  -21.6203  -11.9763  145.4298 C   0  0  0  0  0  0  0  0  0  0  0  0
  -23.4189  -11.1727  148.2281 C   0  0  0  0  0  0  0  0  0  0  0  0
  -21.3769  -11.5293  146.8824 C   0  0  0  0  0  0  0  0  0  0  0  0
  -21.6523  -10.0746  147.0625 C   0  0  0  0  0  0  0  0  0  0  0  0
  -22.8062   -9.8014  147.9637 C   0  0  0  0  0  0  0  0  0  0  0  0
  -20.8963   -9.1166  146.5144 C   0  0  0  0  0  0  0  0  0  0  0  0
  2  1  1  0
  3  2  1  0
  4  3  1  0
  5  2  1  0
  6  4  1  0
  7  5  1  0
  8  5  1  0
  8  6  1  0
  9  8  1  0
 10  7  1  0
 10  9  1  0
 11  9  2  0
M  END
$$$$

     RDKit          3D

 11 13  0  0  0  0  0  0  0  0999 V2000
  -17.3578   -2.0727  138.9024 Cl  0  0  0  0  0  0  0  0  0  0  0  0
  -21.6268   -7.7943  139.9683 C   0  0  0  0  0  0  0  0  0  0  0  0
  -20.1369   -7.6696  137.7802 C   0  0  0  0  0  0  0  0  0  0  0  0
  -19.3957   -6.3513  139.9477 C   0  0  0  0  0  0  0  0  0  0  0  0
  -20.2806   -4.0290  139.2630 C   0  0  0  0  0  0  0  0  0  0  0  0
  -19.7201   -5.3850  138.8498 C   0  0  0  0  0  0  0  0  0  0  0  0
  -20.3530   -7.3366  139.2448 C   0  0  0  0  0  0  0  0  0  0  0  0
  -20.6667   -6.2934  138.1218 C   0  0  0  0  0  0  0  0  0  0  0  0
  -21.2840   -8.6697  140.9814 F   0  0  0  0  0  0  0  0  0  0  0  0
  -19.0367   -4.1239  138.3662 C   0  0  0  0  0  0  0  0  0  0  0  0
  -17.7024   -3.8132  139.0447 C   0  0  0  0  0  0  0  0  0  0  0  0
  6  4  1  0
  6  5  1  0
  7  2  1  0
  7  3  1  0
  7  4  1  0
  8  3  1  0
  8  6  1  0
  8  7  1  0
  9  2  1  0
 10  5  1  0
 10  6  1  0
 11  1  1  0
 11 10  1  0
M  END
$$$$

     RDKit          3D

 10 10  0  0  0  0  0  0  0  0999 V2000
  -22.1958   -7.1627  152.4805 Cl  0  0  0  0  0  0  0  0  0  0  0  0
  -20.9580   -7.9242  149.5987 C   0  0  0  0  0  0  0  0  0  0  0  0
  -23.5033   -6.2026  149.8058 O   0  0  0  0  0  0  0  0  0  0  0  0
  -21.7488   -8.8315  152.0092 C   0  0  0  0  0  0  0  0  0  0  0  0
  -20.2461   -9.0026  151.8221 C   0  0  0  0  0  0  0  0  0  0  0  0
  -23.3954   -7.2837  149.2426 C   0  0  0  0  0  0  0  0  0  0  0  0
  -22.0955   -7.6558  148.5772 C   0  0  0  0  0  0  0  0  0  0  0  0
  -21.1796   -9.0880  150.6081 C   0  0  0  0  0  0  0  0  0  0  0  0
  -21.3726  -10.5209  150.0793 C   0  0  0  0  0  0  0  0  0  0  0  0
  -22.3080   -8.7999  147.5698 C   0  0  0  0  0  0  0  0  0  0  0  0
  4  1  1  0
  5  4  1  0
  6  3  2  0
  7  2  1  0
  7  6  1  0
  8  2  1  0
  8  4  1  0
  8  5  1  0
  9  8  1  0
 10  7  1  0
M  END
$$$$

     RDKit          3D

 11 14  0  0  0  0  0  0  0  0999 V2000
  -26.1455  -13.6863  134.9119 N   0  0  0  0  0  0  0  0  0  0  0  0
  -27.1094  -12.6027  135.1397 C   0  0  0  0  0  0  0  0  0  0  0  0
  -27.1903  -11.7541  133.9556 N   0  0  0  0  0  0  0  0  0  0  0  0
  -28.4715  -13.0524  135.5718 C   0  0  0  0  0  0  0  0  0  0  0  0
  -25.6706  -14.1122  136.1726 N   0  0  0  0  0  0  0  0  0  0  0  0
  -27.5893  -13.9950  134.7893 C   0  0  0  0  0  0  0  0  0  0  0  0
  -24.5604  -15.0392  135.9377 C   0  0  0  0  0  0  0  0  0  0  0  0
  -25.0223  -16.4471  135.5998 C   0  0  0  0  0  0  0  0  0  0  0  0
  -23.9641  -15.5423  137.2464 C   0  0  0  0  0  0  0  0  0  0  0  0
  -22.9618  -16.6702  137.1437 C   0  0  0  0  0  0  0  0  0  0  0  0
  -24.4247  -16.9682  136.8969 C   0  0  0  0  0  0  0  0  0  0  0  0
  2  1  1  0
  3  2  1  0
  4  2  1  0
  5  1  1  0
  6  1  1  0
  6  2  1  0
  6  4  1  0
  7  5  1  0
  8  7  1  0
  9  7  1  0
 10  9  1  0
 11  8  1  0
 11  9  1  0
 11 10  1  0
M  END
$$$$

     RDKit          3D

 11 15  0  0  0  0  0  0  0  0999 V2000
  -24.4910  -15.8767  136.8904 C   0  0  0  0  0  0  0  0  0  0  0  0
  -24.4499  -15.3307  135.4237 C   0  0  0  0  0  0  0  0  0  0  0  0
  -25.4218  -17.0899  137.0950 C   0  0  0  0  0  0  0  0  0  0  0  0
  -25.9829  -17.6051  135.8640 C   0  0  0  0  0  0  0  0  0  0  0  0
  -26.7027  -18.7644  135.2335 C   0  0  0  0  0  0  0  0  0  0  0  0
  -24.0779  -16.2513  134.2109 C   0  0  0  0  0  0  0  0  0  0  0  0
  -25.1819  -18.5735  135.1956 C   0  0  0  0  0  0  0  0  0  0  0  0
  -23.0486  -17.3557  134.3895 C   0  0  0  0  0  0  0  0  0  0  0  0
  -24.7643  -18.2447  136.5480 N   0  0  0  0  0  0  0  0  0  0  0  0
  -24.5086  -17.7362  134.0774 C   0  0  0  0  0  0  0  0  0  0  0  0
  -24.9177  -14.7572  137.8459 C   0  0  0  0  0  0  0  0  0  0  0  0
  2  1  1  0
  3  1  1  0
  4  3  1  0
  5  4  1  0
  6  2  1  0
  7  4  1  0
  7  5  1  0
  8  6  1  0
  9  3  1  0
  9  4  1  0
  9  7  1  0
 10  6  1  0
 10  7  1  0
 10  8  1  0
 11  1  1  0
M  END
$$$$

     RDKit          3D

 11 11  0  0  0  0  0  0  0  0999 V2000
  -23.8174   -2.5800  143.2452 C   0  0  0  0  0  0  0  0  0  0  0  0
  -24.5949   -1.4090  142.6554 C   0  0  0  0  0  0  0  0  0  0  0  0
  -23.8650   -0.0572  142.6031 C   0  0  0  0  0  0  0  0  0  0  0  0
  -23.6116    0.4074  141.1595 C   0  0  0  0  0  0  0  0  0  0  0  0
  -24.8960   -1.8962  144.0662 C   0  0  0  0  0  0  0  0  0  0  0  0
  -22.7751   -1.6231  139.8345 C   0  0  0  0  0  0  0  0  0  0  0  0
  -21.3108   -1.7468  137.8523 C   0  0  0  0  0  0  0  0  0  0  0  0
  -22.3079   -2.2717  136.8032 C   0  0  0  0  0  0  0  0  0  0  0  0
  -21.7604   -2.1936  135.4519 N   0  0  0  0  0  0  0  0  0  0  0  0
  -21.6234   -2.2760  139.1892 N   0  0  0  0  0  0  0  0  0  0  0  0
  -22.4068   -0.2740  140.4822 C   0  0  0  0  0  0  0  0  0  0  0  0
  2  1  1  0
  3  2  1  0
  4  3  1  0
  5  1  1  0
  5  2  1  0
  8  7  1  0
  9  8  1  0
 10  6  1  0
 10  7  1  0
 11  4  1  0
 11  6  1  0
M  END
$$$$

     RDKit          3D

 11 13  0  0  0  0  0  0  0  0999 V2000
  -25.4720   -7.2624  133.8295 O   0  0  0  0  0  0  0  0  0  0  0  0
  -24.3153   -6.8977  134.5420 C   0  0  0  0  0  0  0  0  0  0  0  0
  -24.3589   -6.8391  136.1108 C   0  0  0  0  0  0  0  0  0  0  0  0
  -25.8438   -6.5031  136.2921 C   0  0  0  0  0  0  0  0  0  0  0  0
  -23.7826   -8.0411  135.2901 C   0  0  0  0  0  0  0  0  0  0  0  0
  -26.7021   -7.5033  136.9926 C   0  0  0  0  0  0  0  0  0  0  0  0
  -27.1735   -8.5504  136.1086 N   0  0  0  0  0  0  0  0  0  0  0  0
  -28.2450   -8.4737  135.3915 C   0  0  0  0  0  0  0  0  0  0  0  0
  -25.2085   -7.5264  137.2333 C   0  0  0  0  0  0  0  0  0  0  0  0
  -29.1635   -7.2769  135.3857 C   0  0  0  0  0  0  0  0  0  0  0  0
  -30.1802   -7.3614  136.5193 C   0  0  0  0  0  0  0  0  0  0  0  0
  2  1  1  0
  3  2  1  0
  4  3  1  0
  5  2  1  0
  5  3  1  0
  6  4  1  0
  7  6  1  0
  8  7  2  3
  9  3  1  0
  9  4  1  0
  9  6  1  0
 10  8  1  0
 11 10  1  0
M  END
$$$$

     RDKit          3D

 11 10  0  0  0  0  0  0  0  0999 V2000
  -23.3283  -12.5990  153.1267 O   0  0  0  0  0  0  0  0  0  0  0  0
  -22.9283  -11.2534  153.0125 C   0  0  0  0  0  0  0  0  0  0  0  0
  -24.0235  -10.4150  152.7484 O   0  0  0  0  0  0  0  0  0  0  0  0
  -21.8368  -11.0930  151.9366 C   0  0  0  0  0  0  0  0  0  0  0  0
  -22.2514  -11.5392  150.5156 C   0  0  0  0  0  0  0  0  0  0  0  0
  -23.0192  -10.4692  149.7162 C   0  0  0  0  0  0  0  0  0  0  0  0
  -22.0974   -9.3507  149.1984 C   0  0  0  0  0  0  0  0  0  0  0  0
  -23.9719   -7.5716  148.8625 C   0  0  0  0  0  0  0  0  0  0  0  0
  -23.5183   -6.7400  150.0732 C   0  0  0  0  0  0  0  0  0  0  0  0
  -22.8112   -8.3833  148.2365 C   0  0  0  0  0  0  0  0  0  0  0  0
  -24.5887   -6.6492  147.8024 C   0  0  0  0  0  0  0  0  0  0  0  0
  2  1  1  0
  3  2  1  0
  4  2  1  0
  5  4  1  0
  6  5  1  0
  7  6  1  0
  9  8  1  0
 10  7  1  0
 10  8  1  0
 11  8  1  0
M  END
$$$$

     RDKit          3D

 11 13  0  0  0  0  0  0  0  0999 V2000
  -30.9561   -9.1168  140.1811 O   0  0  0  0  0  0  0  0  0  0  0  0
  -30.8210  -11.0703  141.6352 C   0  0  0  0  0  0  0  0  0  0  0  0
  -30.2229  -12.3186  141.8502 O   0  0  0  0  0  0  0  0  0  0  0  0
  -30.2380  -10.2777  140.4828 C   0  0  0  0  0  0  0  0  0  0  0  0
  -30.3824   -9.9460  142.5527 C   0  0  0  0  0  0  0  0  0  0  0  0
  -28.8458   -9.2312  144.4291 C   0  0  0  0  0  0  0  0  0  0  0  0
  -27.7446  -10.2035  142.3697 C   0  0  0  0  0  0  0  0  0  0  0  0
  -27.7964  -11.0149  141.0480 C   0  0  0  0  0  0  0  0  0  0  0  0
  -29.0243  -10.2314  143.2801 C   0  0  0  0  0  0  0  0  0  0  0  0
  -28.7990  -10.5195  139.9642 C   0  0  0  0  0  0  0  0  0  0  0  0
  -30.1595   -9.0287  141.3429 C   0  0  0  0  0  0  0  0  0  0  0  0
  3  2  1  0
  4  1  1  0
  4  2  1  0
  5  2  1  0
  8  7  1  0
  9  5  1  0
  9  6  1  0
  9  7  1  0
 10  4  1  0
 10  8  1  0
 11  1  1  0
 11  4  1  0
 11  5  1  0
M  END
$$$$

     RDKit          3D

  6  5  0  0  0  0  0  0  0  0999 V2000
  -22.0661   -3.8295  136.6456 N   0  0  0  0  0  0  0  0  0  0  0  0
  -23.5567   -4.8110  138.3034 C   0  0  0  0  0  0  0  0  0  0  0  0
  -24.2298   -4.7947  139.3218 O   0  0  0  0  0  0  0  0  0  0  0  0
  -24.9292   -3.0978  136.1480 C   0  0  0  0  0  0  0  0  0  0  0  0
  -22.9743   -3.5338  137.7556 C   0  0  0  0  0  0  0  0  0  0  0  0
  -24.0846   -2.5607  137.3065 C   0  0  0  0  0  0  0  0  0  0  0  0
  3  2  2  0
  5  1  1  0
  5  2  1  0
  6  4  1  0
  6  5  1  0
M  END
$$$$

     RDKit          3D

  9  8  0  0  0  0  0  0  0  0999 V2000
  -28.6902   -0.7032  136.2320 O   0  0  0  0  0  0  0  0  0  0  0  0
  -29.3914    1.1980  135.7173 O   0  0  0  0  0  0  0  0  0  0  0  0
  -28.9343    0.4940  136.7281 O   0  0  0  0  0  0  0  0  0  0  0  0
  -30.0780   -1.6486  136.6058 S   0  0  0  0  0  0  0  0  0  0  0  0
  -30.0611   -1.2525  139.6145 P   0  0  0  0  0  0  0  0  0  0  0  0
  -29.4078   -2.2637  138.1867 C   0  0  0  0  0  0  0  0  0  0  0  0
  -31.7491   -1.2786  139.1736 O   0  0  0  0  0  0  0  0  0  0  0  0
  -33.8538   -2.2825  139.6183 C   0  0  0  0  0  0  0  0  0  0  0  0
  -32.3769   -2.2727  139.9395 C   0  0  0  0  0  0  0  0  0  0  0  0
  3  1  1  0
  3  2  1  0
  4  1  1  0
  6  4  1  0
  6  5  1  0
  7  5  1  0
  9  7  1  0
  9  8  1  0
M  END
$$$$

     RDKit          3D

 11 13  0  0  0  0  0  0  0  0999 V2000
  -28.5580    1.6879  147.1875 O   0  0  0  0  0  0  0  0  0  0  0  0
  -28.1401    0.9520  146.0732 C   0  0  0  0  0  0  0  0  0  0  0  0
  -28.5594   -0.3667  146.2938 O   0  0  0  0  0  0  0  0  0  0  0  0
  -28.8727    1.2918  144.7888 C   0  0  0  0  0  0  0  0  0  0  0  0
  -27.7505    1.2898  143.8051 C   0  0  0  0  0  0  0  0  0  0  0  0
  -29.0548    2.1786  145.9781 C   0  0  0  0  0  0  0  0  0  0  0  0
  -27.1183    0.1249  143.5471 C   0  0  0  0  0  0  0  0  0  0  0  0
  -27.5551   -1.1985  144.1727 C   0  0  0  0  0  0  0  0  0  0  0  0
  -27.5516   -1.2119  145.7389 C   0  0  0  0  0  0  0  0  0  0  0  0
  -27.7920   -2.6466  146.2382 C   0  0  0  0  0  0  0  0  0  0  0  0
  -27.6819   -2.7468  147.7591 C   0  0  0  0  0  0  0  0  0  0  0  0
  2  1  1  0
  3  2  1  0
  4  2  1  0
  5  4  1  0
  6  1  1  0
  6  2  1  0
  6  4  1  0
  7  5  2  0
  8  7  1  0
  9  3  1  0
  9  8  1  0
 10  9  1  0
 11 10  1  0
M  END
$$$$

     RDKit          3D

  6  6  0  0  0  0  0  0  0  0999 V2000
  -24.5425  -17.6069  142.1141 C   0  0  0  0  0  0  0  0  0  0  0  0
  -25.6494  -16.6529  142.0750 N   0  0  0  0  0  0  0  0  0  0  0  0
  -24.8591  -18.8145  142.9370 C   0  0  0  0  0  0  0  0  0  0  0  0
  -24.4725  -20.0755  142.3045 N   0  0  0  0  0  0  0  0  0  0  0  0
  -23.8840  -18.3903  143.8586 O   0  0  0  0  0  0  0  0  0  0  0  0
  -23.5624  -17.2697  143.1343 N   0  0  0  0  0  0  0  0  0  0  0  0
  2  1  1  0
  3  1  1  0
  4  3  1  0
  5  3  1  0
  6  1  1  0
  6  5  1  0
M  END
$$$$

     RDKit          3D

 11 12  0  0  0  0  0  0  0  0999 V2000
  -22.4542   -1.3823  141.6894 C   0  0  0  0  0  0  0  0  0  0  0  0
  -21.5612   -2.6300  141.7984 C   0  0  0  0  0  0  0  0  0  0  0  0
  -22.2002   -0.5481  140.4243 C   0  0  0  0  0  0  0  0  0  0  0  0
  -21.8577   -3.8539  140.8953 C   0  0  0  0  0  0  0  0  0  0  0  0
  -23.3038   -4.3557  140.8951 C   0  0  0  0  0  0  0  0  0  0  0  0
  -23.2743   -2.4625  139.1075 C   0  0  0  0  0  0  0  0  0  0  0  0
  -22.2216   -1.3476  139.1126 C   0  0  0  0  0  0  0  0  0  0  0  0
  -23.4540   -5.8819  140.9281 C   0  0  0  0  0  0  0  0  0  0  0  0
  -22.6930   -3.7952  139.6054 C   0  0  0  0  0  0  0  0  0  0  0  0
  -24.8270   -6.2771  140.4560 C   0  0  0  0  0  0  0  0  0  0  0  0
  -25.0620   -7.4448  139.8491 C   0  0  0  0  0  0  0  0  0  0  0  0
  2  1  1  0
  3  1  1  0
  4  2  1  0
  5  4  1  0
  7  3  1  0
  7  6  1  0
  8  5  1  0
  9  4  1  0
  9  5  1  0
  9  6  1  0
 10  8  1  0
 11 10  2  0
M  END
$$$$

     RDKit          3D

 10 12  0  0  0  0  0  0  0  0999 V2000
  -25.2975   -3.2907  147.4604 O   0  0  0  0  0  0  0  0  0  0  0  0
  -24.9846   -4.6135  147.0889 C   0  0  0  0  0  0  0  0  0  0  0  0
  -24.2164   -4.7988  145.9273 O   0  0  0  0  0  0  0  0  0  0  0  0
  -26.1588   -5.5462  147.2552 C   0  0  0  0  0  0  0  0  0  0  0  0
  -26.2027   -6.1659  148.5079 O   0  0  0  0  0  0  0  0  0  0  0  0
  -26.2229   -6.6336  146.1725 C   0  0  0  0  0  0  0  0  0  0  0  0
  -24.0943   -2.6241  147.7551 C   0  0  0  0  0  0  0  0  0  0  0  0
  -23.6170   -1.6933  146.6540 C   0  0  0  0  0  0  0  0  0  0  0  0
  -24.2943   -1.1254  147.8893 C   0  0  0  0  0  0  0  0  0  0  0  0
  -24.9287   -5.6857  148.1595 C   0  0  0  0  0  0  0  0  0  0  0  0
  2  1  1  0
  3  2  1  0
  4  2  1  0
  5  4  1  0
  6  4  1  0
  7  1  1  0
  8  7  1  0
  9  7  1  0
  9  8  1  0
 10  2  1  0
 10  4  1  0
 10  5  1  0
M  END
$$$$

     RDKit          3D

 11 12  0  0  0  0  0  0  0  0999 V2000
  -32.3478   -2.3206  133.1241 O   0  0  0  0  0  0  0  0  0  0  0  0
  -31.6865   -1.1398  132.7617 C   0  0  0  0  0  0  0  0  0  0  0  0
  -31.2957   -1.1920  131.4108 O   0  0  0  0  0  0  0  0  0  0  0  0
  -32.1580   -0.1254  131.0908 C   0  0  0  0  0  0  0  0  0  0  0  0
  -32.6529    0.0041  132.5162 C   0  0  0  0  0  0  0  0  0  0  0  0
  -32.2646    1.3292  133.1979 C   0  0  0  0  0  0  0  0  0  0  0  0
  -32.9918    2.3803  132.5821 O   0  0  0  0  0  0  0  0  0  0  0  0
  -32.5993    1.2632  134.7018 C   0  0  0  0  0  0  0  0  0  0  0  0
  -32.2824    2.6040  135.3675 C   0  0  0  0  0  0  0  0  0  0  0  0
  -32.9277    3.7503  134.5872 C   0  0  0  0  0  0  0  0  0  0  0  0
  -32.5790    3.6324  133.0989 C   0  0  0  0  0  0  0  0  0  0  0  0
  2  1  1  0
  3  2  1  0
  4  3  1  0
  5  2  1  0
  5  4  1  0
  6  5  1  0
  7  6  1  0
  8  6  1  0
  9  8  1  0
 10  9  1  0
 11  7  1  0
 11 10  1  0
M  END
$$$$

     RDKit          3D

 11 13  0  0  0  0  0  0  0  0999 V2000
  -27.4972   -8.6862  139.5394 F   0  0  0  0  0  0  0  0  0  0  0  0
  -27.0089   -9.9378  139.2074 C   0  0  0  0  0  0  0  0  0  0  0  0
  -26.3329  -10.4868  141.6102 C   0  0  0  0  0  0  0  0  0  0  0  0
  -26.5735  -12.2464  140.3843 C   0  0  0  0  0  0  0  0  0  0  0  0
  -25.8105  -12.6168  139.1044 C   0  0  0  0  0  0  0  0  0  0  0  0
  -27.2287  -10.8609  140.4250 C   0  0  0  0  0  0  0  0  0  0  0  0
  -25.6622  -11.8519  141.5448 C   0  0  0  0  0  0  0  0  0  0  0  0
  -26.7721  -12.9417  137.9617 C   0  0  0  0  0  0  0  0  0  0  0  0
  -27.4225  -11.7318  137.2544 C   0  0  0  0  0  0  0  0  0  0  0  0
  -28.7903  -11.3824  137.8581 C   0  0  0  0  0  0  0  0  0  0  0  0
  -27.6751  -10.3505  137.8764 C   0  0  0  0  0  0  0  0  0  0  0  0
  2  1  1  0
  5  4  1  0
  6  2  1  0
  6  3  1  0
  6  4  1  0
  7  3  1  0
  7  4  1  0
  8  5  1  0
  9  8  1  0
 10  9  1  0
 11  2  1  0
 11  9  1  0
 11 10  1  0
M  END
$$$$

     RDKit          3D

 11 12  0  0  0  0  0  0  0  0999 V2000
  -28.0765    2.5602  145.3275 F   0  0  0  0  0  0  0  0  0  0  0  0
  -27.0740    3.4052  144.8804 C   0  0  0  0  0  0  0  0  0  0  0  0
  -27.1449    4.8915  145.2349 C   0  0  0  0  0  0  0  0  0  0  0  0
  -25.7780    2.8000  144.3476 C   0  0  0  0  0  0  0  0  0  0  0  0
  -28.6145    6.7805  146.0293 C   0  0  0  0  0  0  0  0  0  0  0  0
  -27.5676    4.4039  143.8499 C   0  0  0  0  0  0  0  0  0  0  0  0
  -25.2893    3.7187  143.2244 C   0  0  0  0  0  0  0  0  0  0  0  0
  -26.5154    4.4941  142.7502 C   0  0  0  0  0  0  0  0  0  0  0  0
  -27.5187    7.5457  146.4487 O   0  0  0  0  0  0  0  0  0  0  0  0
  -28.2990    5.2924  146.1642 C   0  0  0  0  0  0  0  0  0  0  0  0
  -24.7413    2.6257  145.4596 C   0  0  0  0  0  0  0  0  0  0  0  0
  2  1  1  0
  3  2  1  0
  4  2  1  0
  6  2  1  0
  6  3  1  0
  7  4  1  0
  8  6  1  0
  8  7  1  0
  9  5  1  0
 10  3  1  0
 10  5  1  0
 11  4  1  0
M  END
$$$$

     RDKit          3D

 11 12  0  0  0  0  0  0  0  0999 V2000
  -24.1034  -19.5224  138.4169 C   0  0  0  0  0  0  0  0  0  0  0  0
  -24.4644  -20.8652  137.8289 C   0  0  0  0  0  0  0  0  0  0  0  0
  -24.5444  -21.9321  138.9051 C   0  0  0  0  0  0  0  0  0  0  0  0
  -25.1275  -18.8702  139.0772 F   0  0  0  0  0  0  0  0  0  0  0  0
  -23.8835  -23.2372  138.5629 C   0  0  0  0  0  0  0  0  0  0  0  0
  -23.2583  -23.9540  139.5068 C   0  0  0  0  0  0  0  0  0  0  0  0
  -23.5877  -20.7689  139.0944 C   0  0  0  0  0  0  0  0  0  0  0  0
  -23.1700  -18.7814  137.7143 F   0  0  0  0  0  0  0  0  0  0  0  0
  -22.5723  -25.2602  139.1900 C   0  0  0  0  0  0  0  0  0  0  0  0
  -23.0336  -26.3425  140.1694 C   0  0  0  0  0  0  0  0  0  0  0  0
  -21.0542  -25.0779  139.2589 C   0  0  0  0  0  0  0  0  0  0  0  0
  2  1  1  0
  3  2  1  0
  4  1  1  0
  5  3  1  0
  6  5  2  3
  7  1  1  0
  7  2  1  0
  7  3  1  0
  8  1  1  0
  9  6  1  0
 10  9  1  0
 11  9  1  0
M  END
$$$$

     RDKit          3D

 11 13  0  0  0  0  0  0  0  0999 V2000
  -25.8158  -10.8672  153.4404 C   0  0  0  0  0  0  0  0  0  0  0  0
  -24.2437   -9.7268  152.0417 N   0  0  0  0  0  0  0  0  0  0  0  0
  -27.8953  -12.7521  154.1951 N   0  0  0  0  0  0  0  0  0  0  0  0
  -27.4795  -11.8404  155.2640 C   0  0  0  0  0  0  0  0  0  0  0  0
  -23.1980  -11.8304  151.2214 C   0  0  0  0  0  0  0  0  0  0  0  0
  -25.3151   -9.4994  153.0060 C   0  0  0  0  0  0  0  0  0  0  0  0
  -26.4144  -10.8282  154.8642 C   0  0  0  0  0  0  0  0  0  0  0  0
  -23.6100  -10.9923  152.4401 C   0  0  0  0  0  0  0  0  0  0  0  0
  -27.8746  -10.4359  154.9222 C   0  0  0  0  0  0  0  0  0  0  0  0
  -24.5793  -11.7468  153.3610 C   0  0  0  0  0  0  0  0  0  0  0  0
  -28.7338  -11.1915  156.0605 B   0  0  0  0  0  0  0  0  0  0  0  0
  4  3  1  0
  6  1  1  0
  6  2  1  0
  7  1  1  0
  7  4  1  0
  8  2  1  0
  8  5  1  0
  9  4  1  0
  9  7  1  0
 10  1  1  0
 10  8  1  0
 11  4  1  0
 11  9  1  0
M  END
$$$$

     RDKit          3D

 11 13  0  0  0  0  0  0  0  0999 V2000
  -24.1562   -3.0829  146.0188 N   0  0  0  0  0  2  0  0  0  0  0  0
  -23.6698   -1.9613  145.2234 C   0  0  0  0  0  0  0  0  0  0  0  0
  -24.6861   -1.5847  144.2320 N   0  0  0  0  0  0  0  0  0  0  0  0
  -24.1442   -0.5869  143.2866 C   0  0  0  0  0  0  0  0  0  0  0  0
  -23.4074   -0.8353  146.1110 N   0  0  0  0  0  2  0  0  0  0  0  0
  -24.4192    1.2658  142.3038 O   0  0  0  0  0  0  0  0  0  0  0  0
  -25.1618    0.0855  142.3673 C   0  0  0  0  0  0  0  0  0  0  0  0
  -26.6377    0.0538  142.6024 C   0  0  0  0  0  0  0  0  0  0  0  0
  -27.4242    0.9569  141.6474 C   0  0  0  0  0  0  0  0  0  0  0  0
  -25.8482    0.7131  143.6950 C   0  0  0  0  0  0  0  0  0  0  0  0
  -24.3532    0.8733  143.6437 C   0  0  0  0  0  0  0  0  0  0  0  0
  2  1  1  0
  3  2  1  0
  4  3  1  0
  5  2  1  0
  7  4  1  0
  7  6  1  0
  8  7  1  0
  9  8  1  0
 10  7  1  0
 10  8  1  0
 11  4  1  0
 11  6  1  0
 11 10  1  0
M  RAD  2   1   2   5   2
M  END
$$$$

     RDKit          3D

 11 12  0  0  0  0  0  0  0  0999 V2000
  -23.5077   -4.9469  143.7920 Cl  0  0  0  0  0  0  0  0  0  0  0  0
  -24.3338   -5.1044  141.1898 C   0  0  0  0  0  0  0  0  0  0  0  0
  -26.7064   -4.9986  140.1390 C   0  0  0  0  0  0  0  0  0  0  0  0
  -25.7646   -5.5745  139.0842 C   0  0  0  0  0  0  0  0  0  0  0  0
  -25.9319   -5.0416  137.7251 N   0  0  0  0  0  0  0  0  0  0  0  0
  -22.9406   -5.1022  140.7385 N   0  0  0  0  0  0  0  0  0  0  0  0
  -25.2489   -4.5436  140.0827 C   0  0  0  0  0  0  0  0  0  0  0  0
  -26.9188   -5.8573  137.0220 C   0  0  0  0  0  0  0  0  0  0  0  0
  -26.7032   -5.8746  135.5175 C   0  0  0  0  0  0  0  0  0  0  0  0
  -24.4762   -4.2580  142.4605 C   0  0  0  0  0  0  0  0  0  0  0  0
  -26.3327   -7.0908  136.3536 C   0  0  0  0  0  0  0  0  0  0  0  0
  4  3  1  0
  5  4  1  0
  6  2  1  0
  7  2  1  0
  7  3  1  0
  7  4  1  0
  8  5  1  0
  9  8  1  0
 10  1  1  0
 10  2  1  0
 11  8  1  0
 11  9  1  0
M  END
$$$$

     RDKit          3D

 11 16  0  0  0  0  0  0  0  0999 V2000
  -20.9768   -6.1123  140.6100 C   0  0  0  0  0  0  0  0  0  0  0  0
  -23.2797   -7.5783  140.8106 C   0  0  0  0  0  0  0  0  0  0  0  0
  -23.7258   -7.4644  139.3774 C   0  0  0  0  0  0  0  0  0  0  0  0
  -20.5570   -5.2765  141.8637 C   0  0  0  0  0  0  0  0  0  0  0  0
  -24.6487   -6.9847  140.5171 C   0  0  0  0  0  0  0  0  0  0  0  0
  -21.1089   -7.3215  141.4195 N   0  0  0  0  0  0  0  0  0  0  0  0
  -25.2167   -7.5848  139.2433 C   0  0  0  0  0  0  0  0  0  0  0  0
  -21.5733   -7.0299  143.8061 C   0  0  0  0  0  0  0  0  0  0  0  0
  -22.2739   -6.5077  141.2116 C   0  0  0  0  0  0  0  0  0  0  0  0
  -24.3250   -8.7209  138.7736 C   0  0  0  0  0  0  0  0  0  0  0  0
  -21.5009   -6.3529  142.4466 C   0  0  0  0  0  0  0  0  0  0  0  0
  3  2  1  0
  4  1  1  0
  5  2  1  0
  5  3  1  0
  6  1  1  0
  7  3  1  0
  7  5  1  0
  9  1  1  0
  9  2  1  0
  9  6  1  0
 10  3  1  0
 10  7  1  0
 11  4  1  0
 11  6  1  0
 11  8  1  0
 11  9  1  0
M  END
$$$$

     RDKit          3D

 11 12  0  0  0  0  0  0  0  0999 V2000
  -24.8483    2.5956  141.0814 N   0  0  0  0  0  0  0  0  0  0  0  0
  -25.5172    3.7157  141.7426 C   0  0  0  0  0  0  0  0  0  0  0  0
  -26.7121    3.2568  142.4284 N   0  0  0  0  0  0  0  0  0  0  0  0
  -27.8775    3.2123  141.8786 C   0  0  0  0  0  0  0  0  0  0  0  0
  -28.1164    3.6866  140.4709 C   0  0  0  0  0  0  0  0  0  0  0  0
  -25.8546    4.7512  140.7520 N   0  0  0  0  0  0  0  0  0  0  0  0
  -24.9867    5.8731  140.4822 C   0  0  0  0  0  0  0  0  0  0  0  0
  -28.2760    5.1976  140.3406 C   0  0  0  0  0  0  0  0  0  0  0  0
  -25.3598    6.7720  139.6797 O   0  0  0  0  0  0  0  0  0  0  0  0
  -26.9991    4.5238  139.8639 C   0  0  0  0  0  0  0  0  0  0  0  0
  -23.6487    6.0170  141.1430 C   0  0  0  0  0  0  0  0  0  0  0  0
  2  1  1  0
  3  2  1  0
  4  3  2  0
  5  4  1  0
  6  2  1  0
  7  6  1  0
  8  5  1  0
  9  7  2  0
 10  5  1  0
 10  6  1  0
 10  8  1  0
 11  7  1  0
M  END
$$$$

     RDKit          3D

 11 11  0  0  0  0  0  0  0  0999 V2000
  -31.8658   -9.2698  141.4781 C   0  0  0  0  0  0  0  0  0  0  0  0
  -33.1369   -9.8136  142.1722 C   0  0  0  0  0  0  0  0  0  0  0  0
  -32.0805   -8.8792  139.9867 C   0  0  0  0  0  0  0  0  0  0  0  0
  -30.7579   -8.4067  139.3221 C   0  0  0  0  0  0  0  0  0  0  0  0
  -33.8541  -10.9474  141.3901 C   0  0  0  0  0  0  0  0  0  0  0  0
  -32.9092  -11.8806  140.6081 C   0  0  0  0  0  0  0  0  0  0  0  0
  -30.6726   -6.8827  139.1283 C   0  0  0  0  0  0  0  0  0  0  0  0
  -32.1826  -11.1837  139.4344 C   0  0  0  0  0  0  0  0  0  0  0  0
  -30.6049   -6.1153  140.4479 C   0  0  0  0  0  0  0  0  0  0  0  0
  -32.7919  -10.2734  143.5971 C   0  0  0  0  0  0  0  0  0  0  0  0
  -32.6985   -9.8871  139.1908 O   0  0  0  0  0  0  0  0  0  0  0  0
  2  1  1  0
  3  1  1  0
  4  3  1  0
  5  2  1  0
  6  5  1  0
  7  4  1  0
  8  6  1  0
  9  7  1  0
 10  2  1  0
 11  3  1  0
 11  8  1  0
M  END
$$$$

     RDKit          3D

 11 12  0  0  0  0  0  0  0  0999 V2000
  -21.0497  -19.7322  138.3580 C   0  0  0  0  0  0  0  0  0  0  0  0
  -20.0832  -19.9224  139.5338 C   0  0  0  0  0  0  0  0  0  0  0  0
  -19.9867  -21.3386  140.0810 C   0  0  0  0  0  0  0  0  0  0  0  0
  -20.3431  -19.9839  137.0505 C   0  0  0  0  0  0  0  0  0  0  0  0
  -20.7407  -20.2714  140.8603 C   0  0  0  0  0  0  0  0  0  0  0  0
  -20.9396  -19.8795  135.8496 C   0  0  0  0  0  0  0  0  0  0  0  0
  -22.3989  -19.5510  135.6471 C   0  0  0  0  0  0  0  0  0  0  0  0
  -23.2829  -20.8023  135.7148 C   0  0  0  0  0  0  0  0  0  0  0  0
  -22.9879  -21.7596  134.5532 C   0  0  0  0  0  0  0  0  0  0  0  0
  -23.5179  -23.1109  134.8155 N   0  0  0  0  0  0  0  0  0  0  0  0
  -22.0629  -22.8591  134.8233 C   0  0  0  0  0  0  0  0  0  0  0  0
  2  1  1  0
  3  2  1  0
  4  1  1  0
  5  2  1  0
  5  3  1  0
  6  4  2  3
  7  6  1  0
  8  7  1  0
  9  8  1  0
 10  9  1  0
 11  9  1  0
 11 10  1  0
M  END
$$$$

     RDKit          3D

 10 12  0  0  0  0  0  0  0  0999 V2000
  -26.3262  -13.6154  134.5750 N   0  0  0  0  0  0  0  0  0  0  0  0
  -26.1330  -13.8275  136.0347 C   0  0  0  0  0  0  0  0  0  0  0  0
  -27.0039  -12.3672  136.9745 Br  0  0  0  0  0  0  0  0  0  0  0  0
  -24.6432  -13.9342  136.4840 C   0  0  0  0  0  0  0  0  0  0  0  0
  -23.6956  -13.6450  135.3201 C   0  0  0  0  0  0  0  0  0  0  0  0
  -22.3004  -14.2852  135.3043 C   0  0  0  0  0  0  0  0  0  0  0  0
  -22.5920  -14.9226  133.9309 C   0  0  0  0  0  0  0  0  0  0  0  0
  -25.4880  -14.4051  133.6398 C   0  0  0  0  0  0  0  0  0  0  0  0
  -24.0178  -14.4042  134.0523 C   0  0  0  0  0  0  0  0  0  0  0  0
  -24.9030  -15.6886  134.1422 C   0  0  0  0  0  0  0  0  0  0  0  0
  2  1  1  0
  3  2  1  0
  4  2  1  0
  5  4  1  0
  6  5  1  0
  7  6  1  0
  8  1  1  0
  9  5  1  0
  9  7  1  0
  9  8  1  0
 10  8  1  0
 10  9  1  0
M  END
$$$$

     RDKit          3D

 11 11  0  0  0  0  0  0  0  0999 V2000
  -22.2994    2.7270  137.0004 O   0  0  0  0  0  0  0  0  0  0  0  0
  -21.3483    3.1036  136.2663 C   0  0  0  0  0  0  0  0  0  0  0  0
  -20.5785    2.1541  135.6012 O   0  0  0  0  0  0  0  0  0  0  0  0
  -21.0239    4.5623  136.1501 C   0  0  0  0  0  0  0  0  0  0  0  0
  -19.8993    4.9115  137.0189 N   0  0  0  0  0  0  0  0  0  0  0  0
  -19.2808    6.2122  137.0081 C   0  0  0  0  0  0  0  0  0  0  0  0
  -19.7722    7.3079  136.0775 C   0  0  0  0  0  0  0  0  0  0  0  0
  -18.1695    6.4174  137.7363 C   0  0  0  0  0  0  0  0  0  0  0  0
  -17.4717    7.7162  137.7150 C   0  0  0  0  0  0  0  0  0  0  0  0
  -18.0335    8.7806  137.1376 C   0  0  0  0  0  0  0  0  0  0  0  0
  -19.4418    8.7097  136.6170 C   0  0  0  0  0  0  0  0  0  0  0  0
  2  1  2  0
  3  2  1  0
  4  2  1  0
  5  4  1  0
  6  5  1  0
  7  6  1  0
  8  6  2  0
  9  8  1  0
 10  9  2  0
 11  7  1  0
 11 10  1  0
M  END
$$$$

     RDKit          3D

 11 13  0  0  0  0  0  0  0  0999 V2000
  -29.7310   -2.0221  139.2160 N   0  0  0  0  0  0  0  0  0  0  0  0
  -29.0310   -2.8419  140.2131 C   0  0  0  0  0  0  0  0  0  0  0  0
  -29.6502   -0.5794  139.5293 C   0  0  0  0  0  0  0  0  0  0  0  0
  -29.6428   -2.5856  141.5860 C   0  0  0  0  0  0  0  0  0  0  0  0
  -30.3105    0.1628  138.4522 N   0  0  0  0  0  0  0  0  0  0  0  0
  -29.7114   -1.1257  142.0242 C   0  0  0  0  0  0  0  0  0  0  0  0
  -30.3334   -0.2818  140.8973 C   0  0  0  0  0  0  0  0  0  0  0  0
  -30.1549    1.5962  141.3981 Br  0  0  0  0  0  0  0  0  0  0  0  0
  -30.7763   -3.4976  142.0157 C   0  0  0  0  0  0  0  0  0  0  0  0
  -30.2791   -4.8201  142.5594 C   0  0  0  0  0  0  0  0  0  0  0  0
  -29.3635   -3.6202  142.6528 C   0  0  0  0  0  0  0  0  0  0  0  0
  2  1  1  0
  3  1  1  0
  4  2  1  0
  5  3  1  0
  6  4  1  0
  7  3  1  0
  7  6  1  0
  8  7  1  0
  9  4  1  0
 10  9  1  0
 11  4  1  0
 11  9  1  0
 11 10  1  0
M  END
$$$$

     RDKit          3D

 11 11  0  0  0  0  0  0  0  0999 V2000
  -19.6184    1.3110  143.7894 N   0  0  0  0  0  0  0  0  0  0  0  0
  -16.9969   -0.8505  142.7102 C   0  0  0  0  0  0  0  0  0  0  0  0
  -17.7680    0.4465  142.3608 C   0  0  0  0  0  0  0  0  0  0  0  0
  -18.1565    1.2837  143.6089 C   0  0  0  0  0  0  0  0  0  0  0  0
  -17.7961   -2.1251  142.3440 C   0  0  0  0  0  0  0  0  0  0  0  0
  -20.3672   -2.3107  142.4900 C   0  0  0  0  0  0  0  0  0  0  0  0
  -21.5211   -2.6721  143.4365 C   0  0  0  0  0  0  0  0  0  0  0  0
  -23.0379   -2.4631  143.1760 C   0  0  0  0  0  0  0  0  0  0  0  0
  -19.0248   -2.3052  143.2583 C   0  0  0  0  0  0  0  0  0  0  0  0
  -21.0035   -3.6780  142.3882 C   0  0  0  0  0  0  0  0  0  0  0  0
  -23.6696   -1.6158  144.3012 C   0  0  0  0  0  0  0  0  0  0  0  0
  3  2  1  0
  4  1  1  0
  4  3  1  0
  5  2  1  0
  7  6  1  0
  8  7  1  0
  9  5  1  0
  9  6  1  0
 10  6  1  0
 10  7  1  0
 11  8  1  0
M  END
$$$$

     RDKit          3D

 11 13  0  0  0  0  0  0  0  0999 V2000
  -25.8998  -19.6942  138.4461 C   0  0  0  0  0  0  0  0  0  0  0  0
  -24.0462  -20.8273  138.3538 C   0  0  0  0  0  0  0  0  0  0  0  0
  -23.6319  -19.8785  137.2316 C   0  0  0  0  0  0  0  0  0  0  0  0
  -22.7493  -20.4756  136.1080 C   0  0  0  0  0  0  0  0  0  0  0  0
  -24.3764  -19.4126  140.5574 C   0  0  0  0  0  0  0  0  0  0  0  0
  -23.0190  -21.8896  135.5752 C   0  0  0  0  0  0  0  0  0  0  0  0
  -23.3572  -21.3066  134.2103 C   0  0  0  0  0  0  0  0  0  0  0  0
  -24.9721  -20.3292  139.4642 C   0  0  0  0  0  0  0  0  0  0  0  0
  -25.0771  -20.3009  137.3167 C   0  0  0  0  0  0  0  0  0  0  0  0
  -23.0907  -19.9019  134.7345 C   0  0  0  0  0  0  0  0  0  0  0  0
  -23.4591  -18.2854  140.0867 C   0  0  0  0  0  0  0  0  0  0  0  0
  3  2  1  0
  4  3  1  0
  6  4  1  0
  7  6  1  0
  8  1  1  0
  8  2  1  0
  8  5  1  0
  9  1  1  0
  9  2  1  0
  9  3  1  0
 10  4  1  0
 10  7  1  0
 11  5  1  0
M  END
$$$$

     RDKit          3D

 10 11  0  0  0  0  0  0  0  0999 V2000
  -16.9215  -11.7185  143.3710 O   0  0  0  0  0  0  0  0  0  0  0  0
  -15.6808  -11.5735  143.5317 C   0  0  0  0  0  0  0  0  0  0  0  0
  -14.8996  -12.6878  143.8288 O   0  0  0  0  0  0  0  0  0  0  0  0
  -15.0642  -10.2101  143.3929 C   0  0  0  0  0  0  0  0  0  0  0  0
  -14.1708  -10.1878  142.1777 C   0  0  0  0  0  0  0  0  0  0  0  0
  -12.8347  -10.1918  142.2465 C   0  0  0  0  0  0  0  0  0  0  0  0
  -12.0771  -10.2481  143.5451 C   0  0  0  0  0  0  0  0  0  0  0  0
  -14.3854   -9.8091  144.7183 C   0  0  0  0  0  0  0  0  0  0  0  0
  -13.6134   -8.4899  144.6843 C   0  0  0  0  0  0  0  0  0  0  0  0
  -12.8643   -9.8156  144.7926 C   0  0  0  0  0  0  0  0  0  0  0  0
  2  1  2  0
  3  2  1  0
  4  2  1  0
  5  4  1  0
  6  5  2  0
  7  6  1  0
  8  4  1  0
  9  8  1  0
 10  7  1  0
 10  8  1  0
 10  9  1  0
M  END
$$$$

     RDKit          3D

 11 13  0  0  0  0  0  0  0  0999 V2000
  -26.2741  -23.1987  137.8476 C   0  0  0  0  0  0  0  0  0  0  0  0
  -26.7695  -24.5408  137.3497 C   0  0  0  0  0  0  0  0  0  0  0  0
  -28.2871  -24.7744  137.5113 C   0  0  0  0  0  0  0  0  0  0  0  0
  -26.3963  -23.4783  136.3361 C   0  0  0  0  0  0  0  0  0  0  0  0
  -28.7686  -25.8335  136.4985 C   0  0  0  0  0  0  0  0  0  0  0  0
  -28.4609  -27.2482  136.9220 C   0  0  0  0  0  0  0  0  0  0  0  0
  -26.5731  -22.0774  136.8780 C   0  0  0  0  0  0  0  0  0  0  0  0
  -28.2209  -27.5928  138.1972 C   0  0  0  0  0  0  0  0  0  0  0  0
  -28.0295  -26.5801  139.2983 C   0  0  0  0  0  0  0  0  0  0  0  0
  -28.6266  -25.1963  138.9642 C   0  0  0  0  0  0  0  0  0  0  0  0
  -30.1421  -25.1727  139.2256 C   0  0  0  0  0  0  0  0  0  0  0  0
  2  1  1  0
  3  2  1  0
  4  1  1  0
  4  2  1  0
  5  3  1  0
  6  5  1  0
  7  1  1  0
  7  4  1  0
  8  6  2  0
  9  8  1  0
 10  3  1  0
 10  9  1  0
 11 10  1  0
M  END
$$$$

     RDKit          3D

 11 14  0  0  0  0  0  0  0  0999 V2000
  -29.3874  -10.0066  147.1318 O   0  0  0  0  0  0  0  0  0  0  0  0
  -30.2268  -10.4558  148.1264 C   0  0  0  0  0  0  0  0  0  0  0  0
  -30.9262   -9.6816  148.8301 O   0  0  0  0  0  0  0  0  0  0  0  0
  -28.7453  -11.0883  146.4796 C   0  0  0  0  0  0  0  0  0  0  0  0
  -27.2279  -10.9405  146.5229 C   0  0  0  0  0  0  0  0  0  0  0  0
  -26.6797  -12.1194  147.2854 C   0  0  0  0  0  0  0  0  0  0  0  0
  -25.5506  -11.7473  148.2263 C   0  0  0  0  0  0  0  0  0  0  0  0
  -29.1343  -12.3575  147.2616 C   0  0  0  0  0  0  0  0  0  0  0  0
  -26.5708  -10.6890  147.8691 C   0  0  0  0  0  0  0  0  0  0  0  0
  -27.8492  -12.8829  147.9211 C   0  0  0  0  0  0  0  0  0  0  0  0
  -30.2234  -11.9259  148.2676 C   0  0  0  0  0  0  0  0  0  0  0  0
  2  1  1  0
  3  2  2  0
  4  1  1  0
  5  4  1  0
  6  5  1  0
  7  6  1  0
  8  4  1  0
  9  5  1  0
  9  6  1  0
  9  7  1  0
 10  6  1  0
 10  8  1  0
 11  2  1  0
 11  8  1  0
M  END
$$$$

     RDKit          3D

  9 10  0  0  0  0  0  0  0  0999 V2000
  -27.9437   -5.2583  134.9118 O   0  0  0  0  0  0  0  0  0  0  0  0
  -27.5213   -6.5046  135.0281 O   0  0  0  0  0  0  0  0  0  0  0  0
  -28.2065   -5.0432  133.5449 C   0  0  0  0  0  0  0  0  0  0  0  0
  -29.6064   -5.5618  133.1526 C   0  0  0  0  0  0  0  0  0  0  0  0
  -30.7952   -4.6068  133.4166 C   0  0  0  0  0  0  0  0  0  0  0  0
  -30.7815   -3.8488  134.7414 C   0  0  0  0  0  0  0  0  0  0  0  0
  -30.7527   -3.2937  132.6506 C   0  0  0  0  0  0  0  0  0  0  0  0
  -31.8624   -2.8078  134.9321 C   0  0  0  0  0  0  0  0  0  0  0  0
  -30.7364   -2.5210  133.9623 C   0  0  0  0  0  0  0  0  0  0  0  0
  2  1  1  0
  3  1  1  0
  4  3  1  0
  5  4  1  0
  6  5  1  0
  7  5  1  0
  8  6  1  0
  9  6  1  0
  9  7  1  0
  9  8  1  0
M  END
$$$$

     RDKit          3D

 11 12  0  0  0  0  0  0  0  0999 V2000
  -21.4723    0.2533  141.7323 C   0  0  0  0  0  0  0  0  0  0  0  0
  -22.0527   -0.4617  140.5188 C   0  0  0  0  0  0  0  0  0  0  0  0
  -21.9552    1.6848  141.8661 C   0  0  0  0  0  0  0  0  0  0  0  0
  -22.7042   -1.8657  140.7316 C   0  0  0  0  0  0  0  0  0  0  0  0
  -22.6749   -2.3409  142.2133 C   0  0  0  0  0  0  0  0  0  0  0  0
  -22.7983    0.7310  141.0632 C   0  0  0  0  0  0  0  0  0  0  0  0
  -22.2891   -4.6679  141.5823 O   0  0  0  0  0  0  0  0  0  0  0  0
  -24.2059   -1.4706  138.6723 C   0  0  0  0  0  0  0  0  0  0  0  0
  -22.9115   -4.2485  143.8717 C   0  0  0  0  0  0  0  0  0  0  0  0
  -24.1339   -1.9371  140.1296 C   0  0  0  0  0  0  0  0  0  0  0  0
  -23.0612   -3.8289  142.4034 C   0  0  0  0  0  0  0  0  0  0  0  0
  2  1  1  0
  3  1  1  0
  4  2  1  0
  5  4  1  0
  6  1  1  0
  6  2  1  0
  6  3  1  0
 10  4  1  0
 10  8  1  0
 11  5  1  0
 11  7  1  0
 11  9  1  0
M  END
$$$$

     RDKit          3D

 11 12  0  0  0  0  0  0  0  0999 V2000
  -21.9344  -20.7143  135.5476 F   0  0  0  0  0  0  0  0  0  0  0  0
  -20.9429  -21.6638  135.3594 C   0  0  0  0  0  0  0  0  0  0  0  0
  -19.5236  -21.1283  135.2281 C   0  0  0  0  0  0  0  0  0  0  0  0
  -19.3442  -19.6123  135.3792 C   0  0  0  0  0  0  0  0  0  0  0  0
  -20.2886  -21.5758  133.9885 C   0  0  0  0  0  0  0  0  0  0  0  0
  -18.0656  -19.1900  134.7123 C   0  0  0  0  0  0  0  0  0  0  0  0
  -18.0291  -18.1925  133.8187 C   0  0  0  0  0  0  0  0  0  0  0  0
  -16.7282  -17.7712  133.1957 C   0  0  0  0  0  0  0  0  0  0  0  0
  -16.7830  -17.3897  131.7229 C   0  0  0  0  0  0  0  0  0  0  0  0
  -16.2101  -18.7346  132.1343 C   0  0  0  0  0  0  0  0  0  0  0  0
  -18.0286  -17.4923  131.1251 F   0  0  0  0  0  0  0  0  0  0  0  0
  2  1  1  0
  3  2  1  0
  4  3  1  0
  5  2  1  0
  5  3  1  0
  6  4  1  0
  7  6  2  3
  8  7  1  0
  9  8  1  0
 10  8  1  0
 10  9  1  0
 11  9  1  0
M  END
$$$$

     RDKit          3D

 11 11  0  0  0  0  0  0  0  0999 V2000
  -19.7940   -5.9290  132.7506 O   0  0  0  0  0  0  0  0  0  0  0  0
  -20.9999   -5.7836  133.4511 C   0  0  0  0  0  0  0  0  0  0  0  0
  -21.9389   -4.9247  132.6423 C   0  0  0  0  0  0  0  0  0  0  0  0
  -20.7366   -5.1344  134.8007 C   0  0  0  0  0  0  0  0  0  0  0  0
  -20.6855   -3.6104  134.9139 C   0  0  0  0  0  0  0  0  0  0  0  0
  -19.4298   -3.1342  135.6334 C   0  0  0  0  0  0  0  0  0  0  0  0
  -19.5417   -2.2638  136.8575 C   0  0  0  0  0  0  0  0  0  0  0  0
  -18.2083   -3.4840  135.1958 C   0  0  0  0  0  0  0  0  0  0  0  0
  -20.5972   -5.9019  135.8942 C   0  0  0  0  0  0  0  0  0  0  0  0
  -21.8574   -3.5874  132.6890 C   0  0  0  0  0  0  0  0  0  0  0  0
  -20.7997   -2.9275  133.5306 C   0  0  0  0  0  0  0  0  0  0  0  0
  2  1  1  0
  3  2  1  0
  4  2  1  0
  5  4  1  0
  6  5  1  0
  7  6  1  0
  8  6  2  0
  9  4  2  0
 10  3  2  0
 11  5  1  0
 11 10  1  0
M  END
$$$$

     RDKit          3D

 11 15  0  0  0  0  0  0  0  0999 V2000
  -25.8333  -13.4184  150.5779 C   0  0  0  0  0  0  0  0  0  0  0  0
  -26.9941  -14.0706  151.3733 C   0  0  0  0  0  0  0  0  0  0  0  0
  -26.5081  -15.2395  152.2546 C   0  0  0  0  0  0  0  0  0  0  0  0
  -26.7537  -14.4370  149.9321 C   0  0  0  0  0  0  0  0  0  0  0  0
  -25.3651  -15.1379  153.2114 C   0  0  0  0  0  0  0  0  0  0  0  0
  -26.4928  -12.6815  151.7225 C   0  0  0  0  0  0  0  0  0  0  0  0
  -24.4224  -15.9651  152.9754 N   0  0  0  0  0  0  0  0  0  0  0  0
  -24.6914  -16.8022  151.8390 C   0  0  0  0  0  0  0  0  0  0  0  0
  -27.2943  -16.5416  152.2155 C   0  0  0  0  0  0  0  0  0  0  0  0
  -26.0731  -16.3695  151.3220 C   0  0  0  0  0  0  0  0  0  0  0  0
  -26.2539  -15.8767  149.8822 C   0  0  0  0  0  0  0  0  0  0  0  0
  2  1  1  0
  3  2  1  0
  4  1  1  0
  4  2  1  0
  5  3  1  0
  6  1  1  0
  6  2  1  0
  7  5  2  0
  8  7  1  0
  9  3  1  0
 10  3  1  0
 10  8  1  0
 10  9  1  0
 11  4  1  0
 11 10  1  0
M  END
$$$$

     RDKit          3D

 11 14  0  0  0  0  0  0  0  0999 V2000
  -20.1702    0.0606  135.4848 O   0  0  0  0  0  0  0  0  0  0  0  0
  -20.0123   -1.0521  134.6533 C   0  0  0  0  0  0  0  0  0  0  0  0
  -20.9340   -2.1003  134.7991 O   0  0  0  0  0  0  0  0  0  0  0  0
  -19.4875   -0.7544  133.2584 C   0  0  0  0  0  0  0  0  0  0  0  0
  -18.4098   -1.7561  132.8681 C   0  0  0  0  0  0  0  0  0  0  0  0
  -17.0908   -1.1286  132.3514 C   0  0  0  0  0  0  0  0  0  0  0  0
  -15.8990   -1.3182  133.2583 C   0  0  0  0  0  0  0  0  0  0  0  0
  -15.8111   -2.3588  134.0945 C   0  0  0  0  0  0  0  0  0  0  0  0
  -18.5903   -1.4252  134.3352 C   0  0  0  0  0  0  0  0  0  0  0  0
  -16.8920   -3.4056  134.1633 C   0  0  0  0  0  0  0  0  0  0  0  0
  -18.3112   -2.8657  133.9107 C   0  0  0  0  0  0  0  0  0  0  0  0
  2  1  1  0
  3  2  1  0
  4  2  1  0
  5  4  1  0
  6  5  1  0
  7  6  1  0
  8  7  2  0
  9  2  1  0
  9  4  1  0
  9  5  1  0
 10  8  1  0
 11  5  1  0
 11  9  1  0
 11 10  1  0
M  END
$$$$

     RDKit          3D

 11 11  0  0  0  0  0  0  0  0999 V2000
  -37.7994  -16.0149  150.9329 F   0  0  0  0  0  0  0  0  0  0  0  0
  -36.5029  -16.3531  150.6018 C   0  0  0  0  0  0  0  0  0  0  0  0
  -35.6219  -16.2895  151.6598 F   0  0  0  0  0  0  0  0  0  0  0  0
  -35.3351  -18.4130  150.2111 F   0  0  0  0  0  0  0  0  0  0  0  0
  -36.3287  -17.5788  149.7345 C   0  0  0  0  0  0  0  0  0  0  0  0
  -35.8501  -16.8185  148.6492 O   0  0  0  0  0  0  0  0  0  0  0  0
  -37.6180  -18.3622  149.3939 C   0  0  0  0  0  0  0  0  0  0  0  0
  -38.4958  -17.6212  148.4034 C   0  0  0  0  0  0  0  0  0  0  0  0
  -36.0055  -15.6265  149.3850 C   0  0  0  0  0  0  0  0  0  0  0  0
  -39.7775  -17.2749  148.6005 C   0  0  0  0  0  0  0  0  0  0  0  0
  -40.5649  -17.6359  149.8211 C   0  0  0  0  0  0  0  0  0  0  0  0
  2  1  1  0
  3  2  1  0
  5  2  1  0
  5  4  1  0
  6  5  1  0
  7  5  1  0
  8  7  1  0
  9  2  1  0
  9  6  1  0
 10  8  2  3
 11 10  1  0
M  END
$$$$

     RDKit          3D

 10  9  0  0  0  0  0  0  0  0999 V2000
  -20.5956   -3.1203  144.3626 O   0  0  0  0  0  0  0  0  0  0  0  0
  -21.2387   -4.6282  143.7866 P   0  0  0  0  0  0  0  0  0  0  0  0
  -20.6350   -4.4562  142.1619 O   0  0  0  0  0  0  0  0  0  0  0  0
  -22.8375   -4.0037  143.4386 O   0  0  0  0  0  0  0  0  0  0  0  0
  -23.6662   -4.1890  144.5676 C   0  0  0  0  0  0  0  0  0  0  0  0
  -24.2916   -5.5995  144.5291 C   0  0  0  0  0  0  0  0  0  0  0  0
  -25.0777   -5.8155  145.6715 O   0  0  0  0  0  0  0  0  0  0  0  0
  -24.7416   -3.0870  144.5442 C   0  0  0  0  0  0  0  0  0  0  0  0
  -25.5007   -3.0919  145.7245 O   0  0  0  0  0  0  0  0  0  0  0  0
  -25.0667   -5.7501  143.3881 F   0  0  0  0  0  0  0  0  0  0  0  0
  2  1  1  0
  3  2  1  0
  4  2  1  0
  5  4  1  0
  6  5  1  0
  7  6  1  0
  8  5  1  0
  9  8  1  0
 10  6  1  0
M  END
$$$$

     RDKit          3D

 11 11  0  0  0  0  0  0  0  0999 V2000
  -17.1142   -7.9066  139.6931 C   0  0  0  0  0  0  0  0  0  0  0  0
  -16.3899   -6.6154  140.1354 C   0  0  0  0  0  0  0  0  0  0  0  0
  -17.2410   -5.3628  139.7752 C   0  0  0  0  0  0  0  0  0  0  0  0
  -16.9471   -4.0511  140.5099 C   0  0  0  0  0  0  0  0  0  0  0  0
  -18.2338   -4.8199  140.8060 C   0  0  0  0  0  0  0  0  0  0  0  0
  -15.8483   -6.7320  141.5778 C   0  0  0  0  0  0  0  0  0  0  0  0
  -18.4110   -8.1899  140.4588 C   0  0  0  0  0  0  0  0  0  0  0  0
  -19.6175   -3.4944  138.9559 C   0  0  0  0  0  0  0  0  0  0  0  0
  -21.0381   -3.0430  138.5793 C   0  0  0  0  0  0  0  0  0  0  0  0
  -21.5499   -1.8953  139.4510 C   0  0  0  0  0  0  0  0  0  0  0  0
  -19.5768   -4.2182  140.3206 C   0  0  0  0  0  0  0  0  0  0  0  0
  2  1  1  0
  3  2  1  0
  4  3  1  0
  5  3  1  0
  5  4  1  0
  6  2  1  0
  7  1  1  0
  9  8  1  0
 10  9  1  0
 11  5  1  0
 11  8  1  0
M  END
$$$$

     RDKit          3D

 11 11  0  0  0  0  0  0  0  0999 V2000
  -21.2779    1.0914  138.6658 O   0  0  0  0  0  0  0  0  0  0  0  0
  -21.6478    0.4298  139.8434 C   0  0  0  0  0  0  0  0  0  0  0  0
  -22.8533    1.0125  140.4128 N   0  0  0  0  0  2  0  0  0  0  0  0
  -21.9747    1.3773  141.5167 C   0  0  0  0  0  0  0  0  0  0  0  0
  -20.7670    0.8030  140.9385 N   0  0  0  0  0  2  0  0  0  0  0  0
  -21.8426    2.9024  141.6774 C   0  0  0  0  0  0  0  0  0  0  0  0
  -22.9816    3.5283  142.5177 C   0  0  0  0  0  0  0  0  0  0  0  0
  -24.3963    3.3516  141.9090 C   0  0  0  0  0  0  0  0  0  0  0  0
  -22.6755    5.0050  142.8112 C   0  0  0  0  0  0  0  0  0  0  0  0
  -25.9991    3.7633  140.0016 C   0  0  0  0  0  0  0  0  0  0  0  0
  -24.5806    3.9856  140.5186 C   0  0  0  0  0  0  0  0  0  0  0  0
  2  1  1  0
  3  2  1  0
  4  3  1  0
  5  2  1  0
  5  4  1  0
  6  4  1  0
  7  6  1  0
  8  7  1  0
  9  7  1  0
 11  8  1  0
 11 10  1  0
M  RAD  2   3   2   5   2
M  END
$$$$

     RDKit          3D

 11 12  0  0  0  0  0  0  0  0999 V2000
  -36.2409   -7.1553  138.8754 O   0  0  0  0  0  0  0  0  0  0  0  0
  -35.3336   -6.7726  139.6596 C   0  0  0  0  0  0  0  0  0  0  0  0
  -34.5652   -5.5778  139.4085 N   0  0  0  0  0  0  0  0  0  0  0  0
  -34.7724   -4.7081  138.2169 C   0  0  0  0  0  0  0  0  0  0  0  0
  -33.8085   -3.4963  138.2436 C   0  0  0  0  0  0  0  0  0  0  0  0
  -34.5662   -5.5036  136.9211 C   0  0  0  0  0  0  0  0  0  0  0  0
  -33.5779   -5.2443  140.3541 N   0  0  0  0  0  0  0  0  0  0  0  0
  -35.9333   -5.6225  136.2676 C   0  0  0  0  0  0  0  0  0  0  0  0
  -36.5180   -4.3936  135.7359 C   0  0  0  0  0  0  0  0  0  0  0  0
  -36.9427   -4.8969  137.0655 N   0  0  0  0  0  0  0  0  0  0  0  0
  -36.2319   -4.2070  138.1505 C   0  0  0  0  0  0  0  0  0  0  0  0
  2  1  2  0
  3  2  1  0
  4  3  1  0
  5  4  1  0
  6  4  1  0
  7  3  1  0
  8  6  1  0
  9  8  1  0
 10  8  1  0
 10  9  1  0
 11  4  1  0
 11 10  1  0
M  END
$$$$

     RDKit          3D

 11 10  0  0  0  0  0  0  0  0999 V2000
  -16.5754   -1.3426  144.4377 O   0  0  0  0  0  0  0  0  0  0  0  0
  -17.3851   -1.6468  145.3549 C   0  0  0  0  0  0  0  0  0  0  0  0
  -16.9368   -1.5975  146.7190 N   0  0  0  0  0  0  0  0  0  0  0  0
  -18.7322   -2.0232  145.0207 N   0  0  0  0  0  0  0  0  0  0  0  0
  -17.7256   -2.0533  147.8629 C   0  0  0  0  0  0  0  0  0  0  0  0
  -17.8262   -3.5857  147.8739 C   0  0  0  0  0  0  0  0  0  0  0  0
  -18.7748   -4.1066  148.9639 C   0  0  0  0  0  0  0  0  0  0  0  0
  -19.1666   -2.2245  143.6397 C   0  0  0  0  0  0  0  0  0  0  0  0
  -18.6144   -3.5446  143.0937 C   0  0  0  0  0  0  0  0  0  0  0  0
  -19.0909   -3.7936  141.6659 C   0  0  0  0  0  0  0  0  0  0  0  0
  -18.2185   -3.9131  150.3742 C   0  0  0  0  0  0  0  0  0  0  0  0
  2  1  2  0
  3  2  1  0
  4  2  1  0
  5  3  1  0
  6  5  1  0
  7  6  1  0
  8  4  1  0
  9  8  1  0
 10  9  1  0
 11  7  1  0
M  END
$$$$

     RDKit          3D

 11 11  0  0  0  0  0  0  0  0999 V2000
  -19.5679   -6.7753  139.4926 O   0  0  0  0  0  0  0  0  0  0  0  0
  -18.0043   -8.4900  139.8366 C   0  0  0  0  0  0  0  0  0  0  0  0
  -18.2293   -9.8231  141.8450 O   0  0  0  0  0  0  0  0  0  0  0  0
  -18.6912   -6.6567  141.6762 C   0  0  0  0  0  0  0  0  0  0  0  0
  -17.2999   -9.2928  140.9379 C   0  0  0  0  0  0  0  0  0  0  0  0
  -16.5688   -5.3088  141.1191 C   0  0  0  0  0  0  0  0  0  0  0  0
  -18.7964   -7.2802  140.2945 C   0  0  0  0  0  0  0  0  0  0  0  0
  -17.0746   -4.3132  140.1199 C   0  0  0  0  0  0  0  0  0  0  0  0
  -19.5316   -3.7132  140.4680 O   0  0  0  0  0  0  0  0  0  0  0  0
  -18.4795   -4.2867  140.6976 C   0  0  0  0  0  0  0  0  0  0  0  0
  -17.9540   -5.2990  141.7035 C   0  0  0  0  0  0  0  0  0  0  0  0
  5  2  1  0
  5  3  1  0
  7  1  2  0
  7  2  1  0
  7  4  1  0
  8  6  1  0
 10  8  1  0
 10  9  2  0
 11  4  1  0
 11  6  1  0
 11 10  1  0
M  END
$$$$

     RDKit          3D

 11 10  0  0  0  0  0  0  0  0999 V2000
  -25.7493  -15.7831  142.2657 Se  0  0  0  0  0  2  0  0  0  0  0  0
  -26.7430  -16.1230  139.7453 O   0  0  0  0  0  0  0  0  0  0  0  0
  -25.4640  -18.5285  139.3147 O   0  0  0  0  0  0  0  0  0  0  0  0
  -24.3323  -16.7808  142.8924 O   0  0  0  0  0  0  0  0  0  0  0  0
  -23.3212  -15.9341  142.9504 O   0  0  0  0  0  0  0  0  0  0  0  0
  -21.8096  -14.9066  144.4607 C   0  0  0  0  0  0  0  0  0  0  0  0
  -20.6201  -15.1626  143.9096 C   0  0  0  0  0  0  0  0  0  0  0  0
  -22.9625  -15.8519  144.3051 C   0  0  0  0  0  0  0  0  0  0  0  0
  -25.5977  -16.5271  140.4588 C   0  0  0  0  0  0  0  0  0  0  0  0
  -25.5389  -17.9935  140.5596 N   0  0  0  0  0  0  0  0  0  0  0  0
  -24.3244  -15.9675  139.8007 C   0  0  0  0  0  0  0  0  0  0  0  0
  4  1  1  0
  5  4  1  0
  7  6  2  0
  8  5  1  0
  8  6  1  0
  9  1  1  0
  9  2  1  0
 10  3  1  0
 10  9  1  0
 11  9  1  0
M  END
$$$$

     RDKit          3D

  9 10  0  0  0  0  0  0  0  0999 V2000
  -26.9702  -19.4875  138.3105 O   0  0  0  0  0  0  0  0  0  0  0  0
  -26.9548  -18.1587  138.7745 C   0  0  0  0  0  0  0  0  0  0  0  0
  -26.2019  -18.0593  139.9521 O   0  0  0  0  0  0  0  0  0  0  0  0
  -28.4424  -18.1528  139.0404 C   0  0  0  0  0  0  0  0  0  0  0  0
  -28.3587  -19.5742  138.5295 C   0  0  0  0  0  0  0  0  0  0  0  0
  -29.1073  -19.7829  137.2056 C   0  0  0  0  0  0  0  0  0  0  0  0
  -30.5242  -20.3102  137.3593 C   0  0  0  0  0  0  0  0  0  0  0  0
  -31.4166  -19.8715  136.2962 N   0  0  0  0  0  0  0  0  0  0  0  0
  -29.4213  -21.2361  136.8677 C   0  0  0  0  0  0  0  0  0  0  0  0
  2  1  1  0
  3  2  1  0
  4  2  1  0
  5  1  1  0
  5  4  1  0
  6  5  1  0
  7  6  1  0
  8  7  1  0
  9  6  1  0
  9  7  1  0
M  END
$$$$

     RDKit          3D

 11 13  0  0  0  0  0  0  0  0999 V2000
  -26.0933  -12.9215  139.0593 C   0  0  0  0  0  0  0  0  0  0  0  0
  -27.6122  -13.2040  139.0963 C   0  0  0  0  0  0  0  0  0  0  0  0
  -25.5846  -13.3470  137.6885 C   0  0  0  0  0  0  0  0  0  0  0  0
  -25.6978  -12.0954  136.8011 C   0  0  0  0  0  0  0  0  0  0  0  0
  -26.8945  -12.3232  135.8934 C   0  0  0  0  0  0  0  0  0  0  0  0
  -28.5243  -12.8092  137.9017 C   0  0  0  0  0  0  0  0  0  0  0  0
  -24.4004  -12.8775  136.8556 C   0  0  0  0  0  0  0  0  0  0  0  0
  -28.1524  -11.9076  136.6804 C   0  0  0  0  0  0  0  0  0  0  0  0
  -28.5429  -12.0118  139.2135 C   0  0  0  0  0  0  0  0  0  0  0  0
  -23.2572  -12.2268  137.6446 C   0  0  0  0  0  0  0  0  0  0  0  0
  -22.2996  -13.2901  138.1688 C   0  0  0  0  0  0  0  0  0  0  0  0
  2  1  1  0
  3  1  1  0
  4  3  1  0
  5  4  1  0
  6  2  1  0
  7  3  1  0
  7  4  1  0
  8  5  1  0
  8  6  1  0
  9  2  1  0
  9  6  1  0
 10  7  1  0
 11 10  1  0
M  END
$$$$

     RDKit          3D

 11 11  0  0  0  0  0  0  0  0999 V2000
  -28.4090    1.3157  137.6729 C   0  0  0  0  0  0  0  0  0  0  0  0
  -28.5106    2.6465  137.9276 N   0  0  0  0  0  2  0  0  0  0  0  0
  -28.8333    2.1699  136.7241 N   0  0  0  0  0  2  0  0  0  0  0  0
  -29.7102    0.9970  138.1809 C   0  0  0  0  0  0  0  0  0  0  0  0
  -29.9675    1.0395  139.5406 C   0  0  0  0  0  0  0  0  0  0  0  0
  -30.9410    1.8584  140.0661 C   0  0  0  0  0  0  0  0  0  0  0  0
  -30.7285    1.1192  137.2504 C   0  0  0  0  0  0  0  0  0  0  0  0
  -30.4366    1.0974  135.9015 C   0  0  0  0  0  0  0  0  0  0  0  0
  -32.1913    1.7965  139.4203 C   0  0  0  0  0  0  0  0  0  0  0  0
  -32.3397    1.0854  138.2503 C   0  0  0  0  0  0  0  0  0  0  0  0
  -31.7477   -0.1461  138.1865 N   0  0  0  0  0  0  0  0  0  0  0  0
  2  1  1  0
  3  1  1  0
  4  1  1  0
  5  4  1  0
  6  5  1  0
  7  4  1  0
  8  7  1  0
  9  6  2  0
 10  7  1  0
 10  9  1  0
 11 10  1  0
M  RAD  2   2   2   3   2
M  END
$$$$

     RDKit          3D

 11 11  0  0  0  0  0  0  0  0999 V2000
  -22.5793   -4.0575  137.7406 O   0  0  0  0  0  0  0  0  0  0  0  0
  -21.2170   -4.0247  137.3716 C   0  0  0  0  0  0  0  0  0  0  0  0
  -20.2009   -3.2698  137.4336 O   0  0  0  0  0  0  0  0  0  0  0  0
  -22.5674   -2.7555  138.3247 C   0  0  0  0  0  0  0  0  0  0  0  0
  -24.0848   -3.4540  142.1175 C   0  0  0  0  0  0  0  0  0  0  0  0
  -24.7981   -4.4187  141.2247 C   0  0  0  0  0  0  0  0  0  0  0  0
  -25.1479   -4.0678  140.1057 O   0  0  0  0  0  0  0  0  0  0  0  0
  -25.0449   -5.8310  141.6822 C   0  0  0  0  0  0  0  0  0  0  0  0
  -23.7729   -6.6833  141.6031 C   0  0  0  0  0  0  0  0  0  0  0  0
  -22.5855   -4.7305  137.4386 S   0  0  0  0  0  4  0  0  0  0  0  0
  -23.3487   -6.9608  140.1605 C   0  0  0  0  0  0  0  0  0  0  0  0
  2  1  1  0
  3  2  2  0
  4  1  1  0
  6  5  1  0
  7  6  2  0
  8  6  1  0
  9  8  1  0
 10  2  1  0
 10  4  1  0
 10  5  1  0
 11  9  1  0
M  END
$$$$

     RDKit          3D

 11 14  0  0  0  0  0  0  0  0999 V2000
  -24.8768    1.1653  135.5502 Br  0  0  0  0  0  0  0  0  0  0  0  0
  -26.2563   -1.0076  136.3935 C   0  0  0  0  0  0  0  0  0  0  0  0
  -27.3125   -0.1361  136.0767 O   0  0  0  0  0  0  0  0  0  0  0  0
  -25.6621   -0.5849  137.7438 C   0  0  0  0  0  0  0  0  0  0  0  0
  -26.2005    0.4174  136.7436 C   0  0  0  0  0  0  0  0  0  0  0  0
  -26.5015   -1.8498  137.6203 C   0  0  0  0  0  0  0  0  0  0  0  0
  -25.7021   -3.1648  137.7473 C   0  0  0  0  0  0  0  0  0  0  0  0
  -26.2768   -4.2802  136.8728 C   0  0  0  0  0  0  0  0  0  0  0  0
  -24.3648   -3.2825  137.0014 C   0  0  0  0  0  0  0  0  0  0  0  0
  -24.9445   -4.3955  136.1386 C   0  0  0  0  0  0  0  0  0  0  0  0
  -26.6757   -5.7518  137.8067 Cl  0  0  0  0  0  0  0  0  0  0  0  0
  3  2  1  0
  4  2  1  0
  5  1  1  0
  5  2  1  0
  5  3  1  0
  5  4  1  0
  6  2  1  0
  6  4  1  0
  7  6  1  0
  8  7  1  0
  9  7  1  0
 10  8  1  0
 10  9  1  0
 11  8  1  0
M  END
$$$$

     RDKit          3D

 11 13  0  0  0  0  0  0  0  0999 V2000
  -25.5279  -17.8258  136.6197 O   0  0  0  0  0  0  0  0  0  0  0  0
  -26.0127  -19.0757  138.3530 C   0  0  0  0  0  0  0  0  0  0  0  0
  -25.9176  -17.7507  137.8798 O   0  0  0  0  0  0  0  0  0  0  0  0
  -27.3507  -19.7132  137.8949 C   0  0  0  0  0  0  0  0  0  0  0  0
  -26.0041  -19.0559  139.8960 C   0  0  0  0  0  0  0  0  0  0  0  0
  -28.9148  -21.0490  139.4293 C   0  0  0  0  0  0  0  0  0  0  0  0
  -27.9457  -18.9974  141.7223 C   0  0  0  0  0  0  0  0  0  0  0  0
  -28.2390  -19.7109  139.1320 C   0  0  0  0  0  0  0  0  0  0  0  0
  -29.7534  -19.8345  139.0484 C   0  0  0  0  0  0  0  0  0  0  0  0
  -27.4694  -19.1054  140.2830 C   0  0  0  0  0  0  0  0  0  0  0  0
  -28.0254  -17.7809  140.8040 C   0  0  0  0  0  0  0  0  0  0  0  0
  3  1  1  0
  3  2  1  0
  4  2  1  0
  5  2  1  0
  8  4  1  0
  8  6  1  0
  9  6  1  0
  9  8  1  0
 10  5  1  0
 10  7  1  0
 10  8  1  0
 11  7  1  0
 11 10  1  0
M  END
$$$$

     RDKit          3D

 11 14  0  0  0  0  0  0  0  0999 V2000
  -27.2801  -17.2391  149.9507 O   0  0  0  0  0  0  0  0  0  0  0  0
  -28.2181  -17.4686  148.9393 C   0  0  0  0  0  0  0  0  0  0  0  0
  -29.0797  -18.5201  149.2932 O   0  0  0  0  0  0  0  0  0  0  0  0
  -28.9672  -16.2083  148.5684 C   0  0  0  0  0  0  0  0  0  0  0  0
  -30.9377  -16.3023  146.8922 C   0  0  0  0  0  0  0  0  0  0  0  0
  -30.6763  -15.0130  145.1786 C   0  0  0  0  0  0  0  0  0  0  0  0
  -29.6079  -17.2316  149.4783 C   0  0  0  0  0  0  0  0  0  0  0  0
  -31.4229  -16.3044  145.4507 C   0  0  0  0  0  0  0  0  0  0  0  0
  -30.6402  -13.8595  147.5448 C   0  0  0  0  0  0  0  0  0  0  0  0
  -29.4338  -16.2375  147.1098 C   0  0  0  0  0  0  0  0  0  0  0  0
  -30.1688  -14.9945  146.6145 C   0  0  0  0  0  0  0  0  0  0  0  0
  2  1  1  0
  3  2  1  0
  4  2  1  0
  7  2  1  0
  7  3  1  0
  7  4  1  0
  8  5  1  0
  8  6  1  0
 10  4  1  0
 10  5  1  0
 11  5  1  0
 11  6  1  0
 11  9  1  0
 11 10  1  0
M  END
$$$$

     RDKit          3D

 10 10  0  0  0  0  0  0  0  0999 V2000
  -26.2246  -14.2027  153.0125 O   0  0  0  0  0  0  0  0  0  0  0  0
  -27.9074  -15.7551  156.5442 O   0  0  0  0  0  0  0  0  0  0  0  0
  -25.3556  -16.0117  150.9762 O   0  0  0  0  0  0  0  0  0  0  0  0
  -27.2689  -13.5506  153.7087 C   0  0  0  0  0  0  0  0  0  0  0  0
  -25.8385  -13.7064  155.8434 C   0  0  0  0  0  0  0  0  0  0  0  0
  -25.7416  -15.0839  156.1258 O   0  0  0  0  0  0  0  0  0  0  0  0
  -27.0097  -15.3199  155.5602 C   0  0  0  0  0  0  0  0  0  0  0  0
  -27.2071  -13.8568  155.2143 C   0  0  0  0  0  0  0  0  0  0  0  0
  -25.1964  -14.6214  150.8865 C   0  0  0  0  0  0  0  0  0  0  0  0
  -26.3163  -13.9048  151.6359 C   0  0  0  0  0  0  0  0  0  0  0  0
  4  1  1  0
  6  5  1  0
  7  2  1  0
  7  6  1  0
  8  4  1  0
  8  5  1  0
  8  7  1  0
  9  3  1  0
 10  1  1  0
 10  9  1  0
M  END
$$$$

     RDKit          3D

 11 12  0  0  0  0  0  0  0  0999 V2000
  -36.8053   -8.4065  141.6037 O   0  0  0  0  0  0  0  0  0  0  0  0
  -36.7313   -7.1679  142.2580 C   0  0  0  0  0  0  0  0  0  0  0  0
  -37.2034   -7.2891  143.7123 C   0  0  0  0  0  0  0  0  0  0  0  0
  -34.8860   -7.9439  144.6883 C   0  0  0  0  0  0  0  0  0  0  0  0
  -34.6224   -6.5652  145.3280 C   0  0  0  0  0  0  0  0  0  0  0  0
  -35.0512   -6.3579  146.7947 C   0  0  0  0  0  0  0  0  0  0  0  0
  -36.3841   -8.2809  144.5604 C   0  0  0  0  0  0  0  0  0  0  0  0
  -33.5934   -7.2575  148.1207 C   0  0  0  0  0  0  0  0  0  0  0  0
  -33.1643   -6.3300  145.7206 C   0  0  0  0  0  0  0  0  0  0  0  0
  -35.0505   -7.5348  147.7809 C   0  0  0  0  0  0  0  0  0  0  0  0
  -33.6010   -6.0680  147.1629 C   0  0  0  0  0  0  0  0  0  0  0  0
  2  1  1  0
  3  2  1  0
  5  4  1  0
  6  5  1  0
  7  3  1  0
  7  4  1  0
  9  5  1  0
 10  6  1  0
 10  8  1  0
 11  6  1  0
 11  8  1  0
 11  9  1  0
M  END
$$$$

     RDKit          3D

 11 14  0  0  0  0  0  0  0  0999 V2000
  -26.6495    3.2174  139.8088 C   0  0  0  0  0  0  0  0  0  0  0  0
  -26.3052    4.2307  138.6939 C   0  0  0  0  0  0  0  0  0  0  0  0
  -25.4791    2.3080  140.2464 C   0  0  0  0  0  0  0  0  0  0  0  0
  -27.0162    5.5736  138.8167 C   0  0  0  0  0  0  0  0  0  0  0  0
  -24.1335    3.0074  140.4361 C   0  0  0  0  0  0  0  0  0  0  0  0
  -24.0764    4.5147  140.1106 C   0  0  0  0  0  0  0  0  0  0  0  0
  -24.3280    2.0267  139.2779 C   0  0  0  0  0  0  0  0  0  0  0  0
  -28.1306    2.1063  139.2344 Br  0  0  0  0  0  0  0  0  0  0  0  0
  -25.6880    6.2708  139.0823 C   0  0  0  0  0  0  0  0  0  0  0  0
  -24.5944    6.1052  138.0493 C   0  0  0  0  0  0  0  0  0  0  0  0
  -24.9652    4.9162  138.9132 C   0  0  0  0  0  0  0  0  0  0  0  0
  2  1  1  0
  3  1  1  0
  4  2  1  0
  5  3  1  0
  6  5  1  0
  7  3  1  0
  7  5  1  0
  8  1  1  0
  9  4  1  0
 10  9  1  0
 11  2  1  0
 11  6  1  0
 11  9  1  0
 11 10  1  0
M  END
$$$$

     RDKit          3D

 11 13  0  0  0  0  0  0  0  0999 V2000
  -21.3361  -10.6100  153.5466 C   0  0  0  0  0  0  0  0  0  0  0  0
  -21.2865   -9.4419  154.5160 C   0  0  0  0  0  0  0  0  0  0  0  0
  -20.2641  -11.6662  153.6742 C   0  0  0  0  0  0  0  0  0  0  0  0
  -22.2620  -10.5869  154.7292 C   0  0  0  0  0  0  0  0  0  0  0  0
  -19.1712  -11.3939  154.5139 O   0  0  0  0  0  0  0  0  0  0  0  0
  -21.6030  -11.9054  154.3624 C   0  0  0  0  0  0  0  0  0  0  0  0
  -19.0633  -11.8930  151.5548 C   0  0  0  0  0  0  0  0  0  0  0  0
  -19.6064  -10.7170  151.0059 O   0  0  0  0  0  0  0  0  0  0  0  0
  -20.0128  -12.5138  152.4960 N   0  0  0  0  0  0  0  0  0  0  0  0
  -18.7719  -12.8699  150.4177 C   0  0  0  0  0  0  0  0  0  0  0  0
  -17.8584  -11.6206  152.1924 F   0  0  0  0  0  0  0  0  0  0  0  0
  2  1  1  0
  3  1  1  0
  4  1  1  0
  4  2  1  0
  5  3  1  0
  6  1  1  0
  6  3  1  0
  6  4  1  0
  8  7  1  0
  9  3  1  0
  9  7  1  0
 10  7  1  0
 11  7  1  0
M  END
$$$$

     RDKit          3D

 11 12  0  0  0  0  0  0  0  0999 V2000
  -27.3376   -5.3316  145.2111 O   0  0  0  0  0  0  0  0  0  0  0  0
  -26.3484   -6.1046  145.1060 C   0  0  0  0  0  0  0  0  0  0  0  0
  -26.5103   -7.4591  145.3862 O   0  0  0  0  0  0  0  0  0  0  0  0
  -25.0026   -5.5600  144.7165 C   0  0  0  0  0  0  0  0  0  0  0  0
  -25.0125   -4.9208  143.3165 C   0  0  0  0  0  0  0  0  0  0  0  0
  -25.4165   -2.7890  141.9693 C   0  0  0  0  0  0  0  0  0  0  0  0
  -26.5643   -3.2603  141.0615 C   0  0  0  0  0  0  0  0  0  0  0  0
  -27.8904   -2.5718  141.2412 C   0  0  0  0  0  0  0  0  0  0  0  0
  -28.4349   -1.8887  140.0217 C   0  0  0  0  0  0  0  0  0  0  0  0
  -25.4753   -3.4527  143.3518 C   0  0  0  0  0  0  0  0  0  0  0  0
  -26.9640   -2.2373  140.0200 C   0  0  0  0  0  0  0  0  0  0  0  0
  2  1  2  0
  3  2  1  0
  4  2  1  0
  5  4  1  0
  7  6  1  0
  8  7  1  0
  9  8  1  0
 10  5  1  0
 10  6  1  0
 11  7  1  0
 11  8  1  0
 11  9  1  0
M  END
$$$$

     RDKit          3D

 11 13  0  0  0  0  0  0  0  0999 V2000
  -21.4356   -6.6615  141.7862 C   0  0  0  0  0  0  0  0  0  0  0  0
  -21.4017   -8.5903  140.8158 C   0  0  0  0  0  0  0  0  0  0  0  0
  -21.7979   -8.0292  142.1826 C   0  0  0  0  0  0  0  0  0  0  0  0
  -20.0281   -8.2707  140.2527 C   0  0  0  0  0  0  0  0  0  0  0  0
  -22.9854   -6.2857  141.9941 B   0  0  0  0  0  0  0  0  0  0  0  0
  -21.0380   -7.1461  140.3906 C   0  0  0  0  0  0  0  0  0  0  0  0
  -23.7258   -5.0597  142.2924 O   0  0  0  0  0  0  0  0  0  0  0  0
  -18.8413   -8.2888  141.2312 C   0  0  0  0  0  0  0  0  0  0  0  0
  -23.1564   -7.7424  142.3011 O   0  0  0  0  0  0  0  0  0  0  0  0
  -23.4931   -4.8224  143.5675 O   0  0  0  0  0  0  0  0  0  0  0  0
  -17.7429   -7.3483  140.7497 C   0  0  0  0  0  0  0  0  0  0  0  0
  3  1  1  0
  3  2  1  0
  4  2  1  0
  5  1  1  0
  6  1  1  0
  6  2  1  0
  6  4  1  0
  7  5  1  0
  8  4  1  0
  9  3  1  0
  9  5  1  0
 10  7  1  0
 11  8  1  0
M  END
$$$$

     RDKit          3D

 11 11  0  0  0  0  0  0  0  0999 V2000
  -35.1604  -11.1736  144.8142 C   0  0  0  0  0  0  0  0  0  0  0  0
  -35.4834  -12.7236  142.9266 C   0  0  0  0  0  0  0  0  0  0  0  0
  -36.0156  -11.3448  142.5668 C   0  0  0  0  0  0  0  0  0  0  0  0
  -35.1817  -13.5831  145.1307 F   0  0  0  0  0  0  0  0  0  0  0  0
  -36.2701  -10.6577  143.8940 C   0  0  0  0  0  0  0  0  0  0  0  0
  -34.7643  -12.5747  144.2787 C   0  0  0  0  0  0  0  0  0  0  0  0
  -33.2418  -12.7027  144.1129 C   0  0  0  0  0  0  0  0  0  0  0  0
  -35.4516  -11.1009  146.3374 C   0  0  0  0  0  0  0  0  0  0  0  0
  -37.1812  -11.5652  146.9506 Si  0  0  0  0  0  4  0  0  0  0  0  0
  -39.1984  -13.5081  146.8708 C   0  0  0  0  0  0  0  0  0  0  0  0
  -37.7827  -13.2455  146.3762 C   0  0  0  0  0  0  0  0  0  0  0  0
  3  2  1  0
  5  1  1  0
  5  3  1  0
  6  1  1  0
  6  2  1  0
  6  4  1  0
  7  6  1  0
  8  1  1  0
  9  8  1  0
 11  9  1  0
 11 10  1  0
M  END
$$$$

     RDKit          3D

 11 11  0  0  0  0  0  0  0  0999 V2000
  -26.1504  -17.9486  140.2287 O   0  0  0  0  0  0  0  0  0  0  0  0
  -26.3115  -19.0767  140.7799 C   0  0  0  0  0  0  0  0  0  0  0  0
  -25.7339  -18.3915  139.6562 O   0  0  0  0  0  0  0  0  0  0  0  0
  -25.0567  -17.6586  143.3528 C   0  0  0  0  0  0  0  0  0  0  0  0
  -23.1400  -16.1969  143.6483 O   0  0  0  0  0  0  0  0  0  0  0  0
  -25.3994  -19.7029  141.7896 C   0  0  0  0  0  0  0  0  0  0  0  0
  -22.5397  -16.0125  142.3891 C   0  0  0  0  0  0  0  0  0  0  0  0
  -25.5886  -19.0986  143.1883 C   0  0  0  0  0  0  0  0  0  0  0  0
  -23.5164  -17.5121  143.3105 C   0  0  0  0  0  0  0  0  0  0  0  0
  -22.9089  -17.3972  141.9246 C   0  0  0  0  0  0  0  0  0  0  0  0
  -22.6434  -18.6712  144.3632 Cl  0  0  0  0  0  0  0  0  0  0  0  0
  2  1  2  0
  3  2  1  0
  6  2  1  0
  7  5  1  0
  8  4  1  0
  8  6  1  0
  9  4  1  0
  9  5  1  0
 10  7  1  0
 10  9  1  0
 11  9  1  0
M  END
$$$$

     RDKit          3D

 11 13  0  0  0  0  0  0  0  0999 V2000
  -29.5530   -2.5150  135.9819 O   0  0  0  0  0  0  0  0  0  0  0  0
  -28.1650   -2.7461  136.0650 C   0  0  0  0  0  0  0  0  0  0  0  0
  -29.7569   -1.1853  135.5608 C   0  0  0  0  0  0  0  0  0  0  0  0
  -27.8009   -4.2290  136.1325 C   0  0  0  0  0  0  0  0  0  0  0  0
  -31.2497   -0.9412  135.3385 C   0  0  0  0  0  0  0  0  0  0  0  0
  -28.8830   -5.2650  135.8239 C   0  0  0  0  0  0  0  0  0  0  0  0
  -29.3057   -5.0930  134.3680 C   0  0  0  0  0  0  0  0  0  0  0  0
  -27.5443   -3.4425  134.8580 C   0  0  0  0  0  0  0  0  0  0  0  0
  -32.0469   -1.0689  136.6349 C   0  0  0  0  0  0  0  0  0  0  0  0
  -28.2473   -5.3763  133.3096 C   0  0  0  0  0  0  0  0  0  0  0  0
  -28.4968   -3.9535  133.7843 C   0  0  0  0  0  0  0  0  0  0  0  0
  2  1  1  0
  3  1  1  0
  4  2  1  0
  5  3  1  0
  6  4  1  0
  7  6  1  0
  8  2  1  0
  8  4  1  0
  9  5  1  0
 10  7  1  0
 11  7  1  0
 11  8  1  0
 11 10  1  0
M  END
$$$$

     RDKit          3D

 26 26  0  0  0  0  0  0  0  0999 V2000
  -24.7212  -10.1636  145.3576 O   0  0  0  0  0  3  0  0  0  0  0  0
  -24.7266  -10.9266  144.1476 S   0  0  0  0  0  4  0  0  0  0  0  0
  -24.1518  -12.2365  144.2111 O   0  0  0  0  0  0  0  0  0  0  0  0
  -23.8292  -12.2475  144.3584 N   0  0  0  0  0  0  0  0  0  0  0  0
  -23.3970  -11.4253  145.5403 C   0  0  0  0  0  0  0  0  0  0  0  0
  -24.1830  -11.6937  146.9106 C   0  0  0  0  0  0  0  0  0  0  0  0
  -25.1555  -12.8834  146.5534 B   0  0  0  0  0  0  0  0  0  0  0  0
  -26.4213  -12.2807  145.9427 C   0  0  0  0  0  0  0  0  0  0  0  0
  -23.2156  -12.1952  144.2388 C   0  0  0  0  0  0  0  0  0  0  0  0
  -22.3656  -12.1310  146.2710 C   0  0  0  0  0  0  0  0  0  0  0  0
  -24.6417  -14.0418  145.7338 C   0  0  0  0  0  0  0  0  0  0  0  0
  -24.7255  -10.7771  146.1346 H   0  0  0  0  0  0  0  0  0  0  0  0
  -24.8390  -12.2128  144.9233 H   0  0  0  0  0  0  0  0  0  0  0  0
  -23.4874  -11.9822  147.7124 H   0  0  0  0  0  0  0  0  0  0  0  0
  -24.7138  -10.8040  147.2803 H   0  0  0  0  0  0  0  0  0  0  0  0
  -27.0987  -11.9581  146.7471 H   0  0  0  0  0  0  0  0  0  0  0  0
  -26.1517  -11.4143  145.3209 H   0  0  0  0  0  0  0  0  0  0  0  0
  -26.9240  -13.0361  145.3209 H   0  0  0  0  0  0  0  0  0  0  0  0
  -22.6176  -13.1174  144.2832 H   0  0  0  0  0  0  0  0  0  0  0  0
  -22.7426  -11.8396  143.3116 H   0  0  0  0  0  0  0  0  0  0  0  0
  -22.5364  -12.0142  147.3514 H   0  0  0  0  0  0  0  0  0  0  0  0
  -22.3955  -13.1988  146.0085 H   0  0  0  0  0  0  0  0  0  0  0  0
  -21.3812  -11.7163  146.0085 H   0  0  0  0  0  0  0  0  0  0  0  0
  -24.2886  -14.8382  146.4054 H   0  0  0  0  0  0  0  0  0  0  0  0
  -25.4521  -14.4300  145.0992 H   0  0  0  0  0  0  0  0  0  0  0  0
  -23.8100  -13.7017  145.0992 H   0  0  0  0  0  0  0  0  0  0  0  0
  2  1  2  3
  4  2  1  0
  4  3  1  0
  5  2  1  0
  6  5  1  0
  7  6  1  0
  8  7  1  0
  9  4  1  0
  9  5  1  0
 10  5  1  0
 11  7  1  0
  1 12  1  0
  3 13  1  0
  6 14  1  0
  6 15  1  0
  8 16  1  0
  8 17  1  0
  8 18  1  0
  9 19  1  0
  9 20  1  0
 10 21  1  0
 10 22  1  0
 10 23  1  0
 11 24  1  0
 11 25  1  0
 11 26  1  0
M  END
$$$$

     RDKit          3D

 11 14  0  0  0  0  0  0  0  0999 V2000
  -24.1738   -3.9534  141.3288 C   0  0  0  0  0  0  0  0  0  0  0  0
  -24.1356   -3.4001  143.8416 C   0  0  0  0  0  0  0  0  0  0  0  0
  -25.5089   -4.6458  141.0666 C   0  0  0  0  0  0  0  0  0  0  0  0
  -23.5858   -4.2466  142.6956 C   0  0  0  0  0  0  0  0  0  0  0  0
  -24.5592   -5.2453  142.1012 C   0  0  0  0  0  0  0  0  0  0  0  0
  -26.7547   -4.0066  141.7237 C   0  0  0  0  0  0  0  0  0  0  0  0
  -25.7553   -5.4684  139.7460 C   0  0  0  0  0  0  0  0  0  0  0  0
  -27.7666   -5.0660  142.1548 C   0  0  0  0  0  0  0  0  0  0  0  0
  -24.9686   -4.9500  138.5056 C   0  0  0  0  0  0  0  0  0  0  0  0
  -26.4331   -4.6199  138.6957 C   0  0  0  0  0  0  0  0  0  0  0  0
  -24.5907   -6.2562  139.1802 C   0  0  0  0  0  0  0  0  0  0  0  0
  3  1  1  0
  4  1  1  0
  4  2  1  0
  5  1  1  0
  5  3  1  0
  5  4  1  0
  6  3  1  0
  7  3  1  0
  8  6  1  0
  9  7  1  0
 10  7  1  0
 10  9  1  0
 11  7  1  0
 11  9  1  0
M  END
$$$$

     RDKit          3D

 11 15  0  0  0  0  0  0  0  0999 V2000
  -26.2249   -6.3626  138.7466 N   0  0  0  0  0  2  0  0  0  0  0  0
  -27.2711   -7.2127  139.3048 C   0  0  0  0  0  0  0  0  0  0  0  0
  -26.5507   -8.4717  139.6043 N   0  0  0  0  0  0  0  0  0  0  0  0
  -26.4609   -6.2732  137.3106 C   0  0  0  0  0  0  0  0  0  0  0  0
  -25.9231   -8.3142  140.9437 C   0  0  0  0  0  0  0  0  0  0  0  0
  -24.9115   -7.3455  140.9318 O   0  0  0  0  0  0  0  0  0  0  0  0
  -27.6350   -6.4224  140.5445 C   0  0  0  0  0  0  0  0  0  0  0  0
  -27.2900   -7.8566  140.7054 C   0  0  0  0  0  0  0  0  0  0  0  0
  -25.3952   -6.9663  136.5002 C   0  0  0  0  0  0  0  0  0  0  0  0
  -26.6895   -4.8850  136.8950 N   0  0  0  0  0  2  0  0  0  0  0  0
  -25.3611   -5.4713  136.6800 C   0  0  0  0  0  0  0  0  0  0  0  0
  2  1  1  0
  3  2  1  0
  4  1  1  0
  5  3  1  0
  6  5  1  0
  7  2  1  0
  8  2  1  0
  8  3  1  0
  8  5  1  0
  8  7  1  0
  9  4  1  0
 10  4  1  0
 11  4  1  0
 11  9  1  0
 11 10  1  0
M  RAD  2   1   2  10   2
M  END
$$$$

     RDKit          3D

 11 12  0  0  0  0  0  0  0  0999 V2000
  -26.8363  -21.3514  138.7759 C   0  0  0  0  0  0  0  0  0  0  0  0
  -26.3903  -22.4300  139.7832 C   0  0  0  0  0  0  0  0  0  0  0  0
  -27.7609  -23.9039  140.5693 C   0  0  0  0  0  0  0  0  0  0  0  0
  -26.4544  -19.8679  138.9029 C   0  0  0  0  0  0  0  0  0  0  0  0
  -25.7191  -20.7745  137.9152 C   0  0  0  0  0  0  0  0  0  0  0  0
  -27.3091  -22.5170  141.0015 C   0  0  0  0  0  0  0  0  0  0  0  0
  -25.5302  -19.1772  139.9396 C   0  0  0  0  0  0  0  0  0  0  0  0
  -26.8396  -23.8303  139.3612 C   0  0  0  0  0  0  0  0  0  0  0  0
  -23.8438  -19.1413  141.8128 C   0  0  0  0  0  0  0  0  0  0  0  0
  -24.6826  -20.0291  140.8929 C   0  0  0  0  0  0  0  0  0  0  0  0
  -22.8790  -20.1490  142.9212 Cl  0  0  0  0  0  0  0  0  0  0  0  0
  2  1  1  0
  4  1  1  0
  5  1  1  0
  5  4  1  0
  6  2  1  0
  6  3  1  0
  7  4  1  0
  8  2  1  0
  8  3  1  0
 10  7  1  0
 10  9  1  0
 11  9  1  0
M  END
$$$$

     RDKit          3D

 11 15  0  0  0  0  0  0  0  0999 V2000
  -22.8396    0.8078  138.6490 C   0  0  0  0  0  0  0  0  0  0  0  0
  -22.6414   -0.7116  138.5266 C   0  0  0  0  0  0  0  0  0  0  0  0
  -23.9235   -1.5186  138.3554 C   0  0  0  0  0  0  0  0  0  0  0  0
  -20.7666    2.1835  139.2085 C   0  0  0  0  0  0  0  0  0  0  0  0
  -24.3129   -1.8418  137.0148 C   0  0  0  0  0  0  0  0  0  0  0  0
  -23.8123   -2.9723  137.9052 C   0  0  0  0  0  0  0  0  0  0  0  0
  -21.6436    1.6088  138.0965 C   0  0  0  0  0  0  0  0  0  0  0  0
  -22.3682   -2.7622  137.4077 C   0  0  0  0  0  0  0  0  0  0  0  0
  -21.3167   -2.7528  138.5179 C   0  0  0  0  0  0  0  0  0  0  0  0
  -22.8971   -1.3191  137.2000 C   0  0  0  0  0  0  0  0  0  0  0  0
  -21.5254   -1.4430  139.2700 C   0  0  0  0  0  0  0  0  0  0  0  0
  2  1  1  0
  3  2  1  0
  5  3  1  0
  6  3  1  0
  6  5  1  0
  7  1  1  0
  7  4  1  0
  8  6  1  0
  9  8  1  0
 10  2  1  0
 10  3  1  0
 10  5  1  0
 10  8  1  0
 11  2  1  0
 11  9  1  0
M  END
$$$$

     RDKit          3D

 11 11  0  0  0  0  0  0  0  0999 V2000
  -19.4195   -5.0069  135.5527 O   0  0  0  0  0  0  0  0  0  0  0  0
  -20.2231   -5.9382  134.8833 C   0  0  0  0  0  0  0  0  0  0  0  0
  -22.4651   -5.4182  136.1491 C   0  0  0  0  0  0  0  0  0  0  0  0
  -21.3443   -6.4182  135.8169 C   0  0  0  0  0  0  0  0  0  0  0  0
  -23.4829   -6.3459  135.4835 C   0  0  0  0  0  0  0  0  0  0  0  0
  -24.5810   -6.9468  136.5618 C   0  0  0  0  0  0  0  0  0  0  0  0
  -25.9345   -6.4337  136.9460 C   0  0  0  0  0  0  0  0  0  0  0  0
  -22.3761   -3.8201  135.3376 Cl  0  0  0  0  0  0  0  0  0  0  0  0
  -22.3611   -7.3240  135.1239 C   0  0  0  0  0  0  0  0  0  0  0  0
  -26.5374   -5.2758  136.4427 O   0  0  0  0  0  0  0  0  0  0  0  0
  -25.8729   -4.3923  135.6193 N   0  0  0  0  0  0  0  0  0  0  0  0
  2  1  1  0
  4  2  1  0
  4  3  1  0
  5  3  1  0
  6  5  1  0
  7  6  2  3
  8  3  1  0
  9  4  1  0
  9  5  1  0
 10  7  1  0
 11 10  1  0
M  END
$$$$

     RDKit          3D

  6  6  0  0  0  0  0  0  0  0999 V2000
  -25.7345  -11.9121  149.8580 C   0  0  0  0  0  0  0  0  0  0  0  0
  -26.6757   -9.1853  148.4081 C   0  0  0  0  0  0  0  0  0  0  0  0
  -24.8723  -10.7441  149.3869 C   0  0  0  0  0  0  0  0  0  0  0  0
  -24.6773   -8.8588  147.6641 C   0  0  0  0  0  0  0  0  0  0  0  0
  -25.8864   -7.9733  147.9327 C   0  0  0  0  0  0  0  0  0  0  0  0
  -25.4668  -10.0799  148.1327 C   0  0  0  0  0  0  0  0  0  0  0  0
  3  1  1  0
  5  2  1  0
  5  4  1  0
  6  2  1  0
  6  3  1  0
  6  4  1  0
M  END
$$$$

     RDKit          3D

 11 10  0  0  0  0  0  0  0  0999 V2000
  -20.4583  -10.6469  147.4832 C   0  0  0  0  0  0  0  0  0  0  0  0
  -21.8476  -11.8858  149.1655 C   0  0  0  0  0  0  0  0  0  0  0  0
  -22.8320  -12.6882  149.5730 C   0  0  0  0  0  0  0  0  0  0  0  0
  -19.3692   -8.9710  145.9099 C   0  0  0  0  0  0  0  0  0  0  0  0
  -19.2138   -8.4378  144.4762 C   0  0  0  0  0  0  0  0  0  0  0  0
  -19.7530  -11.3814  145.1519 C   0  0  0  0  0  0  0  0  0  0  0  0
  -20.2949  -10.2150  146.0019 C   0  0  0  0  0  0  0  0  0  0  0  0
  -19.8877   -7.9533  146.6960 F   0  0  0  0  0  0  0  0  0  0  0  0
  -21.6324  -11.6157  147.7030 C   0  0  0  0  0  0  0  0  0  0  0  0
  -23.0390  -12.9480  150.9615 N   0  0  0  0  0  0  0  0  0  0  0  0
  -18.5045   -7.2278  144.4815 O   0  0  0  0  0  0  0  0  0  0  0  0
  3  2  2  3
  5  4  1  0
  7  1  1  0
  7  4  1  0
  7  6  1  0
  8  4  1  0
  9  1  1  0
  9  2  1  0
 10  3  1  0
 11  5  1  0
M  END
$$$$

     RDKit          3D

 11 10  0  0  0  0  0  0  0  0999 V2000
  -27.2233   -4.9378  139.3965 O   0  0  0  0  0  0  0  0  0  0  0  0
  -28.3524   -4.4369  139.1522 C   0  0  0  0  0  0  0  0  0  0  0  0
  -29.4662   -4.8991  139.8475 O   0  0  0  0  0  0  0  0  0  0  0  0
  -28.3347   -1.9140  138.6783 C   0  0  0  0  0  0  0  0  0  0  0  0
  -30.8373   -1.4272  139.0106 C   0  0  0  0  0  0  0  0  0  0  0  0
  -26.9477   -1.6311  139.3178 C   0  0  0  0  0  0  0  0  0  0  0  0
  -25.7771   -1.8718  138.3604 C   0  0  0  0  0  0  0  0  0  0  0  0
  -29.4623   -1.5370  139.6728 C   0  0  0  0  0  0  0  0  0  0  0  0
  -28.4843   -3.3552  138.1156 C   0  0  0  0  0  0  0  0  0  0  0  0
  -24.6108   -1.3830  138.9207 F   0  0  0  0  0  0  0  0  0  0  0  0
  -26.7696   -2.3801  140.4691 F   0  0  0  0  0  0  0  0  0  0  0  0
  2  1  2  0
  3  2  1  0
  6  4  1  0
  7  6  1  0
  8  4  1  0
  8  5  1  0
  9  2  1  0
  9  4  1  0
 10  7  1  0
 11  6  1  0
M  END
$$$$

     RDKit          3D

 10 11  0  0  0  0  0  0  0  0999 V2000
  -27.2755    0.4965  142.2852 C   0  0  0  0  0  0  0  0  0  0  0  0
  -26.5844    1.8461  142.3337 C   0  0  0  0  0  0  0  0  0  0  0  0
  -27.5303    1.5561  141.1873 C   0  0  0  0  0  0  0  0  0  0  0  0
  -28.6106    0.5694  141.5659 C   0  0  0  0  0  0  0  0  0  0  0  0
  -26.3600   -0.6591  141.8064 C   0  0  0  0  0  0  0  0  0  0  0  0
  -26.3952   -1.7309  144.0224 N   0  0  0  0  0  0  0  0  0  0  0  0
  -25.7132   -1.9278  145.3151 C   0  0  0  0  0  0  0  0  0  0  0  0
  -24.3589   -3.2371  145.2427 Si  0  0  0  0  0  4  0  0  0  0  0  0
  -25.1758   -0.7217  145.7879 O   0  0  0  0  0  0  0  0  0  0  0  0
  -25.5198   -1.1883  142.9704 C   0  0  0  0  0  0  0  0  0  0  0  0
  2  1  1  0
  3  1  1  0
  3  2  1  0
  4  1  1  0
  4  3  1  0
  5  1  1  0
  7  6  1  0
  8  7  1  0
  9  7  1  0
 10  5  1  0
 10  6  1  0
M  END
$$$$

     RDKit          3D

 11 12  0  0  0  0  0  0  0  0999 V2000
  -17.3917   -6.3076  142.1134 F   0  0  0  0  0  0  0  0  0  0  0  0
  -18.3533   -5.3751  142.4565 C   0  0  0  0  0  0  0  0  0  0  0  0
  -17.9922   -3.9851  141.8669 C   0  0  0  0  0  0  0  0  0  0  0  0
  -18.3380   -5.1278  143.9822 C   0  0  0  0  0  0  0  0  0  0  0  0
  -17.8090   -3.1175  142.9600 N   0  0  0  0  0  0  0  0  0  0  0  0
  -17.5246   -1.8794  143.6630 C   0  0  0  0  0  0  0  0  0  0  0  0
  -16.1922   -1.4961  143.4600 O   0  0  0  0  0  0  0  0  0  0  0  0
  -18.5864   -5.9838  144.9176 N   0  0  0  0  0  0  0  0  0  0  0  0
  -18.0086   -3.7788  144.1856 N   0  0  0  0  0  0  0  0  0  0  0  0
  -17.8791   -3.6438  140.5896 C   0  0  0  0  0  0  0  0  0  0  0  0
  -17.7255   -2.5502  144.9079 C   0  0  0  0  0  0  0  0  0  0  0  0
  2  1  1  0
  3  2  1  0
  4  2  1  0
  5  3  1  0
  6  5  1  0
  7  6  1  0
  8  4  2  0
  9  4  1  0
  9  5  1  0
 10  3  2  0
 11  6  1  0
 11  9  1  0
M  END
$$$$

     RDKit          3D

 11 12  0  0  0  0  0  0  0  0999 V2000
  -26.8369  -10.7322  142.4244 F   0  0  0  0  0  0  0  0  0  0  0  0
  -27.1815  -11.8990  143.0905 C   0  0  0  0  0  0  0  0  0  0  0  0
  -27.0954  -13.0862  142.3871 F   0  0  0  0  0  0  0  0  0  0  0  0
  -28.1615  -11.9012  144.2978 C   0  0  0  0  0  0  0  0  0  0  0  0
  -28.5641  -10.6544  145.1603 C   0  0  0  0  0  0  0  0  0  0  0  0
  -26.6118  -11.9693  144.4496 C   0  0  0  0  0  0  0  0  0  0  0  0
  -27.7590   -9.3306  145.2266 C   0  0  0  0  0  0  0  0  0  0  0  0
  -28.6640   -8.1013  145.4305 C   0  0  0  0  0  0  0  0  0  0  0  0
  -28.5553   -8.0143  147.9849 C   0  0  0  0  0  0  0  0  0  0  0  0
  -29.2213  -10.8603  143.8454 C   0  0  0  0  0  0  0  0  0  0  0  0
  -29.4544   -8.0895  146.7514 C   0  0  0  0  0  0  0  0  0  0  0  0
  2  1  1  0
  3  2  1  0
  4  2  1  0
  5  4  1  0
  6  2  1  0
  6  4  1  0
  7  5  1  0
  8  7  1  0
 10  4  1  0
 10  5  1  0
 11  8  1  0
 11  9  1  0
M  END
$$$$

     RDKit          3D

 11 11  0  0  0  0  0  0  0  0999 V2000
  -26.2077  -24.9116  139.5039 O   0  0  0  0  0  0  0  0  0  0  0  0
  -26.0542  -24.9416  138.1101 C   0  0  0  0  0  0  0  0  0  0  0  0
  -26.9061  -23.9752  137.5524 O   0  0  0  0  0  0  0  0  0  0  0  0
  -26.2226  -26.5000  136.0701 C   0  0  0  0  0  0  0  0  0  0  0  0
  -24.7655  -26.4366  135.6868 C   0  0  0  0  0  0  0  0  0  0  0  0
  -23.9205  -27.5307  135.9393 C   0  0  0  0  0  0  0  0  0  0  0  0
  -26.4304  -26.3391  137.5850 C   0  0  0  0  0  0  0  0  0  0  0  0
  -24.2319  -25.2773  135.0980 C   0  0  0  0  0  0  0  0  0  0  0  0
  -22.5648  -27.4666  135.6032 C   0  0  0  0  0  0  0  0  0  0  0  0
  -22.0426  -26.3111  135.0158 C   0  0  0  0  0  0  0  0  0  0  0  0
  -22.8754  -25.2175  134.7638 C   0  0  0  0  0  0  0  0  0  0  0  0
  2  1  1  0
  3  2  1  0
  5  4  1  0
  6  5  4  0
  7  2  1  0
  7  4  1  0
  8  5  4  0
  9  6  4  0
 10  9  4  0
 11  8  4  0
 11 10  4  0
M  END
$$$$

     RDKit          3D

 11 12  0  0  0  0  0  0  0  0999 V2000
  -26.0122  -23.8912  140.9524 O   0  0  0  0  0  0  0  0  0  0  0  0
  -26.5285  -24.1764  142.2299 C   0  0  0  0  0  0  0  0  0  0  0  0
  -26.0056  -23.2946  143.1773 O   0  0  0  0  0  0  0  0  0  0  0  0
  -27.3570  -23.5339  141.1839 C   0  0  0  0  0  0  0  0  0  0  0  0
  -28.3050  -24.4436  140.4561 C   0  0  0  0  0  0  0  0  0  0  0  0
  -29.3432  -24.9742  141.1215 C   0  0  0  0  0  0  0  0  0  0  0  0
  -30.3602  -25.8691  140.5264 C   0  0  0  0  0  0  0  0  0  0  0  0
  -30.1437  -26.7611  139.5466 C   0  0  0  0  0  0  0  0  0  0  0  0
  -28.8519  -27.0006  138.8687 C   0  0  0  0  0  0  0  0  0  0  0  0
  -27.9377  -26.0567  138.6294 C   0  0  0  0  0  0  0  0  0  0  0  0
  -28.1556  -24.6173  138.9709 C   0  0  0  0  0  0  0  0  0  0  0  0
  2  1  1  0
  3  2  1  0
  4  1  1  0
  4  2  1  0
  5  4  1  0
  6  5  2  0
  7  6  1  0
  8  7  2  0
  9  8  1  0
 10  9  2  0
 11  5  1  0
 11 10  1  0
M  END
$$$$

     RDKit          3D

 11 11  0  0  0  0  0  0  0  0999 V2000
  -22.8494  -10.6615  140.5544 O   0  0  0  0  0  0  0  0  0  0  0  0
  -22.9490   -9.2776  140.3732 C   0  0  0  0  0  0  0  0  0  0  0  0
  -22.5589   -8.4733  141.4481 O   0  0  0  0  0  0  0  0  0  0  0  0
  -24.2580   -8.8500  139.7411 C   0  0  0  0  0  0  0  0  0  0  0  0
  -22.9559   -8.7540  138.9322 C   0  0  0  0  0  0  0  0  0  0  0  0
  -22.6069   -7.2916  138.5046 C   0  0  0  0  0  0  0  0  0  0  0  0
  -21.5953   -7.3239  137.3139 C   0  0  0  0  0  0  0  0  0  0  0  0
  -21.5698   -6.0057  136.5174 C   0  0  0  0  0  0  0  0  0  0  0  0
  -22.1569   -6.3585  139.6434 C   0  0  0  0  0  0  0  0  0  0  0  0
  -19.1440   -6.7732  138.0452 C   0  0  0  0  0  0  0  0  0  0  0  0
  -20.1791   -7.8489  137.6943 C   0  0  0  0  0  0  0  0  0  0  0  0
  2  1  1  0
  3  2  1  0
  4  2  1  0
  5  2  1  0
  5  4  1  0
  6  5  1  0
  7  6  1  0
  8  7  1  0
  9  6  1  0
 11  7  1  0
 11 10  1  0
M  END
$$$$

     RDKit          3D

 11 10  0  0  0  0  0  0  0  0999 V2000
  -24.5124    1.5795  140.1808 N   0  0  0  0  0  0  0  0  0  0  0  0
  -24.4817    2.8804  140.1244 C   0  0  0  0  0  0  0  0  0  0  0  0
  -23.2614    3.5935  140.3947 N   0  0  0  0  0  0  0  0  0  0  0  0
  -25.6766    3.6051  139.7654 N   0  0  0  0  0  0  0  0  0  0  0  0
  -23.3903    0.7856  140.4668 N   0  0  0  0  0  0  0  0  0  0  0  0
  -25.5817    4.9936  139.3028 C   0  0  0  0  0  0  0  0  0  0  0  0
  -22.3448    3.9022  139.2980 C   0  0  0  0  0  0  0  0  0  0  0  0
  -22.9457    4.0248  141.7615 C   0  0  0  0  0  0  0  0  0  0  0  0
  -23.9733    4.8501  142.2421 O   0  0  0  0  0  0  0  0  0  0  0  0
  -22.8184    2.8987  142.5887 O   0  0  0  0  0  0  0  0  0  0  0  0
  -26.9779    2.9300  139.8135 C   0  0  0  0  0  0  0  0  0  0  0  0
  2  1  2  3
  3  2  1  0
  4  2  1  0
  5  1  1  0
  6  4  1  0
  7  3  1  0
  8  3  1  0
  9  8  1  0
 10  8  1  0
 11  4  1  0
M  END
$$$$

     RDKit          3D

 10 12  0  0  0  0  0  0  0  0999 V2000
  -32.9152   -7.9043  144.1413 N   0  0  0  0  0  0  0  0  0  0  0  0
  -31.8078   -7.5162  143.2333 C   0  0  0  0  0  0  0  0  0  0  0  0
  -33.0218   -7.0195  145.3093 C   0  0  0  0  0  0  0  0  0  0  0  0
  -34.3404   -6.4792  144.9782 N   0  0  0  0  0  0  0  0  0  0  0  0
  -31.5447   -8.6617  142.2485 C   0  0  0  0  0  0  0  0  0  0  0  0
  -33.3118   -6.2304  141.6673 C   0  0  0  0  0  0  0  0  0  0  0  0
  -34.4437   -5.3067  142.0944 C   0  0  0  0  0  0  0  0  0  0  0  0
  -34.2589   -7.3890  143.8328 C   0  0  0  0  0  0  0  0  0  0  0  0
  -32.0334   -6.1813  142.4994 C   0  0  0  0  0  0  0  0  0  0  0  0
  -34.5140   -6.8057  142.4036 C   0  0  0  0  0  0  0  0  0  0  0  0
  2  1  1  0
  3  1  1  0
  4  3  1  0
  5  2  1  0
  7  6  1  0
  8  1  1  0
  8  4  1  0
  9  2  1  0
  9  6  1  0
 10  6  1  0
 10  7  1  0
 10  8  1  0
M  END
$$$$

     RDKit          3D

 11 12  0  0  0  0  0  0  0  0999 V2000
  -26.9392   -6.9274  148.7642 O   0  0  0  0  0  0  0  0  0  0  0  0
  -28.3412   -6.9273  149.0604 C   0  0  0  0  0  0  0  0  0  0  0  0
  -28.6616   -5.7316  149.7833 O   0  0  0  0  0  0  0  0  0  0  0  0
  -28.6691   -6.9130  150.5596 C   0  0  0  0  0  0  0  0  0  0  0  0
  -29.8675   -7.2843  150.9456 F   0  0  0  0  0  0  0  0  0  0  0  0
  -27.6820   -6.7822  151.5058 F   0  0  0  0  0  0  0  0  0  0  0  0
  -30.4167   -3.2345  145.2395 C   0  0  0  0  0  0  0  0  0  0  0  0
  -29.6578   -4.5810  145.4816 C   0  0  0  0  0  0  0  0  0  0  0  0
  -29.6833   -4.8998  147.4172 P   0  0  0  0  0  0  0  0  0  0  0  0
  -30.6600   -6.5479  147.7499 C   0  0  0  0  0  0  0  0  0  0  0  0
  -29.2184   -6.7533  147.7183 C   0  0  0  0  0  0  0  0  0  0  0  0
  2  1  1  0
  3  2  1  0
  4  2  1  0
  4  3  1  0
  5  4  1  0
  6  4  1  0
  8  7  1  0
  9  8  1  0
 10  9  1  0
 11  2  1  0
 11  9  1  0
 11 10  1  0
M  END
$$$$

     RDKit          3D

 11 13  0  0  0  0  0  0  0  0999 V2000
  -22.8526  -23.5732  133.8906 O   0  0  0  0  0  0  0  0  0  0  0  0
  -21.6625  -23.8214  133.2016 C   0  0  0  0  0  0  0  0  0  0  0  0
  -21.0528  -22.5976  132.9142 O   0  0  0  0  0  0  0  0  0  0  0  0
  -20.7815  -24.7646  133.9765 C   0  0  0  0  0  0  0  0  0  0  0  0
  -21.3538  -25.2852  135.2125 N   0  0  0  0  0  0  0  0  0  0  0  0
  -20.4666  -23.2835  133.9922 C   0  0  0  0  0  0  0  0  0  0  0  0
  -23.3016  -27.4781  135.9500 S   0  0  0  0  0  4  0  0  0  0  0  0
  -20.7797  -28.9787  134.4596 O   0  0  0  0  0  0  0  0  0  0  0  0
  -23.5237  -26.7578  132.3404 O   0  0  0  0  0  0  0  0  0  0  0  0
  -18.8306  -26.3288  133.9415 C   0  0  0  0  0  0  0  0  0  0  0  0
  -19.9615  -25.7332  133.1186 C   0  0  0  0  0  0  0  0  0  0  0  0
  2  1  1  0
  3  2  1  0
  4  2  1  0
  5  4  1  0
  6  2  1  0
  6  3  1  0
  6  4  1  0
  7  5  1  0
  8  7  1  0
  9  7  1  0
 10  7  1  0
 11  4  1  0
 11 10  1  0
M  END
$$$$

     RDKit          3D

 10 11  0  0  0  0  0  0  0  0999 V2000
  -23.2027   -5.4086  137.9588 C   0  0  0  0  0  0  0  0  0  0  0  0
  -22.2028   -2.1750  138.0057 C   0  0  0  0  0  0  0  0  0  0  0  0
  -21.6145   -3.8713  136.2435 Mg  0  0  0  0  0  2  0  0  0  0  0  0
  -22.6786   -2.0571  136.5491 C   0  0  0  0  0  0  0  0  0  0  0  0
  -22.6422   -0.8488  137.4999 C   0  0  0  0  0  0  0  0  0  0  0  0
  -23.1248   -3.0017  138.9202 C   0  0  0  0  0  0  0  0  0  0  0  0
  -21.0446   -5.8887  136.6537 C   0  0  0  0  0  0  0  0  0  0  0  0
  -22.6147   -4.4604  139.0351 C   0  0  0  0  0  0  0  0  0  0  0  0
  -22.2244   -6.4980  137.4383 C   0  0  0  0  0  0  0  0  0  0  0  0
  -21.7438   -7.4294  138.5585 C   0  0  0  0  0  0  0  0  0  0  0  0
  4  2  1  0
  4  3  1  0
  5  2  1  0
  5  4  1  0
  6  2  1  0
  7  3  1  0
  8  1  1  0
  8  6  1  0
  9  1  1  0
  9  7  1  0
 10  9  1  0
M  END
$$$$

     RDKit          3D

 11 13  0  0  0  0  0  0  0  0999 V2000
  -25.1277    0.5260  141.1224 O   0  0  0  0  0  0  0  0  0  0  0  0
  -24.7333    0.7147  139.7778 C   0  0  0  0  0  0  0  0  0  0  0  0
  -24.8863   -0.7323  141.4433 O   0  0  0  0  0  0  0  0  0  0  0  0
  -23.6073    1.7165  140.1476 C   0  0  0  0  0  0  0  0  0  0  0  0
  -23.7025    1.3760  138.7825 C   0  0  0  0  0  0  0  0  0  0  0  0
  -22.5099    0.6219  138.1549 C   0  0  0  0  0  0  0  0  0  0  0  0
  -23.4496    3.3158  139.0181 Se  0  0  0  0  0  2  0  0  0  0  0  0
  -22.1738   -1.2018  139.9216 C   0  0  0  0  0  0  0  0  0  0  0  0
  -22.5175   -0.8782  138.4628 C   0  0  0  0  0  0  0  0  0  0  0  0
  -22.3496    1.2674  140.9689 C   0  0  0  0  0  0  0  0  0  0  0  0
  -21.5209   -0.0450  140.7072 C   0  0  0  0  0  0  0  0  0  0  0  0
  2  1  1  0
  3  1  1  0
  4  2  1  0
  5  2  1  0
  5  4  1  0
  6  5  1  0
  7  4  1  0
  7  5  1  0
  9  6  1  0
  9  8  1  0
 10  4  1  0
 11  8  1  0
 11 10  1  0
M  END
$$$$

     RDKit          3D

 11 11  0  0  0  0  0  0  0  0999 V2000
  -33.3226   -0.2448  133.4608 O   0  0  0  0  0  0  0  0  0  0  0  0
  -33.7853   -1.5652  133.3337 C   0  0  0  0  0  0  0  0  0  0  0  0
  -32.7535   -2.3830  132.8497 O   0  0  0  0  0  0  0  0  0  0  0  0
  -34.9802   -1.6704  132.3716 C   0  0  0  0  0  0  0  0  0  0  0  0
  -36.0097   -0.5529  132.4623 C   0  0  0  0  0  0  0  0  0  0  0  0
  -35.0673    2.7878  134.8943 N   0  0  0  0  0  0  0  0  0  0  0  0
  -35.7463    4.0344  134.7658 C   0  0  0  0  0  0  0  0  0  0  0  0
  -35.0812   -0.6381  131.2577 C   0  0  0  0  0  0  0  0  0  0  0  0
  -35.3847    5.0167  135.4667 O   0  0  0  0  0  0  0  0  0  0  0  0
  -35.5377    1.1524  133.7165 Mg  0  0  0  0  0  2  0  0  0  0  0  0
  -36.8870    4.1775  133.8118 C   0  0  0  0  0  0  0  0  0  0  0  0
  2  1  1  0
  3  2  1  0
  4  2  1  0
  5  4  1  0
  7  6  1  0
  8  4  1  0
  8  5  1  0
  9  7  2  0
 10  5  1  0
 10  6  1  0
 11  7  1  0
M  END
$$$$

     RDKit          3D

 11 11  0  0  0  0  0  0  0  0999 V2000
  -19.2712  -11.7124  136.1292 O   0  0  0  0  0  0  0  0  0  0  0  0
  -19.4147  -10.3472  135.8576 C   0  0  0  0  0  0  0  0  0  0  0  0
  -20.6930   -9.8864  135.5213 O   0  0  0  0  0  0  0  0  0  0  0  0
  -18.4067   -9.3914  136.4842 C   0  0  0  0  0  0  0  0  0  0  0  0
  -18.8277   -7.9277  136.7155 C   0  0  0  0  0  0  0  0  0  0  0  0
  -20.2500   -8.2455  140.3660 C   0  0  0  0  0  0  0  0  0  0  0  0
  -18.3041   -9.7680  135.0023 C   0  0  0  0  0  0  0  0  0  0  0  0
  -19.0379   -7.6078  138.2131 C   0  0  0  0  0  0  0  0  0  0  0  0
  -17.8676   -7.9310  138.9241 O   0  0  0  0  0  0  0  0  0  0  0  0
  -20.2583   -8.3485  138.8315 C   0  0  0  0  0  0  0  0  0  0  0  0
  -21.5901   -7.7884  138.3023 C   0  0  0  0  0  0  0  0  0  0  0  0
  2  1  1  0
  3  2  1  0
  4  2  1  0
  5  4  1  0
  7  2  1  0
  7  4  1  0
  8  5  1  0
  9  8  1  0
 10  6  1  0
 10  8  1  0
 11 10  1  0
M  END
$$$$

     RDKit          3D

 11 15  0  0  0  0  0  0  0  0999 V2000
  -24.9342  -17.9703  136.9962 O   0  0  0  0  0  0  0  0  0  0  0  0
  -25.3743  -18.4662  135.7529 C   0  0  0  0  0  0  0  0  0  0  0  0
  -26.2305  -17.5559  135.1241 O   0  0  0  0  0  0  0  0  0  0  0  0
  -25.8613  -19.0318  137.0339 C   0  0  0  0  0  0  0  0  0  0  0  0
  -27.2252  -18.5558  137.5344 C   0  0  0  0  0  0  0  0  0  0  0  0
  -27.8173  -19.4196  138.6269 C   0  0  0  0  0  0  0  0  0  0  0  0
  -29.2209  -19.1014  139.1216 C   0  0  0  0  0  0  0  0  0  0  0  0
  -28.3610  -19.5130  137.1989 C   0  0  0  0  0  0  0  0  0  0  0  0
  -29.9380  -17.9060  138.5417 C   0  0  0  0  0  0  0  0  0  0  0  0
  -30.2948  -17.9642  137.0789 C   0  0  0  0  0  0  0  0  0  0  0  0
  -29.7764  -19.2284  137.7227 C   0  0  0  0  0  0  0  0  0  0  0  0
  2  1  1  0
  3  2  1  0
  4  1  1  0
  4  2  1  0
  5  4  1  0
  6  5  1  0
  7  6  1  0
  8  5  1  0
  8  6  1  0
  9  7  1  0
 10  9  1  0
 11  7  1  0
 11  8  1  0
 11  9  1  0
 11 10  1  0
M  END
$$$$

     RDKit          3D

 11 11  0  0  0  0  0  0  0  0999 V2000
  -30.8474   -1.6315  135.3825 O   0  0  0  0  0  0  0  0  0  0  0  0
  -31.2156   -2.2182  136.6105 C   0  0  0  0  0  0  0  0  0  0  0  0
  -31.8253   -1.2816  137.4489 O   0  0  0  0  0  0  0  0  0  0  0  0
  -29.8047   -1.9147  136.2880 C   0  0  0  0  0  0  0  0  0  0  0  0
  -28.9532   -3.1050  135.8309 C   0  0  0  0  0  0  0  0  0  0  0  0
  -27.8307   -2.6660  134.8760 C   0  0  0  0  0  0  0  0  0  0  0  0
  -26.6564   -1.9724  135.5938 C   0  0  0  0  0  0  0  0  0  0  0  0
  -24.3982   -3.2163  135.5567 C   0  0  0  0  0  0  0  0  0  0  0  0
  -23.2731   -4.3193  133.5846 C   0  0  0  0  0  0  0  0  0  0  0  0
  -25.7139   -2.9647  136.3122 C   0  0  0  0  0  0  0  0  0  0  0  0
  -24.6078   -3.9700  134.2364 C   0  0  0  0  0  0  0  0  0  0  0  0
  2  1  1  0
  3  2  1  0
  4  1  1  0
  4  2  1  0
  5  4  1  0
  6  5  1  0
  7  6  1  0
 10  7  1  0
 10  8  1  0
 11  8  1  0
 11  9  1  0
M  END
$$$$

     RDKit          3D

 11 12  0  0  0  0  0  0  0  0999 V2000
  -27.3449   -3.6256  138.1888 C   0  0  0  0  0  0  0  0  0  0  0  0
  -26.5314   -2.6403  138.7554 O   0  0  0  0  0  0  0  0  0  0  0  0
  -28.1100   -3.2890  137.2483 O   0  0  0  0  0  0  0  0  0  0  0  0
  -27.1524   -5.0901  138.5539 C   0  0  0  0  0  0  0  0  0  0  0  0
  -26.3594   -5.2069  139.8807 C   0  0  0  0  0  0  0  0  0  0  0  0
  -28.4065   -6.0175  138.6069 C   0  0  0  0  0  0  0  0  0  0  0  0
  -29.3054   -6.0622  137.3795 C   0  0  0  0  0  0  0  0  0  0  0  0
  -29.8017   -5.4097  138.6658 C   0  0  0  0  0  0  0  0  0  0  0  0
  -25.2065   -4.2892  139.8638 N   0  0  0  0  0  0  0  0  0  0  0  0
  -27.2380   -5.0120  141.1392 C   0  0  0  0  0  0  0  0  0  0  0  0
  -25.6298   -2.8841  139.8320 C   0  0  0  0  0  0  0  0  0  0  0  0
  2  1  1  0
  3  1  2  0
  4  1  1  0
  5  4  1  0
  6  4  1  0
  7  6  1  0
  8  6  1  0
  8  7  1  0
  9  5  1  0
 10  5  1  0
 11  2  1  0
 11  9  1  0
M  END
$$$$

     RDKit          3D

 11 11  0  0  0  0  0  0  0  0999 V2000
  -32.5989   -3.1766  139.1788 O   0  0  0  0  0  0  0  0  0  0  0  0
  -33.4420   -4.3210  138.9420 C   0  0  0  0  0  0  0  0  0  0  0  0
  -33.3376   -3.1527  139.4080 O   0  0  0  0  0  0  0  0  0  0  0  0
  -31.1494   -3.1728  138.7078 C   0  0  0  0  0  0  0  0  0  0  0  0
  -33.9619   -4.6263  137.5678 C   0  0  0  0  0  0  0  0  0  0  0  0
  -34.1816   -6.1178  137.3751 C   0  0  0  0  0  0  0  0  0  0  0  0
  -35.2135   -6.2099  136.2533 C   0  0  0  0  0  0  0  0  0  0  0  0
  -36.0915   -4.9614  136.4066 C   0  0  0  0  0  0  0  0  0  0  0  0
  -35.3224   -3.9850  137.2978 C   0  0  0  0  0  0  0  0  0  0  0  0
  -35.1846   -8.7446  136.0051 C   0  0  0  0  0  0  0  0  0  0  0  0
  -36.0395   -7.5111  136.2919 C   0  0  0  0  0  0  0  0  0  0  0  0
  2  1  1  0
  3  2  2  0
  4  1  1  0
  5  2  1  0
  6  5  1  0
  7  6  1  0
  8  7  1  0
  9  5  1  0
  9  8  1  0
 11  7  1  0
 11 10  1  0
M  END
$$$$

     RDKit          3D

 11 12  0  0  0  0  0  0  0  0999 V2000
  -27.3659  -17.5140  149.7323 N   0  0  0  0  0  0  0  0  0  0  0  0
  -26.8056  -17.2542  151.0805 C   0  0  0  0  0  0  0  0  0  0  0  0
  -27.6703  -16.5441  152.0292 N   0  0  0  0  0  0  0  0  0  0  0  0
  -25.6346  -18.1402  151.5507 C   0  0  0  0  0  0  0  0  0  0  0  0
  -26.0404  -19.6310  151.5602 C   0  0  0  0  0  0  0  0  0  0  0  0
  -24.6116  -17.8405  150.4967 C   0  0  0  0  0  0  0  0  0  0  0  0
  -24.9356  -20.5265  152.0592 C   0  0  0  0  0  0  0  0  0  0  0  0
  -24.0297  -21.0574  151.2332 C   0  0  0  0  0  0  0  0  0  0  0  0
  -25.0016  -16.9585  149.6555 N   0  0  0  0  0  0  0  0  0  0  0  0
  -26.3271  -16.4804  149.9433 C   0  0  0  0  0  0  0  0  0  0  0  0
  -25.1348  -17.7204  152.8660 N   0  0  0  0  0  0  0  0  0  0  0  0
  2  1  1  0
  3  2  1  0
  4  2  1  0
  5  4  1  0
  6  4  1  0
  7  5  1  0
  8  7  2  0
  9  6  2  0
 10  1  1  0
 10  2  1  0
 10  9  1  0
 11  4  1  0
M  END
$$$$

     RDKit          3D

 11 15  0  0  0  0  0  0  0  0999 V2000
  -24.1918  -10.1000  142.0561 C   0  0  0  0  0  0  0  0  0  0  0  0
  -24.8144   -9.7391  140.6553 C   0  0  0  0  0  0  0  0  0  0  0  0
  -22.8221   -9.4391  142.4939 C   0  0  0  0  0  0  0  0  0  0  0  0
  -21.6830   -8.9598  141.5240 C   0  0  0  0  0  0  0  0  0  0  0  0
  -23.6510   -8.3104  143.0821 C   0  0  0  0  0  0  0  0  0  0  0  0
  -23.8017   -8.9474  139.9509 C   0  0  0  0  0  0  0  0  0  0  0  0
  -22.0893   -7.7528  140.6030 C   0  0  0  0  0  0  0  0  0  0  0  0
  -24.8738   -9.2279  143.1097 C   0  0  0  0  0  0  0  0  0  0  0  0
  -24.9802   -8.2468  140.2028 C   0  0  0  0  0  0  0  0  0  0  0  0
  -23.8404   -7.2212  142.0948 N   0  0  0  0  0  0  0  0  0  0  0  0
  -23.6211   -7.5250  140.6382 C   0  0  0  0  0  0  0  0  0  0  0  0
  2  1  1  0
  3  1  1  0
  4  3  1  0
  5  3  1  0
  6  2  1  0
  7  4  1  0
  8  1  1  0
  8  5  1  0
  9  2  1  0
  9  6  1  0
 10  5  1  0
 11  6  1  0
 11  7  1  0
 11  9  1  0
 11 10  1  0
M  END
$$$$

     RDKit          3D

 11 13  0  0  0  0  0  0  0  0999 V2000
  -25.2729   -8.6458  154.6438 N   0  0  0  0  0  0  0  0  0  0  0  0
  -25.6049   -9.5347  153.7595 C   0  0  0  0  0  0  0  0  0  0  0  0
  -24.9496  -10.8062  153.7816 N   0  0  0  0  0  0  0  0  0  0  0  0
  -26.7316   -9.2580  152.7669 C   0  0  0  0  0  0  0  0  0  0  0  0
  -28.1817   -9.4647  153.2945 C   0  0  0  0  0  0  0  0  0  0  0  0
  -28.4368   -9.6180  154.7909 C   0  0  0  0  0  0  0  0  0  0  0  0
  -28.4688  -10.8393  153.8858 C   0  0  0  0  0  0  0  0  0  0  0  0
  -26.5800   -7.9133  152.0474 C   0  0  0  0  0  0  0  0  0  0  0  0
  -26.4279   -8.6188  150.7111 C   0  0  0  0  0  0  0  0  0  0  0  0
  -25.3129   -9.6327  150.6037 C   0  0  0  0  0  0  0  0  0  0  0  0
  -26.5402   -9.9772  151.4243 C   0  0  0  0  0  0  0  0  0  0  0  0
  2  1  2  0
  3  2  1  0
  4  2  1  0
  5  4  1  0
  6  5  1  0
  7  5  1  0
  7  6  1  0
  8  4  1  0
  9  8  1  0
 10  9  1  0
 11  4  1  0
 11  9  1  0
 11 10  1  0
M  END
$$$$

     RDKit          3D

 11 14  0  0  0  0  0  0  0  0999 V2000
  -22.7059   -6.7014  147.1284 C   0  0  0  0  0  0  0  0  0  0  0  0
  -21.1794   -6.8101  147.3581 C   0  0  0  0  0  0  0  0  0  0  0  0
  -23.5340   -7.5036  144.8482 C   0  0  0  0  0  0  0  0  0  0  0  0
  -23.1272   -6.2844  145.6899 C   0  0  0  0  0  0  0  0  0  0  0  0
  -24.2854   -5.2787  145.7314 C   0  0  0  0  0  0  0  0  0  0  0  0
  -20.4714   -5.4771  147.3022 C   0  0  0  0  0  0  0  0  0  0  0  0
  -20.5233   -7.8241  146.4006 C   0  0  0  0  0  0  0  0  0  0  0  0
  -19.2071   -8.3946  146.5271 C   0  0  0  0  0  0  0  0  0  0  0  0
  -19.8721   -7.9359  145.0928 C   0  0  0  0  0  0  0  0  0  0  0  0
  -19.1431   -7.0461  145.9446 C   0  0  0  0  0  0  0  0  0  0  0  0
  -19.5483   -5.5886  146.1346 C   0  0  0  0  0  0  0  0  0  0  0  0
  2  1  1  0
  4  1  1  0
  4  3  1  0
  5  4  1  0
  6  2  1  0
  7  2  1  0
  8  7  1  0
  9  7  1  0
  9  8  1  0
 10  7  1  0
 10  8  1  0
 10  9  1  0
 11  6  1  0
 11 10  1  0
M  END
$$$$

     RDKit          3D

 11 12  0  0  0  0  0  0  0  0999 V2000
  -27.3014  -17.5630  136.9007 O   0  0  0  0  0  0  0  0  0  0  0  0
  -28.3911  -16.7195  137.2013 C   0  0  0  0  0  0  0  0  0  0  0  0
  -29.4545  -17.4466  137.7467 O   0  0  0  0  0  0  0  0  0  0  0  0
  -28.0236  -17.0513  135.8026 C   0  0  0  0  0  0  0  0  0  0  0  0
  -28.8272  -18.1467  135.0837 C   0  0  0  0  0  0  0  0  0  0  0  0
  -28.0628  -18.7135  133.8793 C   0  0  0  0  0  0  0  0  0  0  0  0
  -28.0313  -17.7345  132.6924 C   0  0  0  0  0  0  0  0  0  0  0  0
  -27.3922  -18.3526  131.4412 C   0  0  0  0  0  0  0  0  0  0  0  0
  -24.9987  -17.3736  131.3327 C   0  0  0  0  0  0  0  0  0  0  0  0
  -25.8823  -18.5768  131.6245 C   0  0  0  0  0  0  0  0  0  0  0  0
  -25.0637  -18.5268  130.3430 C   0  0  0  0  0  0  0  0  0  0  0  0
  2  1  1  0
  3  2  1  0
  4  1  1  0
  4  2  1  0
  5  4  1  0
  6  5  1  0
  7  6  1  0
  8  7  1  0
 10  8  1  0
 10  9  1  0
 11  9  1  0
 11 10  1  0
M  END
$$$$

     RDKit          3D

 11 12  0  0  0  0  0  0  0  0999 V2000
  -23.4532   -5.7301  138.7849 O   0  0  0  0  0  0  0  0  0  0  0  0
  -24.0239   -4.5428  138.2830 C   0  0  0  0  0  0  0  0  0  0  0  0
  -23.7327   -4.3744  136.7680 C   0  0  0  0  0  0  0  0  0  0  0  0
  -23.4064   -2.8735  136.5582 C   0  0  0  0  0  0  0  0  0  0  0  0
  -23.3417   -3.3450  138.9644 C   0  0  0  0  0  0  0  0  0  0  0  0
  -25.5525   -4.5594  138.5764 C   0  0  0  0  0  0  0  0  0  0  0  0
  -21.8672   -1.8494  137.4503 C   0  0  0  0  0  0  0  0  0  0  0  0
  -26.2243   -3.3610  138.0733 N   0  0  0  0  0  0  0  0  0  0  0  0
  -22.0315   -2.5196  136.1604 N   0  0  0  0  0  0  0  0  0  0  0  0
  -22.6844   -5.2190  136.3615 O   0  0  0  0  0  0  0  0  0  0  0  0
  -23.2647   -2.2300  137.9191 C   0  0  0  0  0  0  0  0  0  0  0  0
  2  1  1  0
  3  2  1  0
  4  3  1  0
  5  2  1  0
  6  2  1  0
  8  6  1  0
  9  4  1  0
  9  7  1  0
 10  3  1  0
 11  4  1  0
 11  5  1  0
 11  7  1  0
M  END
$$$$

     RDKit          3D

 11 15  0  0  0  0  0  0  0  0999 V2000
  -29.0179  -18.7229  137.2932 O   0  0  0  0  0  0  0  0  0  0  0  0
  -28.1614  -18.9528  136.2005 C   0  0  0  0  0  0  0  0  0  0  0  0
  -28.8777  -18.8987  135.0041 O   0  0  0  0  0  0  0  0  0  0  0  0
  -28.1235  -17.6845  136.9616 C   0  0  0  0  0  0  0  0  0  0  0  0
  -27.5942  -16.6297  139.0064 C   0  0  0  0  0  0  0  0  0  0  0  0
  -26.1712  -16.4606  138.6120 C   0  0  0  0  0  0  0  0  0  0  0  0
  -26.9761  -17.5974  137.9740 C   0  0  0  0  0  0  0  0  0  0  0  0
  -25.7298  -15.3957  137.6278 C   0  0  0  0  0  0  0  0  0  0  0  0
  -24.2538  -15.6024  137.2823 C   0  0  0  0  0  0  0  0  0  0  0  0
  -24.5224  -17.0766  136.9599 C   0  0  0  0  0  0  0  0  0  0  0  0
  -25.9933  -16.7885  137.1405 C   0  0  0  0  0  0  0  0  0  0  0  0
  2  1  1  0
  3  2  1  0
  4  1  1  0
  4  2  1  0
  6  5  1  0
  7  4  1  0
  7  5  1  0
  7  6  1  0
  8  6  1  0
  9  8  1  0
 10  9  1  0
 11  6  1  0
 11  7  1  0
 11  8  1  0
 11 10  1  0
M  END
$$$$

     RDKit          3D

 10 12  0  0  0  0  0  0  0  0999 V2000
  -22.3883   -8.4619  139.0807 C   0  0  0  0  0  0  0  0  0  0  0  0
  -20.9810   -9.0379  139.3836 C   0  0  0  0  0  0  0  0  0  0  0  0
  -20.2203   -8.7705  140.7310 C   0  0  0  0  0  0  0  0  0  0  0  0
  -19.8293   -7.6510  141.7360 C   0  0  0  0  0  0  0  0  0  0  0  0
  -23.4188   -8.7405  139.9632 F   0  0  0  0  0  0  0  0  0  0  0  0
  -21.2423   -8.0720  141.6643 C   0  0  0  0  0  0  0  0  0  0  0  0
  -21.6189   -8.8459  142.7469 F   0  0  0  0  0  0  0  0  0  0  0  0
  -19.8504   -8.0811  139.3893 C   0  0  0  0  0  0  0  0  0  0  0  0
  -22.6019   -7.3221  138.0896 C   0  0  0  0  0  0  0  0  0  0  0  0
  -22.8283   -8.7543  137.6500 C   0  0  0  0  0  0  0  0  0  0  0  0
  2  1  1  0
  3  2  1  0
  4  3  1  0
  5  1  1  0
  6  3  1  0
  6  4  1  0
  7  6  1  0
  8  2  1  0
  8  3  1  0
  9  1  1  0
 10  1  1  0
 10  9  1  0
M  END
$$$$

     RDKit          3D

 11 12  0  0  0  0  0  0  0  0999 V2000
  -22.8274   -8.2630  138.6228 O   0  0  0  0  0  0  0  0  0  0  0  0
  -22.3575   -5.8609  138.0372 C   0  0  0  0  0  0  0  0  0  0  0  0
  -21.3629   -5.6250  139.1449 C   0  0  0  0  0  0  0  0  0  0  0  0
  -23.3416   -6.9756  138.4135 C   0  0  0  0  0  0  0  0  0  0  0  0
  -24.5939   -6.6053  139.1923 C   0  0  0  0  0  0  0  0  0  0  0  0
  -25.5345   -7.6704  139.5435 N   0  0  0  0  0  0  0  0  0  0  0  0
  -25.6644   -8.0048  138.1309 C   0  0  0  0  0  0  0  0  0  0  0  0
  -20.0767   -6.3689  139.1037 C   0  0  0  0  0  0  0  0  0  0  0  0
  -24.6693   -6.9541  137.6904 C   0  0  0  0  0  0  0  0  0  0  0  0
  -18.9535   -5.9879  139.7157 C   0  0  0  0  0  0  0  0  0  0  0  0
  -21.7056   -4.8397  140.1758 C   0  0  0  0  0  0  0  0  0  0  0  0
  3  2  1  0
  4  1  1  0
  4  2  1  0
  5  4  1  0
  6  5  1  0
  7  6  1  0
  8  3  1  0
  9  4  1  0
  9  5  1  0
  9  7  1  0
 10  8  2  0
 11  3  2  0
M  END
$$$$

     RDKit          3D

 11 11  0  0  0  0  0  0  0  0999 V2000
  -20.2829   -8.7215  141.1425 O   0  0  0  0  0  0  0  0  0  0  0  0
  -21.1316   -9.6977  141.6806 C   0  0  0  0  0  0  0  0  0  0  0  0
  -20.7362  -11.3249  139.7481 C   0  0  0  0  0  0  0  0  0  0  0  0
  -20.1521  -12.4689  140.5436 C   0  0  0  0  0  0  0  0  0  0  0  0
  -19.1850  -13.2794  140.0784 C   0  0  0  0  0  0  0  0  0  0  0  0
  -18.5157  -13.1217  138.7346 C   0  0  0  0  0  0  0  0  0  0  0  0
  -17.3293  -12.1518  138.7970 C   0  0  0  0  0  0  0  0  0  0  0  0
  -16.1957  -12.7100  139.6719 C   0  0  0  0  0  0  0  0  0  0  0  0
  -15.1847  -13.5931  138.9565 C   0  0  0  0  0  0  0  0  0  0  0  0
  -21.7675  -10.5222  140.5562 C   0  0  0  0  0  0  0  0  0  0  0  0
  -14.8103  -12.1717  139.3486 C   0  0  0  0  0  0  0  0  0  0  0  0
  2  1  1  0
  4  3  1  0
  5  4  2  3
  6  5  1  0
  7  6  1  0
  8  7  1  0
  9  8  1  0
 10  2  1  0
 10  3  1  0
 11  8  1  0
 11  9  1  0
M  END
$$$$

     RDKit          3D

 10 10  0  0  0  0  0  0  0  0999 V2000
  -22.2449   -6.7126  148.7684 Cl  0  0  0  0  0  0  0  0  0  0  0  0
  -22.5326   -7.8330  146.2737 C   0  0  0  0  0  0  0  0  0  0  0  0
  -23.1821   -6.7900  145.3483 C   0  0  0  0  0  0  0  0  0  0  0  0
  -24.0967   -5.8113  146.0939 C   0  0  0  0  0  0  0  0  0  0  0  0
  -24.1710   -3.6651  144.6504 C   0  0  0  0  0  0  0  0  0  0  0  0
  -25.3299   -3.5938  145.6394 C   0  0  0  0  0  0  0  0  0  0  0  0
  -24.8745   -4.9436  145.0958 C   0  0  0  0  0  0  0  0  0  0  0  0
  -21.4943   -7.2408  147.2377 C   0  0  0  0  0  0  0  0  0  0  0  0
  -27.7180   -3.4636  145.8539 O   0  0  0  0  0  0  0  0  0  0  0  0
  -26.6414   -3.0594  145.0547 C   0  0  0  0  0  0  0  0  0  0  0  0
  3  2  1  0
  4  3  1  0
  6  5  1  0
  7  4  1  0
  7  5  1  0
  7  6  1  0
  8  1  1  0
  8  2  1  0
 10  6  1  0
 10  9  1  0
M  END
$$$$

     RDKit          3D

 11 13  0  0  0  0  0  0  0  0999 V2000
  -23.0954  -10.7008  154.6551 C   0  0  0  0  0  0  0  0  0  0  0  0
  -24.8309   -8.8691  154.0551 C   0  0  0  0  0  0  0  0  0  0  0  0
  -24.5856  -10.2948  154.5517 C   0  0  0  0  0  0  0  0  0  0  0  0
  -25.3724  -10.8446  153.3585 C   0  0  0  0  0  0  0  0  0  0  0  0
  -26.5709  -11.4433  153.7728 O   0  0  0  0  0  0  0  0  0  0  0  0
  -25.5955   -9.4191  152.8566 C   0  0  0  0  0  0  0  0  0  0  0  0
  -20.8824  -11.2813  153.1133 C   0  0  0  0  0  0  0  0  0  0  0  0
  -22.2829  -10.6011  153.3312 C   0  0  0  0  0  0  0  0  0  0  0  0
  -22.2102  -11.8799  152.5802 C   0  0  0  0  0  0  0  0  0  0  0  0
  -20.3295  -12.5069  153.8912 C   0  0  0  0  0  0  0  0  0  0  0  0
  -20.1850  -11.1729  154.4997 C   0  0  0  0  0  0  0  0  0  0  0  0
  3  1  1  0
  3  2  1  0
  4  3  1  0
  5  4  1  0
  6  2  1  0
  6  4  1  0
  8  1  1  0
  8  7  1  0
  9  7  1  0
  9  8  1  0
 10  7  1  0
 11  7  1  0
 11 10  1  0
M  END
$$$$

     RDKit          3D

 11 11  0  0  0  0  0  0  0  0999 V2000
  -19.6519    3.4288  133.0451 C   0  0  0  0  0  0  0  0  0  0  0  0
  -19.7028    4.4976  133.8577 C   0  0  0  0  0  0  0  0  0  0  0  0
  -18.8343    5.7112  133.6557 C   0  0  0  0  0  0  0  0  0  0  0  0
  -18.6157    3.2648  131.9565 C   0  0  0  0  0  0  0  0  0  0  0  0
  -17.5437    5.3736  132.9064 C   0  0  0  0  0  0  0  0  0  0  0  0
  -17.8593    4.5733  131.6388 C   0  0  0  0  0  0  0  0  0  0  0  0
  -17.8008    0.1288  132.3230 C   0  0  0  0  0  0  0  0  0  0  0  0
  -19.0142   -0.1472  131.4328 C   0  0  0  0  0  0  0  0  0  0  0  0
  -17.4732    1.9165  132.4262 P   0  0  0  0  0  6  0  0  0  0  0  0
  -16.2293    2.3097  133.2307 O   0  0  0  0  0  0  0  0  0  0  0  0
  -19.3009   -1.6428  131.3424 C   0  0  0  0  0  0  0  0  0  0  0  0
  2  1  2  0
  3  2  1  0
  4  1  1  0
  5  3  1  0
  6  4  1  0
  6  5  1  0
  8  7  1  0
  9  4  1  0
  9  7  1  0
 10  9  2  0
 11  8  1  0
M  RAD  1   9   2
M  END
$$$$

     RDKit          3D

 11 13  0  0  0  0  0  0  0  0999 V2000
  -16.8249   -7.1434  140.2437 C   0  0  0  0  0  0  0  0  0  0  0  0
  -15.7465   -8.1144  139.7963 C   0  0  0  0  0  0  0  0  0  0  0  0
  -14.9506   -9.8523  138.1055 C   0  0  0  0  0  0  0  0  0  0  0  0
  -18.2758   -8.7488  140.1661 C   0  0  0  0  0  0  0  0  0  0  0  0
  -14.7885   -7.8058  137.4506 C   0  0  0  0  0  0  0  0  0  0  0  0
  -19.3188   -9.0372  141.2623 C   0  0  0  0  0  0  0  0  0  0  0  0
  -15.7693   -8.5825  138.3262 C   0  0  0  0  0  0  0  0  0  0  0  0
  -18.2510   -7.2954  139.7270 C   0  0  0  0  0  0  0  0  0  0  0  0
  -13.9766   -9.0745  137.2320 C   0  0  0  0  0  0  0  0  0  0  0  0
  -16.8503   -8.6229  140.7046 C   0  0  0  0  0  0  0  0  0  0  0  0
  -19.2544  -10.4274  141.7086 N   0  0  0  0  0  0  0  0  0  0  0  0
  2  1  1  0
  6  4  1  0
  7  2  1  0
  7  3  1  0
  7  5  1  0
  8  1  1  0
  8  4  1  0
  9  3  1  0
  9  5  1  0
 10  1  1  0
 10  2  1  0
 10  4  1  0
 11  6  1  0
M  END
$$$$

     RDKit          3D

 11 12  0  0  0  0  0  0  0  0999 V2000
  -21.0191  -12.9192  142.1682 N   0  0  0  0  0  0  0  0  0  0  0  0
  -22.1808  -13.3213  141.3417 C   0  0  0  0  0  0  0  0  0  0  0  0
  -23.4521  -13.3270  142.0680 N   0  0  0  0  0  0  0  0  0  0  0  0
  -23.7934  -14.3292  143.0379 C   0  0  0  0  0  0  0  0  0  0  0  0
  -21.9118  -14.4344  140.4310 N   0  0  0  0  0  0  0  0  0  0  0  0
  -25.1148  -14.5477  143.4504 C   0  0  0  0  0  0  0  0  0  0  0  0
  -22.8680  -15.1679  143.6515 C   0  0  0  0  0  0  0  0  0  0  0  0
  -25.2358  -15.5436  144.4131 C   0  0  0  0  0  0  0  0  0  0  0  0
  -21.5504  -12.0217  141.1082 C   0  0  0  0  0  0  0  0  0  0  0  0
  -23.7006  -16.1472  144.7355 S   0  0  0  0  0  0  0  0  0  0  0  0
  -20.5907  -11.8425  139.9260 C   0  0  0  0  0  0  0  0  0  0  0  0
  2  1  1  0
  3  2  1  0
  4  3  1  0
  5  2  1  0
  6  4  4  0
  7  4  4  0
  8  6  4  0
  9  1  1  0
  9  2  1  0
 10  7  4  0
 10  8  4  0
 11  9  1  0
M  END
$$$$

     RDKit          3D

 11 14  0  0  0  0  0  0  0  0999 V2000
  -24.9152  -11.2428  150.6555 C   0  0  0  0  0  0  0  0  0  0  0  0
  -25.3271  -12.0783  148.6932 C   0  0  0  0  0  0  0  0  0  0  0  0
  -25.9677  -10.9955  149.5897 C   0  0  0  0  0  0  0  0  0  0  0  0
  -26.3529  -11.5392  151.0111 C   0  0  0  0  0  0  0  0  0  0  0  0
  -27.4200  -11.1818  149.9939 C   0  0  0  0  0  0  0  0  0  0  0  0
  -24.2599  -12.2610  149.7468 C   0  0  0  0  0  0  0  0  0  0  0  0
  -23.9820  -13.6472  150.3058 C   0  0  0  0  0  0  0  0  0  0  0  0
  -22.5072  -13.4558  149.9428 C   0  0  0  0  0  0  0  0  0  0  0  0
  -28.2663  -12.3394  149.4115 C   0  0  0  0  0  0  0  0  0  0  0  0
  -28.1899  -13.6501  150.2004 C   0  0  0  0  0  0  0  0  0  0  0  0
  -22.7992  -12.0638  149.3763 C   0  0  0  0  0  0  0  0  0  0  0  0
  3  1  1  0
  3  2  1  0
  4  1  1  0
  4  3  1  0
  5  3  1  0
  5  4  1  0
  6  1  1  0
  6  2  1  0
  7  6  1  0
  8  7  1  0
  9  5  1  0
 10  9  1  0
 11  6  1  0
 11  8  1  0
M  END
$$$$

     RDKit          3D

 11 12  0  0  0  0  0  0  0  0999 V2000
  -23.8508    2.5623  146.4582 O   0  0  0  0  0  0  0  0  0  0  0  0
  -23.3954    1.4117  145.8049 C   0  0  0  0  0  0  0  0  0  0  0  0
  -24.3189    0.3797  145.6004 O   0  0  0  0  0  0  0  0  0  0  0  0
  -21.9371    0.9931  145.9584 C   0  0  0  0  0  0  0  0  0  0  0  0
  -20.9268    1.8585  146.7449 C   0  0  0  0  0  0  0  0  0  0  0  0
  -21.3043    2.9768  148.3763 C   0  0  0  0  0  0  0  0  0  0  0  0
  -22.4251    1.6490  144.6607 C   0  0  0  0  0  0  0  0  0  0  0  0
  -20.8916    1.5286  148.2247 C   0  0  0  0  0  0  0  0  0  0  0  0
  -19.4906    1.2172  148.7708 C   0  0  0  0  0  0  0  0  0  0  0  0
  -21.3433    3.1848  146.9827 O   0  0  0  0  0  0  0  0  0  0  0  0
  -19.0775   -0.0524  148.3447 O   0  0  0  0  0  0  0  0  0  0  0  0
  2  1  1  0
  3  2  1  0
  4  2  1  0
  5  4  1  0
  7  2  1  0
  7  4  1  0
  8  5  1  0
  8  6  1  0
  9  8  1  0
 10  5  1  0
 10  6  1  0
 11  9  1  0
M  END
$$$$

     RDKit          3D

 11 10  0  0  0  0  0  0  0  0999 V2000
  -22.8362   -1.0297  137.8935 C   0  0  0  0  0  0  0  0  0  0  0  0
  -22.4330    0.0338  138.6018 N   0  0  0  0  0  0  0  0  0  0  0  0
  -22.7733    0.1181  139.9028 C   0  0  0  0  0  0  0  0  0  0  0  0
  -23.9447    0.7483  140.3076 C   0  0  0  0  0  0  0  0  0  0  0  0
  -23.5138   -2.0300  138.4797 N   0  0  0  0  0  2  0  0  0  0  0  0
  -22.2071   -0.7218  140.8578 C   0  0  0  0  0  0  0  0  0  0  0  0
  -22.0477   -2.1317  137.8210 N   0  0  0  0  0  2  0  0  0  0  0  0
  -25.0704    0.6586  139.5169 C   0  0  0  0  0  0  0  0  0  0  0  0
  -23.8095    0.6350  140.0788 C   0  0  0  0  0  0  0  0  0  0  0  0
  -22.3152   -1.9995  140.8129 C   0  0  0  0  0  0  0  0  0  0  0  0
  -22.5705    0.0954  139.8173 C   0  0  0  0  0  0  0  0  0  0  0  0
  2  1  1  0
  5  1  1  0
  7  1  1  0
  8  4  1  0
  9  3  1  0
  9  4  1  0
 10  6  2  0
 11  2  1  0
 11  3  1  0
 11  6  1  0
M  RAD  2   5   2   7   2
M  END
$$$$

     RDKit          3D

 11 12  0  0  0  0  0  0  0  0999 V2000
  -19.2468   -5.4325  136.1688 C   0  0  0  0  0  0  0  0  0  0  0  0
  -19.7039   -4.6553  137.3824 C   0  0  0  0  0  0  0  0  0  0  0  0
  -17.7788   -5.1615  135.8341 C   0  0  0  0  0  0  0  0  0  0  0  0
  -17.3472   -4.7899  134.4009 C   0  0  0  0  0  0  0  0  0  0  0  0
  -17.0256   -6.0309  133.5486 C   0  0  0  0  0  0  0  0  0  0  0  0
  -19.2606   -5.2267  138.5774 O   0  0  0  0  0  0  0  0  0  0  0  0
  -20.1987   -5.2998  135.0526 N   0  0  0  0  0  0  0  0  0  0  0  0
  -15.6244   -6.6168  133.8187 C   0  0  0  0  0  0  0  0  0  0  0  0
  -18.5755   -4.0836  136.5523 C   0  0  0  0  0  0  0  0  0  0  0  0
  -15.5648   -7.2493  135.1311 N   0  0  0  0  0  2  0  0  0  0  0  0
  -15.2907   -7.6048  132.7984 N   0  0  0  0  0  2  0  0  0  0  0  0
  2  1  1  0
  3  1  1  0
  4  3  1  0
  5  4  1  0
  6  2  1  0
  7  1  1  0
  8  5  1  0
  9  1  1  0
  9  2  1  0
  9  3  1  0
 10  8  1  0
 11  8  1  0
M  RAD  2  10   2  11   2
M  END
$$$$

     RDKit          3D

 11 14  0  0  0  0  0  0  0  0999 V2000
  -25.7591  -15.2607  141.3968 C   0  0  0  0  0  0  0  0  0  0  0  0
  -25.0468  -14.9388  140.0200 C   0  0  0  0  0  0  0  0  0  0  0  0
  -27.1960  -15.8786  141.2308 C   0  0  0  0  0  0  0  0  0  0  0  0
  -27.7337  -17.3813  141.2850 C   0  0  0  0  0  0  0  0  0  0  0  0
  -27.0773  -16.7802  140.0741 C   0  0  0  0  0  0  0  0  0  0  0  0
  -23.8670  -15.8784  139.5478 C   0  0  0  0  0  0  0  0  0  0  0  0
  -23.8665  -16.0359  138.0781 C   0  0  0  0  0  0  0  0  0  0  0  0
  -23.9543  -17.2522  138.9122 N   0  0  0  0  0  0  0  0  0  0  0  0
  -25.2635  -17.9632  138.8636 C   0  0  0  0  0  0  0  0  0  0  0  0
  -25.9552  -17.7944  140.1950 C   0  0  0  0  0  0  0  0  0  0  0  0
  -26.8629  -18.6391  141.0270 C   0  0  0  0  0  0  0  0  0  0  0  0
  2  1  1  0
  3  1  1  0
  4  3  1  0
  5  3  1  0
  5  4  1  0
  6  2  1  0
  7  6  1  0
  8  6  1  0
  8  7  1  0
  9  8  1  0
 10  5  1  0
 10  9  1  0
 11  4  1  0
 11 10  1  0
M  END
$$$$

     RDKit          3D

 11 12  0  0  0  0  0  0  0  0999 V2000
  -21.0206  -10.5843  137.9514 C   0  0  0  0  0  0  0  0  0  0  0  0
  -19.9561  -10.9729  138.6741 C   0  0  0  0  0  0  0  0  0  0  0  0
  -18.5682  -11.1373  138.1091 C   0  0  0  0  0  0  0  0  0  0  0  0
  -17.8338   -9.7932  138.0596 C   0  0  0  0  0  0  0  0  0  0  0  0
  -16.4273   -9.9556  137.4911 C   0  0  0  0  0  0  0  0  0  0  0  0
  -20.9520  -10.2795  136.4784 C   0  0  0  0  0  0  0  0  0  0  0  0
  -22.2307  -10.5960  135.7131 C   0  0  0  0  0  0  0  0  0  0  0  0
  -22.4731   -9.6982  134.4962 C   0  0  0  0  0  0  0  0  0  0  0  0
  -23.7339  -10.0270  133.7140 C   0  0  0  0  0  0  0  0  0  0  0  0
  -23.6959   -8.8038  134.6157 C   0  0  0  0  0  0  0  0  0  0  0  0
  -21.0194  -11.5070  135.5778 C   0  0  0  0  0  0  0  0  0  0  0  0
  2  1  2  3
  3  2  1  0
  4  3  1  0
  5  4  1  0
  6  1  1  0
  7  6  1  0
  8  7  1  0
  9  8  1  0
 10  8  1  0
 10  9  1  0
 11  6  1  0
 11  7  1  0
M  END
$$$$

     RDKit          3D

 11 12  0  0  0  0  0  0  0  0999 V2000
  -18.3250   -7.5142  141.0979 C   0  0  0  0  0  0  0  0  0  0  0  0
  -17.3412   -7.2202  142.2210 C   0  0  0  0  0  0  0  0  0  0  0  0
  -17.7258   -6.1189  143.2038 C   0  0  0  0  0  0  0  0  0  0  0  0
  -20.7617   -8.2313  140.9933 C   0  0  0  0  0  0  0  0  0  0  0  0
  -19.3901   -8.4494  141.6813 C   0  0  0  0  0  0  0  0  0  0  0  0
  -21.8654   -9.2799  141.2910 C   0  0  0  0  0  0  0  0  0  0  0  0
  -18.0392   -7.5708  143.5202 C   0  0  0  0  0  0  0  0  0  0  0  0
  -21.4122  -10.7221  141.0281 C   0  0  0  0  0  0  0  0  0  0  0  0
  -17.1944   -8.2350  144.4157 O   0  0  0  0  0  0  0  0  0  0  0  0
  -22.4735   -9.1403  142.6926 C   0  0  0  0  0  0  0  0  0  0  0  0
  -19.3954   -8.1775  143.1881 C   0  0  0  0  0  0  0  0  0  0  0  0
  2  1  1  0
  3  2  1  0
  5  1  1  0
  5  4  1  0
  6  4  1  0
  7  2  1  0
  7  3  1  0
  8  6  1  0
  9  7  1  0
 10  6  1  0
 11  5  1  0
 11  7  1  0
M  END
$$$$

     RDKit          3D

 11 13  0  0  0  0  0  0  0  0999 V2000
  -30.9725  -17.2421  148.5189 C   0  0  0  0  0  0  0  0  0  0  0  0
  -30.2531  -15.9292  148.3363 C   0  0  0  0  0  0  0  0  0  0  0  0
  -31.2960  -17.7066  149.7318 C   0  0  0  0  0  0  0  0  0  0  0  0
  -30.3420  -14.9303  149.5023 C   0  0  0  0  0  0  0  0  0  0  0  0
  -31.1425  -15.3898  150.7404 C   0  0  0  0  0  0  0  0  0  0  0  0
  -32.6011  -14.8854  150.7236 C   0  0  0  0  0  0  0  0  0  0  0  0
  -31.0016  -16.9111  150.9716 C   0  0  0  0  0  0  0  0  0  0  0  0
  -32.6060  -13.4865  150.8622 O   0  0  0  0  0  0  0  0  0  0  0  0
  -33.3332  -15.2825  149.4358 C   0  0  0  0  0  0  0  0  0  0  0  0
  -32.6379  -14.7722  148.1629 C   0  0  0  0  0  0  0  0  0  0  0  0
  -31.0961  -14.6583  148.1975 C   0  0  0  0  0  0  0  0  0  0  0  0
  2  1  1  0
  3  1  2  0
  4  2  1  0
  5  4  1  0
  6  5  1  0
  7  3  1  0
  7  5  1  0
  8  6  1  0
  9  6  1  0
 10  9  1  0
 11  2  1  0
 11  4  1  0
 11 10  1  0
M  END
$$$$

     RDKit          3D

 11 10  0  0  0  0  0  0  0  0999 V2000
  -21.9859   -8.1624  140.0685 O   0  0  0  0  0  0  0  0  0  0  0  0
  -21.0827   -7.4979  140.6411 C   0  0  0  0  0  0  0  0  0  0  0  0
  -20.4590   -6.4622  139.9500 O   0  0  0  0  0  0  0  0  0  0  0  0
  -20.6812   -7.8434  142.0528 C   0  0  0  0  0  0  0  0  0  0  0  0
  -21.9907   -6.1060  143.2561 C   0  0  0  0  0  0  0  0  0  0  0  0
  -19.2422   -8.4044  142.1052 C   0  0  0  0  0  0  0  0  0  0  0  0
  -19.0225   -9.6779  141.2657 C   0  0  0  0  0  0  0  0  0  0  0  0
  -20.8002   -6.6208  142.9327 C   0  0  0  0  0  0  0  0  0  0  0  0
  -19.8016  -10.8900  141.8044 C   0  0  0  0  0  0  0  0  0  0  0  0
  -19.4802  -12.1825  141.0365 C   0  0  0  0  0  0  0  0  0  0  0  0
  -18.1206  -12.7722  141.4139 C   0  0  0  0  0  0  0  0  0  0  0  0
  2  1  2  0
  3  2  1  0
  4  2  1  0
  6  4  1  0
  7  6  1  0
  8  4  1  0
  8  5  2  0
  9  7  1  0
 10  9  1  0
 11 10  1  0
M  END
$$$$

     RDKit          3D

 11 12  0  0  0  0  0  0  0  0999 V2000
  -24.6289   -1.4228  136.6420 O   0  0  0  0  0  0  0  0  0  0  0  0
  -25.6993   -1.9841  135.8636 C   0  0  0  0  0  0  0  0  0  0  0  0
  -25.9417   -1.1523  134.7617 O   0  0  0  0  0  0  0  0  0  0  0  0
  -27.0439   -2.1738  136.6430 C   0  0  0  0  0  0  0  0  0  0  0  0
  -26.8226   -2.5894  138.1162 C   0  0  0  0  0  0  0  0  0  0  0  0
  -26.1299   -0.6057  139.2754 O   0  0  0  0  0  0  0  0  0  0  0  0
  -26.4366   -5.0631  137.4054 C   0  0  0  0  0  0  0  0  0  0  0  0
  -24.5731   -1.9064  137.9833 C   0  0  0  0  0  0  0  0  0  0  0  0
  -25.9925   -3.8820  138.2785 C   0  0  0  0  0  0  0  0  0  0  0  0
  -24.5217   -3.4479  138.0548 C   0  0  0  0  0  0  0  0  0  0  0  0
  -25.8624   -1.6071  138.6296 C   0  0  0  0  0  0  0  0  0  0  0  0
  2  1  1  0
  3  2  1  0
  4  2  1  0
  5  4  1  0
  8  1  1  0
  9  5  1  0
  9  7  1  0
 10  8  1  0
 10  9  1  0
 11  5  1  0
 11  6  2  0
 11  8  1  0
M  END
$$$$

     RDKit          3D

 11 13  0  0  0  0  0  0  0  0999 V2000
  -31.0062  -18.7377  140.4971 C   0  0  0  0  0  0  0  0  0  0  0  0
  -31.1221  -16.3926  140.4321 N   0  0  0  0  0  0  0  0  0  0  0  0
  -30.1017  -19.8770  140.3620 N   0  0  0  0  0  0  0  0  0  0  0  0
  -30.3421  -17.5099  140.0521 N   0  0  0  0  0  0  0  0  0  0  0  0
  -30.2025  -19.9335  141.8244 C   0  0  0  0  0  0  0  0  0  0  0  0
  -31.0897  -18.7808  141.9660 N   0  0  0  0  0  0  0  0  0  0  0  0
  -32.1294  -19.7011  142.4593 C   0  0  0  0  0  0  0  0  0  0  0  0
  -32.1609  -16.1245  139.4331 C   0  0  0  0  0  0  0  0  0  0  0  0
  -31.2293  -20.9204  142.3793 C   0  0  0  0  0  0  0  0  0  0  0  0
  -33.5306  -16.4874  139.8540 C   0  0  0  0  0  0  0  0  0  0  0  0
  -33.0675  -15.1586  139.9100 O   0  0  0  0  0  0  0  0  0  0  0  0
  3  1  1  0
  4  1  1  0
  4  2  1  0
  5  3  1  0
  6  1  1  0
  6  5  1  0
  7  6  1  0
  8  2  1  0
  9  5  1  0
  9  7  1  0
 10  8  1  0
 11  8  1  0
 11 10  1  0
M  END
$$$$

     RDKit          3D

 11 10  0  0  0  0  0  0  0  0999 V2000
  -27.1096   -1.3927  131.5432 O   0  0  0  0  0  0  0  0  0  0  0  0
  -26.5977   -2.4706  132.8160 P   0  0  0  0  0  0  0  0  0  0  0  0
  -26.2473   -3.7998  131.7570 O   0  0  0  0  0  0  0  0  0  0  0  0
  -24.9648   -1.8788  132.8671 O   0  0  0  0  0  0  0  0  0  0  0  0
  -27.8535   -0.3617  132.1446 C   0  0  0  0  0  0  0  0  0  0  0  0
  -29.0718    1.8115  131.7457 C   0  0  0  0  0  0  0  0  0  0  0  0
  -29.3187    2.8400  130.8251 O   0  0  0  0  0  0  0  0  0  0  0  0
  -29.2612   -0.0929  130.0535 C   0  0  0  0  0  0  0  0  0  0  0  0
  -29.6782    0.7776  129.0377 O   0  0  0  0  0  0  0  0  0  0  0  0
  -24.6384   -1.9116  134.1425 O   0  0  0  0  0  0  0  0  0  0  0  0
  -28.3469    0.6258  131.0722 C   0  0  0  0  0  0  0  0  0  0  0  0
  2  1  1  0
  3  2  1  0
  4  2  1  0
  5  1  1  0
  7  6  1  0
  9  8  1  0
 10  4  1  0
 11  5  1  0
 11  6  1  0
 11  8  1  0
M  END
$$$$

     RDKit          3D

 11 11  0  0  0  0  0  0  0  0999 V2000
  -22.3633  -20.8208  144.1659 O   0  0  0  0  0  0  0  0  0  0  0  0
  -23.2432  -21.5676  144.9591 C   0  0  0  0  0  0  0  0  0  0  0  0
  -24.5218  -22.0324  144.2543 C   0  0  0  0  0  0  0  0  0  0  0  0
  -24.5565  -20.8465  145.2258 C   0  0  0  0  0  0  0  0  0  0  0  0
  -24.5640  -21.7125  142.7455 C   0  0  0  0  0  0  0  0  0  0  0  0
  -25.0862  -21.1193  146.6403 C   0  0  0  0  0  0  0  0  0  0  0  0
  -25.7469  -22.3931  142.0299 C   0  0  0  0  0  0  0  0  0  0  0  0
  -26.9684  -21.4769  141.8350 C   0  0  0  0  0  0  0  0  0  0  0  0
  -27.6972  -21.1015  143.1325 C   0  0  0  0  0  0  0  0  0  0  0  0
  -28.3503  -22.3040  143.8141 C   0  0  0  0  0  0  0  0  0  0  0  0
  -26.4945  -20.5672  146.8164 C   0  0  0  0  0  0  0  0  0  0  0  0
  2  1  1  0
  3  2  1  0
  4  2  1  0
  4  3  1  0
  5  3  1  0
  6  4  1  0
  7  5  1  0
  8  7  1  0
  9  8  1  0
 10  9  1  0
 11  6  1  0
M  END
$$$$

     RDKit          3D

 11 13  0  0  0  0  0  0  0  0999 V2000
  -23.7573  -22.3148  136.4475 O   0  0  0  0  0  0  0  0  0  0  0  0
  -24.3023  -20.5256  134.7845 C   0  0  0  0  0  0  0  0  0  0  0  0
  -23.3812  -22.7236  134.1718 O   0  0  0  0  0  0  0  0  0  0  0  0
  -25.3586  -20.9140  133.7687 C   0  0  0  0  0  0  0  0  0  0  0  0
  -25.8392  -20.5170  132.5918 C   0  0  0  0  0  0  0  0  0  0  0  0
  -25.1482  -20.0100  135.9758 C   0  0  0  0  0  0  0  0  0  0  0  0
  -26.2731  -19.0000  135.7105 C   0  0  0  0  0  0  0  0  0  0  0  0
  -24.1177  -21.9939  135.1232 C   0  0  0  0  0  0  0  0  0  0  0  0
  -26.1694  -21.1432  136.0097 C   0  0  0  0  0  0  0  0  0  0  0  0
  -27.2984  -20.1378  135.7439 C   0  0  0  0  0  0  0  0  0  0  0  0
  -25.6026  -21.9715  134.8285 C   0  0  0  0  0  0  0  0  0  0  0  0
  4  2  1  0
  5  4  2  0
  6  2  1  0
  7  6  1  0
  8  1  1  0
  8  2  1  0
  8  3  1  0
  9  6  1  0
 10  7  1  0
 10  9  1  0
 11  4  1  0
 11  8  1  0
 11  9  1  0
M  END
$$$$

     RDKit          3D

 11 13  0  0  0  0  0  0  0  0999 V2000
  -28.9518  -17.0882  147.6357 O   0  0  0  0  0  0  0  0  0  0  0  0
  -27.5621  -17.2349  147.4532 C   0  0  0  0  0  0  0  0  0  0  0  0
  -27.1545  -16.5985  146.2794 O   0  0  0  0  0  0  0  0  0  0  0  0
  -28.1190  -16.3303  148.4828 C   0  0  0  0  0  0  0  0  0  0  0  0
  -28.0850  -16.8736  149.9145 C   0  0  0  0  0  0  0  0  0  0  0  0
  -29.0015  -16.0693  150.8480 C   0  0  0  0  0  0  0  0  0  0  0  0
  -30.4968  -16.2801  150.5675 C   0  0  0  0  0  0  0  0  0  0  0  0
  -30.9523  -17.6933  150.9666 C   0  0  0  0  0  0  0  0  0  0  0  0
  -31.1694  -18.6901  149.8419 C   0  0  0  0  0  0  0  0  0  0  0  0
  -32.4581  -19.4590  150.0310 C   0  0  0  0  0  0  0  0  0  0  0  0
  -32.3692  -18.0404  150.5487 C   0  0  0  0  0  0  0  0  0  0  0  0
  2  1  1  0
  3  2  1  0
  4  1  1  0
  4  2  1  0
  5  4  1  0
  6  5  1  0
  7  6  1  0
  8  7  1  0
  9  8  1  0
 10  9  1  0
 11  8  1  0
 11  9  1  0
 11 10  1  0
M  END
$$$$

     RDKit          3D

 11 12  0  0  0  0  0  0  0  0999 V2000
  -28.7830  -23.9145  145.3389 O   0  0  0  0  0  0  0  0  0  0  0  0
  -29.7290  -24.7797  144.7667 C   0  0  0  0  0  0  0  0  0  0  0  0
  -29.3112  -26.1048  144.9548 O   0  0  0  0  0  0  0  0  0  0  0  0
  -31.0912  -24.5718  145.4381 C   0  0  0  0  0  0  0  0  0  0  0  0
  -32.1614  -25.4650  144.7946 C   0  0  0  0  0  0  0  0  0  0  0  0
  -33.5942  -24.9534  144.9418 C   0  0  0  0  0  0  0  0  0  0  0  0
  -34.6320  -26.0384  145.0682 C   0  0  0  0  0  0  0  0  0  0  0  0
  -34.9313  -26.8591  144.0576 C   0  0  0  0  0  0  0  0  0  0  0  0
  -34.2398  -26.7674  142.7617 C   0  0  0  0  0  0  0  0  0  0  0  0
  -33.2858  -25.8586  142.5427 C   0  0  0  0  0  0  0  0  0  0  0  0
  -32.8779  -24.8555  143.5897 C   0  0  0  0  0  0  0  0  0  0  0  0
  2  1  1  0
  3  2  1  0
  4  2  1  0
  5  4  1  0
  6  5  1  0
  7  6  1  0
  8  7  2  0
  9  8  1  0
 10  9  2  0
 11  5  1  0
 11  6  1  0
 11 10  1  0
M  END
$$$$

     RDKit          3D

 11 11  0  0  0  0  0  0  0  0999 V2000
  -19.5835   -1.2782  137.4793 C   0  0  0  0  0  0  0  0  0  0  0  0
  -19.5784   -1.9645  138.7712 N   0  0  0  0  0  0  0  0  0  0  0  0
  -19.5476    1.2088  138.1802 C   0  0  0  0  0  0  0  0  0  0  0  0
  -18.8191    2.1001  137.1601 C   0  0  0  0  0  0  0  0  0  0  0  0
  -17.6590    1.3966  136.5030 C   0  0  0  0  0  0  0  0  0  0  0  0
  -20.3491    0.0588  137.5313 C   0  0  0  0  0  0  0  0  0  0  0  0
  -17.7850    0.8798  135.2680 C   0  0  0  0  0  0  0  0  0  0  0  0
  -16.6588    0.1744  134.6277 C   0  0  0  0  0  0  0  0  0  0  0  0
  -16.3915    1.1445  137.2932 C   0  0  0  0  0  0  0  0  0  0  0  0
  -15.4371    0.2135  135.1681 C   0  0  0  0  0  0  0  0  0  0  0  0
  -15.1626    1.0732  136.3727 C   0  0  0  0  0  0  0  0  0  0  0  0
  2  1  1  0
  4  3  1  0
  5  4  1  0
  6  1  1  0
  6  3  1  0
  7  5  2  0
  8  7  1  0
  9  5  1  0
 10  8  2  0
 11  9  1  0
 11 10  1  0
M  END
$$$$

     RDKit          3D

 11 14  0  0  0  0  0  0  0  0999 V2000
  -25.2571   -0.6733  135.9452 C   0  0  0  0  0  0  0  0  0  0  0  0
  -24.3334   -0.3996  134.7649 C   0  0  0  0  0  0  0  0  0  0  0  0
  -25.5378   -1.3096  134.5862 C   0  0  0  0  0  0  0  0  0  0  0  0
  -24.6055   -1.4909  137.0822 C   0  0  0  0  0  0  0  0  0  0  0  0
  -24.1927   -2.9280  136.7150 C   0  0  0  0  0  0  0  0  0  0  0  0
  -25.2784   -3.9846  136.8663 C   0  0  0  0  0  0  0  0  0  0  0  0
  -24.1538   -3.8976  137.8915 C   0  0  0  0  0  0  0  0  0  0  0  0
  -23.1228   -5.0232  137.7443 C   0  0  0  0  0  0  0  0  0  0  0  0
  -22.3719   -5.2680  139.0040 C   0  0  0  0  0  0  0  0  0  0  0  0
  -23.4241   -6.0974  138.5922 O   0  0  0  0  0  0  0  0  0  0  0  0
  -21.8192   -4.5457  137.9386 O   0  0  0  0  0  0  0  0  0  0  0  0
  2  1  1  0
  3  1  1  0
  3  2  1  0
  4  1  1  0
  5  4  1  0
  6  5  1  0
  7  5  1  0
  7  6  1  0
  8  7  1  0
  9  8  1  0
 10  8  1  0
 10  9  1  0
 11  8  1  0
 11  9  1  0
M  END
$$$$

     RDKit          3D

 11 11  0  0  0  0  0  0  0  0999 V2000
  -25.4081   -3.9352  139.4453 O   0  0  0  0  0  0  0  0  0  0  0  0
  -26.4426   -4.7110  138.8941 C   0  0  0  0  0  0  0  0  0  0  0  0
  -25.9125   -5.7393  138.0941 O   0  0  0  0  0  0  0  0  0  0  0  0
  -27.3601   -5.2677  139.9995 C   0  0  0  0  0  0  0  0  0  0  0  0
  -28.5729   -6.0013  139.4137 C   0  0  0  0  0  0  0  0  0  0  0  0
  -29.4635   -6.5126  140.5143 C   0  0  0  0  0  0  0  0  0  0  0  0
  -30.4907   -5.7037  141.0289 C   0  0  0  0  0  0  0  0  0  0  0  0
  -29.2397   -7.7812  141.0754 C   0  0  0  0  0  0  0  0  0  0  0  0
  -30.0476   -8.2416  142.1199 C   0  0  0  0  0  0  0  0  0  0  0  0
  -31.0763   -7.4367  142.6171 C   0  0  0  0  0  0  0  0  0  0  0  0
  -31.2963   -6.1681  142.0734 C   0  0  0  0  0  0  0  0  0  0  0  0
  2  1  1  0
  3  2  1  0
  4  2  1  0
  5  4  1  0
  6  5  1  0
  7  6  4  0
  8  6  4  0
  9  8  4  0
 10  9  4  0
 11  7  4  0
 11 10  4  0
M  END
$$$$

     RDKit          3D

 11 11  0  0  0  0  0  0  0  0999 V2000
  -36.3567   -7.2597  141.6820 O   0  0  0  0  0  0  0  0  0  0  0  0
  -36.1236   -6.3872  142.6895 C   0  0  0  0  0  0  0  0  0  0  0  0
  -36.8211   -4.9746  141.8238 B   0  0  0  0  0  0  0  0  0  0  0  0
  -37.5965   -4.9144  140.6646 O   0  0  0  0  0  0  0  0  0  0  0  0
  -36.0605   -4.4965  140.6732 O   0  0  0  0  0  0  0  0  0  0  0  0
  -36.9604   -5.1389  142.4959 C   0  0  0  0  0  0  0  0  0  0  0  0
  -35.7533   -7.0901  143.9688 C   0  0  0  0  0  0  0  0  0  0  0  0
  -35.8307   -4.1016  143.4902 C   0  0  0  0  0  0  0  0  0  0  0  0
  -35.6490   -2.5543  143.5937 C   0  0  0  0  0  0  0  0  0  0  0  0
  -36.5046   -6.0892  143.2010 C   0  0  0  0  0  0  0  0  0  0  0  0
  -35.1687   -3.5104  144.6254 C   0  0  0  0  0  0  0  0  0  0  0  0
  2  1  1  0
  4  3  1  0
  5  3  1  0
  6  3  1  0
  8  6  1  0
  9  8  1  0
 10  2  1  0
 10  6  1  0
 10  7  1  0
 11  8  1  0
 11  9  1  0
M  END
$$$$

     RDKit          3D

 11 14  0  0  0  0  0  0  0  0999 V2000
  -23.0383   -3.2566  144.2327 O   0  0  0  0  0  0  0  0  0  0  0  0
  -24.0743   -2.6524  143.5342 C   0  0  0  0  0  0  0  0  0  0  0  0
  -23.7753   -1.1660  143.7660 C   0  0  0  0  0  0  0  0  0  0  0  0
  -23.8044   -3.0226  142.0622 C   0  0  0  0  0  0  0  0  0  0  0  0
  -22.4300   -0.4364  143.5463 C   0  0  0  0  0  0  0  0  0  0  0  0
  -24.1382   -1.6055  142.3925 C   0  0  0  0  0  0  0  0  0  0  0  0
  -21.3733   -0.6070  144.6108 C   0  0  0  0  0  0  0  0  0  0  0  0
  -20.6300   -2.5856  143.1824 C   0  0  0  0  0  0  0  0  0  0  0  0
  -21.3619   -3.5495  142.3232 N   0  0  0  0  0  0  0  0  0  0  0  0
  -21.0813   -1.0932  143.1770 C   0  0  0  0  0  0  0  0  0  0  0  0
  -22.3900   -3.0157  141.4217 C   0  0  0  0  0  0  0  0  0  0  0  0
  2  1  1  0
  3  2  1  0
  4  2  1  0
  5  3  1  0
  6  2  1  0
  6  3  1  0
  6  4  1  0
  7  5  1  0
  9  8  1  0
 10  5  1  0
 10  7  1  0
 10  8  1  0
 11  4  1  0
 11  9  1  0
M  END
$$$$

     RDKit          3D

 11 13  0  0  0  0  0  0  0  0999 V2000
  -24.1768    0.0899  137.9701 C   0  0  0  0  0  0  0  0  0  0  0  0
  -22.8003    2.2184  137.7457 C   0  0  0  0  0  0  0  0  0  0  0  0
  -22.5567    3.4370  138.3513 F   0  0  0  0  0  0  0  0  0  0  0  0
  -25.6721    0.2009  138.2695 C   0  0  0  0  0  0  0  0  0  0  0  0
  -25.6340   -1.1495  138.9896 C   0  0  0  0  0  0  0  0  0  0  0  0
  -23.3389    1.1995  138.6406 C   0  0  0  0  0  0  0  0  0  0  0  0
  -23.7824   -1.2060  140.1238 N   0  0  0  0  0  0  0  0  0  0  0  0
  -21.9045    1.1728  138.2776 N   0  0  0  0  0  0  0  0  0  0  0  0
  -24.1507   -1.2576  138.7040 C   0  0  0  0  0  0  0  0  0  0  0  0
  -25.2115   -1.1290  140.4529 C   0  0  0  0  0  0  0  0  0  0  0  0
  -25.6577   -2.2767  141.1265 O   0  0  0  0  0  0  0  0  0  0  0  0
  3  2  1  0
  4  1  1  0
  5  4  1  0
  6  1  1  0
  6  2  1  0
  8  2  1  0
  8  6  1  0
  9  1  1  0
  9  5  1  0
  9  7  1  0
 10  5  1  0
 10  7  1  0
 11 10  1  0
M  END
$$$$

     RDKit          3D

 11 14  0  0  0  0  0  0  0  0999 V2000
  -19.1971  -16.8878  142.3331 C   0  0  0  0  0  0  0  0  0  0  0  0
  -18.6889  -18.1919  141.8701 N   0  0  0  0  0  0  0  0  0  0  0  0
  -20.0450  -17.0242  143.5994 C   0  0  0  0  0  0  0  0  0  0  0  0
  -19.7555  -17.4912  141.1263 C   0  0  0  0  0  0  0  0  0  0  0  0
  -20.8875  -15.8146  143.8382 C   0  0  0  0  0  0  0  0  0  0  0  0
  -22.3717  -16.0451  144.0223 C   0  0  0  0  0  0  0  0  0  0  0  0
  -23.1823  -14.9159  144.6421 C   0  0  0  0  0  0  0  0  0  0  0  0
  -22.6375  -13.9359  143.6243 C   0  0  0  0  0  0  0  0  0  0  0  0
  -20.0725  -15.5110  145.0526 C   0  0  0  0  0  0  0  0  0  0  0  0
  -21.8314  -15.0396  142.9636 C   0  0  0  0  0  0  0  0  0  0  0  0
  -19.2422  -16.7102  144.8026 N   0  0  0  0  0  0  0  0  0  0  0  0
  2  1  1  0
  3  1  1  0
  4  1  1  0
  4  2  1  0
  5  3  1  0
  6  5  1  0
  7  6  1  0
  8  7  1  0
  9  5  1  0
 10  5  1  0
 10  6  1  0
 10  8  1  0
 11  3  1  0
 11  9  1  0
M  END
$$$$

     RDKit          3D

 11 14  0  0  0  0  0  0  0  0999 V2000
  -30.4148  -21.6742  141.3024 O   0  0  0  0  0  0  0  0  0  0  0  0
  -29.2947  -22.2348  140.6856 C   0  0  0  0  0  0  0  0  0  0  0  0
  -28.5275  -22.8802  141.6576 O   0  0  0  0  0  0  0  0  0  0  0  0
  -29.6174  -23.1993  139.5780 C   0  0  0  0  0  0  0  0  0  0  0  0
  -29.6518  -22.4887  138.2107 C   0  0  0  0  0  0  0  0  0  0  0  0
  -30.6850  -22.8609  140.6029 C   0  0  0  0  0  0  0  0  0  0  0  0
  -30.0189  -23.4429  137.0551 C   0  0  0  0  0  0  0  0  0  0  0  0
  -30.9071  -23.0069  135.9056 C   0  0  0  0  0  0  0  0  0  0  0  0
  -29.5616  -24.8306  137.1180 N   0  0  0  0  0  0  0  0  0  0  0  0
  -30.9555  -25.2633  137.1066 C   0  0  0  0  0  0  0  0  0  0  0  0
  -31.4978  -23.8526  137.0140 C   0  0  0  0  0  0  0  0  0  0  0  0
  2  1  1  0
  3  2  1  0
  4  2  1  0
  5  4  1  0
  6  1  1  0
  6  2  1  0
  6  4  1  0
  7  5  1  0
  8  7  1  0
  9  7  1  0
 10  9  1  0
 11  7  1  0
 11  8  1  0
 11 10  1  0
M  END
$$$$

     RDKit          3D

 11 10  0  0  0  0  0  0  0  0999 V2000
  -26.8433  -18.4131  134.8136 C   0  0  0  0  0  0  0  0  0  0  0  0
  -27.8722  -17.3432  132.7220 C   0  0  0  0  0  0  0  0  0  0  0  0
  -26.1351  -19.8301  136.7771 C   0  0  0  0  0  0  0  0  0  0  0  0
  -26.6022  -17.3882  137.1387 C   0  0  0  0  0  0  0  0  0  0  0  0
  -26.9938  -18.6380  136.3350 C   0  0  0  0  0  0  0  0  0  0  0  0
  -26.5664  -16.8391  132.0836 C   0  0  0  0  0  0  0  0  0  0  0  0
  -27.8618  -17.4003  134.2600 C   0  0  0  0  0  0  0  0  0  0  0  0
  -26.2150  -15.0882  132.4642 P   0  0  0  0  0  6  0  0  0  0  0  0
  -27.4823  -14.2471  132.2727 O   0  0  0  0  0  0  0  0  0  0  0  0
  -25.6675  -14.9280  134.0601 O   0  0  0  0  0  0  0  0  0  0  0  0
  -24.3841  -15.2203  134.0107 O   0  0  0  0  0  0  0  0  0  0  0  0
  5  1  1  0
  5  3  1  0
  5  4  1  0
  6  2  1  0
  7  1  1  0
  7  2  1  0
  8  6  1  0
  9  8  2  0
 10  8  1  0
 11 10  1  0
M  RAD  1   8   2
M  END
$$$$

     RDKit          3D

 11 10  0  0  0  0  0  0  0  0999 V2000
  -27.8378   -9.9987  153.6250 O   0  0  0  0  0  0  0  0  0  0  0  0
  -26.1797   -9.8896  154.1254 P   0  0  0  0  0  0  0  0  0  0  0  0
  -25.5848  -11.2533  153.2307 O   0  0  0  0  0  0  0  0  0  0  0  0
  -26.2275  -10.6557  155.7167 O   0  0  0  0  0  0  0  0  0  0  0  0
  -29.8818  -11.6728  155.8547 O   0  0  0  0  0  0  0  0  0  0  0  0
  -27.2093  -14.2052  154.4285 P   0  0  0  0  0  0  0  0  0  0  0  0
  -26.9035  -14.4088  152.7299 O   0  0  0  0  0  0  0  0  0  0  0  0
  -28.8446  -10.8605  155.8997 O   0  0  0  0  0  0  0  0  0  0  0  0
  -28.8529  -14.7628  154.3488 O   0  0  0  0  0  0  0  0  0  0  0  0
  -27.4557  -11.9089  155.9163 P   0  0  0  0  0  0  0  0  0  0  0  0
  -27.6126  -12.5231  154.2987 O   0  0  0  0  0  0  0  0  0  0  0  0
  2  1  1  0
  3  2  1  0
  4  2  1  0
  7  6  1  0
  8  5  1  0
  9  6  1  0
 10  4  1  0
 10  8  1  0
 11  6  1  0
 11 10  1  0
M  END
$$$$

     RDKit          3D

 11 13  0  0  0  0  0  0  0  0999 V2000
  -32.3793   -7.4410  145.2901 C   0  0  0  0  0  0  0  0  0  0  0  0
  -31.5234   -7.7860  146.5254 C   0  0  0  0  0  0  0  0  0  0  0  0
  -32.0036   -8.1224  143.9863 C   0  0  0  0  0  0  0  0  0  0  0  0
  -31.4102  -10.3336  146.2252 C   0  0  0  0  0  0  0  0  0  0  0  0
  -31.0456  -10.9227  148.5795 C   0  0  0  0  0  0  0  0  0  0  0  0
  -30.7598   -7.5182  143.3729 C   0  0  0  0  0  0  0  0  0  0  0  0
  -31.1639   -9.4109  148.4451 C   0  0  0  0  0  0  0  0  0  0  0  0
  -31.6524   -6.6392  144.2221 C   0  0  0  0  0  0  0  0  0  0  0  0
  -33.8577   -7.0769  145.4961 C   0  0  0  0  0  0  0  0  0  0  0  0
  -31.8641   -9.1730  147.1104 C   0  0  0  0  0  0  0  0  0  0  0  0
  -31.1317  -11.4995  147.1672 C   0  0  0  0  0  0  0  0  0  0  0  0
  2  1  1  0
  3  1  1  0
  6  3  1  0
  7  5  1  0
  8  1  1  0
  8  3  1  0
  8  6  1  0
  9  1  1  0
 10  2  1  0
 10  4  1  0
 10  7  1  0
 11  4  1  0
 11  5  1  0
M  END
$$$$

     RDKit          3D

 11 15  0  0  0  0  0  0  0  0999 V2000
  -25.6162  -21.6544  142.5491 C   0  0  0  0  0  0  0  0  0  0  0  0
  -27.1114  -21.4152  142.5540 C   0  0  0  0  0  0  0  0  0  0  0  0
  -24.8323  -20.3709  142.7328 C   0  0  0  0  0  0  0  0  0  0  0  0
  -27.6379  -20.8295  141.2471 C   0  0  0  0  0  0  0  0  0  0  0  0
  -26.2184  -20.4705  143.3313 C   0  0  0  0  0  0  0  0  0  0  0  0
  -29.0160  -21.3411  140.8726 C   0  0  0  0  0  0  0  0  0  0  0  0
  -29.2589  -21.3372  139.3530 C   0  0  0  0  0  0  0  0  0  0  0  0
  -28.6605  -22.5415  138.6365 C   0  0  0  0  0  0  0  0  0  0  0  0
  -30.1609  -22.4688  138.8755 C   0  0  0  0  0  0  0  0  0  0  0  0
  -30.1240  -20.6547  141.6500 C   0  0  0  0  0  0  0  0  0  0  0  0
  -28.8244  -19.9084  141.4376 C   0  0  0  0  0  0  0  0  0  0  0  0
  2  1  1  0
  3  1  1  0
  4  2  1  0
  5  1  1  0
  5  2  1  0
  5  3  1  0
  6  4  1  0
  7  6  1  0
  8  7  1  0
  9  7  1  0
  9  8  1  0
 10  6  1  0
 11  4  1  0
 11  6  1  0
 11 10  1  0
M  END
$$$$

     RDKit          3D

 11 13  0  0  0  0  0  0  0  0999 V2000
  -25.0387  -14.1028  143.0918 O   0  0  0  0  0  0  0  0  0  0  0  0
  -26.3951  -13.8706  142.8513 C   0  0  0  0  0  0  0  0  0  0  0  0
  -26.9462  -13.2446  143.9704 O   0  0  0  0  0  0  0  0  0  0  0  0
  -25.2858  -13.0063  142.2500 C   0  0  0  0  0  0  0  0  0  0  0  0
  -26.6697  -13.0384  141.6316 C   0  0  0  0  0  0  0  0  0  0  0  0
  -26.8460  -13.8752  140.3547 C   0  0  0  0  0  0  0  0  0  0  0  0
  -28.5157  -15.0806  138.8914 C   0  0  0  0  0  0  0  0  0  0  0  0
  -29.9894  -15.4792  138.7399 C   0  0  0  0  0  0  0  0  0  0  0  0
  -30.8633  -14.4941  137.9783 C   0  0  0  0  0  0  0  0  0  0  0  0
  -28.3161  -14.2633  140.1708 C   0  0  0  0  0  0  0  0  0  0  0  0
  -30.4273  -15.7933  137.3176 C   0  0  0  0  0  0  0  0  0  0  0  0
  2  1  1  0
  3  2  1  0
  4  1  1  0
  4  2  1  0
  5  2  1  0
  5  4  1  0
  6  5  1  0
  8  7  1  0
  9  8  1  0
 10  6  1  0
 10  7  1  0
 11  8  1  0
 11  9  1  0
M  END
$$$$

     RDKit          3D

 11 15  0  0  0  0  0  0  0  0999 V2000
  -23.3973    0.7570  146.3420 O   0  0  0  0  0  0  0  0  0  0  0  0
  -22.1432    1.3098  146.0721 C   0  0  0  0  0  0  0  0  0  0  0  0
  -22.3785   -0.1582  146.5743 C   0  0  0  0  0  0  0  0  0  0  0  0
  -23.0915   -1.5312  146.3814 C   0  0  0  0  0  0  0  0  0  0  0  0
  -21.9825   -1.1362  145.4414 C   0  0  0  0  0  0  0  0  0  0  0  0
  -23.1002   -2.0318  144.9427 C   0  0  0  0  0  0  0  0  0  0  0  0
  -24.4190   -1.7230  145.6181 C   0  0  0  0  0  0  0  0  0  0  0  0
  -20.6923   -1.8972  145.7742 C   0  0  0  0  0  0  0  0  0  0  0  0
  -25.1888   -0.6194  144.8829 C   0  0  0  0  0  0  0  0  0  0  0  0
  -21.8081    1.4004  144.5551 C   0  0  0  0  0  0  0  0  0  0  0  0
  -22.5723    2.5008  145.1914 C   0  0  0  0  0  0  0  0  0  0  0  0
  2  1  1  0
  3  1  1  0
  3  2  1  0
  4  3  1  0
  5  3  1  0
  5  4  1  0
  6  4  1  0
  6  5  1  0
  7  4  1  0
  7  6  1  0
  8  5  1  0
  9  7  1  0
 10  2  1  0
 11  2  1  0
 11 10  1  0
M  END
$$$$

     RDKit          3D

 11 15  0  0  0  0  0  0  0  0999 V2000
  -24.0523  -18.8226  143.6081 O   0  0  0  0  0  0  0  0  0  0  0  0
  -23.0307  -18.2414  144.3703 C   0  0  0  0  0  0  0  0  0  0  0  0
  -23.1645  -16.7197  144.7092 C   0  0  0  0  0  0  0  0  0  0  0  0
  -24.4752  -15.9021  144.4745 C   0  0  0  0  0  0  0  0  0  0  0  0
  -25.8606  -16.4621  144.0881 C   0  0  0  0  0  0  0  0  0  0  0  0
  -23.4243  -17.8508  145.7592 C   0  0  0  0  0  0  0  0  0  0  0  0
  -26.5948  -17.1056  145.2574 C   0  0  0  0  0  0  0  0  0  0  0  0
  -25.8130  -17.3488  146.5342 C   0  0  0  0  0  0  0  0  0  0  0  0
  -24.7557  -18.4095  146.3330 C   0  0  0  0  0  0  0  0  0  0  0  0
  -23.4941  -16.0527  143.3550 C   0  0  0  0  0  0  0  0  0  0  0  0
  -26.0219  -18.4747  145.5093 C   0  0  0  0  0  0  0  0  0  0  0  0
  2  1  1  0
  3  2  1  0
  4  3  1  0
  5  4  1  0
  6  2  1  0
  6  3  1  0
  7  5  1  0
  8  7  1  0
  9  6  1  0
  9  8  1  0
 10  3  1  0
 10  4  1  0
 11  7  1  0
 11  8  1  0
 11  9  1  0
M  END
$$$$

     RDKit          3D

 11 11  0  0  0  0  0  0  0  0999 V2000
  -22.1868   -4.0162  141.4902 O   0  0  0  0  0  0  0  0  0  0  0  0
  -22.9630   -3.8309  140.3359 C   0  0  0  0  0  0  0  0  0  0  0  0
  -24.0890   -4.6669  140.3790 O   0  0  0  0  0  0  0  0  0  0  0  0
  -22.1179   -4.1789  139.0931 C   0  0  0  0  0  0  0  0  0  0  0  0
  -21.2694   -5.4704  139.0688 C   0  0  0  0  0  0  0  0  0  0  0  0
  -22.6873   -3.7248  137.7535 C   0  0  0  0  0  0  0  0  0  0  0  0
  -22.1417   -6.7323  139.1349 C   0  0  0  0  0  0  0  0  0  0  0  0
  -21.5002   -2.9874  138.3627 C   0  0  0  0  0  0  0  0  0  0  0  0
  -20.7022   -8.0671  137.7137 O   0  0  0  0  0  0  0  0  0  0  0  0
  -21.3067   -8.0122  138.9816 C   0  0  0  0  0  0  0  0  0  0  0  0
  -22.1305   -9.1327  139.1722 O   0  0  0  0  0  0  0  0  0  0  0  0
  2  1  1  0
  3  2  1  0
  4  2  1  0
  5  4  1  0
  6  4  1  0
  7  5  1  0
  8  4  1  0
  8  6  1  0
 10  7  1  0
 10  9  1  0
 11 10  1  0
M  END
$$$$

     RDKit          3D

 10 12  0  0  0  0  0  0  0  0999 V2000
  -28.3603  -10.2173  136.4455 O   0  0  0  0  0  0  0  0  0  0  0  0
  -27.8323   -8.9707  136.0893 C   0  0  0  0  0  0  0  0  0  0  0  0
  -28.8017   -8.0904  135.3248 C   0  0  0  0  0  0  0  0  0  0  0  0
  -29.7594   -7.3214  136.2236 C   0  0  0  0  0  0  0  0  0  0  0  0
  -28.4875   -7.8381  136.8363 C   0  0  0  0  0  0  0  0  0  0  0  0
  -29.6742   -5.7913  136.2366 C   0  0  0  0  0  0  0  0  0  0  0  0
  -28.2019   -5.4192  136.3597 C   0  0  0  0  0  0  0  0  0  0  0  0
  -30.3502   -5.1149  135.1093 N   0  0  0  0  0  0  0  0  0  0  0  0
  -27.5457   -6.6306  137.0140 C   0  0  0  0  0  0  0  0  0  0  0  0
  -30.0970   -5.7060  133.7901 C   0  0  0  0  0  0  0  0  0  0  0  0
  2  1  1  0
  3  2  1  0
  4  3  1  0
  5  2  1  0
  5  3  1  0
  5  4  1  0
  6  4  1  0
  7  6  1  0
  8  6  1  0
  9  5  1  0
  9  7  1  0
 10  8  1  0
M  END
$$$$

     RDKit          3D

  5  4  0  0  0  0  0  0  0  0999 V2000
  -19.9042    3.4040  141.0108 O   0  0  0  0  0  0  0  0  0  0  0  0
  -21.2741    4.4772  139.2885 P   0  0  0  0  0  0  0  0  0  0  0  0
  -22.9893    4.2679  139.5333 O   0  0  0  0  0  0  0  0  0  0  0  0
  -20.7619    3.0120  140.0869 O   0  0  0  0  0  0  0  0  0  0  0  0
  -23.1324    3.9877  140.8142 O   0  0  0  0  0  0  0  0  0  0  0  0
  3  2  1  0
  4  1  1  0
  4  2  1  0
  5  3  1  0
M  END
$$$$

     RDKit          3D

 11 12  0  0  0  0  0  0  0  0999 V2000
  -34.1209   -4.3550  144.4291 O   0  0  0  0  0  0  0  0  0  0  0  0
  -33.4845   -5.0156  143.4034 C   0  0  0  0  0  0  0  0  0  0  0  0
  -33.0889   -4.4352  142.3591 O   0  0  0  0  0  0  0  0  0  0  0  0
  -33.7773   -6.5951  145.1283 C   0  0  0  0  0  0  0  0  0  0  0  0
  -34.5226   -5.2610  145.4436 C   0  0  0  0  0  0  0  0  0  0  0  0
  -32.5687   -6.8769  146.0376 C   0  0  0  0  0  0  0  0  0  0  0  0
  -33.3277   -6.4619  143.6575 C   0  0  0  0  0  0  0  0  0  0  0  0
  -34.3364   -4.7179  146.8831 C   0  0  0  0  0  0  0  0  0  0  0  0
  -33.2714   -3.6681  147.2011 C   0  0  0  0  0  0  0  0  0  0  0  0
  -32.4932   -3.2288  146.1254 O   0  0  0  0  0  0  0  0  0  0  0  0
  -34.7303   -3.2552  147.0696 C   0  0  0  0  0  0  0  0  0  0  0  0
  2  1  1  0
  3  2  2  0
  5  1  1  0
  5  4  1  0
  6  4  1  0
  7  2  1  0
  7  4  1  0
  8  5  1  0
  9  8  1  0
 10  9  1  0
 11  8  1  0
 11  9  1  0
M  END
$$$$

     RDKit          3D

 10 11  0  0  0  0  0  0  0  0999 V2000
  -29.0834  -17.0851  136.6445 O   0  0  0  0  0  0  0  0  0  0  0  0
  -28.9561  -17.1298  133.5358 O   0  0  0  0  0  0  0  0  0  0  0  0
  -29.8186  -15.1909  132.6219 O   0  0  0  0  0  0  0  0  0  0  0  0
  -29.9638  -16.1536  133.6358 C   0  0  0  0  0  0  0  0  0  0  0  0
  -30.2644  -16.5215  136.1200 C   0  0  0  0  0  0  0  0  0  0  0  0
  -29.7754  -16.1813  137.4765 C   0  0  0  0  0  0  0  0  0  0  0  0
  -30.4720  -16.9116  138.6236 C   0  0  0  0  0  0  0  0  0  0  0  0
  -29.9728  -15.4917  135.0248 C   0  0  0  0  0  0  0  0  0  0  0  0
  -29.9337  -16.5795  140.0056 C   0  0  0  0  0  0  0  0  0  0  0  0
  -31.2625  -16.0009  139.5479 C   0  0  0  0  0  0  0  0  0  0  0  0
  4  2  1  0
  4  3  1  0
  5  1  1  0
  6  1  1  0
  6  5  1  0
  7  6  1  0
  8  4  1  0
  8  5  1  0
  9  7  1  0
 10  7  1  0
 10  9  1  0
M  END
$$$$

     RDKit          3D

 11 14  0  0  0  0  0  0  0  0999 V2000
  -29.1743   -9.3286  134.2693 C   0  0  0  0  0  0  0  0  0  0  0  0
  -30.3172   -9.0725  135.2550 C   0  0  0  0  0  0  0  0  0  0  0  0
  -31.6016   -9.7849  134.8008 C   0  0  0  0  0  0  0  0  0  0  0  0
  -31.3716  -10.5693  133.5166 C   0  0  0  0  0  0  0  0  0  0  0  0
  -29.1530   -8.4817  132.9774 C   0  0  0  0  0  0  0  0  0  0  0  0
  -28.4437   -9.2307  131.8371 C   0  0  0  0  0  0  0  0  0  0  0  0
  -30.2290  -10.3920  134.4737 C   0  0  0  0  0  0  0  0  0  0  0  0
  -28.3027   -8.4691  130.5214 C   0  0  0  0  0  0  0  0  0  0  0  0
  -27.3239  -10.0152  132.1520 O   0  0  0  0  0  0  0  0  0  0  0  0
  -29.2551   -9.6592  130.6157 C   0  0  0  0  0  0  0  0  0  0  0  0
  -28.7899  -10.9187  129.8810 C   0  0  0  0  0  0  0  0  0  0  0  0
  2  1  1  0
  3  2  1  0
  4  3  1  0
  5  1  1  0
  6  5  1  0
  7  1  1  0
  7  2  1  0
  7  3  1  0
  7  4  1  0
  8  6  1  0
  9  6  1  0
 10  6  1  0
 10  8  1  0
 11 10  1  0
M  END
$$$$

     RDKit          3D

 11 11  0  0  0  0  0  0  0  0999 V2000
  -27.1175  -19.7200  133.8410 O   0  0  0  0  0  0  0  0  0  0  0  0
  -26.7401  -18.7165  134.7387 C   0  0  0  0  0  0  0  0  0  0  0  0
  -27.3150  -18.5869  135.8525 O   0  0  0  0  0  0  0  0  0  0  0  0
  -28.1250  -20.6903  134.1255 C   0  0  0  0  0  0  0  0  0  0  0  0
  -27.6137  -21.7550  135.1026 C   0  0  0  0  0  0  0  0  0  0  0  0
  -26.4379  -22.5487  134.5126 C   0  0  0  0  0  0  0  0  0  0  0  0
  -25.8759  -23.5756  135.5037 C   0  0  0  0  0  0  0  0  0  0  0  0
  -26.8678  -24.7344  135.7456 C   0  0  0  0  0  0  0  0  0  0  0  0
  -26.6337  -25.6077  136.8982 C   0  0  0  0  0  0  0  0  0  0  0  0
  -25.5412  -25.2722  137.7106 O   0  0  0  0  0  0  0  0  0  0  0  0
  -27.7113  -24.5954  136.9565 N   0  0  0  0  0  0  0  0  0  0  0  0
  2  1  1  0
  3  2  2  0
  4  1  1  0
  5  4  1  0
  6  5  1  0
  7  6  1  0
  8  7  1  0
  9  8  1  0
 10  9  1  0
 11  8  1  0
 11  9  1  0
M  END
$$$$

     RDKit          3D

 11 13  0  0  0  0  0  0  0  0999 V2000
  -23.3643    3.0458  139.0779 O   0  0  0  0  0  0  0  0  0  0  0  0
  -24.6165    2.5369  138.6765 C   0  0  0  0  0  0  0  0  0  0  0  0
  -25.1117    3.3054  137.4212 C   0  0  0  0  0  0  0  0  0  0  0  0
  -24.5634    1.0023  138.4177 C   0  0  0  0  0  0  0  0  0  0  0  0
  -24.5749    0.3331  139.6456 O   0  0  0  0  0  0  0  0  0  0  0  0
  -26.4147    2.6743  136.8409 C   0  0  0  0  0  0  0  0  0  0  0  0
  -27.6177    3.5430  136.4759 C   0  0  0  0  0  0  0  0  0  0  0  0
  -27.6391    2.7129  137.7488 C   0  0  0  0  0  0  0  0  0  0  0  0
  -25.1898    4.8197  137.6973 C   0  0  0  0  0  0  0  0  0  0  0  0
  -23.4274    0.6022  137.5156 C   0  0  0  0  0  0  0  0  0  0  0  0
  -23.3328    0.2934  138.9926 C   0  0  0  0  0  0  0  0  0  0  0  0
  2  1  1  0
  3  2  1  0
  4  2  1  0
  5  4  1  0
  6  3  1  0
  7  6  1  0
  8  6  1  0
  8  7  1  0
  9  3  1  0
 10  4  1  0
 11  4  1  0
 11  5  1  0
 11 10  1  0
M  END
$$$$

     RDKit          3D

 11 12  0  0  0  0  0  0  0  0999 V2000
  -21.8578   -9.4377  137.4774 O   0  0  0  0  0  0  0  0  0  0  0  0
  -21.5214  -10.7682  137.1453 C   0  0  0  0  0  0  0  0  0  0  0  0
  -20.9854  -11.5641  138.3371 C   0  0  0  0  0  0  0  0  0  0  0  0
  -22.2314  -12.4422  138.3128 C   0  0  0  0  0  0  0  0  0  0  0  0
  -22.7642  -11.6532  137.1244 C   0  0  0  0  0  0  0  0  0  0  0  0
  -19.8298  -12.2789  137.9933 O   0  0  0  0  0  0  0  0  0  0  0  0
  -21.0060   -7.2266  137.6051 N   0  0  0  0  0  0  0  0  0  0  0  0
  -20.4217   -7.9470  138.7565 C   0  0  0  0  0  0  0  0  0  0  0  0
  -18.9667   -7.5749  139.0710 C   0  0  0  0  0  0  0  0  0  0  0  0
  -21.4089   -8.0548  139.9228 C   0  0  0  0  0  0  0  0  0  0  0  0
  -20.6784   -8.6663  137.5015 C   0  0  0  0  0  0  0  0  0  0  0  0
  2  1  1  0
  3  2  1  0
  4  3  1  0
  5  2  1  0
  5  4  1  0
  6  3  1  0
  8  7  1  0
  9  8  1  0
 10  8  1  0
 11  1  1  0
 11  7  1  0
 11  8  1  0
M  END
$$$$

     RDKit          3D

 11 10  0  0  0  0  0  0  0  0999 V2000
  -15.4715  -10.2954  147.0989 O   0  0  0  0  0  0  0  0  0  0  0  0
  -17.4457  -11.8553  145.4664 C   0  0  0  0  0  0  0  0  0  0  0  0
  -17.7669  -10.6298  146.4253 B   0  0  0  0  0  0  0  0  0  0  0  0
  -16.9488   -8.7575  148.1596 C   0  0  0  0  0  0  0  0  0  0  0  0
  -15.7854   -6.8979  146.8468 C   0  0  0  0  0  0  0  0  0  0  0  0
  -17.3233   -9.2613  149.5792 C   0  0  0  0  0  0  0  0  0  0  0  0
  -16.4010  -10.3233  150.2149 C   0  0  0  0  0  0  0  0  0  0  0  0
  -15.0245   -9.7923  150.6113 C   0  0  0  0  0  0  0  0  0  0  0  0
  -16.6220   -9.9006  147.2176 C   0  0  0  0  0  0  0  0  0  0  0  0
  -14.7068   -5.8188  146.8851 C   0  0  0  0  0  0  0  0  0  0  0  0
  -15.8509   -7.6654  148.1765 C   0  0  0  0  0  0  0  0  0  0  0  0
  3  2  1  0
  6  4  1  0
  7  6  1  0
  8  7  1  0
  9  1  2  0
  9  3  1  0
  9  4  1  0
 10  5  1  0
 11  4  1  0
 11  5  1  0
M  END
$$$$

     RDKit          3D

 10 11  0  0  0  0  0  0  0  0999 V2000
  -20.8310  -15.7957  154.0991 O   0  0  0  0  0  0  0  0  0  0  0  0
  -19.4571  -16.0066  154.3184 C   0  0  0  0  0  0  0  0  0  0  0  0
  -18.7336  -14.6792  154.6602 C   0  0  0  0  0  0  0  0  0  0  0  0
  -19.1765  -13.5380  153.7291 C   0  0  0  0  0  0  0  0  0  0  0  0
  -18.8216  -14.2696  156.1500 C   0  0  0  0  0  0  0  0  0  0  0  0
  -20.2284  -14.3853  156.7584 C   0  0  0  0  0  0  0  0  0  0  0  0
  -19.2307  -17.0775  155.4027 C   0  0  0  0  0  0  0  0  0  0  0  0
  -20.7135  -15.7892  157.1835 C   0  0  0  0  0  0  0  0  0  0  0  0
  -20.2709  -17.0466  156.5389 C   0  0  0  0  0  0  0  0  0  0  0  0
  -19.5073  -16.7458  158.1988 S   0  0  0  0  0  0  0  0  0  0  0  0
  2  1  1  0
  3  2  1  0
  4  3  1  0
  5  3  1  0
  6  5  1  0
  7  2  1  0
  8  6  1  0
  9  7  1  0
  9  8  1  0
 10  8  1  0
 10  9  1  0
M  END
$$$$

     RDKit          3D

 11 13  0  0  0  0  0  0  0  0999 V2000
  -30.6865   -3.0326  139.7667 O   0  0  0  0  0  0  0  0  0  0  0  0
  -29.5582   -2.4029  139.1744 C   0  0  0  0  0  0  0  0  0  0  0  0
  -29.0384   -1.4098  140.0143 O   0  0  0  0  0  0  0  0  0  0  0  0
  -31.3961   -2.8358  138.5720 C   0  0  0  0  0  0  0  0  0  0  0  0
  -30.4072   -1.8235  138.0659 C   0  0  0  0  0  0  0  0  0  0  0  0
  -30.3857   -1.9922  136.5569 C   0  0  0  0  0  0  0  0  0  0  0  0
  -31.8199   -1.5934  136.0658 C   0  0  0  0  0  0  0  0  0  0  0  0
  -32.8801   -2.6816  135.9052 C   0  0  0  0  0  0  0  0  0  0  0  0
  -33.0316   -1.6727  137.0514 C   0  0  0  0  0  0  0  0  0  0  0  0
  -31.9144   -0.5733  135.1129 O   0  0  0  0  0  0  0  0  0  0  0  0
  -32.7857   -2.2181  138.5048 C   0  0  0  0  0  0  0  0  0  0  0  0
  2  1  1  0
  3  2  1  0
  4  1  1  0
  5  2  1  0
  5  4  1  0
  6  5  1  0
  7  6  1  0
  8  7  1  0
  9  7  1  0
  9  8  1  0
 10  7  1  0
 11  4  1  0
 11  9  1  0
M  END
$$$$

     RDKit          3D

 11 11  0  0  0  0  0  0  0  0999 V2000
  -30.0226   -1.8742  141.3225 O   0  0  0  0  0  0  0  0  0  0  0  0
  -30.4833   -3.9460  140.2309 C   0  0  0  0  0  0  0  0  0  0  0  0
  -31.3041   -4.8959  140.1237 O   0  0  0  0  0  0  0  0  0  0  0  0
  -29.1857   -4.0153  139.4488 C   0  0  0  0  0  0  0  0  0  0  0  0
  -28.6953   -2.7267  139.1236 O   0  0  0  0  0  0  0  0  0  0  0  0
  -29.3731   -2.2351  137.9902 C   0  0  0  0  0  0  0  0  0  0  0  0
  -30.8160   -2.8347  141.1400 C   0  0  0  0  0  0  0  0  0  0  0  0
  -28.6181   -1.2060  137.2496 C   0  0  0  0  0  0  0  0  0  0  0  0
  -28.6858   -2.5408  136.8007 O   0  0  0  0  0  0  0  0  0  0  0  0
  -28.1094   -4.7961  140.2256 C   0  0  0  0  0  0  0  0  0  0  0  0
  -27.6585   -4.1092  141.5162 C   0  0  0  0  0  0  0  0  0  0  0  0
  3  2  2  0
  4  2  1  0
  5  4  1  0
  6  5  1  0
  7  1  2  0
  7  2  1  0
  8  6  1  0
  9  6  1  0
  9  8  1  0
 10  4  1  0
 11 10  1  0
M  END
$$$$

     RDKit          3D

 11 11  0  0  0  0  0  0  0  0999 V2000
  -26.8840   -9.5345  148.6263 O   0  0  0  0  0  0  0  0  0  0  0  0
  -26.8485  -10.8614  148.1848 C   0  0  0  0  0  0  0  0  0  0  0  0
  -27.1511  -11.7695  149.0034 O   0  0  0  0  0  0  0  0  0  0  0  0
  -26.3627  -11.2592  146.8161 C   0  0  0  0  0  0  0  0  0  0  0  0
  -24.2400  -12.2110  147.9244 C   0  0  0  0  0  0  0  0  0  0  0  0
  -24.0453  -10.1059  146.4893 C   0  0  0  0  0  0  0  0  0  0  0  0
  -24.3979   -8.9217  147.4142 C   0  0  0  0  0  0  0  0  0  0  0  0
  -24.8230  -11.4216  146.7392 C   0  0  0  0  0  0  0  0  0  0  0  0
  -26.9281   -8.3735  147.7964 C   0  0  0  0  0  0  0  0  0  0  0  0
  -25.6580   -8.1412  146.9332 C   0  0  0  0  0  0  0  0  0  0  0  0
  -25.3604   -6.6365  146.8312 C   0  0  0  0  0  0  0  0  0  0  0  0
  2  1  1  0
  3  2  2  0
  4  2  1  0
  7  6  1  0
  8  4  1  0
  8  5  1  0
  8  6  1  0
  9  1  1  0
 10  7  1  0
 10  9  1  0
 11 10  1  0
M  END
$$$$

     RDKit          3D

 11 12  0  0  0  0  0  0  0  0999 V2000
  -23.5802   -6.2233  152.2272 O   0  0  0  0  0  0  0  0  0  0  0  0
  -24.6457   -6.4846  151.3657 C   0  0  0  0  0  0  0  0  0  0  0  0
  -24.2559   -6.7904  150.0618 O   0  0  0  0  0  0  0  0  0  0  0  0
  -25.1027  -12.0204  150.9265 C   0  0  0  0  0  0  0  0  0  0  0  0
  -24.4166  -12.7379  151.9154 O   0  0  0  0  0  0  0  0  0  0  0  0
  -25.4626   -7.6684  151.9303 C   0  0  0  0  0  0  0  0  0  0  0  0
  -24.7142   -9.0146  152.0531 C   0  0  0  0  0  0  0  0  0  0  0  0
  -27.0183  -10.4247  150.4893 C   0  0  0  0  0  0  0  0  0  0  0  0
  -26.1845  -11.1294  151.5670 C   0  0  0  0  0  0  0  0  0  0  0  0
  -23.2096   -6.7593  150.9896 C   0  0  0  0  0  0  0  0  0  0  0  0
  -25.6166  -10.1380  152.6166 C   0  0  0  0  0  0  0  0  0  0  0  0
  2  1  1  0
  3  2  1  0
  5  4  1  0
  6  2  1  0
  7  6  1  0
  9  4  1  0
  9  8  1  0
 10  1  1  0
 10  2  1  0
 10  3  1  0
 11  7  1  0
 11  9  1  0
M  END
$$$$

     RDKit          3D

 11 12  0  0  0  0  0  0  0  0999 V2000
  -30.9515  -13.6196  143.6597 C   0  0  0  0  0  0  0  0  0  0  0  0
  -30.0575  -14.8878  145.7039 C   0  0  0  0  0  0  0  0  0  0  0  0
  -28.6028  -14.3998  145.6519 C   0  0  0  0  0  0  0  0  0  0  0  0
  -32.0892  -12.7663  143.0983 C   0  0  0  0  0  0  0  0  0  0  0  0
  -27.6544  -15.3969  146.3500 C   0  0  0  0  0  0  0  0  0  0  0  0
  -31.0582  -13.8442  145.1825 C   0  0  0  0  0  0  0  0  0  0  0  0
  -27.4418  -16.6432  145.6018 N   0  0  0  0  0  0  0  0  0  0  0  0
  -31.0869  -11.7041  142.6714 C   0  0  0  0  0  0  0  0  0  0  0  0
  -26.1894  -15.0006  146.2641 C   0  0  0  0  0  0  0  0  0  0  0  0
  -26.0202  -16.3058  145.5117 C   0  0  0  0  0  0  0  0  0  0  0  0
  -29.9506  -12.5410  143.2399 C   0  0  0  0  0  0  0  0  0  0  0  0
  3  2  1  0
  4  1  1  0
  5  3  1  0
  6  1  1  0
  6  2  1  0
  7  5  1  0
  8  4  1  0
  9  5  1  0
 10  7  1  0
 10  9  1  0
 11  1  1  0
 11  8  1  0
M  END
$$$$

     RDKit          3D

 11 10  0  0  0  0  0  0  0  0999 V2000
  -23.6976    3.7954  134.5261 O   0  0  0  0  0  0  0  0  0  0  0  0
  -26.3450    3.2246  134.2996 P   0  0  0  0  0  0  0  0  0  0  0  0
  -27.1291    1.4486  136.1539 O   0  0  0  0  0  0  0  0  0  0  0  0
  -24.2282    6.3236  135.2123 O   0  0  0  0  0  0  0  0  0  0  0  0
  -25.1631    5.4009  135.3442 O   0  0  0  0  0  0  0  0  0  0  0  0
  -27.7124    0.4257  132.9810 C   0  0  0  0  0  0  0  0  0  0  0  0
  -28.7792   -0.2181  132.0997 C   0  0  0  0  0  0  0  0  0  0  0  0
  -25.7151    2.0112  133.0130 C   0  0  0  0  0  0  0  0  0  0  0  0
  -26.8635    1.4250  132.1847 C   0  0  0  0  0  0  0  0  0  0  0  0
  -26.0361    2.2816  135.8855 C   0  0  0  0  0  0  0  0  0  0  0  0
  -24.9266    4.4513  134.3327 C   0  0  0  0  0  0  0  0  0  0  0  0
  5  4  1  0
  7  6  1  0
  8  2  1  0
  9  6  1  0
  9  8  1  0
 10  2  1  0
 10  3  1  0
 11  1  1  0
 11  2  1  0
 11  5  1  0
M  END
$$$$

     RDKit          3D

 11 12  0  0  0  0  0  0  0  0999 V2000
  -25.8891    3.6981  139.6430 F   0  0  0  0  0  0  0  0  0  0  0  0
  -25.9964    4.5179  138.5311 C   0  0  0  0  0  0  0  0  0  0  0  0
  -27.0667    4.1481  137.5099 C   0  0  0  0  0  0  0  0  0  0  0  0
  -27.9167    2.9085  137.8244 C   0  0  0  0  0  0  0  0  0  0  0  0
  -29.2009    2.9342  136.9915 C   0  0  0  0  0  0  0  0  0  0  0  0
  -30.0879    1.7203  137.2873 C   0  0  0  0  0  0  0  0  0  0  0  0
  -32.0228    0.4804  136.0945 C   0  0  0  0  0  0  0  0  0  0  0  0
  -31.3849    1.8101  136.4729 C   0  0  0  0  0  0  0  0  0  0  0  0
  -24.7259    5.1575  137.9782 C   0  0  0  0  0  0  0  0  0  0  0  0
  -31.2835    1.2953  135.0442 C   0  0  0  0  0  0  0  0  0  0  0  0
  -27.2787    5.3373  138.4481 C   0  0  0  0  0  0  0  0  0  0  0  0
  2  1  1  0
  3  2  1  0
  4  3  1  0
  5  4  1  0
  6  5  1  0
  8  6  1  0
  8  7  1  0
  9  2  1  0
 10  7  1  0
 10  8  1  0
 11  2  1  0
 11  3  1  0
M  END
$$$$

     RDKit          3D

 11 15  0  0  0  0  0  0  0  0999 V2000
  -30.3470   -8.5629  136.2801 O   0  0  0  0  0  0  0  0  0  0  0  0
  -30.1681   -9.9418  136.4462 C   0  0  0  0  0  0  0  0  0  0  0  0
  -29.6922  -10.6300  135.1834 C   0  0  0  0  0  0  0  0  0  0  0  0
  -31.5214   -9.3409  136.2081 C   0  0  0  0  0  0  0  0  0  0  0  0
  -30.7769  -10.7599  134.1425 C   0  0  0  0  0  0  0  0  0  0  0  0
  -30.8781   -9.4999  133.2610 C   0  0  0  0  0  0  0  0  0  0  0  0
  -32.2066   -9.2552  132.5387 C   0  0  0  0  0  0  0  0  0  0  0  0
  -33.3656  -10.2384  132.7576 C   0  0  0  0  0  0  0  0  0  0  0  0
  -31.1612  -10.7095  135.6305 C   0  0  0  0  0  0  0  0  0  0  0  0
  -31.0079   -9.7905  131.7626 C   0  0  0  0  0  0  0  0  0  0  0  0
  -32.5631   -7.7871  132.2907 C   0  0  0  0  0  0  0  0  0  0  0  0
  2  1  1  0
  3  2  1  0
  4  1  1  0
  4  2  1  0
  5  3  1  0
  6  5  1  0
  7  6  1  0
  8  7  1  0
  9  2  1  0
  9  3  1  0
  9  4  1  0
  9  5  1  0
 10  6  1  0
 10  7  1  0
 11  7  1  0
M  END
$$$$

     RDKit          3D

 11 13  0  0  0  0  0  0  0  0999 V2000
  -28.8660   -7.4627  142.6227 C   0  0  0  0  0  0  0  0  0  0  0  0
  -28.8707   -8.1252  144.0018 C   0  0  0  0  0  0  0  0  0  0  0  0
  -27.5043   -8.1411  144.6930 C   0  0  0  0  0  0  0  0  0  0  0  0
  -27.5358   -8.6760  146.1150 C   0  0  0  0  0  0  0  0  0  0  0  0
  -26.9647   -9.5295  144.9943 C   0  0  0  0  0  0  0  0  0  0  0  0
  -29.8481   -8.0433  141.6347 C   0  0  0  0  0  0  0  0  0  0  0  0
  -31.1690   -8.0931  141.8578 C   0  0  0  0  0  0  0  0  0  0  0  0
  -31.7694   -7.6954  143.1756 C   0  0  0  0  0  0  0  0  0  0  0  0
  -30.9858   -6.5473  143.8447 C   0  0  0  0  0  0  0  0  0  0  0  0
  -29.4480   -6.7189  143.8244 C   0  0  0  0  0  0  0  0  0  0  0  0
  -31.4610   -6.3431  145.2852 C   0  0  0  0  0  0  0  0  0  0  0  0
  2  1  1  0
  3  2  1  0
  4  3  1  0
  5  3  1  0
  5  4  1  0
  6  1  1  0
  7  6  2  0
  8  7  1  0
  9  8  1  0
 10  1  1  0
 10  2  1  0
 10  9  1  0
 11  9  1  0
M  END
$$$$

     RDKit          3D

 11 11  0  0  0  0  0  0  0  0999 V2000
  -17.4378   -5.4205  143.0942 C   0  0  0  0  0  0  0  0  0  0  0  0
  -17.7430   -6.8909  143.4186 C   0  0  0  0  0  0  0  0  0  0  0  0
  -16.3289   -5.0114  143.8503 O   0  0  0  0  0  0  0  0  0  0  0  0
  -17.1207   -5.2819  141.5955 C   0  0  0  0  0  0  0  0  0  0  0  0
  -18.5867   -7.0262  144.6210 N   0  0  0  0  0  0  0  0  0  0  0  0
  -19.1342   -7.3189  143.2809 C   0  0  0  0  0  0  0  0  0  0  0  0
  -16.9974   -3.8172  141.1363 C   0  0  0  0  0  0  0  0  0  0  0  0
  -15.7332   -3.1433  141.6499 C   0  0  0  0  0  0  0  0  0  0  0  0
  -14.5475   -3.5403  141.1589 C   0  0  0  0  0  0  0  0  0  0  0  0
  -15.7315   -2.0143  142.6709 C   0  0  0  0  0  0  0  0  0  0  0  0
  -17.1063   -1.5506  143.1497 C   0  0  0  0  0  0  0  0  0  0  0  0
  2  1  1  0
  3  1  1  0
  4  1  1  0
  5  2  1  0
  6  2  1  0
  6  5  1  0
  7  4  1  0
  8  7  1  0
  9  8  2  0
 10  8  1  0
 11 10  1  0
M  END
$$$$

     RDKit          3D

 11 11  0  0  0  0  0  0  0  0999 V2000
  -20.3042  -10.5162  143.8672 O   0  0  0  0  0  0  0  0  0  0  0  0
  -22.1099   -8.9488  143.9501 C   0  0  0  0  0  0  0  0  0  0  0  0
  -23.8490  -10.2483  145.0266 O   0  0  0  0  0  0  0  0  0  0  0  0
  -19.6471   -9.9734  141.0219 C   0  0  0  0  0  0  0  0  0  0  0  0
  -20.8236   -9.3914  143.2028 C   0  0  0  0  0  0  0  0  0  0  0  0
  -20.9932   -9.7166  141.6987 C   0  0  0  0  0  0  0  0  0  0  0  0
  -25.8527   -9.6909  141.7317 C   0  0  0  0  0  0  0  0  0  0  0  0
  -23.3525   -9.8310  143.7835 C   0  0  0  0  0  0  0  0  0  0  0  0
  -24.6260   -8.7851  141.7945 C   0  0  0  0  0  0  0  0  0  0  0  0
  -22.8716   -7.7551  143.3671 C   0  0  0  0  0  0  0  0  0  0  0  0
  -24.1281   -8.6219  143.2407 C   0  0  0  0  0  0  0  0  0  0  0  0
  5  1  1  0
  5  2  1  0
  6  4  1  0
  6  5  1  0
  8  2  1  0
  8  3  1  0
  9  7  1  0
 10  2  1  0
 11  8  1  0
 11  9  1  0
 11 10  1  0
M  END
$$$$

     RDKit          3D

 11 12  0  0  0  0  0  0  0  0999 V2000
  -31.1385   -4.6442  137.3051 O   0  0  0  0  0  0  0  0  0  0  0  0
  -31.9307   -4.8048  138.4440 C   0  0  0  0  0  0  0  0  0  0  0  0
  -31.0950   -4.9346  139.5543 O   0  0  0  0  0  0  0  0  0  0  0  0
  -31.7136   -3.4503  137.7690 C   0  0  0  0  0  0  0  0  0  0  0  0
  -32.9012   -3.6829  138.6836 C   0  0  0  0  0  0  0  0  0  0  0  0
  -34.2667   -3.8889  138.0021 C   0  0  0  0  0  0  0  0  0  0  0  0
  -35.3307   -4.4045  138.9937 C   0  0  0  0  0  0  0  0  0  0  0  0
  -36.6214   -4.2806  138.4399 O   0  0  0  0  0  0  0  0  0  0  0  0
  -36.6738   -5.0545  137.3627 F   0  0  0  0  0  0  0  0  0  0  0  0
  -35.0517   -5.8532  139.4528 C   0  0  0  0  0  0  0  0  0  0  0  0
  -36.1073   -6.3519  140.4379 C   0  0  0  0  0  0  0  0  0  0  0  0
  2  1  1  0
  3  2  1  0
  4  1  1  0
  4  2  1  0
  5  2  1  0
  5  4  1  0
  6  5  1  0
  7  6  1  0
  8  7  1  0
  9  8  1  0
 10  7  1  0
 11 10  1  0
M  END
$$$$

     RDKit          3D

 11 10  0  0  0  0  0  0  0  0999 V2000
  -27.2892   -5.9771  135.8552 O   0  0  0  0  0  0  0  0  0  0  0  0
  -27.5387   -7.3520  135.7406 C   0  0  0  0  0  0  0  0  0  0  0  0
  -28.8967   -7.6052  135.9956 O   0  0  0  0  0  0  0  0  0  0  0  0
  -28.0037   -7.1760  133.2312 C   0  0  0  0  0  0  0  0  0  0  0  0
  -27.5235   -7.5347  131.8086 C   0  0  0  0  0  0  0  0  0  0  0  0
  -27.1531   -7.8352  134.3335 C   0  0  0  0  0  0  0  0  0  0  0  0
  -27.2405   -9.4306  129.7883 P   0  0  0  0  0  6  0  0  0  0  0  0
  -28.1411   -6.6709  130.8886 O   0  0  0  0  0  0  0  0  0  0  0  0
  -27.9760   -8.4709  128.6050 O   0  0  0  0  0  0  0  0  0  0  0  0
  -25.7221   -9.2251  129.7406 O   0  0  0  0  0  0  0  0  0  0  0  0
  -27.8713   -8.9878  131.4411 C   0  0  0  0  0  0  0  0  0  0  0  0
  2  1  1  0
  3  2  1  0
  5  4  1  0
  6  2  1  0
  6  4  1  0
  8  5  1  0
  9  7  1  0
 10  7  2  0
 11  5  1  0
 11  7  1  0
M  RAD  1   7   2
M  END
$$$$

     RDKit          3D

  9 10  0  0  0  0  0  0  0  0999 V2000
  -28.5857   -5.1702  133.1339 C   0  0  0  0  0  0  0  0  0  0  0  0
  -27.3109   -6.0559  131.6329 C   0  0  0  0  0  0  0  0  0  0  0  0
  -27.3517   -6.0598  133.1623 C   0  0  0  0  0  0  0  0  0  0  0  0
  -27.5340   -7.4351  130.9787 C   0  0  0  0  0  0  0  0  0  0  0  0
  -28.5590   -5.1734  131.6124 C   0  0  0  0  0  0  0  0  0  0  0  0
  -26.2330   -8.2345  130.8159 C   0  0  0  0  0  0  0  0  0  0  0  0
  -25.6316   -8.6498  132.1675 C   0  0  0  0  0  0  0  0  0  0  0  0
  -24.8733   -9.9691  132.1615 C   0  0  0  0  0  0  0  0  0  0  0  0
  -26.2468   -9.8837  132.8093 C   0  0  0  0  0  0  0  0  0  0  0  0
  3  1  1  0
  3  2  1  0
  4  2  1  0
  5  1  1  0
  5  2  1  0
  6  4  1  0
  7  6  1  0
  8  7  1  0
  9  7  1  0
  9  8  1  0
M  END
$$$$

     RDKit          3D

 11 11  0  0  0  0  0  0  0  0999 V2000
  -22.2876  -10.9744  140.7890 O   0  0  0  0  0  0  0  0  0  0  0  0
  -22.4895  -12.4826  138.8905 C   0  0  0  0  0  0  0  0  0  0  0  0
  -21.6961  -13.8042  138.6200 C   0  0  0  0  0  0  0  0  0  0  0  0
  -19.8428  -12.8428  137.1941 N   0  0  0  0  0  0  0  0  0  0  0  0
  -20.7584  -13.9580  137.4006 C   0  0  0  0  0  0  0  0  0  0  0  0
  -21.5441  -10.2104  138.5844 C   0  0  0  0  0  0  0  0  0  0  0  0
  -23.2796  -11.7797  137.7585 C   0  0  0  0  0  0  0  0  0  0  0  0
  -21.5837   -8.8136  139.2256 C   0  0  0  0  0  0  0  0  0  0  0  0
  -21.6669  -11.3757  139.5877 C   0  0  0  0  0  0  0  0  0  0  0  0
  -23.4975  -12.5595  136.4562 C   0  0  0  0  0  0  0  0  0  0  0  0
  -22.6381  -10.4024  137.5264 C   0  0  0  0  0  0  0  0  0  0  0  0
  3  2  1  0
  5  3  1  0
  5  4  1  0
  7  2  1  0
  8  6  1  0
  9  1  1  0
  9  2  1  0
  9  6  1  0
 10  7  1  0
 11  6  1  0
 11  7  1  0
M  END
$$$$

     RDKit          3D

 11 11  0  0  0  0  0  0  0  0999 V2000
  -28.5966  -21.8388  135.3733 O   0  0  0  0  0  0  0  0  0  0  0  0
  -28.0368  -22.0933  134.2586 C   0  0  0  0  0  0  0  0  0  0  0  0
  -27.7340  -23.1062  134.9414 O   0  0  0  0  0  0  0  0  0  0  0  0
  -28.2466  -21.5094  132.8479 C   0  0  0  0  0  0  0  0  0  0  0  0
  -26.9577  -21.5190  132.0136 C   0  0  0  0  0  0  0  0  0  0  0  0
  -27.1564  -20.9667  130.6612 C   0  0  0  0  0  0  0  0  0  0  0  0
  -27.1275  -21.8031  129.5738 C   0  0  0  0  0  0  0  0  0  0  0  0
  -26.2381  -22.8630  129.5285 C   0  0  0  0  0  0  0  0  0  0  0  0
  -26.0124  -23.6163  130.6722 C   0  0  0  0  0  0  0  0  0  0  0  0
  -26.7971  -23.3753  131.8004 C   0  0  0  0  0  0  0  0  0  0  0  0
  -26.7302  -22.1226  132.5698 C   0  0  0  0  0  0  0  0  0  0  0  0
  2  1  1  0
  3  2  1  0
  4  2  1  0
  5  4  1  0
  6  5  1  0
  7  6  1  0
  8  7  1  0
  9  8  2  0
 10  9  1  0
 11  5  1  0
 11 10  1  0
M  END
$$$$

     RDKit          3D

 11 10  0  0  0  0  0  0  0  0999 V2000
  -22.3871  -10.4611  142.2721 O   0  0  0  0  0  0  0  0  0  0  0  0
  -22.8683   -6.8612  141.1948 C   0  0  0  0  0  0  0  0  0  0  0  0
  -24.1638   -7.0459  140.6483 O   0  0  0  0  0  0  0  0  0  0  0  0
  -23.0317   -8.7064  143.7473 C   0  0  0  0  0  0  0  0  0  0  0  0
  -22.9906   -9.1937  142.2965 C   0  0  0  0  0  0  0  0  0  0  0  0
  -22.0254   -6.0111  140.2573 C   0  0  0  0  0  0  0  0  0  0  0  0
  -22.0323   -6.2713  138.7730 C   0  0  0  0  0  0  0  0  0  0  0  0
  -21.2271   -5.0501  140.7470 C   0  0  0  0  0  0  0  0  0  0  0  0
  -22.1964   -8.2351  141.3816 C   0  0  0  0  0  0  0  0  0  0  0  0
  -25.0127   -5.9758  141.0092 C   0  0  0  0  0  0  0  0  0  0  0  0
  -26.3368   -6.1228  140.2770 C   0  0  0  0  0  0  0  0  0  0  0  0
  3  2  1  0
  5  1  1  0
  5  4  1  0
  6  2  1  0
  7  6  1  0
  8  6  2  0
  9  2  1  0
  9  5  1  0
 10  3  1  0
 11 10  1  0
M  END
$$$$

     RDKit          3D

 11 11  0  0  0  0  0  0  0  0999 V2000
  -25.3244  -12.1581  135.0230 O   0  0  0  0  0  0  0  0  0  0  0  0
  -26.3218  -13.1490  135.0484 C   0  0  0  0  0  0  0  0  0  0  0  0
  -26.2383  -13.8835  133.8503 O   0  0  0  0  0  0  0  0  0  0  0  0
  -27.7279  -12.4908  135.2144 C   0  0  0  0  0  0  0  0  0  0  0  0
  -29.2447  -12.9496  132.6266 O   0  0  0  0  0  0  0  0  0  0  0  0
  -28.1993  -11.4118  134.2386 C   0  0  0  0  0  0  0  0  0  0  0  0
  -28.7716  -13.3679  134.8471 O   0  0  0  0  0  0  0  0  0  0  0  0
  -29.2866  -12.4304  133.9281 C   0  0  0  0  0  0  0  0  0  0  0  0
  -27.2940  -10.9516  133.0762 C   0  0  0  0  0  0  0  0  0  0  0  0
  -26.8542  -11.9830  132.2690 F   0  0  0  0  0  0  0  0  0  0  0  0
  -26.0450  -14.0947  136.2347 C   0  0  0  0  0  0  0  0  0  0  0  0
  2  1  1  0
  3  2  1  0
  4  2  1  0
  6  4  1  0
  7  4  1  0
  8  5  1  0
  8  6  1  0
  8  7  1  0
  9  6  1  0
 10  9  1  0
 11  2  1  0
M  END
$$$$

     RDKit          3D

 11 13  0  0  0  0  0  0  0  0999 V2000
  -23.4634  -22.2086  141.2527 C   0  0  0  0  0  0  0  0  0  0  0  0
  -23.2778  -19.7511  141.5518 N   0  0  0  0  0  0  0  0  0  0  0  0
  -23.8367  -22.4261  142.6594 N   0  0  0  0  0  0  0  0  0  0  0  0
  -23.6714  -20.8353  140.7186 N   0  0  0  0  0  0  0  0  0  0  0  0
  -25.2612  -22.6259  142.9282 C   0  0  0  0  0  0  0  0  0  0  0  0
  -26.1123  -21.3800  142.6383 C   0  0  0  0  0  0  0  0  0  0  0  0
  -25.3906  -18.8815  142.6856 C   0  0  0  0  0  0  0  0  0  0  0  0
  -24.5916  -19.1154  141.3875 C   0  0  0  0  0  0  0  0  0  0  0  0
  -25.0258  -20.2975  140.5522 C   0  0  0  0  0  0  0  0  0  0  0  0
  -25.6867  -20.1537  143.4934 C   0  0  0  0  0  0  0  0  0  0  0  0
  -26.1998  -21.1076  141.1260 C   0  0  0  0  0  0  0  0  0  0  0  0
  3  1  1  0
  4  1  1  0
  4  2  1  0
  5  3  1  0
  6  5  1  0
  8  2  1  0
  8  7  1  0
  9  4  1  0
  9  8  1  0
 10  6  1  0
 10  7  1  0
 11  6  1  0
 11  9  1  0
M  END
$$$$

     RDKit          3D

 11 14  0  0  0  0  0  0  0  0999 V2000
  -25.7690    4.5009  138.7621 O   0  0  0  0  0  0  0  0  0  0  0  0
  -26.4334    4.4603  140.0029 C   0  0  0  0  0  0  0  0  0  0  0  0
  -25.8626    5.3762  140.9019 O   0  0  0  0  0  0  0  0  0  0  0  0
  -27.1814    3.2573  140.5942 C   0  0  0  0  0  0  0  0  0  0  0  0
  -28.1364    3.9050  141.5807 C   0  0  0  0  0  0  0  0  0  0  0  0
  -29.4936    4.2410  141.0036 C   0  0  0  0  0  0  0  0  0  0  0  0
  -29.6542    5.4978  140.0769 C   0  0  0  0  0  0  0  0  0  0  0  0
  -28.7040    3.0534  140.4407 C   0  0  0  0  0  0  0  0  0  0  0  0
  -28.5327    6.5813  140.0989 C   0  0  0  0  0  0  0  0  0  0  0  0
  -27.4685    6.4510  138.9690 C   0  0  0  0  0  0  0  0  0  0  0  0
  -27.0958    4.9853  138.7730 C   0  0  0  0  0  0  0  0  0  0  0  0
  2  1  1  0
  3  2  1  0
  4  2  1  0
  5  4  1  0
  6  5  1  0
  7  6  1  0
  8  4  1  0
  8  5  1  0
  8  6  1  0
  9  7  1  0
 10  9  1  0
 11  1  1  0
 11  2  1  0
 11 10  1  0
M  END
$$$$

     RDKit          3D

 11 12  0  0  0  0  0  0  0  0999 V2000
  -24.8964  -15.5346  142.7528 C   0  0  0  0  0  0  0  0  0  0  0  0
  -24.0338  -16.2691  143.7938 N   0  0  0  0  0  0  0  0  0  0  0  0
  -24.1435  -15.1774  141.6308 O   0  0  0  0  0  0  0  0  0  0  0  0
  -22.7302  -16.9319  144.0369 C   0  0  0  0  0  0  0  0  0  0  0  0
  -24.6126  -14.8565  143.9336 C   0  0  0  0  0  0  0  0  0  0  0  0
  -23.4200  -13.8902  144.0082 C   0  0  0  0  0  0  0  0  0  0  0  0
  -21.8437  -16.2598  144.9377 N   0  0  0  0  0  0  0  0  0  0  0  0
  -23.9364  -17.1601  144.2831 O   0  0  0  0  0  0  0  0  0  0  0  0
  -22.3503  -15.3202  145.9474 C   0  0  0  0  0  0  0  0  0  0  0  0
  -21.8956  -14.3473  142.5268 Mg  0  0  0  0  0  2  0  0  0  0  0  0
  -22.7008  -13.9228  145.3726 C   0  0  0  0  0  0  0  0  0  0  0  0
  2  1  1  0
  3  1  1  0
  4  2  1  0
  5  1  1  0
  5  2  1  0
  6  5  1  0
  7  4  1  0
  8  4  2  0
  9  7  1  0
 10  6  1  0
 11  6  1  0
 11  9  1  0
M  END
$$$$

     RDKit          3D

 11 13  0  0  0  0  0  0  0  0999 V2000
  -22.4930   -4.2574  140.6913 O   0  0  0  0  0  0  0  0  0  0  0  0
  -23.2450   -4.9510  141.6618 C   0  0  0  0  0  0  0  0  0  0  0  0
  -24.1107   -4.0783  142.3274 O   0  0  0  0  0  0  0  0  0  0  0  0
  -23.4834   -5.1370  140.2084 C   0  0  0  0  0  0  0  0  0  0  0  0
  -24.6604   -4.3863  139.5687 C   0  0  0  0  0  0  0  0  0  0  0  0
  -24.5035   -4.3720  138.0305 C   0  0  0  0  0  0  0  0  0  0  0  0
  -25.1688   -6.7645  138.2256 F   0  0  0  0  0  0  0  0  0  0  0  0
  -25.2732   -3.2314  137.4104 C   0  0  0  0  0  0  0  0  0  0  0  0
  -25.8621   -4.6225  137.2924 C   0  0  0  0  0  0  0  0  0  0  0  0
  -24.8129   -5.7089  137.4030 C   0  0  0  0  0  0  0  0  0  0  0  0
  -24.0991   -5.9873  136.2495 F   0  0  0  0  0  0  0  0  0  0  0  0
  2  1  1  0
  3  2  1  0
  4  1  1  0
  4  2  1  0
  5  4  1  0
  6  5  1  0
  8  6  1  0
  9  6  1  0
  9  8  1  0
 10  6  1  0
 10  7  1  0
 10  9  1  0
 11 10  1  0
M  END
$$$$

     RDKit          3D

 11 12  0  0  0  0  0  0  0  0999 V2000
  -21.6703   -6.5283  145.2531 O   0  0  0  0  0  0  0  0  0  0  0  0
  -22.9816   -6.1564  145.5976 C   0  0  0  0  0  0  0  0  0  0  0  0
  -23.9887   -6.7039  144.5391 C   0  0  0  0  0  0  0  0  0  0  0  0
  -24.1991   -5.7646  143.2931 C   0  0  0  0  0  0  0  0  0  0  0  0
  -24.6692   -4.3440  143.6205 C   0  0  0  0  0  0  0  0  0  0  0  0
  -23.4015   -3.7811  142.9908 C   0  0  0  0  0  0  0  0  0  0  0  0
  -22.9462   -5.1893  142.6282 C   0  0  0  0  0  0  0  0  0  0  0  0
  -23.6164   -8.1234  144.2595 N   0  0  0  0  0  0  0  0  0  0  0  0
  -23.4946   -8.5848  142.8536 C   0  0  0  0  0  0  0  0  0  0  0  0
  -24.7193   -8.8625  143.5984 C   0  0  0  0  0  0  0  0  0  0  0  0
  -23.3032   -6.7087  146.9927 C   0  0  0  0  0  0  0  0  0  0  0  0
  2  1  1  0
  3  2  1  0
  4  3  1  0
  5  4  1  0
  6  5  1  0
  7  4  1  0
  7  6  1  0
  8  3  1  0
  9  8  1  0
 10  8  1  0
 10  9  1  0
 11  2  1  0
M  END
$$$$

     RDKit          3D

 11 11  0  0  0  0  0  0  0  0999 V2000
  -20.1332   -5.8816  141.2953 C   0  0  0  0  0  0  0  0  0  0  0  0
  -18.3782   -4.4476  140.1571 N   0  0  0  0  0  0  0  0  0  0  0  0
  -17.1717   -4.1946  139.3618 C   0  0  0  0  0  0  0  0  0  0  0  0
  -21.3526   -5.7978  140.4988 N   0  0  0  0  0  0  0  0  0  0  0  0
  -15.9921   -4.7327  140.0587 N   0  0  0  0  0  0  0  0  0  0  0  0
  -18.4403   -6.8544  139.8049 C   0  0  0  0  0  0  0  0  0  0  0  0
  -18.9272   -5.7585  140.4025 C   0  0  0  0  0  0  0  0  0  0  0  0
  -15.1284   -3.5808  140.3639 C   0  0  0  0  0  0  0  0  0  0  0  0
  -15.7908   -2.3915  139.7827 C   0  0  0  0  0  0  0  0  0  0  0  0
  -16.9243   -2.7395  139.2278 C   0  0  0  0  0  0  0  0  0  0  0  0
  -17.7897   -1.8544  138.5900 O   0  0  0  0  0  0  0  0  0  0  0  0
  3  2  1  0
  4  1  1  0
  5  3  1  0
  7  1  1  0
  7  2  1  0
  7  6  2  0
  8  5  1  0
  9  8  1  0
 10  3  1  0
 10  9  2  0
 11 10  1  0
M  END
$$$$

     RDKit          3D

 10 12  0  0  0  0  0  0  0  0999 V2000
  -24.8931   -7.8732  145.1728 C   0  0  0  0  0  0  0  0  0  0  0  0
  -23.5828   -9.5748  144.0907 N   0  0  0  0  0  0  0  0  0  0  0  0
  -26.1705   -8.7234  145.3547 C   0  0  0  0  0  0  0  0  0  0  0  0
  -22.6661   -7.4601  144.4311 C   0  0  0  0  0  0  0  0  0  0  0  0
  -23.4908   -8.5413  145.1573 C   0  0  0  0  0  0  0  0  0  0  0  0
  -26.6072   -9.2115  144.1334 F   0  0  0  0  0  0  0  0  0  0  0  0
  -27.1737   -7.9186  145.8707 F   0  0  0  0  0  0  0  0  0  0  0  0
  -24.9373   -6.5609  145.6231 F   0  0  0  0  0  0  0  0  0  0  0  0
  -23.9652   -8.1416  143.9575 C   0  0  0  0  0  0  0  0  0  0  0  0
  -25.9292   -9.8331  146.2745 N   0  0  0  0  0  0  0  0  0  0  0  0
  3  1  1  0
  5  1  1  0
  5  2  1  0
  5  4  1  0
  6  3  1  0
  7  3  1  0
  8  1  1  0
  9  1  1  0
  9  2  1  0
  9  4  1  0
  9  5  1  0
 10  3  1  0
M  END
$$$$

     RDKit          3D

 11 12  0  0  0  0  0  0  0  0999 V2000
  -25.9828  -14.0673  144.5994 O   0  0  0  0  0  0  0  0  0  0  0  0
  -25.6690  -15.4121  144.8207 C   0  0  0  0  0  0  0  0  0  0  0  0
  -24.6673  -15.9475  144.2751 O   0  0  0  0  0  0  0  0  0  0  0  0
  -25.1860  -13.1905  143.7998 C   0  0  0  0  0  0  0  0  0  0  0  0
  -26.0192  -11.9576  143.3970 C   0  0  0  0  0  0  0  0  0  0  0  0
  -23.8993  -12.8098  144.5404 C   0  0  0  0  0  0  0  0  0  0  0  0
  -26.5448  -11.1241  144.5844 C   0  0  0  0  0  0  0  0  0  0  0  0
  -25.6192   -9.9388  144.9059 C   0  0  0  0  0  0  0  0  0  0  0  0
  -26.3366   -8.7603  145.5314 C   0  0  0  0  0  0  0  0  0  0  0  0
  -26.0610   -7.4448  144.8366 C   0  0  0  0  0  0  0  0  0  0  0  0
  -25.7966   -8.7026  144.0643 C   0  0  0  0  0  0  0  0  0  0  0  0
  2  1  1  0
  3  2  2  0
  4  1  1  0
  5  4  1  0
  6  4  1  0
  7  5  1  0
  8  7  1  0
  9  8  1  0
 10  9  1  0
 11  8  1  0
 11  9  1  0
 11 10  1  0
M  END
$$$$

     RDKit          3D

 11 13  0  0  0  0  0  0  0  0999 V2000
  -29.2271  -11.7436  138.3318 O   0  0  0  0  0  0  0  0  0  0  0  0
  -29.6219  -12.6946  139.2748 C   0  0  0  0  0  0  0  0  0  0  0  0
  -29.6021  -12.3361  140.6283 C   0  0  0  0  0  0  0  0  0  0  0  0
  -30.0282  -13.9969  138.9001 C   0  0  0  0  0  0  0  0  0  0  0  0
  -30.3531  -14.9283  139.9034 C   0  0  0  0  0  0  0  0  0  0  0  0
  -29.9547  -13.2625  141.6118 C   0  0  0  0  0  0  0  0  0  0  0  0
  -30.3236  -14.5587  141.2501 C   0  0  0  0  0  0  0  0  0  0  0  0
  -30.0541  -14.4186  137.4537 C   0  0  0  0  0  0  0  0  0  0  0  0
  -31.2720  -15.2225  137.0364 C   0  0  0  0  0  0  0  0  0  0  0  0
  -32.5040  -14.3568  136.8962 C   0  0  0  0  0  0  0  0  0  0  0  0
  -31.1452  -13.7417  136.6462 C   0  0  0  0  0  0  0  0  0  0  0  0
  2  1  1  0
  3  2  4  0
  4  2  4  0
  5  4  4  0
  6  3  4  0
  7  5  4  0
  7  6  4  0
  8  4  1  0
  9  8  1  0
 10  9  1  0
 11  8  1  0
 11  9  1  0
 11 10  1  0
M  END
$$$$

     RDKit          3D

 11 11  0  0  0  0  0  0  0  0999 V2000
  -31.6159  -20.1328  147.3722 O   0  0  0  0  0  0  0  0  0  0  0  0
  -30.4091  -20.5770  147.9353 C   0  0  0  0  0  0  0  0  0  0  0  0
  -29.8080  -19.5297  148.6495 O   0  0  0  0  0  0  0  0  0  0  0  0
  -29.4584  -21.0285  146.8220 C   0  0  0  0  0  0  0  0  0  0  0  0
  -29.9969  -22.2635  146.0801 C   0  0  0  0  0  0  0  0  0  0  0  0
  -29.0866  -21.8875  143.6911 C   0  0  0  0  0  0  0  0  0  0  0  0
  -30.3357  -22.1577  142.8418 C   0  0  0  0  0  0  0  0  0  0  0  0
  -29.0435  -22.7444  144.9701 C   0  0  0  0  0  0  0  0  0  0  0  0
  -30.3161  -21.2899  141.5767 C   0  0  0  0  0  0  0  0  0  0  0  0
  -29.6273  -21.9028  140.3671 C   0  0  0  0  0  0  0  0  0  0  0  0
  -31.1460  -21.8231  140.4190 C   0  0  0  0  0  0  0  0  0  0  0  0
  2  1  1  0
  3  2  1  0
  4  2  1  0
  5  4  1  0
  7  6  1  0
  8  5  1  0
  8  6  1  0
  9  7  1  0
 10  9  1  0
 11  9  1  0
 11 10  1  0
M  END
$$$$

     RDKit          3D

 11 11  0  0  0  0  0  0  0  0999 V2000
  -18.8107  -11.7395  144.2659 O   0  0  0  0  0  0  0  0  0  0  0  0
  -18.6481  -12.4629  143.0758 C   0  0  0  0  0  0  0  0  0  0  0  0
  -18.1215  -11.5645  141.9489 C   0  0  0  0  0  0  0  0  0  0  0  0
  -18.9994   -9.1715  142.3424 C   0  0  0  0  0  0  0  0  0  0  0  0
  -18.2630   -8.0359  141.5902 C   0  0  0  0  0  0  0  0  0  0  0  0
  -19.1288  -10.4770  141.5233 C   0  0  0  0  0  0  0  0  0  0  0  0
  -17.7964   -4.2599  142.3686 N   0  0  0  0  0  0  0  0  0  0  0  0
  -16.5702   -4.9520  141.9246 C   0  0  0  0  0  0  0  0  0  0  0  0
  -16.7925   -8.4020  141.3234 C   0  0  0  0  0  0  0  0  0  0  0  0
  -17.8773   -5.5110  141.5831 C   0  0  0  0  0  0  0  0  0  0  0  0
  -18.3623   -6.7249  142.4002 C   0  0  0  0  0  0  0  0  0  0  0  0
  2  1  1  0
  3  2  1  0
  5  4  1  0
  6  3  1  0
  6  4  1  0
  8  7  1  0
  9  5  1  0
 10  7  1  0
 10  8  1  0
 11  5  1  0
 11 10  1  0
M  END
$$$$

     RDKit          3D

 11 12  0  0  0  0  0  0  0  0999 V2000
  -16.9377  -10.5013  141.2888 O   0  0  0  0  0  0  0  0  0  0  0  0
  -16.7195  -10.5373  142.6716 C   0  0  0  0  0  0  0  0  0  0  0  0
  -16.7773  -13.1750  142.8440 C   0  0  0  0  0  0  0  0  0  0  0  0
  -17.3662  -11.8005  143.2594 C   0  0  0  0  0  0  0  0  0  0  0  0
  -18.8830  -11.7017  143.3910 C   0  0  0  0  0  0  0  0  0  0  0  0
  -14.4036  -12.8943  144.2322 S   0  0  0  0  0  5  0  0  0  0  0  0
  -19.5686  -12.8032  144.1571 C   0  0  0  0  0  0  0  0  0  0  0  0
  -14.7108  -11.7327  145.1700 O   0  0  0  0  0  0  0  0  0  0  0  0
  -17.9917  -11.6458  144.6381 C   0  0  0  0  0  0  0  0  0  0  0  0
  -18.6548  -12.7468  145.2157 O   0  0  0  0  0  0  0  0  0  0  0  0
  -15.8893  -13.8310  143.9124 C   0  0  0  0  0  0  0  0  0  0  0  0
  2  1  1  0
  4  2  1  0
  4  3  1  0
  5  4  1  0
  7  5  1  0
  8  6  2  0
  9  4  1  0
  9  5  1  0
 10  7  1  0
 10  9  1  0
 11  3  1  0
 11  6  1  0
M  RAD  1   6   2
M  END
$$$$

     RDKit          3D

 11 12  0  0  0  0  0  0  0  0999 V2000
  -28.0507  -12.2779  148.3257 C   0  0  0  0  0  0  0  0  0  0  0  0
  -28.6890  -12.0877  149.7012 C   0  0  0  0  0  0  0  0  0  0  0  0
  -27.3762  -13.6294  148.0776 C   0  0  0  0  0  0  0  0  0  0  0  0
  -28.2649  -14.8627  148.0862 C   0  0  0  0  0  0  0  0  0  0  0  0
  -29.7242  -10.9942  149.9326 C   0  0  0  0  0  0  0  0  0  0  0  0
  -28.2743  -12.8072  150.7617 C   0  0  0  0  0  0  0  0  0  0  0  0
  -27.5819  -16.1143  147.7566 N   0  0  0  0  0  0  0  0  0  0  0  0
  -31.0740  -11.5527  149.8314 N   0  0  0  0  0  0  0  0  0  0  0  0
  -28.3656  -13.9001  146.9241 C   0  0  0  0  0  0  0  0  0  0  0  0
  -29.5531   -9.8949  148.9776 N   0  0  0  0  0  0  0  0  0  0  0  0
  -29.0455  -12.5732  147.2097 C   0  0  0  0  0  0  0  0  0  0  0  0
  2  1  1  0
  3  1  1  0
  4  3  1  0
  5  2  1  0
  6  2  2  0
  7  4  1  0
  8  5  1  0
  9  3  1  0
  9  4  1  0
 10  5  1  0
 11  1  1  0
 11  9  1  0
M  END
$$$$

     RDKit          3D

 11 11  0  0  0  0  0  0  0  0999 V2000
  -26.4397   -8.3554  138.2979 O   0  0  0  0  0  0  0  0  0  0  0  0
  -27.5741   -8.0189  137.5484 C   0  0  0  0  0  0  0  0  0  0  0  0
  -27.4884   -6.7045  136.7741 C   0  0  0  0  0  0  0  0  0  0  0  0
  -27.3478   -8.0419  136.0357 C   0  0  0  0  0  0  0  0  0  0  0  0
  -26.2584   -5.7957  137.0185 C   0  0  0  0  0  0  0  0  0  0  0  0
  -25.9857   -8.4117  135.6304 N   0  0  0  0  0  0  0  0  0  0  0  0
  -27.2759   -4.0350  135.7411 F   0  0  0  0  0  0  0  0  0  0  0  0
  -25.9625   -9.7710  135.0737 C   0  0  0  0  0  0  0  0  0  0  0  0
  -26.0070  -10.8246  136.1751 C   0  0  0  0  0  0  0  0  0  0  0  0
  -26.1146   -4.7809  135.8856 C   0  0  0  0  0  0  0  0  0  0  0  0
  -25.0655   -6.4904  137.1490 F   0  0  0  0  0  0  0  0  0  0  0  0
  2  1  1  0
  3  2  1  0
  4  2  1  0
  4  3  1  0
  5  3  1  0
  6  4  1  0
  8  6  1  0
  9  8  1  0
 10  5  1  0
 10  7  1  0
 11  5  1  0
M  END
$$$$

     RDKit          3D

 11 12  0  0  0  0  0  0  0  0999 V2000
  -25.7070   -5.7291  147.2548 C   0  0  0  0  0  0  0  0  0  0  0  0
  -25.7598   -6.9839  146.3753 C   0  0  0  0  0  0  0  0  0  0  0  0
  -25.3110   -4.4534  146.5271 C   0  0  0  0  0  0  0  0  0  0  0  0
  -24.3244   -5.1302  147.4681 C   0  0  0  0  0  0  0  0  0  0  0  0
  -25.7521   -8.2325  147.2718 C   0  0  0  0  0  0  0  0  0  0  0  0
  -25.4683   -9.6085  146.6609 C   0  0  0  0  0  0  0  0  0  0  0  0
  -25.1508   -9.7599  145.1621 C   0  0  0  0  0  0  0  0  0  0  0  0
  -26.4430   -9.8578  144.3452 C   0  0  0  0  0  0  0  0  0  0  0  0
  -26.1397  -10.0807  142.8593 C   0  0  0  0  0  0  0  0  0  0  0  0
  -27.4218  -10.1395  142.0360 C   0  0  0  0  0  0  0  0  0  0  0  0
  -24.3887   -8.8889  147.4656 C   0  0  0  0  0  0  0  0  0  0  0  0
  2  1  1  0
  3  1  1  0
  4  1  1  0
  4  3  1  0
  5  2  1  0
  6  5  1  0
  7  6  1  0
  8  7  1  0
  9  8  1  0
 10  9  1  0
 11  5  1  0
 11  6  1  0
M  END
$$$$

     RDKit          3D

 10 11  0  0  0  0  0  0  0  0999 V2000
  -23.6936   -6.9588  138.1964 O   0  0  0  0  0  0  0  0  0  0  0  0
  -22.4597   -6.7413  137.5673 C   0  0  0  0  0  0  0  0  0  0  0  0
  -22.6814   -6.1298  136.3231 O   0  0  0  0  0  0  0  0  0  0  0  0
  -21.7439   -8.0837  137.3615 C   0  0  0  0  0  0  0  0  0  0  0  0
  -21.3866   -8.7527  138.6950 C   0  0  0  0  0  0  0  0  0  0  0  0
  -20.6753  -10.1021  138.4277 C   0  0  0  0  0  0  0  0  0  0  0  0
  -20.9625  -11.1597  139.4809 C   0  0  0  0  0  0  0  0  0  0  0  0
  -20.8997  -12.5969  138.9725 C   0  0  0  0  0  0  0  0  0  0  0  0
  -19.6220  -10.4599  139.5102 C   0  0  0  0  0  0  0  0  0  0  0  0
  -19.1898   -9.9566  138.1485 C   0  0  0  0  0  0  0  0  0  0  0  0
  2  1  1  0
  3  2  1  0
  4  2  1  0
  5  4  1  0
  6  5  1  0
  7  6  1  0
  8  7  1  0
  9  6  1  0
  9  7  1  0
 10  6  1  0
 10  9  1  0
M  END
$$$$

     RDKit          3D

 11 12  0  0  0  0  0  0  0  0999 V2000
  -19.0656  -11.2747  137.8965 O   0  0  0  0  0  0  0  0  0  0  0  0
  -21.1778  -10.8722  138.9442 C   0  0  0  0  0  0  0  0  0  0  0  0
  -20.7857  -10.7863  140.1373 O   0  0  0  0  0  0  0  0  0  0  0  0
  -22.5474  -10.9134  136.9934 C   0  0  0  0  0  0  0  0  0  0  0  0
  -23.2178  -11.9709  137.8695 C   0  0  0  0  0  0  0  0  0  0  0  0
  -25.5497  -10.7942  138.0905 C   0  0  0  0  0  0  0  0  0  0  0  0
  -25.1542  -12.5991  136.3710 C   0  0  0  0  0  0  0  0  0  0  0  0
  -20.3133  -11.1237  137.8202 C   0  0  0  0  0  0  0  0  0  0  0  0
  -24.7623  -12.0727  137.7563 C   0  0  0  0  0  0  0  0  0  0  0  0
  -21.0931  -11.1948  136.5631 C   0  0  0  0  0  0  0  0  0  0  0  0
  -22.5922  -10.7321  138.5209 C   0  0  0  0  0  0  0  0  0  0  0  0
  3  2  2  0
  5  4  1  0
  8  1  2  0
  8  2  1  0
  9  5  1  0
  9  6  1  0
  9  7  1  0
 10  4  1  0
 10  8  1  0
 11  2  1  0
 11  4  1  0
 11  5  1  0
M  END
$$$$

     RDKit          3D

 11 11  0  0  0  0  0  0  0  0999 V2000
  -26.7769    1.6110  132.9556 F   0  0  0  0  0  0  0  0  0  0  0  0
  -25.0321   -0.0335  133.1725 C   0  0  0  0  0  0  0  0  0  0  0  0
  -25.3377   -1.3528  137.2842 F   0  0  0  0  0  0  0  0  0  0  0  0
  -24.2695   -1.3500  134.9972 F   0  0  0  0  0  0  0  0  0  0  0  0
  -25.4138   -0.7607  134.4790 C   0  0  0  0  0  0  0  0  0  0  0  0
  -23.2059   -0.3249  131.7533 C   0  0  0  0  0  0  0  0  0  0  0  0
  -24.3184   -0.9497  132.3561 O   0  0  0  0  0  0  0  0  0  0  0  0
  -26.0859    0.1896  135.4986 C   0  0  0  0  0  0  0  0  0  0  0  0
  -26.2682    0.4532  132.3954 C   0  0  0  0  0  0  0  0  0  0  0  0
  -25.1587    0.9248  136.4596 C   0  0  0  0  0  0  0  0  0  0  0  0
  -26.0429   -0.2037  136.9717 C   0  0  0  0  0  0  0  0  0  0  0  0
  5  2  1  0
  5  4  1  0
  7  2  1  0
  7  6  1  0
  8  5  1  0
  9  1  1  0
  9  2  1  0
 10  8  1  0
 11  3  1  0
 11  8  1  0
 11 10  1  0
M  END
$$$$

     RDKit          3D

 11 11  0  0  0  0  0  0  0  0999 V2000
  -24.1081  -22.6094  139.6884 O   0  0  0  0  0  0  0  0  0  0  0  0
  -24.7509  -23.2901  137.4561 C   0  0  0  0  0  0  0  0  0  0  0  0
  -25.5097  -24.5283  137.9856 C   0  0  0  0  0  0  0  0  0  0  0  0
  -26.0168  -25.3966  136.8674 C   0  0  0  0  0  0  0  0  0  0  0  0
  -25.2112  -26.0323  136.0061 C   0  0  0  0  0  0  0  0  0  0  0  0
  -23.2994  -23.6289  137.0353 C   0  0  0  0  0  0  0  0  0  0  0  0
  -23.7099  -25.9586  136.0694 C   0  0  0  0  0  0  0  0  0  0  0  0
  -24.7477  -22.1747  138.5195 C   0  0  0  0  0  0  0  0  0  0  0  0
  -23.1945  -24.5288  135.7781 C   0  0  0  0  0  0  0  0  0  0  0  0
  -21.7224  -24.5510  135.2947 C   0  0  0  0  0  0  0  0  0  0  0  0
  -21.5459  -25.1652  133.9016 C   0  0  0  0  0  0  0  0  0  0  0  0
  3  2  1  0
  4  3  1  0
  5  4  2  0
  6  2  1  0
  7  5  1  0
  8  1  1  0
  8  2  1  0
  9  6  1  0
  9  7  1  0
 10  9  1  0
 11 10  1  0
M  END
$$$$

     RDKit          3D

  9  9  0  0  0  0  0  0  0  0999 V2000
  -19.9240   -8.3809  143.5962 Cl  0  0  0  0  0  0  0  0  0  0  0  0
  -19.1525   -8.8974  142.0673 C   0  0  0  0  0  0  0  0  0  0  0  0
  -18.7650   -7.6561  141.2640 C   0  0  0  0  0  0  0  0  0  0  0  0
  -17.9192   -9.7741  142.3470 C   0  0  0  0  0  0  0  0  0  0  0  0
  -17.0833  -12.0046  143.2710 C   0  0  0  0  0  0  0  0  0  0  0  0
  -16.3683  -12.4974  142.0023 C   0  0  0  0  0  0  0  0  0  0  0  0
  -15.6280  -13.8182  142.1532 C   0  0  0  0  0  0  0  0  0  0  0  0
  -18.3076  -11.1406  142.9374 C   0  0  0  0  0  0  0  0  0  0  0  0
  -16.9350  -13.7631  141.3771 C   0  0  0  0  0  0  0  0  0  0  0  0
  2  1  1  0
  3  2  1  0
  4  2  1  0
  6  5  1  0
  7  6  1  0
  8  4  1  0
  8  5  1  0
  9  6  1  0
  9  7  1  0
M  END
$$$$

     RDKit          3D

 11 11  0  0  0  0  0  0  0  0999 V2000
  -25.3524  -23.1506  135.0060 O   0  0  0  0  0  0  0  0  0  0  0  0
  -24.6446  -24.0921  135.4490 C   0  0  0  0  0  0  0  0  0  0  0  0
  -24.0958  -25.0014  134.5474 O   0  0  0  0  0  0  0  0  0  0  0  0
  -24.3642  -24.2049  136.8998 C   0  0  0  0  0  0  0  0  0  0  0  0
  -23.0442  -24.4855  137.2960 C   0  0  0  0  0  0  0  0  0  0  0  0
  -22.7137  -24.6057  138.6459 C   0  0  0  0  0  0  0  0  0  0  0  0
  -25.3692  -24.0485  137.8960 C   0  0  0  0  0  0  0  0  0  0  0  0
  -26.8309  -23.8374  137.5602 C   0  0  0  0  0  0  0  0  0  0  0  0
  -23.6962  -24.4564  139.6214 C   0  0  0  0  0  0  0  0  0  0  0  0
  -27.4817  -25.1375  137.0962 C   0  0  0  0  0  0  0  0  0  0  0  0
  -25.0140  -24.1869  139.2514 C   0  0  0  0  0  0  0  0  0  0  0  0
  2  1  2  0
  3  2  1  0
  4  2  1  0
  5  4  4  0
  6  5  4  0
  7  4  4  0
  8  7  1  0
  9  6  4  0
 10  8  1  0
 11  7  4  0
 11  9  4  0
M  END
$$$$

     RDKit          3D

 11 12  0  0  0  0  0  0  0  0999 V2000
  -32.8195   -5.5807  141.9159 O   0  0  0  0  0  0  0  0  0  0  0  0
  -32.0115   -6.4415  141.1385 C   0  0  0  0  0  0  0  0  0  0  0  0
  -30.7732   -5.9760  140.6654 O   0  0  0  0  0  0  0  0  0  0  0  0
  -32.1369   -7.9451  141.3826 C   0  0  0  0  0  0  0  0  0  0  0  0
  -33.2297   -8.4871  142.2103 N   0  0  0  0  0  0  0  0  0  0  0  0
  -33.3943   -7.8939  143.5476 C   0  0  0  0  0  0  0  0  0  0  0  0
  -32.7470   -7.3020  140.1334 C   0  0  0  0  0  0  0  0  0  0  0  0
  -32.0404   -4.7351  142.7453 C   0  0  0  0  0  0  0  0  0  0  0  0
  -31.0905   -5.4654  143.7244 C   0  0  0  0  0  0  0  0  0  0  0  0
  -32.0812   -7.7618  144.3495 C   0  0  0  0  0  0  0  0  0  0  0  0
  -31.7994   -6.3146  144.7942 C   0  0  0  0  0  0  0  0  0  0  0  0
  2  1  1  0
  3  2  1  0
  4  2  1  0
  5  4  1  0
  6  5  1  0
  7  2  1  0
  7  4  1  0
  8  1  1  0
  9  8  1  0
 10  6  1  0
 11  9  1  0
 11 10  1  0
M  END
$$$$

     RDKit          3D

 11 12  0  0  0  0  0  0  0  0999 V2000
  -22.8904   -9.7466  151.0878 O   0  0  0  0  0  0  0  0  0  0  0  0
  -24.0100  -10.5816  150.9058 C   0  0  0  0  0  0  0  0  0  0  0  0
  -25.0464   -9.9083  150.2309 O   0  0  0  0  0  0  0  0  0  0  0  0
  -24.4997  -11.2079  152.2370 C   0  0  0  0  0  0  0  0  0  0  0  0
  -24.1982  -10.5633  154.6090 C   0  0  0  0  0  0  0  0  0  0  0  0
  -25.7245  -10.5630  154.5084 C   0  0  0  0  0  0  0  0  0  0  0  0
  -23.4360  -12.1235  152.8595 C   0  0  0  0  0  0  0  0  0  0  0  0
  -23.4070  -11.8420  154.3575 C   0  0  0  0  0  0  0  0  0  0  0  0
  -26.8753  -12.3229  155.8858 C   0  0  0  0  0  0  0  0  0  0  0  0
  -26.4837  -11.9043  154.4737 C   0  0  0  0  0  0  0  0  0  0  0  0
  -24.8717  -10.1625  153.3011 C   0  0  0  0  0  0  0  0  0  0  0  0
  2  1  1  0
  3  2  1  0
  4  2  1  0
  6  5  1  0
  7  4  1  0
  8  5  1  0
  8  7  1  0
 10  6  1  0
 10  9  1  0
 11  4  1  0
 11  5  1  0
 11  6  1  0
M  END
$$$$

     RDKit          3D

  7  7  0  0  0  0  0  0  0  0999 V2000
  -31.9172   -8.8387  141.2556 Cl  0  0  0  0  0  0  0  0  0  0  0  0
  -30.5556   -8.6515  142.3456 C   0  0  0  0  0  0  0  0  0  0  0  0
  -29.2640   -8.9808  141.9170 C   0  0  0  0  0  0  0  0  0  0  0  0
  -30.7590   -8.1724  143.6455 C   0  0  0  0  0  0  0  0  0  0  0  0
  -29.6727   -8.0233  144.5143 C   0  0  0  0  0  0  0  0  0  0  0  0
  -28.1786   -8.8312  142.7868 C   0  0  0  0  0  0  0  0  0  0  0  0
  -28.3828   -8.3526  144.0851 C   0  0  0  0  0  0  0  0  0  0  0  0
  2  1  1  0
  3  2  4  0
  4  2  4  0
  5  4  4  0
  6  3  4  0
  7  5  4  0
  7  6  4  0
M  END
$$$$

     RDKit          3D

 11 13  0  0  0  0  0  0  0  0999 V2000
  -26.7983  -13.6328  152.6589 O   0  0  0  0  0  0  0  0  0  0  0  0
  -28.8236  -12.9160  153.8288 C   0  0  0  0  0  0  0  0  0  0  0  0
  -27.9500  -12.9636  154.9257 O   0  0  0  0  0  0  0  0  0  0  0  0
  -28.3616  -11.8484  152.0029 C   0  0  0  0  0  0  0  0  0  0  0  0
  -28.1497  -13.2855  152.5036 C   0  0  0  0  0  0  0  0  0  0  0  0
  -29.0198  -11.4860  153.3359 C   0  0  0  0  0  0  0  0  0  0  0  0
  -27.0952  -11.0221  151.7093 C   0  0  0  0  0  0  0  0  0  0  0  0
  -25.1738  -10.7640  150.0293 C   0  0  0  0  0  0  0  0  0  0  0  0
  -26.4878  -11.4224  150.3577 C   0  0  0  0  0  0  0  0  0  0  0  0
  -24.0734  -11.7094  149.6495 C   0  0  0  0  0  0  0  0  0  0  0  0
  -25.2346  -12.2699  150.4414 C   0  0  0  0  0  0  0  0  0  0  0  0
  3  2  1  0
  5  1  1  0
  5  2  1  0
  5  4  1  0
  6  2  1  0
  6  4  1  0
  7  4  1  0
  9  7  1  0
  9  8  1  0
 10  8  1  0
 11  8  1  0
 11  9  1  0
 11 10  1  0
M  END
$$$$

     RDKit          3D

 11 12  0  0  0  0  0  0  0  0999 V2000
  -29.3061   -7.2165  142.7473 C   0  0  0  0  0  0  0  0  0  0  0  0
  -28.5907   -4.8426  141.7791 C   0  0  0  0  0  0  0  0  0  0  0  0
  -27.1347   -5.1071  141.3136 C   0  0  0  0  0  0  0  0  0  0  0  0
  -27.8550   -7.7257  142.7352 C   0  0  0  0  0  0  0  0  0  0  0  0
  -27.2595   -8.3431  141.4642 C   0  0  0  0  0  0  0  0  0  0  0  0
  -28.1070   -8.5938  140.2472 C   0  0  0  0  0  0  0  0  0  0  0  0
  -29.6078   -6.0117  141.8307 C   0  0  0  0  0  0  0  0  0  0  0  0
  -27.6788   -9.2335  142.6350 C   0  0  0  0  0  0  0  0  0  0  0  0
  -26.8858   -5.6851  139.8987 C   0  0  0  0  0  0  0  0  0  0  0  0
  -28.0556   -6.3080  139.2870 N   0  0  0  0  0  0  0  0  0  0  0  0
  -28.3701   -7.7138  139.2687 C   0  0  0  0  0  0  0  0  0  0  0  0
  3  2  1  0
  4  1  1  0
  5  4  1  0
  6  5  1  0
  7  1  1  0
  7  2  1  0
  8  4  1  0
  8  5  1  0
  9  3  1  0
 10  9  1  0
 11  6  2  3
 11 10  1  0
M  END
$$$$

     RDKit          3D

 11 13  0  0  0  0  0  0  0  0999 V2000
  -26.1037   -7.8230  134.7528 C   0  0  0  0  0  0  0  0  0  0  0  0
  -24.9089   -7.7581  133.7449 C   0  0  0  0  0  0  0  0  0  0  0  0
  -25.4183   -9.0749  134.2505 C   0  0  0  0  0  0  0  0  0  0  0  0
  -25.8763   -6.6128  133.8731 C   0  0  0  0  0  0  0  0  0  0  0  0
  -25.3567   -5.3793  134.6388 C   0  0  0  0  0  0  0  0  0  0  0  0
  -26.4273   -4.4468  135.0162 N   0  0  0  0  0  0  0  0  0  0  0  0
  -25.8036   -3.4324  134.1634 C   0  0  0  0  0  0  0  0  0  0  0  0
  -24.6749   -4.3651  133.7347 C   0  0  0  0  0  0  0  0  0  0  0  0
  -25.8128   -0.2706  133.6429 C   0  0  0  0  0  0  0  0  0  0  0  0
  -25.3541   -2.2883  134.9754 N   0  0  0  0  0  0  0  0  0  0  0  0
  -24.7463   -1.2376  134.1463 C   0  0  0  0  0  0  0  0  0  0  0  0
  2  1  1  0
  3  1  1  0
  3  2  1  0
  4  1  1  0
  4  2  1  0
  5  4  1  0
  6  5  1  0
  7  6  1  0
  8  5  1  0
  8  7  1  0
 10  7  1  0
 11  9  1  0
 11 10  1  0
M  END
$$$$

     RDKit          3D

 11 12  0  0  0  0  0  0  0  0999 V2000
  -25.8465  -24.1963  137.9737 O   0  0  0  0  0  0  0  0  0  0  0  0
  -25.4041  -24.1076  136.6422 C   0  0  0  0  0  0  0  0  0  0  0  0
  -24.0020  -24.1143  136.5505 O   0  0  0  0  0  0  0  0  0  0  0  0
  -26.0616  -22.9955  135.8260 C   0  0  0  0  0  0  0  0  0  0  0  0
  -27.1084  -22.1474  136.5630 C   0  0  0  0  0  0  0  0  0  0  0  0
  -26.7079  -24.0373  134.9039 C   0  0  0  0  0  0  0  0  0  0  0  0
  -26.0655  -25.1689  135.7596 C   0  0  0  0  0  0  0  0  0  0  0  0
  -26.4849  -21.3090  137.4692 F   0  0  0  0  0  0  0  0  0  0  0  0
  -25.8984  -25.1493  134.2522 C   0  0  0  0  0  0  0  0  0  0  0  0
  -25.1583  -22.1846  135.1591 F   0  0  0  0  0  0  0  0  0  0  0  0
  -24.4936  -24.8627  133.7126 C   0  0  0  0  0  0  0  0  0  0  0  0
  2  1  1  0
  3  2  1  0
  4  2  1  0
  5  4  1  0
  6  4  1  0
  7  2  1  0
  7  6  1  0
  8  5  1  0
  9  6  1  0
  9  7  1  0
 10  4  1  0
 11  9  1  0
M  END
$$$$

     RDKit          3D

 10 13  0  0  0  0  0  0  0  0999 V2000
  -30.1249  -18.4132  142.4953 C   0  0  0  0  0  0  0  0  0  0  0  0
  -29.6949  -17.2741  141.5772 C   0  0  0  0  0  0  0  0  0  0  0  0
  -29.9663  -19.7794  141.7823 C   0  0  0  0  0  0  0  0  0  0  0  0
  -29.7433  -21.1177  142.5677 C   0  0  0  0  0  0  0  0  0  0  0  0
  -29.2650  -21.2053  144.0328 C   0  0  0  0  0  0  0  0  0  0  0  0
  -30.2976  -21.2812  145.1104 C   0  0  0  0  0  0  0  0  0  0  0  0
  -28.5971  -20.3310  141.8593 C   0  0  0  0  0  0  0  0  0  0  0  0
  -31.6977  -22.0911  143.6464 C   0  0  0  0  0  0  0  0  0  0  0  0
  -31.2484  -22.8207  145.2331 S   0  0  0  0  0  0  0  0  0  0  0  0
  -30.7402  -20.8969  143.7173 C   0  0  0  0  0  0  0  0  0  0  0  0
  2  1  1  0
  3  1  1  0
  4  3  1  0
  5  4  1  0
  6  5  1  0
  7  3  1  0
  7  4  1  0
  9  6  1  0
  9  8  1  0
 10  4  1  0
 10  5  1  0
 10  6  1  0
 10  8  1  0
M  END
$$$$

     RDKit          3D

 11 14  0  0  0  0  0  0  0  0999 V2000
  -26.5187   -8.0324  150.4114 O   0  0  0  0  0  0  0  0  0  0  0  0
  -27.2481   -6.9641  149.8663 C   0  0  0  0  0  0  0  0  0  0  0  0
  -26.8524   -5.7492  150.4411 O   0  0  0  0  0  0  0  0  0  0  0  0
  -27.7326   -8.4757  150.9571 C   0  0  0  0  0  0  0  0  0  0  0  0
  -29.4120   -7.8770  149.3383 C   0  0  0  0  0  0  0  0  0  0  0  0
  -28.5372   -7.3850  150.4096 N   0  0  0  0  0  0  0  0  0  0  0  0
  -30.4381   -6.8529  148.9288 C   0  0  0  0  0  0  0  0  0  0  0  0
  -31.8150   -6.9856  149.5486 C   0  0  0  0  0  0  0  0  0  0  0  0
  -30.8228   -8.0878  149.8135 C   0  0  0  0  0  0  0  0  0  0  0  0
  -32.7297   -7.9935  148.8575 C   0  0  0  0  0  0  0  0  0  0  0  0
  -31.6732   -9.0726  149.0212 C   0  0  0  0  0  0  0  0  0  0  0  0
  2  1  1  0
  3  2  1  0
  4  1  1  0
  6  2  1  0
  6  4  1  0
  6  5  1  0
  7  5  1  0
  8  7  1  0
  9  5  1  0
  9  7  1  0
  9  8  1  0
 10  8  1  0
 11  9  1  0
 11 10  1  0
M  END
$$$$

     RDKit          3D

 11 14  0  0  0  0  0  0  0  0999 V2000
  -20.2521   -1.6763  132.7087 C   0  0  0  0  0  0  0  0  0  0  0  0
  -20.5251   -3.2056  132.7055 C   0  0  0  0  0  0  0  0  0  0  0  0
  -19.6680   -4.0549  131.7753 C   0  0  0  0  0  0  0  0  0  0  0  0
  -21.1666   -0.8531  131.7625 C   0  0  0  0  0  0  0  0  0  0  0  0
  -22.3140   -1.5382  131.0228 C   0  0  0  0  0  0  0  0  0  0  0  0
  -23.3698   -0.6787  130.7073 O   0  0  0  0  0  0  0  0  0  0  0  0
  -19.1755   -5.2962  132.4971 C   0  0  0  0  0  0  0  0  0  0  0  0
  -19.8546   -5.4042  133.8511 C   0  0  0  0  0  0  0  0  0  0  0  0
  -19.4291   -4.0542  133.3028 C   0  0  0  0  0  0  0  0  0  0  0  0
  -21.0429   -1.1700  130.2741 C   0  0  0  0  0  0  0  0  0  0  0  0
  -18.7811   -1.2730  132.4846 C   0  0  0  0  0  0  0  0  0  0  0  0
  2  1  1  0
  3  2  1  0
  4  1  1  0
  5  4  1  0
  6  5  1  0
  7  3  1  0
  8  7  1  0
  9  2  1  0
  9  3  1  0
  9  7  1  0
  9  8  1  0
 10  4  1  0
 10  5  1  0
 11  1  1  0
M  END
$$$$

     RDKit          3D

 11 13  0  0  0  0  0  0  0  0999 V2000
  -17.5569   -7.8471  141.4644 N   0  0  0  0  0  0  0  0  0  0  0  0
  -17.0275   -6.4824  141.7217 C   0  0  0  0  0  0  0  0  0  0  0  0
  -18.7722   -5.1029  142.8245 N   0  0  0  0  0  0  0  0  0  0  0  0
  -17.1390   -8.4739  140.1864 C   0  0  0  0  0  0  0  0  0  0  0  0
  -19.0722   -5.5952  140.4469 C   0  0  0  0  0  0  0  0  0  0  0  0
  -18.6365   -5.7008  139.1865 C   0  0  0  0  0  0  0  0  0  0  0  0
  -18.0751   -5.3281  141.5559 C   0  0  0  0  0  0  0  0  0  0  0  0
  -18.6449   -7.1150  138.6735 C   0  0  0  0  0  0  0  0  0  0  0  0
  -17.2002   -7.5002  138.9999 C   0  0  0  0  0  0  0  0  0  0  0  0
  -17.7335   -7.8733  137.6557 C   0  0  0  0  0  0  0  0  0  0  0  0
  -18.8875   -7.0320  137.1794 C   0  0  0  0  0  0  0  0  0  0  0  0
  2  1  1  0
  4  1  1  0
  6  5  2  3
  7  2  1  0
  7  3  1  0
  7  5  1  0
  8  6  1  0
  9  4  1  0
  9  8  1  0
 10  8  1  0
 10  9  1  0
 11  8  1  0
 11 10  1  0
M  END
$$$$

     RDKit          3D

 11 12  0  0  0  0  0  0  0  0999 V2000
  -26.9154    2.0327  137.5753 O   0  0  0  0  0  0  0  0  0  0  0  0
  -28.0417    2.8322  137.8513 C   0  0  0  0  0  0  0  0  0  0  0  0
  -27.7064    4.1045  138.6287 C   0  0  0  0  0  0  0  0  0  0  0  0
  -28.5270    3.5887  139.8133 C   0  0  0  0  0  0  0  0  0  0  0  0
  -28.8745    2.3213  139.0262 C   0  0  0  0  0  0  0  0  0  0  0  0
  -29.7383    4.4763  140.1478 C   0  0  0  0  0  0  0  0  0  0  0  0
  -30.5622    3.8790  141.2956 C   0  0  0  0  0  0  0  0  0  0  0  0
  -31.7649    4.7746  141.6402 C   0  0  0  0  0  0  0  0  0  0  0  0
  -32.6607    4.1903  142.7311 C   0  0  0  0  0  0  0  0  0  0  0  0
  -32.9230    4.6795  140.6464 C   0  0  0  0  0  0  0  0  0  0  0  0
  -33.8129    4.1043  141.7394 C   0  0  0  0  0  0  0  0  0  0  0  0
  2  1  1  0
  3  2  1  0
  4  3  1  0
  5  2  1  0
  5  4  1  0
  6  4  1  0
  7  6  1  0
  8  7  1  0
  9  8  1  0
 10  8  1  0
 11  9  1  0
 11 10  1  0
M  END
$$$$

     RDKit          3D

 11 12  0  0  0  0  0  0  0  0999 V2000
  -23.1223   -9.4193  148.7033 C   0  0  0  0  0  0  0  0  0  0  0  0
  -24.8973   -8.7155  147.2705 O   0  0  0  0  0  0  0  0  0  0  0  0
  -22.9288  -10.4637  149.3042 O   0  0  0  0  0  0  0  0  0  0  0  0
  -25.5184   -9.9115  146.8402 C   0  0  0  0  0  0  0  0  0  0  0  0
  -25.8302   -9.8720  145.3586 C   0  0  0  0  0  0  0  0  0  0  0  0
  -27.3233   -9.9413  145.6516 C   0  0  0  0  0  0  0  0  0  0  0  0
  -24.4980   -8.8308  148.6209 C   0  0  0  0  0  0  0  0  0  0  0  0
  -27.0113   -9.9514  147.1664 C   0  0  0  0  0  0  0  0  0  0  0  0
  -27.9336   -8.9029  146.5693 C   0  0  0  0  0  0  0  0  0  0  0  0
  -27.6493   -6.7746  147.6121 C   0  0  0  0  0  0  0  0  0  0  0  0
  -27.3439   -7.5712  146.4249 N   0  0  0  0  0  0  0  0  0  0  0  0
  3  1  2  0
  4  2  1  0
  5  4  1  0
  6  5  1  0
  7  1  1  0
  7  2  1  0
  8  4  1  0
  8  6  1  0
  9  6  1  0
  9  8  1  0
 11  9  1  0
 11 10  1  0
M  END
$$$$

     RDKit          3D

 11 14  0  0  0  0  0  0  0  0999 V2000
  -28.1588  -16.4201  142.1077 C   0  0  0  0  0  0  0  0  0  0  0  0
  -28.4833  -14.9981  141.9955 C   0  0  0  0  0  0  0  0  0  0  0  0
  -29.5186  -16.0992  141.4713 C   0  0  0  0  0  0  0  0  0  0  0  0
  -29.9552  -15.0484  140.5133 C   0  0  0  0  0  0  0  0  0  0  0  0
  -30.5853  -15.6805  139.2733 C   0  0  0  0  0  0  0  0  0  0  0  0
  -30.5826  -15.1823  141.9625 C   0  0  0  0  0  0  0  0  0  0  0  0
  -28.6086  -14.3626  140.5704 C   0  0  0  0  0  0  0  0  0  0  0  0
  -29.6223  -14.5648  142.9501 C   0  0  0  0  0  0  0  0  0  0  0  0
  -28.6861  -12.8239  140.4758 C   0  0  0  0  0  0  0  0  0  0  0  0
  -29.8517  -13.0838  143.2726 C   0  0  0  0  0  0  0  0  0  0  0  0
  -27.5789  -14.8981  139.5383 C   0  0  0  0  0  0  0  0  0  0  0  0
  2  1  1  0
  3  1  1  0
  3  2  1  0
  4  3  1  0
  5  4  1  0
  6  3  1  0
  6  4  1  0
  7  2  1  0
  7  4  1  0
  8  2  1  0
  8  6  1  0
  9  7  1  0
 10  8  1  0
 11  7  1  0
M  END
$$$$

     RDKit          3D

 11 13  0  0  0  0  0  0  0  0999 V2000
  -23.3435   -5.5104  143.7148 C   0  0  0  0  0  0  0  0  0  0  0  0
  -21.2459   -6.1791  143.7421 N   0  0  0  0  0  0  0  0  0  0  0  0
  -21.0575   -5.1118  144.7478 C   0  0  0  0  0  0  0  0  0  0  0  0
  -22.3067   -5.8210  144.7613 C   0  0  0  0  0  0  0  0  0  0  0  0
  -22.0123   -5.0623  141.5725 C   0  0  0  0  0  0  0  0  0  0  0  0
  -20.5639   -3.7104  144.3980 C   0  0  0  0  0  0  0  0  0  0  0  0
  -19.7302   -3.5298  143.1174 C   0  0  0  0  0  0  0  0  0  0  0  0
  -19.5979   -3.8704  145.6060 C   0  0  0  0  0  0  0  0  0  0  0  0
  -22.3131   -6.0066  142.7356 C   0  0  0  0  0  0  0  0  0  0  0  0
  -20.5898   -5.5792  147.2347 C   0  0  0  0  0  0  0  0  0  0  0  0
  -20.0270   -5.3355  145.8299 C   0  0  0  0  0  0  0  0  0  0  0  0
  3  2  1  0
  4  1  1  0
  4  2  1  0
  4  3  1  0
  6  3  1  0
  7  6  1  0
  8  6  1  0
  9  1  1  0
  9  2  1  0
  9  5  1  0
 11  3  1  0
 11  8  1  0
 11 10  1  0
M  END
$$$$

     RDKit          3D

 11 13  0  0  0  0  0  0  0  0999 V2000
  -19.5134   -5.5532  142.2920 O   0  0  0  0  0  0  0  0  0  0  0  0
  -20.3438   -5.1641  143.3684 C   0  0  0  0  0  0  0  0  0  0  0  0
  -20.7590   -3.7164  143.3780 C   0  0  0  0  0  0  0  0  0  0  0  0
  -20.1758   -7.0173  143.8991 C   0  0  0  0  0  0  0  0  0  0  0  0
  -21.5489   -3.2057  144.3427 C   0  0  0  0  0  0  0  0  0  0  0  0
  -19.6646   -5.7628  144.5873 C   0  0  0  0  0  0  0  0  0  0  0  0
  -19.3471   -6.9267  142.6228 C   0  0  0  0  0  0  0  0  0  0  0  0
  -22.0133   -1.7644  144.4286 C   0  0  0  0  0  0  0  0  0  0  0  0
  -21.4006   -6.2529  143.4253 C   0  0  0  0  0  0  0  0  0  0  0  0
  -21.0518   -0.6876  143.9459 C   0  0  0  0  0  0  0  0  0  0  0  0
  -22.2855   -1.0359  143.1201 C   0  0  0  0  0  0  0  0  0  0  0  0
  2  1  1  0
  3  2  1  0
  5  3  2  3
  6  2  1  0
  6  4  1  0
  7  1  1  0
  7  4  1  0
  8  5  1  0
  9  2  1  0
  9  4  1  0
 10  8  1  0
 11  8  1  0
 11 10  1  0
M  END
$$$$

     RDKit          3D

 11 13  0  0  0  0  0  0  0  0999 V2000
  -15.6891   -5.5518  142.6882 O   0  0  0  0  0  0  0  0  0  0  0  0
  -16.8321   -5.4740  143.5047 C   0  0  0  0  0  0  0  0  0  0  0  0
  -17.3257   -4.1244  143.7799 N   0  0  0  0  0  0  0  0  0  0  0  0
  -16.0535   -3.4784  145.8495 C   0  0  0  0  0  0  0  0  0  0  0  0
  -16.0178   -3.7958  144.3386 C   0  0  0  0  0  0  0  0  0  0  0  0
  -15.4606   -5.1638  144.0183 C   0  0  0  0  0  0  0  0  0  0  0  0
  -13.6795   -2.3012  145.7196 C   0  0  0  0  0  0  0  0  0  0  0  0
  -14.6407   -3.2579  146.4394 C   0  0  0  0  0  0  0  0  0  0  0  0
  -15.9293   -3.6911  148.9506 Cl  0  0  0  0  0  0  0  0  0  0  0  0
  -14.4917   -3.2833  147.9654 C   0  0  0  0  0  0  0  0  0  0  0  0
  -13.9936   -4.4575  147.1254 C   0  0  0  0  0  0  0  0  0  0  0  0
  2  1  1  0
  3  2  1  0
  5  3  1  0
  5  4  1  0
  6  1  1  0
  6  2  1  0
  6  5  1  0
  8  4  1  0
  8  7  1  0
 10  8  1  0
 10  9  1  0
 11  8  1  0
 11 10  1  0
M  END
$$$$

     RDKit          3D

 11 11  0  0  0  0  0  0  0  0999 V2000
  -22.3083   -7.0077  141.2083 N   0  0  0  0  0  0  0  0  0  0  0  0
  -23.4026   -7.1906  142.1854 C   0  0  0  0  0  0  0  0  0  0  0  0
  -23.7082   -6.0509  143.2131 C   0  0  0  0  0  0  0  0  0  0  0  0
  -21.4002   -5.8530  141.3771 C   0  0  0  0  0  0  0  0  0  0  0  0
  -20.1487   -6.0919  140.6624 N   0  0  0  0  0  2  0  0  0  0  0  0
  -22.6959   -8.4390  142.6584 C   0  0  0  0  0  0  0  0  0  0  0  0
  -22.9790   -6.0983  144.5754 C   0  0  0  0  0  0  0  0  0  0  0  0
  -22.0244   -4.6446  140.8479 N   0  0  0  0  0  2  0  0  0  0  0  0
  -21.6508   -8.1728  141.6734 N   0  0  0  0  0  0  0  0  0  0  0  0
  -23.5468   -7.1074  145.3714 O   0  0  0  0  0  0  0  0  0  0  0  0
  -23.1137   -4.7545  145.2982 C   0  0  0  0  0  0  0  0  0  0  0  0
  2  1  1  0
  3  2  1  0
  4  1  1  0
  5  4  1  0
  6  2  1  0
  7  3  1  0
  8  4  1  0
  9  1  1  0
  9  6  1  0
 10  7  1  0
 11  7  1  0
M  RAD  2   5   2   8   2
M  END
$$$$

     RDKit          3D

 11 11  0  0  0  0  0  0  0  0999 V2000
  -24.5986   -0.0899  137.1546 O   0  0  0  0  0  0  0  0  0  0  0  0
  -24.8745    1.2376  136.7821 C   0  0  0  0  0  0  0  0  0  0  0  0
  -25.7138    1.2336  135.6567 O   0  0  0  0  0  0  0  0  0  0  0  0
  -23.5660    1.9499  136.4087 C   0  0  0  0  0  0  0  0  0  0  0  0
  -22.6107    2.1530  137.6041 C   0  0  0  0  0  0  0  0  0  0  0  0
  -22.7744    3.5131  138.2998 C   0  0  0  0  0  0  0  0  0  0  0  0
  -27.5965    0.6883  136.2525 I   0  0  0  0  0  0  0  0  0  0  0  0
  -24.0651    3.5884  139.1256 C   0  0  0  0  0  0  0  0  0  0  0  0
  -25.2132    4.3931  138.6326 C   0  0  0  0  0  0  0  0  0  0  0  0
  -25.0513    5.0003  137.3834 O   0  0  0  0  0  0  0  0  0  0  0  0
  -24.2968    4.9077  139.5699 O   0  0  0  0  0  0  0  0  0  0  0  0
  2  1  1  0
  3  2  1  0
  4  2  1  0
  5  4  1  0
  6  5  1  0
  7  3  1  0
  8  6  1  0
  9  8  1  0
 10  9  1  0
 11  8  1  0
 11  9  1  0
M  END
$$$$

     RDKit          3D

 11 16  0  0  0  0  0  0  0  0999 V2000
  -24.0815   -3.4977  136.6708 C   0  0  0  0  0  0  0  0  0  0  0  0
  -24.3828   -3.7166  138.1876 C   0  0  0  0  0  0  0  0  0  0  0  0
  -25.0145   -5.1606  138.4199 C   0  0  0  0  0  0  0  0  0  0  0  0
  -24.2161   -6.3388  137.8842 C   0  0  0  0  0  0  0  0  0  0  0  0
  -23.6623   -5.6629  139.1060 C   0  0  0  0  0  0  0  0  0  0  0  0
  -23.0456   -4.2582  138.8140 C   0  0  0  0  0  0  0  0  0  0  0  0
  -24.3354   -4.4436  139.4785 C   0  0  0  0  0  0  0  0  0  0  0  0
  -25.3417   -3.2702  135.7861 C   0  0  0  0  0  0  0  0  0  0  0  0
  -23.1317   -2.2994  136.4975 C   0  0  0  0  0  0  0  0  0  0  0  0
  -26.1868   -2.0514  136.1458 C   0  0  0  0  0  0  0  0  0  0  0  0
  -26.7534   -3.4447  136.3470 C   0  0  0  0  0  0  0  0  0  0  0  0
  2  1  1  0
  3  2  1  0
  4  3  1  0
  5  3  1  0
  5  4  1  0
  6  2  1  0
  6  5  1  0
  7  2  1  0
  7  3  1  0
  7  5  1  0
  7  6  1  0
  8  1  1  0
  9  1  1  0
 10  8  1  0
 11  8  1  0
 11 10  1  0
M  END
$$$$

     RDKit          3D

 11 10  0  0  0  0  0  0  0  0999 V2000
  -21.9475  -17.0516  135.1534 N   0  0  0  0  0  0  0  0  0  0  0  0
  -20.8374  -16.0824  135.0663 C   0  0  0  0  0  0  0  0  0  0  0  0
  -23.0941  -16.6598  134.2921 C   0  0  0  0  0  0  0  0  0  0  0  0
  -24.2225  -17.5922  134.4921 N   0  0  0  0  0  0  0  0  0  0  0  0
  -19.9049  -16.2681  136.1755 N   0  0  0  0  0  0  0  0  0  0  0  0
  -22.6952  -16.6197  132.8763 N   0  0  0  0  0  0  0  0  0  0  0  0
  -21.4611  -18.3437  134.8359 N   0  0  0  0  0  0  0  0  0  0  0  0
  -25.5098  -17.0634  133.9957 C   0  0  0  0  0  0  0  0  0  0  0  0
  -26.3996  -16.5199  135.1286 C   0  0  0  0  0  0  0  0  0  0  0  0
  -25.7651  -15.3838  135.7897 N   0  0  0  0  0  0  0  0  0  0  0  0
  -26.3713  -18.3858  133.1689 Cl  0  0  0  0  0  0  0  0  0  0  0  0
  2  1  1  0
  3  1  1  0
  4  3  1  0
  5  2  1  0
  6  3  1  0
  7  1  1  0
  8  4  1  0
  9  8  1  0
 10  9  1  0
 11  8  1  0
M  END
$$$$

     RDKit          3D

 11 13  0  0  0  0  0  0  0  0999 V2000
  -29.1665  -17.9174  144.2531 N   0  0  0  0  0  0  0  0  0  0  0  0
  -30.4020  -17.1738  143.9771 C   0  0  0  0  0  0  0  0  0  0  0  0
  -31.6573  -17.9762  144.3489 C   0  0  0  0  0  0  0  0  0  0  0  0
  -30.2254  -15.7377  144.4499 C   0  0  0  0  0  0  0  0  0  0  0  0
  -31.1808  -15.3779  145.6168 C   0  0  0  0  0  0  0  0  0  0  0  0
  -28.2018  -16.9229  144.7348 C   0  0  0  0  0  0  0  0  0  0  0  0
  -28.8402  -15.6125  144.8963 N   0  0  0  0  0  0  0  0  0  0  0  0
  -32.0872  -17.7811  145.8190 C   0  0  0  0  0  0  0  0  0  0  0  0
  -31.4181  -16.5920  146.5373 C   0  0  0  0  0  0  0  0  0  0  0  0
  -29.5823  -17.6326  142.8560 C   0  0  0  0  0  0  0  0  0  0  0  0
  -32.5031  -14.7756  145.1139 C   0  0  0  0  0  0  0  0  0  0  0  0
  2  1  1  0
  3  2  1  0
  4  2  1  0
  5  4  1  0
  6  1  1  0
  7  4  1  0
  7  6  1  0
  8  3  1  0
  9  5  1  0
  9  8  1  0
 10  1  1  0
 10  2  1  0
 11  5  1  0
M  END
$$$$

     RDKit          3D

 11 13  0  0  0  0  0  0  0  0999 V2000
  -27.4197   -6.2856  139.1204 C   0  0  0  0  0  0  0  0  0  0  0  0
  -28.1506   -4.9582  139.3812 C   0  0  0  0  0  0  0  0  0  0  0  0
  -27.9370   -7.4565  139.8050 C   0  0  0  0  0  0  0  0  0  0  0  0
  -27.9902   -8.6522  138.8383 C   0  0  0  0  0  0  0  0  0  0  0  0
  -27.1476   -7.9646  140.9194 C   0  0  0  0  0  0  0  0  0  0  0  0
  -28.7190   -9.8599  139.5128 C   0  0  0  0  0  0  0  0  0  0  0  0
  -26.6441   -6.7632  140.2649 N   0  0  0  0  0  0  0  0  0  0  0  0
  -29.6666   -9.4921  140.7007 C   0  0  0  0  0  0  0  0  0  0  0  0
  -28.9438   -9.2303  142.0595 C   0  0  0  0  0  0  0  0  0  0  0  0
  -28.0820   -7.9420  142.1166 C   0  0  0  0  0  0  0  0  0  0  0  0
  -28.5682   -4.7958  140.7733 N   0  0  0  0  0  0  0  0  0  0  0  0
  2  1  1  0
  3  1  1  0
  4  3  1  0
  5  3  1  0
  6  4  1  0
  7  1  1  0
  7  3  1  0
  7  5  1  0
  8  6  1  0
  9  8  1  0
 10  5  1  0
 10  9  1  0
 11  2  1  0
M  END
$$$$

     RDKit          3D

 11 11  0  0  0  0  0  0  0  0999 V2000
  -23.5794   -0.4773  141.6723 O   0  0  0  0  0  0  0  0  0  0  0  0
  -23.7204   -2.4975  143.9151 C   0  0  0  0  0  0  0  0  0  0  0  0
  -24.0267   -3.9291  143.4071 C   0  0  0  0  0  0  0  0  0  0  0  0
  -24.5717   -3.9481  141.9474 C   0  0  0  0  0  0  0  0  0  0  0  0
  -25.0440   -4.5865  144.3545 C   0  0  0  0  0  0  0  0  0  0  0  0
  -24.2516   -2.4004  139.4909 O   0  0  0  0  0  0  0  0  0  0  0  0
  -22.4954   -1.8555  143.2523 C   0  0  0  0  0  0  0  0  0  0  0  0
  -22.1534   -2.0686  140.6727 C   0  0  0  0  0  0  0  0  0  0  0  0
  -22.7984   -1.4000  141.8528 C   0  0  0  0  0  0  0  0  0  0  0  0
  -23.1046   -3.0545  139.9726 C   0  0  0  0  0  0  0  0  0  0  0  0
  -23.4964   -4.2503  140.8687 C   0  0  0  0  0  0  0  0  0  0  0  0
  3  2  1  0
  4  3  1  0
  5  3  1  0
  7  2  1  0
  9  1  2  0
  9  7  1  0
  9  8  1  0
 10  6  1  0
 10  8  1  0
 11  4  1  0
 11 10  1  0
M  END
$$$$

     RDKit          3D

 11 13  0  0  0  0  0  0  0  0999 V2000
  -21.8123   -6.7203  138.5160 C   0  0  0  0  0  0  0  0  0  0  0  0
  -22.8656   -7.3229  139.4289 C   0  0  0  0  0  0  0  0  0  0  0  0
  -20.3847   -6.6492  139.0925 C   0  0  0  0  0  0  0  0  0  0  0  0
  -23.7842   -8.2528  138.6698 C   0  0  0  0  0  0  0  0  0  0  0  0
  -22.3477   -8.1115  138.2174 C   0  0  0  0  0  0  0  0  0  0  0  0
  -18.4233   -9.5687  137.4508 C   0  0  0  0  0  0  0  0  0  0  0  0
  -18.7101   -8.5522  138.5627 C   0  0  0  0  0  0  0  0  0  0  0  0
  -17.9332   -7.2336  138.5845 C   0  0  0  0  0  0  0  0  0  0  0  0
  -19.3818   -7.2601  138.1015 C   0  0  0  0  0  0  0  0  0  0  0  0
  -16.8612   -7.0284  137.5035 C   0  0  0  0  0  0  0  0  0  0  0  0
  -16.2756   -5.6241  137.5889 C   0  0  0  0  0  0  0  0  0  0  0  0
  2  1  1  0
  3  1  1  0
  4  2  1  0
  5  1  1  0
  5  2  1  0
  5  4  1  0
  7  6  1  0
  8  7  1  0
  9  3  1  0
  9  7  1  0
  9  8  1  0
 10  8  1  0
 11 10  1  0
M  END
$$$$

     RDKit          3D

 11 13  0  0  0  0  0  0  0  0999 V2000
  -27.2788  -12.1022  146.8118 O   0  0  0  0  0  0  0  0  0  0  0  0
  -28.0100  -11.5972  145.7308 C   0  0  0  0  0  0  0  0  0  0  0  0
  -28.0327  -10.0723  145.6064 C   0  0  0  0  0  0  0  0  0  0  0  0
  -27.9647   -8.8521  147.8103 O   0  0  0  0  0  0  0  0  0  0  0  0
  -29.2385  -10.8296  146.1720 C   0  0  0  0  0  0  0  0  0  0  0  0
  -25.8332   -9.5729  146.8929 C   0  0  0  0  0  0  0  0  0  0  0  0
  -25.4267   -9.5041  148.2906 N   0  0  0  0  0  0  0  0  0  0  0  0
  -26.1386   -8.1733  146.2964 C   0  0  0  0  0  0  0  0  0  0  0  0
  -27.2577   -9.2192  146.6563 C   0  0  0  0  0  0  0  0  0  0  0  0
  -24.8753   -7.9623  145.4212 C   0  0  0  0  0  0  0  0  0  0  0  0
  -26.1899   -8.0249  144.7526 C   0  0  0  0  0  0  0  0  0  0  0  0
  2  1  1  0
  3  2  1  0
  5  2  1  0
  5  3  1  0
  7  6  1  0
  8  6  1  0
  9  3  1  0
  9  4  1  0
  9  6  1  0
  9  8  1  0
 10  8  1  0
 11  8  1  0
 11 10  1  0
M  END
$$$$

     RDKit          3D

 11 11  0  0  0  0  0  0  0  0999 V2000
  -16.3219    1.3114  136.8193 O   0  0  0  0  0  0  0  0  0  0  0  0
  -15.2350    0.4780  137.0999 C   0  0  0  0  0  0  0  0  0  0  0  0
  -13.4404    1.3063  136.2087 Mg  0  0  0  0  0  2  0  0  0  0  0  0
  -11.7842    2.0663  135.3822 O   0  0  0  0  0  0  0  0  0  0  0  0
  -15.4639   -0.9362  136.5437 C   0  0  0  0  0  0  0  0  0  0  0  0
  -16.6660   -1.6002  137.2488 C   0  0  0  0  0  0  0  0  0  0  0  0
  -16.9434   -3.0387  136.7829 C   0  0  0  0  0  0  0  0  0  0  0  0
  -17.6265   -3.0809  135.4062 C   0  0  0  0  0  0  0  0  0  0  0  0
  -15.6123   -0.8845  135.0052 C   0  0  0  0  0  0  0  0  0  0  0  0
  -16.6532   -3.1178  134.2149 C   0  0  0  0  0  0  0  0  0  0  0  0
  -15.3847   -2.2571  134.3483 C   0  0  0  0  0  0  0  0  0  0  0  0
  2  1  1  0
  3  2  1  0
  4  3  1  0
  5  2  1  0
  6  5  1  0
  7  6  1  0
  8  7  1  0
  9  5  1  0
 10  8  1  0
 11  9  1  0
 11 10  1  0
M  END
$$$$

     RDKit          3D

 11 11  0  0  0  0  0  0  0  0999 V2000
  -22.1915    2.5235  135.1549 O   0  0  0  0  0  0  0  0  0  0  0  0
  -21.9067    3.8955  135.0403 C   0  0  0  0  0  0  0  0  0  0  0  0
  -22.5067    4.6029  136.0981 O   0  0  0  0  0  0  0  0  0  0  0  0
  -22.3964    4.4053  133.6641 C   0  0  0  0  0  0  0  0  0  0  0  0
  -23.8015    4.3456  133.5962 O   0  0  0  0  0  0  0  0  0  0  0  0
  -21.8720    5.8072  133.1889 C   0  0  0  0  0  0  0  0  0  0  0  0
  -20.5099    5.7608  132.4458 C   0  0  0  0  0  0  0  0  0  0  0  0
  -19.2909    5.8896  133.3653 C   0  0  0  0  0  0  0  0  0  0  0  0
  -19.4013    7.1280  134.2548 C   0  0  0  0  0  0  0  0  0  0  0  0
  -20.6699    7.0751  135.1054 C   0  0  0  0  0  0  0  0  0  0  0  0
  -21.9305    6.9537  134.2335 C   0  0  0  0  0  0  0  0  0  0  0  0
  2  1  1  0
  3  2  1  0
  4  2  1  0
  5  4  1  0
  6  4  1  0
  7  6  1  0
  8  7  1  0
  9  8  1  0
 10  9  1  0
 11  6  1  0
 11 10  1  0
M  END
$$$$

     RDKit          3D

 11 13  0  0  0  0  0  0  0  0999 V2000
  -34.2646   -9.3438  142.4567 F   0  0  0  0  0  0  0  0  0  0  0  0
  -35.2347   -9.7949  143.3375 C   0  0  0  0  0  0  0  0  0  0  0  0
  -36.3143  -10.5879  142.5549 C   0  0  0  0  0  0  0  0  0  0  0  0
  -36.4830  -12.0401  143.0281 C   0  0  0  0  0  0  0  0  0  0  0  0
  -35.1068  -12.7496  143.1195 C   0  0  0  0  0  0  0  0  0  0  0  0
  -34.5587  -10.6093  144.4521 C   0  0  0  0  0  0  0  0  0  0  0  0
  -34.6724  -13.2147  144.5102 C   0  0  0  0  0  0  0  0  0  0  0  0
  -34.5033  -13.5641  141.9486 C   0  0  0  0  0  0  0  0  0  0  0  0
  -35.1362  -13.4615  140.5673 C   0  0  0  0  0  0  0  0  0  0  0  0
  -34.0551  -11.9566  143.9072 C   0  0  0  0  0  0  0  0  0  0  0  0
  -35.3940  -14.6849  141.4343 C   0  0  0  0  0  0  0  0  0  0  0  0
  2  1  1  0
  3  2  1  0
  4  3  1  0
  5  4  1  0
  6  2  1  0
  7  5  1  0
  8  5  1  0
  9  8  1  0
 10  5  1  0
 10  6  1  0
 10  7  1  0
 11  8  1  0
 11  9  1  0
M  END
$$$$

     RDKit          3D

 11 13  0  0  0  0  0  0  0  0999 V2000
  -23.0098    1.0459  144.2916 C   0  0  0  0  0  0  0  0  0  0  0  0
  -24.2964    1.2624  143.5110 C   0  0  0  0  0  0  0  0  0  0  0  0
  -22.6664   -0.4381  144.5316 C   0  0  0  0  0  0  0  0  0  0  0  0
  -21.8898   -1.1568  143.5114 C   0  0  0  0  0  0  0  0  0  0  0  0
  -21.4732   -0.4144  142.2249 C   0  0  0  0  0  0  0  0  0  0  0  0
  -24.2639    1.5265  145.0059 C   0  0  0  0  0  0  0  0  0  0  0  0
  -20.4899   -1.2813  141.4235 C   0  0  0  0  0  0  0  0  0  0  0  0
  -21.2226   -0.6938  144.7504 N   0  0  0  0  0  0  0  0  0  0  0  0
  -18.9897   -1.0894  141.6344 C   0  0  0  0  0  0  0  0  0  0  0  0
  -19.6634   -0.5103  140.3983 C   0  0  0  0  0  0  0  0  0  0  0  0
  -18.6157   -0.0717  142.6080 N   0  0  0  0  0  0  0  0  0  0  0  0
  2  1  1  0
  3  1  1  0
  4  3  1  0
  5  4  1  0
  6  1  1  0
  6  2  1  0
  7  5  1  0
  8  3  1  0
  8  4  1  0
  9  7  1  0
 10  7  1  0
 10  9  1  0
 11  9  1  0
M  END
$$$$

     RDKit          3D

 11 11  0  0  0  0  0  0  0  0999 V2000
  -25.8074  -16.1199  140.7290 F   0  0  0  0  0  0  0  0  0  0  0  0
  -26.3060  -15.2550  141.6871 C   0  0  0  0  0  0  0  0  0  0  0  0
  -27.6873  -15.2745  141.6189 F   0  0  0  0  0  0  0  0  0  0  0  0
  -26.0508  -13.4873  140.1148 F   0  0  0  0  0  0  0  0  0  0  0  0
  -25.8055  -13.8206  141.4366 C   0  0  0  0  0  0  0  0  0  0  0  0
  -24.3109  -13.5614  141.7559 C   0  0  0  0  0  0  0  0  0  0  0  0
  -23.9150  -13.7746  143.2020 C   0  0  0  0  0  0  0  0  0  0  0  0
  -23.2730  -12.6711  143.7426 F   0  0  0  0  0  0  0  0  0  0  0  0
  -23.9307  -12.3065  141.3059 F   0  0  0  0  0  0  0  0  0  0  0  0
  -22.9320  -14.8408  142.7943 C   0  0  0  0  0  0  0  0  0  0  0  0
  -23.2691  -14.6771  141.2258 B   0  0  0  0  0  0  0  0  0  0  0  0
  2  1  1  0
  3  2  1  0
  5  2  1  0
  5  4  1  0
  6  5  1  0
  7  6  1  0
  8  7  1  0
  9  6  1  0
 10  7  1  0
 11  6  1  0
 11 10  1  0
M  END
$$$$

     RDKit          3D

 11 12  0  0  0  0  0  0  0  0999 V2000
  -23.1578   -3.2277  144.2218 F   0  0  0  0  0  0  0  0  0  0  0  0
  -22.7750   -4.4448  143.6846 C   0  0  0  0  0  0  0  0  0  0  0  0
  -23.9207   -5.0229  142.8455 C   0  0  0  0  0  0  0  0  0  0  0  0
  -25.4324   -4.6523  140.8271 C   0  0  0  0  0  0  0  0  0  0  0  0
  -25.5695   -7.2439  140.7413 C   0  0  0  0  0  0  0  0  0  0  0  0
  -22.4347   -5.3999  144.8371 C   0  0  0  0  0  0  0  0  0  0  0  0
  -21.4011   -6.4708  144.5211 C   0  0  0  0  0  0  0  0  0  0  0  0
  -25.0844   -5.9556  140.0921 C   0  0  0  0  0  0  0  0  0  0  0  0
  -24.2424   -4.1267  141.6397 C   0  0  0  0  0  0  0  0  0  0  0  0
  -21.0200   -5.2761  145.3823 C   0  0  0  0  0  0  0  0  0  0  0  0
  -26.2871   -6.6913  139.5205 C   0  0  0  0  0  0  0  0  0  0  0  0
  2  1  1  0
  3  2  1  0
  6  2  1  0
  7  6  1  0
  8  4  1  0
  8  5  1  0
  9  3  1  0
  9  4  1  0
 10  6  1  0
 10  7  1  0
 11  5  1  0
 11  8  1  0
M  END
$$$$

     RDKit          3D

 11 10  0  0  0  0  0  0  0  0999 V2000
  -18.9619   -8.4157  136.6219 I   0  0  0  0  0  0  0  0  0  0  0  0
  -17.2988   -4.3958  134.5975 O   0  0  0  0  0  0  0  0  0  0  0  0
  -18.4264   -3.6911  135.0775 C   0  0  0  0  0  0  0  0  0  0  0  0
  -18.7025   -2.4865  134.1779 C   0  0  0  0  0  0  0  0  0  0  0  0
  -18.2582   -3.2434  131.8494 C   0  0  0  0  0  0  0  0  0  0  0  0
  -19.1486   -2.9232  132.7984 C   0  0  0  0  0  0  0  0  0  0  0  0
  -20.6111   -3.0250  132.4714 C   0  0  0  0  0  0  0  0  0  0  0  0
  -17.2008   -5.6629  135.2185 C   0  0  0  0  0  0  0  0  0  0  0  0
  -17.6981   -8.1394  134.9141 C   0  0  0  0  0  0  0  0  0  0  0  0
  -17.8438   -6.7330  134.3270 C   0  0  0  0  0  0  0  0  0  0  0  0
  -18.0561   -9.0723  133.9581 F   0  0  0  0  0  0  0  0  0  0  0  0
  3  2  1  0
  4  3  1  0
  6  4  1  0
  6  5  2  0
  7  6  1  0
  8  2  1  0
  9  1  1  0
 10  8  1  0
 10  9  1  0
 11  9  1  0
M  END
$$$$

     RDKit          3D

 11 12  0  0  0  0  0  0  0  0999 V2000
  -20.4195   -4.5962  138.7695 C   0  0  0  0  0  0  0  0  0  0  0  0
  -20.6286   -3.2908  139.5507 C   0  0  0  0  0  0  0  0  0  0  0  0
  -18.9288   -4.8923  138.5587 C   0  0  0  0  0  0  0  0  0  0  0  0
  -18.2669   -5.4611  139.8203 C   0  0  0  0  0  0  0  0  0  0  0  0
  -16.7591   -5.6299  139.5941 C   0  0  0  0  0  0  0  0  0  0  0  0
  -16.3364   -6.9347  138.9370 C   0  0  0  0  0  0  0  0  0  0  0  0
  -16.0939   -6.7182  140.4222 C   0  0  0  0  0  0  0  0  0  0  0  0
  -20.9729   -3.4290  141.0295 C   0  0  0  0  0  0  0  0  0  0  0  0
  -20.5238   -2.2607  141.9139 C   0  0  0  0  0  0  0  0  0  0  0  0
  -19.1464   -2.4670  142.3498 N   0  0  0  0  0  0  0  0  0  0  0  0
  -22.0644   -3.0854  140.0230 C   0  0  0  0  0  0  0  0  0  0  0  0
  2  1  1  0
  3  1  1  0
  4  3  1  0
  5  4  1  0
  6  5  1  0
  7  5  1  0
  7  6  1  0
  8  2  1  0
  9  8  1  0
 10  9  1  0
 11  2  1  0
 11  8  1  0
M  END
$$$$

     RDKit          3D

 11 14  0  0  0  0  0  0  0  0999 V2000
  -24.3338   -9.8912  152.2068 O   0  0  0  0  0  0  0  0  0  0  0  0
  -24.8726  -10.5052  154.3213 C   0  0  0  0  0  0  0  0  0  0  0  0
  -24.2216   -8.8010  152.9782 O   0  0  0  0  0  0  0  0  0  0  0  0
  -26.3861  -10.3409  154.3808 C   0  0  0  0  0  0  0  0  0  0  0  0
  -26.9627   -9.4804  153.3195 N   0  0  0  0  0  0  0  0  0  0  0  0
  -28.4070   -9.7311  153.1958 C   0  0  0  0  0  0  0  0  0  0  0  0
  -24.8926  -10.9073  152.9449 N   0  0  0  0  0  0  0  0  0  0  0  0
  -24.1097   -9.2347  154.2986 C   0  0  0  0  0  0  0  0  0  0  0  0
  -28.6546  -11.1201  152.5714 C   0  0  0  0  0  0  0  0  0  0  0  0
  -26.3505  -10.7584  152.9554 C   0  0  0  0  0  0  0  0  0  0  0  0
  -27.3213  -11.8498  152.5764 C   0  0  0  0  0  0  0  0  0  0  0  0
  3  1  1  0
  4  2  1  0
  5  4  1  0
  6  5  1  0
  7  1  1  0
  7  2  1  0
  8  2  1  0
  8  3  1  0
  9  6  1  0
 10  4  1  0
 10  5  1  0
 10  7  1  0
 11  9  1  0
 11 10  1  0
M  END
$$$$

     RDKit          3D

 10 12  0  0  0  0  0  0  0  0999 V2000
  -21.0245    3.7930  138.3377 C   0  0  0  0  0  0  0  0  0  0  0  0
  -23.5481    4.0556  137.2260 C   0  0  0  0  0  0  0  0  0  0  0  0
  -20.5672    5.2367  136.7435 C   0  0  0  0  0  0  0  0  0  0  0  0
  -20.5253    3.7466  136.8917 C   0  0  0  0  0  0  0  0  0  0  0  0
  -22.8911    3.3691  135.9892 C   0  0  0  0  0  0  0  0  0  0  0  0
  -21.3795    5.2331  138.0057 C   0  0  0  0  0  0  0  0  0  0  0  0
  -22.3073    2.0446  136.2887 C   0  0  0  0  0  0  0  0  0  0  0  0
  -21.0726    2.9978  139.4064 C   0  0  0  0  0  0  0  0  0  0  0  0
  -22.8893    5.3679  137.7096 C   0  0  0  0  0  0  0  0  0  0  0  0
  -21.4147    3.1427  135.8605 N   0  0  0  0  0  0  0  0  0  0  0  0
  4  1  1  0
  4  3  1  0
  5  2  1  0
  6  1  1  0
  6  3  1  0
  7  5  1  0
  8  1  2  0
  9  2  1  0
  9  6  1  0
 10  4  1  0
 10  5  1  0
 10  7  1  0
M  END
$$$$

     RDKit          3D

 11 12  0  0  0  0  0  0  0  0999 V2000
  -24.8157  -22.4124  141.4583 C   0  0  0  0  0  0  0  0  0  0  0  0
  -23.6697  -23.0230  142.3131 C   0  0  0  0  0  0  0  0  0  0  0  0
  -22.3362  -22.5997  141.6841 C   0  0  0  0  0  0  0  0  0  0  0  0
  -22.2546  -21.0829  141.5864 C   0  0  0  0  0  0  0  0  0  0  0  0
  -24.5766  -22.4907  139.9160 C   0  0  0  0  0  0  0  0  0  0  0  0
  -20.9838  -22.6141  142.3854 C   0  0  0  0  0  0  0  0  0  0  0  0
  -22.6746  -22.1915  138.2019 C   0  0  0  0  0  0  0  0  0  0  0  0
  -22.7565  -20.4884  140.2382 C   0  0  0  0  0  0  0  0  0  0  0  0
  -21.5467  -21.3394  137.6115 C   0  0  0  0  0  0  0  0  0  0  0  0
  -20.7719  -21.1559  141.8985 C   0  0  0  0  0  0  0  0  0  0  0  0
  -23.5400  -21.4702  139.2797 C   0  0  0  0  0  0  0  0  0  0  0  0
  2  1  1  0
  3  2  1  0
  4  3  1  0
  5  1  1  0
  6  3  1  0
  8  4  1  0
  9  7  1  0
 10  4  1  0
 10  6  1  0
 11  5  1  0
 11  7  1  0
 11  8  1  0
M  END
$$$$

     RDKit          3D

 11 12  0  0  0  0  0  0  0  0999 V2000
  -23.1742   -0.4767  143.0394 C   0  0  0  0  0  0  0  0  0  0  0  0
  -24.0526    0.3354  145.2019 C   0  0  0  0  0  0  0  0  0  0  0  0
  -23.2382   -3.0009  145.1274 C   0  0  0  0  0  0  0  0  0  0  0  0
  -22.5579   -2.5756  146.4337 C   0  0  0  0  0  0  0  0  0  0  0  0
  -21.4692   -3.5958  146.8129 C   0  0  0  0  0  0  0  0  0  0  0  0
  -21.8339   -4.8636  147.5537 C   0  0  0  0  0  0  0  0  0  0  0  0
  -23.8853   -0.6858  144.3506 C   0  0  0  0  0  0  0  0  0  0  0  0
  -20.0035   -3.2146  146.8277 C   0  0  0  0  0  0  0  0  0  0  0  0
  -20.7803   -3.1931  148.1270 C   0  0  0  0  0  0  0  0  0  0  0  0
  -24.3846   -2.0583  144.7328 C   0  0  0  0  0  0  0  0  0  0  0  0
  -21.0960   -4.4781  148.7519 N   0  0  0  0  0  0  0  0  0  0  0  0
  4  3  1  0
  5  4  1  0
  6  5  1  0
  7  1  1  0
  7  2  2  0
  8  5  1  0
  9  5  1  0
  9  8  1  0
 10  3  1  0
 10  7  1  0
 11  6  1  0
 11  9  1  0
M  END
$$$$

     RDKit          3D

 11 12  0  0  0  0  0  0  0  0999 V2000
  -18.1752   -8.7759  135.3514 C   0  0  0  0  0  0  0  0  0  0  0  0
  -18.2188   -6.3346  136.0401 C   0  0  0  0  0  0  0  0  0  0  0  0
  -17.9508   -6.2951  137.3531 C   0  0  0  0  0  0  0  0  0  0  0  0
  -17.5844   -7.3809  135.1568 C   0  0  0  0  0  0  0  0  0  0  0  0
  -18.5671   -5.2588  138.2550 C   0  0  0  0  0  0  0  0  0  0  0  0
  -18.0941   -7.3712  133.7160 C   0  0  0  0  0  0  0  0  0  0  0  0
  -18.0149   -3.8525  137.9890 C   0  0  0  0  0  0  0  0  0  0  0  0
  -18.6735   -8.7656  133.9127 C   0  0  0  0  0  0  0  0  0  0  0  0
  -16.5108   -3.7743  138.2954 C   0  0  0  0  0  0  0  0  0  0  0  0
  -16.1483   -3.4374  139.7337 C   0  0  0  0  0  0  0  0  0  0  0  0
  -15.9971   -2.3860  138.6447 C   0  0  0  0  0  0  0  0  0  0  0  0
  3  2  2  3
  4  1  1  0
  4  2  1  0
  5  3  1  0
  6  4  1  0
  7  5  1  0
  8  1  1  0
  8  6  1  0
  9  7  1  0
 10  9  1  0
 11  9  1  0
 11 10  1  0
M  END
$$$$

     RDKit          3D

  6  6  0  0  0  0  0  0  0  0999 V2000
  -19.5584  -15.9999  153.9108 O   0  0  0  0  0  0  0  0  0  0  0  0
  -20.2016  -14.9370  154.5598 C   0  0  0  0  0  0  0  0  0  0  0  0
  -21.3729  -14.3905  153.7409 C   0  0  0  0  0  0  0  0  0  0  0  0
  -22.6621  -14.2382  154.5527 C   0  0  0  0  0  0  0  0  0  0  0  0
  -20.6169  -13.0776  153.5433 C   0  0  0  0  0  0  0  0  0  0  0  0
  -19.4506  -13.6254  154.3574 C   0  0  0  0  0  0  0  0  0  0  0  0
  2  1  1  0
  3  2  1  0
  4  3  1  0
  5  3  1  0
  6  2  1  0
  6  5  1  0
M  END
$$$$

     RDKit          3D

 11 11  0  0  0  0  0  0  0  0999 V2000
  -23.1173   -7.2772  137.0719 Mg  0  0  0  0  0  2  0  0  0  0  0  0
  -20.5467   -5.8590  136.8772 O   0  0  0  0  0  0  0  0  0  0  0  0
  -23.2285   -7.9455  140.0065 O   0  0  0  0  0  0  0  0  0  0  0  0
  -23.8106   -6.7656  140.0475 O   0  0  0  0  0  0  0  0  0  0  0  0
  -25.2634   -7.4539  136.8388 C   0  0  0  0  0  0  0  0  0  0  0  0
  -23.2503  -10.4790  137.5008 C   0  0  0  0  0  0  0  0  0  0  0  0
  -24.5364   -9.2770  135.2678 C   0  0  0  0  0  0  0  0  0  0  0  0
  -24.4455  -12.7971  137.1314 S   0  0  0  0  0  4  0  0  0  0  0  0
  -24.6726   -8.0552  134.5749 O   0  0  0  0  0  0  0  0  0  0  0  0
  -20.9720   -7.1155  137.3080 C   0  0  0  0  0  0  0  0  0  0  0  0
  -25.5812   -8.2946  135.6184 C   0  0  0  0  0  0  0  0  0  0  0  0
  4  3  1  0
  5  1  1  0
  8  4  1  0
  8  6  1  0
  8  7  1  0
  9  7  1  0
 10  1  1  0
 10  2  1  0
 11  5  1  0
 11  7  1  0
 11  9  1  0
M  END
$$$$

     RDKit          3D

 11 11  0  0  0  0  0  0  0  0999 V2000
  -19.0941   -5.2550  146.3649 O   0  0  0  0  0  0  0  0  0  0  0  0
  -18.7526   -3.9215  146.7154 C   0  0  0  0  0  0  0  0  0  0  0  0
  -17.4254   -3.8203  147.3620 N   0  0  0  0  0  0  0  0  0  0  0  0
  -18.9588   -2.8796  145.6218 C   0  0  0  0  0  0  0  0  0  0  0  0
  -15.7477   -3.9369  145.4854 C   0  0  0  0  0  0  0  0  0  0  0  0
  -16.3396   -4.5375  146.6799 C   0  0  0  0  0  0  0  0  0  0  0  0
  -19.7029   -3.1749  144.5235 F   0  0  0  0  0  0  0  0  0  0  0  0
  -18.5647   -1.6095  145.7747 C   0  0  0  0  0  0  0  0  0  0  0  0
  -18.5143   -5.7044  144.8078 Cl  0  0  0  0  0  0  0  0  0  0  0  0
  -16.0897   -6.2671  147.0555 Cl  0  0  0  0  0  0  0  0  0  0  0  0
  -15.0609   -3.8030  146.7837 N   0  0  0  0  0  0  0  0  0  0  0  0
  2  1  1  0
  3  2  1  0
  4  2  1  0
  6  3  1  0
  6  5  1  0
  7  4  1  0
  8  4  2  0
  9  1  1  0
 10  6  1  0
 11  5  1  0
 11  6  1  0
M  END
$$$$

     RDKit          3D

 11 13  0  0  0  0  0  0  0  0999 V2000
  -24.8793   -3.4332  130.2953 O   0  0  0  0  0  0  0  0  0  0  0  0
  -24.7377   -3.5627  128.9063 C   0  0  0  0  0  0  0  0  0  0  0  0
  -23.4339   -4.1526  128.3493 C   0  0  0  0  0  0  0  0  0  0  0  0
  -23.4490   -4.7184  126.9557 C   0  0  0  0  0  0  0  0  0  0  0  0
  -24.4081   -5.5524  126.5359 C   0  0  0  0  0  0  0  0  0  0  0  0
  -23.6188   -2.6483  128.4065 C   0  0  0  0  0  0  0  0  0  0  0  0
  -25.6311   -5.8155  127.3607 C   0  0  0  0  0  0  0  0  0  0  0  0
  -26.4961   -4.5452  127.3727 C   0  0  0  0  0  0  0  0  0  0  0  0
  -27.0797   -4.1505  128.6463 C   0  0  0  0  0  0  0  0  0  0  0  0
  -28.2986   -3.4820  128.5094 O   0  0  0  0  0  0  0  0  0  0  0  0
  -25.9546   -3.3530  128.0922 N   0  0  0  0  0  0  0  0  0  0  0  0
  2  1  1  0
  3  2  1  0
  4  3  1  0
  5  4  2  0
  6  2  1  0
  6  3  1  0
  7  5  1  0
  8  7  1  0
  9  8  1  0
 10  9  1  0
 11  2  1  0
 11  8  1  0
 11  9  1  0
M  END
$$$$

     RDKit          3D

 11 13  0  0  0  0  0  0  0  0999 V2000
  -28.4565  -12.6750  149.8702 C   0  0  0  0  0  0  0  0  0  0  0  0
  -29.7232  -11.7647  149.8431 C   0  0  0  0  0  0  0  0  0  0  0  0
  -31.0165  -12.3090  149.1657 C   0  0  0  0  0  0  0  0  0  0  0  0
  -31.1886  -11.8777  147.6968 C   0  0  0  0  0  0  0  0  0  0  0  0
  -28.6558  -14.0968  150.3990 C   0  0  0  0  0  0  0  0  0  0  0  0
  -28.2266  -13.8784  148.9544 C   0  0  0  0  0  0  0  0  0  0  0  0
  -29.9888  -12.0982  146.7434 C   0  0  0  0  0  0  0  0  0  0  0  0
  -29.2732  -14.1703  147.9826 N   0  0  0  0  0  0  0  0  0  0  0  0
  -30.0251  -11.3223  151.2829 C   0  0  0  0  0  0  0  0  0  0  0  0
  -29.0538  -13.3034  146.8323 C   0  0  0  0  0  0  0  0  0  0  0  0
  -30.1922  -13.3154  145.8345 C   0  0  0  0  0  0  0  0  0  0  0  0
  2  1  1  0
  3  2  1  0
  4  3  1  0
  5  1  1  0
  6  1  1  0
  6  5  1  0
  7  4  1  0
  8  6  1  0
  9  2  1  0
 10  7  1  0
 10  8  1  0
 11  7  1  0
 11 10  1  0
M  END
$$$$

     RDKit          3D

 11 14  0  0  0  0  0  0  0  0999 V2000
  -23.6341  -10.2804  145.9156 C   0  0  0  0  0  0  0  0  0  0  0  0
  -24.1196   -9.5150  144.6739 C   0  0  0  0  0  0  0  0  0  0  0  0
  -25.5547   -9.9376  144.3099 C   0  0  0  0  0  0  0  0  0  0  0  0
  -21.8257  -11.4660  146.0002 C   0  0  0  0  0  0  0  0  0  0  0  0
  -26.6071   -8.8912  144.6254 C   0  0  0  0  0  0  0  0  0  0  0  0
  -21.9536   -9.5727  147.7164 C   0  0  0  0  0  0  0  0  0  0  0  0
  -26.6440   -7.8082  143.5636 C   0  0  0  0  0  0  0  0  0  0  0  0
  -25.6145   -8.0678  142.4830 C   0  0  0  0  0  0  0  0  0  0  0  0
  -22.1666   -9.9992  146.2611 C   0  0  0  0  0  0  0  0  0  0  0  0
  -23.2818  -11.7458  145.6477 C   0  0  0  0  0  0  0  0  0  0  0  0
  -26.3016   -9.2386  143.1719 C   0  0  0  0  0  0  0  0  0  0  0  0
  2  1  1  0
  3  2  1  0
  5  3  1  0
  7  5  1  0
  8  7  1  0
  9  1  1  0
  9  4  1  0
  9  6  1  0
 10  1  1  0
 10  4  1  0
 11  3  1  0
 11  5  1  0
 11  7  1  0
 11  8  1  0
M  END
$$$$

     RDKit          3D

 11 13  0  0  0  0  0  0  0  0999 V2000
  -15.6225   -6.4463  144.6381 C   0  0  0  0  0  0  0  0  0  0  0  0
  -17.0627   -6.0027  146.1808 N   0  0  0  0  0  0  0  0  0  0  0  0
  -14.4422   -4.4672  144.0287 C   0  0  0  0  0  0  0  0  0  0  0  0
  -15.1771   -4.2878  145.4112 C   0  0  0  0  0  0  0  0  0  0  0  0
  -14.6728   -3.4003  143.1464 O   0  0  0  0  0  0  0  0  0  0  0  0
  -15.0184   -5.7912  143.4108 C   0  0  0  0  0  0  0  0  0  0  0  0
  -15.5637   -2.8410  145.8145 C   0  0  0  0  0  0  0  0  0  0  0  0
  -18.0797   -6.8131  145.4867 C   0  0  0  0  0  0  0  0  0  0  0  0
  -16.3311   -5.2391  145.1797 C   0  0  0  0  0  0  0  0  0  0  0  0
  -16.6804   -7.2331  145.4172 C   0  0  0  0  0  0  0  0  0  0  0  0
  -16.7918   -2.2476  145.1150 C   0  0  0  0  0  0  0  0  0  0  0  0
  4  3  1  0
  5  3  1  0
  6  1  1  0
  6  3  1  0
  7  4  1  0
  8  2  1  0
  9  1  1  0
  9  2  1  0
  9  4  1  0
 10  1  1  0
 10  2  1  0
 10  8  1  0
 11  7  1  0
M  END
$$$$

     RDKit          3D

 11 10  0  0  0  0  0  0  0  0999 V2000
  -25.8796   -0.4677  144.4032 O   0  0  0  0  0  0  0  0  0  0  0  0
  -26.5386   -0.8854  143.4138 C   0  0  0  0  0  0  0  0  0  0  0  0
  -26.2228   -2.1120  142.8379 O   0  0  0  0  0  0  0  0  0  0  0  0
  -27.6755   -0.0724  142.8667 C   0  0  0  0  0  0  0  0  0  0  0  0
  -29.1228   -0.3043  145.0240 C   0  0  0  0  0  0  0  0  0  0  0  0
  -28.7767    1.1265  145.4917 C   0  0  0  0  0  0  0  0  0  0  0  0
  -29.0513   -0.4557  143.4709 C   0  0  0  0  0  0  0  0  0  0  0  0
  -29.4459   -1.8784  143.0247 C   0  0  0  0  0  0  0  0  0  0  0  0
  -28.9472    1.2563  146.8788 O   0  0  0  0  0  0  0  0  0  0  0  0
  -30.7351   -1.6481  146.3772 C   0  0  0  0  0  0  0  0  0  0  0  0
  -30.5138   -0.6485  145.5179 C   0  0  0  0  0  0  0  0  0  0  0  0
  2  1  2  0
  3  2  1  0
  4  2  1  0
  6  5  1  0
  7  4  1  0
  7  5  1  0
  8  7  1  0
  9  6  1  0
 11  5  1  0
 11 10  2  0
M  END
$$$$

     RDKit          3D

 11 12  0  0  0  0  0  0  0  0999 V2000
  -20.4964   -6.7430  139.9459 O   0  0  0  0  0  0  0  0  0  0  0  0
  -19.3653   -6.4334  139.1846 C   0  0  0  0  0  0  0  0  0  0  0  0
  -19.5534   -6.1761  137.8212 O   0  0  0  0  0  0  0  0  0  0  0  0
  -18.2967   -5.6247  139.8822 C   0  0  0  0  0  0  0  0  0  0  0  0
  -18.0720   -6.8291  142.1353 C   0  0  0  0  0  0  0  0  0  0  0  0
  -15.8979   -6.1342  140.8183 C   0  0  0  0  0  0  0  0  0  0  0  0
  -15.6790   -4.6884  141.1795 C   0  0  0  0  0  0  0  0  0  0  0  0
  -17.4225   -6.4847  140.7890 C   0  0  0  0  0  0  0  0  0  0  0  0
  -18.0796   -7.1293  139.5688 C   0  0  0  0  0  0  0  0  0  0  0  0
  -16.0122   -4.2667  142.2756 O   0  0  0  0  0  0  0  0  0  0  0  0
  -15.1801   -6.4465  139.5792 N   0  0  0  0  0  0  0  0  0  0  0  0
  2  1  1  0
  3  2  1  0
  4  2  1  0
  7  6  1  0
  8  4  1  0
  8  5  1  0
  8  6  1  0
  9  2  1  0
  9  4  1  0
  9  8  1  0
 10  7  2  0
 11  6  1  0
M  END
$$$$

     RDKit          3D

 10 10  0  0  0  0  0  0  0  0999 V2000
  -30.7692  -14.9970  144.8227 O   0  0  0  0  0  0  0  0  0  0  0  0
  -31.9323  -14.3963  144.2900 C   0  0  0  0  0  0  0  0  0  0  0  0
  -28.3709  -14.9559  144.8992 C   0  0  0  0  0  0  0  0  0  0  0  0
  -27.1465  -14.4361  148.3877 C   0  0  0  0  0  0  0  0  0  0  0  0
  -27.2239  -14.8537  147.1271 C   0  0  0  0  0  0  0  0  0  0  0  0
  -28.3185  -14.4825  146.2809 N   0  0  0  0  0  0  0  0  0  0  0  0
  -29.6283  -14.4554  144.1910 C   0  0  0  0  0  0  0  0  0  0  0  0
  -32.3489  -13.1522  145.0709 C   0  0  0  0  0  0  0  0  0  0  0  0
  -33.1869  -15.1135  144.7743 C   0  0  0  0  0  0  0  0  0  0  0  0
  -33.5998  -13.8721  145.5516 C   0  0  0  0  0  0  0  0  0  0  0  0
  2  1  1  0
  5  4  2  0
  6  3  1  0
  6  5  1  0
  7  1  1  0
  7  3  1  0
  8  2  1  0
  9  2  1  0
 10  8  1  0
 10  9  1  0
M  END
$$$$

     RDKit          3D

 11 12  0  0  0  0  0  0  0  0999 V2000
  -17.6115   -2.6280  138.9324 O   0  0  0  0  0  0  0  0  0  0  0  0
  -17.9323   -3.1321  140.2053 C   0  0  0  0  0  0  0  0  0  0  0  0
  -17.7566   -4.4203  140.5665 C   0  0  0  0  0  0  0  0  0  0  0  0
  -18.5738   -2.1794  141.1725 C   0  0  0  0  0  0  0  0  0  0  0  0
  -20.8704   -1.0575  141.5081 C   0  0  0  0  0  0  0  0  0  0  0  0
  -20.1001   -2.2994  141.0869 C   0  0  0  0  0  0  0  0  0  0  0  0
  -17.2546   -5.5110  139.6589 C   0  0  0  0  0  0  0  0  0  0  0  0
  -17.9090   -5.4461  138.2729 C   0  0  0  0  0  0  0  0  0  0  0  0
  -17.2205   -4.4454  137.3310 C   0  0  0  0  0  0  0  0  0  0  0  0
  -20.7687   -1.4265  140.0356 C   0  0  0  0  0  0  0  0  0  0  0  0
  -16.6664   -3.1984  138.0313 C   0  0  0  0  0  0  0  0  0  0  0  0
  2  1  1  0
  3  2  2  0
  4  2  1  0
  6  4  1  0
  6  5  1  0
  7  3  1  0
  8  7  1  0
  9  8  1  0
 10  5  1  0
 10  6  1  0
 11  1  1  0
 11  9  1  0
M  END
$$$$

     RDKit          3D

 11 10  0  0  0  0  0  0  0  0999 V2000
  -25.0425  -23.7471  141.8729 F   0  0  0  0  0  0  0  0  0  0  0  0
  -24.0869  -24.7474  139.2292 C   0  0  0  0  0  0  0  0  0  0  0  0
  -23.4672  -27.0157  139.0039 F   0  0  0  0  0  0  0  0  0  0  0  0
  -23.1375  -24.6718  140.2352 F   0  0  0  0  0  0  0  0  0  0  0  0
  -24.5874  -26.2052  139.1133 C   0  0  0  0  0  0  0  0  0  0  0  0
  -25.9226  -23.8565  140.8114 C   0  0  0  0  0  0  0  0  0  0  0  0
  -26.8806  -22.8659  140.9253 F   0  0  0  0  0  0  0  0  0  0  0  0
  -25.1817  -23.6913  139.4792 C   0  0  0  0  0  0  0  0  0  0  0  0
  -25.1990  -27.6576  137.2466 O   0  0  0  0  0  0  0  0  0  0  0  0
  -25.5209  -26.4487  137.8902 C   0  0  0  0  0  0  0  0  0  0  0  0
  -27.0078  -26.4602  138.2788 C   0  0  0  0  0  0  0  0  0  0  0  0
  4  2  1  0
  5  2  1  0
  5  3  1  0
  6  1  1  0
  7  6  1  0
  8  2  1  0
  8  6  1  0
 10  5  1  0
 10  9  1  0
 11 10  1  0
M  END
$$$$

     RDKit          3D

 11 14  0  0  0  0  0  0  0  0999 V2000
  -24.3309  -12.5428  134.7756 C   0  0  0  0  0  0  0  0  0  0  0  0
  -23.8847  -13.8955  134.2109 C   0  0  0  0  0  0  0  0  0  0  0  0
  -23.5530  -13.7613  132.7204 C   0  0  0  0  0  0  0  0  0  0  0  0
  -24.1723  -12.4372  136.3191 C   0  0  0  0  0  0  0  0  0  0  0  0
  -24.5515  -11.2642  137.2651 C   0  0  0  0  0  0  0  0  0  0  0  0
  -23.2514  -11.6876  135.3111 C   0  0  0  0  0  0  0  0  0  0  0  0
  -25.6350  -12.0999  136.7216 C   0  0  0  0  0  0  0  0  0  0  0  0
  -22.7112  -14.9010  132.1847 C   0  0  0  0  0  0  0  0  0  0  0  0
  -21.4812  -14.4386  131.4222 C   0  0  0  0  0  0  0  0  0  0  0  0
  -21.6687  -14.0565  129.9514 C   0  0  0  0  0  0  0  0  0  0  0  0
  -22.1203  -13.4603  132.3652 C   0  0  0  0  0  0  0  0  0  0  0  0
  2  1  1  0
  3  2  1  0
  4  1  1  0
  5  4  1  0
  6  1  1  0
  6  4  1  0
  7  4  1  0
  7  5  1  0
  8  3  1  0
  9  8  1  0
 10  9  1  0
 11  3  1  0
 11  8  1  0
 11  9  1  0
M  END
$$$$

     RDKit          3D

 11 12  0  0  0  0  0  0  0  0999 V2000
  -29.6339  -22.9055  139.8116 O   0  0  0  0  0  0  0  0  0  0  0  0
  -29.9140  -24.1752  139.2678 C   0  0  0  0  0  0  0  0  0  0  0  0
  -31.0937  -24.6994  139.8017 O   0  0  0  0  0  0  0  0  0  0  0  0
  -28.8350  -23.9777  140.2620 C   0  0  0  0  0  0  0  0  0  0  0  0
  -27.3991  -23.8996  139.7021 C   0  0  0  0  0  0  0  0  0  0  0  0
  -26.5145  -22.9755  140.5803 C   0  0  0  0  0  0  0  0  0  0  0  0
  -25.6716  -23.6985  141.6499 C   0  0  0  0  0  0  0  0  0  0  0  0
  -26.2593  -25.0477  142.0538 C   0  0  0  0  0  0  0  0  0  0  0  0
  -25.4430  -25.3130  138.3061 S   0  0  0  0  0  0  0  0  0  0  0  0
  -26.3768  -26.0009  140.8544 C   0  0  0  0  0  0  0  0  0  0  0  0
  -26.8101  -25.3218  139.5279 C   0  0  0  0  0  0  0  0  0  0  0  0
  2  1  1  0
  3  2  1  0
  4  1  1  0
  4  2  1  0
  5  4  1  0
  6  5  1  0
  7  6  1  0
  8  7  1  0
 10  8  1  0
 11  5  1  0
 11  9  1  0
 11 10  1  0
M  END
$$$$

     RDKit          3D

 11 12  0  0  0  0  0  0  0  0999 V2000
  -23.2280  -20.0516  140.9833 C   0  0  0  0  0  0  0  0  0  0  0  0
  -24.7126  -19.8281  141.3000 C   0  0  0  0  0  0  0  0  0  0  0  0
  -22.4957  -20.8605  142.0557 C   0  0  0  0  0  0  0  0  0  0  0  0
  -25.2138  -17.3029  141.3089 C   0  0  0  0  0  0  0  0  0  0  0  0
  -26.7109  -18.7684  139.8725 C   0  0  0  0  0  0  0  0  0  0  0  0
  -22.2015  -19.3782  141.8843 C   0  0  0  0  0  0  0  0  0  0  0  0
  -26.2758  -17.1941  142.4136 C   0  0  0  0  0  0  0  0  0  0  0  0
  -20.9367  -19.1183  141.2017 N   0  0  0  0  0  0  0  0  0  0  0  0
  -26.9107  -19.9971  138.9917 C   0  0  0  0  0  0  0  0  0  0  0  0
  -27.6609  -19.8762  140.3118 C   0  0  0  0  0  0  0  0  0  0  0  0
  -25.2894  -18.6199  140.4921 C   0  0  0  0  0  0  0  0  0  0  0  0
  2  1  1  0
  3  1  1  0
  6  1  1  0
  6  3  1  0
  7  4  1  0
  8  6  1  0
  9  5  1  0
 10  5  1  0
 10  9  1  0
 11  2  1  0
 11  4  1  0
 11  5  1  0
M  END
$$$$

     RDKit          3D

  9  8  0  0  0  0  0  0  0  0999 V2000
  -32.0338   -6.6702  146.0103 O   0  0  0  0  0  0  0  0  0  0  0  0
  -31.2965   -7.5875  146.6081 O   0  0  0  0  0  0  0  0  0  0  0  0
  -33.0988   -7.3590  145.4035 C   0  0  0  0  0  0  0  0  0  0  0  0
  -34.0250   -6.3564  144.6794 C   0  0  0  0  0  0  0  0  0  0  0  0
  -35.0399   -7.0720  143.7303 C   0  0  0  0  0  0  0  0  0  0  0  0
  -36.0149   -8.0025  144.4711 C   0  0  0  0  0  0  0  0  0  0  0  0
  -34.3252   -7.8331  142.7012 N   0  0  0  0  0  0  0  0  0  0  0  0
  -34.6941   -5.4110  145.7123 C   0  0  0  0  0  0  0  0  0  0  0  0
  -35.5686   -4.3293  145.0765 C   0  0  0  0  0  0  0  0  0  0  0  0
  2  1  1  0
  3  1  1  0
  4  3  1  0
  5  4  1  0
  6  5  1  0
  7  5  1  0
  8  4  1  0
  9  8  1  0
M  END
$$$$

     RDKit          3D

 10 11  0  0  0  0  0  0  0  0999 V2000
  -25.4441    1.9933  139.4949 C   0  0  0  0  0  0  0  0  0  0  0  0
  -26.5660    0.1295  138.4250 N   0  0  0  0  0  0  0  0  0  0  0  0
  -24.5432    0.7612  139.5770 C   0  0  0  0  0  0  0  0  0  0  0  0
  -22.1155   -0.0768  139.2945 C   0  0  0  0  0  0  0  0  0  0  0  0
  -25.1279   -0.1323  138.4794 C   0  0  0  0  0  0  0  0  0  0  0  0
  -23.0606    1.1404  139.3063 C   0  0  0  0  0  0  0  0  0  0  0  0
  -21.7836   -0.6661  137.9311 C   0  0  0  0  0  0  0  0  0  0  0  0
  -26.7796    1.4685  138.9810 C   0  0  0  0  0  0  0  0  0  0  0  0
  -24.7043    0.0928  140.9645 C   0  0  0  0  0  0  0  0  0  0  0  0
  -20.7611    0.1945  138.6546 C   0  0  0  0  0  0  0  0  0  0  0  0
  3  1  1  0
  5  2  1  0
  5  3  1  0
  6  3  1  0
  6  4  1  0
  7  4  1  0
  8  1  1  0
  8  2  1  0
  9  3  1  0
 10  4  1  0
 10  7  1  0
M  END
$$$$

     RDKit          3D

 11 12  0  0  0  0  0  0  0  0999 V2000
  -29.2085  -14.4003  140.6971 O   0  0  0  0  0  0  0  0  0  0  0  0
  -27.3830  -12.9529  141.6387 C   0  0  0  0  0  0  0  0  0  0  0  0
  -29.7210  -12.0416  140.9032 C   0  0  0  0  0  0  0  0  0  0  0  0
  -30.2023  -11.4641  139.6013 C   0  0  0  0  0  0  0  0  0  0  0  0
  -26.4552  -11.8236  141.1843 C   0  0  0  0  0  0  0  0  0  0  0  0
  -31.4553  -12.1801  139.0685 C   0  0  0  0  0  0  0  0  0  0  0  0
  -28.6659  -13.1107  140.7917 C   0  0  0  0  0  0  0  0  0  0  0  0
  -31.5963  -12.0632  137.5424 C   0  0  0  0  0  0  0  0  0  0  0  0
  -28.8868  -12.2222  139.5812 C   0  0  0  0  0  0  0  0  0  0  0  0
  -31.7908  -10.6144  137.0494 C   0  0  0  0  0  0  0  0  0  0  0  0
  -30.5045  -10.0172  136.4786 C   0  0  0  0  0  0  0  0  0  0  0  0
  4  3  1  0
  5  2  1  0
  6  4  1  0
  7  1  1  0
  7  2  1  0
  7  3  1  0
  8  6  1  0
  9  3  1  0
  9  4  1  0
  9  7  1  0
 10  8  1  0
 11 10  1  0
M  END
$$$$

     RDKit          3D

 11 13  0  0  0  0  0  0  0  0999 V2000
  -27.0646  -15.4105  149.5760 O   0  0  0  0  0  0  0  0  0  0  0  0
  -26.1333  -15.1988  148.5510 C   0  0  0  0  0  0  0  0  0  0  0  0
  -25.6402  -16.3509  147.9091 O   0  0  0  0  0  0  0  0  0  0  0  0
  -25.8935  -13.8158  147.9740 C   0  0  0  0  0  0  0  0  0  0  0  0
  -26.5105  -12.6655  148.7873 C   0  0  0  0  0  0  0  0  0  0  0  0
  -26.8733  -14.7438  147.2841 C   0  0  0  0  0  0  0  0  0  0  0  0
  -26.3050  -16.0196  146.7215 C   0  0  0  0  0  0  0  0  0  0  0  0
  -25.0548  -15.7174  145.2676 Br  0  0  0  0  0  0  0  0  0  0  0  0
  -27.8572  -12.3298  148.5929 O   0  0  0  0  0  0  0  0  0  0  0  0
  -25.9326  -12.3470  150.1579 C   0  0  0  0  0  0  0  0  0  0  0  0
  -25.6191  -11.4470  148.9708 C   0  0  0  0  0  0  0  0  0  0  0  0
  2  1  1  0
  3  2  1  0
  4  2  1  0
  5  4  1  0
  6  2  1  0
  6  4  1  0
  7  3  1  0
  7  6  1  0
  8  7  1  0
  9  5  1  0
 10  5  1  0
 11  5  1  0
 11 10  1  0
M  END
$$$$

     RDKit          3D

 11 11  0  0  0  0  0  0  0  0999 V2000
  -22.1473   -5.9178  143.2241 C   0  0  0  0  0  0  0  0  0  0  0  0
  -22.4482   -4.6655  143.7921 O   0  0  0  0  0  0  0  0  0  0  0  0
  -21.7928   -5.5942  144.6244 C   0  0  0  0  0  0  0  0  0  0  0  0
  -21.0112   -5.8508  142.2377 C   0  0  0  0  0  0  0  0  0  0  0  0
  -20.9652   -4.7432  141.2039 C   0  0  0  0  0  0  0  0  0  0  0  0
  -20.8081   -1.9602  142.8388 C   0  0  0  0  0  0  0  0  0  0  0  0
  -18.4817   -4.1660  141.3395 C   0  0  0  0  0  0  0  0  0  0  0  0
  -20.9966   -1.5016  144.2766 C   0  0  0  0  0  0  0  0  0  0  0  0
  -19.9132   -3.6511  141.5048 C   0  0  0  0  0  0  0  0  0  0  0  0
  -20.0666   -3.1623  142.8280 O   0  0  0  0  0  0  0  0  0  0  0  0
  -20.1474   -6.8747  142.1795 C   0  0  0  0  0  0  0  0  0  0  0  0
  2  1  1  0
  3  1  1  0
  3  2  1  0
  4  1  1  0
  5  4  1  0
  8  6  1  0
  9  5  1  0
  9  7  1  0
 10  6  1  0
 10  9  1  0
 11  4  2  0
M  END
$$$$

     RDKit          3D

 11 12  0  0  0  0  0  0  0  0999 V2000
  -26.7399  -13.0240  143.5131 C   0  0  0  0  0  0  0  0  0  0  0  0
  -25.5314  -13.9614  143.3864 C   0  0  0  0  0  0  0  0  0  0  0  0
  -24.3478  -13.6107  144.2751 C   0  0  0  0  0  0  0  0  0  0  0  0
  -28.0167  -13.7469  143.0528 C   0  0  0  0  0  0  0  0  0  0  0  0
  -25.2236  -14.8082  144.6122 C   0  0  0  0  0  0  0  0  0  0  0  0
  -29.2400  -11.5693  142.4231 C   0  0  0  0  0  0  0  0  0  0  0  0
  -30.6220  -10.9035  142.3940 C   0  0  0  0  0  0  0  0  0  0  0  0
  -31.3058  -10.9257  143.7403 C   0  0  0  0  0  0  0  0  0  0  0  0
  -30.9723  -11.7945  144.7111 C   0  0  0  0  0  0  0  0  0  0  0  0
  -29.3173  -12.9159  143.1638 C   0  0  0  0  0  0  0  0  0  0  0  0
  -29.7560  -12.6837  144.6235 C   0  0  0  0  0  0  0  0  0  0  0  0
  2  1  1  0
  3  2  1  0
  4  1  1  0
  5  2  1  0
  5  3  1  0
  7  6  1  0
  8  7  1  0
  9  8  2  0
 10  4  1  0
 10  6  1  0
 11  9  1  0
 11 10  1  0
M  END
$$$$

     RDKit          3D

 11 13  0  0  0  0  0  0  0  0999 V2000
  -24.0215  -20.0432  138.4286 O   0  0  0  0  0  0  0  0  0  0  0  0
  -23.6091  -21.1588  137.6917 C   0  0  0  0  0  0  0  0  0  0  0  0
  -24.5001  -21.6928  136.5958 C   0  0  0  0  0  0  0  0  0  0  0  0
  -24.5736  -22.3247  137.9676 C   0  0  0  0  0  0  0  0  0  0  0  0
  -23.4024  -23.1459  138.4821 C   0  0  0  0  0  0  0  0  0  0  0  0
  -22.9929  -24.2569  137.7334 O   0  0  0  0  0  0  0  0  0  0  0  0
  -22.4382  -21.9789  138.2077 C   0  0  0  0  0  0  0  0  0  0  0  0
  -22.5210  -22.5987  139.5882 C   0  0  0  0  0  0  0  0  0  0  0  0
  -21.3487  -23.4544  139.9507 C   0  0  0  0  0  0  0  0  0  0  0  0
  -20.1828  -22.9789  139.9070 O   0  0  0  0  0  0  0  0  0  0  0  0
  -21.5520  -24.7605  140.3843 O   0  0  0  0  0  0  0  0  0  0  0  0
  2  1  1  0
  3  2  1  0
  4  2  1  0
  4  3  1  0
  5  4  1  0
  6  5  1  0
  7  2  1  0
  7  5  1  0
  8  5  1  0
  8  7  1  0
  9  8  1  0
 10  9  2  0
 11  9  1  0
M  END
$$$$

     RDKit          3D

 11 11  0  0  0  0  0  0  0  0999 V2000
  -23.3522  -21.6607  141.5750 O   0  0  0  0  0  0  0  0  0  0  0  0
  -23.8912  -22.7697  141.4717 C   0  0  0  0  0  0  0  0  0  0  0  0
  -25.8477  -24.0278  141.4159 O   0  0  0  0  0  0  0  0  0  0  0  0
  -23.6197  -25.1723  141.1610 C   0  0  0  0  0  0  0  0  0  0  0  0
  -22.9397  -25.1293  139.8493 N   0  0  0  0  0  0  0  0  0  0  0  0
  -21.8127  -26.0742  139.8592 C   0  0  0  0  0  0  0  0  0  0  0  0
  -24.4592  -23.9405  141.3620 C   0  0  0  0  0  0  0  0  0  0  0  0
  -20.7299  -25.5700  140.6083 O   0  0  0  0  0  0  0  0  0  0  0  0
  -23.8805  -25.4914  138.7662 C   0  0  0  0  0  0  0  0  0  0  0  0
  -23.3408  -25.0655  137.4025 C   0  0  0  0  0  0  0  0  0  0  0  0
  -20.5814  -25.5727  139.2089 C   0  0  0  0  0  0  0  0  0  0  0  0
  2  1  2  0
  5  4  1  0
  6  5  1  0
  7  2  2  0
  7  3  1  0
  7  4  1  0
  8  6  1  0
  9  5  1  0
 10  9  1  0
 11  6  1  0
 11  8  1  0
M  END
$$$$

     RDKit          3D

 11 11  0  0  0  0  0  0  0  0999 V2000
  -19.3141   -7.0438  137.6295 N   0  0  0  0  0  0  0  0  0  0  0  0
  -18.7840   -5.8162  138.1706 C   0  0  0  0  0  0  0  0  0  0  0  0
  -18.2944   -4.9197  137.3753 N   0  0  0  0  0  0  0  0  0  0  0  0
  -18.7810   -5.5773  139.5808 N   0  0  0  0  0  0  0  0  0  0  0  0
  -17.9501   -9.0707  137.1639 C   0  0  0  0  0  0  0  0  0  0  0  0
  -18.8909  -10.2886  137.2460 C   0  0  0  0  0  0  0  0  0  0  0  0
  -20.5758   -7.5780  138.1608 C   0  0  0  0  0  0  0  0  0  0  0  0
  -20.2578  -10.0932  137.9381 C   0  0  0  0  0  0  0  0  0  0  0  0
  -20.3598   -8.9031  138.9020 C   0  0  0  0  0  0  0  0  0  0  0  0
  -18.5490   -7.7673  136.5957 C   0  0  0  0  0  0  0  0  0  0  0  0
  -19.3574   -7.9580  135.3048 C   0  0  0  0  0  0  0  0  0  0  0  0
  2  1  1  0
  3  2  2  0
  4  2  1  0
  6  5  1  0
  7  1  1  0
  8  6  1  0
  9  7  1  0
  9  8  1  0
 10  1  1  0
 10  5  1  0
 11 10  1  0
M  END
$$$$

     RDKit          3D

 11 11  0  0  0  0  0  0  0  0999 V2000
  -26.0360  -19.5108  138.4802 N   0  0  0  0  0  2  0  0  0  0  0  0
  -25.0397  -20.4355  138.7303 C   0  0  0  0  0  0  0  0  0  0  0  0
  -23.9655  -20.0935  139.4722 N   0  0  0  0  0  0  0  0  0  0  0  0
  -25.0915  -20.1220  137.4144 N   0  0  0  0  0  2  0  0  0  0  0  0
  -24.1057  -19.8824  140.9106 C   0  0  0  0  0  0  0  0  0  0  0  0
  -25.4323  -20.4189  141.3707 C   0  0  0  0  0  0  0  0  0  0  0  0
  -25.5451  -19.5365  141.3253 C   0  0  0  0  0  0  0  0  0  0  0  0
  -25.4417  -20.3515  141.4559 C   0  0  0  0  0  0  0  0  0  0  0  0
  -23.4559  -18.7102  141.0041 C   0  0  0  0  0  0  0  0  0  0  0  0
  -24.5377  -19.5682  139.6251 C   0  0  0  0  0  0  0  0  0  0  0  0
  -23.0838  -20.3138  140.8392 C   0  0  0  0  0  0  0  0  0  0  0  0
  2  1  1  0
  4  2  1  0
  6  5  1  0
  8  6  1  0
  8  7  2  0
  9  5  1  0
 10  1  1  0
 10  2  1  0
 10  3  1  0
 10  5  1  0
 11  5  1  0
M  RAD  2   1   2   4   2
M  END
$$$$

     RDKit          3D

 11 11  0  0  0  0  0  0  0  0999 V2000
  -22.1229  -11.3472  147.6849 O   0  0  0  0  0  0  0  0  0  0  0  0
  -23.0241  -10.7539  147.0340 C   0  0  0  0  0  0  0  0  0  0  0  0
  -22.7637   -9.4893  146.5120 O   0  0  0  0  0  0  0  0  0  0  0  0
  -24.3590  -11.4193  146.8163 C   0  0  0  0  0  0  0  0  0  0  0  0
  -24.1786  -12.6361  145.8900 C   0  0  0  0  0  0  0  0  0  0  0  0
  -25.1652  -13.4539  145.4381 C   0  0  0  0  0  0  0  0  0  0  0  0
  -26.5582  -13.4504  145.9362 C   0  0  0  0  0  0  0  0  0  0  0  0
  -25.0146  -11.7332  148.2030 C   0  0  0  0  0  0  0  0  0  0  0  0
  -26.7465  -12.8235  147.0461 C   0  0  0  0  0  0  0  0  0  0  0  0
  -27.5432  -11.4429  148.8987 C   0  0  0  0  0  0  0  0  0  0  0  0
  -26.4754  -12.0936  148.0764 C   0  0  0  0  0  0  0  0  0  0  0  0
  2  1  2  0
  3  2  1  0
  4  2  1  0
  5  4  1  0
  6  5  2  0
  7  6  1  0
  8  4  1  0
  9  7  2  0
 11  8  1  0
 11  9  2  0
 11 10  1  0
M  END
$$$$

     RDKit          3D

 11 14  0  0  0  0  0  0  0  0999 V2000
  -21.7244  -10.5815  142.2692 C   0  0  0  0  0  0  0  0  0  0  0  0
  -20.4770  -10.4297  143.1227 C   0  0  0  0  0  0  0  0  0  0  0  0
  -19.2605  -10.9789  142.4128 C   0  0  0  0  0  0  0  0  0  0  0  0
  -19.1261  -12.3572  142.4356 F   0  0  0  0  0  0  0  0  0  0  0  0
  -18.1234  -10.1991  142.5125 F   0  0  0  0  0  0  0  0  0  0  0  0
  -21.3546  -11.4365  141.0572 C   0  0  0  0  0  0  0  0  0  0  0  0
  -22.1860  -12.0281  142.1831 C   0  0  0  0  0  0  0  0  0  0  0  0
  -23.6726  -12.2078  141.8500 C   0  0  0  0  0  0  0  0  0  0  0  0
  -20.3922  -10.3890  141.5916 C   0  0  0  0  0  0  0  0  0  0  0  0
  -24.4912  -12.5556  143.0992 C   0  0  0  0  0  0  0  0  0  0  0  0
  -24.5717  -11.3905  144.0848 C   0  0  0  0  0  0  0  0  0  0  0  0
  2  1  1  0
  3  2  1  0
  4  3  1  0
  5  3  1  0
  6  1  1  0
  7  1  1  0
  7  6  1  0
  8  7  1  0
  9  1  1  0
  9  2  1  0
  9  3  1  0
  9  6  1  0
 10  8  1  0
 11 10  1  0
M  END
$$$$

     RDKit          3D

 10 10  0  0  0  0  0  0  0  0999 V2000
  -27.5886   -9.9433  139.5112 C   0  0  0  0  0  0  0  0  0  0  0  0
  -28.1240  -10.5090  140.6067 C   0  0  0  0  0  0  0  0  0  0  0  0
  -28.1079  -10.1815  138.1172 C   0  0  0  0  0  0  0  0  0  0  0  0
  -29.2668  -11.4894  140.5808 C   0  0  0  0  0  0  0  0  0  0  0  0
  -28.7401  -12.9244  140.6316 C   0  0  0  0  0  0  0  0  0  0  0  0
  -27.4684  -11.3532  137.3811 C   0  0  0  0  0  0  0  0  0  0  0  0
  -28.3406  -12.0401  136.3221 C   0  0  0  0  0  0  0  0  0  0  0  0
  -29.0693  -13.2380  136.9172 C   0  0  0  0  0  0  0  0  0  0  0  0
  -29.7987  -13.8356  140.5109 O   0  0  0  0  0  0  0  0  0  0  0  0
  -27.0741   -9.9246  137.0246 C   0  0  0  0  0  0  0  0  0  0  0  0
  2  1  2  3
  3  1  1  0
  4  2  1  0
  5  4  1  0
  6  3  1  0
  7  6  1  0
  8  7  1  0
  9  5  1  0
 10  3  1  0
 10  6  1  0
M  END
$$$$

     RDKit          3D

 11 12  0  0  0  0  0  0  0  0999 V2000
  -20.1014   -0.9404  136.7550 O   0  0  0  0  0  0  0  0  0  0  0  0
  -19.9853    0.2161  136.1736 C   0  0  0  0  0  0  0  0  0  0  0  0
  -21.0009    0.7219  135.4571 N   0  0  0  0  0  2  0  0  0  0  0  0
  -20.8571    1.5310  134.3989 C   0  0  0  0  0  0  0  0  0  0  0  0
  -21.0970    1.7334  136.3152 B   0  0  0  0  0  2  0  0  0  0  0  0
  -19.6366    1.3786  136.4327 C   0  0  0  0  0  0  0  0  0  0  0  0
  -21.3110    2.8404  134.6255 C   0  0  0  0  0  0  0  0  0  0  0  0
  -19.5713    2.3478  134.3367 C   0  0  0  0  0  0  0  0  0  0  0  0
  -20.9605    1.7502  134.7219 C   0  0  0  0  0  0  0  0  0  0  0  0
  -18.2511    1.9187  136.3643 C   0  0  0  0  0  0  0  0  0  0  0  0
  -19.0087    3.1840  135.4269 C   0  0  0  0  0  0  0  0  0  0  0  0
  2  1  1  0
  6  2  1  0
  6  5  1  0
  8  4  1  0
  8  7  1  0
  9  3  1  0
  9  4  1  0
  9  5  1  0
  9  7  1  0
 10  6  1  0
 11  8  1  0
 11 10  1  0
M  RAD  2   3   2   5   2
M  END
$$$$

     RDKit          3D

 11 12  0  0  0  0  0  0  0  0999 V2000
  -29.4384  -13.8607  144.9873 O   0  0  0  0  0  0  0  0  0  0  0  0
  -30.4598  -13.4194  144.1231 C   0  0  0  0  0  0  0  0  0  0  0  0
  -30.5608  -14.2676  143.0131 O   0  0  0  0  0  0  0  0  0  0  0  0
  -28.6708  -12.7098  144.7031 C   0  0  0  0  0  0  0  0  0  0  0  0
  -29.9185  -10.9620  144.7536 C   0  0  0  0  0  0  0  0  0  0  0  0
  -28.8374  -11.5337  145.6738 C   0  0  0  0  0  0  0  0  0  0  0  0
  -29.7228  -12.1351  143.7894 C   0  0  0  0  0  0  0  0  0  0  0  0
  -29.3300  -11.9259  147.0789 C   0  0  0  0  0  0  0  0  0  0  0  0
  -29.4979  -10.6870  147.9667 C   0  0  0  0  0  0  0  0  0  0  0  0
  -29.9357  -11.0665  149.3545 C   0  0  0  0  0  0  0  0  0  0  0  0
  -31.1683  -11.5186  149.6037 C   0  0  0  0  0  0  0  0  0  0  0  0
  2  1  1  0
  3  2  1  0
  4  1  1  0
  6  4  1  0
  6  5  1  0
  7  2  1  0
  7  4  1  0
  7  5  1  0
  8  6  1  0
  9  8  1  0
 10  9  1  0
 11 10  2  0
M  END
$$$$

     RDKit          3D

 11 11  0  0  0  0  0  0  0  0999 V2000
  -28.3563  -10.3877  150.2719 C   0  0  0  0  0  0  0  0  0  0  0  0
  -28.6115  -11.8393  150.1559 N   0  0  0  0  0  0  0  0  0  0  0  0
  -28.7400  -12.4296  148.7928 C   0  0  0  0  0  0  0  0  0  0  0  0
  -26.9045  -10.1447  150.7066 C   0  0  0  0  0  0  0  0  0  0  0  0
  -26.5922  -10.7429  152.0788 C   0  0  0  0  0  0  0  0  0  0  0  0
  -28.4050  -13.7896  148.7915 O   0  0  0  0  0  0  0  0  0  0  0  0
  -29.9472  -12.0912  149.5494 C   0  0  0  0  0  0  0  0  0  0  0  0
  -28.3930  -11.6162  147.5229 C   0  0  0  0  0  0  0  0  0  0  0  0
  -29.2075   -9.8533  151.2264 F   0  0  0  0  0  0  0  0  0  0  0  0
  -28.6913  -12.3779  146.4046 F   0  0  0  0  0  0  0  0  0  0  0  0
  -26.9741  -11.2760  147.5109 N   0  0  0  0  0  0  0  0  0  0  0  0
  2  1  1  0
  3  2  1  0
  4  1  1  0
  5  4  1  0
  6  3  1  0
  7  2  1  0
  7  3  1  0
  8  3  1  0
  9  1  1  0
 10  8  1  0
 11  8  1  0
M  END
$$$$

     RDKit          3D

 11 12  0  0  0  0  0  0  0  0999 V2000
  -27.5071   -7.4095  147.6223 O   0  0  0  0  0  0  0  0  0  0  0  0
  -26.7882   -8.5653  147.9911 C   0  0  0  0  0  0  0  0  0  0  0  0
  -26.2206   -9.1821  146.8709 O   0  0  0  0  0  0  0  0  0  0  0  0
  -28.2711   -8.5221  148.0309 C   0  0  0  0  0  0  0  0  0  0  0  0
  -29.0585   -9.1314  146.8575 C   0  0  0  0  0  0  0  0  0  0  0  0
  -30.4456   -8.5193  146.7294 C   0  0  0  0  0  0  0  0  0  0  0  0
  -29.3167  -10.6174  147.0614 C   0  0  0  0  0  0  0  0  0  0  0  0
  -30.5741  -10.9351  146.2263 C   0  0  0  0  0  0  0  0  0  0  0  0
  -30.1679  -11.5167  144.8550 C   0  0  0  0  0  0  0  0  0  0  0  0
  -31.4718  -11.9515  146.9599 C   0  0  0  0  0  0  0  0  0  0  0  0
  -31.3028   -9.5795  146.0451 C   0  0  0  0  0  0  0  0  0  0  0  0
  2  1  1  0
  3  2  1  0
  4  1  1  0
  4  2  1  0
  5  4  1  0
  6  5  1  0
  7  5  1  0
  8  7  1  0
  9  8  1  0
 10  8  1  0
 11  6  1  0
 11  8  1  0
M  END
$$$$

     RDKit          3D

 11 11  0  0  0  0  0  0  0  0999 V2000
  -25.3414   -7.7267  143.0005 O   0  0  0  0  0  0  0  0  0  0  0  0
  -25.4848   -6.3488  143.2434 C   0  0  0  0  0  0  0  0  0  0  0  0
  -26.5951   -5.7968  142.3260 C   0  0  0  0  0  0  0  0  0  0  0  0
  -27.9843   -6.1862  142.7727 C   0  0  0  0  0  0  0  0  0  0  0  0
  -28.6790   -5.6349  143.7924 C   0  0  0  0  0  0  0  0  0  0  0  0
  -28.2388   -4.5221  144.7368 C   0  0  0  0  0  0  0  0  0  0  0  0
  -25.7451   -6.0488  144.7192 C   0  0  0  0  0  0  0  0  0  0  0  0
  -26.9661   -3.9848  144.4152 O   0  0  0  0  0  0  0  0  0  0  0  0
  -29.2583   -3.3873  144.6734 C   0  0  0  0  0  0  0  0  0  0  0  0
  -25.9303   -4.6128  145.1469 C   0  0  0  0  0  0  0  0  0  0  0  0
  -25.8417   -7.0018  145.6627 C   0  0  0  0  0  0  0  0  0  0  0  0
  2  1  1  0
  3  2  1  0
  4  3  1  0
  5  4  2  3
  6  5  1  0
  7  2  1  0
  8  6  1  0
  9  6  1  0
 10  7  1  0
 10  8  1  0
 11  7  2  0
M  END
$$$$

     RDKit          3D

 11 10  0  0  0  0  0  0  0  0999 V2000
  -19.9078  -16.2599  135.5637 O   0  0  0  0  0  0  0  0  0  0  0  0
  -20.5354  -17.9906  133.9856 C   0  0  0  0  0  0  0  0  0  0  0  0
  -20.8114  -15.4781  133.4669 C   0  0  0  0  0  0  0  0  0  0  0  0
  -19.4776  -15.4233  132.6921 C   0  0  0  0  0  0  0  0  0  0  0  0
  -19.0592  -13.9947  132.4374 C   0  0  0  0  0  0  0  0  0  0  0  0
  -21.4969  -19.0727  134.5197 C   0  0  0  0  0  0  0  0  0  0  0  0
  -17.8222  -13.5740  132.7314 C   0  0  0  0  0  0  0  0  0  0  0  0
  -21.2685  -19.3953  136.0012 C   0  0  0  0  0  0  0  0  0  0  0  0
  -20.8398  -16.5779  134.5517 C   0  0  0  0  0  0  0  0  0  0  0  0
  -22.5096  -20.6660  136.5760 P   0  0  0  0  0  0  0  0  0  0  0  0
  -23.9539  -19.5571  136.9792 C   0  0  0  0  0  0  0  0  0  0  0  0
  4  3  1  0
  5  4  1  0
  6  2  1  0
  7  5  2  0
  8  6  1  0
  9  1  1  0
  9  2  1  0
  9  3  1  0
 10  8  1  0
 11 10  1  0
M  END
$$$$

     RDKit          3D

 11 14  0  0  0  0  0  0  0  0999 V2000
  -20.5763   -3.8011  132.1471 N   0  0  0  0  0  0  0  0  0  0  0  0
  -19.7615   -4.9847  130.1379 C   0  0  0  0  0  0  0  0  0  0  0  0
  -21.7491   -3.6729  133.0197 C   0  0  0  0  0  0  0  0  0  0  0  0
  -22.7060   -2.6916  132.4635 N   0  0  0  0  0  0  0  0  0  0  0  0
  -19.9334   -6.4368  129.7502 C   0  0  0  0  0  0  0  0  0  0  0  0
  -20.8226   -5.9014  130.8323 C   0  0  0  0  0  0  0  0  0  0  0  0
  -20.9519   -4.4039  130.8668 C   0  0  0  0  0  0  0  0  0  0  0  0
  -23.6714   -2.1897  133.4690 C   0  0  0  0  0  0  0  0  0  0  0  0
  -23.0929   -1.1485  134.3923 C   0  0  0  0  0  0  0  0  0  0  0  0
  -23.8978    0.0632  134.4505 N   0  0  0  0  0  0  0  0  0  0  0  0
  -22.4512   -1.3779  133.0600 C   0  0  0  0  0  0  0  0  0  0  0  0
  3  1  1  0
  4  3  1  0
  5  2  1  0
  6  2  1  0
  6  5  1  0
  7  1  1  0
  7  2  1  0
  7  6  1  0
  8  4  1  0
  9  8  1  0
 10  9  1  0
 11  4  1  0
 11  8  1  0
 11  9  1  0
M  END
$$$$

     RDKit          3D

 11 13  0  0  0  0  0  0  0  0999 V2000
  -23.9754  -14.9628  144.5641 C   0  0  0  0  0  0  0  0  0  0  0  0
  -23.7943  -14.7424  143.1143 N   0  0  0  0  0  0  0  0  0  0  0  0
  -25.1623  -14.2812  145.0833 N   0  0  0  0  0  0  0  0  0  0  0  0
  -24.2578  -16.0465  143.6291 C   0  0  0  0  0  0  0  0  0  0  0  0
  -25.4860  -14.8409  146.3919 C   0  0  0  0  0  0  0  0  0  0  0  0
  -26.4074  -15.8952  146.3273 C   0  0  0  0  0  0  0  0  0  0  0  0
  -27.2206  -16.9795  146.2289 C   0  0  0  0  0  0  0  0  0  0  0  0
  -26.8047  -14.5634  146.7773 C   0  0  0  0  0  0  0  0  0  0  0  0
  -28.5598  -16.6447  146.6338 C   0  0  0  0  0  0  0  0  0  0  0  0
  -28.9589  -15.3081  147.0855 C   0  0  0  0  0  0  0  0  0  0  0  0
  -28.0524  -14.1942  147.1700 C   0  0  0  0  0  0  0  0  0  0  0  0
  2  1  1  0
  3  1  1  0
  4  1  1  0
  4  2  1  0
  5  3  1  0
  6  5  1  0
  7  6  4  0
  8  5  1  0
  8  6  4  0
  9  7  4  0
 10  9  4  0
 11  8  4  0
 11 10  4  0
M  END
$$$$

     RDKit          3D

 10 11  0  0  0  0  0  0  0  0999 V2000
  -26.8581  -20.8859  142.5822 C   0  0  0  0  0  0  0  0  0  0  0  0
  -29.3991  -20.7310  142.8798 C   0  0  0  0  0  0  0  0  0  0  0  0
  -25.5227  -20.9388  143.3455 C   0  0  0  0  0  0  0  0  0  0  0  0
  -29.7633  -21.5518  141.6393 C   0  0  0  0  0  0  0  0  0  0  0  0
  -28.0510  -21.1169  143.5340 C   0  0  0  0  0  0  0  0  0  0  0  0
  -28.0687  -22.5549  144.0785 C   0  0  0  0  0  0  0  0  0  0  0  0
  -24.3418  -20.7345  142.4342 C   0  0  0  0  0  0  0  0  0  0  0  0
  -24.6152  -21.9715  143.0469 O   0  0  0  0  0  0  0  0  0  0  0  0
  -23.8319  -19.6328  143.3473 C   0  0  0  0  0  0  0  0  0  0  0  0
  -25.0365  -19.8113  144.2402 C   0  0  0  0  0  0  0  0  0  0  0  0
  3  1  1  0
  4  2  1  0
  5  1  1  0
  5  2  1  0
  6  5  1  0
  7  3  1  0
  8  3  1  0
  8  7  1  0
  9  7  1  0
 10  3  1  0
 10  9  1  0
M  END
$$$$

     RDKit          3D

 10 10  0  0  0  0  0  0  0  0999 V2000
  -31.3941  -20.2120  148.0031 C   0  0  0  0  0  0  0  0  0  0  0  0
  -31.2323  -20.9488  146.7415 N   0  0  0  0  0  0  0  0  0  0  0  0
  -32.0300  -20.3481  150.4732 C   0  0  0  0  0  0  0  0  0  0  0  0
  -31.7760  -21.1448  149.1810 C   0  0  0  0  0  0  0  0  0  0  0  0
  -30.8226  -22.3289  149.3998 C   0  0  0  0  0  0  0  0  0  0  0  0
  -32.9116  -22.1280  148.8602 C   0  0  0  0  0  0  0  0  0  0  0  0
  -31.9506  -23.2960  149.0560 C   0  0  0  0  0  0  0  0  0  0  0  0
  -30.2349  -19.4518  145.1746 C   0  0  0  0  0  0  0  0  0  0  0  0
  -31.4832  -20.0711  145.6573 N   0  0  0  0  0  0  0  0  0  0  0  0
  -32.1109  -20.8503  144.5859 C   0  0  0  0  0  0  0  0  0  0  0  0
  2  1  1  0
  4  1  1  0
  4  3  1  0
  5  4  1  0
  6  4  1  0
  7  5  1  0
  7  6  1  0
  9  2  1  0
  9  8  1  0
 10  9  1  0
M  END
$$$$

     RDKit          3D

 11 12  0  0  0  0  0  0  0  0999 V2000
  -27.5669  -22.5692  140.0763 C   0  0  0  0  0  0  0  0  0  0  0  0
  -26.3073  -21.6630  140.1379 C   0  0  0  0  0  0  0  0  0  0  0  0
  -27.6657  -23.8791  139.2185 C   0  0  0  0  0  0  0  0  0  0  0  0
  -26.7057  -24.2683  138.0687 C   0  0  0  0  0  0  0  0  0  0  0  0
  -27.3364  -23.9992  136.7312 C   0  0  0  0  0  0  0  0  0  0  0  0
  -26.9712  -23.9278  140.5299 C   0  0  0  0  0  0  0  0  0  0  0  0
  -28.4181  -24.6739  136.3137 C   0  0  0  0  0  0  0  0  0  0  0  0
  -29.0917  -24.3504  135.0077 C   0  0  0  0  0  0  0  0  0  0  0  0
  -27.2547  -21.4706  139.0240 C   0  0  0  0  0  0  0  0  0  0  0  0
  -30.0331  -22.0986  135.7312 C   0  0  0  0  0  0  0  0  0  0  0  0
  -30.3530  -23.5043  135.2217 C   0  0  0  0  0  0  0  0  0  0  0  0
  2  1  1  0
  3  1  1  0
  4  3  1  0
  5  4  1  0
  6  1  1  0
  6  3  1  0
  7  5  2  3
  8  7  1  0
  9  1  1  0
  9  2  1  0
 11  8  1  0
 11 10  1  0
M  END
$$$$

     RDKit          3D

 11 14  0  0  0  0  0  0  0  0999 V2000
  -29.7378  -10.4376  149.6100 C   0  0  0  0  0  0  0  0  0  0  0  0
  -29.6822  -11.8846  150.1158 C   0  0  0  0  0  0  0  0  0  0  0  0
  -29.1236  -12.9710  149.5237 C   0  0  0  0  0  0  0  0  0  0  0  0
  -28.3961  -13.0389  148.1877 C   0  0  0  0  0  0  0  0  0  0  0  0
  -28.9385  -10.1967  148.2967 C   0  0  0  0  0  0  0  0  0  0  0  0
  -26.8985  -13.2298  148.4178 C   0  0  0  0  0  0  0  0  0  0  0  0
  -27.6306   -9.3490  148.0382 C   0  0  0  0  0  0  0  0  0  0  0  0
  -31.2209  -10.0856  149.4067 C   0  0  0  0  0  0  0  0  0  0  0  0
  -27.3935  -11.9576  147.7571 C   0  0  0  0  0  0  0  0  0  0  0  0
  -28.9818   -8.7092  147.9897 C   0  0  0  0  0  0  0  0  0  0  0  0
  -27.5471  -10.7198  148.6202 C   0  0  0  0  0  0  0  0  0  0  0  0
  2  1  1  0
  3  2  2  0
  4  3  1  0
  5  1  1  0
  6  4  1  0
  7  5  1  0
  8  1  1  0
  9  4  1  0
  9  6  1  0
 10  5  1  0
 10  7  1  0
 11  5  1  0
 11  7  1  0
 11  9  1  0
M  END
$$$$

     RDKit          3D

  8  7  0  0  0  0  0  0  0  0999 V2000
  -16.7508   -2.3318  138.0323 C   0  0  0  0  0  0  0  0  0  0  0  0
  -17.6003   -2.2257  139.2803 C   0  0  0  0  0  0  0  0  0  0  0  0
  -18.0112   -3.6045  139.8277 C   0  0  0  0  0  0  0  0  0  0  0  0
  -18.9134   -4.4000  138.8696 C   0  0  0  0  0  0  0  0  0  0  0  0
  -21.1726   -4.2963  137.8722 C   0  0  0  0  0  0  0  0  0  0  0  0
  -20.2751   -3.7765  138.7126 C   0  0  0  0  0  0  0  0  0  0  0  0
  -17.3146   -1.9398  136.6926 C   0  0  0  0  0  0  0  0  0  0  0  0
  -15.4820   -2.7586  138.1135 C   0  0  0  0  0  0  0  0  0  0  0  0
  2  1  1  0
  3  2  1  0
  4  3  1  0
  6  4  1  0
  6  5  2  0
  7  1  1  0
  8  1  2  0
M  END
$$$$

     RDKit          3D

 11 12  0  0  0  0  0  0  0  0999 V2000
  -28.2198   -6.8352  134.5123 O   0  0  0  0  0  0  0  0  0  0  0  0
  -28.6155   -7.5068  135.6268 C   0  0  0  0  0  0  0  0  0  0  0  0
  -27.6748   -8.0060  136.5141 C   0  0  0  0  0  0  0  0  0  0  0  0
  -29.1996   -8.7778  135.4812 C   0  0  0  0  0  0  0  0  0  0  0  0
  -27.2165   -9.2503  136.2683 N   0  0  0  0  0  2  0  0  0  0  0  0
  -26.8055   -6.9620  136.3843 N   0  0  0  0  0  0  0  0  0  0  0  0
  -28.5283   -9.7333  136.1873 N   0  0  0  0  0  2  0  0  0  0  0  0
  -28.7459   -7.3980  135.1938 C   0  0  0  0  0  0  0  0  0  0  0  0
  -27.7635   -9.6150  137.3334 C   0  0  0  0  0  0  0  0  0  0  0  0
  -28.8481   -8.2036  133.9649 C   0  0  0  0  0  0  0  0  0  0  0  0
  -25.8842   -6.9149  137.2076 C   0  0  0  0  0  0  0  0  0  0  0  0
  3  2  1  0
  4  2  1  0
  5  3  1  0
  6  3  1  0
  7  4  1  0
  8  1  1  0
  8  2  1  0
  9  5  1  0
  9  7  1  0
 10  4  1  0
 10  8  1  0
 11  6  2  0
M  RAD  2   5   2   7   2
M  END
$$$$

     RDKit          3D

 11 12  0  0  0  0  0  0  0  0999 V2000
  -23.2483   -6.9732  134.9979 O   0  0  0  0  0  0  0  0  0  0  0  0
  -22.4828   -7.2837  133.8659 C   0  0  0  0  0  0  0  0  0  0  0  0
  -22.6735   -4.8900  133.0202 C   0  0  0  0  0  0  0  0  0  0  0  0
  -20.5034   -5.7612  134.3275 C   0  0  0  0  0  0  0  0  0  0  0  0
  -20.8446   -5.2761  135.7341 C   0  0  0  0  0  0  0  0  0  0  0  0
  -21.7053   -6.0467  133.3707 C   0  0  0  0  0  0  0  0  0  0  0  0
  -19.9970   -4.3927  134.8213 C   0  0  0  0  0  0  0  0  0  0  0  0
  -20.6518   -3.0338  134.5167 C   0  0  0  0  0  0  0  0  0  0  0  0
  -20.3503   -2.5261  133.1049 C   0  0  0  0  0  0  0  0  0  0  0  0
  -20.6884   -3.5156  131.9840 C   0  0  0  0  0  0  0  0  0  0  0  0
  -22.1713   -3.9231  131.9230 C   0  0  0  0  0  0  0  0  0  0  0  0
  2  1  1  0
  5  4  1  0
  6  2  1  0
  6  3  1  0
  6  4  1  0
  7  4  1  0
  7  5  1  0
  8  7  1  0
  9  8  1  0
 10  9  1  0
 11  3  1  0
 11 10  1  0
M  END
$$$$

     RDKit          3D

 10 10  0  0  0  0  0  0  0  0999 V2000
  -22.2467   -9.4919  153.6674 F   0  0  0  0  0  0  0  0  0  0  0  0
  -21.8175  -10.4941  152.8142 C   0  0  0  0  0  0  0  0  0  0  0  0
  -24.1306  -10.4872  151.9960 F   0  0  0  0  0  0  0  0  0  0  0  0
  -20.5374  -10.4247  152.2952 F   0  0  0  0  0  0  0  0  0  0  0  0
  -22.8712  -11.0506  151.8770 C   0  0  0  0  0  0  0  0  0  0  0  0
  -22.4164  -11.4102  150.6210 F   0  0  0  0  0  0  0  0  0  0  0  0
  -21.8430  -11.7926  156.0537 C   0  0  0  0  0  0  0  0  0  0  0  0
  -23.3708  -12.0945  154.1902 C   0  0  0  0  0  0  0  0  0  0  0  0
  -22.7450  -12.7184  155.3646 N   0  0  0  0  0  0  0  0  0  0  0  0
  -22.3641  -11.9038  153.0385 C   0  0  0  0  0  0  0  0  0  0  0  0
  2  1  1  0
  4  2  1  0
  5  2  1  0
  5  3  1  0
  6  5  1  0
  9  7  1  0
  9  8  1  0
 10  2  1  0
 10  5  1  0
 10  8  1  0
M  END
$$$$

     RDKit          3D

 11 12  0  0  0  0  0  0  0  0999 V2000
  -18.8098   -8.9595  141.5929 O   0  0  0  0  0  0  0  0  0  0  0  0
  -19.1216  -10.0145  140.7195 C   0  0  0  0  0  0  0  0  0  0  0  0
  -18.4708   -9.8559  139.3679 C   0  0  0  0  0  0  0  0  0  0  0  0
  -16.5929   -9.8854  141.0953 C   0  0  0  0  0  0  0  0  0  0  0  0
  -16.4819   -9.9277  143.5239 C   0  0  0  0  0  0  0  0  0  0  0  0
  -16.3241   -9.0295  144.7564 C   0  0  0  0  0  0  0  0  0  0  0  0
  -14.8512   -8.7305  145.0811 C   0  0  0  0  0  0  0  0  0  0  0  0
  -17.8641   -9.1786  140.5745 C   0  0  0  0  0  0  0  0  0  0  0  0
  -16.0918   -9.2083  142.3017 N   0  0  0  0  0  0  0  0  0  0  0  0
  -19.3602   -8.7326  138.3144 Cl  0  0  0  0  0  0  0  0  0  0  0  0
  -14.7267   -7.9683  146.3216 N   0  0  0  0  0  0  0  0  0  0  0  0
  2  1  1  0
  3  2  1  0
  6  5  1  0
  7  6  1  0
  8  1  1  0
  8  2  1  0
  8  3  1  0
  8  4  1  0
  9  4  1  0
  9  5  1  0
 10  3  1  0
 11  7  1  0
M  END
$$$$

     RDKit          3D

 11 13  0  0  0  0  0  0  0  0999 V2000
  -29.6724  -22.6992  139.4123 O   0  0  0  0  0  0  0  0  0  0  0  0
  -28.6415  -22.4945  140.1032 C   0  0  0  0  0  0  0  0  0  0  0  0
  -28.1720  -23.5007  140.9621 O   0  0  0  0  0  0  0  0  0  0  0  0
  -26.9698  -20.2589  140.5048 C   0  0  0  0  0  0  0  0  0  0  0  0
  -27.5148  -20.0220  139.2581 C   0  0  0  0  0  0  0  0  0  0  0  0
  -27.9460  -21.2581  139.9805 N   0  0  0  0  0  0  0  0  0  0  0  0
  -26.8755  -23.5272  141.5854 C   0  0  0  0  0  0  0  0  0  0  0  0
  -25.7299  -23.2102  140.6201 C   0  0  0  0  0  0  0  0  0  0  0  0
  -26.5554  -22.2773  142.4029 C   0  0  0  0  0  0  0  0  0  0  0  0
  -25.4704  -21.8986  141.3638 C   0  0  0  0  0  0  0  0  0  0  0  0
  -25.6536  -20.7680  140.5051 O   0  0  0  0  0  0  0  0  0  0  0  0
  2  1  2  0
  3  2  1  0
  5  4  1  0
  6  2  1  0
  6  4  1  0
  6  5  1  0
  7  3  1  0
  8  7  1  0
  9  7  1  0
 10  8  1  0
 10  9  1  0
 11  4  1  0
 11 10  1  0
M  END
$$$$

     RDKit          3D

 11 12  0  0  0  0  0  0  0  0999 V2000
  -21.6095   -4.4337  133.2121 C   0  0  0  0  0  0  0  0  0  0  0  0
  -22.2302   -4.7579  131.8656 C   0  0  0  0  0  0  0  0  0  0  0  0
  -21.2595   -4.4949  130.7355 C   0  0  0  0  0  0  0  0  0  0  0  0
  -22.5221   -3.6852  134.1995 C   0  0  0  0  0  0  0  0  0  0  0  0
  -21.1682   -3.6523  131.9884 C   0  0  0  0  0  0  0  0  0  0  0  0
  -21.7182   -2.8139  135.1786 C   0  0  0  0  0  0  0  0  0  0  0  0
  -20.7970   -3.6033  136.1480 C   0  0  0  0  0  0  0  0  0  0  0  0
  -21.6085   -4.5291  137.1016 C   0  0  0  0  0  0  0  0  0  0  0  0
  -21.5079   -6.0035  136.7082 C   0  0  0  0  0  0  0  0  0  0  0  0
  -19.9360   -2.6225  136.9714 C   0  0  0  0  0  0  0  0  0  0  0  0
  -19.0692   -1.8989  136.1366 O   0  0  0  0  0  0  0  0  0  0  0  0
  2  1  1  0
  3  2  1  0
  4  1  1  0
  5  1  1  0
  5  2  1  0
  5  3  1  0
  6  4  1  0
  7  6  1  0
  8  7  1  0
  9  8  1  0
 10  7  1  0
 11 10  1  0
M  END
$$$$

     RDKit          3D

 10 10  0  0  0  0  0  0  0  0999 V2000
  -23.5725  -17.0938  139.1932 O   0  0  0  0  0  0  0  0  0  0  0  0
  -23.3527  -19.4977  138.9294 C   0  0  0  0  0  0  0  0  0  0  0  0
  -22.3203  -20.6410  139.0966 C   0  0  0  0  0  0  0  0  0  0  0  0
  -24.6543  -19.8218  139.6997 C   0  0  0  0  0  0  0  0  0  0  0  0
  -25.7411  -20.5498  138.9165 C   0  0  0  0  0  0  0  0  0  0  0  0
  -22.7176  -21.9775  138.4437 C   0  0  0  0  0  0  0  0  0  0  0  0
  -22.7399  -18.1893  139.4680 C   0  0  0  0  0  0  0  0  0  0  0  0
  -22.7073  -21.9171  136.9088 C   0  0  0  0  0  0  0  0  0  0  0  0
  -25.8989  -19.0749  139.2321 C   0  0  0  0  0  0  0  0  0  0  0  0
  -22.9853  -23.2906  136.3043 C   0  0  0  0  0  0  0  0  0  0  0  0
  3  2  1  0
  4  2  1  0
  5  4  1  0
  6  3  1  0
  7  1  1  0
  7  2  1  0
  8  6  1  0
  9  4  1  0
  9  5  1  0
 10  8  1  0
M  END
$$$$

     RDKit          3D

 10 13  0  0  0  0  0  0  0  0999 V2000
  -23.0651  -15.1698  140.3998 C   0  0  0  0  0  0  0  0  0  0  0  0
  -22.4642  -14.7575  141.7121 C   0  0  0  0  0  0  0  0  0  0  0  0
  -21.0341  -14.2429  141.7003 C   0  0  0  0  0  0  0  0  0  0  0  0
  -19.8677  -15.1680  142.0861 C   0  0  0  0  0  0  0  0  0  0  0  0
  -21.6733  -14.5868  140.3725 C   0  0  0  0  0  0  0  0  0  0  0  0
  -20.3195  -16.2888  143.0140 C   0  0  0  0  0  0  0  0  0  0  0  0
  -21.4059  -17.0986  142.3271 C   0  0  0  0  0  0  0  0  0  0  0  0
  -23.1782  -16.5198  140.7864 O   0  0  0  0  0  0  0  0  0  0  0  0
  -22.6494  -16.2341  142.0512 C   0  0  0  0  0  0  0  0  0  0  0  0
  -18.8981  -14.4200  142.7301 F   0  0  0  0  0  0  0  0  0  0  0  0
  2  1  1  0
  3  2  1  0
  4  3  1  0
  5  1  1  0
  5  2  1  0
  5  3  1  0
  6  4  1  0
  7  6  1  0
  8  1  1  0
  9  2  1  0
  9  7  1  0
  9  8  1  0
 10  4  1  0
M  END
$$$$

     RDKit          3D

 11 15  0  0  0  0  0  0  0  0999 V2000
  -33.8707   -0.5294  132.9407 O   0  0  0  0  0  0  0  0  0  0  0  0
  -33.4945    0.7103  132.4964 C   0  0  0  0  0  0  0  0  0  0  0  0
  -34.2086    1.0563  131.3467 O   0  0  0  0  0  0  0  0  0  0  0  0
  -32.5947   -0.4887  132.3010 C   0  0  0  0  0  0  0  0  0  0  0  0
  -31.3731    0.0997  133.0277 C   0  0  0  0  0  0  0  0  0  0  0  0
  -30.7258   -0.7512  134.0508 C   0  0  0  0  0  0  0  0  0  0  0  0
  -30.7842   -2.2524  132.6070 C   0  0  0  0  0  0  0  0  0  0  0  0
  -29.7360   -1.2135  133.0175 C   0  0  0  0  0  0  0  0  0  0  0  0
  -30.0964    0.0021  132.1721 C   0  0  0  0  0  0  0  0  0  0  0  0
  -29.1516    1.1886  132.3847 C   0  0  0  0  0  0  0  0  0  0  0  0
  -31.8344   -1.3657  133.3092 C   0  0  0  0  0  0  0  0  0  0  0  0
  2  1  1  0
  3  2  1  0
  4  1  1  0
  4  2  1  0
  5  4  1  0
  6  5  1  0
  8  6  1  0
  8  7  1  0
  9  5  1  0
  9  8  1  0
 10  9  1  0
 11  4  1  0
 11  5  1  0
 11  6  1  0
 11  7  1  0
M  END
$$$$

     RDKit          3D

 11 12  0  0  0  0  0  0  0  0999 V2000
  -25.4987  -16.7004  150.1558 N   0  0  0  0  0  0  0  0  0  0  0  0
  -25.6558  -18.1306  149.9047 C   0  0  0  0  0  0  0  0  0  0  0  0
  -24.5618  -15.9434  149.6650 C   0  0  0  0  0  0  0  0  0  0  0  0
  -24.6070  -14.5377  149.9055 N   0  0  0  0  0  0  0  0  0  0  0  0
  -24.5146  -18.8842  150.4421 N   0  0  0  0  0  0  0  0  0  0  0  0
  -23.5016  -16.4833  148.8660 N   0  0  0  0  0  0  0  0  0  0  0  0
  -22.7127  -17.6233  149.3372 C   0  0  0  0  0  0  0  0  0  0  0  0
  -21.5678  -17.3189  150.3039 C   0  0  0  0  0  0  0  0  0  0  0  0
  -23.4215  -18.9735  149.4674 C   0  0  0  0  0  0  0  0  0  0  0  0
  -21.3322  -15.8563  150.6936 C   0  0  0  0  0  0  0  0  0  0  0  0
  -21.2684  -17.6537  148.8398 C   0  0  0  0  0  0  0  0  0  0  0  0
  2  1  1  0
  3  1  2  0
  4  3  1  0
  5  2  1  0
  6  3  1  0
  7  6  1  0
  8  7  1  0
  9  5  1  0
  9  7  1  0
 10  8  1  0
 11  7  1  0
 11  8  1  0
M  END
$$$$

     RDKit          3D

 10 12  0  0  0  0  0  0  0  0999 V2000
  -29.7608  -11.2274  148.3698 O   0  0  0  0  0  0  0  0  0  0  0  0
  -28.0370  -12.1082  149.6198 O   0  0  0  0  0  0  0  0  0  0  0  0
  -28.5429  -10.9536  148.9993 C   0  0  0  0  0  0  0  0  0  0  0  0
  -27.5495  -10.3289  148.0477 C   0  0  0  0  0  0  0  0  0  0  0  0
  -26.5149   -9.4419  148.7490 C   0  0  0  0  0  0  0  0  0  0  0  0
  -25.3496   -9.0901  147.8180 C   0  0  0  0  0  0  0  0  0  0  0  0
  -27.4527  -11.7990  148.3798 C   0  0  0  0  0  0  0  0  0  0  0  0
  -24.5117  -10.3342  147.4624 C   0  0  0  0  0  0  0  0  0  0  0  0
  -23.0820  -10.1178  147.2540 C   0  0  0  0  0  0  0  0  0  0  0  0
  -23.5491  -10.7490  148.5059 N   0  0  0  0  0  0  0  0  0  0  0  0
  3  1  1  0
  3  2  1  0
  4  3  1  0
  5  4  1  0
  6  5  1  0
  7  2  1  0
  7  3  1  0
  7  4  1  0
  8  6  1  0
  9  8  1  0
 10  8  1  0
 10  9  1  0
M  END
$$$$

     RDKit          3D

 11 13  0  0  0  0  0  0  0  0999 V2000
  -26.1469   -9.0774  137.4445 O   0  0  0  0  0  0  0  0  0  0  0  0
  -25.0333   -8.2154  137.4841 C   0  0  0  0  0  0  0  0  0  0  0  0
  -24.1480   -8.6718  138.6778 C   0  0  0  0  0  0  0  0  0  0  0  0
  -25.5345   -6.7581  137.6198 C   0  0  0  0  0  0  0  0  0  0  0  0
  -24.0236   -7.6937  139.7748 N   0  0  0  0  0  0  0  0  0  0  0  0
  -24.2557   -8.3534  136.2453 N   0  0  0  0  0  0  0  0  0  0  0  0
  -22.8667   -7.9924  138.8718 C   0  0  0  0  0  0  0  0  0  0  0  0
  -22.6474   -7.7435  140.2923 C   0  0  0  0  0  0  0  0  0  0  0  0
  -22.1333   -6.3480  140.6515 C   0  0  0  0  0  0  0  0  0  0  0  0
  -21.8817   -6.1313  142.1346 C   0  0  0  0  0  0  0  0  0  0  0  0
  -20.7109   -6.3271  141.1852 C   0  0  0  0  0  0  0  0  0  0  0  0
  2  1  1  0
  3  2  1  0
  4  2  1  0
  5  3  1  0
  6  2  1  0
  7  3  1  0
  7  5  1  0
  8  5  1  0
  8  7  1  0
  9  8  1  0
 10  9  1  0
 11  9  1  0
 11 10  1  0
M  END
$$$$

     RDKit          3D

 11 15  0  0  0  0  0  0  0  0999 V2000
  -30.7074  -12.3472  143.3804 C   0  0  0  0  0  0  0  0  0  0  0  0
  -30.5073  -11.3431  142.2823 C   0  0  0  0  0  0  0  0  0  0  0  0
  -31.9649  -12.3474  143.9866 O   0  0  0  0  0  0  0  0  0  0  0  0
  -29.9444   -9.9782  142.4682 C   0  0  0  0  0  0  0  0  0  0  0  0
  -30.6039   -8.9303  141.9406 C   0  0  0  0  0  0  0  0  0  0  0  0
  -31.7339   -9.0910  140.9335 C   0  0  0  0  0  0  0  0  0  0  0  0
  -32.9927   -9.9294  141.3460 C   0  0  0  0  0  0  0  0  0  0  0  0
  -32.9266  -11.2809  140.6379 C   0  0  0  0  0  0  0  0  0  0  0  0
  -31.7670  -11.2646  143.1195 C   0  0  0  0  0  0  0  0  0  0  0  0
  -33.0192  -11.1990  142.2005 C   0  0  0  0  0  0  0  0  0  0  0  0
  -33.3221  -12.4817  141.4697 C   0  0  0  0  0  0  0  0  0  0  0  0
  2  1  1  0
  3  1  1  0
  4  2  1  0
  5  4  2  0
  6  5  1  0
  7  6  1  0
  8  7  1  0
  9  1  1  0
  9  2  1  0
  9  3  1  0
 10  7  1  0
 10  8  1  0
 10  9  1  0
 11  8  1  0
 11 10  1  0
M  END
$$$$

     RDKit          3D

 11 16  0  0  0  0  0  0  0  0999 V2000
  -26.9002   -4.1318  147.4985 F   0  0  0  0  0  0  0  0  0  0  0  0
  -25.9797   -3.5257  146.6603 C   0  0  0  0  0  0  0  0  0  0  0  0
  -24.1769   -2.6162  147.3823 C   0  0  0  0  0  0  0  0  0  0  0  0
  -23.8261   -3.8470  148.2652 C   0  0  0  0  0  0  0  0  0  0  0  0
  -24.7194   -4.8371  149.0642 C   0  0  0  0  0  0  0  0  0  0  0  0
  -25.6102   -2.1460  147.1165 C   0  0  0  0  0  0  0  0  0  0  0  0
  -24.3960   -3.4188  149.6054 C   0  0  0  0  0  0  0  0  0  0  0  0
  -24.5428   -3.9946  146.9003 C   0  0  0  0  0  0  0  0  0  0  0  0
  -24.8742   -5.3111  150.5469 C   0  0  0  0  0  0  0  0  0  0  0  0
  -23.8943   -4.2213  150.8270 C   0  0  0  0  0  0  0  0  0  0  0  0
  -23.6156   -5.4081  149.9102 C   0  0  0  0  0  0  0  0  0  0  0  0
  2  1  1  0
  4  3  1  0
  5  4  1  0
  6  2  1  0
  6  3  1  0
  7  4  1  0
  7  5  1  0
  8  2  1  0
  8  3  1  0
  8  4  1  0
  9  5  1  0
 10  7  1  0
 10  9  1  0
 11  5  1  0
 11  9  1  0
 11 10  1  0
M  END
$$$$

     RDKit          3D

 10 12  0  0  0  0  0  0  0  0999 V2000
  -25.4347  -13.9728  137.7022 O   0  0  0  0  0  0  0  0  0  0  0  0
  -25.1380  -15.1661  137.4320 C   0  0  0  0  0  0  0  0  0  0  0  0
  -24.7647  -15.5035  136.1349 O   0  0  0  0  0  0  0  0  0  0  0  0
  -25.1576  -16.2063  138.5127 C   0  0  0  0  0  0  0  0  0  0  0  0
  -23.8266  -16.7784  139.0382 C   0  0  0  0  0  0  0  0  0  0  0  0
  -26.2223  -17.2639  138.2691 C   0  0  0  0  0  0  0  0  0  0  0  0
  -22.7023  -15.7640  139.2165 C   0  0  0  0  0  0  0  0  0  0  0  0
  -27.5976  -16.7778  138.6716 C   0  0  0  0  0  0  0  0  0  0  0  0
  -23.4142  -16.3232  140.4328 C   0  0  0  0  0  0  0  0  0  0  0  0
  -26.3874  -16.2459  139.4074 C   0  0  0  0  0  0  0  0  0  0  0  0
  2  1  2  0
  3  2  1  0
  4  2  1  0
  5  4  1  0
  6  4  1  0
  7  5  1  0
  8  6  1  0
  9  5  1  0
  9  7  1  0
 10  4  1  0
 10  6  1  0
 10  8  1  0
M  END
$$$$

     RDKit          3D

 11 12  0  0  0  0  0  0  0  0999 V2000
  -29.9773  -10.7831  141.3272 O   0  0  0  0  0  0  0  0  0  0  0  0
  -29.1972  -10.1364  142.3577 C   0  0  0  0  0  0  0  0  0  0  0  0
  -29.8251  -10.0641  141.2688 O   0  0  0  0  0  0  0  0  0  0  0  0
  -30.3096  -12.2808  141.4408 C   0  0  0  0  0  0  0  0  0  0  0  0
  -29.2877  -13.1805  140.7633 C   0  0  0  0  0  0  0  0  0  0  0  0
  -29.0561  -14.5228  141.4632 C   0  0  0  0  0  0  0  0  0  0  0  0
  -30.6435  -12.9114  140.0934 C   0  0  0  0  0  0  0  0  0  0  0  0
  -32.6798  -14.0051  138.9714 C   0  0  0  0  0  0  0  0  0  0  0  0
  -31.7374  -13.9955  140.1734 C   0  0  0  0  0  0  0  0  0  0  0  0
  -33.1908  -13.5399  140.3274 C   0  0  0  0  0  0  0  0  0  0  0  0
  -33.4835  -12.0386  140.4320 C   0  0  0  0  0  0  0  0  0  0  0  0
  2  1  1  0
  3  2  2  0
  4  1  1  0
  5  4  1  0
  6  5  1  0
  7  4  1  0
  7  5  1  0
  9  7  1  0
  9  8  1  0
 10  8  1  0
 10  9  1  0
 11 10  1  0
M  END
$$$$

     RDKit          3D

 11 14  0  0  0  0  0  0  0  0999 V2000
  -34.1960   -6.2649  143.2487 O   0  0  0  0  0  0  0  0  0  0  0  0
  -33.3568   -5.1498  143.2832 C   0  0  0  0  0  0  0  0  0  0  0  0
  -34.1572   -4.0825  142.8757 O   0  0  0  0  0  0  0  0  0  0  0  0
  -32.8675   -5.0857  144.7054 C   0  0  0  0  0  0  0  0  0  0  0  0
  -33.7935   -3.9956  144.2233 C   0  0  0  0  0  0  0  0  0  0  0  0
  -30.4013   -5.1681  144.0382 C   0  0  0  0  0  0  0  0  0  0  0  0
  -30.3781   -6.5605  144.2029 O   0  0  0  0  0  0  0  0  0  0  0  0
  -31.4606   -4.5307  144.9529 C   0  0  0  0  0  0  0  0  0  0  0  0
  -31.5374   -3.0301  144.7483 C   0  0  0  0  0  0  0  0  0  0  0  0
  -32.9352   -2.7235  144.2729 C   0  0  0  0  0  0  0  0  0  0  0  0
  -32.4998   -2.2748  145.6598 C   0  0  0  0  0  0  0  0  0  0  0  0
  2  1  1  0
  3  2  1  0
  4  2  1  0
  5  2  1  0
  5  3  1  0
  5  4  1  0
  7  6  1  0
  8  4  1  0
  8  6  1  0
  9  8  1  0
 10  5  1  0
 10  9  1  0
 11  9  1  0
 11 10  1  0
M  END
$$$$

     RDKit          3D

  7  8  0  0  0  0  0  0  0  0999 V2000
  -26.4130  -10.8936  134.8188 S   0  0  0  0  0  4  0  0  0  0  0  0
  -27.3536  -11.1155  132.9381 C   0  0  0  0  0  0  0  0  0  0  0  0
  -26.4964   -7.5759  135.0894 C   0  0  0  0  0  0  0  0  0  0  0  0
  -26.6351  -12.6114  136.5240 C   0  0  0  0  0  0  0  0  0  0  0  0
  -25.9312   -9.8436  134.1522 C   0  0  0  0  0  0  0  0  0  0  0  0
  -25.7827   -8.8966  135.3371 C   0  0  0  0  0  0  0  0  0  0  0  0
  -27.2775  -10.2336  134.0243 O   0  0  0  0  0  0  0  0  0  0  0  0
  2  1  1  0
  3  1  1  0
  4  1  1  0
  6  1  1  0
  6  3  1  0
  6  5  1  0
  7  2  1  0
  7  5  1  0
M  END
$$$$

     RDKit          3D

 11 11  0  0  0  0  0  0  0  0999 V2000
  -19.7370   -3.4672  141.7911 B   0  0  0  0  0  0  0  0  0  0  0  0
  -21.8082   -2.9524  142.3667 O   0  0  0  0  0  0  0  0  0  0  0  0
  -22.5552   -2.1229  141.6618 O   0  0  0  0  0  0  0  0  0  0  0  0
  -18.2568   -5.4344  142.0363 O   0  0  0  0  0  0  0  0  0  0  0  0
  -19.0203   -4.5057  142.7675 C   0  0  0  0  0  0  0  0  0  0  0  0
  -20.6006   -2.4227  142.3437 O   0  0  0  0  0  0  0  0  0  0  0  0
  -17.0818   -4.8712  141.8151 O   0  0  0  0  0  0  0  0  0  0  0  0
  -19.5153   -3.5332  140.3639 F   0  0  0  0  0  0  0  0  0  0  0  0
  -23.0548   -2.8838  140.5978 C   0  0  0  0  0  0  0  0  0  0  0  0
  -24.3751   -2.4403  140.1099 C   0  0  0  0  0  0  0  0  0  0  0  0
  -24.2363   -3.5583  140.9578 O   0  0  0  0  0  0  0  0  0  0  0  0
  3  2  1  0
  5  1  1  0
  5  4  1  0
  6  1  1  0
  6  2  1  0
  7  4  1  0
  8  1  1  0
  9  3  1  0
 10  9  1  0
 11  9  1  0
 11 10  1  0
M  END
$$$$

     RDKit          3D

 11 13  0  0  0  0  0  0  0  0999 V2000
  -24.3476    4.8612  143.0729 C   0  0  0  0  0  0  0  0  0  0  0  0
  -23.1442    5.4105  142.8780 C   0  0  0  0  0  0  0  0  0  0  0  0
  -25.5790    5.6791  143.0501 C   0  0  0  0  0  0  0  0  0  0  0  0
  -25.5331    7.0139  142.9505 C   0  0  0  0  0  0  0  0  0  0  0  0
  -23.0207    6.8785  142.5858 C   0  0  0  0  0  0  0  0  0  0  0  0
  -24.2133    7.7592  142.9525 C   0  0  0  0  0  0  0  0  0  0  0  0
  -21.8068    7.6497  143.0410 C   0  0  0  0  0  0  0  0  0  0  0  0
  -21.7991    8.9229  142.7614 N   0  0  0  0  0  0  0  0  0  0  0  0
  -22.9381    9.5432  142.0366 C   0  0  0  0  0  0  0  0  0  0  0  0
  -24.0101    8.5360  141.7108 N   0  0  0  0  0  0  0  0  0  0  0  0
  -23.2953    7.3610  141.1675 C   0  0  0  0  0  0  0  0  0  0  0  0
  2  1  2  0
  3  1  1  0
  4  3  2  0
  5  2  1  0
  6  4  1  0
  6  5  1  0
  7  5  1  0
  8  7  2  0
  9  8  1  0
 10  6  1  0
 10  9  1  0
 11  5  1  0
 11 10  1  0
M  END
$$$$

     RDKit          3D

 11 12  0  0  0  0  0  0  0  0999 V2000
  -18.3584   -5.4095  142.7124 C   0  0  0  0  0  0  0  0  0  0  0  0
  -17.7793   -6.4011  143.6856 C   0  0  0  0  0  0  0  0  0  0  0  0
  -17.6058   -5.8588  145.1027 C   0  0  0  0  0  0  0  0  0  0  0  0
  -16.3796   -6.1290  144.2405 C   0  0  0  0  0  0  0  0  0  0  0  0
  -19.6375   -5.0205  142.8062 C   0  0  0  0  0  0  0  0  0  0  0  0
  -20.2371   -4.0472  141.8316 C   0  0  0  0  0  0  0  0  0  0  0  0
  -15.6329   -4.8753  143.7696 C   0  0  0  0  0  0  0  0  0  0  0  0
  -20.3589   -4.6826  140.4401 C   0  0  0  0  0  0  0  0  0  0  0  0
  -21.4767   -4.1181  139.5708 C   0  0  0  0  0  0  0  0  0  0  0  0
  -21.2015   -4.1271  138.0673 C   0  0  0  0  0  0  0  0  0  0  0  0
  -21.6275   -5.4971  140.2042 C   0  0  0  0  0  0  0  0  0  0  0  0
  2  1  1  0
  3  2  1  0
  4  2  1  0
  4  3  1  0
  5  1  2  3
  6  5  1  0
  7  4  1  0
  8  6  1  0
  9  8  1  0
 10  9  1  0
 11  8  1  0
 11  9  1  0
M  END
$$$$

     RDKit          3D

 11 12  0  0  0  0  0  0  0  0999 V2000
  -18.8206   -5.7916  145.7438 O   0  0  0  0  0  0  0  0  0  0  0  0
  -18.0549   -5.9940  144.5810 C   0  0  0  0  0  0  0  0  0  0  0  0
  -16.7426   -6.6542  144.9124 C   0  0  0  0  0  0  0  0  0  0  0  0
  -19.0542   -6.9877  143.9852 C   0  0  0  0  0  0  0  0  0  0  0  0
  -20.9928   -6.1712  144.6126 C   0  0  0  0  0  0  0  0  0  0  0  0
  -20.3617   -6.5577  143.2822 C   0  0  0  0  0  0  0  0  0  0  0  0
  -20.4305   -5.5505  142.1021 C   0  0  0  0  0  0  0  0  0  0  0  0
  -19.5593   -4.2842  142.0725 C   0  0  0  0  0  0  0  0  0  0  0  0
  -15.7737   -5.8946  145.4797 C   0  0  0  0  0  0  0  0  0  0  0  0
  -19.7593   -6.7432  145.3095 C   0  0  0  0  0  0  0  0  0  0  0  0
  -19.9247   -3.2416  143.1294 C   0  0  0  0  0  0  0  0  0  0  0  0
  2  1  1  0
  3  2  1  0
  4  2  1  0
  6  4  1  0
  6  5  1  0
  7  6  1  0
  8  7  1  0
  9  3  2  0
 10  1  1  0
 10  4  1  0
 10  5  1  0
 11  8  1  0
M  END
$$$$

     RDKit          3D

 11 11  0  0  0  0  0  0  0  0999 V2000
  -25.0374  -11.4845  132.8536 C   0  0  0  0  0  0  0  0  0  0  0  0
  -25.8766   -9.3868  134.1440 C   0  0  0  0  0  0  0  0  0  0  0  0
  -23.8619   -7.8324  134.4476 C   0  0  0  0  0  0  0  0  0  0  0  0
  -23.5096  -11.5863  133.0118 C   0  0  0  0  0  0  0  0  0  0  0  0
  -23.0101  -13.0338  133.1068 C   0  0  0  0  0  0  0  0  0  0  0  0
  -21.6282  -13.3230  132.4958 C   0  0  0  0  0  0  0  0  0  0  0  0
  -25.5288  -10.0240  132.7795 C   0  0  0  0  0  0  0  0  0  0  0  0
  -20.7493  -14.1915  133.4182 C   0  0  0  0  0  0  0  0  0  0  0  0
  -24.6640   -9.0086  135.0144 C   0  0  0  0  0  0  0  0  0  0  0  0
  -22.9834  -12.1360  134.3380 C   0  0  0  0  0  0  0  0  0  0  0  0
  -21.3922  -15.5338  133.7940 C   0  0  0  0  0  0  0  0  0  0  0  0
  4  1  1  0
  5  4  1  0
  6  5  1  0
  7  1  1  0
  7  2  1  0
  8  6  1  0
  9  2  1  0
  9  3  1  0
 10  4  1  0
 10  5  1  0
 11  8  1  0
M  END
$$$$

     RDKit          3D

 11 11  0  0  0  0  0  0  0  0999 V2000
  -26.2582  -17.8782  140.8486 C   0  0  0  0  0  0  0  0  0  0  0  0
  -27.1429  -17.9731  139.5662 C   0  0  0  0  0  0  0  0  0  0  0  0
  -26.6756  -17.1282  138.3646 C   0  0  0  0  0  0  0  0  0  0  0  0
  -24.9057  -18.6073  140.8605 C   0  0  0  0  0  0  0  0  0  0  0  0
  -28.6310  -17.6919  139.9042 C   0  0  0  0  0  0  0  0  0  0  0  0
  -23.1024  -19.0505  139.2241 C   0  0  0  0  0  0  0  0  0  0  0  0
  -27.4690  -14.7405  141.4896 C   0  0  0  0  0  0  0  0  0  0  0  0
  -28.3933  -15.7061  141.4607 C   0  0  0  0  0  0  0  0  0  0  0  0
  -28.9945  -16.2194  140.1784 C   0  0  0  0  0  0  0  0  0  0  0  0
  -24.9535  -17.0826  140.8347 C   0  0  0  0  0  0  0  0  0  0  0  0
  -24.3760  -19.2168  139.5884 C   0  0  0  0  0  0  0  0  0  0  0  0
  2  1  1  0
  3  2  1  0
  4  1  1  0
  5  2  1  0
  8  7  2  0
  9  5  1  0
  9  8  1  0
 10  1  1  0
 10  4  1  0
 11  4  1  0
 11  6  2  0
M  END
$$$$

     RDKit          3D

 11 10  0  0  0  0  0  0  0  0999 V2000
  -24.7277    0.8288  131.6015 Mg  0  0  0  0  0  2  0  0  0  0  0  0
  -25.6352    3.3769  130.2158 C   0  0  0  0  0  0  0  0  0  0  0  0
  -25.1944    3.6098  132.6884 C   0  0  0  0  0  0  0  0  0  0  0  0
  -24.2175    3.3438  133.8451 C   0  0  0  0  0  0  0  0  0  0  0  0
  -23.0276    4.3228  133.8328 C   0  0  0  0  0  0  0  0  0  0  0  0
  -21.2489    2.9803  135.0865 C   0  0  0  0  0  0  0  0  0  0  0  0
  -20.4605    2.8777  136.3968 C   0  0  0  0  0  0  0  0  0  0  0  0
  -22.1630    4.2125  135.0995 C   0  0  0  0  0  0  0  0  0  0  0  0
  -24.7105    2.9919  131.3671 C   0  0  0  0  0  0  0  0  0  0  0  0
  -19.6002    1.6980  136.3918 N   0  0  0  0  0  0  0  0  0  0  0  0
  -24.7897   -1.3230  131.8829 C   0  0  0  0  0  0  0  0  0  0  0  0
  4  3  1  0
  5  4  1  0
  7  6  1  0
  8  5  1  0
  8  6  1  0
  9  1  1  0
  9  2  1  0
  9  3  1  0
 10  7  1  0
 11  1  1  0
M  END
$$$$

     RDKit          3D

 11 14  0  0  0  0  0  0  0  0999 V2000
  -23.7014    4.1190  147.2807 O   0  0  0  0  0  0  0  0  0  0  0  0
  -22.7125    3.6789  148.2200 C   0  0  0  0  0  0  0  0  0  0  0  0
  -23.5292    3.7964  149.5121 C   0  0  0  0  0  0  0  0  0  0  0  0
  -21.5959    4.7415  148.2562 C   0  0  0  0  0  0  0  0  0  0  0  0
  -24.5601    4.9536  149.6136 C   0  0  0  0  0  0  0  0  0  0  0  0
  -22.1548    4.3175  149.5606 C   0  0  0  0  0  0  0  0  0  0  0  0
  -24.0630    6.3907  149.4348 C   0  0  0  0  0  0  0  0  0  0  0  0
  -23.0490    6.8733  148.6658 C   0  0  0  0  0  0  0  0  0  0  0  0
  -22.0629    6.1254  147.7585 C   0  0  0  0  0  0  0  0  0  0  0  0
  -22.5939    5.9968  146.3152 C   0  0  0  0  0  0  0  0  0  0  0  0
  -23.1421    4.5881  146.0750 C   0  0  0  0  0  0  0  0  0  0  0  0
  2  1  1  0
  3  2  1  0
  4  2  1  0
  5  3  1  0
  6  2  1  0
  6  3  1  0
  6  4  1  0
  7  5  1  0
  8  7  2  0
  9  4  1  0
  9  8  1  0
 10  9  1  0
 11  1  1  0
 11 10  1  0
M  END
$$$$

     RDKit          3D

 10 10  0  0  0  0  0  0  0  0999 V2000
  -26.5042   -6.0183  132.8444 O   0  0  0  0  0  0  0  0  0  0  0  0
  -25.6577   -4.1294  133.5838 C   0  0  0  0  0  0  0  0  0  0  0  0
  -25.4747   -5.2051  132.6871 O   0  0  0  0  0  0  0  0  0  0  0  0
  -25.1582   -4.5297  134.9943 C   0  0  0  0  0  0  0  0  0  0  0  0
  -23.6191   -4.7179  134.9821 C   0  0  0  0  0  0  0  0  0  0  0  0
  -22.9313   -3.7703  133.9800 C   0  0  0  0  0  0  0  0  0  0  0  0
  -24.8738   -2.8992  133.0473 C   0  0  0  0  0  0  0  0  0  0  0  0
  -25.6197   -3.5106  136.0536 C   0  0  0  0  0  0  0  0  0  0  0  0
  -23.0838   -4.5386  136.2484 F   0  0  0  0  0  0  0  0  0  0  0  0
  -23.6987   -2.6011  133.7853 O   0  0  0  0  0  0  0  0  0  0  0  0
  3  1  1  0
  3  2  1  0
  4  2  1  0
  5  4  1  0
  6  5  1  0
  7  2  1  0
  8  4  1  0
  9  5  1  0
 10  6  1  0
 10  7  1  0
M  END
$$$$

     RDKit          3D

  6  5  0  0  0  0  0  0  0  0999 V2000
  -29.3303   -9.4607  147.6068 O   0  0  0  0  0  0  0  0  0  0  0  0
  -30.5476   -9.1890  146.9529 C   0  0  0  0  0  0  0  0  0  0  0  0
  -31.3206   -8.2999  147.7250 O   0  0  0  0  0  0  0  0  0  0  0  0
  -30.2207   -8.5130  145.6106 C   0  0  0  0  0  0  0  0  0  0  0  0
  -31.3897   -8.1943  144.9019 O   0  0  0  0  0  0  0  0  0  0  0  0
  -31.3202  -10.5013  146.7099 C   0  0  0  0  0  0  0  0  0  0  0  0
  2  1  1  0
  3  2  1  0
  4  2  1  0
  5  4  1  0
  6  2  1  0
M  END
$$$$

     RDKit          3D

 11 13  0  0  0  0  0  0  0  0999 V2000
  -28.1617   -1.6372  140.5836 N   0  0  0  0  0  0  0  0  0  0  0  0
  -28.8035   -1.5904  141.9091 C   0  0  0  0  0  0  0  0  0  0  0  0
  -29.0395   -1.0520  139.5630 C   0  0  0  0  0  0  0  0  0  0  0  0
  -29.9503   -2.5862  142.0924 C   0  0  0  0  0  0  0  0  0  0  0  0
  -29.6403   -4.0716  142.0563 C   0  0  0  0  0  0  0  0  0  0  0  0
  -28.2810   -0.9065  138.2327 C   0  0  0  0  0  0  0  0  0  0  0  0
  -27.8795   -2.1718  137.4654 C   0  0  0  0  0  0  0  0  0  0  0  0
  -27.3193    0.2701  138.1343 C   0  0  0  0  0  0  0  0  0  0  0  0
  -27.9985   -2.2972  142.9833 C   0  0  0  0  0  0  0  0  0  0  0  0
  -29.1530   -3.2583  143.2302 C   0  0  0  0  0  0  0  0  0  0  0  0
  -28.6444    0.3028  137.3776 C   0  0  0  0  0  0  0  0  0  0  0  0
  2  1  1  0
  3  1  1  0
  4  2  1  0
  5  4  1  0
  6  3  1  0
  7  6  1  0
  8  6  1  0
  9  2  1  0
 10  4  1  0
 10  5  1  0
 10  9  1  0
 11  6  1  0
 11  8  1  0
M  END
$$$$

     RDKit          3D

 11 12  0  0  0  0  0  0  0  0999 V2000
  -26.4874   -9.3840  137.9268 O   0  0  0  0  0  0  0  0  0  0  0  0
  -26.4878   -7.9808  138.0002 C   0  0  0  0  0  0  0  0  0  0  0  0
  -26.8178   -7.5617  139.2922 O   0  0  0  0  0  0  0  0  0  0  0  0
  -27.5447   -8.7238  137.2672 C   0  0  0  0  0  0  0  0  0  0  0  0
  -28.7988   -8.9395  138.0110 N   0  0  0  0  0  0  0  0  0  0  0  0
  -29.7817   -7.8168  137.9159 C   0  0  0  0  0  0  0  0  0  0  0  0
  -29.3957   -6.5326  137.1377 C   0  0  0  0  0  0  0  0  0  0  0  0
  -30.0490   -9.0767  137.2017 C   0  0  0  0  0  0  0  0  0  0  0  0
  -29.9386   -9.1686  135.6603 C   0  0  0  0  0  0  0  0  0  0  0  0
  -31.3313   -9.1898  135.0409 C   0  0  0  0  0  0  0  0  0  0  0  0
  -30.5363   -5.9805  136.5397 O   0  0  0  0  0  0  0  0  0  0  0  0
  2  1  1  0
  3  2  1  0
  4  1  1  0
  4  2  1  0
  5  4  1  0
  6  5  1  0
  7  6  1  0
  8  5  1  0
  8  6  1  0
  9  8  1  0
 10  9  1  0
 11  7  1  0
M  END
$$$$

     RDKit          3D

 11 11  0  0  0  0  0  0  0  0999 V2000
  -19.8346   -1.1996  134.1366 F   0  0  0  0  0  0  0  0  0  0  0  0
  -21.1140   -0.7059  134.0014 C   0  0  0  0  0  0  0  0  0  0  0  0
  -22.0298   -1.8123  133.5494 C   0  0  0  0  0  0  0  0  0  0  0  0
  -23.0498   -2.8247  135.6615 C   0  0  0  0  0  0  0  0  0  0  0  0
  -23.3385   -1.9792  138.0350 C   0  0  0  0  0  0  0  0  0  0  0  0
  -22.3602   -2.8793  134.3119 C   0  0  0  0  0  0  0  0  0  0  0  0
  -21.9580   -3.6251  139.3904 C   0  0  0  0  0  0  0  0  0  0  0  0
  -22.6000   -1.7817  136.7076 C   0  0  0  0  0  0  0  0  0  0  0  0
  -20.3193   -3.1321  136.9850 C   0  0  0  0  0  0  0  0  0  0  0  0
  -21.2511   -1.9948  137.4430 C   0  0  0  0  0  0  0  0  0  0  0  0
  -22.0206   -2.2290  138.7612 C   0  0  0  0  0  0  0  0  0  0  0  0
  2  1  1  0
  3  2  1  0
  6  3  2  3
  6  4  1  0
  8  4  1  0
  8  5  1  0
 10  8  1  0
 10  9  1  0
 11  5  1  0
 11  7  1  0
 11 10  1  0
M  END
$$$$

     RDKit          3D

 11 12  0  0  0  0  0  0  0  0999 V2000
  -26.6450    1.1602  143.5891 O   0  0  0  0  0  0  0  0  0  0  0  0
  -27.4675   -1.0802  143.3343 C   0  0  0  0  0  0  0  0  0  0  0  0
  -27.7829   -0.8759  141.9844 O   0  0  0  0  0  0  0  0  0  0  0  0
  -25.7173   -0.7049  145.1458 C   0  0  0  0  0  0  0  0  0  0  0  0
  -24.2840   -0.2286  145.5717 C   0  0  0  0  0  0  0  0  0  0  0  0
  -23.1982   -0.7909  144.6397 C   0  0  0  0  0  0  0  0  0  0  0  0
  -24.6634    2.0416  144.5487 C   0  0  0  0  0  0  0  0  0  0  0  0
  -26.1837    1.9212  144.6668 C   0  0  0  0  0  0  0  0  0  0  0  0
  -24.1325    1.3091  145.7738 C   0  0  0  0  0  0  0  0  0  0  0  0
  -26.2567   -0.2204  143.7324 C   0  0  0  0  0  0  0  0  0  0  0  0
  -25.5460    3.2756  144.4826 C   0  0  0  0  0  0  0  0  0  0  0  0
  3  2  1  0
  5  4  1  0
  6  5  1  0
  8  1  1  0
  8  7  1  0
  9  5  1  0
  9  7  1  0
 10  1  1  0
 10  2  1  0
 10  4  1  0
 11  7  1  0
 11  8  1  0
M  END
$$$$

     RDKit          3D

 11 13  0  0  0  0  0  0  0  0999 V2000
  -20.2757   -4.8267  143.5758 F   0  0  0  0  0  0  0  0  0  0  0  0
  -18.9819   -7.7027  147.2800 O   0  0  0  0  0  0  0  0  0  0  0  0
  -18.1311   -6.7233  147.8358 C   0  0  0  0  0  0  0  0  0  0  0  0
  -19.5197   -6.4099  147.4304 C   0  0  0  0  0  0  0  0  0  0  0  0
  -19.6957   -5.6967  146.0922 C   0  0  0  0  0  0  0  0  0  0  0  0
  -21.3439   -5.5697  144.0564 C   0  0  0  0  0  0  0  0  0  0  0  0
  -23.4700   -5.1660  145.4316 C   0  0  0  0  0  0  0  0  0  0  0  0
  -21.0708   -6.0958  145.4988 C   0  0  0  0  0  0  0  0  0  0  0  0
  -21.9777   -4.8951  145.2596 C   0  0  0  0  0  0  0  0  0  0  0  0
  -20.9417   -7.0128  144.2897 C   0  0  0  0  0  0  0  0  0  0  0  0
  -22.0670   -8.0256  144.0962 C   0  0  0  0  0  0  0  0  0  0  0  0
  3  2  1  0
  4  2  1  0
  4  3  1  0
  5  4  1  0
  6  1  1  0
  8  5  1  0
  8  6  1  0
  9  6  1  0
  9  7  1  0
  9  8  1  0
 10  6  1  0
 10  8  1  0
 11 10  1  0
M  END
$$$$

     RDKit          3D

 10 10  0  0  0  0  0  0  0  0999 V2000
  -22.9142   -9.5561  145.5721 C   0  0  0  0  0  0  0  0  0  0  0  0
  -23.5518   -5.0782  144.9124 O   0  0  0  0  0  0  0  0  0  0  0  0
  -25.4212   -6.6291  148.3328 O   0  0  0  0  0  0  0  0  0  0  0  0
  -24.5838   -8.6756  147.3727 C   0  0  0  0  0  0  0  0  0  0  0  0
  -25.2879   -9.3958  148.3525 O   0  0  0  0  0  0  0  0  0  0  0  0
  -24.2396   -7.2714  147.9242 C   0  0  0  0  0  0  0  0  0  0  0  0
  -23.3031   -9.4646  147.0420 C   0  0  0  0  0  0  0  0  0  0  0  0
  -23.5417  -10.7529  146.2662 C   0  0  0  0  0  0  0  0  0  0  0  0
  -24.3067   -5.9474  145.7096 C   0  0  0  0  0  0  0  0  0  0  0  0
  -23.4715   -6.3775  146.9207 C   0  0  0  0  0  0  0  0  0  0  0  0
  5  4  1  0
  6  3  1  0
  6  4  1  0
  7  1  1  0
  7  4  1  0
  8  1  1  0
  8  7  1  0
  9  2  1  0
 10  6  1  0
 10  9  1  0
M  END
$$$$

     RDKit          3D

 11 11  0  0  0  0  0  0  0  0999 V2000
  -20.7687  -10.0520  142.2852 O   0  0  0  0  0  0  0  0  0  0  0  0
  -20.0546   -9.0970  141.5335 C   0  0  0  0  0  0  0  0  0  0  0  0
  -20.1355   -9.3722  140.1663 O   0  0  0  0  0  0  0  0  0  0  0  0
  -19.3618  -10.1408  142.3195 C   0  0  0  0  0  0  0  0  0  0  0  0
  -18.8013   -9.7076  143.6779 C   0  0  0  0  0  0  0  0  0  0  0  0
  -17.3892   -9.1217  143.5474 C   0  0  0  0  0  0  0  0  0  0  0  0
  -16.3515  -10.1799  143.1443 C   0  0  0  0  0  0  0  0  0  0  0  0
  -14.9389   -9.5773  143.1112 C   0  0  0  0  0  0  0  0  0  0  0  0
  -13.8872  -10.5615  142.5754 C   0  0  0  0  0  0  0  0  0  0  0  0
  -12.4527  -12.5837  143.0519 C   0  0  0  0  0  0  0  0  0  0  0  0
  -13.5960  -11.7072  143.5556 C   0  0  0  0  0  0  0  0  0  0  0  0
  2  1  1  0
  3  2  1  0
  4  1  1  0
  4  2  1  0
  5  4  1  0
  6  5  1  0
  7  6  1  0
  8  7  1  0
  9  8  1  0
 11  9  1  0
 11 10  1  0
M  END
$$$$

     RDKit          3D

 11 13  0  0  0  0  0  0  0  0999 V2000
  -23.6465  -18.2135  138.5065 O   0  0  0  0  0  0  0  0  0  0  0  0
  -24.0772  -19.1913  137.6020 C   0  0  0  0  0  0  0  0  0  0  0  0
  -25.0203  -20.1162  138.0624 O   0  0  0  0  0  0  0  0  0  0  0  0
  -24.3293  -18.6935  136.1881 C   0  0  0  0  0  0  0  0  0  0  0  0
  -23.3492  -17.6714  135.6190 C   0  0  0  0  0  0  0  0  0  0  0  0
  -22.1727  -18.5861  135.9201 C   0  0  0  0  0  0  0  0  0  0  0  0
  -23.0693  -21.1037  136.0545 C   0  0  0  0  0  0  0  0  0  0  0  0
  -23.1259  -19.6150  136.5025 C   0  0  0  0  0  0  0  0  0  0  0  0
  -24.3252  -21.8474  135.5991 C   0  0  0  0  0  0  0  0  0  0  0  0
  -23.2768  -21.4286  134.5763 C   0  0  0  0  0  0  0  0  0  0  0  0
  -23.6854  -20.3577  133.7751 O   0  0  0  0  0  0  0  0  0  0  0  0
  2  1  1  0
  3  2  1  0
  4  2  1  0
  5  4  1  0
  6  5  1  0
  8  2  1  0
  8  4  1  0
  8  6  1  0
  8  7  1  0
  9  7  1  0
 10  7  1  0
 10  9  1  0
 11 10  1  0
M  END
$$$$

     RDKit          3D

 11 12  0  0  0  0  0  0  0  0999 V2000
  -28.3638  -12.5797  150.4417 C   0  0  0  0  0  0  0  0  0  0  0  0
  -27.6590  -13.0704  149.3002 O   0  0  0  0  0  0  0  0  0  0  0  0
  -26.7045  -11.7351  152.0554 N   0  0  0  0  0  0  0  0  0  0  0  0
  -28.2197  -14.2391  148.8375 N   0  0  0  0  0  0  0  0  0  0  0  0
  -28.4404  -13.2177  152.9698 C   0  0  0  0  0  0  0  0  0  0  0  0
  -28.0072  -15.3129  149.8184 C   0  0  0  0  0  0  0  0  0  0  0  0
  -28.9514  -15.6733  152.1437 C   0  0  0  0  0  0  0  0  0  0  0  0
  -29.4465  -14.3933  152.8577 C   0  0  0  0  0  0  0  0  0  0  0  0
  -29.2603  -15.5739  150.6466 C   0  0  0  0  0  0  0  0  0  0  0  0
  -27.5593  -12.8830  151.7381 C   0  0  0  0  0  0  0  0  0  0  0  0
  -28.7721  -16.6149  149.6482 C   0  0  0  0  0  0  0  0  0  0  0  0
  2  1  1  0
  4  2  1  0
  6  4  1  0
  8  5  1  0
  8  7  1  0
  9  6  1  0
  9  7  1  0
 10  1  1  0
 10  3  1  0
 10  5  1  0
 11  6  1  0
 11  9  1  0
M  END
$$$$

     RDKit          3D

 11 12  0  0  0  0  0  0  0  0999 V2000
  -25.1433   -9.8645  142.4727 O   0  0  0  0  0  0  0  0  0  0  0  0
  -23.8125  -10.2289  142.1964 C   0  0  0  0  0  0  0  0  0  0  0  0
  -23.5714  -11.6007  142.0774 O   0  0  0  0  0  0  0  0  0  0  0  0
  -24.6330   -9.5831  141.1792 C   0  0  0  0  0  0  0  0  0  0  0  0
  -23.4061   -8.0075  139.6754 C   0  0  0  0  0  0  0  0  0  0  0  0
  -23.0973   -7.9986  142.1993 C   0  0  0  0  0  0  0  0  0  0  0  0
  -22.7723   -9.3413  142.7199 N   0  0  0  0  0  0  0  0  0  0  0  0
  -24.0893   -8.1739  141.0358 C   0  0  0  0  0  0  0  0  0  0  0  0
  -22.7431   -9.4023  144.1949 C   0  0  0  0  0  0  0  0  0  0  0  0
  -21.4473   -7.4161  144.6165 O   0  0  0  0  0  0  0  0  0  0  0  0
  -21.4429   -8.8106  144.7444 C   0  0  0  0  0  0  0  0  0  0  0  0
  2  1  1  0
  3  2  1  0
  4  1  1  0
  4  2  1  0
  7  2  1  0
  7  6  1  0
  8  4  1  0
  8  5  1  0
  8  6  1  0
  9  7  1  0
 11  9  1  0
 11 10  1  0
M  END
$$$$

     RDKit          3D

 11 13  0  0  0  0  0  0  0  0999 V2000
  -27.5603   -7.5046  140.2297 C   0  0  0  0  0  0  0  0  0  0  0  0
  -28.2921   -7.6508  138.8856 C   0  0  0  0  0  0  0  0  0  0  0  0
  -26.6950   -8.6518  140.7042 C   0  0  0  0  0  0  0  0  0  0  0  0
  -27.1763   -9.9014  140.8135 C   0  0  0  0  0  0  0  0  0  0  0  0
  -28.5116  -10.2453  140.2122 C   0  0  0  0  0  0  0  0  0  0  0  0
  -28.4098  -10.2697  138.6939 C   0  0  0  0  0  0  0  0  0  0  0  0
  -28.0899   -8.9130  138.0105 C   0  0  0  0  0  0  0  0  0  0  0  0
  -27.0512   -6.7615  139.0060 C   0  0  0  0  0  0  0  0  0  0  0  0
  -29.0566  -11.6248  140.5481 C   0  0  0  0  0  0  0  0  0  0  0  0
  -30.0090  -11.9494  139.3876 C   0  0  0  0  0  0  0  0  0  0  0  0
  -29.7136  -10.9329  138.2735 C   0  0  0  0  0  0  0  0  0  0  0  0
  2  1  1  0
  3  1  1  0
  4  3  2  0
  5  4  1  0
  6  5  1  0
  7  2  1  0
  7  6  1  0
  8  1  1  0
  8  2  1  0
  9  5  1  0
 10  9  1  0
 11  6  1  0
 11 10  1  0
M  END
$$$$

     RDKit          3D

 11 12  0  0  0  0  0  0  0  0999 V2000
  -19.9753   -7.8994  134.9053 O   0  0  0  0  0  0  0  0  0  0  0  0
  -19.4876   -6.6916  135.4395 C   0  0  0  0  0  0  0  0  0  0  0  0
  -18.0424   -6.2976  135.1198 C   0  0  0  0  0  0  0  0  0  0  0  0
  -20.3774   -6.7357  134.2254 C   0  0  0  0  0  0  0  0  0  0  0  0
  -20.4741   -5.7710  136.1452 C   0  0  0  0  0  0  0  0  0  0  0  0
  -21.4160   -5.8944  134.9607 C   0  0  0  0  0  0  0  0  0  0  0  0
  -21.8534   -4.5633  134.3044 C   0  0  0  0  0  0  0  0  0  0  0  0
  -20.7388   -3.7127  133.6555 C   0  0  0  0  0  0  0  0  0  0  0  0
  -20.7195   -3.8568  132.1236 C   0  0  0  0  0  0  0  0  0  0  0  0
  -19.5809   -3.0612  131.4677 C   0  0  0  0  0  0  0  0  0  0  0  0
  -18.2079   -3.6901  131.7039 C   0  0  0  0  0  0  0  0  0  0  0  0
  2  1  1  0
  3  2  1  0
  4  1  1  0
  4  2  1  0
  5  2  1  0
  6  4  1  0
  6  5  1  0
  7  6  1  0
  8  7  1  0
  9  8  1  0
 10  9  1  0
 11 10  1  0
M  END
$$$$

     RDKit          3D

 11 13  0  0  0  0  0  0  0  0999 V2000
  -20.0562  -19.0787  135.5748 O   0  0  0  0  0  0  0  0  0  0  0  0
  -20.8393  -18.0187  136.1061 C   0  0  0  0  0  0  0  0  0  0  0  0
  -20.1287  -16.8117  136.0228 O   0  0  0  0  0  0  0  0  0  0  0  0
  -21.4488  -19.8943  137.2525 C   0  0  0  0  0  0  0  0  0  0  0  0
  -21.6915  -17.9446  138.7147 C   0  0  0  0  0  0  0  0  0  0  0  0
  -21.2926  -18.8199  139.9199 C   0  0  0  0  0  0  0  0  0  0  0  0
  -20.6322  -20.2924  136.0714 C   0  0  0  0  0  0  0  0  0  0  0  0
  -20.9794  -18.4817  137.5070 C   0  0  0  0  0  0  0  0  0  0  0  0
  -20.4526  -19.9151  139.9354 C   0  0  0  0  0  0  0  0  0  0  0  0
  -19.6087  -20.5260  138.7789 C   0  0  0  0  0  0  0  0  0  0  0  0
  -20.4173  -20.9470  137.5066 C   0  0  0  0  0  0  0  0  0  0  0  0
  2  1  1  0
  3  2  1  0
  6  5  1  0
  7  1  1  0
  7  4  1  0
  8  2  1  0
  8  4  1  0
  8  5  1  0
  9  6  2  0
 10  9  1  0
 11  4  1  0
 11  7  1  0
 11 10  1  0
M  END
$$$$

     RDKit          3D

 11 12  0  0  0  0  0  0  0  0999 V2000
  -28.5647   -1.9005  143.5220 N   0  0  0  0  0  0  0  0  0  0  0  0
  -26.1856   -1.8634  143.6143 C   0  0  0  0  0  0  0  0  0  0  0  0
  -26.4639   -1.9012  145.0562 N   0  0  0  0  0  0  0  0  0  0  0  0
  -27.3929   -1.7954  142.7487 N   0  0  0  0  0  0  0  0  0  0  0  0
  -26.3596   -0.5529  145.6280 C   0  0  0  0  0  0  0  0  0  0  0  0
  -25.0070   -0.1569  145.6642 O   0  0  0  0  0  0  0  0  0  0  0  0
  -28.5024   -0.8591  147.1303 C   0  0  0  0  0  0  0  0  0  0  0  0
  -26.6255   -3.0551  142.8975 C   0  0  0  0  0  0  0  0  0  0  0  0
  -26.4594    0.4156  148.0815 C   0  0  0  0  0  0  0  0  0  0  0  0
  -27.0024   -0.5543  147.0353 C   0  0  0  0  0  0  0  0  0  0  0  0
  -26.1503   -1.0768  148.1869 C   0  0  0  0  0  0  0  0  0  0  0  0
  3  2  1  0
  4  1  1  0
  4  2  1  0
  5  3  1  0
  6  5  1  0
  8  2  1  0
  8  4  1  0
 10  5  1  0
 10  7  1  0
 10  9  1  0
 11  9  1  0
 11 10  1  0
M  END
$$$$

     RDKit          3D

 11 15  0  0  0  0  0  0  0  0999 V2000
  -28.5911  -12.2863  148.6871 C   0  0  0  0  0  0  0  0  0  0  0  0
  -28.1218  -11.2507  147.6286 C   0  0  0  0  0  0  0  0  0  0  0  0
  -29.2783  -11.4264  146.5526 C   0  0  0  0  0  0  0  0  0  0  0  0
  -28.8460  -11.9217  145.1577 C   0  0  0  0  0  0  0  0  0  0  0  0
  -28.4087  -10.8895  149.1101 C   0  0  0  0  0  0  0  0  0  0  0  0
  -28.9782  -10.7851  144.1217 C   0  0  0  0  0  0  0  0  0  0  0  0
  -28.4818   -9.4766  144.6055 N   0  0  0  0  0  0  0  0  0  0  0  0
  -27.8268   -9.6023  145.9103 C   0  0  0  0  0  0  0  0  0  0  0  0
  -28.3821   -8.6094  146.8700 C   0  0  0  0  0  0  0  0  0  0  0  0
  -27.0766   -8.3954  146.2293 N   0  0  0  0  0  0  0  0  0  0  0  0
  -28.8333  -10.0738  146.9527 C   0  0  0  0  0  0  0  0  0  0  0  0
  2  1  1  0
  3  2  1  0
  4  3  1  0
  5  1  1  0
  5  2  1  0
  6  4  1  0
  7  6  1  0
  8  7  1  0
  9  8  1  0
 10  8  1  0
 10  9  1  0
 11  2  1  0
 11  3  1  0
 11  8  1  0
 11  9  1  0
M  END
$$$$

     RDKit          3D

 11 13  0  0  0  0  0  0  0  0999 V2000
  -22.1172    0.3025  146.7851 O   0  0  0  0  0  0  0  0  0  0  0  0
  -22.0521    1.7725  148.7923 C   0  0  0  0  0  0  0  0  0  0  0  0
  -21.9777    0.4666  149.5729 C   0  0  0  0  0  0  0  0  0  0  0  0
  -20.8346    2.2464  147.2031 C   0  0  0  0  0  0  0  0  0  0  0  0
  -22.2310    1.6660  147.2370 C   0  0  0  0  0  0  0  0  0  0  0  0
  -21.0296   -0.3931  147.4477 C   0  0  0  0  0  0  0  0  0  0  0  0
  -24.8209    1.0491  150.1790 O   0  0  0  0  0  0  0  0  0  0  0  0
  -20.6676    0.3279  148.7986 C   0  0  0  0  0  0  0  0  0  0  0  0
  -24.2754   -0.2195  150.4235 C   0  0  0  0  0  0  0  0  0  0  0  0
  -20.5994    1.8227  148.5932 N   0  0  0  0  0  0  0  0  0  0  0  0
  -23.1535   -0.5337  149.4279 C   0  0  0  0  0  0  0  0  0  0  0  0
  3  2  1  0
  5  1  1  0
  5  2  1  0
  5  4  1  0
  6  1  1  0
  8  3  1  0
  8  6  1  0
  9  7  1  0
 10  2  1  0
 10  4  1  0
 10  8  1  0
 11  3  1  0
 11  9  1  0
M  END
$$$$

     RDKit          3D

 11 12  0  0  0  0  0  0  0  0999 V2000
  -25.3049   -7.1657  142.9302 N   0  0  0  0  0  0  0  0  0  0  0  0
  -24.1626   -6.4639  143.5757 C   0  0  0  0  0  0  0  0  0  0  0  0
  -24.9438   -8.4305  142.2444 C   0  0  0  0  0  0  0  0  0  0  0  0
  -24.5674   -5.9098  144.8045 O   0  0  0  0  0  0  0  0  0  0  0  0
  -23.5269   -6.5750  145.4825 C   0  0  0  0  0  0  0  0  0  0  0  0
  -25.6810   -8.4727  143.5222 C   0  0  0  0  0  0  0  0  0  0  0  0
  -23.0069   -7.2266  144.2250 C   0  0  0  0  0  0  0  0  0  0  0  0
  -27.2124   -8.7653  143.4854 C   0  0  0  0  0  0  0  0  0  0  0  0
  -28.0103   -7.8711  142.5027 C   0  0  0  0  0  0  0  0  0  0  0  0
  -27.7649   -8.5289  144.9043 C   0  0  0  0  0  0  0  0  0  0  0  0
  -27.4247  -10.2440  143.1109 C   0  0  0  0  0  0  0  0  0  0  0  0
  2  1  1  0
  3  1  1  0
  4  2  1  0
  5  4  1  0
  6  1  1  0
  6  3  1  0
  7  2  1  0
  7  5  1  0
  8  6  1  0
  9  8  1  0
 10  8  1  0
 11  8  1  0
M  END
$$$$

     RDKit          3D

 11 10  0  0  0  0  0  0  0  0999 V2000
  -24.1378    2.9117  141.9700 O   0  0  0  0  0  0  0  0  0  0  0  0
  -23.7190    1.9137  142.8648 C   0  0  0  0  0  0  0  0  0  0  0  0
  -22.3249    1.7742  142.7711 O   0  0  0  0  0  0  0  0  0  0  0  0
  -24.3838    0.5673  142.4942 C   0  0  0  0  0  0  0  0  0  0  0  0
  -26.3732   -0.7601  140.8161 F   0  0  0  0  0  0  0  0  0  0  0  0
  -23.6422   -0.4633  143.0551 F   0  0  0  0  0  0  0  0  0  0  0  0
  -26.4190   -0.9105  142.1937 C   0  0  0  0  0  0  0  0  0  0  0  0
  -27.8377   -1.3558  142.5773 C   0  0  0  0  0  0  0  0  0  0  0  0
  -26.0242    0.2520  144.4332 C   0  0  0  0  0  0  0  0  0  0  0  0
  -26.7298    1.6125  142.4348 C   0  0  0  0  0  0  0  0  0  0  0  0
  -25.8955    0.3928  142.8950 C   0  0  0  0  0  0  0  0  0  0  0  0
  2  1  1  0
  3  2  1  0
  4  2  1  0
  6  4  1  0
  7  5  1  0
  8  7  1  0
 11  4  1  0
 11  7  1  0
 11  9  1  0
 11 10  1  0
M  END
$$$$

     RDKit          3D

 10  9  0  0  0  0  0  0  0  0999 V2000
  -14.3227   -4.4444  143.4973 C   0  0  0  0  0  0  0  0  0  0  0  0
  -14.8667   -3.1379  142.9013 C   0  0  0  0  0  0  0  0  0  0  0  0
  -12.8125   -4.5490  143.3034 C   0  0  0  0  0  0  0  0  0  0  0  0
  -16.4015   -3.0650  142.9280 C   0  0  0  0  0  0  0  0  0  0  0  0
  -16.9601   -2.8809  144.3499 C   0  0  0  0  0  0  0  0  0  0  0  0
  -18.9351   -1.3124  143.9129 C   0  0  0  0  0  0  0  0  0  0  0  0
  -20.4567   -1.0531  144.0228 C   0  0  0  0  0  0  0  0  0  0  0  0
  -21.2773   -1.9960  143.1322 C   0  0  0  0  0  0  0  0  0  0  0  0
  -20.9589   -1.0948  145.4729 C   0  0  0  0  0  0  0  0  0  0  0  0
  -18.4892   -2.7164  144.3689 C   0  0  0  0  0  0  0  0  0  0  0  0
  2  1  1  0
  3  1  1  0
  4  2  1  0
  5  4  1  0
  7  6  1  0
  8  7  1  0
  9  7  1  0
 10  5  1  0
 10  6  1  0
M  END
$$$$

     RDKit          3D

 11 12  0  0  0  0  0  0  0  0999 V2000
  -24.0611   -1.3050  140.3665 C   0  0  0  0  0  0  0  0  0  0  0  0
  -23.7035   -1.5221  141.8531 C   0  0  0  0  0  0  0  0  0  0  0  0
  -25.0533   -0.1800  140.1031 C   0  0  0  0  0  0  0  0  0  0  0  0
  -25.4775   -1.6272  139.9042 C   0  0  0  0  0  0  0  0  0  0  0  0
  -24.8418   -1.5278  142.6807 O   0  0  0  0  0  0  0  0  0  0  0  0
  -22.8832   -2.8136  142.0537 C   0  0  0  0  0  0  0  0  0  0  0  0
  -23.6657   -4.1184  141.7780 C   0  0  0  0  0  0  0  0  0  0  0  0
  -23.5013   -4.6549  140.3474 C   0  0  0  0  0  0  0  0  0  0  0  0
  -22.0744   -5.1643  140.0912 C   0  0  0  0  0  0  0  0  0  0  0  0
  -21.8057   -5.5458  138.6426 C   0  0  0  0  0  0  0  0  0  0  0  0
  -21.1861   -4.2852  139.2216 C   0  0  0  0  0  0  0  0  0  0  0  0
  2  1  1  0
  3  1  1  0
  4  1  1  0
  4  3  1  0
  5  2  1  0
  6  2  1  0
  7  6  1  0
  8  7  1  0
  9  8  1  0
 10  9  1  0
 11  9  1  0
 11 10  1  0
M  END
$$$$

     RDKit          3D

 11 15  0  0  0  0  0  0  0  0999 V2000
  -21.6839   -6.5056  135.4476 C   0  0  0  0  0  0  0  0  0  0  0  0
  -23.4276   -8.2228  134.7249 C   0  0  0  0  0  0  0  0  0  0  0  0
  -23.6754   -7.7876  133.3753 C   0  0  0  0  0  0  0  0  0  0  0  0
  -22.9419   -7.2717  135.8527 C   0  0  0  0  0  0  0  0  0  0  0  0
  -22.9197   -5.7332  135.8950 C   0  0  0  0  0  0  0  0  0  0  0  0
  -25.2873   -8.0580  134.3487 P   0  0  0  0  0  0  0  0  0  0  0  0
  -23.6916   -4.9398  134.8364 C   0  0  0  0  0  0  0  0  0  0  0  0
  -22.8762   -4.0510  133.9070 C   0  0  0  0  0  0  0  0  0  0  0  0
  -23.5411   -2.6950  133.7699 C   0  0  0  0  0  0  0  0  0  0  0  0
  -24.7960   -2.6386  134.6160 C   0  0  0  0  0  0  0  0  0  0  0  0
  -23.5918   -3.4391  135.0961 C   0  0  0  0  0  0  0  0  0  0  0  0
  3  2  1  0
  4  1  1  0
  4  2  1  0
  5  1  1  0
  5  4  1  0
  6  2  1  0
  6  3  1  0
  7  5  1  0
  8  7  1  0
  9  8  1  0
 10  9  1  0
 11  7  1  0
 11  8  1  0
 11  9  1  0
 11 10  1  0
M  END
$$$$

     RDKit          3D

  9 10  0  0  0  0  0  0  0  0999 V2000
  -17.3526   -0.9668  143.6098 C   0  0  0  0  0  0  0  0  0  0  0  0
  -18.3242   -0.7376  144.7718 C   0  0  0  0  0  0  0  0  0  0  0  0
  -18.6784   -1.9238  145.7077 C   0  0  0  0  0  0  0  0  0  0  0  0
  -18.8385   -0.7949  143.3296 C   0  0  0  0  0  0  0  0  0  0  0  0
  -17.7396   -3.1376  145.5521 C   0  0  0  0  0  0  0  0  0  0  0  0
  -17.5161   -3.5088  144.0901 C   0  0  0  0  0  0  0  0  0  0  0  0
  -20.1736   -2.3064  145.6310 C   0  0  0  0  0  0  0  0  0  0  0  0
  -20.5580   -3.1260  146.7778 N   0  0  0  0  0  0  0  0  0  0  0  0
  -16.7963   -2.3792  143.3471 C   0  0  0  0  0  0  0  0  0  0  0  0
  2  1  1  0
  3  2  1  0
  4  1  1  0
  4  2  1  0
  5  3  1  0
  6  5  1  0
  7  3  1  0
  8  7  1  0
  9  1  1  0
  9  6  1  0
M  END
$$$$

     RDKit          3D

 11 11  0  0  0  0  0  0  0  0999 V2000
  -25.0513    3.3591  139.9635 O   0  0  0  0  0  0  0  0  0  0  0  0
  -24.5354    3.8020  141.1904 C   0  0  0  0  0  0  0  0  0  0  0  0
  -23.2015    3.3824  141.2969 O   0  0  0  0  0  0  0  0  0  0  0  0
  -24.6059    5.3192  141.2664 C   0  0  0  0  0  0  0  0  0  0  0  0
  -25.4552    5.9556  142.3618 C   0  0  0  0  0  0  0  0  0  0  0  0
  -23.3226    6.8561  143.5862 C   0  0  0  0  0  0  0  0  0  0  0  0
  -22.2988    7.0274  142.4408 C   0  0  0  0  0  0  0  0  0  0  0  0
  -24.8032    7.0592  143.2248 C   0  0  0  0  0  0  0  0  0  0  0  0
  -22.6910    8.0089  141.3101 C   0  0  0  0  0  0  0  0  0  0  0  0
  -23.8127    7.5350  140.3493 C   0  0  0  0  0  0  0  0  0  0  0  0
  -23.9697    6.0390  140.3118 C   0  0  0  0  0  0  0  0  0  0  0  0
  2  1  1  0
  3  2  1  0
  4  2  1  0
  5  4  1  0
  7  6  1  0
  8  5  1  0
  8  6  1  0
  9  7  1  0
 10  9  1  0
 11  4  2  3
 11 10  1  0
M  END
$$$$

     RDKit          3D

 11 11  0  0  0  0  0  0  0  0999 V2000
  -20.8256  -12.2759  138.6149 O   0  0  0  0  0  0  0  0  0  0  0  0
  -21.6810  -11.1679  138.4609 C   0  0  0  0  0  0  0  0  0  0  0  0
  -22.9953  -11.4993  138.8156 O   0  0  0  0  0  0  0  0  0  0  0  0
  -20.9894  -10.3839  139.5576 C   0  0  0  0  0  0  0  0  0  0  0  0
  -21.1417   -7.8983  138.8245 C   0  0  0  0  0  0  0  0  0  0  0  0
  -21.8649   -7.3980  140.0853 C   0  0  0  0  0  0  0  0  0  0  0  0
  -22.0791   -8.1683  137.8141 O   0  0  0  0  0  0  0  0  0  0  0  0
  -20.2351   -9.1239  139.0856 C   0  0  0  0  0  0  0  0  0  0  0  0
  -22.9889   -8.2086  140.3614 O   0  0  0  0  0  0  0  0  0  0  0  0
  -23.5963   -7.7769  141.5578 C   0  0  0  0  0  0  0  0  0  0  0  0
  -20.1127  -11.6169  139.6344 C   0  0  0  0  0  0  0  0  0  0  0  0
  2  1  1  0
  3  2  1  0
  4  2  1  0
  6  5  1  0
  7  5  1  0
  8  4  1  0
  8  5  1  0
  9  6  1  0
 10  9  1  0
 11  1  1  0
 11  4  1  0
M  END
$$$$

     RDKit          3D

 11 11  0  0  0  0  0  0  0  0999 V2000
  -26.8175  -20.1996  149.2947 N   0  0  0  0  0  0  0  0  0  0  0  0
  -27.4849  -20.5084  150.5750 C   0  0  0  0  0  0  0  0  0  0  0  0
  -28.2540  -20.5458  149.3324 C   0  0  0  0  0  0  0  0  0  0  0  0
  -25.8424  -21.6391  151.8517 F   0  0  0  0  0  0  0  0  0  0  0  0
  -29.0645  -19.4411  149.1241 F   0  0  0  0  0  0  0  0  0  0  0  0
  -27.0214  -21.8477  151.1602 C   0  0  0  0  0  0  0  0  0  0  0  0
  -26.7931  -22.7922  150.1718 F   0  0  0  0  0  0  0  0  0  0  0  0
  -29.5185  -22.9192  151.2110 F   0  0  0  0  0  0  0  0  0  0  0  0
  -28.3157  -22.4734  152.3563 P   0  0  0  0  0  0  0  0  0  0  0  0
  -27.6064  -24.1521  152.8082 C   0  0  0  0  0  0  0  0  0  0  0  0
  -28.0709  -25.2596  151.8680 C   0  0  0  0  0  0  0  0  0  0  0  0
  2  1  1  0
  3  1  1  0
  3  2  1  0
  5  3  1  0
  6  2  1  0
  6  4  1  0
  7  6  1  0
  9  6  1  0
  9  8  1  0
 10  9  1  0
 11 10  1  0
M  END
$$$$

     RDKit          3D

  7  7  0  0  0  0  0  0  0  0999 V2000
  -26.5939  -21.6154  145.2787 N   0  0  0  0  0  0  0  0  0  0  0  0
  -25.7002  -22.5185  146.0097 C   0  0  0  0  0  0  0  0  0  0  0  0
  -24.4215  -22.5619  145.4267 O   0  0  0  0  0  0  0  0  0  0  0  0
  -26.5617  -23.7455  145.7149 C   0  0  0  0  0  0  0  0  0  0  0  0
  -25.9221  -24.8138  144.8075 C   0  0  0  0  0  0  0  0  0  0  0  0
  -26.9215  -25.9152  144.4655 C   0  0  0  0  0  0  0  0  0  0  0  0
  -27.4594  -22.7586  144.9801 C   0  0  0  0  0  0  0  0  0  0  0  0
  2  1  1  0
  3  2  1  0
  4  2  1  0
  5  4  1  0
  6  5  1  0
  7  1  1  0
  7  4  1  0
M  END
$$$$

     RDKit          3D

 11 14  0  0  0  0  0  0  0  0999 V2000
  -24.3721    1.4187  133.7465 C   0  0  0  0  0  0  0  0  0  0  0  0
  -24.7516    2.8825  133.7704 C   0  0  0  0  0  0  0  0  0  0  0  0
  -23.0317    0.9370  134.2819 C   0  0  0  0  0  0  0  0  0  0  0  0
  -21.9156    1.0550  133.2652 C   0  0  0  0  0  0  0  0  0  0  0  0
  -26.0889    2.9716  134.2143 O   0  0  0  0  0  0  0  0  0  0  0  0
  -25.5989    0.5958  134.0326 C   0  0  0  0  0  0  0  0  0  0  0  0
  -26.8264    1.2759  135.6208 O   0  0  0  0  0  0  0  0  0  0  0  0
  -23.3218    1.0071  132.7453 C   0  0  0  0  0  0  0  0  0  0  0  0
  -26.6375    1.6632  134.2794 C   0  0  0  0  0  0  0  0  0  0  0  0
  -25.8656    0.2547  135.4881 C   0  0  0  0  0  0  0  0  0  0  0  0
  -26.0353   -0.4630  133.0077 C   0  0  0  0  0  0  0  0  0  0  0  0
  2  1  1  0
  3  1  1  0
  4  3  1  0
  5  2  1  0
  6  1  1  0
  8  1  1  0
  8  3  1  0
  8  4  1  0
  9  5  1  0
  9  6  1  0
  9  7  1  0
 10  6  1  0
 10  7  1  0
 11  6  1  0
M  END
$$$$

     RDKit          3D

 11 12  0  0  0  0  0  0  0  0999 V2000
  -21.7593  -18.4715  138.0532 C   0  0  0  0  0  0  0  0  0  0  0  0
  -20.6491  -18.6596  139.0845 C   0  0  0  0  0  0  0  0  0  0  0  0
  -21.2381  -18.0075  136.6623 C   0  0  0  0  0  0  0  0  0  0  0  0
  -21.4861  -16.5328  136.2911 C   0  0  0  0  0  0  0  0  0  0  0  0
  -19.3696  -15.9926  134.9414 C   0  0  0  0  0  0  0  0  0  0  0  0
  -19.9538  -17.4243  139.6178 C   0  0  0  0  0  0  0  0  0  0  0  0
  -20.9045  -16.0957  134.9221 C   0  0  0  0  0  0  0  0  0  0  0  0
  -22.4619  -17.4858  138.9835 C   0  0  0  0  0  0  0  0  0  0  0  0
  -21.4689  -16.8906  133.7114 C   0  0  0  0  0  0  0  0  0  0  0  0
  -20.6277  -18.0900  133.2571 C   0  0  0  0  0  0  0  0  0  0  0  0
  -21.3818  -17.6926  140.0341 C   0  0  0  0  0  0  0  0  0  0  0  0
  2  1  1  0
  3  1  1  0
  4  3  1  0
  6  2  1  0
  7  4  1  0
  7  5  1  0
  8  1  1  0
  9  7  1  0
 10  9  1  0
 11  2  1  0
 11  6  1  0
 11  8  1  0
M  END
$$$$

     RDKit          3D

  7  6  0  0  0  0  0  0  0  0999 V2000
  -24.5663  -10.3789  146.5656 Mg  0  0  0  0  0  2  0  0  0  0  0  0
  -26.4461  -10.0736  145.9507 O   0  0  0  0  0  0  0  0  0  0  0  0
  -21.9832   -9.7331  146.5864 O   0  0  0  0  0  0  0  0  0  0  0  0
  -22.4349  -10.5240  144.4612 O   0  0  0  0  0  0  0  0  0  0  0  0
  -22.7604   -9.3310  143.9971 O   0  0  0  0  0  0  0  0  0  0  0  0
  -22.6845  -10.6829  147.1763 O   0  0  0  0  0  0  0  0  0  0  0  0
  -21.4359  -10.3128  145.4289 C   0  0  0  0  0  0  0  0  0  0  0  0
  2  1  1  0
  5  4  1  0
  6  1  1  0
  6  3  1  0
  7  3  1  0
  7  4  1  0
M  END
$$$$

     RDKit          3D

 11 12  0  0  0  0  0  0  0  0999 V2000
  -27.1118    0.6274  134.4388 O   0  0  0  0  0  0  0  0  0  0  0  0
  -27.5604   -1.1998  132.9642 C   0  0  0  0  0  0  0  0  0  0  0  0
  -28.6840    1.0055  132.5580 C   0  0  0  0  0  0  0  0  0  0  0  0
  -29.6105    1.6385  133.3020 C   0  0  0  0  0  0  0  0  0  0  0  0
  -27.6219   -1.6558  131.4971 C   0  0  0  0  0  0  0  0  0  0  0  0
  -29.5342    1.7804  134.7976 C   0  0  0  0  0  0  0  0  0  0  0  0
  -26.9923    2.0220  134.6495 C   0  0  0  0  0  0  0  0  0  0  0  0
  -28.0778   -3.0948  131.3079 C   0  0  0  0  0  0  0  0  0  0  0  0
  -29.0083   -1.9498  130.9423 C   0  0  0  0  0  0  0  0  0  0  0  0
  -27.4205    0.3244  133.0859 C   0  0  0  0  0  0  0  0  0  0  0  0
  -28.2973    2.5772  135.2388 C   0  0  0  0  0  0  0  0  0  0  0  0
  4  3  2  0
  5  2  1  0
  6  4  1  0
  7  1  1  0
  8  5  1  0
  9  5  1  0
  9  8  1  0
 10  1  1  0
 10  2  1  0
 10  3  1  0
 11  6  1  0
 11  7  1  0
M  END
$$$$

     RDKit          3D

 10 11  0  0  0  0  0  0  0  0999 V2000
  -20.3451  -15.5729  140.1978 C   0  0  0  0  0  0  0  0  0  0  0  0
  -19.9247  -13.6828  137.3047 O   0  0  0  0  0  0  0  0  0  0  0  0
  -20.6259  -14.4505  141.0230 O   0  0  0  0  0  0  0  0  0  0  0  0
  -19.4555  -15.3644  138.9516 C   0  0  0  0  0  0  0  0  0  0  0  0
  -18.2982  -16.0543  139.6688 C   0  0  0  0  0  0  0  0  0  0  0  0
  -20.8162  -13.2536  140.3003 C   0  0  0  0  0  0  0  0  0  0  0  0
  -19.1832  -13.9212  138.4746 C   0  0  0  0  0  0  0  0  0  0  0  0
  -22.0932  -13.2792  139.4431 C   0  0  0  0  0  0  0  0  0  0  0  0
  -19.2186  -16.3824  140.8375 C   0  0  0  0  0  0  0  0  0  0  0  0
  -19.5420  -12.8782  139.5357 C   0  0  0  0  0  0  0  0  0  0  0  0
  3  1  1  0
  4  1  1  0
  5  4  1  0
  6  3  1  0
  7  2  1  0
  7  4  1  0
  8  6  1  0
  9  1  1  0
  9  5  1  0
 10  6  1  0
 10  7  1  0
M  END
$$$$

     RDKit          3D

 11 12  0  0  0  0  0  0  0  0999 V2000
  -26.5700   -2.2235  141.3035 O   0  0  0  0  0  0  0  0  0  0  0  0
  -26.2061   -3.3485  141.7389 C   0  0  0  0  0  0  0  0  0  0  0  0
  -25.4152   -4.1653  140.9355 O   0  0  0  0  0  0  0  0  0  0  0  0
  -26.6710   -3.8227  143.0925 C   0  0  0  0  0  0  0  0  0  0  0  0
  -26.5927   -2.7241  144.0600 N   0  0  0  0  0  0  0  0  0  0  0  0
  -28.1213   -4.3472  142.9702 C   0  0  0  0  0  0  0  0  0  0  0  0
  -27.8862   -6.2892  144.4104 C   0  0  0  0  0  0  0  0  0  0  0  0
  -28.3244   -6.9999  145.6766 C   0  0  0  0  0  0  0  0  0  0  0  0
  -27.1418   -7.5814  146.4198 C   0  0  0  0  0  0  0  0  0  0  0  0
  -28.6046   -5.0246  144.1822 N   0  0  0  0  0  0  0  0  0  0  0  0
  -26.9452   -6.3236  145.6036 C   0  0  0  0  0  0  0  0  0  0  0  0
  2  1  2  0
  3  2  1  0
  4  2  1  0
  5  4  1  0
  6  4  1  0
  8  7  1  0
  9  8  1  0
 10  6  1  0
 10  7  1  0
 11  7  1  0
 11  8  1  0
 11  9  1  0
M  END
$$$$

     RDKit          3D

 11 11  0  0  0  0  0  0  0  0999 V2000
  -27.8576  -22.8913  150.4825 C   0  0  0  0  0  0  0  0  0  0  0  0
  -26.8771  -21.9566  151.1910 C   0  0  0  0  0  0  0  0  0  0  0  0
  -28.4269  -23.8167  151.5556 C   0  0  0  0  0  0  0  0  0  0  0  0
  -26.8638  -20.6156  150.5823 N   0  0  0  0  0  0  0  0  0  0  0  0
  -26.1212  -20.6154  149.3135 C   0  0  0  0  0  0  0  0  0  0  0  0
  -26.2414  -19.2533  148.6209 C   0  0  0  0  0  0  0  0  0  0  0  0
  -27.8153  -17.6573  147.3910 C   0  0  0  0  0  0  0  0  0  0  0  0
  -27.5579  -16.3990  148.2196 C   0  0  0  0  0  0  0  0  0  0  0  0
  -27.6932  -18.9470  148.2167 C   0  0  0  0  0  0  0  0  0  0  0  0
  -27.9620  -23.2745  152.9035 C   0  0  0  0  0  0  0  0  0  0  0  0
  -27.3783  -21.8997  152.6289 C   0  0  0  0  0  0  0  0  0  0  0  0
  2  1  1  0
  3  1  1  0
  4  2  1  0
  5  4  1  0
  6  5  1  0
  8  7  1  0
  9  6  1  0
  9  7  1  0
 10  3  1  0
 11  2  1  0
 11 10  1  0
M  END
$$$$

     RDKit          3D

 11 12  0  0  0  0  0  0  0  0999 V2000
  -24.6530   -1.7747  142.7127 C   0  0  0  0  0  0  0  0  0  0  0  0
  -24.7714   -1.8990  144.2444 C   0  0  0  0  0  0  0  0  0  0  0  0
  -25.4953   -3.1677  144.6347 C   0  0  0  0  0  0  0  0  0  0  0  0
  -23.1443   -0.5974  141.1549 C   0  0  0  0  0  0  0  0  0  0  0  0
  -23.2943   -1.2912  142.2868 C   0  0  0  0  0  0  0  0  0  0  0  0
  -24.8757   -4.3012  145.0236 C   0  0  0  0  0  0  0  0  0  0  0  0
  -23.3754   -4.4242  145.1809 C   0  0  0  0  0  0  0  0  0  0  0  0
  -22.6415   -4.4250  143.8556 C   0  0  0  0  0  0  0  0  0  0  0  0
  -21.2168   -4.7137  143.9358 C   0  0  0  0  0  0  0  0  0  0  0  0
  -22.8659   -5.8493  145.3117 C   0  0  0  0  0  0  0  0  0  0  0  0
  -22.1837   -5.8280  144.0172 N   0  0  0  0  0  0  0  0  0  0  0  0
  2  1  1  0
  3  2  1  0
  5  1  1  0
  5  4  2  0
  6  3  2  3
  7  6  1  0
  8  7  1  0
  9  8  1  0
 10  7  1  0
 11  8  1  0
 11  9  1  0
 11 10  1  0
M  END
$$$$

     RDKit          3D

 11 12  0  0  0  0  0  0  0  0999 V2000
  -26.2184   -6.6669  150.9611 O   0  0  0  0  0  1  0  0  0  0  0  0
  -27.0297   -7.6458  151.5358 C   0  0  0  0  0  0  0  0  0  0  0  0
  -28.1056   -7.1442  152.4678 C   0  0  0  0  0  0  0  0  0  0  0  0
  -26.3960   -8.9094  151.8852 N   0  0  0  0  0  2  0  0  0  0  0  0
  -29.0427   -8.1718  153.0895 C   0  0  0  0  0  0  0  0  0  0  0  0
  -28.4603   -7.6949  151.0578 C   0  0  0  0  0  0  0  0  0  0  0  0
  -31.2706   -7.2281  151.4874 F   0  0  0  0  0  0  0  0  0  0  0  0
  -31.4935  -10.6972  151.6988 F   0  0  0  0  0  0  0  0  0  0  0  0
  -30.8640   -8.5419  151.3053 C   0  0  0  0  0  0  0  0  0  0  0  0
  -29.3887   -8.7155  151.7111 C   0  0  0  0  0  0  0  0  0  0  0  0
  -31.7138   -9.4243  152.1020 N   0  0  0  0  0  0  0  0  0  0  0  0
  2  1  1  0
  3  2  1  0
  4  2  1  0
  5  3  1  0
  6  2  1  0
  6  3  1  0
  9  7  1  0
 10  5  1  0
 10  6  1  0
 10  9  1  0
 11  8  1  0
 11  9  1  0
M  RAD  2   1   2   4   2
M  END
$$$$

     RDKit          3D

 11 13  0  0  0  0  0  0  0  0999 V2000
  -25.8715  -20.7999  133.1010 O   0  0  0  0  0  0  0  0  0  0  0  0
  -27.1613  -21.3301  133.2691 C   0  0  0  0  0  0  0  0  0  0  0  0
  -27.9682  -20.4454  133.9905 O   0  0  0  0  0  0  0  0  0  0  0  0
  -27.1429  -22.7071  133.8942 C   0  0  0  0  0  0  0  0  0  0  0  0
  -26.8333  -23.8123  132.9266 C   0  0  0  0  0  0  0  0  0  0  0  0
  -25.9909  -21.7560  134.1237 C   0  0  0  0  0  0  0  0  0  0  0  0
  -25.7748  -24.6999  133.1808 C   0  0  0  0  0  0  0  0  0  0  0  0
  -25.5122  -25.7528  132.2986 C   0  0  0  0  0  0  0  0  0  0  0  0
  -26.3127  -25.9351  131.1674 C   0  0  0  0  0  0  0  0  0  0  0  0
  -27.3810  -25.0685  130.9198 C   0  0  0  0  0  0  0  0  0  0  0  0
  -27.6469  -24.0144  131.7996 C   0  0  0  0  0  0  0  0  0  0  0  0
  2  1  1  0
  3  2  1  0
  4  2  1  0
  5  4  1  0
  6  1  1  0
  6  2  1  0
  6  4  1  0
  7  5  4  0
  8  7  4  0
  9  8  4  0
 10  9  4  0
 11  5  4  0
 11 10  4  0
M  END
$$$$

     RDKit          3D

 11 14  0  0  0  0  0  0  0  0999 V2000
  -26.5055   -2.4993  135.1453 O   0  0  0  0  0  0  0  0  0  0  0  0
  -26.6021   -3.7055  135.8464 C   0  0  0  0  0  0  0  0  0  0  0  0
  -27.8932   -4.1963  135.6005 O   0  0  0  0  0  0  0  0  0  0  0  0
  -26.8852   -4.9835  135.0416 C   0  0  0  0  0  0  0  0  0  0  0  0
  -26.6299   -4.7926  133.5514 C   0  0  0  0  0  0  0  0  0  0  0  0
  -24.2619   -5.7965  133.4510 C   0  0  0  0  0  0  0  0  0  0  0  0
  -23.6217   -5.3377  132.1551 C   0  0  0  0  0  0  0  0  0  0  0  0
  -24.4761   -3.3528  133.3201 C   0  0  0  0  0  0  0  0  0  0  0  0
  -25.4667   -4.6153  135.3882 C   0  0  0  0  0  0  0  0  0  0  0  0
  -25.1403   -4.6199  133.8801 C   0  0  0  0  0  0  0  0  0  0  0  0
  -23.4507   -3.8287  132.2899 C   0  0  0  0  0  0  0  0  0  0  0  0
  2  1  1  0
  3  2  1  0
  4  2  1  0
  4  3  1  0
  5  4  1  0
  7  6  1  0
  9  2  1  0
  9  4  1  0
 10  5  1  0
 10  6  1  0
 10  8  1  0
 10  9  1  0
 11  7  1  0
 11  8  1  0
M  END
$$$$

     RDKit          3D

 11 13  0  0  0  0  0  0  0  0999 V2000
  -21.2048  -13.5716  137.3642 C   0  0  0  0  0  0  0  0  0  0  0  0
  -19.9072  -14.3320  136.9855 C   0  0  0  0  0  0  0  0  0  0  0  0
  -23.3429  -15.9034  139.8111 P   0  0  0  0  0  0  0  0  0  0  0  0
  -22.2721  -14.8896  138.6830 C   0  0  0  0  0  0  0  0  0  0  0  0
  -21.7176  -13.5373  138.8401 C   0  0  0  0  0  0  0  0  0  0  0  0
  -23.7072  -17.3938  138.7562 C   0  0  0  0  0  0  0  0  0  0  0  0
  -23.1149  -13.7513  138.4622 N   0  0  0  0  0  0  0  0  0  0  0  0
  -22.4921  -14.4516  137.3217 C   0  0  0  0  0  0  0  0  0  0  0  0
  -19.1711  -15.0996  138.1104 C   0  0  0  0  0  0  0  0  0  0  0  0
  -17.8705  -14.4074  138.5489 C   0  0  0  0  0  0  0  0  0  0  0  0
  -17.1335  -15.2095  139.6368 C   0  0  0  0  0  0  0  0  0  0  0  0
  2  1  1  0
  4  3  1  0
  5  1  1  0
  5  4  1  0
  6  3  1  0
  7  4  1  0
  7  5  1  0
  8  1  1  0
  8  4  1  0
  8  7  1  0
  9  2  1  0
 10  9  1  0
 11 10  1  0
M  END
$$$$

     RDKit          3D

 11 13  0  0  0  0  0  0  0  0999 V2000
  -28.7945  -17.0385  138.9832 C   0  0  0  0  0  0  0  0  0  0  0  0
  -27.9621  -18.3232  139.0261 C   0  0  0  0  0  0  0  0  0  0  0  0
  -27.7810  -18.7740  140.4980 C   0  0  0  0  0  0  0  0  0  0  0  0
  -26.6704  -18.0931  138.3392 N   0  0  0  0  0  0  0  0  0  0  0  0
  -26.4248  -19.2235  140.8559 N   0  0  0  0  0  0  0  0  0  0  0  0
  -26.7714  -18.3223  136.8774 C   0  0  0  0  0  0  0  0  0  0  0  0
  -25.8302  -17.4038  136.0937 C   0  0  0  0  0  0  0  0  0  0  0  0
  -26.9877  -17.9272  141.3799 C   0  0  0  0  0  0  0  0  0  0  0  0
  -25.5579  -18.0809  141.1822 C   0  0  0  0  0  0  0  0  0  0  0  0
  -25.4867  -18.0179  134.7418 C   0  0  0  0  0  0  0  0  0  0  0  0
  -26.1362  -19.3350  137.7226 C   0  0  0  0  0  0  0  0  0  0  0  0
  2  1  1  0
  3  2  1  0
  4  2  1  0
  5  3  1  0
  6  4  1  0
  7  6  1  0
  8  3  1  0
  8  5  1  0
  9  5  1  0
  9  8  1  0
 10  7  1  0
 11  4  1  0
 11  6  1  0
M  END
$$$$

     RDKit          3D

 11 13  0  0  0  0  0  0  0  0999 V2000
  -20.6688   -6.3909  148.7864 O   0  0  0  0  0  0  0  0  0  0  0  0
  -20.8322   -5.9709  146.3214 C   0  0  0  0  0  0  0  0  0  0  0  0
  -20.3773   -6.8417  147.4876 C   0  0  0  0  0  0  0  0  0  0  0  0
  -20.7493   -8.1570  147.3332 O   0  0  0  0  0  0  0  0  0  0  0  0
  -19.3409   -7.9265  147.2183 C   0  0  0  0  0  0  0  0  0  0  0  0
  -18.8170   -9.1936  147.9342 C   0  0  0  0  0  0  0  0  0  0  0  0
  -17.6784   -9.8769  147.1630 C   0  0  0  0  0  0  0  0  0  0  0  0
  -16.6995  -10.7472  147.9530 C   0  0  0  0  0  0  0  0  0  0  0  0
  -16.8914  -10.8619  149.4696 C   0  0  0  0  0  0  0  0  0  0  0  0
  -18.4603   -7.8810  148.5038 C   0  0  0  0  0  0  0  0  0  0  0  0
  -17.7832  -11.3978  147.1016 C   0  0  0  0  0  0  0  0  0  0  0  0
  3  1  1  0
  3  2  1  0
  4  3  1  0
  5  3  1  0
  5  4  1  0
  6  5  1  0
  7  6  1  0
  8  7  1  0
  9  8  1  0
 10  5  1  0
 10  6  1  0
 11  7  1  0
 11  8  1  0
M  END
$$$$

     RDKit          3D

  7  6  0  0  0  0  0  0  0  0999 V2000
  -23.8763  -14.1563  150.7368 C   0  0  0  0  0  0  0  0  0  0  0  0
  -22.6943  -13.5356  150.3686 F   0  0  0  0  0  0  0  0  0  0  0  0
  -24.7837  -14.3344  149.4897 C   0  0  0  0  0  0  0  0  0  0  0  0
  -25.0581  -13.0911  148.9416 F   0  0  0  0  0  0  0  0  0  0  0  0
  -26.1141  -15.0157  149.8492 C   0  0  0  0  0  0  0  0  0  0  0  0
  -24.5079  -13.3575  151.7890 N   0  0  0  0  0  0  0  0  0  0  0  0
  -24.0550  -15.1728  148.4283 C   0  0  0  0  0  0  0  0  0  0  0  0
  2  1  1  0
  3  1  1  0
  4  3  1  0
  5  3  1  0
  6  1  1  0
  7  3  1  0
M  END
$$$$

     RDKit          3D

 11 13  0  0  0  0  0  0  0  0999 V2000
  -22.5703   -1.6610  138.2210 C   0  0  0  0  0  0  0  0  0  0  0  0
  -20.8572   -2.5785  138.8998 C   0  0  0  0  0  0  0  0  0  0  0  0
  -23.2567   -2.0305  139.5198 C   0  0  0  0  0  0  0  0  0  0  0  0
  -24.2183   -0.9722  140.0595 C   0  0  0  0  0  0  0  0  0  0  0  0
  -21.5356   -3.3525  136.4601 C   0  0  0  0  0  0  0  0  0  0  0  0
  -21.6326   -2.6843  137.6061 C   0  0  0  0  0  0  0  0  0  0  0  0
  -25.2743   -0.3728  139.2073 C   0  0  0  0  0  0  0  0  0  0  0  0
  -25.8365    0.8048  139.7116 O   0  0  0  0  0  0  0  0  0  0  0  0
  -23.9234   -0.3619  141.2836 O   0  0  0  0  0  0  0  0  0  0  0  0
  -25.5423   -1.4572  140.0635 O   0  0  0  0  0  0  0  0  0  0  0  0
  -21.8006   -1.6023  139.5207 C   0  0  0  0  0  0  0  0  0  0  0  0
  3  1  1  0
  4  3  1  0
  6  1  1  0
  6  2  1  0
  6  5  2  0
  7  4  1  0
  8  7  1  0
  9  4  1  0
 10  4  1  0
 10  7  1  0
 11  1  1  0
 11  2  1  0
 11  3  1  0
M  END
$$$$

     RDKit          3D

 11 12  0  0  0  0  0  0  0  0999 V2000
  -25.1569   -3.1299  139.0576 O   0  0  0  0  0  0  0  0  0  0  0  0
  -23.8692   -3.3644  139.6409 C   0  0  0  0  0  0  0  0  0  0  0  0
  -25.0564   -3.7734  139.4945 O   0  0  0  0  0  0  0  0  0  0  0  0
  -22.7319   -3.8916  138.8247 C   0  0  0  0  0  0  0  0  0  0  0  0
  -21.5629   -3.1317  139.0784 O   0  0  0  0  0  0  0  0  0  0  0  0
  -23.0625   -3.8449  137.3210 C   0  0  0  0  0  0  0  0  0  0  0  0
  -24.4044   -1.5398  137.1343 C   0  0  0  0  0  0  0  0  0  0  0  0
  -25.7677   -2.1440  136.7991 C   0  0  0  0  0  0  0  0  0  0  0  0
  -23.1956   -2.4237  136.7359 C   0  0  0  0  0  0  0  0  0  0  0  0
  -25.4006   -1.8674  138.2479 C   0  0  0  0  0  0  0  0  0  0  0  0
  -20.8632   -3.6531  140.1879 C   0  0  0  0  0  0  0  0  0  0  0  0
  2  1  1  0
  3  2  2  0
  4  2  1  0
  5  4  1  0
  6  4  1  0
  8  7  1  0
  9  6  1  0
  9  7  1  0
 10  1  1  0
 10  7  1  0
 10  8  1  0
 11  5  1  0
M  END
$$$$

     RDKit          3D

 11 13  0  0  0  0  0  0  0  0999 V2000
  -28.0783  -22.6024  130.1130 N   0  0  0  0  0  0  0  0  0  0  0  0
  -27.9023  -21.2610  130.6633 C   0  0  0  0  0  0  0  0  0  0  0  0
  -27.1050  -21.3015  131.8187 O   0  0  0  0  0  0  0  0  0  0  0  0
  -27.4932  -20.2207  129.6015 C   0  0  0  0  0  0  0  0  0  0  0  0
  -27.0701  -21.7006  129.5357 C   0  0  0  0  0  0  0  0  0  0  0  0
  -27.1480  -18.9498  130.4266 C   0  0  0  0  0  0  0  0  0  0  0  0
  -26.0899  -19.5314  129.5697 C   0  0  0  0  0  0  0  0  0  0  0  0
  -23.6993  -20.6748  129.2678 Al  0  0  0  0  0  5  0  0  0  0  0  0
  -22.4402  -19.3538  129.0821 O   0  0  0  0  0  0  0  0  0  0  0  0
  -25.0631  -20.0756  130.3678 O   0  0  0  0  0  0  0  0  0  0  0  0
  -22.9252  -22.1597  130.0157 O   0  0  0  0  0  0  0  0  0  0  0  0
  2  1  1  0
  3  2  1  0
  4  2  1  0
  5  1  1  0
  5  2  1  0
  5  4  1  0
  6  4  1  0
  7  4  1  0
  7  6  1  0
  9  8  1  0
 10  7  1  0
 10  8  1  0
 11  8  1  0
M  END
$$$$

     RDKit          3D

 11 13  0  0  0  0  0  0  0  0999 V2000
  -27.2367  -22.8348  146.0696 O   0  0  0  0  0  0  0  0  0  0  0  0
  -25.8613  -23.0454  146.2488 C   0  0  0  0  0  0  0  0  0  0  0  0
  -25.1619  -23.0254  144.8934 C   0  0  0  0  0  0  0  0  0  0  0  0
  -24.6455  -21.6088  144.6827 C   0  0  0  0  0  0  0  0  0  0  0  0
  -25.2188  -21.8618  146.9889 C   0  0  0  0  0  0  0  0  0  0  0  0
  -23.8500  -22.2132  147.4337 N   0  0  0  0  0  0  0  0  0  0  0  0
  -23.6578  -22.7511  144.9371 C   0  0  0  0  0  0  0  0  0  0  0  0
  -23.8514  -22.9883  148.6923 C   0  0  0  0  0  0  0  0  0  0  0  0
  -23.0383  -22.8582  146.3574 C   0  0  0  0  0  0  0  0  0  0  0  0
  -25.0729  -20.8057  145.9027 C   0  0  0  0  0  0  0  0  0  0  0  0
  -22.4928  -22.8973  149.3829 C   0  0  0  0  0  0  0  0  0  0  0  0
  2  1  1  0
  3  2  1  0
  4  3  1  0
  5  2  1  0
  6  5  1  0
  7  3  1  0
  7  4  1  0
  8  6  1  0
  9  6  1  0
  9  7  1  0
 10  4  1  0
 10  5  1  0
 11  8  1  0
M  END
$$$$

     RDKit          3D

  6  6  0  0  0  0  0  0  0  0999 V2000
  -24.7795  -15.0794  139.8791 O   0  0  0  0  0  0  0  0  0  0  0  0
  -24.8256  -13.8993  140.5293 C   0  0  0  0  0  0  0  0  0  0  0  0
  -24.7198  -12.8309  139.6281 O   0  0  0  0  0  0  0  0  0  0  0  0
  -23.5429  -15.2834  140.6025 C   0  0  0  0  0  0  0  0  0  0  0  0
  -22.5956  -16.3450  140.6387 N   0  0  0  0  0  0  0  0  0  0  0  0
  -23.6275  -14.0978  141.2181 N   0  0  0  0  0  0  0  0  0  0  0  0
  2  1  1  0
  3  2  1  0
  4  1  1  0
  5  4  1  0
  6  2  1  0
  6  4  2  0
M  END
$$$$

     RDKit          3D

 10 10  0  0  0  0  0  0  0  0999 V2000
  -22.7662   -3.5628  143.1256 N   0  0  0  0  0  0  0  0  0  0  0  0
  -22.5598   -3.7302  144.5800 C   0  0  0  0  0  0  0  0  0  0  0  0
  -23.4823   -2.9907  145.3291 O   0  0  0  0  0  0  0  0  0  0  0  0
  -20.2905   -3.5891  143.4494 C   0  0  0  0  0  0  0  0  0  0  0  0
  -19.2732   -3.5168  144.6147 C   0  0  0  0  0  0  0  0  0  0  0  0
  -21.6243   -2.9175  143.8059 C   0  0  0  0  0  0  0  0  0  0  0  0
  -18.0812   -4.4566  144.3400 C   0  0  0  0  0  0  0  0  0  0  0  0
  -18.7905   -2.0640  144.8348 C   0  0  0  0  0  0  0  0  0  0  0  0
  -17.9961   -1.9538  146.0577 N   0  0  0  0  0  0  0  0  0  0  0  0
  -18.5194   -5.7859  144.2651 O   0  0  0  0  0  0  0  0  0  0  0  0
  2  1  1  0
  3  2  1  0
  5  4  1  0
  6  1  1  0
  6  2  1  0
  6  4  1  0
  7  5  1  0
  8  5  1  0
  9  8  1  0
 10  7  1  0
M  END
$$$$

     RDKit          3D

 10  9  0  0  0  0  0  0  0  0999 V2000
  -22.4619  -18.7482  136.9257 O   0  0  0  0  0  0  0  0  0  0  0  0
  -21.6019  -20.6109  138.2332 C   0  0  0  0  0  0  0  0  0  0  0  0
  -22.9426  -20.7232  138.9800 C   0  0  0  0  0  0  0  0  0  0  0  0
  -20.4947  -19.9560  139.0966 C   0  0  0  0  0  0  0  0  0  0  0  0
  -21.7596  -19.9585  136.8441 C   0  0  0  0  0  0  0  0  0  0  0  0
  -20.7527  -18.4845  139.4753 C   0  0  0  0  0  0  0  0  0  0  0  0
  -23.8207  -21.5160  138.2623 F   0  0  0  0  0  0  0  0  0  0  0  0
  -19.6328  -17.8997  140.3518 C   0  0  0  0  0  0  0  0  0  0  0  0
  -19.6911  -18.4035  141.8018 C   0  0  0  0  0  0  0  0  0  0  0  0
  -18.6452  -17.7065  142.6674 C   0  0  0  0  0  0  0  0  0  0  0  0
  3  2  1  0
  4  2  1  0
  5  1  1  0
  5  2  1  0
  6  4  1  0
  7  3  1  0
  8  6  1  0
  9  8  1  0
 10  9  1  0
M  END
$$$$

     RDKit          3D

 15 17  0  0  0  0  0  0  0  0999 V2000
  -18.8893   -5.7743  138.1991 C   0  0  0  0  0  0  0  0  0  0  0  0
  -18.9674   -6.6741  139.2688 O   0  0  0  0  0  0  0  0  0  0  0  0
  -19.6483   -6.2706  137.0450 N   0  0  0  0  0  0  0  0  0  0  0  0
  -19.2625   -4.3697  138.6074 C   0  0  0  0  0  0  0  0  0  0  0  0
  -18.6498   -3.2705  137.7272 C   0  0  0  0  0  0  0  0  0  0  0  0
  -19.1640   -1.8665  138.1072 C   0  0  0  0  0  0  0  0  0  0  0  0
  -20.7142   -1.7237  138.0902 C   0  0  0  0  0  0  0  0  0  0  0  0
  -21.3199   -1.9246  136.6643 C   0  0  0  0  0  0  0  0  0  0  0  0
  -21.3327   -0.7126  135.7269 C   0  0  0  0  0  0  0  0  0  0  0  0
  -22.8617   -0.7328  135.7314 C   0  0  0  0  0  0  0  0  0  0  0  0
  -23.4832   -0.9747  134.3540 C   0  0  0  0  0  0  0  0  0  0  0  0
  -18.5841   -0.9266  137.2345 O   0  0  0  0  0  0  0  0  0  0  0  0
  -21.1254   -0.4068  138.7851 C   0  0  0  0  0  0  0  0  0  0  0  0
  -20.2643   -5.2486  137.9011 C   0  0  0  0  0  0  0  0  0  0  0  0
  -22.8491   -1.9715  136.6257 C   0  0  0  0  0  0  0  0  0  0  0  0
  2  1  1  0
  3  1  1  0
  4  1  1  0
  5  4  1  0
  6  5  1  0
  7  6  1  0
  8  7  1  0
  9  8  1  0
 10  9  1  0
 11 10  1  0
 12  6  1  0
 13  7  1  0
 14  1  1  0
 14  3  1  0
 14  4  1  0
 15  8  1  0
 15 10  1  0
M  END
$$$$

     RDKit          3D

 10  9  0  0  0  0  0  0  0  0999 V2000
  -21.6744   -3.6069  139.1350 N   0  0  0  0  0  0  0  0  0  0  0  0
  -19.6568   -3.7029  137.6871 C   0  0  0  0  0  0  0  0  0  0  0  0
  -20.0744   -4.0871  136.3233 N   0  0  0  0  0  0  0  0  0  0  0  0
  -20.7049   -2.8069  138.3701 C   0  0  0  0  0  0  0  0  0  0  0  0
  -19.9791   -6.5701  136.7071 C   0  0  0  0  0  0  0  0  0  0  0  0
  -22.0949   -5.2841  136.9120 N   0  0  0  0  0  0  0  0  0  0  0  0
  -22.8609   -6.4303  136.6073 N   0  0  0  0  0  0  0  0  0  0  0  0
  -20.8078   -5.3672  136.2126 C   0  0  0  0  0  0  0  0  0  0  0  0
  -23.7734   -6.6652  137.7211 C   0  0  0  0  0  0  0  0  0  0  0  0
  -21.2054   -3.8591  140.5004 C   0  0  0  0  0  0  0  0  0  0  0  0
  3  2  1  0
  4  1  1  0
  4  2  1  0
  7  6  1  0
  8  3  1  0
  8  5  1  0
  8  6  1  0
  9  7  1  0
 10  1  1  0
M  END
$$$$

     RDKit          3D

 15 15  0  0  0  0  0  0  0  0999 V2000
  -22.5855   -5.3183  131.1858 C   0  0  0  0  0  0  0  0  0  0  0  0
  -22.5688   -5.7264  129.6917 C   0  0  0  0  0  0  0  0  0  0  0  0
  -21.2540   -6.3487  129.2169 C   0  0  0  0  0  0  0  0  0  0  0  0
  -23.2434   -4.8056  128.6622 C   0  0  0  0  0  0  0  0  0  0  0  0
  -23.7646   -5.8939  131.9857 C   0  0  0  0  0  0  0  0  0  0  0  0
  -25.1354   -5.4911  131.4232 C   0  0  0  0  0  0  0  0  0  0  0  0
  -22.5027   -7.2102  129.3445 C   0  0  0  0  0  0  0  0  0  0  0  0
  -26.2510   -5.6853  132.4645 C   0  0  0  0  0  0  0  0  0  0  0  0
  -27.6518   -5.7449  131.8114 C   0  0  0  0  0  0  0  0  0  0  0  0
  -28.3153   -7.1275  131.9421 C   0  0  0  0  0  0  0  0  0  0  0  0
  -27.5844   -8.2442  131.1782 C   0  0  0  0  0  0  0  0  0  0  0  0
  -27.2711   -9.4087  128.9108 C   0  0  0  0  0  0  0  0  0  0  0  0
  -27.7799   -9.4287  127.4630 C   0  0  0  0  0  0  0  0  0  0  0  0
  -27.8330   -8.1792  129.6596 C   0  0  0  0  0  0  0  0  0  0  0  0
  -25.7336   -9.4329  128.9220 C   0  0  0  0  0  0  0  0  0  0  0  0
  2  1  1  0
  3  2  1  0
  4  2  1  0
  5  1  1  0
  6  5  1  0
  7  2  1  0
  7  3  1  0
  8  6  1  0
  9  8  1  0
 10  9  1  0
 11 10  1  0
 13 12  1  0
 14 11  1  0
 14 12  1  0
 15 12  1  0
M  END
$$$$

     RDKit          3D

 15 18  0  0  0  0  0  0  0  0999 V2000
  -26.1559   -7.1156  136.2779 N   0  0  0  0  0  0  0  0  0  0  0  0
  -25.3696   -6.9454  137.5114 C   0  0  0  0  0  0  0  0  0  0  0  0
  -26.9517   -6.1324  139.2320 N   0  0  0  0  0  0  0  0  0  0  0  0
  -25.0234   -8.0479  136.6170 C   0  0  0  0  0  0  0  0  0  0  0  0
  -25.2862   -7.8407  139.9012 C   0  0  0  0  0  0  0  0  0  0  0  0
  -24.1703   -6.8683  140.3433 C   0  0  0  0  0  0  0  0  0  0  0  0
  -22.9701   -7.5776  140.9594 C   0  0  0  0  0  0  0  0  0  0  0  0
  -26.1864   -7.2941  138.7734 C   0  0  0  0  0  0  0  0  0  0  0  0
  -24.4691   -5.6681  141.3314 B   0  0  0  0  0  0  0  0  0  0  0  0
  -23.3243   -5.5777  142.4113 C   0  0  0  0  0  0  0  0  0  0  0  0
  -26.0591   -8.7200  134.3663 C   0  0  0  0  0  0  0  0  0  0  0  0
  -24.3978   -6.6857  134.5386 C   0  0  0  0  0  0  0  0  0  0  0  0
  -25.3087   -7.7038  135.2279 C   0  0  0  0  0  0  0  0  0  0  0  0
  -22.4301   -6.7927  142.1614 C   0  0  0  0  0  0  0  0  0  0  0  0
  -22.8323   -6.8947  139.6069 C   0  0  0  0  0  0  0  0  0  0  0  0
  2  1  1  0
  4  1  1  0
  4  2  1  0
  6  5  1  0
  7  6  1  0
  8  2  1  0
  8  3  1  0
  8  5  1  0
  9  6  1  0
 10  9  1  0
 13  1  1  0
 13  4  1  0
 13 11  1  0
 13 12  1  0
 14  7  1  0
 14 10  1  0
 15  6  1  0
 15  7  1  0
M  END
$$$$

     RDKit          3D

 15 17  0  0  0  0  0  0  0  0999 V2000
  -20.6264    2.7479  141.5418 C   0  0  0  0  0  0  0  0  0  0  0  0
  -21.8944    1.5294  139.5825 C   0  0  0  0  0  0  0  0  0  0  0  0
  -21.9427    2.1506  140.9987 C   0  0  0  0  0  0  0  0  0  0  0  0
  -21.6814    2.8989  138.8794 C   0  0  0  0  0  0  0  0  0  0  0  0
  -23.2861    1.6754  139.4745 O   0  0  0  0  0  0  0  0  0  0  0  0
  -22.0906    2.8981  137.3787 C   0  0  0  0  0  0  0  0  0  0  0  0
  -22.7782    2.8865  139.9461 C   0  0  0  0  0  0  0  0  0  0  0  0
  -23.3100    3.7970  137.0639 C   0  0  0  0  0  0  0  0  0  0  0  0
  -23.7815    3.8206  135.5851 C   0  0  0  0  0  0  0  0  0  0  0  0
  -22.9808    3.1222  134.4897 C   0  0  0  0  0  0  0  0  0  0  0  0
  -24.2455    2.4747  135.0352 C   0  0  0  0  0  0  0  0  0  0  0  0
  -23.7237    3.9160  140.1561 O   0  0  0  0  0  0  0  0  0  0  0  0
  -23.2241    4.8489  141.0827 C   0  0  0  0  0  0  0  0  0  0  0  0
  -24.1017    5.9143  141.1566 F   0  0  0  0  0  0  0  0  0  0  0  0
  -23.0081    5.1130  137.4507 O   0  0  0  0  0  0  0  0  0  0  0  0
  3  1  1  0
  3  2  1  0
  4  2  1  0
  5  2  1  0
  6  4  1  0
  7  3  1  0
  7  4  1  0
  7  5  1  0
  8  6  1  0
  9  8  1  0
 10  9  1  0
 11  9  1  0
 11 10  1  0
 12  7  1  0
 13 12  1  0
 14 13  1  0
 15  8  1  0
M  END
$$$$

     RDKit          3D

 15 15  0  0  0  0  0  0  0  0999 V2000
  -25.0150  -15.2022  137.6637 O   0  0  0  0  0  0  0  0  0  0  0  0
  -24.8164  -15.4698  136.2963 C   0  0  0  0  0  0  0  0  0  0  0  0
  -23.4830  -15.2618  135.9344 O   0  0  0  0  0  0  0  0  0  0  0  0
  -25.5184  -14.2468  136.7542 C   0  0  0  0  0  0  0  0  0  0  0  0
  -27.0551  -14.2714  136.6703 C   0  0  0  0  0  0  0  0  0  0  0  0
  -27.6967  -13.1093  137.4885 C   0  0  0  0  0  0  0  0  0  0  0  0
  -27.4524  -13.2012  139.0224 C   0  0  0  0  0  0  0  0  0  0  0  0
  -26.1151  -12.6389  139.5589 C   0  0  0  0  0  0  0  0  0  0  0  0
  -27.4655  -14.1737  135.1910 C   0  0  0  0  0  0  0  0  0  0  0  0
  -29.0856  -13.0729  137.2596 O   0  0  0  0  0  0  0  0  0  0  0  0
  -25.8202  -11.1474  139.2330 C   0  0  0  0  0  0  0  0  0  0  0  0
  -24.4128  -10.6810  139.7269 C   0  0  0  0  0  0  0  0  0  0  0  0
  -24.1855  -10.8748  141.2356 C   0  0  0  0  0  0  0  0  0  0  0  0
  -26.9293  -10.2234  139.7663 C   0  0  0  0  0  0  0  0  0  0  0  0
  -23.2745  -11.3412  138.9313 C   0  0  0  0  0  0  0  0  0  0  0  0
  2  1  1  0
  3  2  1  0
  4  1  1  0
  4  2  1  0
  5  4  1  0
  6  5  1  0
  7  6  1  0
  8  7  1  0
  9  5  1  0
 10  6  1  0
 11  8  1  0
 12 11  1  0
 13 12  1  0
 14 11  1  0
 15 12  1  0
M  END
$$$$

     RDKit          3D

 15 17  0  0  0  0  0  0  0  0999 V2000
  -28.4348  -19.1163  151.4413 O   0  0  0  0  0  0  0  0  0  0  0  0
  -29.6396  -18.9810  150.7249 C   0  0  0  0  0  0  0  0  0  0  0  0
  -30.4239  -17.9676  151.2793 O   0  0  0  0  0  0  0  0  0  0  0  0
  -28.3497  -18.5236  150.1666 C   0  0  0  0  0  0  0  0  0  0  0  0
  -27.7034  -19.4766  149.1547 C   0  0  0  0  0  0  0  0  0  0  0  0
  -26.2541  -19.2145  148.7318 C   0  0  0  0  0  0  0  0  0  0  0  0
  -25.5328  -18.0810  149.4180 C   0  0  0  0  0  0  0  0  0  0  0  0
  -25.3196  -18.1543  150.6191 O   0  0  0  0  0  0  0  0  0  0  0  0
  -24.9733  -16.9230  148.6292 C   0  0  0  0  0  0  0  0  0  0  0  0
  -25.7099  -15.6088  148.9221 C   0  0  0  0  0  0  0  0  0  0  0  0
  -25.3564  -15.0508  150.3079 C   0  0  0  0  0  0  0  0  0  0  0  0
  -25.4979  -13.5411  150.4274 C   0  0  0  0  0  0  0  0  0  0  0  0
  -25.8391  -13.1109  151.7132 O   0  0  0  0  0  0  0  0  0  0  0  0
  -27.4071  -18.8177  147.8151 C   0  0  0  0  0  0  0  0  0  0  0  0
  -24.1141  -14.1699  150.3717 C   0  0  0  0  0  0  0  0  0  0  0  0
  2  1  1  0
  3  2  1  0
  4  1  1  0
  4  2  1  0
  5  4  1  0
  6  5  1  0
  7  6  1  0
  8  7  2  0
  9  7  1  0
 10  9  1  0
 11 10  1  0
 12 11  1  0
 13 12  1  0
 14  5  1  0
 14  6  1  0
 15 11  1  0
 15 12  1  0
M  END
$$$$

     RDKit          3D

 15 15  0  0  0  0  0  0  0  0999 V2000
  -27.0128  -13.4431  140.4951 F   0  0  0  0  0  0  0  0  0  0  0  0
  -24.8140  -14.3391  140.8041 C   0  0  0  0  0  0  0  0  0  0  0  0
  -23.4246  -14.4282  140.1205 C   0  0  0  0  0  0  0  0  0  0  0  0
  -23.3396  -15.4568  138.9743 C   0  0  0  0  0  0  0  0  0  0  0  0
  -25.2266  -15.6353  141.5454 C   0  0  0  0  0  0  0  0  0  0  0  0
  -21.9264  -15.5413  138.3741 C   0  0  0  0  0  0  0  0  0  0  0  0
  -24.2294  -16.0202  142.6555 C   0  0  0  0  0  0  0  0  0  0  0  0
  -20.9431  -16.2884  139.2786 C   0  0  0  0  0  0  0  0  0  0  0  0
  -25.9081  -13.9146  139.8092 C   0  0  0  0  0  0  0  0  0  0  0  0
  -24.8676  -16.9153  143.6488 N   0  0  0  0  0  0  0  0  0  0  0  0
  -23.9455  -17.9757  144.0992 C   0  0  0  0  0  0  0  0  0  0  0  0
  -24.4147  -15.5533  144.0451 C   0  0  0  0  0  0  0  0  0  0  0  0
  -23.8057  -19.0500  143.0177 C   0  0  0  0  0  0  0  0  0  0  0  0
  -25.6077  -14.6509  144.4093 C   0  0  0  0  0  0  0  0  0  0  0  0
  -25.3211  -13.8947  145.7036 C   0  0  0  0  0  0  0  0  0  0  0  0
  3  2  1  0
  4  3  1  0
  5  2  1  0
  6  4  1  0
  7  5  1  0
  8  6  1  0
  9  1  1  0
  9  2  1  0
 10  7  1  0
 11 10  1  0
 12  7  1  0
 12 10  1  0
 13 11  1  0
 14 12  1  0
 15 14  1  0
M  END
$$$$

     RDKit          3D

 11 12  0  0  0  0  0  0  0  0999 V2000
  -19.5458   -7.8450  140.5150 O   0  0  0  0  0  0  0  0  0  0  0  0
  -20.5507   -6.8704  140.5769 C   0  0  0  0  0  0  0  0  0  0  0  0
  -21.6727   -7.0983  141.5191 C   0  0  0  0  0  0  0  0  0  0  0  0
  -20.2460   -5.4481  140.0858 C   0  0  0  0  0  0  0  0  0  0  0  0
  -19.5870   -4.5833  141.1819 C   0  0  0  0  0  0  0  0  0  0  0  0
  -21.6269   -8.3907  142.3359 C   0  0  0  0  0  0  0  0  0  0  0  0
  -22.3352   -8.3227  143.6798 C   0  0  0  0  0  0  0  0  0  0  0  0
  -18.1959   -5.1092  141.5654 C   0  0  0  0  0  0  0  0  0  0  0  0
  -19.4855   -3.1266  140.7129 C   0  0  0  0  0  0  0  0  0  0  0  0
  -21.7933   -7.3684  140.1371 O   0  0  0  0  0  0  0  0  0  0  0  0
  -20.8183   -8.2746  143.6186 C   0  0  0  0  0  0  0  0  0  0  0  0
  2  1  1  0
  3  2  1  0
  4  2  1  0
  5  4  1  0
  6  3  1  0
  7  6  1  0
  8  5  1  0
  9  5  1  0
 10  2  1  0
 10  3  1  0
 11  6  1  0
 11  7  1  0
M  END
$$$$

     RDKit          3D

 15 20  0  0  0  0  0  0  0  0999 V2000
  -26.7676   -4.4950  135.8722 C   0  0  0  0  0  0  0  0  0  0  0  0
  -26.9266   -3.1752  136.6841 C   0  0  0  0  0  0  0  0  0  0  0  0
  -26.1309   -1.8216  136.8470 C   0  0  0  0  0  0  0  0  0  0  0  0
  -27.3829   -0.8767  137.0729 C   0  0  0  0  0  0  0  0  0  0  0  0
  -26.2712   -0.9650  138.0902 C   0  0  0  0  0  0  0  0  0  0  0  0
  -25.6045   -3.1267  137.4037 C   0  0  0  0  0  0  0  0  0  0  0  0
  -25.4272    0.2853  138.0876 C   0  0  0  0  0  0  0  0  0  0  0  0
  -26.9670   -3.2427  135.1321 C   0  0  0  0  0  0  0  0  0  0  0  0
  -25.5458    2.0144  136.4071 O   0  0  0  0  0  0  0  0  0  0  0  0
  -25.9345    1.7356  135.0799 C   0  0  0  0  0  0  0  0  0  0  0  0
  -26.1526    0.2456  134.8673 C   0  0  0  0  0  0  0  0  0  0  0  0
  -27.3695   -0.1967  135.7138 C   0  0  0  0  0  0  0  0  0  0  0  0
  -26.2923    1.3016  137.3920 C   0  0  0  0  0  0  0  0  0  0  0  0
  -26.8736   -1.4072  139.4407 C   0  0  0  0  0  0  0  0  0  0  0  0
  -27.5138    0.6214  136.9025 N   0  0  0  0  0  0  0  0  0  0  0  0
  2  1  1  0
  3  2  1  0
  4  3  1  0
  5  3  1  0
  5  4  1  0
  6  2  1  0
  6  3  1  0
  7  5  1  0
  8  1  1  0
  8  2  1  0
 10  9  1  0
 11 10  1  0
 12  4  1  0
 12 11  1  0
 13  7  1  0
 13  9  1  0
 14  5  1  0
 15  4  1  0
 15 12  1  0
 15 13  1  0
M  END
$$$$

     RDKit          3D

 15 15  0  0  0  0  0  0  0  0999 V2000
  -22.6346   -9.8779  129.8778 O   0  0  0  0  0  0  0  0  0  0  0  0
  -23.0761   -9.4614  130.9811 C   0  0  0  0  0  0  0  0  0  0  0  0
  -24.4277   -9.1542  131.1059 O   0  0  0  0  0  0  0  0  0  0  0  0
  -22.1401   -9.2594  132.1341 C   0  0  0  0  0  0  0  0  0  0  0  0
  -21.6980   -7.7894  132.2091 C   0  0  0  0  0  0  0  0  0  0  0  0
  -21.2456   -7.8100  134.7662 C   0  0  0  0  0  0  0  0  0  0  0  0
  -19.3443   -8.1453  133.1339 C   0  0  0  0  0  0  0  0  0  0  0  0
  -22.5860   -7.1160  135.0533 C   0  0  0  0  0  0  0  0  0  0  0  0
  -20.7060   -7.4721  133.3581 C   0  0  0  0  0  0  0  0  0  0  0  0
  -22.5873   -5.7225  135.5752 C   0  0  0  0  0  0  0  0  0  0  0  0
  -22.7300   -6.8335  136.4328 O   0  0  0  0  0  0  0  0  0  0  0  0
  -21.2777   -5.0655  135.6781 N   0  0  0  0  0  0  0  0  0  0  0  0
  -23.8512   -4.8681  135.3658 C   0  0  0  0  0  0  0  0  0  0  0  0
  -21.0818   -4.4906  137.0100 C   0  0  0  0  0  0  0  0  0  0  0  0
  -25.0195   -5.5810  135.6752 O   0  0  0  0  0  0  0  0  0  0  0  0
  2  1  2  0
  3  2  1  0
  4  2  1  0
  5  4  1  0
  8  6  1  0
  9  5  1  0
  9  6  1  0
  9  7  1  0
 10  8  1  0
 11  8  1  0
 11 10  1  0
 12 10  1  0
 13 10  1  0
 14 12  1  0
 15 13  1  0
M  END
$$$$

     RDKit          3D

 15 18  0  0  0  0  0  0  0  0999 V2000
  -19.8241   -9.0990  136.3694 O   0  0  0  0  0  0  0  0  0  0  0  0
  -20.6929   -8.2623  137.0916 C   0  0  0  0  0  0  0  0  0  0  0  0
  -22.0730   -8.8308  137.2528 C   0  0  0  0  0  0  0  0  0  0  0  0
  -23.0682   -7.7061  136.9612 C   0  0  0  0  0  0  0  0  0  0  0  0
  -24.2338   -8.2326  136.0944 C   0  0  0  0  0  0  0  0  0  0  0  0
  -20.8101   -6.8631  136.4829 C   0  0  0  0  0  0  0  0  0  0  0  0
  -25.3074   -8.9595  136.8938 C   0  0  0  0  0  0  0  0  0  0  0  0
  -25.6410   -7.6285  136.2170 C   0  0  0  0  0  0  0  0  0  0  0  0
  -25.8417   -6.3860  137.1114 C   0  0  0  0  0  0  0  0  0  0  0  0
  -26.2965   -6.7554  138.4598 N   0  0  0  0  0  0  0  0  0  0  0  0
  -27.1305   -4.5058  139.1696 C   0  0  0  0  0  0  0  0  0  0  0  0
  -22.2949   -6.5812  136.2600 C   0  0  0  0  0  0  0  0  0  0  0  0
  -27.0384   -3.4488  140.2663 C   0  0  0  0  0  0  0  0  0  0  0  0
  -26.1431   -5.6572  139.4262 C   0  0  0  0  0  0  0  0  0  0  0  0
  -21.1881   -9.3266  136.1267 C   0  0  0  0  0  0  0  0  0  0  0  0
  2  1  1  0
  3  2  1  0
  4  3  1  0
  5  4  1  0
  6  2  1  0
  7  5  1  0
  8  5  1  0
  8  7  1  0
  9  8  1  0
 10  9  1  0
 12  4  1  0
 12  6  1  0
 13 11  1  0
 14 10  1  0
 14 11  1  0
 15  1  1  0
 15  2  1  0
 15  3  1  0
M  END
$$$$

     RDKit          3D

 15 15  0  0  0  0  0  0  0  0999 V2000
  -21.2039   -0.0978  133.3299 O   0  0  0  0  0  0  0  0  0  0  0  0
  -21.3823   -1.4407  132.9083 C   0  0  0  0  0  0  0  0  0  0  0  0
  -20.7322   -1.6759  131.5629 C   0  0  0  0  0  0  0  0  0  0  0  0
  -20.5363   -0.6674  130.6910 C   0  0  0  0  0  0  0  0  0  0  0  0
  -21.8492    0.1242  134.5716 C   0  0  0  0  0  0  0  0  0  0  0  0
  -20.9768    1.0330  135.4610 C   0  0  0  0  0  0  0  0  0  0  0  0
  -20.6075    2.3727  134.7799 C   0  0  0  0  0  0  0  0  0  0  0  0
  -21.8463    3.2532  134.5205 C   0  0  0  0  0  0  0  0  0  0  0  0
  -21.4313   -3.6294  130.1470 C   0  0  0  0  0  0  0  0  0  0  0  0
  -21.0764   -5.0408  129.6993 C   0  0  0  0  0  0  0  0  0  0  0  0
  -21.5339    4.7388  134.3637 C   0  0  0  0  0  0  0  0  0  0  0  0
  -20.3968   -3.0926  131.1452 C   0  0  0  0  0  0  0  0  0  0  0  0
  -22.3252    4.2545  135.5756 C   0  0  0  0  0  0  0  0  0  0  0  0
  -19.6992    0.2892  135.8790 C   0  0  0  0  0  0  0  0  0  0  0  0
  -21.5906    4.3437  136.9179 C   0  0  0  0  0  0  0  0  0  0  0  0
  2  1  1  0
  3  2  1  0
  4  3  2  0
  5  1  1  0
  6  5  1  0
  7  6  1  0
  8  7  1  0
 10  9  1  0
 11  8  1  0
 12  3  1  0
 12  9  1  0
 13  8  1  0
 13 11  1  0
 14  6  1  0
 15 13  1  0
M  END
$$$$

     RDKit          3D

 15 18  0  0  0  0  0  0  0  0999 V2000
  -31.7943  -14.3518  145.8496 C   0  0  0  0  0  0  0  0  0  0  0  0
  -33.5276  -11.8732  145.1723 C   0  0  0  0  0  0  0  0  0  0  0  0
  -30.2893  -14.6950  145.8813 C   0  0  0  0  0  0  0  0  0  0  0  0
  -33.1555  -12.2204  143.0705 C   0  0  0  0  0  0  0  0  0  0  0  0
  -32.0804  -11.1338  143.1434 C   0  0  0  0  0  0  0  0  0  0  0  0
  -29.4310  -13.7956  143.7044 C   0  0  0  0  0  0  0  0  0  0  0  0
  -29.3983  -12.5767  142.7522 C   0  0  0  0  0  0  0  0  0  0  0  0
  -33.3723  -13.1207  144.2947 C   0  0  0  0  0  0  0  0  0  0  0  0
  -33.3594  -10.9773  143.9495 C   0  0  0  0  0  0  0  0  0  0  0  0
  -29.7627  -11.3175  143.2944 O   0  0  0  0  0  0  0  0  0  0  0  0
  -34.6540  -13.9611  144.1893 C   0  0  0  0  0  0  0  0  0  0  0  0
  -30.9273  -11.4555  143.9880 N   0  0  0  0  0  0  0  0  0  0  0  0
  -28.2042  -13.9732  144.5139 N   0  0  0  0  0  0  0  0  0  0  0  0
  -32.1640  -13.9459  144.4867 N   0  0  0  0  0  0  0  0  0  0  0  0
  -29.4766  -13.5885  145.1627 C   0  0  0  0  0  0  0  0  0  0  0  0
  3  1  1  0
  5  4  1  0
  7  6  1  0
  8  2  1  0
  8  4  1  0
  9  2  1  0
  9  4  1  0
  9  5  1  0
 10  7  1  0
 11  8  1  0
 12  5  1  0
 12 10  1  0
 13  6  1  0
 14  1  1  0
 14  8  1  0
 15  3  1  0
 15  6  1  0
 15 13  1  0
M  END
$$$$

     RDKit          3D

 15 16  0  0  0  0  0  0  0  0999 V2000
  -26.5124   -5.8109  141.2586 O   0  0  0  0  0  0  0  0  0  0  0  0
  -28.0265   -6.1962  139.4189 C   0  0  0  0  0  0  0  0  0  0  0  0
  -29.2194   -6.7947  140.2096 C   0  0  0  0  0  0  0  0  0  0  0  0
  -28.8808   -7.8889  141.2605 C   0  0  0  0  0  0  0  0  0  0  0  0
  -28.2998   -9.1761  140.6243 C   0  0  0  0  0  0  0  0  0  0  0  0
  -27.1577   -8.9601  139.6163 C   0  0  0  0  0  0  0  0  0  0  0  0
  -26.1185   -7.8993  140.0496 C   0  0  0  0  0  0  0  0  0  0  0  0
  -24.9534   -8.0510  139.2761 O   0  0  0  0  0  0  0  0  0  0  0  0
  -30.0784   -8.2493  142.2072 C   0  0  0  0  0  0  0  0  0  0  0  0
  -31.2680   -8.7348  141.4876 N   0  0  0  0  0  0  0  0  0  0  0  0
  -30.5005   -7.0782  143.1264 C   0  0  0  0  0  0  0  0  0  0  0  0
  -26.6080   -6.4117  139.9896 C   0  0  0  0  0  0  0  0  0  0  0  0
  -29.5061   -6.7195  144.2128 C   0  0  0  0  0  0  0  0  0  0  0  0
  -30.5903   -7.2207  145.1302 C   0  0  0  0  0  0  0  0  0  0  0  0
  -31.4593   -7.5089  144.0630 O   0  0  0  0  0  0  0  0  0  0  0  0
  3  2  1  0
  4  3  1  0
  5  4  1  0
  6  5  1  0
  7  6  1  0
  8  7  1  0
  9  4  1  0
 10  9  1  0
 11  9  1  0
 12  1  1  0
 12  2  1  0
 12  7  1  0
 13 11  1  0
 14 13  1  0
 15 11  1  0
 15 14  1  0
M  END
$$$$

     RDKit          3D

 14 18  0  0  0  0  0  0  0  0999 V2000
  -26.2486    3.5057  138.1402 C   0  0  0  0  0  0  0  0  0  0  0  0
  -24.4860    6.2615  137.7506 C   0  0  0  0  0  0  0  0  0  0  0  0
  -25.1905    4.4597  138.7173 C   0  0  0  0  0  0  0  0  0  0  0  0
  -25.1983    1.5088  136.8430 C   0  0  0  0  0  0  0  0  0  0  0  0
  -25.7499    2.0553  138.1884 C   0  0  0  0  0  0  0  0  0  0  0  0
  -23.4497    7.2276  138.3505 C   0  0  0  0  0  0  0  0  0  0  0  0
  -22.2967    7.4762  137.3819 C   0  0  0  0  0  0  0  0  0  0  0  0
  -24.3790    0.1812  136.7551 C   0  0  0  0  0  0  0  0  0  0  0  0
  -25.6267    5.9251  138.7111 C   0  0  0  0  0  0  0  0  0  0  0  0
  -23.2383    0.1236  137.7569 C   0  0  0  0  0  0  0  0  0  0  0  0
  -26.5864    1.1039  137.4197 C   0  0  0  0  0  0  0  0  0  0  0  0
  -23.7094    1.4483  137.2140 C   0  0  0  0  0  0  0  0  0  0  0  0
  -24.0520    4.7948  137.7521 C   0  0  0  0  0  0  0  0  0  0  0  0
  -24.3913   -0.8299  137.9110 C   0  0  0  0  0  0  0  0  0  0  0  0
  3  1  1  0
  5  1  1  0
  5  4  1  0
  6  2  1  0
  7  6  1  0
  8  4  1  0
  9  2  1  0
  9  3  1  0
 10  8  1  0
 11  4  1  0
 11  5  1  0
 12  4  1  0
 12  8  1  0
 12 10  1  0
 13  2  1  0
 13  3  1  0
 14  8  1  0
 14 10  1  0
M  END
$$$$

     RDKit          3D

 15 21  0  0  0  0  0  0  0  0999 V2000
  -19.4728   -5.8597  140.2310 C   0  0  0  0  0  0  0  0  0  0  0  0
  -19.5968   -7.2576  139.5388 C   0  0  0  0  0  0  0  0  0  0  0  0
  -20.3483   -5.9754  139.0361 C   0  0  0  0  0  0  0  0  0  0  0  0
  -19.9465   -5.3969  137.7059 N   0  0  0  0  0  0  0  0  0  0  0  0
  -19.1923   -7.8544  138.1832 C   0  0  0  0  0  0  0  0  0  0  0  0
  -18.1260   -7.6984  139.2252 C   0  0  0  0  0  0  0  0  0  0  0  0
  -17.1332   -6.6229  138.7889 C   0  0  0  0  0  0  0  0  0  0  0  0
  -17.5036   -6.0540  137.4337 C   0  0  0  0  0  0  0  0  0  0  0  0
  -18.5450   -4.9219  137.5818 C   0  0  0  0  0  0  0  0  0  0  0  0
  -15.6638   -7.0324  138.9501 C   0  0  0  0  0  0  0  0  0  0  0  0
  -17.7845   -7.5268  137.7586 C   0  0  0  0  0  0  0  0  0  0  0  0
  -20.8921   -4.3161  137.3362 C   0  0  0  0  0  0  0  0  0  0  0  0
  -22.2939   -4.3522  135.6813 C   0  0  0  0  0  0  0  0  0  0  0  0
  -20.8441   -3.9335  135.8501 C   0  0  0  0  0  0  0  0  0  0  0  0
  -22.3354   -4.7990  137.1319 C   0  0  0  0  0  0  0  0  0  0  0  0
  2  1  1  0
  3  1  1  0
  3  2  1  0
  4  3  1  0
  5  2  1  0
  6  2  1  0
  6  5  1  0
  7  6  1  0
  8  7  1  0
  9  4  1  0
  9  8  1  0
 10  7  1  0
 11  5  1  0
 11  6  1  0
 11  7  1  0
 11  8  1  0
 12  4  1  0
 14 12  1  0
 14 13  1  0
 15 12  1  0
 15 13  1  0
M  END
$$$$

     RDKit          3D

 15 16  0  0  0  0  0  0  0  0999 V2000
  -26.8027  -16.6752  148.1247 C   0  0  0  0  0  0  0  0  0  0  0  0
  -25.0710  -15.1803  147.7662 N   0  0  0  0  0  0  0  0  0  0  0  0
  -23.9968  -15.2895  146.7561 C   0  0  0  0  0  0  0  0  0  0  0  0
  -27.7235  -16.1678  149.2259 C   0  0  0  0  0  0  0  0  0  0  0  0
  -24.5113  -15.9434  145.5492 N   0  0  0  0  0  0  0  0  0  0  0  0
  -27.4525  -17.6617  149.0926 C   0  0  0  0  0  0  0  0  0  0  0  0
  -22.8217  -16.0044  147.2820 N   0  0  0  0  0  0  0  0  0  0  0  0
  -26.5587  -18.1643  150.1495 N   0  0  0  0  0  0  0  0  0  0  0  0
  -21.9860  -15.5188  148.3528 C   0  0  0  0  0  0  0  0  0  0  0  0
  -21.1335  -16.3754  148.9337 C   0  0  0  0  0  0  0  0  0  0  0  0
  -22.0411  -14.1331  148.7617 N   0  0  0  0  0  0  0  0  0  0  0  0
  -21.2521  -13.5786  149.8595 C   0  0  0  0  0  0  0  0  0  0  0  0
  -25.3901  -16.4142  148.3840 N   0  0  0  0  0  0  0  0  0  0  0  0
  -26.0215  -19.4899  149.7644 C   0  0  0  0  0  0  0  0  0  0  0  0
  -27.0890  -19.4085  150.7552 C   0  0  0  0  0  0  0  0  0  0  0  0
  3  2  1  0
  4  1  1  0
  5  3  1  0
  6  1  1  0
  6  4  1  0
  7  3  1  0
  8  6  1  0
  9  7  1  0
 10  9  2  0
 11  9  1  0
 12 11  1  0
 13  1  1  0
 13  2  1  0
 14  8  1  0
 15  8  1  0
 15 14  1  0
M  END
$$$$

     RDKit          3D

 14 15  0  0  0  0  0  0  0  0999 V2000
  -25.5471   -6.3898  136.9897 N   0  0  0  0  0  0  0  0  0  0  0  0
  -27.2700   -2.2697  136.2695 C   0  0  0  0  0  0  0  0  0  0  0  0
  -27.0411   -1.1689  135.3069 N   0  0  0  0  0  0  0  0  0  0  0  0
  -27.3408   -4.8065  136.5396 C   0  0  0  0  0  0  0  0  0  0  0  0
  -24.4854   -1.3474  135.2510 C   0  0  0  0  0  0  0  0  0  0  0  0
  -27.4528   -3.6248  135.5669 C   0  0  0  0  0  0  0  0  0  0  0  0
  -25.6419    0.4062  136.7333 C   0  0  0  0  0  0  0  0  0  0  0  0
  -25.5338    1.6606  135.8761 C   0  0  0  0  0  0  0  0  0  0  0  0
  -25.7483   -0.4625  135.4550 C   0  0  0  0  0  0  0  0  0  0  0  0
  -25.7063    0.8230  134.6083 C   0  0  0  0  0  0  0  0  0  0  0  0
  -24.3659   -1.9670  133.8541 C   0  0  0  0  0  0  0  0  0  0  0  0
  -26.9206    0.9711  137.3718 C   0  0  0  0  0  0  0  0  0  0  0  0
  -26.8052    2.2195  136.5091 C   0  0  0  0  0  0  0  0  0  0  0  0
  -25.9019   -5.1701  136.8077 C   0  0  0  0  0  0  0  0  0  0  0  0
  3  2  1  0
  6  2  1  0
  6  4  1  0
  8  7  1  0
  9  3  1  0
  9  5  1  0
  9  7  1  0
 10  8  1  0
 10  9  1  0
 11  5  1  0
 12  7  1  0
 13  8  1  0
 13 12  1  0
 14  1  2  0
 14  4  1  0
M  END
$$$$

     RDKit          3D

 11 12  0  0  0  0  0  0  0  0999 V2000
  -25.0917  -15.6400  141.9785 N   0  0  0  0  0  0  0  0  0  0  0  0
  -26.1689  -14.8967  141.3074 C   0  0  0  0  0  0  0  0  0  0  0  0
  -24.7076  -14.9801  143.2373 C   0  0  0  0  0  0  0  0  0  0  0  0
  -27.4320  -14.8566  142.0923 N   0  0  0  0  0  0  0  0  0  0  0  0
  -23.3605  -15.4655  143.7742 C   0  0  0  0  0  0  0  0  0  0  0  0
  -25.4044  -15.6082  144.4405 C   0  0  0  0  0  0  0  0  0  0  0  0
  -28.5005  -13.5203  141.7223 S   0  0  0  0  0  5  0  0  0  0  0  0
  -25.7722  -13.7017  140.4129 C   0  0  0  0  0  0  0  0  0  0  0  0
  -24.0590  -16.0658  144.9846 C   0  0  0  0  0  0  0  0  0  0  0  0
  -27.9165  -12.1434  142.3294 C   0  0  0  0  0  0  0  0  0  0  0  0
  -27.2972  -15.7362  140.9044 C   0  0  0  0  0  0  0  0  0  0  0  0
  2  1  1  0
  3  1  1  0
  4  2  1  0
  5  3  1  0
  6  3  1  0
  7  4  1  0
  8  2  1  0
  9  5  1  0
  9  6  1  0
 10  7  2  0
 11  2  1  0
 11  4  1  0
M  RAD  1   7   2
M  END
$$$$

     RDKit          3D

 15 17  0  0  0  0  0  0  0  0999 V2000
  -17.7279   -5.0282  138.8548 C   0  0  0  0  0  0  0  0  0  0  0  0
  -19.8927   -6.0226  140.3147 C   0  0  0  0  0  0  0  0  0  0  0  0
  -20.3738   -6.2003  141.8099 C   0  0  0  0  0  0  0  0  0  0  0  0
  -19.7370   -5.3352  142.9393 C   0  0  0  0  0  0  0  0  0  0  0  0
  -19.8929   -5.9473  144.3387 C   0  0  0  0  0  0  0  0  0  0  0  0
  -20.4835   -4.0849  143.4302 C   0  0  0  0  0  0  0  0  0  0  0  0
  -21.9188   -6.2805  141.8799 C   0  0  0  0  0  0  0  0  0  0  0  0
  -16.8377   -5.7462  139.8567 C   0  0  0  0  0  0  0  0  0  0  0  0
  -17.3944   -3.4706  141.1443 C   0  0  0  0  0  0  0  0  0  0  0  0
  -15.0144   -4.4230  141.0836 C   0  0  0  0  0  0  0  0  0  0  0  0
  -16.5080   -4.7817  141.0483 C   0  0  0  0  0  0  0  0  0  0  0  0
  -18.8060   -3.5119  140.4644 C   0  0  0  0  0  0  0  0  0  0  0  0
  -19.0253   -4.8337  139.7301 C   0  0  0  0  0  0  0  0  0  0  0  0
  -19.1056   -4.9482  138.2294 C   0  0  0  0  0  0  0  0  0  0  0  0
  -20.6346   -4.7034  144.8119 C   0  0  0  0  0  0  0  0  0  0  0  0
  3  2  1  0
  4  3  1  0
  5  4  1  0
  6  4  1  0
  7  3  1  0
  8  1  1  0
 11  8  1  0
 11  9  1  0
 11 10  1  0
 12  9  1  0
 13  1  1  0
 13  2  1  0
 13 12  1  0
 14  1  1  0
 14 13  1  0
 15  5  1  0
 15  6  1  0
M  END
$$$$

     RDKit          3D

 15 18  0  0  0  0  0  0  0  0999 V2000
  -20.8884  -20.1656  139.2844 C   0  0  0  0  0  0  0  0  0  0  0  0
  -21.3006  -18.7364  139.3471 C   0  0  0  0  0  0  0  0  0  0  0  0
  -20.1906  -19.2103  140.3200 C   0  0  0  0  0  0  0  0  0  0  0  0
  -20.2657  -20.6621  137.9347 C   0  0  0  0  0  0  0  0  0  0  0  0
  -21.0345  -20.1372  136.6835 C   0  0  0  0  0  0  0  0  0  0  0  0
  -21.3526  -21.2221  135.6331 C   0  0  0  0  0  0  0  0  0  0  0  0
  -20.1296  -21.7035  134.8263 C   0  0  0  0  0  0  0  0  0  0  0  0
  -20.4920  -22.7679  133.8198 C   0  0  0  0  0  0  0  0  0  0  0  0
  -18.6883  -19.1592  139.9192 C   0  0  0  0  0  0  0  0  0  0  0  0
  -19.3287  -17.9166  140.4097 C   0  0  0  0  0  0  0  0  0  0  0  0
  -18.7407  -20.4622  137.8341 C   0  0  0  0  0  0  0  0  0  0  0  0
  -19.5221  -20.6422  133.9359 C   0  0  0  0  0  0  0  0  0  0  0  0
  -19.0146  -21.3263  132.7454 N   0  0  0  0  0  0  0  0  0  0  0  0
  -19.5483  -22.6340  132.7131 N   0  0  0  0  0  0  0  0  0  0  0  0
  -18.3118  -19.1436  138.4362 C   0  0  0  0  0  0  0  0  0  0  0  0
  2  1  1  0
  3  1  1  0
  3  2  1  0
  4  1  1  0
  5  4  1  0
  6  5  1  0
  7  6  1  0
  8  7  1  0
  9  3  1  0
 10  3  1  0
 10  9  1  0
 11  4  1  0
 12  7  1  0
 13 12  1  0
 14  8  1  0
 14 13  1  0
 15  9  1  0
 15 11  1  0
M  END
$$$$

     RDKit          3D

 15 20  0  0  0  0  0  0  0  0999 V2000
  -23.9875   -2.7846  141.7336 C   0  0  0  0  0  0  0  0  0  0  0  0
  -23.6027   -1.3380  141.5539 C   0  0  0  0  0  0  0  0  0  0  0  0
  -23.1368   -3.7091  140.8333 C   0  0  0  0  0  0  0  0  0  0  0  0
  -25.4642   -3.0450  141.5693 C   0  0  0  0  0  0  0  0  0  0  0  0
  -24.8853   -1.8127  140.9035 C   0  0  0  0  0  0  0  0  0  0  0  0
  -23.2340   -5.1561  141.3342 C   0  0  0  0  0  0  0  0  0  0  0  0
  -22.3982   -5.4960  142.4867 C   0  0  0  0  0  0  0  0  0  0  0  0
  -22.9507   -6.6878  143.3010 C   0  0  0  0  0  0  0  0  0  0  0  0
  -20.9849   -5.5932  142.0980 C   0  0  0  0  0  0  0  0  0  0  0  0
  -20.2917   -6.7388  142.5033 O   0  0  0  0  0  0  0  0  0  0  0  0
  -24.2217   -6.2615  144.0490 C   0  0  0  0  0  0  0  0  0  0  0  0
  -22.0092   -5.9404  141.1009 N   0  0  0  0  0  0  0  0  0  0  0  0
  -24.9908   -7.3763  144.7064 C   0  0  0  0  0  0  0  0  0  0  0  0
  -26.4445   -7.4381  144.3423 C   0  0  0  0  0  0  0  0  0  0  0  0
  -25.5192   -6.6992  143.4005 C   0  0  0  0  0  0  0  0  0  0  0  0
  2  1  1  0
  3  1  1  0
  4  1  1  0
  5  1  1  0
  5  2  1  0
  5  4  1  0
  6  3  1  0
  7  6  1  0
  8  7  1  0
  9  7  1  0
 10  9  1  0
 11  8  1  0
 12  6  1  0
 12  7  1  0
 12  9  1  0
 13 11  1  0
 14 13  1  0
 15 11  1  0
 15 13  1  0
 15 14  1  0
M  END
$$$$

     RDKit          3D

 15 18  0  0  0  0  0  0  0  0999 V2000
  -22.3303    1.2906  141.8323 O   0  0  0  0  0  0  0  0  0  0  0  0
  -22.2623   -0.0384  142.2961 C   0  0  0  0  0  0  0  0  0  0  0  0
  -22.2600   -1.1308  141.2383 C   0  0  0  0  0  0  0  0  0  0  0  0
  -21.5188   -2.4355  141.5786 C   0  0  0  0  0  0  0  0  0  0  0  0
  -23.5498   -0.8481  141.9890 C   0  0  0  0  0  0  0  0  0  0  0  0
  -22.2598   -3.7035  141.1074 C   0  0  0  0  0  0  0  0  0  0  0  0
  -23.6589   -1.1870  143.4861 C   0  0  0  0  0  0  0  0  0  0  0  0
  -22.4783   -3.9334  139.5868 C   0  0  0  0  0  0  0  0  0  0  0  0
  -23.6210   -3.1431  138.9530 C   0  0  0  0  0  0  0  0  0  0  0  0
  -23.2764    0.5891  144.6642 C   0  0  0  0  0  0  0  0  0  0  0  0
  -21.4972   -3.3196  138.5852 C   0  0  0  0  0  0  0  0  0  0  0  0
  -22.6517   -2.5764  137.9223 C   0  0  0  0  0  0  0  0  0  0  0  0
  -25.6843    0.4423  143.7539 C   0  0  0  0  0  0  0  0  0  0  0  0
  -24.5013   -0.2854  144.4026 C   0  0  0  0  0  0  0  0  0  0  0  0
  -22.4314   -0.3462  143.7905 C   0  0  0  0  0  0  0  0  0  0  0  0
  2  1  1  0
  3  2  1  0
  4  3  1  0
  5  2  1  0
  5  3  1  0
  6  4  1  0
  7  5  1  0
  8  6  1  0
  9  8  1  0
 11  8  1  0
 12  9  1  0
 12 11  1  0
 14  7  1  0
 14 10  1  0
 14 13  1  0
 15  2  1  0
 15  7  1  0
 15 10  1  0
M  END
$$$$

     RDKit          3D

 15 14  0  0  0  0  0  0  0  0999 V2000
  -26.0680  -17.9735  147.4089 C   0  0  0  0  0  0  0  0  0  0  0  0
  -24.6880  -17.9352  147.1637 O   0  0  0  0  0  0  0  0  0  0  0  0
  -26.3735  -17.0853  148.4532 O   0  0  0  0  0  0  0  0  0  0  0  0
  -26.5961  -18.5230  144.9612 C   0  0  0  0  0  0  0  0  0  0  0  0
  -25.3917  -18.1182  144.0783 C   0  0  0  0  0  0  0  0  0  0  0  0
  -25.8003  -17.4897  142.7236 C   0  0  0  0  0  0  0  0  0  0  0  0
  -26.5003  -16.1255  142.9215 C   0  0  0  0  0  0  0  0  0  0  0  0
  -26.8350  -17.5589  146.1430 C   0  0  0  0  0  0  0  0  0  0  0  0
  -27.1591  -14.2147  141.3657 C   0  0  0  0  0  0  0  0  0  0  0  0
  -24.5551  -17.3315  141.8337 C   0  0  0  0  0  0  0  0  0  0  0  0
  -27.6567  -13.3273  142.1803 N   0  0  0  0  0  0  0  0  0  0  0  0
  -29.5559  -14.2860  143.4309 C   0  0  0  0  0  0  0  0  0  0  0  0
  -27.0619  -15.6139  141.6689 N   0  0  0  0  0  0  0  0  0  0  0  0
  -30.0849  -14.4451  144.7215 O   0  0  0  0  0  0  0  0  0  0  0  0
  -28.2279  -13.5310  143.5113 C   0  0  0  0  0  0  0  0  0  0  0  0
  2  1  1  0
  3  1  1  0
  5  4  1  0
  6  5  1  0
  7  6  1  0
  8  1  1  0
  8  4  1  0
 10  6  1  0
 11  9  2  3
 13  7  1  0
 13  9  1  0
 14 12  1  0
 15 11  1  0
 15 12  1  0
M  END
$$$$

     RDKit          3D

 15 17  0  0  0  0  0  0  0  0999 V2000
  -26.2347  -11.5605  145.4977 N   0  0  0  0  0  0  0  0  0  0  0  0
  -25.0097  -12.3967  145.4349 C   0  0  0  0  0  0  0  0  0  0  0  0
  -26.3694  -10.2151  144.9589 C   0  0  0  0  0  0  0  0  0  0  0  0
  -25.3310   -9.4080  144.6572 C   0  0  0  0  0  0  0  0  0  0  0  0
  -23.8261  -11.7881  146.2459 C   0  0  0  0  0  0  0  0  0  0  0  0
  -23.9380   -9.9004  144.8002 C   0  0  0  0  0  0  0  0  0  0  0  0
  -22.4975  -12.4723  145.8432 C   0  0  0  0  0  0  0  0  0  0  0  0
  -23.8679  -10.3127  146.2282 N   0  0  0  0  0  0  0  0  0  0  0  0
  -26.1411  -14.0759  147.0888 C   0  0  0  0  0  0  0  0  0  0  0  0
  -27.5500  -14.4335  146.6884 C   0  0  0  0  0  0  0  0  0  0  0  0
  -22.8698   -9.3945  145.6570 C   0  0  0  0  0  0  0  0  0  0  0  0
  -22.7359  -13.9590  145.4890 C   0  0  0  0  0  0  0  0  0  0  0  0
  -23.8867  -14.5128  146.2243 N   0  0  0  0  0  0  0  0  0  0  0  0
  -27.8444  -15.6114  146.1301 C   0  0  0  0  0  0  0  0  0  0  0  0
  -25.1921  -13.8923  145.8713 C   0  0  0  0  0  0  0  0  0  0  0  0
  2  1  1  0
  3  1  1  0
  4  3  2  0
  5  2  1  0
  6  4  1  0
  7  5  1  0
  8  5  1  0
  8  6  1  0
 10  9  1  0
 11  6  1  0
 11  8  1  0
 12  7  1  0
 13 12  1  0
 14 10  2  0
 15  2  1  0
 15  9  1  0
 15 13  1  0
M  END
$$$$

     RDKit          3D

 15 19  0  0  0  0  0  0  0  0999 V2000
  -29.0268  -26.0583  135.2668 O   0  0  0  0  0  0  0  0  0  0  0  0
  -30.1272  -25.5624  135.9756 C   0  0  0  0  0  0  0  0  0  0  0  0
  -29.9457  -24.3723  136.9339 C   0  0  0  0  0  0  0  0  0  0  0  0
  -31.4412  -25.7835  135.3332 C   0  0  0  0  0  0  0  0  0  0  0  0
  -29.7758  -24.7851  138.4046 C   0  0  0  0  0  0  0  0  0  0  0  0
  -28.4724  -25.6055  138.6375 C   0  0  0  0  0  0  0  0  0  0  0  0
  -31.0017  -26.5729  136.4183 O   0  0  0  0  0  0  0  0  0  0  0  0
  -28.1976  -26.4165  139.9574 C   0  0  0  0  0  0  0  0  0  0  0  0
  -28.7540  -25.4922  141.0498 C   0  0  0  0  0  0  0  0  0  0  0  0
  -27.1759  -24.7963  138.5491 C   0  0  0  0  0  0  0  0  0  0  0  0
  -28.7487  -27.0956  138.7202 C   0  0  0  0  0  0  0  0  0  0  0  0
  -26.1285  -25.2836  139.5233 C   0  0  0  0  0  0  0  0  0  0  0  0
  -26.6766  -26.5640  140.0993 C   0  0  0  0  0  0  0  0  0  0  0  0
  -27.9324  -24.1562  141.0408 C   0  0  0  0  0  0  0  0  0  0  0  0
  -26.9121  -24.0052  139.8507 C   0  0  0  0  0  0  0  0  0  0  0  0
  2  1  1  0
  3  2  1  0
  4  2  1  0
  5  3  1  0
  6  5  1  0
  7  2  1  0
  7  4  1  0
  8  6  1  0
  9  8  1  0
 10  6  1  0
 11  6  1  0
 11  8  1  0
 12 10  1  0
 13  8  1  0
 13 12  1  0
 14  9  1  0
 15 10  1  0
 15 12  1  0
 15 14  1  0
M  END
$$$$

     RDKit          3D

 14 15  0  0  0  0  0  0  0  0999 V2000
  -26.9927   -7.7862  137.0120 O   0  0  0  0  0  0  0  0  0  0  0  0
  -27.5272   -7.5755  138.2810 C   0  0  0  0  0  0  0  0  0  0  0  0
  -28.7710   -8.1801  138.3551 O   0  0  0  0  0  0  0  0  0  0  0  0
  -27.6512   -6.0714  138.6967 C   0  0  0  0  0  0  0  0  0  0  0  0
  -27.9845   -6.0270  140.2369 C   0  0  0  0  0  0  0  0  0  0  0  0
  -28.4366   -5.4182  137.4711 C   0  0  0  0  0  0  0  0  0  0  0  0
  -29.3422   -6.1137  140.9862 C   0  0  0  0  0  0  0  0  0  0  0  0
  -29.6766   -6.2191  137.0322 C   0  0  0  0  0  0  0  0  0  0  0  0
  -29.8266   -7.6195  137.5503 C   0  0  0  0  0  0  0  0  0  0  0  0
  -30.6488   -5.2603  140.7673 C   0  0  0  0  0  0  0  0  0  0  0  0
  -30.4017   -6.5346  138.1566 O   0  0  0  0  0  0  0  0  0  0  0  0
  -30.7341   -3.8262  141.3858 C   0  0  0  0  0  0  0  0  0  0  0  0
  -31.1216   -3.8926  142.8221 C   0  0  0  0  0  0  0  0  0  0  0  0
  -31.7030   -2.9621  140.5389 C   0  0  0  0  0  0  0  0  0  0  0  0
  2  1  1  0
  3  2  1  0
  4  2  1  0
  5  4  1  0
  6  4  1  0
  7  5  1  0
  8  6  1  0
  9  3  1  0
  9  8  1  0
 10  7  1  0
 11  8  1  0
 11  9  1  0
 12 10  1  0
 13 12  1  0
 14 12  1  0
M  END
$$$$

     RDKit          3D

 14 14  0  0  0  0  0  0  0  0999 V2000
  -34.1920   -8.8957  138.1426 C   0  0  0  0  0  0  0  0  0  0  0  0
  -33.1389   -9.5645  137.2465 C   0  0  0  0  0  0  0  0  0  0  0  0
  -34.8485   -9.8813  139.1231 C   0  0  0  0  0  0  0  0  0  0  0  0
  -35.8693  -10.8042  138.4360 C   0  0  0  0  0  0  0  0  0  0  0  0
  -36.4559  -11.8634  139.3873 C   0  0  0  0  0  0  0  0  0  0  0  0
  -37.2774  -11.3021  140.5655 C   0  0  0  0  0  0  0  0  0  0  0  0
  -38.5299  -10.5113  140.1504 C   0  0  0  0  0  0  0  0  0  0  0  0
  -39.5191  -11.3640  139.3964 C   0  0  0  0  0  0  0  0  0  0  0  0
  -32.4257   -8.5342  136.3754 C   0  0  0  0  0  0  0  0  0  0  0  0
  -39.6565  -11.2367  138.0035 C   0  0  0  0  0  0  0  0  0  0  0  0
  -40.5594  -12.0466  137.3078 C   0  0  0  0  0  0  0  0  0  0  0  0
  -41.3296  -12.9886  137.9952 C   0  0  0  0  0  0  0  0  0  0  0  0
  -41.1981  -13.1224  139.3799 C   0  0  0  0  0  0  0  0  0  0  0  0
  -40.2961  -12.3149  140.0796 C   0  0  0  0  0  0  0  0  0  0  0  0
  2  1  1  0
  3  1  1  0
  4  3  1  0
  5  4  1  0
  6  5  1  0
  7  6  1  0
  8  7  1  0
  9  2  1  0
 10  8  4  0
 11 10  4  0
 12 11  4  0
 13 12  4  0
 14  8  4  0
 14 13  4  0
M  END
$$$$

     RDKit          3D

 15 15  0  0  0  0  0  0  0  0999 V2000
  -20.2798   -4.9215  140.3370 O   0  0  0  0  0  0  0  0  0  0  0  0
  -19.6143   -4.8622  141.5904 C   0  0  0  0  0  0  0  0  0  0  0  0
  -18.8898   -6.0477  141.8660 O   0  0  0  0  0  0  0  0  0  0  0  0
  -18.7144   -3.6132  141.7303 C   0  0  0  0  0  0  0  0  0  0  0  0
  -16.5594   -2.6414  141.1863 C   0  0  0  0  0  0  0  0  0  0  0  0
  -16.4250   -2.0472  142.4671 O   0  0  0  0  0  0  0  0  0  0  0  0
  -17.3388   -3.8800  141.2812 N   0  0  0  0  0  0  0  0  0  0  0  0
  -15.5538   -0.9877  142.4058 N   0  0  0  0  0  0  0  0  0  0  0  0
  -14.2802   -1.4021  142.9854 C   0  0  0  0  0  0  0  0  0  0  0  0
  -19.1228   -8.3525  142.5312 C   0  0  0  0  0  0  0  0  0  0  0  0
  -19.7895   -7.1017  142.1235 C   0  0  0  0  0  0  0  0  0  0  0  0
  -19.7413   -7.5029  143.4713 O   0  0  0  0  0  0  0  0  0  0  0  0
  -19.1964   -5.1749  139.0507 S   0  0  0  0  0  5  0  0  0  0  0  0
  -18.3736   -6.4425  139.2621 O   0  0  0  0  0  0  0  0  0  0  0  0
  -20.0887   -5.3441  137.6353 O   0  0  0  0  0  0  0  0  0  0  0  0
  2  1  1  0
  3  2  1  0
  4  2  1  0
  6  5  1  0
  7  4  1  0
  7  5  1  0
  8  6  1  0
  9  8  1  0
 11  3  1  0
 11 10  1  0
 12 10  1  0
 12 11  1  0
 13  1  1  0
 14 13  2  0
 15 13  1  0
M  RAD  1  13   2
M  END
$$$$

     RDKit          3D

  8  7  0  0  0  0  0  0  0  0999 V2000
  -29.3631  -12.5343  152.5105 P   0  0  0  0  0  0  0  0  0  0  0  0
  -28.0088  -10.9293  148.3585 O   0  0  0  0  0  0  0  0  0  0  0  0
  -25.8906  -12.4350  148.8439 O   0  0  0  0  0  0  0  0  0  0  0  0
  -29.8419  -10.2020  152.6931 O   0  0  0  0  0  0  0  0  0  0  0  0
  -26.6763  -13.4723  151.8813 O   0  0  0  0  0  0  0  0  0  0  0  0
  -28.7474  -10.9593  152.7873 O   0  0  0  0  0  0  0  0  0  0  0  0
  -27.9311  -12.8504  150.8006 P   0  0  0  0  0  0  0  0  0  0  0  0
  -26.7948  -11.1987  149.6452 P   0  0  0  0  0  0  0  0  0  0  0  0
  6  1  1  0
  6  4  1  0
  7  1  1  0
  7  5  1  0
  8  2  1  0
  8  3  1  0
  8  7  1  0
M  END
$$$$

     RDKit          3D

 15 17  0  0  0  0  0  0  0  0999 V2000
  -22.7935  -10.8686  136.6527 O   0  0  0  0  0  0  0  0  0  0  0  0
  -23.6661   -9.9576  137.2811 C   0  0  0  0  0  0  0  0  0  0  0  0
  -24.3931   -9.2290  136.3324 O   0  0  0  0  0  0  0  0  0  0  0  0
  -23.9448  -11.4176  137.2582 C   0  0  0  0  0  0  0  0  0  0  0  0
  -24.7202  -11.7490  139.6670 C   0  0  0  0  0  0  0  0  0  0  0  0
  -24.1997  -10.6747  140.6409 C   0  0  0  0  0  0  0  0  0  0  0  0
  -23.7041  -12.2122  138.5744 C   0  0  0  0  0  0  0  0  0  0  0  0
  -22.1965  -12.3402  139.0026 C   0  0  0  0  0  0  0  0  0  0  0  0
  -21.4581  -13.3630  138.0948 C   0  0  0  0  0  0  0  0  0  0  0  0
  -19.9705  -13.5919  138.4996 C   0  0  0  0  0  0  0  0  0  0  0  0
  -19.0230  -13.1043  137.3908 C   0  0  0  0  0  0  0  0  0  0  0  0
  -22.0369  -12.8166  140.4695 C   0  0  0  0  0  0  0  0  0  0  0  0
  -19.6283  -12.9005  139.7580 N   0  0  0  0  0  0  0  0  0  0  0  0
  -21.1894  -11.9714  141.4324 C   0  0  0  0  0  0  0  0  0  0  0  0
  -20.5993  -13.2227  140.8036 C   0  0  0  0  0  0  0  0  0  0  0  0
  2  1  1  0
  3  2  1  0
  4  1  1  0
  4  2  1  0
  6  5  1  0
  7  4  1  0
  7  5  1  0
  8  7  1  0
  9  8  1  0
 10  9  1  0
 11 10  1  0
 12  8  1  0
 13 10  1  0
 14 12  1  0
 15 12  1  0
 15 13  1  0
 15 14  1  0
M  END
$$$$

     RDKit          3D

 15 20  0  0  0  0  0  0  0  0999 V2000
  -25.5510  -19.0340  147.0169 N   0  0  0  0  0  0  0  0  0  0  0  0
  -24.3155  -18.3153  147.3887 C   0  0  0  0  0  0  0  0  0  0  0  0
  -26.7865  -18.6724  147.7305 C   0  0  0  0  0  0  0  0  0  0  0  0
  -27.2508  -17.2729  147.3926 C   0  0  0  0  0  0  0  0  0  0  0  0
  -24.3339  -16.8093  146.8968 C   0  0  0  0  0  0  0  0  0  0  0  0
  -22.9052  -16.1767  146.6398 C   0  0  0  0  0  0  0  0  0  0  0  0
  -25.0872  -15.8819  147.8878 C   0  0  0  0  0  0  0  0  0  0  0  0
  -26.5463  -16.2218  148.2194 C   0  0  0  0  0  0  0  0  0  0  0  0
  -26.7082  -17.6049  148.8023 C   0  0  0  0  0  0  0  0  0  0  0  0
  -21.9130  -18.3636  147.1957 C   0  0  0  0  0  0  0  0  0  0  0  0
  -21.7827  -17.1717  146.2485 C   0  0  0  0  0  0  0  0  0  0  0  0
  -23.1670  -19.0092  146.6584 C   0  0  0  0  0  0  0  0  0  0  0  0
  -22.0460  -19.9104  147.1951 C   0  0  0  0  0  0  0  0  0  0  0  0
  -21.9568  -21.0257  146.1105 C   0  0  0  0  0  0  0  0  0  0  0  0
  -20.7570  -20.2221  146.3872 C   0  0  0  0  0  0  0  0  0  0  0  0
  2  1  1  0
  3  1  1  0
  4  3  1  0
  5  2  1  0
  6  5  1  0
  7  5  1  0
  8  4  1  0
  8  7  1  0
  9  3  1  0
  9  4  1  0
  9  8  1  0
 11  6  1  0
 11 10  1  0
 12  2  1  0
 12 10  1  0
 13 10  1  0
 13 12  1  0
 14 13  1  0
 15 13  1  0
 15 14  1  0
M  END
$$$$

     RDKit          3D

 15 19  0  0  0  0  0  0  0  0999 V2000
  -35.3773   -3.7419  137.9748 O   0  0  0  0  0  0  0  0  0  0  0  0
  -35.4686   -3.1485  139.2298 C   0  0  0  0  0  0  0  0  0  0  0  0
  -34.5027   -2.1269  139.1483 O   0  0  0  0  0  0  0  0  0  0  0  0
  -35.3394   -5.5038  140.5144 C   0  0  0  0  0  0  0  0  0  0  0  0
  -34.6546   -4.2601  139.8994 C   0  0  0  0  0  0  0  0  0  0  0  0
  -33.4268   -3.0317  139.0332 C   0  0  0  0  0  0  0  0  0  0  0  0
  -33.3823   -3.6398  140.4131 C   0  0  0  0  0  0  0  0  0  0  0  0
  -36.3509   -6.3091  139.6801 C   0  0  0  0  0  0  0  0  0  0  0  0
  -36.1040   -8.5962  140.6338 O   0  0  0  0  0  0  0  0  0  0  0  0
  -34.1866   -4.2521  138.4843 C   0  0  0  0  0  0  0  0  0  0  0  0
  -35.5718   -5.4443  142.0291 C   0  0  0  0  0  0  0  0  0  0  0  0
  -34.9082   -8.1370  138.5854 C   0  0  0  0  0  0  0  0  0  0  0  0
  -35.4872   -7.5704  139.8852 C   0  0  0  0  0  0  0  0  0  0  0  0
  -34.4619   -6.7422  140.6928 C   0  0  0  0  0  0  0  0  0  0  0  0
  -34.6434   -6.6402  142.2125 C   0  0  0  0  0  0  0  0  0  0  0  0
  2  1  1  0
  3  2  1  0
  5  2  1  0
  5  4  1  0
  6  3  1  0
  7  5  1  0
  7  6  1  0
  8  4  1  0
 10  1  1  0
 10  5  1  0
 10  6  1  0
 11  4  1  0
 13  8  1  0
 13  9  1  0
 13 12  1  0
 14  4  1  0
 14 13  1  0
 15 11  1  0
 15 14  1  0
M  END
$$$$

     RDKit          3D

 15 16  0  0  0  0  0  0  0  0999 V2000
  -28.1738  -11.2804  146.6666 O   0  0  0  0  0  0  0  0  0  0  0  0
  -28.7145  -13.2619  147.8344 C   0  0  0  0  0  0  0  0  0  0  0  0
  -28.7485  -14.3954  147.0256 O   0  0  0  0  0  0  0  0  0  0  0  0
  -29.6127  -13.4701  149.0852 C   0  0  0  0  0  0  0  0  0  0  0  0
  -31.0675  -13.9147  148.7453 C   0  0  0  0  0  0  0  0  0  0  0  0
  -31.7301  -14.7773  149.8419 C   0  0  0  0  0  0  0  0  0  0  0  0
  -29.0678  -12.0556  147.0015 C   0  0  0  0  0  0  0  0  0  0  0  0
  -31.7201  -14.1579  151.2749 C   0  0  0  0  0  0  0  0  0  0  0  0
  -29.6002  -12.2101  149.9739 C   0  0  0  0  0  0  0  0  0  0  0  0
  -33.0360  -14.5051  152.0102 C   0  0  0  0  0  0  0  0  0  0  0  0
  -30.2743  -12.4023  151.3480 C   0  0  0  0  0  0  0  0  0  0  0  0
  -29.6044  -13.4491  152.2236 C   0  0  0  0  0  0  0  0  0  0  0  0
  -31.6350  -12.7504  151.1858 O   0  0  0  0  0  0  0  0  0  0  0  0
  -30.5153  -14.6496  152.1088 C   0  0  0  0  0  0  0  0  0  0  0  0
  -30.6738  -11.7875  146.3364 Cl  0  0  0  0  0  0  0  0  0  0  0  0
  3  2  1  0
  4  2  1  0
  5  4  1  0
  6  5  1  0
  7  1  2  0
  7  2  1  0
  8  6  1  0
  9  4  1  0
 10  8  1  0
 11  9  1  0
 12 11  1  0
 13  8  1  0
 13 11  1  0
 14  8  1  0
 14 12  1  0
 15  7  1  0
M  END
$$$$

     RDKit          3D

 15 17  0  0  0  0  0  0  0  0999 V2000
  -19.1447   -2.0847  143.5450 C   0  0  0  0  0  0  0  0  0  0  0  0
  -19.4316   -0.6472  144.0164 C   0  0  0  0  0  0  0  0  0  0  0  0
  -19.3479   -2.3291  142.0564 C   0  0  0  0  0  0  0  0  0  0  0  0
  -20.3736   -2.8478  143.0548 C   0  0  0  0  0  0  0  0  0  0  0  0
  -19.5734   -0.5927  145.5465 C   0  0  0  0  0  0  0  0  0  0  0  0
  -20.5421    0.5037  146.0194 C   0  0  0  0  0  0  0  0  0  0  0  0
  -20.0794    1.9284  145.6554 C   0  0  0  0  0  0  0  0  0  0  0  0
  -21.0871    3.0058  146.1445 C   0  0  0  0  0  0  0  0  0  0  0  0
  -22.2831    3.1039  145.1659 C   0  0  0  0  0  0  0  0  0  0  0  0
  -23.4901    3.9402  145.6492 C   0  0  0  0  0  0  0  0  0  0  0  0
  -23.4622    4.4210  147.0788 C   0  0  0  0  0  0  0  0  0  0  0  0
  -22.4726    5.1120  147.6819 C   0  0  0  0  0  0  0  0  0  0  0  0
  -21.0635    5.4152  147.1906 C   0  0  0  0  0  0  0  0  0  0  0  0
  -20.8029    5.6664  145.7127 C   0  0  0  0  0  0  0  0  0  0  0  0
  -20.3305    4.3534  146.3585 C   0  0  0  0  0  0  0  0  0  0  0  0
  2  1  1  0
  3  1  1  0
  4  1  1  0
  4  3  1  0
  5  2  1  0
  6  5  1  0
  7  6  1  0
  8  7  1  0
  9  8  1  0
 10  9  1  0
 11 10  1  0
 12 11  2  0
 13 12  1  0
 14 13  1  0
 15  8  1  0
 15 13  1  0
 15 14  1  0
M  END
$$$$

     RDKit          3D

 14 17  0  0  0  0  0  0  0  0999 V2000
  -22.2796   -2.7368  141.1943 O   0  0  0  0  0  0  0  0  0  0  0  0
  -23.4618   -3.0669  141.4726 C   0  0  0  0  0  0  0  0  0  0  0  0
  -24.2782   -2.1259  142.1063 O   0  0  0  0  0  0  0  0  0  0  0  0
  -23.9142   -4.4642  141.0910 C   0  0  0  0  0  0  0  0  0  0  0  0
  -23.3935   -5.5170  142.0527 C   0  0  0  0  0  0  0  0  0  0  0  0
  -25.3959   -4.6231  140.8037 C   0  0  0  0  0  0  0  0  0  0  0  0
  -23.1338   -6.8819  141.4124 C   0  0  0  0  0  0  0  0  0  0  0  0
  -24.8543   -5.1248  142.1300 C   0  0  0  0  0  0  0  0  0  0  0  0
  -23.2270   -7.9774  142.4795 C   0  0  0  0  0  0  0  0  0  0  0  0
  -22.5903   -9.2946  142.1244 C   0  0  0  0  0  0  0  0  0  0  0  0
  -21.5831   -9.7987  143.1137 C   0  0  0  0  0  0  0  0  0  0  0  0
  -21.9088   -8.3177  143.1426 C   0  0  0  0  0  0  0  0  0  0  0  0
  -22.1978  -10.5607  144.1181 O   0  0  0  0  0  0  0  0  0  0  0  0
  -21.2897  -10.6886  145.0658 O   0  0  0  0  0  0  0  0  0  0  0  0
  2  1  2  0
  3  2  1  0
  4  2  1  0
  5  4  1  0
  6  4  1  0
  7  5  1  0
  8  4  1  0
  8  5  1  0
  8  6  1  0
  9  7  1  0
 10  9  1  0
 11 10  1  0
 12  9  1  0
 12 10  1  0
 12 11  1  0
 13 11  1  0
 14 13  1  0
M  END
$$$$

     RDKit          3D

  7  6  0  0  0  0  0  0  0  0999 V2000
  -28.0256  -20.9040  141.5872 C   0  0  0  0  0  0  0  0  0  0  0  0
  -30.3195  -21.0068  141.3996 C   0  0  0  0  0  0  0  0  0  0  0  0
  -26.8166  -21.3077  142.4496 C   0  0  0  0  0  0  0  0  0  0  0  0
  -26.7688  -22.7111  142.5130 O   0  0  0  0  0  0  0  0  0  0  0  0
  -26.9617  -20.7909  143.7532 O   0  0  0  0  0  0  0  0  0  0  0  0
  -29.2126  -21.3763  142.1908 O   0  0  0  0  0  0  0  0  0  0  0  0
  -25.5144  -20.7857  141.8152 C   0  0  0  0  0  0  0  0  0  0  0  0
  3  1  1  0
  4  3  1  0
  5  3  1  0
  6  1  1  0
  6  2  1  0
  7  3  1  0
M  END
$$$$

     RDKit          3D

  5  4  0  0  0  0  0  0  0  0999 V2000
  -24.5366  -15.5530  142.4316 P   0  0  0  0  0  0  0  0  0  0  0  0
  -24.0496  -17.0408  140.2384 O   0  0  0  0  0  0  0  0  0  0  0  0
  -25.1709  -18.1483  141.9035 O   0  0  0  0  0  0  0  0  0  0  0  0
  -26.4327  -16.5931  140.5554 C   0  0  0  0  0  0  0  0  0  0  0  0
  -25.0828  -16.9271  141.2268 C   0  0  0  0  0  0  0  0  0  0  0  0
  5  1  1  0
  5  2  1  0
  5  3  1  0
  5  4  1  0
M  END
$$$$

     RDKit          3D

 15 15  0  0  0  0  0  0  0  0999 V2000
  -22.4686   -5.9744  143.6506 F   0  0  0  0  0  0  0  0  0  0  0  0
  -21.4521   -6.4024  141.4932 C   0  0  0  0  0  0  0  0  0  0  0  0
  -19.5071   -5.0754  141.9405 F   0  0  0  0  0  0  0  0  0  0  0  0
  -20.7068   -5.0632  141.2457 C   0  0  0  0  0  0  0  0  0  0  0  0
  -21.0337   -7.8514  139.4179 C   0  0  0  0  0  0  0  0  0  0  0  0
  -20.5073   -4.5809  139.7870 C   0  0  0  0  0  0  0  0  0  0  0  0
  -21.8066   -4.3280  142.0231 C   0  0  0  0  0  0  0  0  0  0  0  0
  -20.0488   -2.7654  139.5715 P   0  0  0  0  0  0  0  0  0  0  0  0
  -22.5122   -5.6484  142.3016 C   0  0  0  0  0  0  0  0  0  0  0  0
  -22.9058   -8.1580  140.8452 F   0  0  0  0  0  0  0  0  0  0  0  0
  -21.6385   -2.1254  139.3554 F   0  0  0  0  0  0  0  0  0  0  0  0
  -19.5106   -5.3282  139.2024 F   0  0  0  0  0  0  0  0  0  0  0  0
  -22.0826   -7.1795  140.3158 C   0  0  0  0  0  0  0  0  0  0  0  0
  -19.5393   -2.0014  141.2169 C   0  0  0  0  0  0  0  0  0  0  0  0
  -20.5248   -0.9406  141.6891 C   0  0  0  0  0  0  0  0  0  0  0  0
  4  2  1  0
  4  3  1  0
  6  4  1  0
  7  4  1  0
  8  6  1  0
  9  1  1  0
  9  2  1  0
  9  7  1  0
 11  8  1  0
 12  6  1  0
 13  2  1  0
 13  5  1  0
 13 10  1  0
 14  8  1  0
 15 14  1  0
M  END
$$$$

     RDKit          3D

 15 17  0  0  0  0  0  0  0  0999 V2000
  -26.9302   -9.9269  138.4868 O   0  0  0  0  0  0  0  0  0  0  0  0
  -26.9451   -8.7598  139.3054 C   0  0  0  0  0  0  0  0  0  0  0  0
  -25.6523   -8.2278  139.4706 O   0  0  0  0  0  0  0  0  0  0  0  0
  -27.9968   -7.7204  138.8292 C   0  0  0  0  0  0  0  0  0  0  0  0
  -29.6702   -6.9496  139.9716 C   0  0  0  0  0  0  0  0  0  0  0  0
  -30.5990   -7.2327  138.7929 C   0  0  0  0  0  0  0  0  0  0  0  0
  -30.5328   -6.3862  137.5051 C   0  0  0  0  0  0  0  0  0  0  0  0
  -28.2062   -6.5480  139.7657 C   0  0  0  0  0  0  0  0  0  0  0  0
  -31.4742   -4.0314  136.9093 C   0  0  0  0  0  0  0  0  0  0  0  0
  -32.0052   -1.7189  136.0619 C   0  0  0  0  0  0  0  0  0  0  0  0
  -31.8830   -4.3350  138.3477 C   0  0  0  0  0  0  0  0  0  0  0  0
  -30.5621   -4.8763  137.8011 C   0  0  0  0  0  0  0  0  0  0  0  0
  -30.9249   -2.6268  136.6525 C   0  0  0  0  0  0  0  0  0  0  0  0
  -26.2749   -9.7115  137.2568 C   0  0  0  0  0  0  0  0  0  0  0  0
  -29.4463   -8.1818  139.0572 C   0  0  0  0  0  0  0  0  0  0  0  0
  2  1  1  0
  3  2  1  0
  4  2  1  0
  6  5  1  0
  7  6  1  0
  8  4  1  0
  8  5  1  0
 11  9  1  0
 12  7  1  0
 12  9  1  0
 12 11  1  0
 13  9  1  0
 13 10  1  0
 14  1  1  0
 15  4  1  0
 15  5  1  0
 15  6  1  0
M  END
$$$$

     RDKit          3D

 11 10  0  0  0  0  0  0  0  0999 V2000
  -26.0141   -2.4687  137.0811 N   0  0  0  0  0  0  0  0  0  0  0  0
  -26.9110   -1.3862  136.8449 C   0  0  0  0  0  0  0  0  0  0  0  0
  -24.9571   -2.3311  137.8177 C   0  0  0  0  0  0  0  0  0  0  0  0
  -28.3249   -1.6283  135.8432 S   0  0  0  0  0  5  0  0  0  0  0  0
  -24.0766   -3.4427  138.0343 N   0  0  0  0  0  0  0  0  0  0  0  0
  -24.3887   -4.6801  137.4305 N   0  0  0  0  0  0  0  0  0  0  0  0
  -29.2859   -2.8506  136.4819 O   0  0  0  0  0  0  0  0  0  0  0  0
  -22.8849   -3.2664  138.8712 C   0  0  0  0  0  0  0  0  0  0  0  0
  -23.6756   -5.7579  137.5498 C   0  0  0  0  0  0  0  0  0  0  0  0
  -26.5770    0.3582  137.6288 Mg  0  0  0  0  0  2  0  0  0  0  0  0
  -27.9061   -1.9761  134.4194 O   0  0  0  0  0  0  0  0  0  0  0  0
  2  1  1  0
  3  1  2  3
  4  2  1  0
  5  3  1  0
  6  5  1  0
  7  4  1  0
  8  5  1  0
  9  6  2  0
 10  2  2  0
 11  4  2  0
M  RAD  1   4   2
M  END
$$$$

     RDKit          3D

 15 19  0  0  0  0  0  0  0  0999 V2000
  -23.8019   -2.3724  137.1667 N   0  0  0  0  0  0  0  0  0  0  0  0
  -25.5042   -4.9869  137.6539 C   0  0  0  0  0  0  0  0  0  0  0  0
  -23.2855   -1.8397  138.4259 C   0  0  0  0  0  0  0  0  0  0  0  0
  -26.0691   -5.6830  136.3817 C   0  0  0  0  0  0  0  0  0  0  0  0
  -26.7068   -4.9083  135.2249 C   0  0  0  0  0  0  0  0  0  0  0  0
  -24.3407   -2.0233  139.4657 C   0  0  0  0  0  0  0  0  0  0  0  0
  -21.7823   -2.0166  138.7393 C   0  0  0  0  0  0  0  0  0  0  0  0
  -24.5853   -5.5085  136.5428 C   0  0  0  0  0  0  0  0  0  0  0  0
  -27.4849   -7.2244  135.1865 C   0  0  0  0  0  0  0  0  0  0  0  0
  -23.9524   -0.5951  139.0250 C   0  0  0  0  0  0  0  0  0  0  0  0
  -26.0456   -3.5277  137.7393 C   0  0  0  0  0  0  0  0  0  0  0  0
  -25.2745   -2.3688  137.2735 C   0  0  0  0  0  0  0  0  0  0  0  0
  -25.6770   -2.4524  138.8032 C   0  0  0  0  0  0  0  0  0  0  0  0
  -27.1148   -6.0386  134.2861 C   0  0  0  0  0  0  0  0  0  0  0  0
  -26.6390   -7.1019  136.4626 C   0  0  0  0  0  0  0  0  0  0  0  0
  3  1  1  0
  4  2  1  0
  5  4  1  0
  6  3  1  0
  7  3  1  0
  8  2  1  0
  8  4  1  0
 10  3  1  0
 10  6  1  0
 11  2  1  0
 12  1  1  0
 12 11  1  0
 13  6  1  0
 13 11  1  0
 13 12  1  0
 14  5  1  0
 14  9  1  0
 15  4  1  0
 15  9  1  0
M  END
$$$$

     RDKit          3D

 15 19  0  0  0  0  0  0  0  0999 V2000
  -24.2736  -12.6745  138.1473 C   0  0  0  0  0  0  0  0  0  0  0  0
  -23.8442  -14.4269  137.3774 C   0  0  0  0  0  0  0  0  0  0  0  0
  -24.4227  -15.7725  137.8676 C   0  0  0  0  0  0  0  0  0  0  0  0
  -25.2048  -12.4157  139.3545 C   0  0  0  0  0  0  0  0  0  0  0  0
  -25.2140  -16.5153  136.7751 C   0  0  0  0  0  0  0  0  0  0  0  0
  -26.6297  -12.9269  139.2643 C   0  0  0  0  0  0  0  0  0  0  0  0
  -24.3272  -17.1841  135.7114 C   0  0  0  0  0  0  0  0  0  0  0  0
  -27.4933  -12.0814  138.3560 C   0  0  0  0  0  0  0  0  0  0  0  0
  -26.3170  -11.4333  139.0501 C   0  0  0  0  0  0  0  0  0  0  0  0
  -24.2624  -20.2906  135.4300 Al  0  0  0  0  0  3  0  0  0  0  0  0
  -23.6915  -18.4894  136.2350 C   0  0  0  0  0  0  0  0  0  0  0  0
  -23.2175  -13.6437  138.4457 N   0  0  0  0  0  0  0  0  0  0  0  0
  -22.5832  -19.0707  135.4394 C   0  0  0  0  0  0  0  0  0  0  0  0
  -24.9030  -13.4636  137.0879 N   0  0  0  0  0  0  0  0  0  0  0  0
  -23.0845  -19.3041  134.0726 C   0  0  0  0  0  0  0  0  0  0  0  0
  3  2  1  0
  4  1  1  0
  5  3  1  0
  6  4  1  0
  7  5  1  0
  8  6  1  0
  9  4  1  0
  9  6  1  0
  9  8  1  0
 11  7  1  0
 11 10  1  0
 12  1  1  0
 12  2  1  0
 13 10  1  0
 13 11  1  0
 14  1  1  0
 14  2  1  0
 15 10  1  0
 15 13  1  0
M  END
$$$$

     RDKit          3D

 14 18  0  0  0  0  0  0  0  0999 V2000
  -28.1684  -11.4295  152.7130 C   0  0  0  0  0  0  0  0  0  0  0  0
  -24.2868  -11.6521  155.2306 C   0  0  0  0  0  0  0  0  0  0  0  0
  -25.6586  -11.5252  154.5478 C   0  0  0  0  0  0  0  0  0  0  0  0
  -25.6264  -11.8295  153.0319 C   0  0  0  0  0  0  0  0  0  0  0  0
  -25.7950  -10.5115  152.2365 C   0  0  0  0  0  0  0  0  0  0  0  0
  -23.1226  -11.3871  154.4008 N   0  0  0  0  0  0  0  0  0  0  0  0
  -24.7896  -10.3568  154.9561 C   0  0  0  0  0  0  0  0  0  0  0  0
  -23.3105   -9.2477  153.0593 O   0  0  0  0  0  0  0  0  0  0  0  0
  -23.8951  -11.2834  150.5058 C   0  0  0  0  0  0  0  0  0  0  0  0
  -23.4545   -9.4936  151.6430 C   0  0  0  0  0  0  0  0  0  0  0  0
  -22.6331  -10.6656  151.1099 C   0  0  0  0  0  0  0  0  0  0  0  0
  -24.7538  -10.1750  151.1345 C   0  0  0  0  0  0  0  0  0  0  0  0
  -23.6061  -10.1826  154.0509 C   0  0  0  0  0  0  0  0  0  0  0  0
  -26.7994  -11.6396  152.0631 C   0  0  0  0  0  0  0  0  0  0  0  0
  3  2  1  0
  4  3  1  0
  5  4  1  0
  6  2  1  0
  7  2  1  0
  7  3  1  0
 10  8  1  0
 11  9  1  0
 11 10  1  0
 12  5  1  0
 12  9  1  0
 12 10  1  0
 13  6  2  0
 13  7  1  0
 13  8  1  0
 14  1  1  0
 14  4  1  0
 14  5  1  0
M  END
$$$$

     RDKit          3D

 14 18  0  0  0  0  0  0  0  0999 V2000
  -28.8089   -2.0453  137.3545 O   0  0  0  0  0  0  0  0  0  0  0  0
  -29.6623   -2.9405  138.0384 C   0  0  0  0  0  0  0  0  0  0  0  0
  -29.6370   -4.2649  137.5836 O   0  0  0  0  0  0  0  0  0  0  0  0
  -30.7132   -2.4847  139.0802 C   0  0  0  0  0  0  0  0  0  0  0  0
  -29.8884   -2.4387  140.3399 C   0  0  0  0  0  0  0  0  0  0  0  0
  -31.4352   -1.1994  138.8195 C   0  0  0  0  0  0  0  0  0  0  0  0
  -30.1805   -1.1482  139.7110 C   0  0  0  0  0  0  0  0  0  0  0  0
  -28.7306   -1.6385  139.7787 C   0  0  0  0  0  0  0  0  0  0  0  0
  -31.4812   -0.3192  137.5117 C   0  0  0  0  0  0  0  0  0  0  0  0
  -32.7823    0.5341  137.5893 C   0  0  0  0  0  0  0  0  0  0  0  0
  -32.7566    1.4070  138.6920 O   0  0  0  0  0  0  0  0  0  0  0  0
  -31.6087   -1.1915  136.2404 C   0  0  0  0  0  0  0  0  0  0  0  0
  -30.3007    0.6774  137.3764 C   0  0  0  0  0  0  0  0  0  0  0  0
  -28.3471   -2.4999  138.5942 C   0  0  0  0  0  0  0  0  0  0  0  0
  2  1  1  0
  3  2  1  0
  4  2  1  0
  5  4  1  0
  6  4  1  0
  7  4  1  0
  7  5  1  0
  7  6  1  0
  8  5  1  0
  8  7  1  0
  9  6  1  0
 10  9  1  0
 11 10  1  0
 12  9  1  0
 13  9  1  0
 14  1  1  0
 14  2  1  0
 14  8  1  0
M  END
$$$$

     RDKit          3D

 15 20  0  0  0  0  0  0  0  0999 V2000
  -28.5572   -3.4785  139.8978 O   0  0  0  0  0  0  0  0  0  0  0  0
  -27.8571   -2.5014  140.6079 C   0  0  0  0  0  0  0  0  0  0  0  0
  -27.6727   -2.6712  142.0626 N   0  0  0  0  0  0  0  0  0  0  0  0
  -28.9398   -2.5790  142.8399 C   0  0  0  0  0  0  0  0  0  0  0  0
  -27.5171   -1.1316  140.0241 C   0  0  0  0  0  0  0  0  0  0  0  0
  -26.0126   -0.8259  140.0377 C   0  0  0  0  0  0  0  0  0  0  0  0
  -25.2998   -1.6165  138.9373 C   0  0  0  0  0  0  0  0  0  0  0  0
  -28.3602   -2.4205  144.2672 C   0  0  0  0  0  0  0  0  0  0  0  0
  -28.2920   -0.4837  141.1634 C   0  0  0  0  0  0  0  0  0  0  0  0
  -28.7969   -1.8841  141.5220 C   0  0  0  0  0  0  0  0  0  0  0  0
  -29.2590   -1.3724  143.7758 C   0  0  0  0  0  0  0  0  0  0  0  0
  -24.7820   -2.9767  139.3671 C   0  0  0  0  0  0  0  0  0  0  0  0
  -23.4763   -2.8928  140.1329 C   0  0  0  0  0  0  0  0  0  0  0  0
  -24.7450   -3.9970  138.2141 C   0  0  0  0  0  0  0  0  0  0  0  0
  -23.8123   -1.7786  139.1659 C   0  0  0  0  0  0  0  0  0  0  0  0
  2  1  1  0
  3  2  1  0
  4  3  1  0
  5  2  1  0
  6  5  1  0
  7  6  1  0
  8  4  1  0
  9  5  1  0
 10  2  1  0
 10  3  1  0
 10  4  1  0
 10  9  1  0
 11  4  1  0
 11  8  1  0
 12  7  1  0
 13 12  1  0
 14 12  1  0
 15  7  1  0
 15 12  1  0
 15 13  1  0
M  END
$$$$

     RDKit          3D

  8  8  0  0  0  0  0  0  0  0999 V2000
  -29.7636  -21.4269  144.6145 O   0  0  0  0  0  0  0  0  0  0  0  0
  -29.6675  -20.1275  145.1428 C   0  0  0  0  0  0  0  0  0  0  0  0
  -31.0608  -18.6474  144.8392 C   0  0  0  0  0  0  0  0  0  0  0  0
  -30.9934  -17.2794  145.5186 C   0  0  0  0  0  0  0  0  0  0  0  0
  -29.7781  -19.0185  144.0952 C   0  0  0  0  0  0  0  0  0  0  0  0
  -30.0088  -19.4868  142.6432 C   0  0  0  0  0  0  0  0  0  0  0  0
  -30.9075  -19.7281  145.8174 N   0  0  0  0  0  0  0  0  0  0  0  0
  -30.2381  -18.3521  141.7514 N   0  0  0  0  0  0  0  0  0  0  0  0
  2  1  1  0
  4  3  1  0
  5  2  1  0
  5  3  1  0
  6  5  1  0
  7  2  1  0
  7  3  1  0
  8  6  1  0
M  END
$$$$

     RDKit          3D

 15 15  0  0  0  0  0  0  0  0999 V2000
  -17.9343   -6.9786  148.6253 O   0  0  0  0  0  0  0  0  0  0  0  0
  -17.6117   -7.2832  146.5056 C   0  0  0  0  0  0  0  0  0  0  0  0
  -18.3052   -6.5131  147.4513 O   0  0  0  0  0  0  0  0  0  0  0  0
  -18.3224   -7.4513  145.1552 C   0  0  0  0  0  0  0  0  0  0  0  0
  -18.3111   -8.5940  146.1744 C   0  0  0  0  0  0  0  0  0  0  0  0
  -22.6796   -9.0816  141.5774 Si  0  0  0  0  0  4  0  0  0  0  0  0
  -23.8882   -8.1089  142.6498 C   0  0  0  0  0  0  0  0  0  0  0  0
  -23.3114   -7.8698  144.0668 C   0  0  0  0  0  0  0  0  0  0  0  0
  -22.0720   -6.9389  144.1443 C   0  0  0  0  0  0  0  0  0  0  0  0
  -24.3475   -6.8354  141.8964 C   0  0  0  0  0  0  0  0  0  0  0  0
  -20.8026   -7.6987  144.5619 C   0  0  0  0  0  0  0  0  0  0  0  0
  -19.6728   -6.7305  144.9450 C   0  0  0  0  0  0  0  0  0  0  0  0
  -25.3669   -5.9604  142.6524 C   0  0  0  0  0  0  0  0  0  0  0  0
  -25.8271   -4.4395  141.5312 Br  0  0  0  0  0  0  0  0  0  0  0  0
  -26.6482   -6.7230  143.0133 C   0  0  0  0  0  0  0  0  0  0  0  0
  3  1  1  0
  3  2  1  0
  4  2  1  0
  5  2  1  0
  5  4  1  0
  7  6  1  0
  8  7  1  0
  9  8  1  0
 10  7  1  0
 11  9  1  0
 12  4  1  0
 12 11  1  0
 13 10  1  0
 14 13  1  0
 15 13  1  0
M  END
$$$$

     RDKit          3D

 14 18  0  0  0  0  0  0  0  0999 V2000
  -26.8203  -19.6656  146.2972 N   0  0  0  0  0  0  0  0  0  0  0  0
  -25.5961  -20.3533  146.0167 C   0  0  0  0  0  0  0  0  0  0  0  0
  -25.6339  -21.6303  145.4531 O   0  0  0  0  0  0  0  0  0  0  0  0
  -24.4579  -19.7979  146.3013 N   0  0  0  0  0  0  0  0  0  0  0  0
  -28.1286  -20.2092  146.0330 C   0  0  0  0  0  0  0  0  0  0  0  0
  -23.1700  -20.4676  146.1244 C   0  0  0  0  0  0  0  0  0  0  0  0
  -29.0674  -19.1999  146.4602 C   0  0  0  0  0  0  0  0  0  0  0  0
  -23.1844  -21.7305  145.2671 C   0  0  0  0  0  0  0  0  0  0  0  0
  -28.3491  -18.1216  147.1530 N   0  0  0  0  0  0  0  0  0  0  0  0
  -24.5456  -22.1688  144.7076 C   0  0  0  0  0  0  0  0  0  0  0  0
  -28.8991  -20.4708  147.2558 N   0  0  0  0  0  0  0  0  0  0  0  0
  -26.9208  -18.3634  146.9236 C   0  0  0  0  0  0  0  0  0  0  0  0
  -22.6642  -20.4128  144.6931 C   0  0  0  0  0  0  0  0  0  0  0  0
  -30.1737  -19.7416  147.2316 C   0  0  0  0  0  0  0  0  0  0  0  0
  2  1  1  0
  3  2  1  0
  4  2  2  0
  5  1  1  0
  6  4  1  0
  7  5  1  0
  8  6  1  0
  9  7  1  0
 10  3  1  0
 10  8  1  0
 11  5  1  0
 11  7  1  0
 12  1  1  0
 12  9  1  0
 13  6  1  0
 13  8  1  0
 14  7  1  0
 14 11  1  0
M  END
$$$$

     RDKit          3D

 15 16  0  0  0  0  0  0  0  0999 V2000
  -20.1421   -7.7755  145.8355 N   0  0  0  0  0  0  0  0  0  0  0  0
  -21.5426   -8.1516  145.6952 C   0  0  0  0  0  0  0  0  0  0  0  0
  -21.8315   -8.5612  144.3098 N   0  0  0  0  0  0  0  0  0  0  0  0
  -21.8230   -9.5659  145.3980 C   0  0  0  0  0  0  0  0  0  0  0  0
  -21.1339  -11.9487  145.8026 C   0  0  0  0  0  0  0  0  0  0  0  0
  -20.6309  -10.5684  145.3463 C   0  0  0  0  0  0  0  0  0  0  0  0
  -19.9182  -10.6126  143.9592 C   0  0  0  0  0  0  0  0  0  0  0  0
  -18.6885  -11.5490  143.9375 C   0  0  0  0  0  0  0  0  0  0  0  0
  -17.8666  -11.3455  142.6893 C   0  0  0  0  0  0  0  0  0  0  0  0
  -20.8205  -10.9307  142.9263 O   0  0  0  0  0  0  0  0  0  0  0  0
  -17.2413  -10.3046  142.5490 O   0  0  0  0  0  0  0  0  0  0  0  0
  -17.7679  -12.4138  141.6324 C   0  0  0  0  0  0  0  0  0  0  0  0
  -18.2230  -11.8631  140.2748 C   0  0  0  0  0  0  0  0  0  0  0  0
  -18.6286  -12.9189  139.2582 C   0  0  0  0  0  0  0  0  0  0  0  0
  -19.6907  -12.0655  139.9333 C   0  0  0  0  0  0  0  0  0  0  0  0
  2  1  1  0
  3  2  1  0
  4  2  1  0
  4  3  1  0
  6  4  1  0
  6  5  1  0
  7  6  1  0
  8  7  1  0
  9  8  1  0
 10  7  1  0
 11  9  2  0
 12  9  1  0
 13 12  1  0
 14 13  1  0
 15 13  1  0
 15 14  1  0
M  END
$$$$

     RDKit          3D

 15 16  0  0  0  0  0  0  0  0999 V2000
  -27.5699   -0.0665  134.4446 O   0  0  0  0  0  0  0  0  0  0  0  0
  -27.0676   -1.1978  135.1043 C   0  0  0  0  0  0  0  0  0  0  0  0
  -23.1870    6.2256  139.2312 O   0  0  0  0  0  0  0  0  0  0  0  0
  -25.6811   -0.9934  135.5390 C   0  0  0  0  0  0  0  0  0  0  0  0
  -25.9955   -1.7711  134.4072 O   0  0  0  0  0  0  0  0  0  0  0  0
  -24.5694    2.6323  136.2596 C   0  0  0  0  0  0  0  0  0  0  0  0
  -24.7346    1.1268  136.4551 C   0  0  0  0  0  0  0  0  0  0  0  0
  -23.8336    3.2741  137.4686 C   0  0  0  0  0  0  0  0  0  0  0  0
  -24.7655    4.7801  140.1949 C   0  0  0  0  0  0  0  0  0  0  0  0
  -24.1952    4.7925  137.6007 C   0  0  0  0  0  0  0  0  0  0  0  0
  -22.3106    2.9980  137.4245 C   0  0  0  0  0  0  0  0  0  0  0  0
  -23.4709    5.6592  136.5362 C   0  0  0  0  0  0  0  0  0  0  0  0
  -26.7879    1.0123  134.8989 C   0  0  0  0  0  0  0  0  0  0  0  0
  -23.9918    5.3314  139.0200 C   0  0  0  0  0  0  0  0  0  0  0  0
  -25.4059    0.4544  135.2457 C   0  0  0  0  0  0  0  0  0  0  0  0
  2  1  1  0
  4  2  1  0
  5  2  1  0
  5  4  1  0
  7  6  1  0
  8  6  1  0
 10  8  1  0
 11  8  1  0
 12 10  1  0
 13  1  1  0
 14  3  2  0
 14  9  1  0
 14 10  1  0
 15  4  1  0
 15  7  1  0
 15 13  1  0
M  END
$$$$

     RDKit          3D

 11 12  0  0  0  0  0  0  0  0999 V2000
  -19.1891   -4.3023  137.2687 O   0  0  0  0  0  0  0  0  0  0  0  0
  -20.8711   -6.0186  137.6381 C   0  0  0  0  0  0  0  0  0  0  0  0
  -20.5238   -6.3517  136.3122 O   0  0  0  0  0  0  0  0  0  0  0  0
  -19.7566   -6.2096  138.6489 C   0  0  0  0  0  0  0  0  0  0  0  0
  -18.5632   -6.6103  138.0636 F   0  0  0  0  0  0  0  0  0  0  0  0
  -19.4790   -3.0185  137.1359 F   0  0  0  0  0  0  0  0  0  0  0  0
  -19.5662   -5.0058  139.5442 C   0  0  0  0  0  0  0  0  0  0  0  0
  -21.0531   -7.1939  133.6841 O   0  0  0  0  0  0  0  0  0  0  0  0
  -20.5587   -8.0781  134.6516 C   0  0  0  0  0  0  0  0  0  0  0  0
  -21.0198   -7.6422  136.0366 C   0  0  0  0  0  0  0  0  0  0  0  0
  -20.1500   -4.7911  138.1641 C   0  0  0  0  0  0  0  0  0  0  0  0
  3  2  1  0
  4  2  1  0
  5  4  1  0
  6  1  1  0
  7  4  1  0
  9  8  1  0
 10  3  1  0
 10  9  1  0
 11  1  1  0
 11  2  1  0
 11  4  1  0
 11  7  1  0
M  END
$$$$

     RDKit          3D

 15 16  0  0  0  0  0  0  0  0999 V2000
  -18.7795    2.0181  144.7078 O   0  0  0  0  0  0  0  0  0  0  0  0
  -19.0663    3.3128  144.2425 C   0  0  0  0  0  0  0  0  0  0  0  0
  -20.0449    4.0536  144.9305 O   0  0  0  0  0  0  0  0  0  0  0  0
  -17.9676    4.0680  143.4820 C   0  0  0  0  0  0  0  0  0  0  0  0
  -16.6330    3.3051  143.3235 C   0  0  0  0  0  0  0  0  0  0  0  0
  -19.1628    3.4417  142.7375 C   0  0  0  0  0  0  0  0  0  0  0  0
  -15.8012    3.8687  142.1892 C   0  0  0  0  0  0  0  0  0  0  0  0
  -16.4576    4.3047  140.8943 C   0  0  0  0  0  0  0  0  0  0  0  0
  -16.8411    5.8175  140.7957 C   0  0  0  0  0  0  0  0  0  0  0  0
  -16.3638    6.7455  141.9498 C   0  0  0  0  0  0  0  0  0  0  0  0
  -16.6534    6.3613  143.4269 C   0  0  0  0  0  0  0  0  0  0  0  0
  -17.9680    5.6077  143.7542 C   0  0  0  0  0  0  0  0  0  0  0  0
  -14.4685    3.9684  142.3382 C   0  0  0  0  0  0  0  0  0  0  0  0
  -18.3320    6.0867  140.4453 C   0  0  0  0  0  0  0  0  0  0  0  0
  -18.7021    5.5133  139.1522 N   0  0  0  0  0  0  0  0  0  0  0  0
  2  1  1  0
  3  2  1  0
  4  2  1  0
  5  4  1  0
  6  2  1  0
  6  4  1  0
  7  5  1  0
  8  7  1  0
  9  8  1  0
 10  9  1  0
 11 10  1  0
 12  4  1  0
 12 11  1  0
 13  7  2  0
 14  9  1  0
 15 14  1  0
M  END
$$$$

     RDKit          3D

 15 18  0  0  0  0  0  0  0  0999 V2000
  -29.1468  -10.8280  150.5889 C   0  0  0  0  0  0  0  0  0  0  0  0
  -27.5418  -11.8338  148.8306 C   0  0  0  0  0  0  0  0  0  0  0  0
  -26.4936  -10.9415  148.1618 C   0  0  0  0  0  0  0  0  0  0  0  0
  -28.9445  -11.2762  149.1379 C   0  0  0  0  0  0  0  0  0  0  0  0
  -26.4147   -8.5707  148.9816 C   0  0  0  0  0  0  0  0  0  0  0  0
  -26.8278   -9.4805  147.8302 C   0  0  0  0  0  0  0  0  0  0  0  0
  -27.2562  -11.9713  147.3381 C   0  0  0  0  0  0  0  0  0  0  0  0
  -29.7205  -12.1633  150.1203 C   0  0  0  0  0  0  0  0  0  0  0  0
  -31.9356  -10.9912  149.4790 C   0  0  0  0  0  0  0  0  0  0  0  0
  -31.6186   -9.8158  150.4157 C   0  0  0  0  0  0  0  0  0  0  0  0
  -31.2456  -12.2721  149.9436 C   0  0  0  0  0  0  0  0  0  0  0  0
  -31.4417   -8.4728  149.6884 C   0  0  0  0  0  0  0  0  0  0  0  0
  -32.3215   -7.3553  150.2565 C   0  0  0  0  0  0  0  0  0  0  0  0
  -30.1718   -9.7149  150.9251 C   0  0  0  0  0  0  0  0  0  0  0  0
  -29.9888   -8.4012  150.1652 C   0  0  0  0  0  0  0  0  0  0  0  0
  3  2  1  0
  4  1  1  0
  4  2  1  0
  6  3  1  0
  6  5  1  0
  7  2  1  0
  7  3  1  0
  8  1  1  0
  8  4  1  0
 10  9  1  0
 11  8  1  0
 11  9  1  0
 12 10  1  0
 13 12  1  0
 14  1  1  0
 14 10  1  0
 15 12  1  0
 15 14  1  0
M  END
$$$$

     RDKit          3D

 14 14  0  0  0  0  0  0  0  0999 V2000
  -31.6199   -1.1610  142.3032 O   0  0  0  0  0  0  0  0  0  0  0  0
  -27.5690   -1.2127  140.7718 O   0  0  0  0  0  0  0  0  0  0  0  0
  -28.9668   -1.2739  140.9516 C   0  0  0  0  0  0  0  0  0  0  0  0
  -27.3645   -2.5210  141.1369 N   0  0  0  0  0  0  0  0  0  0  0  0
  -29.4079   -3.7405  140.4711 C   0  0  0  0  0  0  0  0  0  0  0  0
  -33.0136   -1.0357  142.1105 C   0  0  0  0  0  0  0  0  0  0  0  0
  -28.7825   -2.7048  141.4099 C   0  0  0  0  0  0  0  0  0  0  0  0
  -33.7233   -2.2318  142.7509 C   0  0  0  0  0  0  0  0  0  0  0  0
  -33.4232   -2.3296  144.2298 C   0  0  0  0  0  0  0  0  0  0  0  0
  -29.0415   -3.0172  142.8254 N   0  0  0  0  0  0  0  0  0  0  0  0
  -32.6079   -3.4750  144.7759 C   0  0  0  0  0  0  0  0  0  0  0  0
  -33.9010   -1.3888  145.0553 C   0  0  0  0  0  0  0  0  0  0  0  0
  -30.9684    0.0058  141.8604 C   0  0  0  0  0  0  0  0  0  0  0  0
  -29.4518   -0.1886  141.9342 C   0  0  0  0  0  0  0  0  0  0  0  0
  3  2  1  0
  4  2  1  0
  6  1  1  0
  7  3  1  0
  7  4  1  0
  7  5  1  0
  8  6  1  0
  9  8  1  0
 10  7  1  0
 11  9  1  0
 12  9  2  0
 13  1  1  0
 14  3  1  0
 14 13  1  0
M  END
$$$$

     RDKit          3D

 12 14  0  0  0  0  0  0  0  0999 V2000
  -27.3170  -20.1181  149.3782 O   0  0  0  0  0  0  0  0  0  0  0  0
  -27.7141  -20.2927  150.7226 C   0  0  0  0  0  0  0  0  0  0  0  0
  -28.0013  -19.0586  151.3105 O   0  0  0  0  0  0  0  0  0  0  0  0
  -28.5800  -20.7064  149.5897 C   0  0  0  0  0  0  0  0  0  0  0  0
  -31.2907  -19.9715  150.2717 C   0  0  0  0  0  0  0  0  0  0  0  0
  -32.6669  -20.0361  149.7358 C   0  0  0  0  0  0  0  0  0  0  0  0
  -33.0694  -21.2249  148.9300 C   0  0  0  0  0  0  0  0  0  0  0  0
  -34.4751  -21.7875  149.1650 C   0  0  0  0  0  0  0  0  0  0  0  0
  -31.1671  -19.4388  151.5602 O   0  0  0  0  0  0  0  0  0  0  0  0
  -35.2749  -21.5624  148.0365 O   0  0  0  0  0  0  0  0  0  0  0  0
  -31.8630  -21.7316  150.2465 P   0  0  0  0  0  0  0  0  0  0  0  0
  -29.9487  -19.5558  149.0415 P   0  0  0  0  0  0  0  0  0  0  0  0
  2  1  1  0
  3  2  1  0
  4  1  1  0
  4  2  1  0
  6  5  1  0
  7  6  1  0
  8  7  1  0
  9  5  1  0
 10  8  1  0
 11  5  1  0
 11  6  1  0
 11  7  1  0
 12  4  1  0
 12  5  1  0
M  END
$$$$

     RDKit          3D

 15 16  0  0  0  0  0  0  0  0999 V2000
  -21.9554   -6.2378  142.3905 O   0  0  0  0  0  0  0  0  0  0  0  0
  -23.2570   -6.5475  141.9528 C   0  0  0  0  0  0  0  0  0  0  0  0
  -23.3171   -7.8234  141.3408 O   0  0  0  0  0  0  0  0  0  0  0  0
  -23.8911   -5.4595  141.0794 C   0  0  0  0  0  0  0  0  0  0  0  0
  -24.1599   -5.6822  139.7151 N   0  0  0  0  0  0  0  0  0  0  0  0
  -22.6823   -5.3469  137.8466 C   0  0  0  0  0  0  0  0  0  0  0  0
  -22.1010   -4.3386  137.0046 O   0  0  0  0  0  0  0  0  0  0  0  0
  -24.9170   -3.9429  138.2053 C   0  0  0  0  0  0  0  0  0  0  0  0
  -22.4344   -5.4940  141.2555 C   0  0  0  0  0  0  0  0  0  0  0  0
  -24.9750   -3.2499  136.2732 As  0  0  0  0  0  3  0  0  0  0  0  0
  -26.1454   -4.6317  138.4494 O   0  0  0  0  0  0  0  0  0  0  0  0
  -23.6329   -4.6660  138.8235 C   0  0  0  0  0  0  0  0  0  0  0  0
  -23.3715   -2.9135  135.1893 C   0  0  0  0  0  0  0  0  0  0  0  0
  -22.9391   -1.6286  135.1228 N   0  0  0  0  0  0  0  0  0  0  0  0
  -22.5283   -3.9161  134.6229 N   0  0  0  0  0  0  0  0  0  0  0  0
  2  1  1  0
  3  2  1  0
  4  2  1  0
  5  4  1  0
  7  6  1  0
  9  1  1  0
  9  2  1  0
  9  4  1  0
 10  8  1  0
 11  8  1  0
 12  5  1  0
 12  6  1  0
 12  8  1  0
 13 10  1  0
 14 13  2  0
 15 13  1  0
M  END
$$$$

     RDKit          3D

 15 19  0  0  0  0  0  0  0  0999 V2000
  -21.4551   -6.0787  136.9748 O   0  0  0  0  0  0  0  0  0  0  0  0
  -21.5906   -7.3749  137.4808 C   0  0  0  0  0  0  0  0  0  0  0  0
  -20.8002   -7.6633  138.7646 C   0  0  0  0  0  0  0  0  0  0  0  0
  -17.9802   -6.6897  140.9068 C   0  0  0  0  0  0  0  0  0  0  0  0
  -19.8036   -6.4985  140.7523 S   0  0  0  0  0  0  0  0  0  0  0  0
  -23.0373   -7.8206  137.6400 C   0  0  0  0  0  0  0  0  0  0  0  0
  -23.3590   -8.1945  139.1024 C   0  0  0  0  0  0  0  0  0  0  0  0
  -22.2519   -7.2064  138.8211 C   0  0  0  0  0  0  0  0  0  0  0  0
  -19.8568   -6.6609  139.0309 O   0  0  0  0  0  0  0  0  0  0  0  0
  -17.5270   -6.4481  142.3539 C   0  0  0  0  0  0  0  0  0  0  0  0
  -17.1569   -5.8957  139.8808 C   0  0  0  0  0  0  0  0  0  0  0  0
  -22.9921   -9.3336  137.3397 C   0  0  0  0  0  0  0  0  0  0  0  0
  -17.4496   -8.0003  140.3222 C   0  0  0  0  0  0  0  0  0  0  0  0
  -23.2292   -9.6703  138.7848 C   0  0  0  0  0  0  0  0  0  0  0  0
  -16.6198   -7.2073  139.3155 C   0  0  0  0  0  0  0  0  0  0  0  0
  2  1  1  0
  3  2  1  0
  5  4  1  0
  6  2  1  0
  7  6  1  0
  8  2  1  0
  8  3  1  0
  8  6  1  0
  8  7  1  0
  9  3  1  0
  9  5  1  0
 10  4  1  0
 11  4  1  0
 12  6  1  0
 13  4  1  0
 14  7  1  0
 14 12  1  0
 15 11  1  0
 15 13  1  0
M  END
$$$$

     RDKit          3D

 15 16  0  0  0  0  0  0  0  0999 V2000
  -23.7938    2.6649  137.8607 C   0  0  0  0  0  0  0  0  0  0  0  0
  -22.8550    1.4371  137.8536 C   0  0  0  0  0  0  0  0  0  0  0  0
  -22.1980    1.1096  139.2189 C   0  0  0  0  0  0  0  0  0  0  0  0
  -21.1748    1.8715  141.4542 C   0  0  0  0  0  0  0  0  0  0  0  0
  -25.2076    2.4166  137.3416 C   0  0  0  0  0  0  0  0  0  0  0  0
  -25.4943    2.0042  136.0980 C   0  0  0  0  0  0  0  0  0  0  0  0
  -21.5704    2.3101  139.9922 C   0  0  0  0  0  0  0  0  0  0  0  0
  -20.4385    0.0522  141.5338 Br  0  0  0  0  0  0  0  0  0  0  0  0
  -23.4472    0.2820  137.3074 O   0  0  0  0  0  0  0  0  0  0  0  0
  -20.1046    2.7733  142.0997 C   0  0  0  0  0  0  0  0  0  0  0  0
  -22.4516    3.6216  139.8552 C   0  0  0  0  0  0  0  0  0  0  0  0
  -22.6286    4.4822  141.1185 C   0  0  0  0  0  0  0  0  0  0  0  0
  -22.8064    3.6277  136.6506 S   0  0  0  0  0  0  0  0  0  0  0  0
  -21.8965    2.0567  136.8340 C   0  0  0  0  0  0  0  0  0  0  0  0
  -23.8472    3.3635  139.2353 C   0  0  0  0  0  0  0  0  0  0  0  0
  2  1  1  0
  3  2  1  0
  5  1  1  0
  6  5  2  0
  7  3  1  0
  7  4  1  0
  8  4  1  0
  9  2  1  0
 10  4  1  0
 11  7  1  0
 12 11  1  0
 13  1  1  0
 14  2  1  0
 14 13  1  0
 15  1  1  0
 15 11  1  0
M  END
$$$$

     RDKit          3D

 15 15  0  0  0  0  0  0  0  0999 V2000
  -18.4680  -21.1922  137.2902 O   0  0  0  0  0  0  0  0  0  0  0  0
  -18.0020  -20.5091  136.1467 C   0  0  0  0  0  0  0  0  0  0  0  0
  -16.6620  -20.8414  135.8966 O   0  0  0  0  0  0  0  0  0  0  0  0
  -19.3652  -21.9494  136.5070 C   0  0  0  0  0  0  0  0  0  0  0  0
  -20.3933  -20.6414  133.3156 C   0  0  0  0  0  0  0  0  0  0  0  0
  -20.7627  -19.3729  135.3809 C   0  0  0  0  0  0  0  0  0  0  0  0
  -21.6814  -18.5464  134.8620 C   0  0  0  0  0  0  0  0  0  0  0  0
  -22.3443  -17.5345  135.6990 C   0  0  0  0  0  0  0  0  0  0  0  0
  -23.2757  -16.7236  135.1932 C   0  0  0  0  0  0  0  0  0  0  0  0
  -25.2711  -15.5262  135.8192 C   0  0  0  0  0  0  0  0  0  0  0  0
  -20.0432  -20.4116  134.5867 C   0  0  0  0  0  0  0  0  0  0  0  0
  -21.8657  -14.5177  136.8073 C   0  0  0  0  0  0  0  0  0  0  0  0
  -18.9487  -21.2594  135.2242 C   0  0  0  0  0  0  0  0  0  0  0  0
  -23.9671  -15.7148  136.0220 C   0  0  0  0  0  0  0  0  0  0  0  0
  -23.2605  -14.9064  136.9849 N   0  0  0  0  0  0  0  0  0  0  0  0
  2  1  1  0
  3  2  1  0
  4  1  1  0
  7  6  2  3
  8  7  1  0
  9  8  2  3
 11  5  2  0
 11  6  1  0
 13  2  1  0
 13  4  1  0
 13 11  1  0
 14  9  1  0
 14 10  2  0
 15 12  1  0
 15 14  1  0
M  END
$$$$

     RDKit          3D

 15 15  0  0  0  0  0  0  0  0999 V2000
  -27.0887  -19.1827  143.1295 O   0  0  0  0  0  0  0  0  0  0  0  0
  -27.4653  -18.1196  142.3007 C   0  0  0  0  0  0  0  0  0  0  0  0
  -26.9208  -16.0987  143.6091 O   0  0  0  0  0  0  0  0  0  0  0  0
  -26.5380  -16.8790  142.4776 C   0  0  0  0  0  0  0  0  0  0  0  0
  -24.9762  -17.0620  142.3792 C   0  0  0  0  0  0  0  0  0  0  0  0
  -24.4886  -18.3002  141.5402 C   0  0  0  0  0  0  0  0  0  0  0  0
  -23.4133  -19.2333  142.2030 C   0  0  0  0  0  0  0  0  0  0  0  0
  -22.1328  -18.4751  142.5997 C   0  0  0  0  0  0  0  0  0  0  0  0
  -26.6103  -16.7061  144.8512 C   0  0  0  0  0  0  0  0  0  0  0  0
  -23.9835  -19.9428  143.4527 C   0  0  0  0  0  0  0  0  0  0  0  0
  -24.3688  -15.6849  141.9899 C   0  0  0  0  0  0  0  0  0  0  0  0
  -23.1357  -15.5641  141.1709 C   0  0  0  0  0  0  0  0  0  0  0  0
  -23.0123  -20.3226  141.1813 C   0  0  0  0  0  0  0  0  0  0  0  0
  -22.5126  -14.3138  141.2442 O   0  0  0  0  0  0  0  0  0  0  0  0
  -24.4210  -15.4494  140.6057 O   0  0  0  0  0  0  0  0  0  0  0  0
  2  1  1  0
  4  2  1  0
  4  3  1  0
  5  4  1  0
  6  5  1  0
  7  6  1  0
  8  7  1  0
  9  3  1  0
 10  7  1  0
 11  5  1  0
 12 11  1  0
 13  7  1  0
 14 12  1  0
 15 11  1  0
 15 12  1  0
M  END
$$$$

     RDKit          3D

 15 18  0  0  0  0  0  0  0  0999 V2000
  -25.2059   -7.7633  131.7230 N   0  0  0  0  0  0  0  0  0  0  0  0
  -22.6695   -7.5527  131.7656 C   0  0  0  0  0  0  0  0  0  0  0  0
  -23.9290   -8.0623  131.0821 C   0  0  0  0  0  0  0  0  0  0  0  0
  -22.8992   -6.4847  132.8680 C   0  0  0  0  0  0  0  0  0  0  0  0
  -23.9534   -9.1017  133.2249 N   0  0  0  0  0  0  0  0  0  0  0  0
  -25.3024   -8.6776  132.8604 C   0  0  0  0  0  0  0  0  0  0  0  0
  -21.3156   -4.7773  131.7914 C   0  0  0  0  0  0  0  0  0  0  0  0
  -21.8582   -8.5869  132.2590 O   0  0  0  0  0  0  0  0  0  0  0  0
  -20.8394   -3.5041  133.8026 N   0  0  0  0  0  0  0  0  0  0  0  0
  -20.7619   -3.4595  132.3318 C   0  0  0  0  0  0  0  0  0  0  0  0
  -21.7921   -4.5697  134.1247 C   0  0  0  0  0  0  0  0  0  0  0  0
  -21.6428   -5.6077  133.0255 C   0  0  0  0  0  0  0  0  0  0  0  0
  -20.1134   -1.2003  134.3245 C   0  0  0  0  0  0  0  0  0  0  0  0
  -21.2501   -2.2177  134.3979 C   0  0  0  0  0  0  0  0  0  0  0  0
  -23.1825   -8.9789  131.9986 C   0  0  0  0  0  0  0  0  0  0  0  0
  3  1  1  0
  3  2  1  0
  4  2  1  0
  6  1  1  0
  6  5  1  0
  8  2  1  0
 10  7  1  0
 10  9  1  0
 11  9  1  0
 12  4  1  0
 12  7  1  0
 12 11  1  0
 14  9  1  0
 14 13  1  0
 15  2  1  0
 15  3  1  0
 15  5  1  0
 15  8  1  0
M  END
$$$$

     RDKit          3D

 11 10  0  0  0  0  0  0  0  0999 V2000
  -20.2287   -2.7358  138.2979 C   0  0  0  0  0  0  0  0  0  0  0  0
  -20.2763   -0.7194  140.4286 I   0  0  0  0  0  0  0  0  0  0  0  0
  -19.4482   -2.4262  139.5107 N   0  0  0  0  0  0  0  0  0  0  0  0
  -21.2827   -1.6997  136.5049 C   0  0  0  0  0  0  0  0  0  0  0  0
  -22.6320   -0.6206  134.2293 Se  0  0  0  0  0  2  0  0  0  0  0  0
  -19.4835   -3.5457  140.4699 C   0  0  0  0  0  0  0  0  0  0  0  0
  -19.6520   -3.8246  137.6194 O   0  0  0  0  0  0  0  0  0  0  0  0
  -18.3204   -4.5780  142.3663 N   0  0  0  0  0  0  0  0  0  0  0  0
  -20.2326   -1.6029  137.4448 O   0  0  0  0  0  0  0  0  0  0  0  0
  -21.1912   -0.5286  135.5367 C   0  0  0  0  0  0  0  0  0  0  0  0
  -18.3348   -3.4228  141.4745 C   0  0  0  0  0  0  0  0  0  0  0  0
  3  1  1  0
  3  2  1  0
  6  3  1  0
  7  1  1  0
  9  1  1  0
  9  4  1  0
 10  4  1  0
 10  5  1  0
 11  6  1  0
 11  8  1  0
M  END
$$$$

     RDKit          3D

 15 18  0  0  0  0  0  0  0  0999 V2000
  -25.0308   -3.2358  139.4517 C   0  0  0  0  0  0  0  0  0  0  0  0
  -24.0864   -5.0097  138.6576 C   0  0  0  0  0  0  0  0  0  0  0  0
  -23.1184   -4.2173  140.9022 C   0  0  0  0  0  0  0  0  0  0  0  0
  -22.6529   -3.0127  141.7449 C   0  0  0  0  0  0  0  0  0  0  0  0
  -21.3011   -2.4468  141.2848 C   0  0  0  0  0  0  0  0  0  0  0  0
  -21.4619   -0.9491  141.4796 C   0  0  0  0  0  0  0  0  0  0  0  0
  -23.1171    0.0906  140.5582 C   0  0  0  0  0  0  0  0  0  0  0  0
  -26.2041   -4.1157  139.8410 C   0  0  0  0  0  0  0  0  0  0  0  0
  -23.4760    1.5474  140.8617 C   0  0  0  0  0  0  0  0  0  0  0  0
  -25.4776   -4.4045  138.5504 C   0  0  0  0  0  0  0  0  0  0  0  0
  -23.6230   -3.8294  139.4934 C   0  0  0  0  0  0  0  0  0  0  0  0
  -21.6449   -0.1159  140.2057 C   0  0  0  0  0  0  0  0  0  0  0  0
  -20.2031   -2.9848  142.0932 N   0  0  0  0  0  0  0  0  0  0  0  0
  -22.9271   -0.7608  141.8151 C   0  0  0  0  0  0  0  0  0  0  0  0
  -23.6178   -1.9855  141.7185 O   0  0  0  0  0  0  0  0  0  0  0  0
  4  3  1  0
  5  4  1  0
  6  5  1  0
  8  1  1  0
  9  7  1  0
 10  1  1  0
 10  2  1  0
 10  8  1  0
 11  1  1  0
 11  2  1  0
 11  3  1  0
 12  6  1  0
 12  7  1  0
 13  5  1  0
 14  6  1  0
 14  7  1  0
 15  4  1  0
 15 14  1  0
M  END
$$$$

     RDKit          3D

 15 17  0  0  0  0  0  0  0  0999 V2000
  -35.1804   -6.7688  148.1472 O   0  0  0  0  0  0  0  0  0  0  0  0
  -34.3300   -7.3477  149.1380 C   0  0  0  0  0  0  0  0  0  0  0  0
  -33.7655   -6.4634  150.0972 O   0  0  0  0  0  0  0  0  0  0  0  0
  -33.3808   -8.4346  148.5703 C   0  0  0  0  0  0  0  0  0  0  0  0
  -31.9198   -8.3593  149.0170 C   0  0  0  0  0  0  0  0  0  0  0  0
  -31.2082   -7.0226  148.7289 C   0  0  0  0  0  0  0  0  0  0  0  0
  -31.1809   -6.6223  147.1974 C   0  0  0  0  0  0  0  0  0  0  0  0
  -32.1664   -5.5000  146.7182 C   0  0  0  0  0  0  0  0  0  0  0  0
  -33.6164   -5.9452  146.3766 C   0  0  0  0  0  0  0  0  0  0  0  0
  -34.7031   -5.6379  147.4349 C   0  0  0  0  0  0  0  0  0  0  0  0
  -29.6987   -6.4302  146.7242 C   0  0  0  0  0  0  0  0  0  0  0  0
  -29.2038   -5.1637  146.0170 C   0  0  0  0  0  0  0  0  0  0  0  0
  -31.6652   -5.9413  149.7195 C   0  0  0  0  0  0  0  0  0  0  0  0
  -28.8882   -5.3828  147.4829 C   0  0  0  0  0  0  0  0  0  0  0  0
  -32.9932   -5.5868  149.4830 O   0  0  0  0  0  0  0  0  0  0  0  0
  2  1  1  0
  3  2  1  0
  4  2  1  0
  5  4  1  0
  6  5  1  0
  7  6  1  0
  8  7  1  0
  9  8  1  0
 10  1  1  0
 10  9  1  0
 11  7  1  0
 12 11  1  0
 13  6  1  0
 14 11  1  0
 14 12  1  0
 15  3  1  0
 15 13  1  0
M  END
$$$$

     RDKit          3D

 15 18  0  0  0  0  0  0  0  0999 V2000
  -30.7639  -12.0246  136.9447 Si  0  0  0  0  0  4  0  0  0  0  0  0
  -26.3870  -15.6248  137.3890 C   0  0  0  0  0  0  0  0  0  0  0  0
  -26.3412  -13.9614  138.7579 C   0  0  0  0  0  0  0  0  0  0  0  0
  -27.1999  -12.6717  138.8350 C   0  0  0  0  0  0  0  0  0  0  0  0
  -28.1642  -12.5421  140.0469 C   0  0  0  0  0  0  0  0  0  0  0  0
  -25.7711  -14.2328  137.3676 C   0  0  0  0  0  0  0  0  0  0  0  0
  -26.9884  -15.3441  138.7607 C   0  0  0  0  0  0  0  0  0  0  0  0
  -29.8961  -13.9743  139.1937 O   0  0  0  0  0  0  0  0  0  0  0  0
  -29.3787  -12.6722  139.1018 C   0  0  0  0  0  0  0  0  0  0  0  0
  -28.4169  -12.4764  137.9305 C   0  0  0  0  0  0  0  0  0  0  0  0
  -29.0835  -12.7787  136.5833 C   0  0  0  0  0  0  0  0  0  0  0  0
  -31.2041  -10.6255  135.7929 C   0  0  0  0  0  0  0  0  0  0  0  0
  -31.1629  -13.7656  136.4300 C   0  0  0  0  0  0  0  0  0  0  0  0
  -29.6875  -14.1566  136.2758 C   0  0  0  0  0  0  0  0  0  0  0  0
  -30.5102  -11.6816  138.8072 C   0  0  0  0  0  0  0  0  0  0  0  0
  4  3  1  0
  5  4  1  0
  6  2  1  0
  6  3  1  0
  7  2  1  0
  7  3  1  0
  9  5  1  0
  9  8  1  0
 10  4  1  0
 10  9  1  0
 11  1  1  0
 11 10  1  0
 12  1  1  0
 13  1  1  0
 14 11  1  0
 14 13  1  0
 15  1  1  0
 15  9  1  0
M  END
$$$$

     RDKit          3D

 15 17  0  0  0  0  0  0  0  0999 V2000
  -31.1702   -6.4687  139.7461 O   0  0  0  0  0  0  0  0  0  0  0  0
  -30.6868   -7.3091  138.7298 C   0  0  0  0  0  0  0  0  0  0  0  0
  -30.3546   -6.4532  137.4896 C   0  0  0  0  0  0  0  0  0  0  0  0
  -29.4370   -8.0590  139.2454 C   0  0  0  0  0  0  0  0  0  0  0  0
  -29.1269   -9.3463  138.4391 C   0  0  0  0  0  0  0  0  0  0  0  0
  -31.6251   -6.0231  136.7191 C   0  0  0  0  0  0  0  0  0  0  0  0
  -29.7513  -10.6118  138.9776 C   0  0  0  0  0  0  0  0  0  0  0  0
  -31.5377   -5.9633  135.2568 C   0  0  0  0  0  0  0  0  0  0  0  0
  -31.0508  -11.0666  138.3185 C   0  0  0  0  0  0  0  0  0  0  0  0
  -32.6501   -5.1051  137.3919 C   0  0  0  0  0  0  0  0  0  0  0  0
  -31.0325  -10.6904  139.7972 C   0  0  0  0  0  0  0  0  0  0  0  0
  -27.6440   -9.7243  138.5349 C   0  0  0  0  0  0  0  0  0  0  0  0
  -32.2559   -7.0840  135.9049 N   0  0  0  0  0  0  0  0  0  0  0  0
  -27.5111  -11.1333  138.5484 O   0  0  0  0  0  0  0  0  0  0  0  0
  -28.6744  -11.6545  139.1477 C   0  0  0  0  0  0  0  0  0  0  0  0
  2  1  1  0
  3  2  1  0
  4  2  1  0
  5  4  1  0
  6  3  1  0
  7  5  1  0
  8  6  1  0
  9  7  1  0
 10  6  1  0
 11  7  1  0
 11  9  1  0
 12  5  1  0
 13  6  1  0
 13  8  1  0
 14 12  1  0
 15  7  1  0
 15 14  1  0
M  END
$$$$

     RDKit          3D

 15 16  0  0  0  0  0  0  0  0999 V2000
  -23.0034   -7.8872  136.3741 O   0  0  0  0  0  0  0  0  0  0  0  0
  -23.7775   -8.3096  135.4250 C   0  0  0  0  0  0  0  0  0  0  0  0
  -22.7436   -8.1757  134.7398 O   0  0  0  0  0  0  0  0  0  0  0  0
  -24.8960   -8.2816  136.3754 C   0  0  0  0  0  0  0  0  0  0  0  0
  -24.7384   -9.0963  137.5842 C   0  0  0  0  0  0  0  0  0  0  0  0
  -25.5979   -8.9317  138.5891 C   0  0  0  0  0  0  0  0  0  0  0  0
  -26.3053   -7.7581  138.7480 C   0  0  0  0  0  0  0  0  0  0  0  0
  -26.3244   -6.8323  137.7111 C   0  0  0  0  0  0  0  0  0  0  0  0
  -27.5163   -6.2479  137.3148 C   0  0  0  0  0  0  0  0  0  0  0  0
  -28.4348   -7.0218  136.6490 C   0  0  0  0  0  0  0  0  0  0  0  0
  -25.1002   -6.2387  137.3833 C   0  0  0  0  0  0  0  0  0  0  0  0
  -28.2355   -8.2786  136.2770 C   0  0  0  0  0  0  0  0  0  0  0  0
  -27.0451   -8.7533  136.5261 C   0  0  0  0  0  0  0  0  0  0  0  0
  -26.6219   -9.4588  137.6779 C   0  0  0  0  0  0  0  0  0  0  0  0
  -25.8489   -8.6929  135.2564 C   0  0  0  0  0  0  0  0  0  0  0  0
  2  1  1  0
  3  2  1  0
  4  2  1  0
  5  4  1  0
  6  5  1  0
  7  6  1  0
  8  7  1  0
  9  8  1  0
 10  9  1  0
 11  8  1  0
 12 10  2  3
 13 12  1  0
 14  6  1  0
 14 13  1  0
 15  4  1  0
 15 13  1  0
M  END
$$$$

     RDKit          3D

 15 20  0  0  0  0  0  0  0  0999 V2000
  -27.2962   -0.3224  145.2884 C   0  0  0  0  0  0  0  0  0  0  0  0
  -27.5094   -1.0243  146.6189 C   0  0  0  0  0  0  0  0  0  0  0  0
  -28.4235   -0.7543  144.3525 C   0  0  0  0  0  0  0  0  0  0  0  0
  -27.3529   -0.1561  147.8830 C   0  0  0  0  0  0  0  0  0  0  0  0
  -28.6593   -2.2508  144.0940 C   0  0  0  0  0  0  0  0  0  0  0  0
  -28.8900   -2.9260  145.4414 C   0  0  0  0  0  0  0  0  0  0  0  0
  -28.7914   -1.8468  146.5286 C   0  0  0  0  0  0  0  0  0  0  0  0
  -28.6968   -0.5101  145.8209 C   0  0  0  0  0  0  0  0  0  0  0  0
  -27.1370   -1.0105  149.0579 N   0  0  0  0  0  0  0  0  0  0  0  0
  -27.6579   -3.2781  144.6124 C   0  0  0  0  0  0  0  0  0  0  0  0
  -25.7781   -1.5799  149.0631 C   0  0  0  0  0  0  0  0  0  0  0  0
  -25.5439   -2.4679  150.2757 C   0  0  0  0  0  0  0  0  0  0  0  0
  -24.5267   -1.4185  150.6859 C   0  0  0  0  0  0  0  0  0  0  0  0
  -23.6183   -0.5669  148.5966 C   0  0  0  0  0  0  0  0  0  0  0  0
  -24.7808   -0.5872  149.4994 N   0  0  0  0  0  0  0  0  0  0  0  0
  2  1  1  0
  3  1  1  0
  4  2  1  0
  5  3  1  0
  6  5  1  0
  7  2  1  0
  7  6  1  0
  8  1  1  0
  8  2  1  0
  8  3  1  0
  8  7  1  0
  9  4  1  0
 10  5  1  0
 10  6  1  0
 11  9  1  0
 12 11  1  0
 13 12  1  0
 15 11  1  0
 15 13  1  0
 15 14  1  0
M  END
$$$$

     RDKit          3D

 14 16  0  0  0  0  0  0  0  0999 V2000
  -26.4004  -10.0829  154.6201 C   0  0  0  0  0  0  0  0  0  0  0  0
  -28.1193  -10.7365  152.9576 C   0  0  0  0  0  0  0  0  0  0  0  0
  -27.6109  -10.9876  151.5165 C   0  0  0  0  0  0  0  0  0  0  0  0
  -27.0899  -11.0642  154.0123 C   0  0  0  0  0  0  0  0  0  0  0  0
  -26.3545  -10.1187  151.2050 C   0  0  0  0  0  0  0  0  0  0  0  0
  -26.7493  -12.5049  154.2797 C   0  0  0  0  0  0  0  0  0  0  0  0
  -25.9291  -13.0816  153.1209 C   0  0  0  0  0  0  0  0  0  0  0  0
  -25.1279  -10.7448  150.5212 C   0  0  0  0  0  0  0  0  0  0  0  0
  -26.0687   -9.8559  149.7218 C   0  0  0  0  0  0  0  0  0  0  0  0
  -26.8717  -10.5401  148.7994 O   0  0  0  0  0  0  0  0  0  0  0  0
  -28.1340  -13.3599  152.0045 O   0  0  0  0  0  0  0  0  0  0  0  0
  -25.5447   -8.4774  149.3158 C   0  0  0  0  0  0  0  0  0  0  0  0
  -27.4987  -12.4830  151.0965 C   0  0  0  0  0  0  0  0  0  0  0  0
  -26.7353  -13.4986  151.8762 C   0  0  0  0  0  0  0  0  0  0  0  0
  3  2  1  0
  4  1  2  0
  4  2  1  0
  5  3  1  0
  6  4  1  0
  7  6  1  0
  8  5  1  0
  9  5  1  0
  9  8  1  0
 10  9  1  0
 12  9  1  0
 13  3  1  0
 13 11  1  0
 14  7  1  0
 14 11  1  0
 14 13  1  0
M  END
$$$$

     RDKit          3D

 14 15  0  0  0  0  0  0  0  0999 V2000
  -22.1081   -5.3032  135.4018 C   0  0  0  0  0  0  0  0  0  0  0  0
  -22.0381   -6.8667  133.4257 C   0  0  0  0  0  0  0  0  0  0  0  0
  -20.9393   -3.3020  135.4833 C   0  0  0  0  0  0  0  0  0  0  0  0
  -19.6222   -2.9618  134.7847 C   0  0  0  0  0  0  0  0  0  0  0  0
  -21.7641   -4.1168  134.6139 N   0  0  0  0  0  0  0  0  0  0  0  0
  -21.1357   -7.6372  132.4689 C   0  0  0  0  0  0  0  0  0  0  0  0
  -21.4363   -6.5459  134.8009 C   0  0  0  0  0  0  0  0  0  0  0  0
  -21.6974   -5.1370  136.7394 O   0  0  0  0  0  0  0  0  0  0  0  0
  -21.3832   -6.1480  132.2504 C   0  0  0  0  0  0  0  0  0  0  0  0
  -20.7303   -4.1259  136.7373 C   0  0  0  0  0  0  0  0  0  0  0  0
  -22.3696   -5.7728  131.1328 C   0  0  0  0  0  0  0  0  0  0  0  0
  -21.6378   -5.3534  129.8449 C   0  0  0  0  0  0  0  0  0  0  0  0
  -20.5458   -3.2254  130.7494 C   0  0  0  0  0  0  0  0  0  0  0  0
  -21.4755   -3.8307  129.6994 C   0  0  0  0  0  0  0  0  0  0  0  0
  4  3  1  0
  5  1  1  0
  5  3  1  0
  6  2  1  0
  7  1  1  0
  7  2  1  0
  8  1  1  0
  9  2  1  0
  9  6  1  0
 10  3  1  0
 10  8  1  0
 11  9  1  0
 12 11  1  0
 14 12  1  0
 14 13  1  0
M  END
$$$$

     RDKit          3D

 15 16  0  0  0  0  0  0  0  0999 V2000
  -22.0992  -12.0115  155.4280 O   0  0  0  0  0  0  0  0  0  0  0  0
  -20.8236  -11.5171  155.7959 C   0  0  0  0  0  0  0  0  0  0  0  0
  -19.1802   -9.7819  155.5124 N   0  0  0  0  0  0  0  0  0  0  0  0
  -21.6270   -9.3012  155.2567 N   0  0  0  0  0  0  0  0  0  0  0  0
  -18.6973   -8.4493  155.1456 C   0  0  0  0  0  0  0  0  0  0  0  0
  -20.4907  -10.2371  154.9734 C   0  0  0  0  0  0  0  0  0  0  0  0
  -19.4616   -7.4650  155.7353 F   0  0  0  0  0  0  0  0  0  0  0  0
  -22.4482  -13.0917  156.2627 C   0  0  0  0  0  0  0  0  0  0  0  0
  -21.1763   -7.4354  153.4872 C   0  0  0  0  0  0  0  0  0  0  0  0
  -22.5576   -7.9998  153.2612 C   0  0  0  0  0  0  0  0  0  0  0  0
  -20.3922  -10.6873  153.4889 C   0  0  0  0  0  0  0  0  0  0  0  0
  -23.4677   -7.8069  154.4597 C   0  0  0  0  0  0  0  0  0  0  0  0
  -21.9562   -7.9668  154.6829 C   0  0  0  0  0  0  0  0  0  0  0  0
  -24.4439   -8.9931  154.5908 C   0  0  0  0  0  0  0  0  0  0  0  0
  -25.2650   -8.8884  155.8688 C   0  0  0  0  0  0  0  0  0  0  0  0
  2  1  1  0
  5  3  1  0
  6  2  1  0
  6  3  1  0
  6  4  1  0
  7  5  1  0
  8  1  1  0
 10  9  1  0
 11  6  1  0
 12 10  1  0
 13  4  1  0
 13  9  1  0
 13 10  1  0
 13 12  1  0
 14 12  1  0
 15 14  1  0
M  END
$$$$

     RDKit          3D

 14 17  0  0  0  0  0  0  0  0999 V2000
  -23.7564   -5.4521  134.4596 C   0  0  0  0  0  0  0  0  0  0  0  0
  -24.1878   -2.9702  134.2045 C   0  0  0  0  0  0  0  0  0  0  0  0
  -23.0373   -2.2601  134.5586 O   0  0  0  0  0  0  0  0  0  0  0  0
  -25.3801   -2.0148  134.2645 C   0  0  0  0  0  0  0  0  0  0  0  0
  -19.7430  -10.8159  133.3981 S   0  0  0  0  0  4  0  0  0  0  0  0
  -26.7776   -1.2192  132.8413 O   0  0  0  0  0  0  0  0  0  0  0  0
  -26.3204   -2.3669  133.2952 O   0  0  0  0  0  0  0  0  0  0  0  0
  -23.5067   -3.1172  135.5672 C   0  0  0  0  0  0  0  0  0  0  0  0
  -23.8143   -7.7407  130.7926 C   0  0  0  0  0  0  0  0  0  0  0  0
  -25.2305   -7.2005  130.7303 C   0  0  0  0  0  0  0  0  0  0  0  0
  -24.4257   -4.2021  135.0351 C   0  0  0  0  0  0  0  0  0  0  0  0
  -24.5969   -4.4400  130.9184 C   0  0  0  0  0  0  0  0  0  0  0  0
  -25.3191   -5.6416  129.5608 Se  0  0  0  0  0  2  0  0  0  0  0  0
  -24.5772   -3.0138  130.3941 C   0  0  0  0  0  0  0  0  0  0  0  0
  3  2  1  0
  4  2  1  0
  5  4  1  0
  6  5  1  0
  7  4  1  0
  7  6  1  0
  8  2  1  0
  8  3  1  0
  9  5  1  0
 10  5  1  0
 10  9  1  0
 11  1  1  0
 11  2  1  0
 11  8  1  0
 13 10  1  0
 13 12  1  0
 14 12  1  0
M  END
$$$$

     RDKit          3D

 11 15  0  0  0  0  0  0  0  0999 V2000
  -26.3336   -1.7237  134.2661 C   0  0  0  0  0  0  0  0  0  0  0  0
  -25.1573   -2.7248  134.3179 C   0  0  0  0  0  0  0  0  0  0  0  0
  -25.5312   -4.0008  133.5471 C   0  0  0  0  0  0  0  0  0  0  0  0
  -24.3925   -4.8581  133.0232 C   0  0  0  0  0  0  0  0  0  0  0  0
  -26.1809   -0.6443  133.2498 C   0  0  0  0  0  0  0  0  0  0  0  0
  -24.9953    0.2668  133.1386 C   0  0  0  0  0  0  0  0  0  0  0  0
  -25.2559    0.7829  134.5238 C   0  0  0  0  0  0  0  0  0  0  0  0
  -25.2167   -3.9168  132.0803 C   0  0  0  0  0  0  0  0  0  0  0  0
  -23.8601   -4.4148  131.6793 C   0  0  0  0  0  0  0  0  0  0  0  0
  -25.0964   -0.1271  135.6383 N   0  0  0  0  0  0  0  0  0  0  0  0
  -26.3135   -0.2594  134.7733 C   0  0  0  0  0  0  0  0  0  0  0  0
  2  1  1  0
  3  2  1  0
  4  3  1  0
  5  1  1  0
  6  5  1  0
  7  6  1  0
  8  3  1  0
  8  4  1  0
  9  4  1  0
  9  8  1  0
 10  7  1  0
 11  1  1  0
 11  5  1  0
 11  7  1  0
 11 10  1  0
M  END
$$$$

     RDKit          3D

 35 35  0  0  0  0  0  0  0  0999 V2000
  -28.9821  -20.0034  138.1009 O   0  0  0  0  0  3  0  0  0  0  0  0
  -28.8402  -19.1887  136.9212 S   0  0  0  0  0  4  0  0  0  0  0  0
  -28.2782  -18.3185  135.9233 O   0  0  0  0  0  0  0  0  0  0  0  0
  -28.1044  -17.7471  136.7934 N   0  0  0  0  0  0  0  0  0  0  0  0
  -29.3840  -18.4311  135.3819 C   0  0  0  0  0  0  0  0  0  0  0  0
  -30.6527  -18.2601  136.1300 C   0  0  0  0  0  0  0  0  0  0  0  0
  -31.4570  -17.0256  135.9352 C   0  0  0  0  0  0  0  0  0  0  0  0
  -31.0412  -18.1352  135.6775 O   0  0  0  0  0  0  0  0  0  0  0  0
  -27.5623  -18.4295  137.8469 C   0  0  0  0  0  0  0  0  0  0  0  0
  -30.6761  -18.1734  135.3755 C   0  0  0  0  0  0  0  0  0  0  0  0
  -30.3135  -16.2729  136.1504 C   0  0  0  0  0  0  0  0  0  0  0  0
  -32.0202  -17.7630  136.8577 C   0  0  0  0  0  0  0  0  0  0  0  0
  -26.2102  -18.2375  138.1673 C   0  0  0  0  0  0  0  0  0  0  0  0
  -27.3148  -17.3777  137.8075 C   0  0  0  0  0  0  0  0  0  0  0  0
  -26.3876  -17.5573  138.6885 C   0  0  0  0  0  0  0  0  0  0  0  0
  -28.8835  -19.4370  138.9069 H   0  0  0  0  0  0  0  0  0  0  0  0
  -28.8355  -17.4882  135.2397 H   0  0  0  0  0  0  0  0  0  0  0  0
  -29.1810  -19.1434  134.5686 H   0  0  0  0  0  0  0  0  0  0  0  0
  -29.5654  -18.2645  135.9631 H   0  0  0  0  0  0  0  0  0  0  0  0
  -30.5099  -19.0336  136.8989 H   0  0  0  0  0  0  0  0  0  0  0  0
  -32.0976  -16.4431  135.2566 H   0  0  0  0  0  0  0  0  0  0  0  0
  -28.1373  -19.2689  138.2648 H   0  0  0  0  0  0  0  0  0  0  0  0
  -30.6994  -17.1911  134.8811 H   0  0  0  0  0  0  0  0  0  0  0  0
  -30.9318  -19.2126  135.1211 H   0  0  0  0  0  0  0  0  0  0  0  0
  -30.1455  -16.1623  137.2318 H   0  0  0  0  0  0  0  0  0  0  0  0
  -29.4499  -16.7797  135.6950 H   0  0  0  0  0  0  0  0  0  0  0  0
  -30.4375  -15.2792  135.6950 H   0  0  0  0  0  0  0  0  0  0  0  0
  -31.7342  -17.3885  137.8517 H   0  0  0  0  0  0  0  0  0  0  0  0
  -33.1137  -17.7152  136.7485 H   0  0  0  0  0  0  0  0  0  0  0  0
  -31.6861  -18.8054  136.7485 H   0  0  0  0  0  0  0  0  0  0  0  0
  -25.7600  -19.0899  138.6971 H   0  0  0  0  0  0  0  0  0  0  0  0
  -25.4829  -18.1084  137.3523 H   0  0  0  0  0  0  0  0  0  0  0  0
  -27.2346  -16.2811  137.8390 H   0  0  0  0  0  0  0  0  0  0  0  0
  -26.7293  -17.8046  139.7044 H   0  0  0  0  0  0  0  0  0  0  0  0
  -25.6585  -16.7953  139.0011 H   0  0  0  0  0  0  0  0  0  0  0  0
  2  1  2  3
  4  3  2  0
  5  2  1  0
  7  6  1  0
  8  6  1  0
  9  2  1  0
 10  5  1  0
 10  8  1  0
 11  7  1  0
 12  7  1  0
 13  9  1  0
 14  4  1  0
 14  9  1  0
 15 13  1  0
 15 14  1  0
  1 16  1  0
  5 17  1  0
  5 18  1  0
  6 19  1  0
  6 20  1  0
  7 21  1  0
  9 22  1  0
 10 23  1  0
 10 24  1  0
 11 25  1  0
 11 26  1  0
 11 27  1  0
 12 28  1  0
 12 29  1  0
 12 30  1  0
 13 31  1  0
 13 32  1  0
 14 33  1  0
 15 34  1  0
 15 35  1  0
M  END
$$$$

     RDKit          3D

 15 21  0  0  0  0  0  0  0  0999 V2000
  -17.8837   -5.3450  141.5877 C   0  0  0  0  0  0  0  0  0  0  0  0
  -18.2609   -5.0943  140.1332 C   0  0  0  0  0  0  0  0  0  0  0  0
  -16.4444   -5.8896  141.8521 C   0  0  0  0  0  0  0  0  0  0  0  0
  -15.3178   -5.6040  140.8230 C   0  0  0  0  0  0  0  0  0  0  0  0
  -14.6596   -4.2194  141.0176 C   0  0  0  0  0  0  0  0  0  0  0  0
  -19.0370   -4.4292  141.2870 C   0  0  0  0  0  0  0  0  0  0  0  0
  -14.7161   -3.4822  142.3481 C   0  0  0  0  0  0  0  0  0  0  0  0
  -15.5942   -4.0831  143.4610 C   0  0  0  0  0  0  0  0  0  0  0  0
  -15.9762   -5.5609  143.2789 C   0  0  0  0  0  0  0  0  0  0  0  0
  -18.6930   -2.9693  141.4307 C   0  0  0  0  0  0  0  0  0  0  0  0
  -19.2883   -2.0613  140.3582 C   0  0  0  0  0  0  0  0  0  0  0  0
  -17.6712   -3.9515  140.9289 C   0  0  0  0  0  0  0  0  0  0  0  0
  -13.7294   -3.6838  139.9393 C   0  0  0  0  0  0  0  0  0  0  0  0
  -12.5683   -3.6980  140.9138 C   0  0  0  0  0  0  0  0  0  0  0  0
  -13.4638   -4.2627  142.0048 C   0  0  0  0  0  0  0  0  0  0  0  0
  2  1  1  0
  3  1  1  0
  4  3  1  0
  5  4  1  0
  6  1  1  0
  6  2  1  0
  7  5  1  0
  8  7  1  0
  9  3  1  0
  9  8  1  0
 10  6  1  0
 11 10  1  0
 12  1  1  0
 12  2  1  0
 12  6  1  0
 12 10  1  0
 13  5  1  0
 14 13  1  0
 15  5  1  0
 15  7  1  0
 15 14  1  0
M  END
$$$$

     RDKit          3D

 15 17  0  0  0  0  0  0  0  0999 V2000
  -25.1905  -13.9670  150.8286 N   0  0  0  0  0  0  0  0  0  0  0  0
  -25.2196  -13.4480  149.4450 C   0  0  0  0  0  0  0  0  0  0  0  0
  -25.7149  -12.1324  149.3666 O   0  0  0  0  0  0  0  0  0  0  0  0
  -24.4453  -14.5145  147.6990 C   0  0  0  0  0  0  0  0  0  0  0  0
  -23.9763  -15.9620  147.7253 C   0  0  0  0  0  0  0  0  0  0  0  0
  -25.8155  -14.4079  148.4056 C   0  0  0  0  0  0  0  0  0  0  0  0
  -24.5319  -13.9092  146.2658 C   0  0  0  0  0  0  0  0  0  0  0  0
  -22.7715  -16.3701  148.1402 C   0  0  0  0  0  0  0  0  0  0  0  0
  -23.8565  -13.5581  148.7631 C   0  0  0  0  0  0  0  0  0  0  0  0
  -23.2566  -13.8100  145.3873 C   0  0  0  0  0  0  0  0  0  0  0  0
  -26.5153  -13.9462  151.4551 C   0  0  0  0  0  0  0  0  0  0  0  0
  -21.9043  -13.6186  146.0661 C   0  0  0  0  0  0  0  0  0  0  0  0
  -20.7067  -13.5869  145.1418 C   0  0  0  0  0  0  0  0  0  0  0  0
  -22.7722  -15.1077  144.7623 C   0  0  0  0  0  0  0  0  0  0  0  0
  -21.4003  -14.9087  145.3924 C   0  0  0  0  0  0  0  0  0  0  0  0
  2  1  1  0
  3  2  1  0
  5  4  1  0
  6  2  1  0
  6  4  1  0
  7  4  1  0
  8  5  2  0
  9  2  1  0
  9  4  1  0
 10  7  1  0
 11  1  1  0
 12 10  1  0
 13 12  1  0
 14 10  1  0
 15 12  1  0
 15 13  1  0
 15 14  1  0
M  END
$$$$

     RDKit          3D

 15 17  0  0  0  0  0  0  0  0999 V2000
  -29.4937   -8.2002  132.1944 O   0  0  0  0  0  0  0  0  0  0  0  0
  -28.7433   -9.2800  132.7329 C   0  0  0  0  0  0  0  0  0  0  0  0
  -29.3445   -9.8573  134.0470 C   0  0  0  0  0  0  0  0  0  0  0  0
  -29.2399  -11.4512  134.1120 B   0  0  0  0  0  0  0  0  0  0  0  0
  -30.8007   -9.4027  134.2131 C   0  0  0  0  0  0  0  0  0  0  0  0
  -28.7304  -12.6672  133.1807 C   0  0  0  0  0  0  0  0  0  0  0  0
  -29.6949  -13.7638  132.7644 C   0  0  0  0  0  0  0  0  0  0  0  0
  -31.1289  -13.3563  132.5460 C   0  0  0  0  0  0  0  0  0  0  0  0
  -29.6542  -12.6221  135.1156 C   0  0  0  0  0  0  0  0  0  0  0  0
  -29.1716  -13.7135  134.1957 C   0  0  0  0  0  0  0  0  0  0  0  0
  -30.8943   -7.8705  134.1511 C   0  0  0  0  0  0  0  0  0  0  0  0
  -29.8319   -7.2767  133.2094 C   0  0  0  0  0  0  0  0  0  0  0  0
  -31.4293  -12.2662  131.5929 C   0  0  0  0  0  0  0  0  0  0  0  0
  -32.6119  -11.8931  131.3698 O   0  0  0  0  0  0  0  0  0  0  0  0
  -32.0911  -14.0612  133.1484 C   0  0  0  0  0  0  0  0  0  0  0  0
  2  1  1  0
  3  2  1  0
  4  3  1  0
  5  3  1  0
  6  4  1  0
  7  6  1  0
  8  7  1  0
  9  4  1  0
 10  6  1  0
 10  7  1  0
 10  9  1  0
 11  5  1  0
 12  1  1  0
 12 11  1  0
 13  8  1  0
 14 13  2  0
 15  8  2  0
M  END
$$$$

     RDKit          3D

  9  9  0  0  0  0  0  0  0  0999 V2000
  -21.8967  -13.3827  153.5607 C   0  0  0  0  0  0  0  0  0  0  0  0
  -22.2323  -14.7999  153.4864 N   0  0  0  0  0  0  0  0  0  0  0  0
  -23.2546  -12.8833  153.2962 N   0  0  0  0  0  0  0  0  0  0  0  0
  -22.1703  -15.3192  154.7373 F   0  0  0  0  0  0  0  0  0  0  0  0
  -26.2613  -12.8797  154.1425 N   0  0  0  0  0  0  0  0  0  0  0  0
  -23.8575  -12.1645  154.4500 C   0  0  0  0  0  0  0  0  0  0  0  0
  -25.3240  -11.7582  154.1297 C   0  0  0  0  0  0  0  0  0  0  0  0
  -23.5884  -14.3142  153.2584 C   0  0  0  0  0  0  0  0  0  0  0  0
  -23.0751  -10.8628  154.7278 C   0  0  0  0  0  0  0  0  0  0  0  0
  2  1  1  0
  3  1  1  0
  4  2  1  0
  6  3  1  0
  7  5  1  0
  7  6  1  0
  8  2  1  0
  8  3  1  0
  9  6  1  0
M  END
$$$$

     RDKit          3D

 14 16  0  0  0  0  0  0  0  0999 V2000
  -21.1182  -13.2743  137.2757 C   0  0  0  0  0  0  0  0  0  0  0  0
  -20.4625  -14.3232  136.3798 C   0  0  0  0  0  0  0  0  0  0  0  0
  -21.4510  -13.7204  138.5700 O   0  0  0  0  0  0  0  0  0  0  0  0
  -19.4181  -12.2676  138.9362 C   0  0  0  0  0  0  0  0  0  0  0  0
  -21.0448  -13.4401  134.0831 C   0  0  0  0  0  0  0  0  0  0  0  0
  -18.5092  -11.5274  137.9409 C   0  0  0  0  0  0  0  0  0  0  0  0
  -18.6143  -12.6529  140.1927 C   0  0  0  0  0  0  0  0  0  0  0  0
  -19.5290  -13.2168  141.2968 C   0  0  0  0  0  0  0  0  0  0  0  0
  -19.9160  -13.7553  135.0603 C   0  0  0  0  0  0  0  0  0  0  0  0
  -19.0156  -13.0181  142.7171 C   0  0  0  0  0  0  0  0  0  0  0  0
  -19.3931  -14.5563  137.4353 C   0  0  0  0  0  0  0  0  0  0  0  0
  -20.0788  -13.5305  138.3254 C   0  0  0  0  0  0  0  0  0  0  0  0
  -20.2368  -12.2432  142.2389 C   0  0  0  0  0  0  0  0  0  0  0  0
  -19.9256  -10.4911  142.0454 Cl  0  0  0  0  0  0  0  0  0  0  0  0
  2  1  1  0
  3  1  1  0
  6  4  1  0
  7  4  1  0
  8  7  1  0
  9  2  1  0
  9  5  1  0
 10  8  1  0
 11  2  1  0
 12  1  1  0
 12  3  1  0
 12  4  1  0
 12 11  1  0
 13  8  1  0
 13 10  1  0
 14 13  1  0
M  END
$$$$

     RDKit          3D

 15 18  0  0  0  0  0  0  0  0999 V2000
  -31.9966  -10.9555  136.5339 C   0  0  0  0  0  0  0  0  0  0  0  0
  -32.0214  -12.3943  136.0457 C   0  0  0  0  0  0  0  0  0  0  0  0
  -31.7286  -10.8031  138.0353 C   0  0  0  0  0  0  0  0  0  0  0  0
  -31.7299   -9.3728  138.5371 C   0  0  0  0  0  0  0  0  0  0  0  0
  -33.3212  -11.6216  136.2007 C   0  0  0  0  0  0  0  0  0  0  0  0
  -30.5614   -9.0849  139.4707 C   0  0  0  0  0  0  0  0  0  0  0  0
  -30.6451   -9.5948  140.9623 C   0  0  0  0  0  0  0  0  0  0  0  0
  -30.4100  -10.1418  138.3815 C   0  0  0  0  0  0  0  0  0  0  0  0
  -29.8982   -8.5859  141.8875 C   0  0  0  0  0  0  0  0  0  0  0  0
  -30.1999   -7.1173  141.6646 C   0  0  0  0  0  0  0  0  0  0  0  0
  -31.4138   -6.5717  141.4642 C   0  0  0  0  0  0  0  0  0  0  0  0
  -32.7036   -7.3249  141.2606 C   0  0  0  0  0  0  0  0  0  0  0  0
  -32.8154   -8.5919  142.1063 C   0  0  0  0  0  0  0  0  0  0  0  0
  -29.8972  -10.9491  141.0952 C   0  0  0  0  0  0  0  0  0  0  0  0
  -32.1120   -9.8122  141.4829 C   0  0  0  0  0  0  0  0  0  0  0  0
  2  1  1  0
  3  1  1  0
  4  3  1  0
  5  1  1  0
  5  2  1  0
  6  4  1  0
  7  6  1  0
  8  3  1  0
  8  4  1  0
  8  6  1  0
  9  7  1  0
 10  9  1  0
 11 10  2  0
 12 11  1  0
 13 12  1  0
 14  7  1  0
 15  7  1  0
 15 13  1  0
M  END
$$$$

     RDKit          3D

 15 18  0  0  0  0  0  0  0  0999 V2000
  -26.7014   -9.6424  145.0975 C   0  0  0  0  0  0  0  0  0  0  0  0
  -26.6683  -11.1047  145.4642 C   0  0  0  0  0  0  0  0  0  0  0  0
  -26.1328  -11.5564  146.6093 C   0  0  0  0  0  0  0  0  0  0  0  0
  -25.3313  -10.6815  147.5401 C   0  0  0  0  0  0  0  0  0  0  0  0
  -25.6322   -8.8046  145.8356 C   0  0  0  0  0  0  0  0  0  0  0  0
  -24.2230   -8.9552  145.1814 C   0  0  0  0  0  0  0  0  0  0  0  0
  -25.6038   -9.1743  147.3448 C   0  0  0  0  0  0  0  0  0  0  0  0
  -23.8386   -7.7497  144.2818 C   0  0  0  0  0  0  0  0  0  0  0  0
  -23.4112   -6.4837  145.0265 C   0  0  0  0  0  0  0  0  0  0  0  0
  -24.7026   -7.4140  143.0439 C   0  0  0  0  0  0  0  0  0  0  0  0
  -24.0466   -7.4817  141.6649 C   0  0  0  0  0  0  0  0  0  0  0  0
  -22.3687   -7.3786  144.2931 C   0  0  0  0  0  0  0  0  0  0  0  0
  -24.9846   -8.5835  142.1062 C   0  0  0  0  0  0  0  0  0  0  0  0
  -21.9525   -6.4997  145.4334 C   0  0  0  0  0  0  0  0  0  0  0  0
  -26.8941   -8.7497  148.0675 C   0  0  0  0  0  0  0  0  0  0  0  0
  2  1  1  0
  3  2  2  0
  4  3  1  0
  5  1  1  0
  6  5  1  0
  7  4  1  0
  7  5  1  0
  8  6  1  0
  9  8  1  0
 10  8  1  0
 11 10  1  0
 12  8  1  0
 12  9  1  0
 13 10  1  0
 13 11  1  0
 14  9  1  0
 14 12  1  0
 15  7  1  0
M  END
$$$$

     RDKit          3D

 15 17  0  0  0  0  0  0  0  0999 V2000
  -19.0486   -8.5368  143.0086 O   0  0  0  0  0  0  0  0  0  0  0  0
  -18.1934   -9.1907  142.0824 C   0  0  0  0  0  0  0  0  0  0  0  0
  -16.0678   -8.3899  143.3149 C   0  0  0  0  0  0  0  0  0  0  0  0
  -14.2315   -9.8709  144.4148 C   0  0  0  0  0  0  0  0  0  0  0  0
  -15.6524   -9.7986  143.8261 C   0  0  0  0  0  0  0  0  0  0  0  0
  -16.8413   -8.4698  141.9862 C   0  0  0  0  0  0  0  0  0  0  0  0
  -14.9455   -7.5571  143.1156 O   0  0  0  0  0  0  0  0  0  0  0  0
  -20.1267   -7.8592  142.3702 C   0  0  0  0  0  0  0  0  0  0  0  0
  -19.7201   -6.5158  141.9261 N   0  0  0  0  0  0  0  0  0  0  0  0
  -21.3005   -7.7321  143.3377 C   0  0  0  0  0  0  0  0  0  0  0  0
  -19.0190   -5.7774  142.9994 C   0  0  0  0  0  0  0  0  0  0  0  0
  -19.6573   -4.4362  143.3010 C   0  0  0  0  0  0  0  0  0  0  0  0
  -13.9437  -11.2482  144.9991 C   0  0  0  0  0  0  0  0  0  0  0  0
  -20.4841   -5.5425  142.7185 C   0  0  0  0  0  0  0  0  0  0  0  0
  -21.3269   -6.2835  143.7583 C   0  0  0  0  0  0  0  0  0  0  0  0
  2  1  1  0
  5  3  1  0
  5  4  1  0
  6  2  1  0
  6  3  1  0
  7  3  1  0
  8  1  1  0
  9  8  1  0
 10  8  1  0
 11  9  1  0
 12 11  1  0
 13  4  1  0
 14  9  1  0
 14 11  1  0
 14 12  1  0
 15 10  1  0
 15 14  1  0
M  END
$$$$

     RDKit          3D

 15 17  0  0  0  0  0  0  0  0999 V2000
  -26.3400  -17.7705  150.3600 N   0  0  0  0  0  0  0  0  0  0  0  0
  -26.4764  -15.6289  149.1320 C   0  0  0  0  0  0  0  0  0  0  0  0
  -27.4932  -16.6327  145.7433 N   0  0  0  0  0  0  0  0  0  0  0  0
  -26.2304  -16.2807  147.7582 C   0  0  0  0  0  0  0  0  0  0  0  0
  -26.0235  -15.6591  151.6247 C   0  0  0  0  0  0  0  0  0  0  0  0
  -25.8968  -16.8178  153.9075 C   0  0  0  0  0  0  0  0  0  0  0  0
  -25.8092  -16.4035  150.2886 C   0  0  0  0  0  0  0  0  0  0  0  0
  -27.3661  -13.6951  145.3942 N   0  0  0  0  0  0  0  0  0  0  0  0
  -27.7304  -14.3868  146.6324 C   0  0  0  0  0  0  0  0  0  0  0  0
  -27.1703  -15.8004  146.6725 C   0  0  0  0  0  0  0  0  0  0  0  0
  -26.1418  -15.3902  154.4828 C   0  0  0  0  0  0  0  0  0  0  0  0
  -26.0978  -15.2946  156.0117 C   0  0  0  0  0  0  0  0  0  0  0  0
  -25.1105  -16.2588  152.7282 C   0  0  0  0  0  0  0  0  0  0  0  0
  -24.7644  -15.1988  153.7860 C   0  0  0  0  0  0  0  0  0  0  0  0
  -24.3648  -16.6681  153.8904 C   0  0  0  0  0  0  0  0  0  0  0  0
  4  2  1  0
  7  1  1  0
  7  2  1  0
  7  5  1  0
  9  8  1  0
 10  3  2  0
 10  4  1  0
 10  9  1  0
 11  6  1  0
 12 11  1  0
 13  5  1  0
 13  6  1  0
 14 11  1  0
 14 13  1  0
 15  6  1  0
 15 13  1  0
 15 14  1  0
M  END
$$$$

     RDKit          3D

 11 12  0  0  0  0  0  0  0  0999 V2000
  -23.1422  -14.8642  154.1748 Sb  0  0  0  0  0  3  0  0  0  0  0  0
  -23.0593  -14.7228  156.2120 O   0  0  0  0  0  0  0  0  0  0  0  0
  -24.7730  -13.6664  154.0695 O   0  0  0  0  0  0  0  0  0  0  0  0
  -22.1355  -15.6630  156.6999 C   0  0  0  0  0  0  0  0  0  0  0  0
  -20.5666  -15.2746  156.4967 B   0  0  0  0  0  0  0  0  0  0  0  0
  -21.3905  -15.1753  157.8879 C   0  0  0  0  0  0  0  0  0  0  0  0
  -21.8672  -13.3103  153.9155 O   0  0  0  0  0  0  0  0  0  0  0  0
  -22.5185  -17.1570  156.5881 C   0  0  0  0  0  0  0  0  0  0  0  0
  -22.4134  -17.9101  157.9153 C   0  0  0  0  0  0  0  0  0  0  0  0
  -21.0604  -17.6505  158.5689 C   0  0  0  0  0  0  0  0  0  0  0  0
  -20.9352  -16.1759  158.9680 C   0  0  0  0  0  0  0  0  0  0  0  0
  2  1  1  0
  3  1  1  0
  4  2  1  0
  5  4  1  0
  6  4  1  0
  6  5  1  0
  7  1  1  0
  8  4  1  0
  9  8  1  0
 10  9  1  0
 11  6  1  0
 11 10  1  0
M  END
$$$$

     RDKit          3D

 11 12  0  0  0  0  0  0  0  0999 V2000
  -22.6248  -11.6157  135.7828 O   0  0  0  0  0  0  0  0  0  0  0  0
  -23.2394  -12.7411  135.1838 C   0  0  0  0  0  0  0  0  0  0  0  0
  -22.7134  -13.9251  135.7056 O   0  0  0  0  0  0  0  0  0  0  0  0
  -23.9669  -11.8608  136.1355 C   0  0  0  0  0  0  0  0  0  0  0  0
  -24.9576  -10.8710  135.5086 C   0  0  0  0  0  0  0  0  0  0  0  0
  -25.2455   -9.6943  136.4558 C   0  0  0  0  0  0  0  0  0  0  0  0
  -24.1228   -8.8547  136.5487 O   0  0  0  0  0  0  0  0  0  0  0  0
  -25.6336  -10.1986  137.8559 C   0  0  0  0  0  0  0  0  0  0  0  0
  -24.5180  -11.0480  138.4822 C   0  0  0  0  0  0  0  0  0  0  0  0
  -24.1766  -12.2750  137.6145 C   0  0  0  0  0  0  0  0  0  0  0  0
  -23.0731  -12.9610  138.1558 O   0  0  0  0  0  0  0  0  0  0  0  0
  2  1  1  0
  3  2  1  0
  4  1  1  0
  4  2  1  0
  5  4  1  0
  6  5  1  0
  7  6  1  0
  8  6  1  0
  9  8  1  0
 10  4  1  0
 10  9  1  0
 11 10  1  0
M  END
$$$$

     RDKit          3D

 15 17  0  0  0  0  0  0  0  0999 V2000
  -20.8958    0.2116  134.3322 C   0  0  0  0  0  0  0  0  0  0  0  0
  -19.9940    1.2853  133.9264 N   0  0  0  0  0  0  0  0  0  0  0  0
  -20.7493   -1.0020  133.4106 C   0  0  0  0  0  0  0  0  0  0  0  0
  -21.2088   -0.6764  131.9816 C   0  0  0  0  0  0  0  0  0  0  0  0
  -20.6034   -1.5355  130.8922 C   0  0  0  0  0  0  0  0  0  0  0  0
  -21.1151   -1.6820  129.4963 C   0  0  0  0  0  0  0  0  0  0  0  0
  -22.3698   -2.2711  129.2913 C   0  0  0  0  0  0  0  0  0  0  0  0
  -20.1700   -0.0633  131.0462 C   0  0  0  0  0  0  0  0  0  0  0  0
  -20.2854   -1.3498  128.3818 C   0  0  0  0  0  0  0  0  0  0  0  0
  -20.7870   -1.5850  127.0883 C   0  0  0  0  0  0  0  0  0  0  0  0
  -22.8344   -2.5038  127.9968 C   0  0  0  0  0  0  0  0  0  0  0  0
  -22.0447   -2.1634  126.8990 C   0  0  0  0  0  0  0  0  0  0  0  0
  -18.6381   -0.0986  131.0409 C   0  0  0  0  0  0  0  0  0  0  0  0
  -18.1017   -0.8307  129.7780 C   0  0  0  0  0  0  0  0  0  0  0  0
  -18.9425   -0.6058  128.4917 C   0  0  0  0  0  0  0  0  0  0  0  0
  2  1  1  0
  3  1  1  0
  4  3  1  0
  5  4  1  0
  6  5  1  0
  7  6  4  0
  8  4  1  0
  8  5  1  0
  9  6  4  0
 10  9  4  0
 11  7  4  0
 12 10  4  0
 12 11  4  0
 13  8  1  0
 14 13  1  0
 15  9  1  0
 15 14  1  0
M  END
$$$$

     RDKit          3D

 15 17  0  0  0  0  0  0  0  0999 V2000
  -29.1770   -6.0421  147.1037 C   0  0  0  0  0  0  0  0  0  0  0  0
  -29.8968   -4.9309  147.8314 C   0  0  0  0  0  0  0  0  0  0  0  0
  -28.2883   -6.2941  148.2798 C   0  0  0  0  0  0  0  0  0  0  0  0
  -29.2722   -3.6968  148.4100 C   0  0  0  0  0  0  0  0  0  0  0  0
  -28.5337   -2.6716  147.4666 C   0  0  0  0  0  0  0  0  0  0  0  0
  -26.8745   -0.7368  147.3574 C   0  0  0  0  0  0  0  0  0  0  0  0
  -27.3668   -5.2289  148.7413 C   0  0  0  0  0  0  0  0  0  0  0  0
  -27.2453   -2.0427  148.0733 C   0  0  0  0  0  0  0  0  0  0  0  0
  -28.4241   -3.0124  146.0332 N   0  0  0  0  0  0  0  0  0  0  0  0
  -27.4568   -1.7720  149.4360 O   0  0  0  0  0  0  0  0  0  0  0  0
  -28.8661   -5.0566  149.0158 C   0  0  0  0  0  0  0  0  0  0  0  0
  -27.2419   -3.7256  145.7681 N   0  0  0  0  0  2  0  0  0  0  0  0
  -26.8400   -3.4640  144.3868 C   0  0  0  0  0  0  0  0  0  0  0  0
  -25.4916   -3.9714  144.1599 N   0  0  0  0  0  0  0  0  0  0  0  0
  -27.7236   -4.0972  143.5100 O   0  0  0  0  0  1  0  0  0  0  0  0
  2  1  1  0
  3  1  1  0
  4  2  1  0
  5  4  1  0
  7  3  1  0
  8  5  1  0
  8  6  1  0
  9  5  1  0
 10  8  1  0
 11  2  1  0
 11  3  1  0
 11  4  1  0
 11  7  1  0
 12  9  1  0
 13 12  1  0
 14 13  1  0
 15 13  1  0
M  RAD  2  12   2  15   2
M  END
$$$$

     RDKit          3D

 14 16  0  0  0  0  0  0  0  0999 V2000
  -26.6821    1.1487  136.0869 F   0  0  0  0  0  0  0  0  0  0  0  0
  -25.0887   -0.0832  137.3722 C   0  0  0  0  0  0  0  0  0  0  0  0
  -25.2689   -1.4143  136.6241 C   0  0  0  0  0  0  0  0  0  0  0  0
  -25.1320   -2.6259  137.5570 C   0  0  0  0  0  0  0  0  0  0  0  0
  -23.7006   -2.7379  138.1246 C   0  0  0  0  0  0  0  0  0  0  0  0
  -25.3456    1.1161  136.4496 C   0  0  0  0  0  0  0  0  0  0  0  0
  -23.2162   -3.9534  138.9732 C   0  0  0  0  0  0  0  0  0  0  0  0
  -24.9841    2.4284  137.1449 C   0  0  0  0  0  0  0  0  0  0  0  0
  -23.3379   -4.8826  140.1189 C   0  0  0  0  0  0  0  0  0  0  0  0
  -23.5412   -2.5596  139.5930 C   0  0  0  0  0  0  0  0  0  0  0  0
  -24.2807   -5.0326  139.0076 N   0  0  0  0  0  0  0  0  0  0  0  0
  -26.3426   -6.1060  139.8748 C   0  0  0  0  0  0  0  0  0  0  0  0
  -25.6332   -4.7983  139.5538 C   0  0  0  0  0  0  0  0  0  0  0  0
  -26.7469   -5.3088  138.6506 C   0  0  0  0  0  0  0  0  0  0  0  0
  3  2  1  0
  4  3  1  0
  5  4  1  0
  6  1  1  0
  6  2  1  0
  7  5  1  0
  8  6  1  0
  9  7  1  0
 10  5  1  0
 10  7  1  0
 11  7  1  0
 11  9  1  0
 13 11  1  0
 13 12  1  0
 14 12  1  0
 14 13  1  0
M  END
$$$$

     RDKit          3D

 15 18  0  0  0  0  0  0  0  0999 V2000
  -25.5429   -3.2544  142.6584 O   0  0  0  0  0  0  0  0  0  0  0  0
  -24.1880   -3.1784  142.3053 C   0  0  0  0  0  0  0  0  0  0  0  0
  -23.5766   -2.0380  142.8710 O   0  0  0  0  0  0  0  0  0  0  0  0
  -22.9450   -4.5348  140.4457 C   0  0  0  0  0  0  0  0  0  0  0  0
  -23.1114   -4.8611  139.0826 O   0  0  0  0  0  0  0  0  0  0  0  0
  -23.8579   -3.3350  140.8014 C   0  0  0  0  0  0  0  0  0  0  0  0
  -21.5024   -4.2210  140.7801 C   0  0  0  0  0  0  0  0  0  0  0  0
  -21.3781   -4.6933  142.2314 C   0  0  0  0  0  0  0  0  0  0  0  0
  -23.1991   -3.2786  143.4325 C   0  0  0  0  0  0  0  0  0  0  0  0
  -21.6909   -3.5506  143.2173 C   0  0  0  0  0  0  0  0  0  0  0  0
  -23.1695   -5.7161  141.3830 C   0  0  0  0  0  0  0  0  0  0  0  0
  -22.2506   -5.7900  142.4401 O   0  0  0  0  0  0  0  0  0  0  0  0
  -24.4399   -6.4587  141.4932 C   0  0  0  0  0  0  0  0  0  0  0  0
  -23.7346   -3.4187  144.8630 C   0  0  0  0  0  0  0  0  0  0  0  0
  -23.3458   -6.9620  140.7526 O   0  0  0  0  0  0  0  0  0  0  0  0
  2  1  1  0
  3  2  1  0
  5  4  1  0
  6  2  1  0
  6  4  1  0
  7  4  1  0
  8  7  1  0
  9  2  1  0
  9  3  1  0
 10  8  1  0
 10  9  1  0
 11  4  1  0
 12  8  1  0
 12 11  1  0
 13 11  1  0
 14  9  1  0
 15 11  1  0
 15 13  1  0
M  END
$$$$

     RDKit          3D

 15 17  0  0  0  0  0  0  0  0999 V2000
  -19.2527   -8.7413  136.9977 C   0  0  0  0  0  0  0  0  0  0  0  0
  -21.7751   -8.4734  136.9585 C   0  0  0  0  0  0  0  0  0  0  0  0
  -23.1409   -8.6172  137.6212 C   0  0  0  0  0  0  0  0  0  0  0  0
  -21.3435   -7.5115  138.0780 C   0  0  0  0  0  0  0  0  0  0  0  0
  -23.4951   -6.3854  138.8759 C   0  0  0  0  0  0  0  0  0  0  0  0
  -22.6981   -7.7009  138.7526 C   0  0  0  0  0  0  0  0  0  0  0  0
  -20.5620   -8.7864  137.8150 C   0  0  0  0  0  0  0  0  0  0  0  0
  -18.0902   -8.3469  137.8217 N   0  0  0  0  0  0  0  0  0  0  0  0
  -24.9572   -6.5804  139.3323 C   0  0  0  0  0  0  0  0  0  0  0  0
  -25.1751   -6.5355  140.8679 C   0  0  0  0  0  0  0  0  0  0  0  0
  -26.6759   -6.4887  141.1765 C   0  0  0  0  0  0  0  0  0  0  0  0
  -24.7497   -9.1028  141.2446 C   0  0  0  0  0  0  0  0  0  0  0  0
  -24.4669   -7.6474  141.6813 C   0  0  0  0  0  0  0  0  0  0  0  0
  -18.5529   -7.4853  136.7219 C   0  0  0  0  0  0  0  0  0  0  0  0
  -26.0395   -9.6948  141.8317 C   0  0  0  0  0  0  0  0  0  0  0  0
  3  2  1  0
  4  2  1  0
  6  3  1  0
  6  4  1  0
  6  5  1  0
  7  1  1  0
  7  2  1  0
  7  4  1  0
  8  1  1  0
  9  5  1  0
 10  9  1  0
 11 10  1  0
 13 10  1  0
 13 12  1  0
 14  1  1  0
 14  8  1  0
 15 12  1  0
M  END
$$$$

     RDKit          3D

 15 21  0  0  0  0  0  0  0  0999 V2000
  -26.9006   -4.4866  149.5591 C   0  0  0  0  0  0  0  0  0  0  0  0
  -27.3743   -3.1309  149.5640 C   0  0  0  0  0  0  0  0  0  0  0  0
  -26.1855   -5.3648  148.5106 C   0  0  0  0  0  0  0  0  0  0  0  0
  -28.3671   -2.4335  150.4932 C   0  0  0  0  0  0  0  0  0  0  0  0
  -27.2709   -6.4818  146.9089 C   0  0  0  0  0  0  0  0  0  0  0  0
  -26.6696   -7.2572  145.7118 C   0  0  0  0  0  0  0  0  0  0  0  0
  -28.3427   -3.0920  151.8331 C   0  0  0  0  0  0  0  0  0  0  0  0
  -26.7240   -8.7718  145.7881 C   0  0  0  0  0  0  0  0  0  0  0  0
  -26.9003   -3.4333  152.0168 C   0  0  0  0  0  0  0  0  0  0  0  0
  -25.9676   -3.0535  149.5355 C   0  0  0  0  0  0  0  0  0  0  0  0
  -26.8460   -7.0579  148.5935 S   0  0  0  0  0  0  0  0  0  0  0  0
  -26.6394   -5.1069  147.0757 C   0  0  0  0  0  0  0  0  0  0  0  0
  -25.4624   -9.3930  145.2292 C   0  0  0  0  0  0  0  0  0  0  0  0
  -25.3765   -8.0348  145.8901 C   0  0  0  0  0  0  0  0  0  0  0  0
  -26.2927   -3.8429  150.6748 C   0  0  0  0  0  0  0  0  0  0  0  0
  2  1  1  0
  3  1  1  0
  4  2  1  0
  6  5  1  0
  7  4  1  0
  8  6  1  0
  9  7  1  0
 10  1  1  0
 10  2  1  0
 11  3  1  0
 11  5  1  0
 12  3  1  0
 12  5  1  0
 13  8  1  0
 14  6  1  0
 14  8  1  0
 14 13  1  0
 15  1  1  0
 15  2  1  0
 15  9  1  0
 15 10  1  0
M  END
$$$$

     RDKit          3D

 14 14  0  0  0  0  0  0  0  0999 V2000
  -27.5704    6.2208  141.5072 O   0  0  0  0  0  0  0  0  0  0  0  0
  -25.1772    9.5996  140.7249 C   0  0  0  0  0  0  0  0  0  0  0  0
  -28.1763    6.2097  140.2442 C   0  0  0  0  0  0  0  0  0  0  0  0
  -23.3580    8.7708  140.9566 C   0  0  0  0  0  0  0  0  0  0  0  0
  -25.3570   10.8267  140.0698 O   0  0  0  0  0  0  0  0  0  0  0  0
  -24.1425    9.6970  141.6734 O   0  0  0  0  0  0  0  0  0  0  0  0
  -24.4046    8.6066  139.8755 C   0  0  0  0  0  0  0  0  0  0  0  0
  -27.1595    5.9237  139.1243 C   0  0  0  0  0  0  0  0  0  0  0  0
  -26.2072    7.1111  138.8171 C   0  0  0  0  0  0  0  0  0  0  0  0
  -25.7296    7.1038  137.3319 C   0  0  0  0  0  0  0  0  0  0  0  0
  -25.2554    5.7515  136.7561 C   0  0  0  0  0  0  0  0  0  0  0  0
  -23.7780    4.1546  137.9526 C   0  0  0  0  0  0  0  0  0  0  0  0
  -23.9262    5.3145  137.3055 C   0  0  0  0  0  0  0  0  0  0  0  0
  -25.0282    7.1975  139.8241 C   0  0  0  0  0  0  0  0  0  0  0  0
  3  1  1  0
  5  2  1  0
  6  2  1  0
  6  4  1  0
  7  2  1  0
  7  4  1  0
  8  3  1  0
  9  8  1  0
 10  9  1  0
 11 10  1  0
 13 11  1  0
 13 12  2  0
 14  7  1  0
 14  9  1  0
M  END
$$$$

     RDKit          3D

 15 15  0  0  0  0  0  0  0  0999 V2000
  -24.4297   -4.3951  136.9311 O   0  0  0  0  0  0  0  0  0  0  0  0
  -24.8014   -5.1197  138.0676 C   0  0  0  0  0  0  0  0  0  0  0  0
  -26.5506   -5.7766  139.5272 O   0  0  0  0  0  0  0  0  0  0  0  0
  -27.2465   -5.3867  137.3034 C   0  0  0  0  0  0  0  0  0  0  0  0
  -26.3074   -4.9284  138.4248 C   0  0  0  0  0  0  0  0  0  0  0  0
  -26.6660   -2.4401  137.6264 C   0  0  0  0  0  0  0  0  0  0  0  0
  -27.8231   -3.1431  139.7831 C   0  0  0  0  0  0  0  0  0  0  0  0
  -26.6137   -3.4154  138.8303 C   0  0  0  0  0  0  0  0  0  0  0  0
  -29.1804   -3.1209  139.0665 C   0  0  0  0  0  0  0  0  0  0  0  0
  -28.7993   -4.1413  140.1405 C   0  0  0  0  0  0  0  0  0  0  0  0
  -27.5935   -7.3977  134.5846 C   0  0  0  0  0  0  0  0  0  0  0  0
  -26.8774   -5.4604  136.0112 C   0  0  0  0  0  0  0  0  0  0  0  0
  -30.0388   -2.6128  138.1875 C   0  0  0  0  0  0  0  0  0  0  0  0
  -25.1587   -6.6818  134.6472 C   0  0  0  0  0  0  0  0  0  0  0  0
  -26.4578   -6.8130  135.4591 C   0  0  0  0  0  0  0  0  0  0  0  0
  2  1  1  0
  5  2  1  0
  5  3  1  0
  5  4  1  0
  8  5  1  0
  8  6  1  0
  8  7  1  0
  9  7  1  0
 10  7  1  0
 10  9  1  0
 12  4  2  3
 13  9  2  0
 15 11  1  0
 15 12  1  0
 15 14  1  0
M  END
$$$$

     RDKit          3D

 15 16  0  0  0  0  0  0  0  0999 V2000
  -23.7946  -15.0822  137.1025 C   0  0  0  0  0  0  0  0  0  0  0  0
  -22.6240  -14.4495  136.4579 N   0  0  0  0  0  0  0  0  0  0  0  0
  -24.6401  -15.9152  136.0703 C   0  0  0  0  0  0  0  0  0  0  0  0
  -23.4186  -15.7791  138.4666 C   0  0  0  0  0  0  0  0  0  0  0  0
  -24.4531  -16.6440  139.2676 C   0  0  0  0  0  0  0  0  0  0  0  0
  -25.6849  -16.7960  136.7500 C   0  0  0  0  0  0  0  0  0  0  0  0
  -21.4922  -15.3565  136.2046 C   0  0  0  0  0  0  0  0  0  0  0  0
  -26.3996  -15.8930  137.7728 C   0  0  0  0  0  0  0  0  0  0  0  0
  -27.1980  -16.6786  136.7558 C   0  0  0  0  0  0  0  0  0  0  0  0
  -25.9897  -16.3227  139.1963 C   0  0  0  0  0  0  0  0  0  0  0  0
  -26.4206  -15.2363  140.2401 C   0  0  0  0  0  0  0  0  0  0  0  0
  -26.1412  -15.6735  141.7154 C   0  0  0  0  0  0  0  0  0  0  0  0
  -27.9254  -14.9007  140.1011 C   0  0  0  0  0  0  0  0  0  0  0  0
  -25.0527  -14.8350  142.3807 C   0  0  0  0  0  0  0  0  0  0  0  0
  -20.6423  -14.8109  135.1481 N   0  0  0  0  0  0  0  0  0  0  0  0
  2  1  1  0
  3  1  1  0
  4  1  1  0
  5  4  1  0
  6  3  1  0
  7  2  1  0
  8  6  1  0
  9  6  1  0
  9  8  1  0
 10  5  1  0
 10  8  1  0
 11 10  1  0
 12 11  1  0
 13 11  1  0
 14 12  1  0
 15  7  1  0
M  END
$$$$

     RDKit          3D

 15 17  0  0  0  0  0  0  0  0999 V2000
  -29.4358   -3.1194  144.9895 F   0  0  0  0  0  0  0  0  0  0  0  0
  -28.4536   -3.1205  144.0171 C   0  0  0  0  0  0  0  0  0  0  0  0
  -28.7296   -4.1111  143.0873 F   0  0  0  0  0  0  0  0  0  0  0  0
  -28.3790   -1.7338  143.3660 C   0  0  0  0  0  0  0  0  0  0  0  0
  -27.8790   -0.7124  144.1596 F   0  0  0  0  0  0  0  0  0  0  0  0
  -29.3686   -1.3902  142.3984 C   0  0  0  0  0  0  0  0  0  0  0  0
  -29.8397    0.0878  142.4121 C   0  0  0  0  0  0  0  0  0  0  0  0
  -28.7375   -1.7089  140.1237 C   0  0  0  0  0  0  0  0  0  0  0  0
  -31.0448    0.3393  141.4561 C   0  0  0  0  0  0  0  0  0  0  0  0
  -31.9703    1.1657  142.1124 O   0  0  0  0  0  0  0  0  0  0  0  0
  -30.6420    1.0202  140.2709 O   0  0  0  0  0  0  0  0  0  0  0  0
  -30.2096    0.1361  139.2503 C   0  0  0  0  0  0  0  0  0  0  0  0
  -28.7780   -0.3012  139.5428 C   0  0  0  0  0  0  0  0  0  0  0  0
  -28.1181   -1.4263  138.7641 C   0  0  0  0  0  0  0  0  0  0  0  0
  -27.6179   -1.7315  141.6174 P   0  0  0  0  0  0  0  0  0  0  0  0
  2  1  1  0
  3  2  1  0
  4  2  1  0
  5  4  1  0
  6  4  1  0
  7  6  1  0
  9  7  1  0
 10  9  1  0
 11  9  1  0
 12 11  1  0
 13  8  1  0
 13 12  1  0
 14  8  1  0
 14 13  1  0
 15  4  1  0
 15  6  1  0
 15  8  1  0
M  END
$$$$

     RDKit          3D

 10  9  0  0  0  0  0  0  0  0999 V2000
  -22.9472    0.0736  140.7690 O   0  0  0  0  0  0  0  0  0  0  0  0
  -22.7945    2.5495  142.0861 O   0  0  0  0  0  0  0  0  0  0  0  0
  -20.9455    1.1969  140.3640 C   0  0  0  0  0  0  0  0  0  0  0  0
  -23.8261    6.0638  144.3627 N   0  0  0  0  0  0  0  0  0  0  0  0
  -23.0293    3.2514  143.1832 O   0  0  0  0  0  0  0  0  0  0  0  0
  -21.7973    0.5227  141.3559 N   0  0  0  0  0  0  0  0  0  0  0  0
  -22.1149    1.3885  142.5041 C   0  0  0  0  0  0  0  0  0  0  0  0
  -22.6082    5.3368  144.2094 C   0  0  0  0  0  0  0  0  0  0  0  0
  -22.3746    4.4811  143.0044 C   0  0  0  0  0  0  0  0  0  0  0  0
  -21.7432    5.3793  145.1242 O   0  0  0  0  0  0  0  0  0  0  0  0
  5  2  1  0
  6  1  1  0
  6  3  1  0
  7  2  1  0
  7  6  1  0
  8  4  1  0
  9  5  1  0
  9  8  1  0
 10  8  2  0
M  END
$$$$

     RDKit          3D

 15 17  0  0  0  0  0  0  0  0999 V2000
  -19.5388   -6.9129  138.2301 O   0  0  0  0  0  0  0  0  0  0  0  0
  -18.3469   -6.8785  137.4857 C   0  0  0  0  0  0  0  0  0  0  0  0
  -17.3932   -7.7472  138.0459 O   0  0  0  0  0  0  0  0  0  0  0  0
  -17.8092   -5.4384  137.3754 C   0  0  0  0  0  0  0  0  0  0  0  0
  -16.5793   -5.3611  136.4494 C   0  0  0  0  0  0  0  0  0  0  0  0
  -16.5896   -2.6302  135.7879 C   0  0  0  0  0  0  0  0  0  0  0  0
  -16.5102   -3.0294  137.1533 O   0  0  0  0  0  0  0  0  0  0  0  0
  -17.5329   -3.2124  134.7061 C   0  0  0  0  0  0  0  0  0  0  0  0
  -17.0773   -2.7888  133.2951 C   0  0  0  0  0  0  0  0  0  0  0  0
  -18.0489   -2.1685  135.6267 C   0  0  0  0  0  0  0  0  0  0  0  0
  -15.5367   -2.7343  133.1133 C   0  0  0  0  0  0  0  0  0  0  0  0
  -14.7939   -4.0333  133.5228 C   0  0  0  0  0  0  0  0  0  0  0  0
  -13.9702   -3.8885  134.7952 C   0  0  0  0  0  0  0  0  0  0  0  0
  -14.4943   -3.8581  136.0381 C   0  0  0  0  0  0  0  0  0  0  0  0
  -15.9718   -3.9373  136.2590 C   0  0  0  0  0  0  0  0  0  0  0  0
  2  1  1  0
  3  2  1  0
  4  2  1  0
  5  4  1  0
  7  6  1  0
  8  6  1  0
  9  8  1  0
 10  6  1  0
 10  8  1  0
 11  9  1  0
 12 11  1  0
 13 12  1  0
 14 13  2  3
 15  5  1  0
 15  6  1  0
 15  7  1  0
 15 14  1  0
M  END
$$$$

     RDKit          3D

 15 17  0  0  0  0  0  0  0  0999 V2000
  -25.5364   -6.6719  136.2738 O   0  0  0  0  0  0  0  0  0  0  0  0
  -26.8668   -6.1465  136.3730 C   0  0  0  0  0  0  0  0  0  0  0  0
  -27.8614   -5.5067  135.5668 O   0  0  0  0  0  0  0  0  0  0  0  0
  -26.8276   -3.4354  136.2368 C   0  0  0  0  0  0  0  0  0  0  0  0
  -27.8705   -2.7657  135.5724 O   0  0  0  0  0  0  0  0  0  0  0  0
  -26.6658   -4.8464  135.6202 C   0  0  0  0  0  0  0  0  0  0  0  0
  -25.9950   -5.0390  134.2520 C   0  0  0  0  0  0  0  0  0  0  0  0
  -25.3291   -1.7737  138.5737 C   0  0  0  0  0  0  0  0  0  0  0  0
  -24.8633   -4.3164  138.7396 C   0  0  0  0  0  0  0  0  0  0  0  0
  -23.7474   -4.2144  137.6839 C   0  0  0  0  0  0  0  0  0  0  0  0
  -25.9250   -3.1854  138.7116 C   0  0  0  0  0  0  0  0  0  0  0  0
  -22.7502   -5.3611  137.8293 C   0  0  0  0  0  0  0  0  0  0  0  0
  -26.0418   -6.5627  134.0067 C   0  0  0  0  0  0  0  0  0  0  0  0
  -27.1273   -3.4332  137.7608 C   0  0  0  0  0  0  0  0  0  0  0  0
  -26.4088   -7.1834  135.3659 C   0  0  0  0  0  0  0  0  0  0  0  0
  2  1  1  0
  3  2  1  0
  5  4  1  0
  6  2  1  0
  6  3  1  0
  6  4  1  0
  7  6  1  0
 10  9  1  0
 11  8  1  0
 11  9  1  0
 12 10  1  0
 13  7  1  0
 14  4  1  0
 14 11  1  0
 15  1  1  0
 15  2  1  0
 15 13  1  0
M  END
$$$$

     RDKit          3D

 15 17  0  0  0  0  0  0  0  0999 V2000
  -31.3913  -13.7621  139.6413 C   0  0  0  0  0  0  0  0  0  0  0  0
  -31.6650  -15.2264  140.0550 C   0  0  0  0  0  0  0  0  0  0  0  0
  -30.5630  -15.8548  140.9510 C   0  0  0  0  0  0  0  0  0  0  0  0
  -29.9809  -13.3148  139.3191 C   0  0  0  0  0  0  0  0  0  0  0  0
  -29.5107  -12.7452  137.9808 C   0  0  0  0  0  0  0  0  0  0  0  0
  -30.8715  -12.0615  137.7872 C   0  0  0  0  0  0  0  0  0  0  0  0
  -31.1016  -15.7467  143.4886 C   0  0  0  0  0  0  0  0  0  0  0  0
  -29.1232  -15.2984  137.5778 C   0  0  0  0  0  0  0  0  0  0  0  0
  -29.9549  -14.0255  137.2871 C   0  0  0  0  0  0  0  0  0  0  0  0
  -31.3018  -11.6197  136.3754 C   0  0  0  0  0  0  0  0  0  0  0  0
  -31.1251  -13.5242  138.1903 C   0  0  0  0  0  0  0  0  0  0  0  0
  -30.2046  -16.1441  145.8433 C   0  0  0  0  0  0  0  0  0  0  0  0
  -28.7721  -14.8884  144.1835 C   0  0  0  0  0  0  0  0  0  0  0  0
  -29.8312  -15.9987  144.3605 C   0  0  0  0  0  0  0  0  0  0  0  0
  -31.1278  -16.5925  142.1872 C   0  0  0  0  0  0  0  0  0  0  0  0
  2  1  1  0
  3  2  1  0
  4  1  1  0
  5  4  1  0
  6  5  1  0
  9  5  1  0
  9  8  1  0
 10  6  1  0
 11  1  1  0
 11  4  1  0
 11  6  1  0
 11  9  1  0
 14  7  1  0
 14 12  1  0
 14 13  1  0
 15  3  1  0
 15  7  1  0
M  END
$$$$

     RDKit          3D

 15 19  0  0  0  0  0  0  0  0999 V2000
  -22.7483   -8.2624  147.7841 C   0  0  0  0  0  0  0  0  0  0  0  0
  -23.8778   -7.9365  148.7253 C   0  0  0  0  0  0  0  0  0  0  0  0
  -25.2171   -8.7080  148.4155 C   0  0  0  0  0  0  0  0  0  0  0  0
  -26.3881   -7.7102  148.6113 C   0  0  0  0  0  0  0  0  0  0  0  0
  -26.3661   -7.0419  150.0006 C   0  0  0  0  0  0  0  0  0  0  0  0
  -25.4978   -9.5552  147.0994 C   0  0  0  0  0  0  0  0  0  0  0  0
  -24.8395   -9.2767  145.7473 C   0  0  0  0  0  0  0  0  0  0  0  0
  -22.6846   -8.7241  149.2390 C   0  0  0  0  0  0  0  0  0  0  0  0
  -27.0316   -7.8302  151.1185 C   0  0  0  0  0  0  0  0  0  0  0  0
  -27.7230   -6.6072  150.5348 C   0  0  0  0  0  0  0  0  0  0  0  0
  -24.2623  -10.6204  145.6556 N   0  0  0  0  0  0  0  0  0  0  0  0
  -24.8962  -10.9545  146.9363 C   0  0  0  0  0  0  0  0  0  0  0  0
  -23.9201  -11.3402  147.9493 N   0  0  0  0  0  0  0  0  0  0  0  0
  -21.9200   -7.0185  147.4999 C   0  0  0  0  0  0  0  0  0  0  0  0
  -23.4036   -6.8728  147.7573 C   0  0  0  0  0  0  0  0  0  0  0  0
  2  1  1  0
  3  2  1  0
  4  3  1  0
  5  4  1  0
  6  3  1  0
  7  6  1  0
  8  1  1  0
  8  2  1  0
  9  5  1  0
 10  5  1  0
 10  9  1  0
 11  7  1  0
 12  6  1  0
 12 11  1  0
 13 12  1  0
 14  1  1  0
 15  1  1  0
 15  2  1  0
 15 14  1  0
M  END
$$$$

     RDKit          3D

 15 19  0  0  0  0  0  0  0  0999 V2000
  -30.1324   -6.2824  133.7580 O   0  0  0  0  0  0  0  0  0  0  0  0
  -29.9032   -5.2285  134.4084 C   0  0  0  0  0  0  0  0  0  0  0  0
  -30.1740   -2.7903  134.6975 N   0  0  0  0  0  0  0  0  0  0  0  0
  -31.2202   -2.2839  132.6253 C   0  0  0  0  0  0  0  0  0  0  0  0
  -32.2385   -1.6637  133.6136 C   0  0  0  0  0  0  0  0  0  0  0  0
  -33.2129   -2.8283  133.7906 C   0  0  0  0  0  0  0  0  0  0  0  0
  -31.1030   -1.5688  131.2708 C   0  0  0  0  0  0  0  0  0  0  0  0
  -33.5761   -1.6315  132.8726 C   0  0  0  0  0  0  0  0  0  0  0  0
  -30.6910   -1.7021  133.8574 C   0  0  0  0  0  0  0  0  0  0  0  0
  -30.4084   -3.9649  133.9653 N   0  0  0  0  0  0  0  0  0  0  0  0
  -32.4932   -1.1108  130.7809 C   0  0  0  0  0  0  0  0  0  0  0  0
  -32.5739   -1.2374  129.3247 N   0  0  0  0  0  0  0  0  0  0  0  0
  -33.5492   -1.9111  131.4244 N   0  0  0  0  0  0  0  0  0  0  0  0
  -32.6711   -4.0951  133.1152 C   0  0  0  0  0  0  0  0  0  0  0  0
  -31.2265   -3.7771  132.7800 C   0  0  0  0  0  0  0  0  0  0  0  0
  2  1  2  0
  5  4  1  0
  6  5  1  0
  7  4  1  0
  8  5  1  0
  8  6  1  0
  9  3  1  0
  9  4  1  0
  9  5  1  0
 10  2  1  0
 10  3  1  0
 11  7  1  0
 12 11  1  0
 13  8  1  0
 13 11  1  0
 14  6  1  0
 15  4  1  0
 15 10  1  0
 15 14  1  0
M  END
$$$$

     RDKit          3D

  9 13  0  0  0  0  0  0  0  0999 V2000
  -26.5692   -0.1140  138.2549 N   0  0  0  0  0  0  0  0  0  0  0  0
  -25.9265   -1.4045  138.1147 C   0  0  0  0  0  0  0  0  0  0  0  0
  -26.1874   -0.3337  139.6672 C   0  0  0  0  0  0  0  0  0  0  0  0
  -25.5863   -1.6803  139.4894 N   0  0  0  0  0  0  0  0  0  0  0  0
  -24.6428   -1.2682  137.3044 C   0  0  0  0  0  0  0  0  0  0  0  0
  -23.5290   -1.7590  138.1474 C   0  0  0  0  0  0  0  0  0  0  0  0
  -25.6118   -2.3323  136.9423 C   0  0  0  0  0  0  0  0  0  0  0  0
  -24.1341   -2.6869  137.0779 C   0  0  0  0  0  0  0  0  0  0  0  0
  -24.1125   -1.7321  139.5636 C   0  0  0  0  0  0  0  0  0  0  0  0
  2  1  1  0
  3  1  1  0
  4  2  1  0
  4  3  1  0
  5  2  1  0
  6  5  1  0
  7  2  1  0
  7  5  1  0
  8  5  1  0
  8  6  1  0
  8  7  1  0
  9  4  1  0
  9  6  1  0
M  END
$$$$

     RDKit          3D

 15 16  0  0  0  0  0  0  0  0999 V2000
  -22.4747   -0.1969  139.3154 C   0  0  0  0  0  0  0  0  0  0  0  0
  -23.5195    0.0689  138.2167 C   0  0  0  0  0  0  0  0  0  0  0  0
  -22.8111   -1.3043  140.2885 C   0  0  0  0  0  0  0  0  0  0  0  0
  -21.9897   -2.5740  140.3277 C   0  0  0  0  0  0  0  0  0  0  0  0
  -23.7949   -1.1379  141.1009 N   0  0  0  0  0  0  0  0  0  0  0  0
  -21.3106    0.1968  136.8767 C   0  0  0  0  0  0  0  0  0  0  0  0
  -23.6027    1.4273  137.8762 O   0  0  0  0  0  0  0  0  0  0  0  0
  -20.5657   -2.3771  140.8272 C   0  0  0  0  0  0  0  0  0  0  0  0
  -19.0760    1.0692  137.8316 C   0  0  0  0  0  0  0  0  0  0  0  0
  -19.0021    0.1420  139.0369 C   0  0  0  0  0  0  0  0  0  0  0  0
  -20.5185    1.4073  137.4240 C   0  0  0  0  0  0  0  0  0  0  0  0
  -24.8663   -0.7067  138.1594 C   0  0  0  0  0  0  0  0  0  0  0  0
  -22.1877   -0.6236  137.8614 C   0  0  0  0  0  0  0  0  0  0  0  0
  -21.5803   -3.0759  141.7085 C   0  0  0  0  0  0  0  0  0  0  0  0
  -24.7992   -2.1547  137.6732 C   0  0  0  0  0  0  0  0  0  0  0  0
  2  1  1  0
  3  1  1  0
  4  3  1  0
  5  3  2  0
  7  2  1  0
  8  4  1  0
 10  9  1  0
 11  6  1  0
 11  9  1  0
 12  2  1  0
 13  1  1  0
 13  2  1  0
 13  6  1  0
 14  4  1  0
 14  8  1  0
 15 12  1  0
M  END
$$$$

     RDKit          3D

 15 14  0  0  0  0  0  0  0  0999 V2000
  -14.6006   -6.5190  146.5934 C   0  0  0  0  0  0  0  0  0  0  0  0
  -13.3561   -6.6994  146.4092 O   0  0  0  0  0  0  0  0  0  0  0  0
  -13.4193   -7.0114  147.3184 N   0  0  0  0  0  0  0  0  0  0  0  0
  -15.6819   -7.4758  146.1981 C   0  0  0  0  0  0  0  0  0  0  0  0
  -15.6093   -7.5559  142.2790 C   0  0  0  0  0  0  0  0  0  0  0  0
  -16.9409   -8.2043  141.8399 C   0  0  0  0  0  0  0  0  0  0  0  0
  -15.4916   -8.0289  144.7777 C   0  0  0  0  0  0  0  0  0  0  0  0
  -16.7441   -9.4525  140.9598 C   0  0  0  0  0  0  0  0  0  0  0  0
  -15.6896   -6.9527  143.6928 C   0  0  0  0  0  0  0  0  0  0  0  0
  -15.9822   -9.2088  139.6286 C   0  0  0  0  0  0  0  0  0  0  0  0
  -15.7324  -10.5386  138.8663 C   0  0  0  0  0  0  0  0  0  0  0  0
  -14.8084  -11.5344  139.6249 C   0  0  0  0  0  0  0  0  0  0  0  0
  -16.7629   -8.2451  138.7202 C   0  0  0  0  0  0  0  0  0  0  0  0
  -15.6093  -12.7133  140.2078 C   0  0  0  0  0  0  0  0  0  0  0  0
  -13.6984  -12.0756  138.7130 C   0  0  0  0  0  0  0  0  0  0  0  0
  2  1  2  0
  3  1  1  0
  4  1  1  0
  6  5  1  0
  7  4  1  0
  8  6  1  0
  9  5  1  0
  9  7  1  0
 10  8  1  0
 11 10  1  0
 12 11  1  0
 13 10  1  0
 14 12  1  0
 15 12  1  0
M  END
$$$$

     RDKit          3D

 15 17  0  0  0  0  0  0  0  0999 V2000
  -23.6241  -18.6991  142.5213 C   0  0  0  0  0  0  0  0  0  0  0  0
  -24.1072  -20.2081  142.4710 B   0  0  0  0  0  0  0  0  0  0  0  0
  -23.9369  -18.0638  144.8863 C   0  0  0  0  0  0  0  0  0  0  0  0
  -21.5841  -18.3866  144.2082 C   0  0  0  0  0  0  0  0  0  0  0  0
  -25.2511  -21.1491  143.0692 C   0  0  0  0  0  0  0  0  0  0  0  0
  -23.0844  -18.3700  143.8937 C   0  0  0  0  0  0  0  0  0  0  0  0
  -20.7663  -17.4489  143.2893 C   0  0  0  0  0  0  0  0  0  0  0  0
  -22.1722  -22.0706  142.7622 C   0  0  0  0  0  0  0  0  0  0  0  0
  -20.8969  -19.7872  144.2716 C   0  0  0  0  0  0  0  0  0  0  0  0
  -24.6263  -22.3919  142.6515 N   0  0  0  0  0  0  0  0  0  0  0  0
  -21.2616  -15.9917  143.2583 C   0  0  0  0  0  0  0  0  0  0  0  0
  -21.6925  -20.8862  144.7571 C   0  0  0  0  0  0  0  0  0  0  0  0
  -21.2319  -20.9273  143.2469 C   0  0  0  0  0  0  0  0  0  0  0  0
  -21.1170  -15.2825  144.6059 C   0  0  0  0  0  0  0  0  0  0  0  0
  -23.5082  -21.6460  142.0879 C   0  0  0  0  0  0  0  0  0  0  0  0
  2  1  1  0
  5  2  1  0
  6  1  1  0
  6  3  2  0
  6  4  1  0
  7  4  1  0
  9  4  1  0
 10  5  1  0
 11  7  1  0
 12  9  1  0
 13  8  1  0
 13  9  1  0
 13 12  1  0
 14 11  1  0
 15  2  1  0
 15  8  1  0
 15 10  1  0
M  END
$$$$

     RDKit          3D

 15 16  0  0  0  0  0  0  0  0999 V2000
  -25.0045   -5.7057  150.4002 C   0  0  0  0  0  0  0  0  0  0  0  0
  -25.5200   -4.5070  151.1928 C   0  0  0  0  0  0  0  0  0  0  0  0
  -24.5396   -4.3110  150.0484 C   0  0  0  0  0  0  0  0  0  0  0  0
  -26.0349   -6.3312  149.4419 C   0  0  0  0  0  0  0  0  0  0  0  0
  -25.4101   -7.0110  148.1941 C   0  0  0  0  0  0  0  0  0  0  0  0
  -26.1607   -9.4507  148.8953 C   0  0  0  0  0  0  0  0  0  0  0  0
  -25.3385  -10.5493  149.6269 C   0  0  0  0  0  0  0  0  0  0  0  0
  -24.7583  -10.0668  151.0067 C   0  0  0  0  0  0  0  0  0  0  0  0
  -25.6524  -10.2771  152.2556 C   0  0  0  0  0  0  0  0  0  0  0  0
  -22.9778   -7.4683  147.5167 C   0  0  0  0  0  0  0  0  0  0  0  0
  -25.3530   -8.5097  147.9450 C   0  0  0  0  0  0  0  0  0  0  0  0
  -24.1142   -7.7718  148.5013 C   0  0  0  0  0  0  0  0  0  0  0  0
  -25.1465  -11.3661  153.2098 C   0  0  0  0  0  0  0  0  0  0  0  0
  -26.0192  -11.4606  154.3710 N   0  0  0  0  0  0  0  0  0  0  0  0
  -26.1661  -11.8377  149.7541 C   0  0  0  0  0  0  0  0  0  0  0  0
  2  1  1  0
  3  1  1  0
  3  2  1  0
  4  1  1  0
  5  4  1  0
  7  6  1  0
  8  7  1  0
  9  8  1  0
 11  5  1  0
 11  6  1  0
 12  5  1  0
 12 10  1  0
 12 11  1  0
 13  9  1  0
 14 13  1  0
 15  7  1  0
M  END
$$$$

     RDKit          3D

 11 14  0  0  0  0  0  0  0  0999 V2000
  -27.2055   -6.0357  134.9451 C   0  0  0  0  0  0  0  0  0  0  0  0
  -27.4156   -5.5966  133.4760 C   0  0  0  0  0  0  0  0  0  0  0  0
  -29.5754   -4.7032  133.1429 C   0  0  0  0  0  0  0  0  0  0  0  0
  -30.4200   -5.8889  133.1824 C   0  0  0  0  0  0  0  0  0  0  0  0
  -28.9962   -7.0745  134.1361 C   0  0  0  0  0  0  0  0  0  0  0  0
  -30.4442   -6.9098  134.3300 C   0  0  0  0  0  0  0  0  0  0  0  0
  -30.9523   -5.3615  136.3354 C   0  0  0  0  0  0  0  0  0  0  0  0
  -28.5871   -6.4513  135.4869 C   0  0  0  0  0  0  0  0  0  0  0  0
  -30.1292   -6.5463  135.7756 C   0  0  0  0  0  0  0  0  0  0  0  0
  -29.6719   -4.0007  131.8702 N   0  0  0  0  0  0  0  0  0  0  0  0
  -28.8334   -6.0603  133.0184 C   0  0  0  0  0  0  0  0  0  0  0  0
  2  1  1  0
  4  3  1  0
  6  4  1  0
  6  5  1  0
  8  1  1  0
  8  5  1  0
  9  6  1  0
  9  7  1  0
  9  8  1  0
 10  3  1  0
 11  2  1  0
 11  3  1  0
 11  4  1  0
 11  5  1  0
M  END
$$$$

     RDKit          3D

 15 17  0  0  0  0  0  0  0  0999 V2000
  -23.7187  -21.2560  136.0488 N   0  0  0  0  0  0  0  0  0  0  0  0
  -23.5878  -22.5109  136.5425 C   0  0  0  0  0  0  0  0  0  0  0  0
  -24.5790  -23.0253  137.2671 N   0  0  0  0  0  0  0  0  0  0  0  0
  -22.3136  -23.1407  136.5629 C   0  0  0  0  0  0  0  0  0  0  0  0
  -22.1580  -24.4043  137.1463 C   0  0  0  0  0  0  0  0  0  0  0  0
  -22.6397  -24.6444  138.4393 C   0  0  0  0  0  0  0  0  0  0  0  0
  -21.5306  -22.7916  135.4503 C   0  0  0  0  0  0  0  0  0  0  0  0
  -23.5478  -22.6217  136.4745 C   0  0  0  0  0  0  0  0  0  0  0  0
  -20.2801  -23.3980  135.2605 C   0  0  0  0  0  0  0  0  0  0  0  0
  -19.8164  -24.3141  136.2246 C   0  0  0  0  0  0  0  0  0  0  0  0
  -22.7297  -25.5318  136.5147 C   0  0  0  0  0  0  0  0  0  0  0  0
  -19.5534  -23.8877  137.5244 C   0  0  0  0  0  0  0  0  0  0  0  0
  -21.1231  -24.7250  135.8321 C   0  0  0  0  0  0  0  0  0  0  0  0
  -18.2725  -23.5658  138.0103 N   0  0  0  0  0  2  0  0  0  0  0  0
  -19.6766  -22.5154  137.7666 N   0  0  0  0  0  2  0  0  0  0  0  0
  2  1  2  0
  3  2  1  0
  5  4  1  0
  6  5  1  0
  7  4  1  0
  8  2  1  0
  8  4  1  0
  9  7  1  0
 10  9  1  0
 11  5  1  0
 12 10  1  0
 13  5  1  0
 13  9  1  0
 13 10  1  0
 13 11  1  0
 14 12  1  0
 15 12  1  0
M  RAD  2  14   2  15   2
M  END
$$$$

     RDKit          3D

 15 19  0  0  0  0  0  0  0  0999 V2000
  -28.4383  -23.1238  136.7879 C   0  0  0  0  0  0  0  0  0  0  0  0
  -26.9832  -22.7105  136.3491 C   0  0  0  0  0  0  0  0  0  0  0  0
  -29.7061  -22.2726  136.9609 C   0  0  0  0  0  0  0  0  0  0  0  0
  -28.0444  -22.9843  135.3322 C   0  0  0  0  0  0  0  0  0  0  0  0
  -30.5573  -22.7901  138.1223 C   0  0  0  0  0  0  0  0  0  0  0  0
  -31.4421  -21.7730  138.8713 C   0  0  0  0  0  0  0  0  0  0  0  0
  -27.3150  -20.9895  138.0592 C   0  0  0  0  0  0  0  0  0  0  0  0
  -30.9258  -21.3377  140.2743 C   0  0  0  0  0  0  0  0  0  0  0  0
  -31.0100  -23.0135  136.6856 C   0  0  0  0  0  0  0  0  0  0  0  0
  -28.1126  -20.4640  139.2853 C   0  0  0  0  0  0  0  0  0  0  0  0
  -28.2224  -21.5299  140.4122 C   0  0  0  0  0  0  0  0  0  0  0  0
  -28.8562  -21.1583  141.7494 C   0  0  0  0  0  0  0  0  0  0  0  0
  -29.6270  -22.0413  140.7645 C   0  0  0  0  0  0  0  0  0  0  0  0
  -27.4240  -22.5159  137.7691 C   0  0  0  0  0  0  0  0  0  0  0  0
  -27.4517  -19.1569  139.7732 C   0  0  0  0  0  0  0  0  0  0  0  0
  2  1  1  0
  3  1  1  0
  4  1  1  0
  4  2  1  0
  5  3  1  0
  6  5  1  0
  8  6  1  0
  9  3  1  0
  9  5  1  0
 10  7  1  0
 11 10  1  0
 12 11  1  0
 13  8  1  0
 13 11  1  0
 13 12  1  0
 14  1  1  0
 14  2  1  0
 14  7  1  0
 15 10  1  0
M  END
$$$$

     RDKit          3D

 15 17  0  0  0  0  0  0  0  0999 V2000
  -25.9951   -0.7598  135.9752 C   0  0  0  0  0  0  0  0  0  0  0  0
  -24.8539    0.2262  135.5719 C   0  0  0  0  0  0  0  0  0  0  0  0
  -25.8939   -1.4549  137.3449 C   0  0  0  0  0  0  0  0  0  0  0  0
  -25.5973   -2.2552  136.0888 C   0  0  0  0  0  0  0  0  0  0  0  0
  -23.0379   -0.2870  137.0905 O   0  0  0  0  0  0  0  0  0  0  0  0
  -24.1902   -2.6607  135.9391 N   0  0  0  0  0  0  0  0  0  0  0  0
  -23.4582   -1.7394  135.0675 C   0  0  0  0  0  0  0  0  0  0  0  0
  -27.4465   -0.4644  135.5010 C   0  0  0  0  0  0  0  0  0  0  0  0
  -26.6064   -3.2689  135.7875 N   0  0  0  0  0  0  0  0  0  0  0  0
  -23.4150   -0.3354  135.7093 C   0  0  0  0  0  0  0  0  0  0  0  0
  -21.9460   -1.1222  137.4694 C   0  0  0  0  0  0  0  0  0  0  0  0
  -28.2102    0.5393  136.3778 C   0  0  0  0  0  0  0  0  0  0  0  0
  -27.9587    2.0181  136.0050 C   0  0  0  0  0  0  0  0  0  0  0  0
  -28.1494    2.9945  137.1584 C   0  0  0  0  0  0  0  0  0  0  0  0
  -29.1959    2.9191  136.0633 C   0  0  0  0  0  0  0  0  0  0  0  0
  2  1  1  0
  3  1  1  0
  4  1  1  0
  4  3  1  0
  6  4  1  0
  7  6  1  0
  8  1  1  0
  9  4  1  0
 10  2  1  0
 10  5  1  0
 10  7  1  0
 11  5  1  0
 12  8  1  0
 13 12  1  0
 14 13  1  0
 15 13  1  0
 15 14  1  0
M  END
$$$$

     RDKit          3D

 15 18  0  0  0  0  0  0  0  0999 V2000
  -24.9856   -5.8984  149.4762 C   0  0  0  0  0  0  0  0  0  0  0  0
  -25.4739   -6.9545  150.3120 N   0  0  0  0  0  0  0  0  0  0  0  0
  -24.5696   -7.6044  151.2600 C   0  0  0  0  0  0  0  0  0  0  0  0
  -23.6939   -8.6643  150.5902 C   0  0  0  0  0  0  0  0  0  0  0  0
  -23.8350   -5.9728  148.7912 C   0  0  0  0  0  0  0  0  0  0  0  0
  -23.0607   -7.2428  148.5360 C   0  0  0  0  0  0  0  0  0  0  0  0
  -24.5302   -9.6515  149.7176 C   0  0  0  0  0  0  0  0  0  0  0  0
  -22.5563   -7.9599  149.8029 C   0  0  0  0  0  0  0  0  0  0  0  0
  -25.2795   -8.3311  152.3853 C   0  0  0  0  0  0  0  0  0  0  0  0
  -24.1820  -11.0692  150.1659 C   0  0  0  0  0  0  0  0  0  0  0  0
  -23.0761  -10.9426  151.2119 C   0  0  0  0  0  0  0  0  0  0  0  0
  -23.8401  -10.6175  148.7580 C   0  0  0  0  0  0  0  0  0  0  0  0
  -23.1446  -12.0039  152.2224 N   0  0  0  0  0  0  0  0  0  0  0  0
  -23.1905   -9.5119  151.7691 C   0  0  0  0  0  0  0  0  0  0  0  0
  -24.2372   -9.3179  152.9017 C   0  0  0  0  0  0  0  0  0  0  0  0
  2  1  1  0
  3  2  1  0
  4  3  1  0
  5  1  2  0
  6  5  1  0
  7  4  1  0
  8  4  1  0
  8  6  1  0
  9  3  1  0
 10  7  1  0
 11 10  1  0
 12  7  1  0
 12 10  1  0
 13 11  1  0
 14  4  1  0
 14 11  1  0
 15  9  1  0
 15 14  1  0
M  END
$$$$

     RDKit          3D

 15 19  0  0  0  0  0  0  0  0999 V2000
  -32.3446  -16.9782  144.8768 C   0  0  0  0  0  0  0  0  0  0  0  0
  -33.4234  -16.3550  143.9997 C   0  0  0  0  0  0  0  0  0  0  0  0
  -31.2488  -17.7341  144.1084 C   0  0  0  0  0  0  0  0  0  0  0  0
  -30.6056  -18.8272  144.9731 C   0  0  0  0  0  0  0  0  0  0  0  0
  -29.6592  -18.2454  146.0409 C   0  0  0  0  0  0  0  0  0  0  0  0
  -34.0261  -15.0663  144.5673 C   0  0  0  0  0  0  0  0  0  0  0  0
  -29.2483  -19.2812  147.1159 C   0  0  0  0  0  0  0  0  0  0  0  0
  -28.4797  -20.5184  146.6907 C   0  0  0  0  0  0  0  0  0  0  0  0
  -27.7529  -19.1947  146.6777 C   0  0  0  0  0  0  0  0  0  0  0  0
  -33.7346  -17.6010  144.8200 C   0  0  0  0  0  0  0  0  0  0  0  0
  -28.2131  -18.2134  145.6407 C   0  0  0  0  0  0  0  0  0  0  0  0
  -27.5397  -16.8497  145.6856 C   0  0  0  0  0  0  0  0  0  0  0  0
  -35.0806  -14.4215  143.6832 C   0  0  0  0  0  0  0  0  0  0  0  0
  -33.6881  -13.8183  143.7689 C   0  0  0  0  0  0  0  0  0  0  0  0
  -27.4900  -17.7000  144.4161 C   0  0  0  0  0  0  0  0  0  0  0  0
  2  1  1  0
  3  1  1  0
  4  3  1  0
  5  4  1  0
  6  2  1  0
  7  5  1  0
  8  7  1  0
  9  7  1  0
  9  8  1  0
 10  1  1  0
 10  2  1  0
 11  5  1  0
 11  9  1  0
 12 11  1  0
 13  6  1  0
 14  6  1  0
 14 13  1  0
 15 11  1  0
 15 12  1  0
M  END
$$$$

     RDKit          3D

 15 15  0  0  0  0  0  0  0  0999 V2000
  -28.6831  -12.4679  139.6214 C   0  0  0  0  0  0  0  0  0  0  0  0
  -28.4316  -11.8029  140.9463 C   0  0  0  0  0  0  0  0  0  0  0  0
  -27.2182  -11.4619  141.4561 C   0  0  0  0  0  0  0  0  0  0  0  0
  -29.3969  -13.8243  139.7191 C   0  0  0  0  0  0  0  0  0  0  0  0
  -25.8925  -12.1022  141.0841 C   0  0  0  0  0  0  0  0  0  0  0  0
  -29.0705  -14.7875  140.8604 C   0  0  0  0  0  0  0  0  0  0  0  0
  -24.2399  -10.1129  141.0722 C   0  0  0  0  0  0  0  0  0  0  0  0
  -22.9723   -9.4917  141.7183 C   0  0  0  0  0  0  0  0  0  0  0  0
  -21.7068   -7.2606  142.0458 C   0  0  0  0  0  0  0  0  0  0  0  0
  -25.6673  -12.1361  139.6958 O   0  0  0  0  0  0  0  0  0  0  0  0
  -22.7957   -8.0229  141.2556 C   0  0  0  0  0  0  0  0  0  0  0  0
  -20.4781   -6.9581  141.1873 C   0  0  0  0  0  0  0  0  0  0  0  0
  -21.7172  -10.3217  141.3744 C   0  0  0  0  0  0  0  0  0  0  0  0
  -24.7029  -11.4160  141.7847 C   0  0  0  0  0  0  0  0  0  0  0  0
  -28.4554  -14.9926  139.4864 C   0  0  0  0  0  0  0  0  0  0  0  0
  2  1  1  0
  3  2  2  3
  4  1  1  0
  5  3  1  0
  6  4  1  0
  8  7  1  0
 10  5  1  0
 11  8  1  0
 11  9  1  0
 12  9  1  0
 13  8  1  0
 14  5  1  0
 14  7  1  0
 15  4  1  0
 15  6  1  0
M  END
$$$$

     RDKit          3D

 15 17  0  0  0  0  0  0  0  0999 V2000
  -26.6067   -6.0160  146.9071 N   0  0  0  0  0  0  0  0  0  0  0  0
  -26.5461   -7.4580  147.1983 C   0  0  0  0  0  0  0  0  0  0  0  0
  -25.6483   -5.2451  147.7134 C   0  0  0  0  0  0  0  0  0  0  0  0
  -23.5336   -3.9865  146.8851 C   0  0  0  0  0  0  0  0  0  0  0  0
  -24.2244   -5.3267  147.1265 C   0  0  0  0  0  0  0  0  0  0  0  0
  -23.1078   -4.8590  148.0550 C   0  0  0  0  0  0  0  0  0  0  0  0
  -27.5477   -7.8164  148.3054 C   0  0  0  0  0  0  0  0  0  0  0  0
  -27.5049   -9.3151  148.6691 C   0  0  0  0  0  0  0  0  0  0  0  0
  -26.1145   -9.8894  149.0790 C   0  0  0  0  0  0  0  0  0  0  0  0
  -25.1059   -9.1082  149.9784 C   0  0  0  0  0  0  0  0  0  0  0  0
  -25.4946   -9.0419  151.4495 C   0  0  0  0  0  0  0  0  0  0  0  0
  -28.6114   -9.6960  149.6607 C   0  0  0  0  0  0  0  0  0  0  0  0
  -23.6212   -9.4472  149.7453 C   0  0  0  0  0  0  0  0  0  0  0  0
  -26.2370   -7.7864  151.8428 C   0  0  0  0  0  0  0  0  0  0  0  0
  -25.3888   -7.7464  150.5986 C   0  0  0  0  0  0  0  0  0  0  0  0
  2  1  1  0
  3  1  1  0
  5  3  1  0
  5  4  1  0
  6  4  1  0
  6  5  1  0
  7  2  1  0
  8  7  1  0
  9  8  1  0
 10  9  1  0
 11 10  1  0
 12  8  1  0
 13 10  1  0
 14 11  1  0
 15 10  1  0
 15 11  1  0
 15 14  1  0
M  END
$$$$

     RDKit          3D

 14 13  0  0  0  0  0  0  0  0999 V2000
  -26.5966  -20.7055  137.5875 O   0  0  0  0  0  0  0  0  0  0  0  0
  -26.7212  -16.7621  139.6653 P   0  0  0  0  0  0  0  0  0  0  0  0
  -26.8680  -19.5752  138.2167 O   0  0  0  0  0  0  0  0  0  0  0  0
  -28.3236  -17.4598  139.6654 O   0  0  0  0  0  0  0  0  0  0  0  0
  -28.6191  -17.9381  138.3704 C   0  0  0  0  0  0  0  0  0  0  0  0
  -28.2718  -19.4323  138.2219 C   0  0  0  0  0  0  0  0  0  0  0  0
  -28.8795  -20.2943  139.3510 C   0  0  0  0  0  0  0  0  0  0  0  0
  -30.3942  -20.2364  139.3748 C   0  0  0  0  0  0  0  0  0  0  0  0
  -31.1964  -21.0860  138.4136 C   0  0  0  0  0  0  0  0  0  0  0  0
  -32.6700  -21.0970  136.3576 C   0  0  0  0  0  0  0  0  0  0  0  0
  -31.8726  -20.2259  137.3387 C   0  0  0  0  0  0  0  0  0  0  0  0
  -33.4306  -20.2647  135.3123 C   0  0  0  0  0  0  0  0  0  0  0  0
  -32.5021  -19.5765  134.3109 C   0  0  0  0  0  0  0  0  0  0  0  0
  -31.0267  -19.4452  140.2585 C   0  0  0  0  0  0  0  0  0  0  0  0
  3  1  1  0
  4  2  1  0
  5  4  1  0
  6  3  1  0
  6  5  1  0
  7  6  1  0
  8  7  1  0
  9  8  1  0
 11  9  1  0
 11 10  1  0
 12 10  1  0
 13 12  1  0
 14  8  2  0
M  END
$$$$

     RDKit          3D

 15 16  0  0  0  0  0  0  0  0999 V2000
  -19.9931   -7.2367  137.6978 C   0  0  0  0  0  0  0  0  0  0  0  0
  -22.3956   -7.8259  138.1589 C   0  0  0  0  0  0  0  0  0  0  0  0
  -20.9397   -8.0475  138.5970 C   0  0  0  0  0  0  0  0  0  0  0  0
  -21.4349   -8.7943  141.0222 C   0  0  0  0  0  0  0  0  0  0  0  0
  -20.6949   -7.7554  140.1110 C   0  0  0  0  0  0  0  0  0  0  0  0
  -22.4089   -8.1327  142.4362 S   0  0  0  0  0  0  0  0  0  0  0  0
  -24.4623   -6.6578  141.4123 C   0  0  0  0  0  0  0  0  0  0  0  0
  -20.9486   -6.2623  140.4620 C   0  0  0  0  0  0  0  0  0  0  0  0
  -20.4005   -5.7567  141.7916 C   0  0  0  0  0  0  0  0  0  0  0  0
  -25.0724   -8.7585  142.6961 C   0  0  0  0  0  0  0  0  0  0  0  0
  -19.6842   -5.3982  140.5074 C   0  0  0  0  0  0  0  0  0  0  0  0
  -26.4295   -9.0427  142.0202 C   0  0  0  0  0  0  0  0  0  0  0  0
  -24.0867   -8.1168  141.7020 C   0  0  0  0  0  0  0  0  0  0  0  0
  -27.5052   -9.5466  142.9726 C   0  0  0  0  0  0  0  0  0  0  0  0
  -26.8837  -10.4958  141.9615 C   0  0  0  0  0  0  0  0  0  0  0  0
  3  1  1  0
  3  2  1  0
  5  3  1  0
  5  4  1  0
  6  4  1  0
  8  5  1  0
  9  8  1  0
 11  8  1  0
 11  9  1  0
 12 10  1  0
 13  6  1  0
 13  7  1  0
 13 10  1  0
 14 12  1  0
 15 12  1  0
 15 14  1  0
M  END
$$$$

     RDKit          3D

 15 15  0  0  0  0  0  0  0  0999 V2000
  -24.9064  -14.1282  138.4729 O   0  0  0  0  0  0  0  0  0  0  0  0
  -25.8312  -14.9152  138.1341 C   0  0  0  0  0  0  0  0  0  0  0  0
  -25.5190  -16.1136  137.4972 O   0  0  0  0  0  0  0  0  0  0  0  0
  -27.6681  -13.2109  137.8252 C   0  0  0  0  0  0  0  0  0  0  0  0
  -27.3762  -12.0732  138.8234 C   0  0  0  0  0  0  0  0  0  0  0  0
  -27.7089  -10.6248  138.4246 C   0  0  0  0  0  0  0  0  0  0  0  0
  -28.4052  -10.3020  137.0802 C   0  0  0  0  0  0  0  0  0  0  0  0
  -27.2689  -14.5780  138.4114 C   0  0  0  0  0  0  0  0  0  0  0  0
  -26.8528   -9.5231  139.0929 C   0  0  0  0  0  0  0  0  0  0  0  0
  -28.6043  -11.3884  139.4093 C   0  0  0  0  0  0  0  0  0  0  0  0
  -23.8660  -10.6455  139.3793 C   0  0  0  0  0  0  0  0  0  0  0  0
  -29.4923   -9.2755  137.2726 C   0  0  0  0  0  0  0  0  0  0  0  0
  -25.6065   -9.1250  138.2812 C   0  0  0  0  0  0  0  0  0  0  0  0
  -30.7875   -9.5997  137.2158 C   0  0  0  0  0  0  0  0  0  0  0  0
  -24.5803  -10.2556  138.0805 C   0  0  0  0  0  0  0  0  0  0  0  0
  2  1  2  0
  3  2  1  0
  5  4  1  0
  6  5  1  0
  7  6  1  0
  8  2  1  0
  8  4  1  0
  9  6  1  0
 10  5  1  0
 10  6  1  0
 12  7  1  0
 13  9  1  0
 14 12  2  0
 15 11  1  0
 15 13  1  0
M  END
$$$$

     RDKit          3D

 11 12  0  0  0  0  0  0  0  0999 V2000
  -23.6394   -4.5208  132.2982 O   0  0  0  0  0  0  0  0  0  0  0  0
  -22.4429   -4.6702  134.3671 C   0  0  0  0  0  0  0  0  0  0  0  0
  -21.6125   -3.5381  133.9635 N   0  0  0  0  0  0  0  0  0  0  0  0
  -24.6732   -3.4864  134.2173 C   0  0  0  0  0  0  0  0  0  0  0  0
  -26.1084   -3.5664  133.6756 C   0  0  0  0  0  0  0  0  0  0  0  0
  -23.8072   -4.6406  133.6855 C   0  0  0  0  0  0  0  0  0  0  0  0
  -27.1006   -2.7947  134.5933 C   0  0  0  0  0  0  0  0  0  0  0  0
  -27.8098   -1.8708  133.5664 C   0  0  0  0  0  0  0  0  0  0  0  0
  -27.1537   -4.3381  134.3965 C   0  0  0  0  0  0  0  0  0  0  0  0
  -28.6067   -2.4466  134.6526 C   0  0  0  0  0  0  0  0  0  0  0  0
  -26.7818   -5.1443  135.6439 C   0  0  0  0  0  0  0  0  0  0  0  0
  3  2  1  0
  5  4  1  0
  6  1  1  0
  6  2  1  0
  6  4  1  0
  7  5  1  0
  8  7  1  0
  9  5  1  0
  9  7  1  0
 10  7  1  0
 10  8  1  0
 11  9  1  0
M  END
$$$$

     RDKit          3D

 15 16  0  0  0  0  0  0  0  0999 V2000
  -25.8518   -6.3525  138.8123 O   0  0  0  0  0  0  0  0  0  0  0  0
  -26.6452   -7.3854  138.2965 C   0  0  0  0  0  0  0  0  0  0  0  0
  -25.9309   -8.7255  138.3199 C   0  0  0  0  0  0  0  0  0  0  0  0
  -27.6452   -7.8774  139.3324 C   0  0  0  0  0  0  0  0  0  0  0  0
  -26.4721   -9.6484  140.7474 C   0  0  0  0  0  0  0  0  0  0  0  0
  -28.4170   -9.1404  139.0122 C   0  0  0  0  0  0  0  0  0  0  0  0
  -25.8007  -11.0269  140.7095 C   0  0  0  0  0  0  0  0  0  0  0  0
  -25.4612  -11.5624  142.1128 C   0  0  0  0  0  0  0  0  0  0  0  0
  -26.9390   -9.2509  139.3344 C   0  0  0  0  0  0  0  0  0  0  0  0
  -24.9757  -12.9814  141.9835 C   0  0  0  0  0  0  0  0  0  0  0  0
  -24.5017  -15.3331  141.9884 B   0  0  0  0  0  0  0  0  0  0  0  0
  -25.8689  -15.1377  141.2390 C   0  0  0  0  0  0  0  0  0  0  0  0
  -26.9749  -15.8411  140.9809 C   0  0  0  0  0  0  0  0  0  0  0  0
  -25.8021  -14.1660  142.3819 C   0  0  0  0  0  0  0  0  0  0  0  0
  -24.4139  -10.7537  142.7395 N   0  0  0  0  0  0  0  0  0  0  0  0
  2  1  1  0
  3  2  1  0
  4  2  1  0
  6  4  1  0
  7  5  1  0
  8  7  1  0
  9  3  1  0
  9  4  1  0
  9  5  1  0
  9  6  1  0
 10  8  1  0
 11 10  2  0
 13 12  2  0
 14 10  1  0
 14 12  1  0
 15  8  1  0
M  END
$$$$

     RDKit          3D

 15 15  0  0  0  0  0  0  0  0999 V2000
  -22.3165  -17.5724  141.4416 O   0  0  0  0  0  0  0  0  0  0  0  0
  -23.3226  -17.4460  142.4308 C   0  0  0  0  0  0  0  0  0  0  0  0
  -24.5505  -17.1529  141.8123 O   0  0  0  0  0  0  0  0  0  0  0  0
  -21.9238  -16.3018  140.9747 C   0  0  0  0  0  0  0  0  0  0  0  0
  -22.5045  -19.2553  145.4896 C   0  0  0  0  0  0  0  0  0  0  0  0
  -20.8732  -18.7046  143.7842 C   0  0  0  0  0  0  0  0  0  0  0  0
  -20.3022  -21.1633  143.3214 C   0  0  0  0  0  0  0  0  0  0  0  0
  -18.9973  -20.4000  143.4912 C   0  0  0  0  0  0  0  0  0  0  0  0
  -23.4329  -18.7651  143.2409 C   0  0  0  0  0  0  0  0  0  0  0  0
  -20.2208  -17.5944  144.1360 C   0  0  0  0  0  0  0  0  0  0  0  0
  -22.2746  -18.9044  144.2211 C   0  0  0  0  0  0  0  0  0  0  0  0
  -18.0334  -20.7616  142.5473 O   0  0  0  0  0  0  0  0  0  0  0  0
  -23.5403  -20.0374  142.3601 C   0  0  0  0  0  0  0  0  0  0  0  0
  -24.7563  -20.0697  141.5482 N   0  0  0  0  0  0  0  0  0  0  0  0
  -20.2063  -19.7018  142.8752 C   0  0  0  0  0  0  0  0  0  0  0  0
  2  1  1  0
  3  2  1  0
  4  1  1  0
  8  7  1  0
  9  2  1  0
 10  6  2  0
 11  5  2  0
 11  6  1  0
 11  9  1  0
 12  8  1  0
 13  9  1  0
 14 13  1  0
 15  6  1  0
 15  7  1  0
 15  8  1  0
M  END
$$$$

     RDKit          3D

 15 15  0  0  0  0  0  0  0  0999 V2000
  -26.3896  -10.8132  152.1921 O   0  0  0  0  0  0  0  0  0  0  0  0
  -25.4987   -9.7423  151.9293 C   0  0  0  0  0  0  0  0  0  0  0  0
  -24.1392  -10.1570  152.1621 O   0  0  0  0  0  0  0  0  0  0  0  0
  -25.6257   -9.4008  150.4278 C   0  0  0  0  0  0  0  0  0  0  0  0
  -24.7106   -8.2999  149.7583 C   0  0  0  0  0  0  0  0  0  0  0  0
  -25.2376   -6.7723  149.6943 C   0  0  0  0  0  0  0  0  0  0  0  0
  -24.6420   -5.3047  149.8832 C   0  0  0  0  0  0  0  0  0  0  0  0
  -26.3228   -6.3366  150.7975 C   0  0  0  0  0  0  0  0  0  0  0  0
  -27.1434   -9.4228  149.9314 C   0  0  0  0  0  0  0  0  0  0  0  0
  -23.1488   -4.9227  149.9467 C   0  0  0  0  0  0  0  0  0  0  0  0
  -25.6226   -5.0065  151.0492 C   0  0  0  0  0  0  0  0  0  0  0  0
  -23.5941   -2.6273  151.2567 C   0  0  0  0  0  0  0  0  0  0  0  0
  -22.9218   -3.2992  149.9658 C   0  0  0  0  0  0  0  0  0  0  0  0
  -23.3614   -1.1301  151.7169 C   0  0  0  0  0  0  0  0  0  0  0  0
  -21.4339   -2.8392  149.8066 C   0  0  0  0  0  0  0  0  0  0  0  0
  2  1  1  0
  3  2  1  0
  4  2  1  0
  5  4  1  0
  6  5  1  0
  7  6  1  0
  8  6  1  0
  9  4  1  0
 10  7  1  0
 11  7  1  0
 11  8  1  0
 13 10  1  0
 13 12  1  0
 14 12  1  0
 15 13  1  0
M  END
$$$$

     RDKit          3D

 15 16  0  0  0  0  0  0  0  0999 V2000
  -20.9797    0.0650  135.8083 O   0  0  0  0  0  0  0  0  0  0  0  0
  -21.7816   -0.8521  136.1439 C   0  0  0  0  0  0  0  0  0  0  0  0
  -23.1513   -0.6050  136.1478 O   0  0  0  0  0  0  0  0  0  0  0  0
  -20.8430   -3.1410  135.4470 C   0  0  0  0  0  0  0  0  0  0  0  0
  -21.9659   -3.6594  134.5087 C   0  0  0  0  0  0  0  0  0  0  0  0
  -23.9165   -3.0801  133.7659 C   0  0  0  0  0  0  0  0  0  0  0  0
  -24.7339   -3.9612  132.7845 C   0  0  0  0  0  0  0  0  0  0  0  0
  -24.1853   -5.3767  132.5053 C   0  0  0  0  0  0  0  0  0  0  0  0
  -21.9327   -3.0995  132.0017 C   0  0  0  0  0  0  0  0  0  0  0  0
  -19.6411   -2.5979  134.6584 C   0  0  0  0  0  0  0  0  0  0  0  0
  -21.2627   -2.1888  136.5878 C   0  0  0  0  0  0  0  0  0  0  0  0
  -24.0124   -5.7719  131.1037 C   0  0  0  0  0  0  0  0  0  0  0  0
  -25.2082   -6.2106  131.8445 N   0  0  0  0  0  0  0  0  0  0  0  0
  -22.4592   -2.7337  133.3923 C   0  0  0  0  0  0  0  0  0  0  0  0
  -23.4086   -3.8014  135.0287 C   0  0  0  0  0  0  0  0  0  0  0  0
  2  1  2  0
  3  2  1  0
  5  4  1  0
  7  6  1  0
  8  7  1  0
 10  4  1  0
 11  2  1  0
 11  4  1  0
 12  8  1  0
 13  8  1  0
 13 12  1  0
 14  5  1  0
 14  6  1  0
 14  9  1  0
 15  5  1  0
 15  6  1  0
M  END
$$$$

     RDKit          3D

 15 18  0  0  0  0  0  0  0  0999 V2000
  -30.2959   -3.8586  145.2426 O   0  0  0  0  0  0  0  0  0  0  0  0
  -29.4759   -4.0946  144.1223 C   0  0  0  0  0  0  0  0  0  0  0  0
  -29.0713   -2.8784  143.5342 O   0  0  0  0  0  0  0  0  0  0  0  0
  -28.9869   -4.3123  145.5048 C   0  0  0  0  0  0  0  0  0  0  0  0
  -28.0628   -3.1986  146.0070 C   0  0  0  0  0  0  0  0  0  0  0  0
  -27.0425   -2.7668  144.9192 C   0  0  0  0  0  0  0  0  0  0  0  0
  -25.7266   -3.5833  144.9818 C   0  0  0  0  0  0  0  0  0  0  0  0
  -24.2946   -1.8707  146.2618 C   0  0  0  0  0  0  0  0  0  0  0  0
  -25.1853   -0.9003  147.0542 C   0  0  0  0  0  0  0  0  0  0  0  0
  -24.8345   -3.3135  146.2128 C   0  0  0  0  0  0  0  0  0  0  0  0
  -24.0725   -0.6978  148.0681 C   0  0  0  0  0  0  0  0  0  0  0  0
  -25.1024    0.5749  146.6639 C   0  0  0  0  0  0  0  0  0  0  0  0
  -23.1853   -1.6783  147.3006 C   0  0  0  0  0  0  0  0  0  0  0  0
  -23.9790    0.7765  147.6735 C   0  0  0  0  0  0  0  0  0  0  0  0
  -27.6597   -2.8642  143.4923 C   0  0  0  0  0  0  0  0  0  0  0  0
  2  1  1  0
  3  2  1  0
  4  1  1  0
  4  2  1  0
  5  4  1  0
  6  5  1  0
  7  6  1  0
  9  8  1  0
 10  7  1  0
 10  8  1  0
 11  9  1  0
 12  9  1  0
 13  8  1  0
 13 11  1  0
 14 11  1  0
 14 12  1  0
 15  3  1  0
 15  6  1  0
M  END
$$$$

     RDKit          3D

 15 18  0  0  0  0  0  0  0  0999 V2000
  -21.4522  -11.6309  151.6513 O   0  0  0  0  0  0  0  0  0  0  0  0
  -20.4890  -10.9677  152.4233 C   0  0  0  0  0  0  0  0  0  0  0  0
  -19.1574  -11.3232  151.9334 N   0  0  0  0  0  0  0  0  0  0  0  0
  -20.6181  -11.3843  153.9079 C   0  0  0  0  0  0  0  0  0  0  0  0
  -21.9119  -10.9246  154.6432 C   0  0  0  0  0  0  0  0  0  0  0  0
  -23.3734   -8.8022  153.6506 C   0  0  0  0  0  0  0  0  0  0  0  0
  -22.1967   -9.4062  154.3927 C   0  0  0  0  0  0  0  0  0  0  0  0
  -23.2576   -8.7016  155.2142 C   0  0  0  0  0  0  0  0  0  0  0  0
  -23.4529  -12.1659  153.2072 O   0  0  0  0  0  0  0  0  0  0  0  0
  -24.6314  -13.6330  151.6866 C   0  0  0  0  0  0  0  0  0  0  0  0
  -24.7108   -9.4668  153.3618 C   0  0  0  0  0  0  0  0  0  0  0  0
  -25.6467  -13.1819  152.7224 C   0  0  0  0  0  0  0  0  0  0  0  0
  -24.1903  -13.3632  153.1164 C   0  0  0  0  0  0  0  0  0  0  0  0
  -24.5612   -8.4593  154.4870 C   0  0  0  0  0  0  0  0  0  0  0  0
  -23.0456  -11.9721  154.5443 C   0  0  0  0  0  0  0  0  0  0  0  0
  2  1  1  0
  3  2  1  0
  4  2  1  0
  5  4  1  0
  7  5  1  0
  7  6  1  0
  8  6  1  0
  8  7  1  0
 11  6  1  0
 12 10  1  0
 13  9  1  0
 13 10  1  0
 13 12  1  0
 14  6  1  0
 14  8  1  0
 14 11  1  0
 15  5  1  0
 15  9  1  0
M  END
$$$$

     RDKit          3D

 15 16  0  0  0  0  0  0  0  0999 V2000
  -36.1676   -9.0487  140.5471 O   0  0  0  0  0  0  0  0  0  0  0  0
  -34.9566   -9.7406  140.3836 C   0  0  0  0  0  0  0  0  0  0  0  0
  -34.9413  -10.8518  141.2519 O   0  0  0  0  0  0  0  0  0  0  0  0
  -33.7386   -8.8163  140.6704 C   0  0  0  0  0  0  0  0  0  0  0  0
  -33.8685   -7.4872  139.8708 C   0  0  0  0  0  0  0  0  0  0  0  0
  -32.3975   -9.6105  140.4505 C   0  0  0  0  0  0  0  0  0  0  0  0
  -31.3900   -9.0206  139.4437 C   0  0  0  0  0  0  0  0  0  0  0  0
  -30.5770   -7.8211  139.9952 C   0  0  0  0  0  0  0  0  0  0  0  0
  -31.4741   -6.8377  140.7875 C   0  0  0  0  0  0  0  0  0  0  0  0
  -30.8144   -5.8104  141.7210 C   0  0  0  0  0  0  0  0  0  0  0  0
  -32.9447   -5.2233  139.6298 C   0  0  0  0  0  0  0  0  0  0  0  0
  -29.8924   -7.0839  138.8287 C   0  0  0  0  0  0  0  0  0  0  0  0
  -32.7965   -6.4480  140.1575 C   0  0  0  0  0  0  0  0  0  0  0  0
  -29.4160   -5.8952  141.8019 O   0  0  0  0  0  0  0  0  0  0  0  0
  -31.5098   -7.0269  142.3140 C   0  0  0  0  0  0  0  0  0  0  0  0
  2  1  1  0
  3  2  1  0
  4  2  1  0
  5  4  1  0
  6  4  1  0
  7  6  1  0
  8  7  1  0
  9  8  1  0
 10  9  1  0
 12  8  1  0
 13  5  1  0
 13  9  1  0
 13 11  2  0
 14 10  1  0
 15  9  1  0
 15 10  1  0
M  END
$$$$

     RDKit          3D

 15 20  0  0  0  0  0  0  0  0999 V2000
  -26.5305  -16.0739  143.2036 C   0  0  0  0  0  0  0  0  0  0  0  0
  -26.0412  -16.3861  144.5856 C   0  0  0  0  0  0  0  0  0  0  0  0
  -25.9939  -17.0082  142.1407 C   0  0  0  0  0  0  0  0  0  0  0  0
  -26.5957  -17.3745  145.2995 C   0  0  0  0  0  0  0  0  0  0  0  0
  -24.5365  -16.7174  141.8617 C   0  0  0  0  0  0  0  0  0  0  0  0
  -24.2822  -16.6866  140.3726 C   0  0  0  0  0  0  0  0  0  0  0  0
  -26.1444  -17.6879  146.7100 C   0  0  0  0  0  0  0  0  0  0  0  0
  -25.6193  -16.2239  140.9031 C   0  0  0  0  0  0  0  0  0  0  0  0
  -25.4527  -15.5827  142.2621 C   0  0  0  0  0  0  0  0  0  0  0  0
  -27.2530  -17.3389  147.7159 C   0  0  0  0  0  0  0  0  0  0  0  0
  -25.9074  -19.1899  146.8753 C   0  0  0  0  0  0  0  0  0  0  0  0
  -28.1022  -18.6087  147.8165 C   0  0  0  0  0  0  0  0  0  0  0  0
  -27.1865  -19.7789  147.4676 C   0  0  0  0  0  0  0  0  0  0  0  0
  -26.6779  -16.9465  149.0938 C   0  0  0  0  0  0  0  0  0  0  0  0
  -25.9282  -15.6965  149.0022 N   0  0  0  0  0  0  0  0  0  0  0  0
  2  1  1  0
  3  1  1  0
  4  2  2  3
  5  3  1  0
  6  5  1  0
  7  4  1  0
  8  3  1  0
  8  5  1  0
  8  6  1  0
  9  1  1  0
  9  3  1  0
  9  5  1  0
  9  8  1  0
 10  7  1  0
 11  7  1  0
 12 10  1  0
 13 11  1  0
 13 12  1  0
 14 10  1  0
 15 14  1  0
M  END
$$$$

     RDKit          3D

 14 15  0  0  0  0  0  0  0  0999 V2000
  -15.6981    2.2245  142.1492 O   0  0  0  0  0  0  0  0  0  0  0  0
  -22.5530   -3.7029  143.4339 O   0  0  0  0  0  0  0  0  0  0  0  0
  -17.4227   -0.7796  142.6303 O   0  0  0  0  0  0  0  0  0  0  0  0
  -21.8732   -2.8960  142.6378 O   0  0  0  0  0  0  0  0  0  0  0  0
  -16.2457    1.0387  141.7855 N   0  0  0  0  0  0  0  0  0  0  0  0
  -24.3175  -11.2802  137.1243 C   0  0  0  0  0  0  0  0  0  0  0  0
  -15.2295    2.7852  140.9556 C   0  0  0  0  0  0  0  0  0  0  0  0
  -23.4771   -4.3374  142.5977 C   0  0  0  0  0  0  0  0  0  0  0  0
  -13.9053    2.1923  140.4915 C   0  0  0  0  0  0  0  0  0  0  0  0
  -16.8587    0.4541  142.9710 C   0  0  0  0  0  0  0  0  0  0  0  0
  -13.9478    3.5733  141.1295 C   0  0  0  0  0  0  0  0  0  0  0  0
  -13.7610    4.7196  140.1370 C   0  0  0  0  0  0  0  0  0  0  0  0
  -22.0412   -1.6028  143.1612 C   0  0  0  0  0  0  0  0  0  0  0  0
  -18.2658    0.9028  140.6410 S   0  0  0  0  0  4  0  0  0  0  0  0
  4  2  1  0
  5  1  1  0
  7  1  1  0
  8  2  1  0
  9  7  1  0
 10  3  1  0
 10  5  1  0
 11  7  1  0
 11  9  1  0
 12 11  1  0
 13  4  1  0
 14  5  1  0
 14  6  1  0
 14  8  1  0
 14  9  1  0
M  END
$$$$

     RDKit          3D

 15 20  0  0  0  0  0  0  0  0999 V2000
  -21.2902    5.7290  143.9196 O   0  0  0  0  0  0  0  0  0  0  0  0
  -20.3005    5.7683  142.9142 C   0  0  0  0  0  0  0  0  0  0  0  0
  -20.6005    6.6216  141.8490 O   0  0  0  0  0  0  0  0  0  0  0  0
  -18.8172    5.4842  143.3071 C   0  0  0  0  0  0  0  0  0  0  0  0
  -18.7236    5.7890  144.8450 C   0  0  0  0  0  0  0  0  0  0  0  0
  -18.9625    3.9919  142.9057 C   0  0  0  0  0  0  0  0  0  0  0  0
  -20.2648    3.5048  143.5058 C   0  0  0  0  0  0  0  0  0  0  0  0
  -17.5112    4.9216  144.9814 C   0  0  0  0  0  0  0  0  0  0  0  0
  -17.2759    3.6869  145.8254 C   0  0  0  0  0  0  0  0  0  0  0  0
  -21.2035    4.6026  143.0723 C   0  0  0  0  0  0  0  0  0  0  0  0
  -16.0511    2.9451  145.1874 C   0  0  0  0  0  0  0  0  0  0  0  0
  -15.7285    3.2530  143.6786 C   0  0  0  0  0  0  0  0  0  0  0  0
  -16.5774    4.1387  142.9091 O   0  0  0  0  0  0  0  0  0  0  0  0
  -16.3559    1.9160  144.0907 C   0  0  0  0  0  0  0  0  0  0  0  0
  -17.7571    4.3541  143.6298 C   0  0  0  0  0  0  0  0  0  0  0  0
  2  1  1  0
  3  2  1  0
  4  2  1  0
  5  4  1  0
  6  4  1  0
  7  6  1  0
  8  5  1  0
  9  8  1  0
 10  1  1  0
 10  2  1  0
 10  7  1  0
 11  9  1  0
 12 11  1  0
 13 12  1  0
 14 11  1  0
 14 12  1  0
 15  4  1  0
 15  6  1  0
 15  8  1  0
 15 13  1  0
M  END
$$$$

     RDKit          3D

 10  9  0  0  0  0  0  0  0  0999 V2000
  -24.6887    3.0229  136.9488 O   0  0  0  0  0  0  0  0  0  0  0  0
  -25.4698   -1.2516  139.9716 O   0  0  0  0  0  0  0  0  0  0  0  0
  -24.1014    1.0818  139.9671 O   0  0  0  0  0  0  0  0  0  0  0  0
  -25.5920   -0.3643  140.9489 O   0  0  0  0  0  0  0  0  0  0  0  0
  -26.6587   -1.9144  139.9092 N   0  0  0  0  0  0  0  0  0  0  0  0
  -23.9835    2.6679  139.2469 P   0  0  0  0  0  0  0  0  0  0  0  0
  -22.2496    2.7424  139.3239 O   0  0  0  0  0  0  0  0  0  0  0  0
  -25.4404    0.9009  140.3564 C   0  0  0  0  0  0  0  0  0  0  0  0
  -24.0355    2.0911  137.6109 O   0  0  0  0  0  0  0  0  0  0  0  0
  -21.9953    3.5376  140.3428 O   0  0  0  0  0  0  0  0  0  0  0  0
  4  2  1  0
  5  2  1  0
  6  3  1  0
  7  6  1  0
  8  3  1  0
  8  4  1  0
  9  1  1  0
  9  6  1  0
 10  7  1  0
M  END
$$$$

     RDKit          3D

 15 16  0  0  0  0  0  0  0  0999 V2000
  -26.2530  -10.3805  149.3650 C   0  0  0  0  0  0  0  0  0  0  0  0
  -26.6246  -10.5676  150.7174 O   0  0  0  0  0  0  0  0  0  0  0  0
  -25.5101   -9.1908  149.2000 O   0  0  0  0  0  0  0  0  0  0  0  0
  -27.5061  -10.4955  148.4366 C   0  0  0  0  0  0  0  0  0  0  0  0
  -28.8085  -10.2531  149.2589 C   0  0  0  0  0  0  0  0  0  0  0  0
  -28.7488  -12.2782  150.5273 O   0  0  0  0  0  0  0  0  0  0  0  0
  -28.2153  -10.0503  146.1420 C   0  0  0  0  0  0  0  0  0  0  0  0
  -28.2114   -9.0863  145.1261 O   0  0  0  0  0  0  0  0  0  0  0  0
  -28.5649   -9.2264  150.3929 C   0  0  0  0  0  0  0  0  0  0  0  0
  -27.3071   -9.4589  151.1470 N   0  0  0  0  0  0  0  0  0  0  0  0
  -27.4256   -9.5683  147.2856 N   0  0  0  0  0  0  0  0  0  0  0  0
  -27.6244   -9.6493  152.5619 C   0  0  0  0  0  0  0  0  0  0  0  0
  -28.8500   -8.8321  152.8959 C   0  0  0  0  0  0  0  0  0  0  0  0
  -29.3820  -11.5577  149.7720 C   0  0  0  0  0  0  0  0  0  0  0  0
  -29.9915   -9.0792  151.5276 S   0  0  0  0  0  0  0  0  0  0  0  0
  2  1  1  0
  3  1  1  0
  4  1  1  0
  5  4  1  0
  8  7  1  0
  9  5  1  0
 10  2  1  0
 10  9  1  0
 11  4  1  0
 11  7  1  0
 12 10  1  0
 13 12  1  0
 14  5  1  0
 14  6  2  0
 15  9  1  0
 15 13  1  0
M  END
$$$$

     RDKit          3D

 11 11  0  0  0  0  0  0  0  0999 V2000
  -22.1539    1.3995  145.8243 O   0  0  0  0  0  0  0  0  0  0  0  0
  -23.8592    0.7098  147.0117 C   0  0  0  0  0  0  0  0  0  0  0  0
  -25.2278   -1.2295  146.6344 O   0  0  0  0  0  0  0  0  0  0  0  0
  -23.2550    1.8312  146.4111 O   0  0  0  0  0  0  0  0  0  0  0  0
  -26.4141   -0.2033  144.2112 C   0  0  0  0  0  0  0  0  0  0  0  0
  -27.6642    0.4450  143.6263 C   0  0  0  0  0  0  0  0  0  0  0  0
  -25.6727    0.6694  145.2349 C   0  0  0  0  0  0  0  0  0  0  0  0
  -27.7960   -0.6969  144.6272 C   0  0  0  0  0  0  0  0  0  0  0  0
  -24.6085   -0.1527  145.9788 C   0  0  0  0  0  0  0  0  0  0  0  0
  -28.2091   -2.0478  144.0318 C   0  0  0  0  0  0  0  0  0  0  0  0
  -29.7243   -2.1272  143.8919 C   0  0  0  0  0  0  0  0  0  0  0  0
  4  1  1  0
  4  2  1  0
  6  5  1  0
  7  5  1  0
  8  5  1  0
  8  6  1  0
  9  2  1  0
  9  3  1  0
  9  7  1  0
 10  8  1  0
 11 10  1  0
M  END
$$$$

     RDKit          3D

 15 15  0  0  0  0  0  0  0  0999 V2000
  -25.1234   -0.3669  143.4259 N   0  0  0  0  0  0  0  0  0  0  0  0
  -24.1053    0.3598  142.6635 C   0  0  0  0  0  0  0  0  0  0  0  0
  -25.7797    0.5264  144.3826 C   0  0  0  0  0  0  0  0  0  0  0  0
  -23.7462   -0.3694  141.3821 C   0  0  0  0  0  0  0  0  0  0  0  0
  -24.5292    0.9405  141.3065 C   0  0  0  0  0  0  0  0  0  0  0  0
  -27.1493   -0.0563  144.7470 C   0  0  0  0  0  0  0  0  0  0  0  0
  -26.0155    0.8658  140.8805 C   0  0  0  0  0  0  0  0  0  0  0  0
  -27.9799    0.8803  145.6563 C   0  0  0  0  0  0  0  0  0  0  0  0
  -28.3784    2.2342  145.0084 C   0  0  0  0  0  0  0  0  0  0  0  0
  -27.8082    0.0841  139.3003 C   0  0  0  0  0  0  0  0  0  0  0  0
  -25.4885    0.5818  138.3915 C   0  0  0  0  0  0  0  0  0  0  0  0
  -25.5629   -0.3618  137.2756 N   0  0  0  0  0  0  0  0  0  0  0  0
  -28.9323    2.1066  143.6576 N   0  0  0  0  0  0  0  0  0  0  0  0
  -29.1823    0.1947  146.1380 N   0  0  0  0  0  0  0  0  0  0  0  0
  -26.2967    0.0554  139.5972 C   0  0  0  0  0  0  0  0  0  0  0  0
  2  1  1  0
  3  1  1  0
  4  2  1  0
  5  2  1  0
  5  4  1  0
  6  3  1  0
  7  5  1  0
  8  6  1  0
  9  8  1  0
 12 11  1  0
 13  9  1  0
 14  8  1  0
 15  7  1  0
 15 10  1  0
 15 11  1  0
M  END
$$$$

     RDKit          3D

 15 17  0  0  0  0  0  0  0  0999 V2000
  -32.4274   -5.1339  133.0145 O   0  0  0  0  0  0  0  0  0  0  0  0
  -32.7872   -5.3568  131.6737 C   0  0  0  0  0  0  0  0  0  0  0  0
  -34.1338   -5.0107  131.4723 O   0  0  0  0  0  0  0  0  0  0  0  0
  -30.5962   -4.5854  131.5718 C   0  0  0  0  0  0  0  0  0  0  0  0
  -30.1463   -5.3971  135.3207 C   0  0  0  0  0  0  0  0  0  0  0  0
  -28.9108   -4.6796  135.6794 N   0  0  0  0  0  0  0  0  0  0  0  0
  -31.0640   -4.7594  133.0148 C   0  0  0  0  0  0  0  0  0  0  0  0
  -31.8878   -4.5003  130.8190 C   0  0  0  0  0  0  0  0  0  0  0  0
  -30.2476   -5.8026  133.8187 C   0  0  0  0  0  0  0  0  0  0  0  0
  -28.1165   -5.4723  136.6292 C   0  0  0  0  0  0  0  0  0  0  0  0
  -27.9302   -7.5832  136.7616 C   0  0  0  0  0  0  0  0  0  0  0  0
  -27.0829   -6.4962  136.0752 C   0  0  0  0  0  0  0  0  0  0  0  0
  -28.9970   -6.5769  137.1517 C   0  0  0  0  0  0  0  0  0  0  0  0
  -30.2512   -6.5991  136.2736 C   0  0  0  0  0  0  0  0  0  0  0  0
  -28.1938   -3.8376  134.7078 C   0  0  0  0  0  0  0  0  0  0  0  0
  2  1  1  0
  3  2  1  0
  6  5  1  0
  7  1  1  0
  7  4  1  0
  8  2  1  0
  8  4  1  0
  9  5  1  0
  9  7  1  0
 10  6  1  0
 12 10  1  0
 12 11  1  0
 13 10  1  0
 13 11  1  0
 14  5  1  0
 14 13  1  0
 15  6  1  0
M  END
$$$$

     RDKit          3D

 15 16  0  0  0  0  0  0  0  0999 V2000
  -27.5181   -3.4359  140.7402 C   0  0  0  0  0  0  0  0  0  0  0  0
  -26.2703   -3.0494  140.2231 C   0  0  0  0  0  0  0  0  0  0  0  0
  -25.4748   -1.9609  140.8969 C   0  0  0  0  0  0  0  0  0  0  0  0
  -25.9972   -0.5666  140.5307 C   0  0  0  0  0  0  0  0  0  0  0  0
  -28.2755   -4.4168  140.0928 C   0  0  0  0  0  0  0  0  0  0  0  0
  -27.7968   -5.0128  138.9228 C   0  0  0  0  0  0  0  0  0  0  0  0
  -25.7614   -0.2486  139.0464 C   0  0  0  0  0  0  0  0  0  0  0  0
  -26.5994    0.9047  138.5054 C   0  0  0  0  0  0  0  0  0  0  0  0
  -26.5600   -4.6286  138.3981 C   0  0  0  0  0  0  0  0  0  0  0  0
  -25.7987   -3.6490  139.0429 C   0  0  0  0  0  0  0  0  0  0  0  0
  -25.9204    1.7417  137.4116 C   0  0  0  0  0  0  0  0  0  0  0  0
  -26.9642    2.4264  136.5152 C   0  0  0  0  0  0  0  0  0  0  0  0
  -27.7807    3.2841  137.2697 O   0  0  0  0  0  0  0  0  0  0  0  0
  -26.3252    3.1587  135.5007 O   0  0  0  0  0  0  0  0  0  0  0  0
  -26.9367   -0.5298  138.1141 C   0  0  0  0  0  0  0  0  0  0  0  0
  2  1  4  0
  3  2  1  0
  4  3  1  0
  5  1  4  0
  6  5  4  0
  7  4  1  0
  8  7  1  0
  9  6  4  0
 10  2  4  0
 10  9  4  0
 11  8  1  0
 12 11  1  0
 13 12  1  0
 14 12  1  0
 15  7  1  0
 15  8  1  0
M  END
$$$$

     RDKit          3D

 14 14  0  0  0  0  0  0  0  0999 V2000
  -23.9431   -6.7219  142.6011 C   0  0  0  0  0  0  0  0  0  0  0  0
  -24.3181   -8.6741  141.0782 C   0  0  0  0  0  0  0  0  0  0  0  0
  -24.5442  -10.1921  140.9280 C   0  0  0  0  0  0  0  0  0  0  0  0
  -22.4869   -6.6561  142.8698 C   0  0  0  0  0  0  0  0  0  0  0  0
  -23.4387   -6.4328  143.8848 O   0  0  0  0  0  0  0  0  0  0  0  0
  -25.9698  -10.5395  140.6196 C   0  0  0  0  0  0  0  0  0  0  0  0
  -26.0687   -8.0853  142.8547 C   0  0  0  0  0  0  0  0  0  0  0  0
  -26.3645   -7.6340  144.3024 C   0  0  0  0  0  0  0  0  0  0  0  0
  -26.5841  -11.3737  141.3372 O   0  0  0  0  0  0  0  0  0  0  0  0
  -26.6046   -9.9719  139.5188 O   0  0  0  0  0  0  0  0  0  0  0  0
  -26.7710   -6.1518  144.3858 C   0  0  0  0  0  0  0  0  0  0  0  0
  -24.5600   -8.1305  142.5090 C   0  0  0  0  0  0  0  0  0  0  0  0
  -25.9096   -5.5924  146.7226 C   0  0  0  0  0  0  0  0  0  0  0  0
  -27.1339   -5.7217  145.8157 C   0  0  0  0  0  0  0  0  0  0  0  0
  3  2  1  0
  4  1  1  0
  5  1  1  0
  5  4  1  0
  6  3  1  0
  8  7  1  0
  9  6  2  0
 10  6  1  0
 11  8  1  0
 12  1  1  0
 12  2  1  0
 12  7  1  0
 14 11  1  0
 14 13  1  0
M  END
$$$$

     RDKit          3D

 14 15  0  0  0  0  0  0  0  0999 V2000
  -24.7826   -3.4231  140.5469 O   0  0  0  0  0  0  0  0  0  0  0  0
  -24.2203   -2.6623  141.3762 C   0  0  0  0  0  0  0  0  0  0  0  0
  -23.3871   -3.1926  142.3515 O   0  0  0  0  0  0  0  0  0  0  0  0
  -24.8830    1.5822  141.1879 C   0  0  0  0  0  0  0  0  0  0  0  0
  -27.2160    0.9674  140.4444 O   0  0  0  0  0  0  0  0  0  0  0  0
  -24.1302    2.1022  139.9371 C   0  0  0  0  0  0  0  0  0  0  0  0
  -24.5475   -0.5533  141.2842 Mg  0  0  0  0  0  2  0  0  0  0  0  0
  -23.7708    3.5928  139.9892 C   0  0  0  0  0  0  0  0  0  0  0  0
  -22.2721    3.8658  139.8277 C   0  0  0  0  0  0  0  0  0  0  0  0
  -24.9243    2.3465  138.6477 C   0  0  0  0  0  0  0  0  0  0  0  0
  -24.5704    3.8283  138.7082 C   0  0  0  0  0  0  0  0  0  0  0  0
  -26.4096    1.7979  141.2335 C   0  0  0  0  0  0  0  0  0  0  0  0
  -26.9818    3.1748  141.5238 C   0  0  0  0  0  0  0  0  0  0  0  0
  -27.0188    2.0934  142.5975 C   0  0  0  0  0  0  0  0  0  0  0  0
  2  1  2  0
  3  2  1  0
  6  4  1  0
  7  2  1  0
  7  4  1  0
  8  6  1  0
  9  8  1  0
 10  6  1  0
 11  8  1  0
 11 10  1  0
 12  4  1  0
 12  5  1  0
 13 12  1  0
 14 12  1  0
 14 13  1  0
M  END
$$$$

     RDKit          3D

 15 16  0  0  0  0  0  0  0  0999 V2000
  -30.7472   -6.1829  140.6087 O   0  0  0  0  0  0  0  0  0  0  0  0
  -29.9999   -5.1694  139.9711 C   0  0  0  0  0  0  0  0  0  0  0  0
  -29.8340   -5.4660  138.5047 C   0  0  0  0  0  0  0  0  0  0  0  0
  -30.2100   -4.5627  137.6003 C   0  0  0  0  0  0  0  0  0  0  0  0
  -31.3927   -4.9451  140.4360 C   0  0  0  0  0  0  0  0  0  0  0  0
  -29.2785   -6.6725  138.0586 O   0  0  0  0  0  0  0  0  0  0  0  0
  -28.4313   -7.4995  138.8576 C   0  0  0  0  0  0  0  0  0  0  0  0
  -28.1820   -8.8541  138.1741 C   0  0  0  0  0  0  0  0  0  0  0  0
  -31.5690   -4.2321  141.7710 C   0  0  0  0  0  0  0  0  0  0  0  0
  -27.5829   -8.7302  136.7758 C   0  0  0  0  0  0  0  0  0  0  0  0
  -27.9963  -10.0098  136.0644 C   0  0  0  0  0  0  0  0  0  0  0  0
  -28.0636   -9.7913  134.2913 Cl  0  0  0  0  0  0  0  0  0  0  0  0
  -29.4684   -9.6821  138.0019 C   0  0  0  0  0  0  0  0  0  0  0  0
  -29.6311  -10.5916  139.0646 O   0  0  0  0  0  0  0  0  0  0  0  0
  -29.3591  -10.3877  136.6401 C   0  0  0  0  0  0  0  0  0  0  0  0
  2  1  1  0
  3  2  1  0
  4  3  2  0
  5  1  1  0
  5  2  1  0
  6  3  1  0
  7  6  1  0
  8  7  1  0
  9  5  1  0
 10  8  1  0
 11 10  1  0
 12 11  1  0
 13  8  1  0
 14 13  1  0
 15 11  1  0
 15 13  1  0
M  END
$$$$

     RDKit          3D

 15 17  0  0  0  0  0  0  0  0999 V2000
  -30.7160   -7.7674  132.2066 O   0  0  0  0  0  0  0  0  0  0  0  0
  -29.4446   -8.3246  131.9737 C   0  0  0  0  0  0  0  0  0  0  0  0
  -28.8647   -8.7295  133.3494 C   0  0  0  0  0  0  0  0  0  0  0  0
  -28.5899   -7.2120  131.2957 C   0  0  0  0  0  0  0  0  0  0  0  0
  -27.1597   -6.9790  131.8031 C   0  0  0  0  0  0  0  0  0  0  0  0
  -27.4293   -9.0077  133.2982 N   0  0  0  0  0  0  0  0  0  0  0  0
  -28.9541  -12.2666  131.8798 C   0  0  0  0  0  0  0  0  0  0  0  0
  -28.8283   -5.7721  131.7538 C   0  0  0  0  0  0  0  0  0  0  0  0
  -26.6534   -7.7995  133.0311 C   0  0  0  0  0  0  0  0  0  0  0  0
  -27.5678   -9.2737  129.8997 F   0  0  0  0  0  0  0  0  0  0  0  0
  -29.6664   -9.4622  131.1261 O   0  0  0  0  0  0  0  0  0  0  0  0
  -28.1676  -11.5153  130.8013 C   0  0  0  0  0  0  0  0  0  0  0  0
  -28.5263  -10.0551  130.5198 C   0  0  0  0  0  0  0  0  0  0  0  0
  -28.9844  -11.1573  129.5708 C   0  0  0  0  0  0  0  0  0  0  0  0
  -27.4344   -5.5746  132.1406 N   0  0  0  0  0  0  0  0  0  0  0  0
  2  1  1  0
  3  2  1  0
  4  2  1  0
  5  4  1  0
  6  3  1  0
  8  4  1  0
  9  5  1  0
  9  6  1  0
 11  2  1  0
 12  7  1  0
 13 10  1  0
 13 11  1  0
 13 12  1  0
 14 12  1  0
 14 13  1  0
 15  5  1  0
 15  8  1  0
M  END
$$$$

     RDKit          3D

 15 18  0  0  0  0  0  0  0  0999 V2000
  -19.9225  -17.2170  138.7252 C   0  0  0  0  0  0  0  0  0  0  0  0
  -22.5233  -15.6906  138.7820 C   0  0  0  0  0  0  0  0  0  0  0  0
  -22.4030  -16.2436  136.4149 C   0  0  0  0  0  0  0  0  0  0  0  0
  -23.6741  -15.6815  135.7015 C   0  0  0  0  0  0  0  0  0  0  0  0
  -22.7731  -17.4726  137.1866 C   0  0  0  0  0  0  0  0  0  0  0  0
  -23.5591  -14.2924  135.1224 C   0  0  0  0  0  0  0  0  0  0  0  0
  -24.2571  -13.5356  136.3467 C   0  0  0  0  0  0  0  0  0  0  0  0
  -21.6874  -15.4132  137.5358 C   0  0  0  0  0  0  0  0  0  0  0  0
  -25.6722  -14.1499  136.2199 C   0  0  0  0  0  0  0  0  0  0  0  0
  -25.1832  -15.3994  135.3496 C   0  0  0  0  0  0  0  0  0  0  0  0
  -27.7171  -15.5753  135.3561 C   0  0  0  0  0  0  0  0  0  0  0  0
  -26.3775  -15.4755  136.2980 C   0  0  0  0  0  0  0  0  0  0  0  0
  -23.2751  -16.9632  138.5442 C   0  0  0  0  0  0  0  0  0  0  0  0
  -24.7614  -14.5519  134.1628 C   0  0  0  0  0  0  0  0  0  0  0  0
  -20.1892  -15.8918  137.7880 C   0  0  0  0  0  0  0  0  0  0  0  0
  4  3  1  0
  5  3  1  0
  6  4  1  0
  7  6  1  0
  8  2  1  0
  8  3  1  0
  9  7  1  0
 10  4  1  0
 10  9  1  0
 12  9  1  0
 12 10  1  0
 12 11  1  0
 13  2  1  0
 13  5  1  0
 14  6  1  0
 14 10  1  0
 15  1  1  0
 15  8  1  0
M  END
$$$$

     RDKit          3D

 11 13  0  0  0  0  0  0  0  0999 V2000
  -25.3103   -7.4190  134.6895 O   0  0  0  0  0  0  0  0  0  0  0  0
  -24.8626   -8.5811  134.0569 C   0  0  0  0  0  0  0  0  0  0  0  0
  -24.7193   -8.3154  132.6942 O   0  0  0  0  0  0  0  0  0  0  0  0
  -25.8728   -9.0532  133.0134 C   0  0  0  0  0  0  0  0  0  0  0  0
  -25.7558   -9.7718  134.3491 C   0  0  0  0  0  0  0  0  0  0  0  0
  -24.9426  -11.0824  134.4510 C   0  0  0  0  0  0  0  0  0  0  0  0
  -25.5494  -12.2828  133.7007 C   0  0  0  0  0  0  0  0  0  0  0  0
  -27.0855  -12.3550  133.6572 C   0  0  0  0  0  0  0  0  0  0  0  0
  -27.7754  -11.9809  134.9800 C   0  0  0  0  0  0  0  0  0  0  0  0
  -28.1227  -10.4852  135.0488 C   0  0  0  0  0  0  0  0  0  0  0  0
  -26.9226   -9.5787  135.3459 C   0  0  0  0  0  0  0  0  0  0  0  0
  2  1  1  0
  3  2  1  0
  4  2  1  0
  4  3  1  0
  5  2  1  0
  5  4  1  0
  6  5  1  0
  7  6  1  0
  8  7  1  0
  9  8  1  0
 10  9  1  0
 11  5  1  0
 11 10  1  0
M  END
$$$$

     RDKit          3D

 15 17  0  0  0  0  0  0  0  0999 V2000
  -22.3992  -15.8418  140.9222 N   0  0  0  0  0  0  0  0  0  0  0  0
  -23.4220  -15.2201  143.0019 C   0  0  0  0  0  0  0  0  0  0  0  0
  -22.3175  -14.4709  140.3770 C   0  0  0  0  0  0  0  0  0  0  0  0
  -23.8540  -13.8307  142.7780 N   0  0  0  0  0  0  0  0  0  0  0  0
  -23.5167  -16.0247  141.7711 N   0  0  0  0  0  0  0  0  0  0  0  0
  -21.4709  -14.4803  139.1838 N   0  0  0  0  0  0  0  0  0  0  0  0
  -22.7843  -12.8915  142.3859 C   0  0  0  0  0  0  0  0  0  0  0  0
  -21.7313  -13.4857  141.4117 C   0  0  0  0  0  0  0  0  0  0  0  0
  -22.1317  -12.3093  143.6616 C   0  0  0  0  0  0  0  0  0  0  0  0
  -21.1384  -11.1624  143.3981 C   0  0  0  0  0  0  0  0  0  0  0  0
  -21.8092   -9.9702  142.6746 C   0  0  0  0  0  0  0  0  0  0  0  0
  -22.8267   -9.3683  143.5348 N   0  0  0  0  0  0  0  0  0  0  0  0
  -21.5459   -8.6528  143.3761 C   0  0  0  0  0  0  0  0  0  0  0  0
  -20.8671   -8.9623  142.0577 C   0  0  0  0  0  0  0  0  0  0  0  0
  -19.3502   -9.1338  142.1870 C   0  0  0  0  0  0  0  0  0  0  0  0
  3  1  1  0
  4  2  1  0
  5  1  1  0
  5  2  1  0
  6  3  1  0
  7  4  1  0
  8  3  1  0
  8  7  1  0
  9  7  1  0
 10  9  1  0
 11 10  1  0
 12 11  1  0
 13 11  1  0
 13 12  1  0
 14 11  1  0
 14 13  1  0
 15 14  1  0
M  END
$$$$

     RDKit          3D

 15 18  0  0  0  0  0  0  0  0999 V2000
  -21.3985  -12.3001  136.9519 C   0  0  0  0  0  0  0  0  0  0  0  0
  -22.3117  -11.1087  137.2594 C   0  0  0  0  0  0  0  0  0  0  0  0
  -21.5935  -13.4444  137.9294 C   0  0  0  0  0  0  0  0  0  0  0  0
  -22.4342  -12.9895  139.1157 C   0  0  0  0  0  0  0  0  0  0  0  0
  -22.7387  -12.4981  137.7084 C   0  0  0  0  0  0  0  0  0  0  0  0
  -23.2451  -10.5840  136.1352 C   0  0  0  0  0  0  0  0  0  0  0  0
  -21.8863  -10.1002  138.3572 C   0  0  0  0  0  0  0  0  0  0  0  0
  -21.3485   -8.8866  137.7503 N   0  0  0  0  0  0  0  0  0  0  0  0
  -22.8588  -11.0273  134.7142 C   0  0  0  0  0  0  0  0  0  0  0  0
  -23.4343  -14.0413  139.6122 C   0  0  0  0  0  0  0  0  0  0  0  0
  -23.6491  -14.0467  141.1233 C   0  0  0  0  0  0  0  0  0  0  0  0
  -24.7494  -13.5308  140.2049 C   0  0  0  0  0  0  0  0  0  0  0  0
  -21.5339  -10.4575  134.2821 C   0  0  0  0  0  0  0  0  0  0  0  0
  -21.0233  -10.7451  133.0829 C   0  0  0  0  0  0  0  0  0  0  0  0
  -24.9856  -12.0161  140.2520 C   0  0  0  0  0  0  0  0  0  0  0  0
  2  1  1  0
  3  1  1  0
  4  3  1  0
  5  1  1  0
  5  2  1  0
  5  3  1  0
  5  4  1  0
  6  2  1  0
  7  2  1  0
  8  7  1  0
  9  6  1  0
 10  4  1  0
 11 10  1  0
 12 10  1  0
 12 11  1  0
 13  9  1  0
 14 13  2  0
 15 12  1  0
M  END
$$$$

     RDKit          3D

 15 15  0  0  0  0  0  0  0  0999 V2000
  -32.7775   -0.3136  133.8471 O   0  0  0  0  0  0  0  0  0  0  0  0
  -33.1052   -0.1417  132.4862 C   0  0  0  0  0  0  0  0  0  0  0  0
  -34.4876   -0.0564  132.2655 O   0  0  0  0  0  0  0  0  0  0  0  0
  -32.1684    0.8090  131.7226 C   0  0  0  0  0  0  0  0  0  0  0  0
  -32.2335    0.5081  130.3740 F   0  0  0  0  0  0  0  0  0  0  0  0
  -30.8578    0.6537  132.1461 F   0  0  0  0  0  0  0  0  0  0  0  0
  -32.7508   -4.1839  131.5547 C   0  0  0  0  0  0  0  0  0  0  0  0
  -32.5777    2.2655  131.9292 C   0  0  0  0  0  0  0  0  0  0  0  0
  -33.1575   -5.0448  130.3542 C   0  0  0  0  0  0  0  0  0  0  0  0
  -33.9442   -3.3701  132.0763 C   0  0  0  0  0  0  0  0  0  0  0  0
  -33.5910   -2.5505  133.3245 C   0  0  0  0  0  0  0  0  0  0  0  0
  -32.5866   -1.4347  133.0046 C   0  0  0  0  0  0  0  0  0  0  0  0
  -31.9940   -5.8501  129.8553 C   0  0  0  0  0  0  0  0  0  0  0  0
  -31.0309   -5.2937  129.3519 O   0  0  0  0  0  0  0  0  0  0  0  0
  -32.0141   -7.9564  129.9953 I   0  0  0  0  0  0  0  0  0  0  0  0
  2  1  1  0
  3  2  1  0
  4  2  1  0
  5  4  1  0
  6  4  1  0
  8  4  1  0
  9  7  1  0
 10  7  1  0
 11 10  1  0
 12  1  1  0
 12  2  1  0
 12 11  1  0
 13  9  1  0
 14 13  2  0
 15 13  1  0
M  END
$$$$

     RDKit          3D

 15 16  0  0  0  0  0  0  0  0999 V2000
  -22.4461   -0.5821  139.8954 N   0  0  0  0  0  0  0  0  0  0  0  0
  -21.5807   -1.5112  139.1483 C   0  0  0  0  0  0  0  0  0  0  0  0
  -23.8424   -1.0360  139.9985 C   0  0  0  0  0  0  0  0  0  0  0  0
  -21.7016   -2.8770  139.6579 N   0  0  0  0  0  2  0  0  0  0  0  0
  -21.8815   -1.4608  137.7189 N   0  0  0  0  0  2  0  0  0  0  0  0
  -24.7957    0.0902  140.4674 C   0  0  0  0  0  0  0  0  0  0  0  0
  -25.1131    0.9846  139.4041 O   0  0  0  0  0  0  0  0  0  0  0  0
  -24.1764    2.0304  139.2393 C   0  0  0  0  0  0  0  0  0  0  0  0
  -24.4083    0.7874  141.8043 C   0  0  0  0  0  0  0  0  0  0  0  0
  -24.4716   -0.1680  143.0156 C   0  0  0  0  0  0  0  0  0  0  0  0
  -24.2463    0.4357  144.4397 C   0  0  0  0  0  0  0  0  0  0  0  0
  -24.0843    1.9047  144.5803 C   0  0  0  0  0  0  0  0  0  0  0  0
  -22.8957    0.9979  145.0156 C   0  0  0  0  0  0  0  0  0  0  0  0
  -21.7177    1.7580  144.3448 C   0  0  0  0  0  0  0  0  0  0  0  0
  -21.7957    0.2977  144.1708 C   0  0  0  0  0  0  0  0  0  0  0  0
  2  1  1  0
  3  1  1  0
  4  2  1  0
  5  2  1  0
  6  3  1  0
  7  6  1  0
  8  7  1  0
  9  6  1  0
 10  9  1  0
 11 10  1  0
 12 11  1  0
 13 11  1  0
 13 12  1  0
 14 13  1  0
 15 13  1  0
 15 14  1  0
M  RAD  2   4   2   5   2
M  END
$$$$

     RDKit          3D

 15 21  0  0  0  0  0  0  0  0999 V2000
  -18.7701    2.1128  135.5860 C   0  0  0  0  0  0  0  0  0  0  0  0
  -17.7615    1.3591  136.4267 C   0  0  0  0  0  0  0  0  0  0  0  0
  -18.7885    0.6060  135.5240 C   0  0  0  0  0  0  0  0  0  0  0  0
  -19.9586    0.0094  136.3403 C   0  0  0  0  0  0  0  0  0  0  0  0
  -20.3356   -1.3644  135.7515 C   0  0  0  0  0  0  0  0  0  0  0  0
  -21.4104   -1.3540  134.6343 C   0  0  0  0  0  0  0  0  0  0  0  0
  -22.6353   -1.7716  133.8670 C   0  0  0  0  0  0  0  0  0  0  0  0
  -23.4575   -0.5970  133.3677 C   0  0  0  0  0  0  0  0  0  0  0  0
  -22.6571   -1.1587  136.8234 C   0  0  0  0  0  0  0  0  0  0  0  0
  -22.5077   -0.3317  134.5054 C   0  0  0  0  0  0  0  0  0  0  0  0
  -25.1324   -0.8969  137.4670 C   0  0  0  0  0  0  0  0  0  0  0  0
  -23.2753   -0.1832  135.8421 C   0  0  0  0  0  0  0  0  0  0  0  0
  -21.6527   -1.9827  136.0347 C   0  0  0  0  0  0  0  0  0  0  0  0
  -17.4731   -0.0310  135.8954 C   0  0  0  0  0  0  0  0  0  0  0  0
  -24.1111   -1.3331  136.4186 C   0  0  0  0  0  0  0  0  0  0  0  0
  2  1  1  0
  3  1  1  0
  3  2  1  0
  4  3  1  0
  5  4  1  0
  6  5  1  0
  7  6  1  0
  8  7  1  0
 10  6  1  0
 10  7  1  0
 10  8  1  0
 12  9  1  0
 12 10  1  0
 13  5  1  0
 13  6  1  0
 13  9  1  0
 14  2  1  0
 14  3  1  0
 15  9  1  0
 15 11  1  0
 15 12  1  0
M  END
$$$$

     RDKit          3D

 11 10  0  0  0  0  0  0  0  0999 V2000
  -26.0105   -9.7278  137.5287 N   0  0  0  0  0  0  0  0  0  0  0  0
  -27.0765  -10.1615  138.1896 C   0  0  0  0  0  0  0  0  0  0  0  0
  -25.4629  -10.5331  136.5993 C   0  0  0  0  0  0  0  0  0  0  0  0
  -25.4094  -11.7582  137.1456 N   0  0  0  0  0  2  0  0  0  0  0  0
  -25.4597  -13.0945  137.3589 C   0  0  0  0  0  0  0  0  0  0  0  0
  -24.1221  -10.5264  136.6129 N   0  0  0  0  0  2  0  0  0  0  0  0
  -28.2922   -9.8030  137.7846 N   0  0  0  0  0  0  0  0  0  0  0  0
  -25.1049  -14.0822  136.4467 C   0  0  0  0  0  0  0  0  0  0  0  0
  -28.0127   -9.2595  138.5934 N   0  0  0  0  0  0  0  0  0  0  0  0
  -23.7817  -14.5693  136.3838 C   0  0  0  0  0  0  0  0  0  0  0  0
  -24.6324  -13.9790  136.6344 C   0  0  0  0  0  0  0  0  0  0  0  0
  2  1  1  0
  3  1  1  0
  4  3  1  0
  5  4  1  0
  6  3  1  0
  7  2  1  0
  8  5  1  0
  9  7  1  0
 11  8  1  0
 11 10  2  0
M  RAD  2   4   2   6   2
M  END
$$$$

     RDKit          3D

 15 18  0  0  0  0  0  0  0  0999 V2000
  -31.1437  -17.3797  146.7892 O   0  0  0  0  0  0  0  0  0  0  0  0
  -33.0254  -16.1946  145.8512 C   0  0  0  0  0  0  0  0  0  0  0  0
  -32.1884  -15.4977  144.9613 O   0  0  0  0  0  0  0  0  0  0  0  0
  -34.4381  -16.3693  145.2452 C   0  0  0  0  0  0  0  0  0  0  0  0
  -35.5291  -16.3290  146.2982 C   0  0  0  0  0  0  0  0  0  0  0  0
  -32.4119  -17.5619  146.2135 C   0  0  0  0  0  0  0  0  0  0  0  0
  -32.2855  -18.3550  145.0633 O   0  0  0  0  0  0  0  0  0  0  0  0
  -35.4402  -15.2265  145.1816 C   0  0  0  0  0  0  0  0  0  0  0  0
  -34.9594  -13.8489  145.6852 C   0  0  0  0  0  0  0  0  0  0  0  0
  -35.7428  -13.5181  146.9540 C   0  0  0  0  0  0  0  0  0  0  0  0
  -36.0183  -12.0087  147.0832 C   0  0  0  0  0  0  0  0  0  0  0  0
  -37.0318  -14.3248  146.8360 C   0  0  0  0  0  0  0  0  0  0  0  0
  -36.7276  -15.4900  145.9041 C   0  0  0  0  0  0  0  0  0  0  0  0
  -36.2205  -11.5049  148.5040 C   0  0  0  0  0  0  0  0  0  0  0  0
  -34.9227  -11.2067  147.7689 C   0  0  0  0  0  0  0  0  0  0  0  0
  3  2  1  0
  4  2  1  0
  5  4  1  0
  6  1  1  0
  6  2  1  0
  7  6  1  0
  8  4  1  0
  8  5  1  0
  9  8  1  0
 10  9  1  0
 11 10  1  0
 12 10  1  0
 13  5  1  0
 13  8  1  0
 13 12  1  0
 14 11  1  0
 15 11  1  0
 15 14  1  0
M  END
$$$$

     RDKit          3D

 10  9  0  0  0  0  0  0  0  0999 V2000
  -23.7364   -8.7175  143.9207 O   0  0  0  0  0  0  0  0  0  0  0  0
  -23.7052   -8.5396  145.3529 C   0  0  0  0  0  0  0  0  0  0  0  0
  -22.5871   -8.1868  145.8124 O   0  0  0  0  0  0  0  0  0  0  0  0
  -22.9253   -8.8265  141.5420 C   0  0  0  0  0  0  0  0  0  0  0  0
  -23.3317  -10.5931  139.9126 O   0  0  0  0  0  0  0  0  0  0  0  0
  -24.1338  -11.0461  142.1064 C   0  0  0  0  0  0  0  0  0  0  0  0
  -24.1468   -8.1781  141.2703 O   0  0  0  0  0  0  0  0  0  0  0  0
  -21.8193   -8.2274  140.6433 C   0  0  0  0  0  0  0  0  0  0  0  0
  -22.5469   -8.5405  143.0147 C   0  0  0  0  0  0  0  0  0  0  0  0
  -23.0445  -10.3638  141.2712 C   0  0  0  0  0  0  0  0  0  0  0  0
  2  1  1  0
  3  2  2  0
  7  4  1  0
  8  4  1  0
  9  1  1  0
  9  4  1  0
 10  4  1  0
 10  5  1  0
 10  6  1  0
M  END
$$$$

     RDKit          3D

 15 21  0  0  0  0  0  0  0  0999 V2000
  -21.4114   -6.4918  139.8716 N   0  0  0  0  0  0  0  0  0  0  0  0
  -21.7491   -7.7906  139.9342 C   0  0  0  0  0  0  0  0  0  0  0  0
  -23.2580   -8.0377  140.0576 N   0  0  0  0  0  0  0  0  0  0  0  0
  -24.2313   -7.0113  140.7290 C   0  0  0  0  0  0  0  0  0  0  0  0
  -23.0753   -7.0336  142.4142 C   0  0  0  0  0  0  0  0  0  0  0  0
  -24.2853   -6.3633  142.3454 C   0  0  0  0  0  0  0  0  0  0  0  0
  -21.1432   -8.1783  141.2574 C   0  0  0  0  0  0  0  0  0  0  0  0
  -21.5904   -6.9801  142.1557 C   0  0  0  0  0  0  0  0  0  0  0  0
  -23.7126   -4.7659  142.7858 C   0  0  0  0  0  0  0  0  0  0  0  0
  -22.3144   -4.4927  141.9393 C   0  0  0  0  0  0  0  0  0  0  0  0
  -23.2387   -6.1789  140.9399 C   0  0  0  0  0  0  0  0  0  0  0  0
  -21.8362   -5.8985  141.1636 C   0  0  0  0  0  0  0  0  0  0  0  0
  -21.2194   -3.9034  142.7544 C   0  0  0  0  0  0  0  0  0  0  0  0
  -21.2454   -2.0827  142.6798 S   0  0  0  0  0  0  0  0  0  0  0  0
  -22.3715   -4.5557  143.5256 C   0  0  0  0  0  0  0  0  0  0  0  0
  2  1  2  0
  3  2  1  0
  4  3  1  0
  6  4  1  0
  6  5  1  0
  7  2  1  0
  8  5  1  0
  8  7  1  0
  9  6  1  0
 10  9  1  0
 11  4  1  0
 11  5  1  0
 12  1  1  0
 12  8  1  0
 12 10  1  0
 12 11  1  0
 13 10  1  0
 14 13  1  0
 15  9  1  0
 15 10  1  0
 15 13  1  0
M  END
$$$$

     RDKit          3D

 15 16  0  0  0  0  0  0  0  0999 V2000
  -29.3093  -17.2515  146.5927 O   0  0  0  0  0  0  0  0  0  0  0  0
  -28.6939  -18.0409  147.6494 C   0  0  0  0  0  0  0  0  0  0  0  0
  -29.6796  -17.3745  147.2402 O   0  0  0  0  0  0  0  0  0  0  0  0
  -28.5561  -16.9781  145.2624 C   0  0  0  0  0  0  0  0  0  0  0  0
  -29.4380  -16.7605  144.0435 C   0  0  0  0  0  0  0  0  0  0  0  0
  -29.0095  -17.6173  142.8634 C   0  0  0  0  0  0  0  0  0  0  0  0
  -27.7973  -17.0633  142.0805 C   0  0  0  0  0  0  0  0  0  0  0  0
  -27.2759  -15.2096  140.5189 C   0  0  0  0  0  0  0  0  0  0  0  0
  -29.6321  -15.9369  140.5357 C   0  0  0  0  0  0  0  0  0  0  0  0
  -26.9507  -18.2098  141.4801 C   0  0  0  0  0  0  0  0  0  0  0  0
  -27.6889  -19.0384  140.4149 C   0  0  0  0  0  0  0  0  0  0  0  0
  -28.2025  -16.0486  141.0137 C   0  0  0  0  0  0  0  0  0  0  0  0
  -26.7803  -20.1171  139.8313 C   0  0  0  0  0  0  0  0  0  0  0  0
  -30.9520  -16.8443  144.3240 C   0  0  0  0  0  0  0  0  0  0  0  0
  -28.6876  -18.1061  144.2613 C   0  0  0  0  0  0  0  0  0  0  0  0
  2  1  1  0
  3  2  2  0
  4  1  1  0
  5  4  1  0
  6  5  1  0
  7  6  1  0
 10  7  1  0
 11 10  1  0
 12  7  1  0
 12  8  2  0
 12  9  1  0
 13 11  1  0
 14  5  1  0
 15  4  1  0
 15  5  1  0
 15  6  1  0
M  END
$$$$

     RDKit          3D

 11 13  0  0  0  0  0  0  0  0999 V2000
  -27.0645  -22.4966  146.1552 O   0  0  0  0  0  0  0  0  0  0  0  0
  -28.3351  -22.7618  145.5868 C   0  0  0  0  0  0  0  0  0  0  0  0
  -26.5611  -21.9739  145.0200 O   0  0  0  0  0  0  0  0  0  0  0  0
  -27.7602  -22.1956  144.3757 C   0  0  0  0  0  0  0  0  0  0  0  0
  -28.0737  -21.9840  142.9057 C   0  0  0  0  0  0  0  0  0  0  0  0
  -27.3001  -21.4857  140.6853 O   0  0  0  0  0  0  0  0  0  0  0  0
  -26.9158  -21.4969  142.0338 C   0  0  0  0  0  0  0  0  0  0  0  0
  -25.5644  -19.3048  142.0281 S   0  0  0  0  0  0  0  0  0  0  0  0
  -27.5394  -19.6835  143.6279 C   0  0  0  0  0  0  0  0  0  0  0  0
  -28.4315  -20.8926  143.9164 C   0  0  0  0  0  0  0  0  0  0  0  0
  -26.6641  -20.1042  142.4995 C   0  0  0  0  0  0  0  0  0  0  0  0
  2  1  1  0
  3  1  1  0
  4  2  1  0
  4  3  1  0
  5  4  1  0
  7  5  1  0
  7  6  1  0
 10  4  1  0
 10  5  1  0
 10  9  1  0
 11  7  1  0
 11  8  2  0
 11  9  1  0
M  END
$$$$

     RDKit          3D

 14 16  0  0  0  0  0  0  0  0999 V2000
  -22.0093  -10.4050  136.1667 F   0  0  0  0  0  0  0  0  0  0  0  0
  -21.8179   -8.0963  135.6813 C   0  0  0  0  0  0  0  0  0  0  0  0
  -21.7627   -9.1796  136.7620 C   0  0  0  0  0  0  0  0  0  0  0  0
  -23.0796   -8.0363  135.1160 F   0  0  0  0  0  0  0  0  0  0  0  0
  -20.4885   -9.2140  137.3037 F   0  0  0  0  0  0  0  0  0  0  0  0
  -24.0444   -6.3348  139.4969 C   0  0  0  0  0  0  0  0  0  0  0  0
  -23.2531   -6.4363  138.2029 C   0  0  0  0  0  0  0  0  0  0  0  0
  -22.5481   -7.6859  138.7115 C   0  0  0  0  0  0  0  0  0  0  0  0
  -23.3846   -7.6450  139.9907 C   0  0  0  0  0  0  0  0  0  0  0  0
  -24.8970   -7.5119  139.8994 C   0  0  0  0  0  0  0  0  0  0  0  0
  -22.6737   -7.4301  141.3379 C   0  0  0  0  0  0  0  0  0  0  0  0
  -22.7968   -8.9653  137.8837 C   0  0  0  0  0  0  0  0  0  0  0  0
  -23.1357   -8.3370  142.4688 C   0  0  0  0  0  0  0  0  0  0  0  0
  -21.8217   -8.6170  141.7640 C   0  0  0  0  0  0  0  0  0  0  0  0
  3  1  1  0
  3  2  1  0
  4  2  1  0
  5  3  1  0
  7  6  1  0
  8  7  1  0
  9  6  1  0
  9  8  1  0
 10  6  1  0
 10  9  1  0
 11  9  1  0
 12  3  1  0
 12  8  1  0
 13 11  1  0
 14 11  1  0
 14 13  1  0
M  END
$$$$

     RDKit          3D

 15 19  0  0  0  0  0  0  0  0999 V2000
  -23.5936  -19.5160  144.0184 O   0  0  0  0  0  0  0  0  0  0  0  0
  -23.8417  -18.2266  143.5221 C   0  0  0  0  0  0  0  0  0  0  0  0
  -23.0776  -17.8416  142.4671 O   0  0  0  0  0  0  0  0  0  0  0  0
  -24.7590  -17.2732  144.2543 C   0  0  0  0  0  0  0  0  0  0  0  0
  -25.6321  -16.5124  143.4686 O   0  0  0  0  0  0  0  0  0  0  0  0
  -24.4698  -16.8147  145.6874 C   0  0  0  0  0  0  0  0  0  0  0  0
  -25.1458  -15.5379  146.2173 C   0  0  0  0  0  0  0  0  0  0  0  0
  -24.1809  -14.6461  147.0473 C   0  0  0  0  0  0  0  0  0  0  0  0
  -22.7617  -14.4627  146.4343 C   0  0  0  0  0  0  0  0  0  0  0  0
  -22.7534  -14.0589  144.9427 C   0  0  0  0  0  0  0  0  0  0  0  0
  -23.2276  -15.1577  143.9551 C   0  0  0  0  0  0  0  0  0  0  0  0
  -22.1294  -15.9181  143.2040 C   0  0  0  0  0  0  0  0  0  0  0  0
  -23.4983  -16.4883  144.5912 C   0  0  0  0  0  0  0  0  0  0  0  0
  -22.5821  -17.3420  143.7144 C   0  0  0  0  0  0  0  0  0  0  0  0
  -24.0588  -15.1744  148.4834 C   0  0  0  0  0  0  0  0  0  0  0  0
  2  1  1  0
  3  2  1  0
  4  2  1  0
  5  4  1  0
  6  4  1  0
  7  6  1  0
  8  7  1  0
  9  8  1  0
 10  9  1  0
 11 10  1  0
 12 11  1  0
 13  4  1  0
 13  6  1  0
 13 11  1  0
 14  2  1  0
 14  3  1  0
 14 12  1  0
 14 13  1  0
 15  8  1  0
M  END
$$$$

     RDKit          3D

 15 16  0  0  0  0  0  0  0  0999 V2000
  -17.0132   -5.3078  136.7838 C   0  0  0  0  0  0  0  0  0  0  0  0
  -16.4586   -6.3936  136.7259 O   0  0  0  0  0  0  0  0  0  0  0  0
  -18.8260   -4.0718  135.6853 N   0  0  0  0  0  0  0  0  0  0  0  0
  -19.8630   -5.1080  135.8477 C   0  0  0  0  0  0  0  0  0  0  0  0
  -16.4926   -3.4918  135.2217 C   0  0  0  0  0  0  0  0  0  0  0  0
  -15.5879   -3.6065  134.1506 C   0  0  0  0  0  0  0  0  0  0  0  0
  -20.1287   -5.9151  134.5573 C   0  0  0  0  0  0  0  0  0  0  0  0
  -14.6799   -2.5783  133.8791 C   0  0  0  0  0  0  0  0  0  0  0  0
  -19.5174   -7.3237  134.6409 C   0  0  0  0  0  0  0  0  0  0  0  0
  -17.4630   -4.6131  135.5261 C   0  0  0  0  0  0  0  0  0  0  0  0
  -14.6612   -1.4308  134.6758 C   0  0  0  0  0  0  0  0  0  0  0  0
  -20.4137   -8.3914  135.2501 C   0  0  0  0  0  0  0  0  0  0  0  0
  -20.1747   -8.3651  133.7480 C   0  0  0  0  0  0  0  0  0  0  0  0
  -15.5487   -1.3100  135.7479 C   0  0  0  0  0  0  0  0  0  0  0  0
  -16.4586   -2.3350  136.0237 C   0  0  0  0  0  0  0  0  0  0  0  0
  2  1  2  0
  4  3  1  0
  6  5  4  0
  7  4  1  0
  8  6  4  0
  9  7  1  0
 10  1  1  0
 10  3  1  0
 10  5  1  0
 11  8  4  0
 12  9  1  0
 13  9  1  0
 13 12  1  0
 14 11  4  0
 15  5  4  0
 15 14  4  0
M  END
$$$$

     RDKit          3D

 15 16  0  0  0  0  0  0  0  0999 V2000
  -15.6990  -21.9180  134.6533 O   0  0  0  0  0  0  0  0  0  0  0  0
  -15.3276  -20.5884  134.4561 C   0  0  0  0  0  0  0  0  0  0  0  0
  -15.7996  -19.8922  133.3333 C   0  0  0  0  0  0  0  0  0  0  0  0
  -15.4381  -18.5592  133.1266 C   0  0  0  0  0  0  0  0  0  0  0  0
  -14.4817  -19.9389  135.3801 C   0  0  0  0  0  0  0  0  0  0  0  0
  -14.6034  -17.9120  134.0390 C   0  0  0  0  0  0  0  0  0  0  0  0
  -13.9735  -20.6466  136.6153 C   0  0  0  0  0  0  0  0  0  0  0  0
  -14.7181  -20.2031  137.8893 C   0  0  0  0  0  0  0  0  0  0  0  0
  -14.1278  -18.5960  135.1605 C   0  0  0  0  0  0  0  0  0  0  0  0
  -16.2215  -20.5792  137.9236 C   0  0  0  0  0  0  0  0  0  0  0  0
  -16.9267  -19.7209  139.0159 C   0  0  0  0  0  0  0  0  0  0  0  0
  -19.1720  -18.4503  139.2227 C   0  0  0  0  0  0  0  0  0  0  0  0
  -16.3990  -22.1019  138.0928 C   0  0  0  0  0  0  0  0  0  0  0  0
  -18.4537  -19.7731  138.9513 C   0  0  0  0  0  0  0  0  0  0  0  0
  -17.7281  -20.3682  140.1508 C   0  0  0  0  0  0  0  0  0  0  0  0
  2  1  1  0
  3  2  4  0
  4  3  4  0
  5  2  4  0
  6  4  4  0
  7  5  1  0
  8  7  1  0
  9  5  4  0
  9  6  4  0
 10  8  1  0
 11 10  1  0
 13 10  1  0
 14 11  1  0
 14 12  1  0
 15 11  1  0
 15 14  1  0
M  END
$$$$

     RDKit          3D

 15 15  0  0  0  0  0  0  0  0999 V2000
  -20.4903   -7.1719  136.5850 O   0  0  0  0  0  0  0  0  0  0  0  0
  -19.6510   -7.8903  137.4622 C   0  0  0  0  0  0  0  0  0  0  0  0
  -20.2901   -9.0462  137.9161 O   0  0  0  0  0  0  0  0  0  0  0  0
  -19.3726   -7.8074  136.0040 C   0  0  0  0  0  0  0  0  0  0  0  0
  -19.3035   -8.5007  133.7524 F   0  0  0  0  0  0  0  0  0  0  0  0
  -18.8998  -10.1957  135.3414 C   0  0  0  0  0  0  0  0  0  0  0  0
  -18.3975   -6.8932  135.6443 F   0  0  0  0  0  0  0  0  0  0  0  0
  -21.2527   -9.2358  134.9154 C   0  0  0  0  0  0  0  0  0  0  0  0
  -21.6855  -10.3194  133.9077 C   0  0  0  0  0  0  0  0  0  0  0  0
  -22.2719  -12.9619  133.6068 Al  0  0  0  0  0  3  0  0  0  0  0  0
  -21.2926  -11.5871  134.3842 O   0  0  0  0  0  0  0  0  0  0  0  0
  -21.1051  -10.0684  132.6524 O   0  0  0  0  0  0  0  0  0  0  0  0
  -23.9664  -13.5667  134.4545 C   0  0  0  0  0  0  0  0  0  0  0  0
  -21.6367  -13.8076  131.9205 C   0  0  0  0  0  0  0  0  0  0  0  0
  -19.7219   -8.9429  134.9974 C   0  0  0  0  0  0  0  0  0  0  0  0
  2  1  1  0
  3  2  1  0
  4  1  1  0
  4  2  1  0
  7  4  1  0
  9  8  1  0
 11  9  1  0
 11 10  1  0
 12  9  1  0
 13 10  1  0
 14 10  1  0
 15  4  1  0
 15  5  1  0
 15  6  1  0
 15  8  1  0
M  END
$$$$

     RDKit          3D

 15 17  0  0  0  0  0  0  0  0999 V2000
  -24.9581   -4.9610  138.4249 C   0  0  0  0  0  0  0  0  0  0  0  0
  -22.7871   -6.1590  137.6389 C   0  0  0  0  0  0  0  0  0  0  0  0
  -24.1600   -6.2751  138.2905 C   0  0  0  0  0  0  0  0  0  0  0  0
  -22.9051   -6.4815  139.1248 C   0  0  0  0  0  0  0  0  0  0  0  0
  -22.6403   -7.8262  139.3996 O   0  0  0  0  0  0  0  0  0  0  0  0
  -23.9901   -2.5692  137.9505 C   0  0  0  0  0  0  0  0  0  0  0  0
  -24.2000   -3.7157  138.9424 C   0  0  0  0  0  0  0  0  0  0  0  0
  -25.2703   -1.9412  137.5717 N   0  0  0  0  0  0  0  0  0  0  0  0
  -22.8346   -1.4953  138.1590 C   0  0  0  0  0  0  0  0  0  0  0  0
  -21.7313   -1.7146  139.2725 C   0  0  0  0  0  0  0  0  0  0  0  0
  -23.3406   -0.0274  138.1044 C   0  0  0  0  0  0  0  0  0  0  0  0
  -20.4954   -0.8241  139.0019 C   0  0  0  0  0  0  0  0  0  0  0  0
  -25.1177   -2.5061  138.9209 C   0  0  0  0  0  0  0  0  0  0  0  0
  -22.2233   -1.4032  140.7018 C   0  0  0  0  0  0  0  0  0  0  0  0
  -21.0984   -3.3884  139.2161 Cl  0  0  0  0  0  0  0  0  0  0  0  0
  3  1  1  0
  3  2  1  0
  4  2  1  0
  4  3  1  0
  5  4  1  0
  7  1  1  0
  7  6  1  0
  8  6  1  0
  9  6  1  0
 10  9  1  0
 11  9  1  0
 12 10  1  0
 13  6  1  0
 13  7  1  0
 13  8  1  0
 14 10  1  0
 15 10  1  0
M  END
$$$$

     RDKit          3D

 15 15  0  0  0  0  0  0  0  0999 V2000
  -31.5589  -14.3576  141.0989 C   0  0  0  0  0  0  0  0  0  0  0  0
  -32.3552  -13.3645  140.2198 C   0  0  0  0  0  0  0  0  0  0  0  0
  -33.2462  -14.1078  139.3275 N   0  0  0  0  0  0  0  0  0  0  0  0
  -29.6925  -14.7019  142.7641 C   0  0  0  0  0  0  0  0  0  0  0  0
  -28.6930  -14.0102  143.7010 C   0  0  0  0  0  0  0  0  0  0  0  0
  -30.5588  -13.6696  142.0409 C   0  0  0  0  0  0  0  0  0  0  0  0
  -33.1182  -12.2495  140.9909 C   0  0  0  0  0  0  0  0  0  0  0  0
  -29.2042  -13.6982  145.0975 C   0  0  0  0  0  0  0  0  0  0  0  0
  -34.1573  -12.7278  142.0340 C   0  0  0  0  0  0  0  0  0  0  0  0
  -28.2367  -14.8532  144.8823 C   0  0  0  0  0  0  0  0  0  0  0  0
  -35.6113  -12.8217  141.5083 C   0  0  0  0  0  0  0  0  0  0  0  0
  -36.5324  -10.9177  142.9991 C   0  0  0  0  0  0  0  0  0  0  0  0
  -37.7182   -9.9622  143.1825 C   0  0  0  0  0  0  0  0  0  0  0  0
  -36.4604  -11.5229  141.5673 C   0  0  0  0  0  0  0  0  0  0  0  0
  -36.0085  -10.4790  140.5244 C   0  0  0  0  0  0  0  0  0  0  0  0
  2  1  1  0
  3  2  1  0
  5  4  1  0
  6  1  1  0
  6  4  1  0
  7  2  1  0
  8  5  1  0
  9  7  1  0
 10  5  1  0
 10  8  1  0
 11  9  1  0
 13 12  1  0
 14 11  1  0
 14 12  1  0
 15 14  1  0
M  END
$$$$

     RDKit          3D

 15 16  0  0  0  0  0  0  0  0999 V2000
  -22.5591  -23.1412  139.5016 C   0  0  0  0  0  0  0  0  0  0  0  0
  -23.8804  -23.2116  138.7494 C   0  0  0  0  0  0  0  0  0  0  0  0
  -24.2739  -24.5813  138.1969 C   0  0  0  0  0  0  0  0  0  0  0  0
  -22.3561  -23.6599  140.9732 C   0  0  0  0  0  0  0  0  0  0  0  0
  -25.3103  -25.3283  139.1407 C   0  0  0  0  0  0  0  0  0  0  0  0
  -23.6139  -24.1036  141.7435 C   0  0  0  0  0  0  0  0  0  0  0  0
  -22.7725  -24.2634  138.5032 C   0  0  0  0  0  0  0  0  0  0  0  0
  -23.4837  -24.3491  143.2726 C   0  0  0  0  0  0  0  0  0  0  0  0
  -21.0149  -24.2830  144.0374 C   0  0  0  0  0  0  0  0  0  0  0  0
  -21.9249  -26.4887  142.9527 C   0  0  0  0  0  0  0  0  0  0  0  0
  -22.1155  -27.6464  143.8839 N   0  0  0  0  0  0  0  0  0  0  0  0
  -22.2796  -25.1905  143.8064 C   0  0  0  0  0  0  0  0  0  0  0  0
  -21.5146  -28.8933  143.3980 C   0  0  0  0  0  0  0  0  0  0  0  0
  -23.7763  -29.1424  141.9166 C   0  0  0  0  0  0  0  0  0  0  0  0
  -22.3627  -29.6763  142.2997 C   0  0  0  0  0  0  0  0  0  0  0  0
  2  1  1  0
  3  2  1  0
  4  1  1  0
  5  3  1  0
  6  4  1  0
  7  1  1  0
  7  2  1  0
  7  3  1  0
  8  6  1  0
 11 10  1  0
 12  8  1  0
 12  9  1  0
 12 10  1  0
 13 11  1  0
 15 13  1  0
 15 14  1  0
M  END
$$$$

     RDKit          3D

 14 15  0  0  0  0  0  0  0  0999 V2000
  -22.2164    0.9712  136.2040 O   0  0  0  0  0  0  0  0  0  0  0  0
  -23.2117    0.3140  135.4596 C   0  0  0  0  0  0  0  0  0  0  0  0
  -25.8955   -2.0191  135.8635 N   0  0  0  0  0  0  0  0  0  0  0  0
  -24.4389    1.2145  135.2925 C   0  0  0  0  0  0  0  0  0  0  0  0
  -25.6453    0.4583  135.8296 C   0  0  0  0  0  0  0  0  0  0  0  0
  -25.5749    0.8173  134.3442 C   0  0  0  0  0  0  0  0  0  0  0  0
  -25.3556   -0.3158  133.3210 C   0  0  0  0  0  0  0  0  0  0  0  0
  -26.4523    1.2624  136.6168 F   0  0  0  0  0  0  0  0  0  0  0  0
  -27.2980   -2.0300  136.3005 C   0  0  0  0  0  0  0  0  0  0  0  0
  -24.7414    0.2127  132.0175 C   0  0  0  0  0  0  0  0  0  0  0  0
  -25.7187    1.0644  131.2076 C   0  0  0  0  0  0  0  0  0  0  0  0
  -25.1627   -0.8707  136.4270 C   0  0  0  0  0  0  0  0  0  0  0  0
  -23.6552   -0.9799  136.1540 C   0  0  0  0  0  0  0  0  0  0  0  0
  -27.9611   -3.1283  135.7372 O   0  0  0  0  0  0  0  0  0  0  0  0
  2  1  1  0
  4  2  1  0
  5  4  1  0
  6  4  1  0
  6  5  1  0
  7  6  1  0
  8  5  1  0
  9  3  1  0
 10  7  1  0
 11 10  1  0
 12  3  1  0
 12  5  1  0
 13  2  1  0
 13 12  1  0
 14  9  1  0
M  END
$$$$

     RDKit          3D

 15 17  0  0  0  0  0  0  0  0999 V2000
  -15.0148    1.0818  144.2183 O   0  0  0  0  0  0  0  0  0  0  0  0
  -15.7561    2.2679  144.1238 C   0  0  0  0  0  0  0  0  0  0  0  0
  -14.9090    3.3694  143.8965 O   0  0  0  0  0  0  0  0  0  0  0  0
  -16.6040    2.5511  145.3320 C   0  0  0  0  0  0  0  0  0  0  0  0
  -18.6396    1.6870  146.6452 C   0  0  0  0  0  0  0  0  0  0  0  0
  -19.5585    2.8591  147.0993 C   0  0  0  0  0  0  0  0  0  0  0  0
  -19.3833    0.3248  146.6885 C   0  0  0  0  0  0  0  0  0  0  0  0
  -15.4341    1.5929  145.4579 C   0  0  0  0  0  0  0  0  0  0  0  0
  -18.7764    4.1826  147.2882 C   0  0  0  0  0  0  0  0  0  0  0  0
  -18.0143    1.9352  145.2396 C   0  0  0  0  0  0  0  0  0  0  0  0
  -20.6330    0.2651  145.8043 C   0  0  0  0  0  0  0  0  0  0  0  0
  -20.1936    2.5267  148.3225 O   0  0  0  0  0  0  0  0  0  0  0  0
  -21.2983    3.3872  148.5679 C   0  0  0  0  0  0  0  0  0  0  0  0
  -19.5024    5.1398  148.2488 C   0  0  0  0  0  0  0  0  0  0  0  0
  -21.0089    4.8741  148.2608 C   0  0  0  0  0  0  0  0  0  0  0  0
  2  1  1  0
  3  2  1  0
  4  2  1  0
  6  5  1  0
  7  5  1  0
  8  1  1  0
  8  2  1  0
  8  4  1  0
  9  6  1  0
 10  4  1  0
 10  5  1  0
 11  7  1  0
 12  6  1  0
 13 12  1  0
 14  9  1  0
 15 13  1  0
 15 14  1  0
M  END
$$$$

     RDKit          3D

 11 12  0  0  0  0  0  0  0  0999 V2000
  -29.8223  -10.5096  145.4812 O   0  0  0  0  0  0  0  0  0  0  0  0
  -29.3459  -11.4759  146.3843 C   0  0  0  0  0  0  0  0  0  0  0  0
  -28.6409  -10.8430  147.4213 O   0  0  0  0  0  0  0  0  0  0  0  0
  -28.9937  -11.0102  144.4608 C   0  0  0  0  0  0  0  0  0  0  0  0
  -26.9572  -12.1317  145.5945 C   0  0  0  0  0  0  0  0  0  0  0  0
  -26.0406  -11.7588  144.5908 C   0  0  0  0  0  0  0  0  0  0  0  0
  -24.6637  -11.8419  144.8211 C   0  0  0  0  0  0  0  0  0  0  0  0
  -24.1846  -12.3349  146.0362 C   0  0  0  0  0  0  0  0  0  0  0  0
  -25.0814  -12.7664  147.0152 C   0  0  0  0  0  0  0  0  0  0  0  0
  -28.4546  -12.1310  145.3341 C   0  0  0  0  0  0  0  0  0  0  0  0
  -26.4586  -12.6851  146.7889 C   0  0  0  0  0  0  0  0  0  0  0  0
  2  1  1  0
  3  2  1  0
  4  1  1  0
  6  5  4  0
  7  6  4  0
  8  7  4  0
  9  8  4  0
 10  2  1  0
 10  4  1  0
 10  5  1  0
 11  5  4  0
 11  9  4  0
M  END
$$$$

     RDKit          3D

 15 16  0  0  0  0  0  0  0  0999 V2000
  -24.7983    4.0229  142.5272 C   0  0  0  0  0  0  0  0  0  0  0  0
  -26.1151    4.7087  142.9432 C   0  0  0  0  0  0  0  0  0  0  0  0
  -24.9135    2.5028  142.3016 C   0  0  0  0  0  0  0  0  0  0  0  0
  -26.9475    5.3495  141.8018 C   0  0  0  0  0  0  0  0  0  0  0  0
  -26.3357    6.5446  141.0015 C   0  0  0  0  0  0  0  0  0  0  0  0
  -25.7171    2.1024  141.0514 C   0  0  0  0  0  0  0  0  0  0  0  0
  -27.1627    1.7170  141.4083 C   0  0  0  0  0  0  0  0  0  0  0  0
  -25.3640    7.4250  141.8222 C   0  0  0  0  0  0  0  0  0  0  0  0
  -27.4022    0.2395  141.6819 C   0  0  0  0  0  0  0  0  0  0  0  0
  -25.2831    8.8671  141.3669 C   0  0  0  0  0  0  0  0  0  0  0  0
  -25.2664    9.3091  140.0945 C   0  0  0  0  0  0  0  0  0  0  0  0
  -25.5037    8.4733  138.8621 C   0  0  0  0  0  0  0  0  0  0  0  0
  -24.8501    7.0921  138.9323 C   0  0  0  0  0  0  0  0  0  0  0  0
  -27.8682    0.8562  140.3718 C   0  0  0  0  0  0  0  0  0  0  0  0
  -25.7358    6.0643  139.6515 C   0  0  0  0  0  0  0  0  0  0  0  0
  2  1  1  0
  3  1  1  0
  4  2  1  0
  5  4  1  0
  6  3  1  0
  7  6  1  0
  8  5  1  0
  9  7  1  0
 10  8  1  0
 11 10  2  0
 12 11  1  0
 13 12  1  0
 14  7  1  0
 14  9  1  0
 15  5  1  0
 15 13  1  0
M  END
$$$$

     RDKit          3D

 15 16  0  0  0  0  0  0  0  0999 V2000
  -29.7524  -18.4730  147.3672 O   0  0  0  0  0  0  0  0  0  0  0  0
  -29.5276  -19.8408  147.5907 C   0  0  0  0  0  0  0  0  0  0  0  0
  -30.7381  -20.5235  147.4026 O   0  0  0  0  0  0  0  0  0  0  0  0
  -29.0322  -20.0628  149.0293 C   0  0  0  0  0  0  0  0  0  0  0  0
  -27.6431  -19.4429  149.2618 C   0  0  0  0  0  0  0  0  0  0  0  0
  -27.0340  -19.8354  150.6201 C   0  0  0  0  0  0  0  0  0  0  0  0
  -27.7678  -19.2571  151.8450 C   0  0  0  0  0  0  0  0  0  0  0  0
  -26.2579  -17.2421  152.3837 C   0  0  0  0  0  0  0  0  0  0  0  0
  -28.2298  -17.1899  153.2598 C   0  0  0  0  0  0  0  0  0  0  0  0
  -27.9855  -15.7222  153.5512 C   0  0  0  0  0  0  0  0  0  0  0  0
  -27.6380  -17.7263  151.9615 C   0  0  0  0  0  0  0  0  0  0  0  0
  -27.8035  -13.9967  155.3707 C   0  0  0  0  0  0  0  0  0  0  0  0
  -28.5685  -15.2293  154.8795 C   0  0  0  0  0  0  0  0  0  0  0  0
  -28.3971  -13.4611  156.6702 C   0  0  0  0  0  0  0  0  0  0  0  0
  -26.8308  -16.6960  153.6810 C   0  0  0  0  0  0  0  0  0  0  0  0
  2  1  1  0
  3  2  1  0
  4  2  1  0
  5  4  1  0
  6  5  1  0
  7  6  1  0
 10  9  1  0
 11  7  1  0
 11  8  1  0
 11  9  1  0
 13 10  1  0
 13 12  1  0
 14 12  1  0
 15  8  1  0
 15  9  1  0
 15 10  1  0
M  END
$$$$

     RDKit          3D

 15 17  0  0  0  0  0  0  0  0999 V2000
  -20.5330  -10.2001  139.6965 C   0  0  0  0  0  0  0  0  0  0  0  0
  -21.2152  -11.2651  138.8214 C   0  0  0  0  0  0  0  0  0  0  0  0
  -20.5453  -10.6097  141.1870 C   0  0  0  0  0  0  0  0  0  0  0  0
  -19.6624   -9.6922  142.0294 C   0  0  0  0  0  0  0  0  0  0  0  0
  -20.3137  -12.3873  138.3290 C   0  0  0  0  0  0  0  0  0  0  0  0
  -20.7593  -11.2936  137.3702 C   0  0  0  0  0  0  0  0  0  0  0  0
  -20.5649   -8.5196  142.4276 C   0  0  0  0  0  0  0  0  0  0  0  0
  -21.9359  -10.4749  141.8195 C   0  0  0  0  0  0  0  0  0  0  0  0
  -20.1387   -7.6719  143.6778 C   0  0  0  0  0  0  0  0  0  0  0  0
  -19.9964   -8.4317  144.9988 C   0  0  0  0  0  0  0  0  0  0  0  0
  -20.6327   -6.2005  143.8099 C   0  0  0  0  0  0  0  0  0  0  0  0
  -21.9663   -9.1328  142.5540 C   0  0  0  0  0  0  0  0  0  0  0  0
  -20.0032   -5.3010  142.7381 C   0  0  0  0  0  0  0  0  0  0  0  0
  -22.1606   -6.0932  143.7753 C   0  0  0  0  0  0  0  0  0  0  0  0
  -18.7525   -7.9037  144.2955 C   0  0  0  0  0  0  0  0  0  0  0  0
  2  1  1  0
  3  1  1  0
  4  3  1  0
  5  2  1  0
  6  2  1  0
  6  5  1  0
  7  4  1  0
  8  3  1  0
  9  7  1  0
 10  9  1  0
 11  9  1  0
 12  7  1  0
 12  8  1  0
 13 11  1  0
 14 11  1  0
 15  9  1  0
 15 10  1  0
M  END
$$$$

     RDKit          3D

 15 16  0  0  0  0  0  0  0  0999 V2000
  -21.9062   -4.5513  145.0163 O   0  0  0  0  0  0  0  0  0  0  0  0
  -22.3902   -3.3868  145.0218 C   0  0  0  0  0  0  0  0  0  0  0  0
  -22.7670   -2.7982  146.2279 O   0  0  0  0  0  0  0  0  0  0  0  0
  -22.6146   -2.6474  143.7303 C   0  0  0  0  0  0  0  0  0  0  0  0
  -23.8011   -3.2824  142.9717 C   0  0  0  0  0  0  0  0  0  0  0  0
  -24.4012   -2.3975  141.8487 C   0  0  0  0  0  0  0  0  0  0  0  0
  -25.1018   -1.1366  142.4542 C   0  0  0  0  0  0  0  0  0  0  0  0
  -25.3861   -3.2308  140.9800 C   0  0  0  0  0  0  0  0  0  0  0  0
  -25.6258   -0.1574  141.4690 C   0  0  0  0  0  0  0  0  0  0  0  0
  -21.3247   -2.6497  142.8962 C   0  0  0  0  0  0  0  0  0  0  0  0
  -24.5407    0.3302  142.4670 C   0  0  0  0  0  0  0  0  0  0  0  0
  -26.4848   -5.2796  142.0462 C   0  0  0  0  0  0  0  0  0  0  0  0
  -23.0744    0.2973  141.9669 C   0  0  0  0  0  0  0  0  0  0  0  0
  -26.6235   -3.7922  141.7223 C   0  0  0  0  0  0  0  0  0  0  0  0
  -23.9026    1.4874  141.6647 C   0  0  0  0  0  0  0  0  0  0  0  0
  2  1  2  0
  3  2  1  0
  4  2  1  0
  5  4  1  0
  6  5  1  0
  7  6  1  0
  8  6  1  0
  9  7  1  0
 10  4  1  0
 11  7  1  0
 11  9  1  0
 13 11  1  0
 14  8  1  0
 14 12  1  0
 15 11  1  0
 15 13  1  0
M  END
$$$$

     RDKit          3D

 15 20  0  0  0  0  0  0  0  0999 V2000
  -29.5885   -9.1036  133.8746 N   0  0  0  0  0  0  0  0  0  0  0  0
  -28.4309   -9.3876  134.7386 C   0  0  0  0  0  0  0  0  0  0  0  0
  -30.4751   -9.9721  133.2354 C   0  0  0  0  0  0  0  0  0  0  0  0
  -31.5427   -9.4959  132.4082 N   0  0  0  0  0  0  0  0  0  0  0  0
  -30.3615  -11.2171  133.5945 N   0  0  0  0  0  0  0  0  0  0  0  0
  -29.2254  -11.6750  134.4486 C   0  0  0  0  0  0  0  0  0  0  0  0
  -28.7496  -10.6457  135.4293 N   0  0  0  0  0  0  0  0  0  0  0  0
  -32.4804  -10.3865  131.7249 C   0  0  0  0  0  0  0  0  0  0  0  0
  -30.7780  -11.3365  130.0956 C   0  0  0  0  0  0  0  0  0  0  0  0
  -32.0888  -10.5684  130.2548 C   0  0  0  0  0  0  0  0  0  0  0  0
  -29.3331   -8.3770  135.1706 C   0  0  0  0  0  0  0  0  0  0  0  0
  -28.6155   -7.0905  134.8394 C   0  0  0  0  0  0  0  0  0  0  0  0
  -27.2301   -6.9877  135.3328 C   0  0  0  0  0  0  0  0  0  0  0  0
  -28.2830   -5.9153  135.6978 C   0  0  0  0  0  0  0  0  0  0  0  0
  -27.9638   -8.2891  135.6209 C   0  0  0  0  0  0  0  0  0  0  0  0
  2  1  1  0
  3  1  1  0
  4  3  1  0
  5  3  2  0
  6  5  1  0
  7  2  1  0
  7  6  1  0
  8  4  1  0
 10  8  1  0
 10  9  1  0
 11  1  1  0
 11  2  1  0
 12 11  1  0
 13 12  1  0
 14 12  1  0
 14 13  1  0
 15  2  1  0
 15 11  1  0
 15 12  1  0
 15 13  1  0
M  END
$$$$

     RDKit          3D

 15 17  0  0  0  0  0  0  0  0999 V2000
  -30.8781  -12.6655  142.0383 C   0  0  0  0  0  0  0  0  0  0  0  0
  -28.3670  -12.8395  142.4465 C   0  0  0  0  0  0  0  0  0  0  0  0
  -27.0014  -12.3035  142.1394 C   0  0  0  0  0  0  0  0  0  0  0  0
  -25.8997  -13.2012  142.6600 C   0  0  0  0  0  0  0  0  0  0  0  0
  -29.5016  -12.0077  141.8314 C   0  0  0  0  0  0  0  0  0  0  0  0
  -26.4569  -13.0627  144.0610 C   0  0  0  0  0  0  0  0  0  0  0  0
  -26.5089  -11.6481  144.5266 C   0  0  0  0  0  0  0  0  0  0  0  0
  -31.5680  -12.2840  143.3600 C   0  0  0  0  0  0  0  0  0  0  0  0
  -30.8152  -12.7839  144.6057 C   0  0  0  0  0  0  0  0  0  0  0  0
  -31.6946  -12.7546  145.8809 C   0  0  0  0  0  0  0  0  0  0  0  0
  -27.5874  -12.1339  143.5590 C   0  0  0  0  0  0  0  0  0  0  0  0
  -32.6555  -13.9750  145.9931 C   0  0  0  0  0  0  0  0  0  0  0  0
  -30.8397  -12.5475  147.1414 C   0  0  0  0  0  0  0  0  0  0  0  0
  -32.1145  -15.2436  146.6887 C   0  0  0  0  0  0  0  0  0  0  0  0
  -31.0181  -15.9631  145.9065 C   0  0  0  0  0  0  0  0  0  0  0  0
  3  2  1  0
  4  3  1  0
  5  1  1  0
  5  2  1  0
  6  4  1  0
  7  6  1  0
  8  1  1  0
  9  8  1  0
 10  9  1  0
 11  2  1  0
 11  3  1  0
 11  6  1  0
 11  7  1  0
 12 10  1  0
 13 10  1  0
 14 12  1  0
 15 14  1  0
M  END
$$$$

     RDKit          3D

 14 17  0  0  0  0  0  0  0  0999 V2000
  -23.1705  -16.8094  136.4202 C   0  0  0  0  0  0  0  0  0  0  0  0
  -22.8594  -16.6247  137.9160 C   0  0  0  0  0  0  0  0  0  0  0  0
  -21.6219  -15.7478  138.1446 C   0  0  0  0  0  0  0  0  0  0  0  0
  -24.3045  -17.8173  136.1737 C   0  0  0  0  0  0  0  0  0  0  0  0
  -21.8792  -14.3171  137.7531 C   0  0  0  0  0  0  0  0  0  0  0  0
  -21.3430  -13.7789  136.6540 C   0  0  0  0  0  0  0  0  0  0  0  0
  -25.6504  -17.2600  136.6822 C   0  0  0  0  0  0  0  0  0  0  0  0
  -24.3999  -18.0459  134.7923 O   0  0  0  0  0  0  0  0  0  0  0  0
  -26.0878  -17.6861  138.0723 C   0  0  0  0  0  0  0  0  0  0  0  0
  -27.6244  -17.9184  138.1090 C   0  0  0  0  0  0  0  0  0  0  0  0
  -26.7458  -18.2919  136.8818 C   0  0  0  0  0  0  0  0  0  0  0  0
  -27.7686  -18.6291  139.4835 C   0  0  0  0  0  0  0  0  0  0  0  0
  -29.1380  -19.2520  139.6262 C   0  0  0  0  0  0  0  0  0  0  0  0
  -28.4265  -19.2367  138.2931 C   0  0  0  0  0  0  0  0  0  0  0  0
  2  1  1  0
  3  2  1  0
  4  1  1  0
  5  3  1  0
  6  5  2  0
  7  4  1  0
  8  4  1  0
  9  7  1  0
 10  9  1  0
 11  7  1  0
 11  9  1  0
 11 10  1  0
 12 10  1  0
 13 12  1  0
 14 10  1  0
 14 12  1  0
 14 13  1  0
M  END
$$$$

     RDKit          3D

 15 16  0  0  0  0  0  0  0  0999 V2000
  -27.9199   -5.2425  129.3127 O   0  0  0  0  0  0  0  0  0  0  0  0
  -27.5919   -6.4308  128.6597 C   0  0  0  0  0  0  0  0  0  0  0  0
  -27.3657   -6.4229  127.4219 O   0  0  0  0  0  0  0  0  0  0  0  0
  -28.1447   -5.1811  130.7223 C   0  0  0  0  0  0  0  0  0  0  0  0
  -26.8272   -5.3784  131.5043 C   0  0  0  0  0  0  0  0  0  0  0  0
  -28.8197   -3.8524  131.0669 C   0  0  0  0  0  0  0  0  0  0  0  0
  -25.7347   -4.3614  131.1298 C   0  0  0  0  0  0  0  0  0  0  0  0
  -24.4661   -4.8122  131.5597 O   0  0  0  0  0  0  0  0  0  0  0  0
  -24.2317   -4.3694  132.8767 C   0  0  0  0  0  0  0  0  0  0  0  0
  -22.6679   -4.4870  133.2504 B   0  0  0  0  0  0  0  0  0  0  0  0
  -21.2507   -4.9867  132.7979 C   0  0  0  0  0  0  0  0  0  0  0  0
  -20.8284   -4.0935  131.6041 C   0  0  0  0  0  0  0  0  0  0  0  0
  -21.2604   -2.6018  131.7294 C   0  0  0  0  0  0  0  0  0  0  0  0
  -22.8095   -2.4347  131.7878 C   0  0  0  0  0  0  0  0  0  0  0  0
  -23.4726   -3.1148  133.0201 C   0  0  0  0  0  0  0  0  0  0  0  0
  2  1  1  0
  3  2  2  0
  4  1  1  0
  5  4  1  0
  6  4  1  0
  7  5  1  0
  8  7  1  0
  9  8  1  0
 10  9  1  0
 11 10  1  0
 12 11  1  0
 13 12  1  0
 14 13  1  0
 15  9  1  0
 15 10  1  0
 15 14  1  0
M  END
$$$$

     RDKit          3D

 11 11  0  0  0  0  0  0  0  0999 V2000
  -20.4332   -0.0267  135.3821 O   0  0  0  0  0  0  0  0  0  0  0  0
  -18.2844    0.7439  134.9702 C   0  0  0  0  0  0  0  0  0  0  0  0
  -17.5565    1.6143  134.4764 O   0  0  0  0  0  0  0  0  0  0  0  0
  -18.4668   -1.3904  136.1858 C   0  0  0  0  0  0  0  0  0  0  0  0
  -17.8156   -2.3722  135.1730 C   0  0  0  0  0  0  0  0  0  0  0  0
  -19.0527   -0.1758  135.4931 C   0  0  0  0  0  0  0  0  0  0  0  0
  -15.3144   -1.7922  135.7259 C   0  0  0  0  0  0  0  0  0  0  0  0
  -15.6064   -2.4591  137.0480 C   0  0  0  0  0  0  0  0  0  0  0  0
  -16.6380   -2.0814  137.8199 C   0  0  0  0  0  0  0  0  0  0  0  0
  -17.5827   -0.9868  137.3954 C   0  0  0  0  0  0  0  0  0  0  0  0
  -16.4109   -1.9943  134.6550 C   0  0  0  0  0  0  0  0  0  0  0  0
  3  2  2  0
  5  4  1  0
  6  1  1  0
  6  2  2  0
  6  4  1  0
  8  7  1  0
  9  8  2  0
 10  4  1  0
 10  9  1  0
 11  5  1  0
 11  7  1  0
M  END
$$$$

     RDKit          3D

 15 23  0  0  0  0  0  0  0  0999 V2000
  -22.7065   -3.4354  146.0613 O   0  0  0  0  0  0  0  0  0  0  0  0
  -22.3542   -2.0883  146.0452 C   0  0  0  0  0  0  0  0  0  0  0  0
  -21.4657   -1.5502  144.9097 C   0  0  0  0  0  0  0  0  0  0  0  0
  -21.9745   -1.8631  143.5209 C   0  0  0  0  0  0  0  0  0  0  0  0
  -21.7070   -3.3030  143.0848 C   0  0  0  0  0  0  0  0  0  0  0  0
  -20.5171   -3.9210  143.4268 F   0  0  0  0  0  0  0  0  0  0  0  0
  -22.9392   -1.7096  144.6758 C   0  0  0  0  0  0  0  0  0  0  0  0
  -21.3898   -3.2103  146.4475 C   0  0  0  0  0  0  0  0  0  0  0  0
  -21.3065   -4.2347  147.5919 C   0  0  0  0  0  0  0  0  0  0  0  0
  -20.4219   -3.7770  148.7335 C   0  0  0  0  0  0  0  0  0  0  0  0
  -21.1338   -2.7642  147.8966 C   0  0  0  0  0  0  0  0  0  0  0  0
  -22.8862   -4.2023  142.8232 C   0  0  0  0  0  0  0  0  0  0  0  0
  -22.7259   -4.9578  141.5730 C   0  0  0  0  0  0  0  0  0  0  0  0
  -22.1583   -3.6117  141.6838 C   0  0  0  0  0  0  0  0  0  0  0  0
  -23.6339   -3.7705  141.6249 N   0  0  0  0  0  0  0  0  0  0  0  0
  2  1  1  0
  3  2  1  0
  4  3  1  0
  5  4  1  0
  6  5  1  0
  7  2  1  0
  7  3  1  0
  7  4  1  0
  8  1  1  0
  8  2  1  0
  9  8  1  0
 10  9  1  0
 11  8  1  0
 11  9  1  0
 11 10  1  0
 12  5  1  0
 13 12  1  0
 14  5  1  0
 14 12  1  0
 14 13  1  0
 15 12  1  0
 15 13  1  0
 15 14  1  0
M  END
$$$$

     RDKit          3D

 11 10  0  0  0  0  0  0  0  0999 V2000
  -24.5578  -17.5762  136.0487 As  0  0  0  0  0  3  0  0  0  0  0  0
  -22.2376  -16.9144  136.7805 O   0  0  0  0  0  0  0  0  0  0  0  0
  -23.2132  -17.6265  137.3048 O   0  0  0  0  0  0  0  0  0  0  0  0
  -26.9817  -19.1991  136.2958 C   0  0  0  0  0  0  0  0  0  0  0  0
  -25.3521  -16.1122  136.8291 O   0  0  0  0  0  0  0  0  0  0  0  0
  -28.0077  -18.0456  136.3199 C   0  0  0  0  0  0  0  0  0  0  0  0
  -29.3607  -15.6640  133.5496 C   0  0  0  0  0  0  0  0  0  0  0  0
  -25.6767  -18.8744  137.0347 C   0  0  0  0  0  0  0  0  0  0  0  0
  -28.6883  -14.9656  135.8659 C   0  0  0  0  0  0  0  0  0  0  0  0
  -29.1135  -16.1501  134.9839 C   0  0  0  0  0  0  0  0  0  0  0  0
  -28.0557  -17.2773  134.9866 C   0  0  0  0  0  0  0  0  0  0  0  0
  3  1  1  0
  3  2  1  0
  5  1  1  0
  6  4  1  0
  8  1  1  0
  8  4  1  0
 10  7  1  0
 10  9  1  0
 11  6  1  0
 11 10  1  0
M  END
$$$$

     RDKit          3D

 15 16  0  0  0  0  0  0  0  0999 V2000
  -22.6725   -9.1937  138.7831 O   0  0  0  0  0  0  0  0  0  0  0  0
  -23.4539   -9.4179  136.6364 C   0  0  0  0  0  0  0  0  0  0  0  0
  -24.5120  -10.2891  136.9449 O   0  0  0  0  0  0  0  0  0  0  0  0
  -22.8663   -9.7594  135.2598 C   0  0  0  0  0  0  0  0  0  0  0  0
  -21.8135   -8.7246  134.8352 C   0  0  0  0  0  0  0  0  0  0  0  0
  -21.6053   -8.6045  133.3295 C   0  0  0  0  0  0  0  0  0  0  0  0
  -20.2029   -8.2461  132.9333 C   0  0  0  0  0  0  0  0  0  0  0  0
  -22.3504   -7.5108  134.0864 C   0  0  0  0  0  0  0  0  0  0  0  0
  -22.4308   -9.4984  137.6545 N   0  0  0  0  0  0  0  0  0  0  0  0
  -19.2321   -9.1663  132.9550 C   0  0  0  0  0  0  0  0  0  0  0  0
  -17.8364   -8.8168  132.5307 C   0  0  0  0  0  0  0  0  0  0  0  0
  -16.7403   -9.5010  133.3378 C   0  0  0  0  0  0  0  0  0  0  0  0
  -15.5869   -9.7306  132.6070 F   0  0  0  0  0  0  0  0  0  0  0  0
  -17.0559   -8.0320  133.5773 C   0  0  0  0  0  0  0  0  0  0  0  0
  -16.0794   -7.1204  132.9972 N   0  0  0  0  0  0  0  0  0  0  0  0
  3  2  1  0
  4  2  1  0
  5  4  1  0
  6  5  1  0
  7  6  1  0
  8  5  1  0
  8  6  1  0
  9  1  2  0
  9  2  1  0
 10  7  2  3
 11 10  1  0
 12 11  1  0
 13 12  1  0
 14 11  1  0
 14 12  1  0
 15 14  1  0
M  END
$$$$

     RDKit          3D

 15 16  0  0  0  0  0  0  0  0999 V2000
  -33.4589   -5.4030  136.3186 O   0  0  0  0  0  0  0  0  0  0  0  0
  -32.8805   -5.1671  138.6820 C   0  0  0  0  0  0  0  0  0  0  0  0
  -33.7756   -4.0577  138.6057 O   0  0  0  0  0  0  0  0  0  0  0  0
  -30.2311   -6.8431  137.5442 C   0  0  0  0  0  0  0  0  0  0  0  0
  -30.7358   -4.7735  136.1461 C   0  0  0  0  0  0  0  0  0  0  0  0
  -31.3736   -4.8781  138.7241 C   0  0  0  0  0  0  0  0  0  0  0  0
  -28.9269   -6.4067  137.7485 F   0  0  0  0  0  0  0  0  0  0  0  0
  -31.1798   -5.6309  137.3702 C   0  0  0  0  0  0  0  0  0  0  0  0
  -33.0729   -7.3863  137.5537 N   0  0  0  0  0  0  0  0  0  0  0  0
  -31.0232   -3.4183  138.8004 C   0  0  0  0  0  0  0  0  0  0  0  0
  -31.9300   -2.4815  138.5082 C   0  0  0  0  0  0  0  0  0  0  0  0
  -31.5962   -1.0096  138.6108 C   0  0  0  0  0  0  0  0  0  0  0  0
  -32.1596   -0.4169  139.8994 C   0  0  0  0  0  0  0  0  0  0  0  0
  -32.7177   -5.9659  137.3764 C   0  0  0  0  0  0  0  0  0  0  0  0
  -33.2510   -2.9175  137.9432 C   0  0  0  0  0  0  0  0  0  0  0  0
  3  2  1  0
  6  2  1  0
  7  4  1  0
  8  4  1  0
  8  5  1  0
  8  6  1  0
 10  6  1  0
 11 10  2  0
 12 11  1  0
 13 12  1  0
 14  1  1  0
 14  2  1  0
 14  8  1  0
 14  9  1  0
 15  3  1  0
 15 11  1  0
M  END
$$$$

     RDKit          3D

 15 18  0  0  0  0  0  0  0  0999 V2000
  -25.8073    0.2655  129.2617 O   0  0  0  0  0  0  0  0  0  0  0  0
  -23.4237   -0.1769  129.5755 C   0  0  0  0  0  0  0  0  0  0  0  0
  -23.6380    1.3909  127.7340 O   0  0  0  0  0  0  0  0  0  0  0  0
  -22.9607    1.1429  128.9385 C   0  0  0  0  0  0  0  0  0  0  0  0
  -23.0489    0.6445  126.8096 F   0  0  0  0  0  0  0  0  0  0  0  0
  -26.7592   -1.4148  131.2351 C   0  0  0  0  0  0  0  0  0  0  0  0
  -25.2077   -1.3576  131.0330 C   0  0  0  0  0  0  0  0  0  0  0  0
  -27.4086    0.0125  131.4630 C   0  0  0  0  0  0  0  0  0  0  0  0
  -24.9024    0.6539  131.5920 C   0  0  0  0  0  0  0  0  0  0  0  0
  -24.5747   -0.6987  132.2660 C   0  0  0  0  0  0  0  0  0  0  0  0
  -26.3910    1.1148  131.7970 C   0  0  0  0  0  0  0  0  0  0  0  0
  -24.8371   -0.0894  130.2229 C   0  0  0  0  0  0  0  0  0  0  0  0
  -27.2677    0.5561  132.9163 C   0  0  0  0  0  0  0  0  0  0  0  0
  -28.5734   -0.0373  132.4113 C   0  0  0  0  0  0  0  0  0  0  0  0
  -25.1984   -0.9927  133.5551 N   0  0  0  0  0  0  0  0  0  0  0  0
  4  2  1  0
  4  3  1  0
  5  3  1  0
  7  6  1  0
  8  6  1  0
 10  7  1  0
 10  9  1  0
 11  8  1  0
 11  9  1  0
 12  1  1  0
 12  2  1  0
 12  7  1  0
 12  9  1  0
 13  8  1  0
 13 11  1  0
 14  8  1  0
 14 13  1  0
 15 10  1  0
M  END
$$$$

     RDKit          3D

 15 16  0  0  0  0  0  0  0  0999 V2000
  -23.2050   -3.0328  146.1966 C   0  0  0  0  0  0  0  0  0  0  0  0
  -22.3577   -1.8694  146.7338 C   0  0  0  0  0  0  0  0  0  0  0  0
  -20.9429   -2.2552  147.1468 C   0  0  0  0  0  0  0  0  0  0  0  0
  -20.7290    0.1331  148.7556 Cl  0  0  0  0  0  0  0  0  0  0  0  0
  -24.5242   -2.4797  145.6054 C   0  0  0  0  0  0  0  0  0  0  0  0
  -23.3627   -2.1123  143.2935 C   0  0  0  0  0  0  0  0  0  0  0  0
  -24.6705   -2.4149  144.0458 C   0  0  0  0  0  0  0  0  0  0  0  0
  -25.3569   -3.6676  143.5000 C   0  0  0  0  0  0  0  0  0  0  0  0
  -21.1766   -1.3693  145.9259 C   0  0  0  0  0  0  0  0  0  0  0  0
  -20.8950   -2.6136  149.6688 C   0  0  0  0  0  0  0  0  0  0  0  0
  -23.0602   -1.7437  150.6227 C   0  0  0  0  0  0  0  0  0  0  0  0
  -20.6097   -1.6320  148.5210 C   0  0  0  0  0  0  0  0  0  0  0  0
  -21.6049   -2.1121  150.9502 C   0  0  0  0  0  0  0  0  0  0  0  0
  -20.9200   -1.0208  151.8072 C   0  0  0  0  0  0  0  0  0  0  0  0
  -19.4603   -2.2519  149.3183 C   0  0  0  0  0  0  0  0  0  0  0  0
  2  1  1  0
  3  2  1  0
  5  1  1  0
  7  5  1  0
  7  6  1  0
  8  7  1  0
  9  2  1  0
  9  3  1  0
 12  3  1  0
 12  4  1  0
 12 10  1  0
 13 10  1  0
 13 11  1  0
 14 13  1  0
 15 10  1  0
 15 12  1  0
M  END
$$$$

     RDKit          3D

 14 17  0  0  0  0  0  0  0  0999 V2000
  -35.8732  -18.0395  145.8714 C   0  0  0  0  0  0  0  0  0  0  0  0
  -20.5480  -24.3857  140.9699 O   0  0  0  0  0  0  0  0  0  0  0  0
  -34.8005  -17.1642  145.6121 O   0  0  0  0  0  0  0  0  0  0  0  0
  -34.5729  -18.5368  145.3919 C   0  0  0  0  0  0  0  0  0  0  0  0
  -33.2899  -18.5354  143.3858 O   0  0  0  0  0  0  0  0  0  0  0  0
  -34.5389  -18.8650  143.9121 C   0  0  0  0  0  0  0  0  0  0  0  0
  -36.9390  -17.9393  144.7992 C   0  0  0  0  0  0  0  0  0  0  0  0
  -18.6839  -20.5592  143.9877 C   0  0  0  0  0  0  0  0  0  0  0  0
  -19.6577  -21.7113  144.2088 C   0  0  0  0  0  0  0  0  0  0  0  0
  -20.0673  -22.3687  142.8874 C   0  0  0  0  0  0  0  0  0  0  0  0
  -26.2572  -17.5198  138.1986 S   0  0  0  0  0  4  0  0  0  0  0  0
  -18.8713  -23.0715  142.2185 C   0  0  0  0  0  0  0  0  0  0  0  0
  -19.1884  -24.1330  141.1712 C   0  0  0  0  0  0  0  0  0  0  0  0
  -18.7076  -24.5511  142.5524 C   0  0  0  0  0  0  0  0  0  0  0  0
  3  1  1  0
  4  1  1  0
  4  3  1  0
  6  4  1  0
  6  5  1  0
  7  1  1  0
  9  8  1  0
 10  9  1  0
 11  2  1  0
 11  6  1  0
 11  7  1  0
 11  8  1  0
 12 10  1  0
 13  2  1  0
 13 12  1  0
 14 12  1  0
 14 13  1  0
M  END
$$$$

     RDKit          3D

 15 16  0  0  0  0  0  0  0  0999 V2000
  -19.7002   -3.5981  145.3547 N   0  0  0  0  0  0  0  0  0  0  0  0
  -18.3420   -3.0738  145.7013 C   0  0  0  0  0  0  0  0  0  0  0  0
  -17.8789   -3.6852  146.8837 O   0  0  0  0  0  0  0  0  0  0  0  0
  -20.1952   -3.4893  143.9795 C   0  0  0  0  0  0  0  0  0  0  0  0
  -20.7894   -3.1708  146.2413 C   0  0  0  0  0  0  0  0  0  0  0  0
  -21.8402   -2.5595  145.4309 N   0  0  0  0  0  0  0  0  0  0  0  0
  -18.0677   -1.5239  145.6372 C   0  0  0  0  0  0  0  0  0  0  0  0
  -17.1073   -1.7789  144.4414 C   0  0  0  0  0  0  0  0  0  0  0  0
  -21.6497   -3.0783  144.0841 C   0  0  0  0  0  0  0  0  0  0  0  0
  -17.3816   -0.9775  146.9157 C   0  0  0  0  0  0  0  0  0  0  0  0
  -15.6376   -1.3047  144.5754 C   0  0  0  0  0  0  0  0  0  0  0  0
  -14.8491   -1.6080  143.3738 N   0  0  0  0  0  0  0  0  0  0  0  0
  -19.2175   -0.5648  145.2484 C   0  0  0  0  0  0  0  0  0  0  0  0
  -15.2977   -0.7982  142.3134 N   0  0  0  0  0  0  0  0  0  0  0  0
  -17.2916   -3.2940  144.5947 C   0  0  0  0  0  0  0  0  0  0  0  0
  2  1  1  0
  3  2  1  0
  4  1  1  0
  5  1  1  0
  6  5  1  0
  7  2  1  0
  8  7  1  0
  9  4  1  0
  9  6  1  0
 10  7  1  0
 11  8  1  0
 12 11  1  0
 13  7  1  0
 14 12  1  0
 15  2  1  0
 15  8  1  0
M  END
$$$$

     RDKit          3D

 15 15  0  0  0  0  0  0  0  0999 V2000
  -24.1075   -8.5374  153.5560 O   0  0  0  0  0  0  0  0  0  0  0  0
  -22.8528   -8.6618  152.9497 C   0  0  0  0  0  0  0  0  0  0  0  0
  -22.7380   -8.7536  151.6988 O   0  0  0  0  0  0  0  0  0  0  0  0
  -25.3397   -8.5413  152.8329 C   0  0  0  0  0  0  0  0  0  0  0  0
  -25.5846   -9.9246  152.1595 C   0  0  0  0  0  0  0  0  0  0  0  0
  -26.4631   -8.0039  153.7272 C   0  0  0  0  0  0  0  0  0  0  0  0
  -25.6058  -11.2163  152.9915 C   0  0  0  0  0  0  0  0  0  0  0  0
  -25.5704  -11.1791  154.5356 C   0  0  0  0  0  0  0  0  0  0  0  0
  -25.1496  -12.5205  155.0774 C   0  0  0  0  0  0  0  0  0  0  0  0
  -26.8968  -10.6730  152.3765 C   0  0  0  0  0  0  0  0  0  0  0  0
  -23.8925  -13.0002  155.0294 C   0  0  0  0  0  0  0  0  0  0  0  0
  -22.7029  -12.2367  154.4921 C   0  0  0  0  0  0  0  0  0  0  0  0
  -21.7709  -13.1459  153.6679 C   0  0  0  0  0  0  0  0  0  0  0  0
  -22.4374  -13.5834  152.3546 C   0  0  0  0  0  0  0  0  0  0  0  0
  -20.4519  -12.4210  153.3728 C   0  0  0  0  0  0  0  0  0  0  0  0
  2  1  1  0
  3  2  2  0
  4  1  1  0
  5  4  1  0
  6  4  1  0
  7  5  1  0
  8  7  1  0
  9  8  1  0
 10  5  1  0
 10  7  1  0
 11  9  2  3
 12 11  1  0
 13 12  1  0
 14 13  1  0
 15 13  1  0
M  END
$$$$

     RDKit          3D

 15 16  0  0  0  0  0  0  0  0999 V2000
  -28.5157  -14.6296  146.9907 Br  0  0  0  0  0  0  0  0  0  0  0  0
  -27.1738  -15.5203  150.3072 C   0  0  0  0  0  0  0  0  0  0  0  0
  -27.8659  -14.1473  150.4721 C   0  0  0  0  0  0  0  0  0  0  0  0
  -28.5297  -13.9817  151.8493 C   0  0  0  0  0  0  0  0  0  0  0  0
  -30.0098  -13.5606  151.7602 C   0  0  0  0  0  0  0  0  0  0  0  0
  -26.9171  -12.9928  150.8060 C   0  0  0  0  0  0  0  0  0  0  0  0
  -27.6797  -16.1629  147.8447 C   0  0  0  0  0  0  0  0  0  0  0  0
  -31.2447  -14.2330  153.9049 C   0  0  0  0  0  0  0  0  0  0  0  0
  -25.5892  -14.7856  148.4032 C   0  0  0  0  0  0  0  0  0  0  0  0
  -32.5837  -13.9236  154.5821 C   0  0  0  0  0  0  0  0  0  0  0  0
  -26.6012  -15.8267  148.8989 C   0  0  0  0  0  0  0  0  0  0  0  0
  -30.6479  -13.0857  153.0853 C   0  0  0  0  0  0  0  0  0  0  0  0
  -33.6255  -14.1243  153.6656 O   0  0  0  0  0  0  0  0  0  0  0  0
  -27.5761  -12.8317  152.1692 C   0  0  0  0  0  0  0  0  0  0  0  0
  -30.0416  -13.4702  154.4404 C   0  0  0  0  0  0  0  0  0  0  0  0
  3  2  1  0
  4  3  1  0
  5  4  1  0
  6  3  1  0
  7  1  1  0
 10  8  1  0
 11  2  1  0
 11  7  1  0
 11  9  1  0
 12  5  1  0
 12  8  1  0
 13 10  1  0
 14  4  1  0
 14  6  1  0
 15  8  1  0
 15 12  1  0
M  END
$$$$

     RDKit          3D

 15 19  0  0  0  0  0  0  0  0999 V2000
  -22.5745    3.6287  136.8941 C   0  0  0  0  0  0  0  0  0  0  0  0
  -23.6021    2.5478  136.5050 C   0  0  0  0  0  0  0  0  0  0  0  0
  -20.8104    5.2331  135.9486 C   0  0  0  0  0  0  0  0  0  0  0  0
  -18.1860    5.0014  136.2559 C   0  0  0  0  0  0  0  0  0  0  0  0
  -23.8331    1.3714  137.4435 C   0  0  0  0  0  0  0  0  0  0  0  0
  -19.5952    4.5677  136.6293 C   0  0  0  0  0  0  0  0  0  0  0  0
  -22.8364    0.2429  137.2353 C   0  0  0  0  0  0  0  0  0  0  0  0
  -21.6600    0.7346  136.3816 C   0  0  0  0  0  0  0  0  0  0  0  0
  -21.0744   -0.2235  135.3365 C   0  0  0  0  0  0  0  0  0  0  0  0
  -23.0957    1.1823  136.0843 C   0  0  0  0  0  0  0  0  0  0  0  0
  -17.8470    5.3607  134.8150 C   0  0  0  0  0  0  0  0  0  0  0  0
  -21.9153    4.2111  135.6333 C   0  0  0  0  0  0  0  0  0  0  0  0
  -18.7539    3.6436  135.7632 C   0  0  0  0  0  0  0  0  0  0  0  0
  -18.4106    4.0470  134.3292 C   0  0  0  0  0  0  0  0  0  0  0  0
  -23.4815   -1.1151  136.9071 C   0  0  0  0  0  0  0  0  0  0  0  0
  2  1  1  0
  5  2  1  0
  6  3  1  0
  6  4  1  0
  7  5  1  0
  8  7  1  0
  9  8  1  0
 10  2  1  0
 10  5  1  0
 10  7  1  0
 10  8  1  0
 11  4  1  0
 12  1  1  0
 12  3  1  0
 13  4  1  0
 13  6  1  0
 14 11  1  0
 14 13  1  0
 15  7  1  0
M  END
$$$$

     RDKit          3D

 15 18  0  0  0  0  0  0  0  0999 V2000
  -26.7466  -10.7171  140.2337 C   0  0  0  0  0  0  0  0  0  0  0  0
  -23.9679   -8.2642  140.1820 C   0  0  0  0  0  0  0  0  0  0  0  0
  -25.4044   -8.5384  140.5207 C   0  0  0  0  0  0  0  0  0  0  0  0
  -25.8181   -8.9559  141.9187 C   0  0  0  0  0  0  0  0  0  0  0  0
  -21.6546   -9.8167  138.3597 C   0  0  0  0  0  0  0  0  0  0  0  0
  -25.5397  -10.0259  140.8713 C   0  0  0  0  0  0  0  0  0  0  0  0
  -21.0359  -10.1276  137.0119 C   0  0  0  0  0  0  0  0  0  0  0  0
  -22.5114  -10.9812  138.9680 C   0  0  0  0  0  0  0  0  0  0  0  0
  -23.6296   -8.1623  138.8965 C   0  0  0  0  0  0  0  0  0  0  0  0
  -22.2180   -8.3851  138.4295 C   0  0  0  0  0  0  0  0  0  0  0  0
  -25.1615  -10.7718  137.8932 S   0  0  0  0  0  0  0  0  0  0  0  0
  -26.3208  -11.6278  139.0526 C   0  0  0  0  0  0  0  0  0  0  0  0
  -23.6078  -11.7398  138.1730 C   0  0  0  0  0  0  0  0  0  0  0  0
  -22.1433   -9.0975  137.0810 C   0  0  0  0  0  0  0  0  0  0  0  0
  -27.5578  -12.0552  138.2532 C   0  0  0  0  0  0  0  0  0  0  0  0
  3  2  1  0
  4  3  1  0
  6  1  1  0
  6  3  1  0
  6  4  1  0
  7  5  1  0
  8  5  1  0
  9  2  2  3
 10  5  1  0
 10  9  1  0
 12  1  1  0
 12 11  1  0
 13  8  1  0
 13 11  1  0
 14  5  1  0
 14  7  1  0
 14 10  1  0
 15 12  1  0
M  END
$$$$

     RDKit          3D

 11 14  0  0  0  0  0  0  0  0999 V2000
  -23.4835  -11.8718  139.9836 C   0  0  0  0  0  0  0  0  0  0  0  0
  -23.4427  -13.4188  140.0857 C   0  0  0  0  0  0  0  0  0  0  0  0
  -24.4589  -13.3087  141.2607 C   0  0  0  0  0  0  0  0  0  0  0  0
  -24.5193  -14.4817  142.2657 C   0  0  0  0  0  0  0  0  0  0  0  0
  -22.3378  -13.2363  141.0853 C   0  0  0  0  0  0  0  0  0  0  0  0
  -21.4043  -14.1919  141.7594 C   0  0  0  0  0  0  0  0  0  0  0  0
  -23.3694  -12.2207  141.4900 C   0  0  0  0  0  0  0  0  0  0  0  0
  -20.8746  -13.0743  140.7931 C   0  0  0  0  0  0  0  0  0  0  0  0
  -20.2024  -11.9041  141.5241 C   0  0  0  0  0  0  0  0  0  0  0  0
  -19.8145  -10.7895  140.6339 N   0  0  0  0  0  0  0  0  0  0  0  0
  -18.7943  -11.6912  141.2054 C   0  0  0  0  0  0  0  0  0  0  0  0
  2  1  1  0
  3  2  1  0
  4  3  1  0
  5  2  1  0
  6  5  1  0
  7  1  1  0
  7  3  1  0
  7  5  1  0
  8  5  1  0
  8  6  1  0
  9  8  1  0
 10  9  1  0
 11  9  1  0
 11 10  1  0
M  END
$$$$

     RDKit          3D

 15 16  0  0  0  0  0  0  0  0999 V2000
  -25.8054   -8.1111  140.5775 C   0  0  0  0  0  0  0  0  0  0  0  0
  -25.5409   -9.5932  140.4828 N   0  0  0  0  0  0  0  0  0  0  0  0
  -25.8924  -10.4989  141.3540 C   0  0  0  0  0  0  0  0  0  0  0  0
  -27.3414  -10.7529  141.6397 C   0  0  0  0  0  0  0  0  0  0  0  0
  -24.6417   -7.4402  141.1740 N   0  0  0  0  0  0  0  0  0  0  0  0
  -27.0738   -7.7604  141.2781 N   0  0  0  0  0  0  0  0  0  0  0  0
  -27.4263   -8.3629  142.5822 C   0  0  0  0  0  0  0  0  0  0  0  0
  -27.6093  -10.9361  143.0850 N   0  0  0  0  0  0  0  0  0  0  0  0
  -28.1046   -9.7408  142.3629 C   0  0  0  0  0  0  0  0  0  0  0  0
  -25.9290   -7.6028  139.1376 C   0  0  0  0  0  0  0  0  0  0  0  0
  -26.3352   -8.2171  143.6767 C   0  0  0  0  0  0  0  0  0  0  0  0
  -26.8866   -8.3755  145.1110 C   0  0  0  0  0  0  0  0  0  0  0  0
  -27.8979   -7.2317  147.0938 C   0  0  0  0  0  0  0  0  0  0  0  0
  -28.9919   -7.9146  147.4409 C   0  0  0  0  0  0  0  0  0  0  0  0
  -27.4861   -7.0712  145.6571 C   0  0  0  0  0  0  0  0  0  0  0  0
  2  1  1  0
  3  2  2  0
  4  3  1  0
  5  1  1  0
  6  1  1  0
  7  6  1  0
  8  4  1  0
  9  4  1  0
  9  7  1  0
  9  8  1  0
 10  1  1  0
 11  7  1  0
 12 11  1  0
 14 13  2  0
 15 12  1  0
 15 13  1  0
M  END
$$$$

     RDKit          3D

 15 16  0  0  0  0  0  0  0  0999 V2000
  -34.6983  -10.8561  143.3114 O   0  0  0  0  0  0  0  0  0  0  0  0
  -34.3540   -9.8159  142.4352 C   0  0  0  0  0  0  0  0  0  0  0  0
  -34.2775  -10.3330  141.1345 O   0  0  0  0  0  0  0  0  0  0  0  0
  -33.0102   -9.1871  142.8481 C   0  0  0  0  0  0  0  0  0  0  0  0
  -31.8603  -10.2258  142.8551 C   0  0  0  0  0  0  0  0  0  0  0  0
  -30.6352  -10.2747  141.8732 C   0  0  0  0  0  0  0  0  0  0  0  0
  -30.0699   -9.1386  140.9759 C   0  0  0  0  0  0  0  0  0  0  0  0
  -30.9930  -10.8187  139.3131 C   0  0  0  0  0  0  0  0  0  0  0  0
  -30.5813   -9.5894  143.2623 C   0  0  0  0  0  0  0  0  0  0  0  0
  -30.1024  -11.9378  139.6676 N   0  0  0  0  0  0  0  0  0  0  0  0
  -31.2637   -9.8767  140.5026 C   0  0  0  0  0  0  0  0  0  0  0  0
  -29.7208  -12.8065  138.5312 C   0  0  0  0  0  0  0  0  0  0  0  0
  -30.9214  -13.4534  137.7965 C   0  0  0  0  0  0  0  0  0  0  0  0
  -31.7692  -14.3401  138.7083 C   0  0  0  0  0  0  0  0  0  0  0  0
  -28.8097  -12.0685  137.5396 C   0  0  0  0  0  0  0  0  0  0  0  0
  2  1  1  0
  3  2  1  0
  4  2  1  0
  5  4  1  0
  6  5  1  0
  7  6  1  0
  9  5  1  0
  9  6  1  0
 10  8  1  0
 11  6  1  0
 11  7  1  0
 11  8  1  0
 12 10  1  0
 13 12  1  0
 14 13  1  0
 15 12  1  0
M  END
$$$$

     RDKit          3D

 15 16  0  0  0  0  0  0  0  0999 V2000
  -25.2742   -1.7994  143.3987 C   0  0  0  0  0  0  0  0  0  0  0  0
  -26.6615   -1.4698  142.8206 C   0  0  0  0  0  0  0  0  0  0  0  0
  -27.6788   -2.6267  142.9017 C   0  0  0  0  0  0  0  0  0  0  0  0
  -24.6519   -3.0095  142.7554 C   0  0  0  0  0  0  0  0  0  0  0  0
  -27.9551   -3.1441  144.3227 C   0  0  0  0  0  0  0  0  0  0  0  0
  -24.2582   -3.0015  141.4741 C   0  0  0  0  0  0  0  0  0  0  0  0
  -23.6398   -4.2294  140.8524 C   0  0  0  0  0  0  0  0  0  0  0  0
  -23.3897   -4.1072  139.3468 C   0  0  0  0  0  0  0  0  0  0  0  0
  -24.3845   -5.2405  139.0977 C   0  0  0  0  0  0  0  0  0  0  0  0
  -23.7920   -6.3935  138.5470 O   0  0  0  0  0  0  0  0  0  0  0  0
  -24.6484   -5.3523  140.5987 C   0  0  0  0  0  0  0  0  0  0  0  0
  -28.4974   -2.0395  145.2427 C   0  0  0  0  0  0  0  0  0  0  0  0
  -29.4348   -2.5204  146.3470 C   0  0  0  0  0  0  0  0  0  0  0  0
  -29.9956   -1.7809  145.1374 C   0  0  0  0  0  0  0  0  0  0  0  0
  -30.4190   -0.3356  145.3957 C   0  0  0  0  0  0  0  0  0  0  0  0
  2  1  1  0
  3  2  1  0
  4  1  1  0
  5  3  1  0
  6  4  2  3
  7  6  1  0
  8  7  1  0
  9  8  1  0
 10  9  1  0
 11  7  1  0
 11  9  1  0
 12  5  1  0
 13 12  1  0
 14 12  1  0
 14 13  1  0
 15 14  1  0
M  END
$$$$

     RDKit          3D

 14 15  0  0  0  0  0  0  0  0999 V2000
  -25.3943  -10.0973  142.1022 O   0  0  0  0  0  0  0  0  0  0  0  0
  -25.5477   -9.2493  141.1858 C   0  0  0  0  0  0  0  0  0  0  0  0
  -24.7510   -9.1892  140.0750 O   0  0  0  0  0  0  0  0  0  0  0  0
  -26.4299   -8.0850  141.2354 C   0  0  0  0  0  0  0  0  0  0  0  0
  -27.9070   -8.4089  140.8890 C   0  0  0  0  0  0  0  0  0  0  0  0
  -25.7741   -7.2557  140.1085 C   0  0  0  0  0  0  0  0  0  0  0  0
  -24.9634   -8.1055  139.3098 O   0  0  0  0  0  0  0  0  0  0  0  0
  -28.7399   -9.1951  141.9432 C   0  0  0  0  0  0  0  0  0  0  0  0
  -28.5850  -10.7276  141.7886 C   0  0  0  0  0  0  0  0  0  0  0  0
  -29.6843  -11.5148  142.5185 C   0  0  0  0  0  0  0  0  0  0  0  0
  -29.3981  -11.6432  143.9904 C   0  0  0  0  0  0  0  0  0  0  0  0
  -29.3337  -10.5944  144.8238 C   0  0  0  0  0  0  0  0  0  0  0  0
  -29.5539   -9.1721  144.3839 C   0  0  0  0  0  0  0  0  0  0  0  0
  -28.4828   -8.7036  143.3870 C   0  0  0  0  0  0  0  0  0  0  0  0
  2  1  2  0
  3  2  1  0
  4  2  1  0
  5  4  1  0
  6  4  1  0
  7  3  1  0
  7  6  1  0
  8  5  1  0
  9  8  1  0
 10  9  1  0
 11 10  1  0
 12 11  2  0
 13 12  1  0
 14  8  1  0
 14 13  1  0
M  END
$$$$

     RDKit          3D

 15 17  0  0  0  0  0  0  0  0999 V2000
  -23.7605  -20.4717  143.2864 O   0  0  0  0  0  0  0  0  0  0  0  0
  -24.2628  -20.1243  142.0159 C   0  0  0  0  0  0  0  0  0  0  0  0
  -25.4059  -20.8664  141.7089 O   0  0  0  0  0  0  0  0  0  0  0  0
  -24.4189  -19.2289  143.1832 C   0  0  0  0  0  0  0  0  0  0  0  0
  -23.4374  -18.0534  143.2734 C   0  0  0  0  0  0  0  0  0  0  0  0
  -23.2344  -17.7253  144.6227 O   0  0  0  0  0  0  0  0  0  0  0  0
  -24.0249  -16.8419  142.5312 C   0  0  0  0  0  0  0  0  0  0  0  0
  -21.7516  -15.7564  141.9169 C   0  0  0  0  0  0  0  0  0  0  0  0
  -21.8315  -16.2885  140.5057 C   0  0  0  0  0  0  0  0  0  0  0  0
  -23.1281  -15.5893  142.5864 C   0  0  0  0  0  0  0  0  0  0  0  0
  -22.2533  -15.5773  139.4462 C   0  0  0  0  0  0  0  0  0  0  0  0
  -22.7272  -14.1464  139.5437 C   0  0  0  0  0  0  0  0  0  0  0  0
  -23.2937  -13.5152  138.2820 C   0  0  0  0  0  0  0  0  0  0  0  0
  -24.7497  -13.8402  138.0375 C   0  0  0  0  0  0  0  0  0  0  0  0
  -24.2205  -14.0437  139.4257 C   0  0  0  0  0  0  0  0  0  0  0  0
  2  1  1  0
  3  2  1  0
  4  1  1  0
  4  2  1  0
  5  4  1  0
  6  5  1  0
  7  5  1  0
  9  8  1  0
 10  7  1  0
 10  8  1  0
 11  9  2  3
 12 11  1  0
 13 12  1  0
 14 13  1  0
 15 12  1  0
 15 13  1  0
 15 14  1  0
M  END
$$$$

     RDKit          3D

 15 17  0  0  0  0  0  0  0  0999 V2000
  -29.1793   -6.3126  132.9527 O   0  0  0  0  0  0  0  0  0  0  0  0
  -27.2778   -6.6996  134.1797 C   0  0  0  0  0  0  0  0  0  0  0  0
  -27.0148   -5.5209  133.3491 C   0  0  0  0  0  0  0  0  0  0  0  0
  -26.7976   -6.6147  135.6425 C   0  0  0  0  0  0  0  0  0  0  0  0
  -27.6986   -7.5192  136.5140 C   0  0  0  0  0  0  0  0  0  0  0  0
  -28.3793   -5.7519  133.8960 N   0  0  0  0  0  0  0  0  0  0  0  0
  -27.2497   -7.7306  137.9756 C   0  0  0  0  0  0  0  0  0  0  0  0
  -26.8303   -6.4519  138.7258 C   0  0  0  0  0  0  0  0  0  0  0  0
  -24.8627   -5.2093  137.5897 C   0  0  0  0  0  0  0  0  0  0  0  0
  -24.3942   -5.8853  136.2847 C   0  0  0  0  0  0  0  0  0  0  0  0
  -25.3071   -6.1802  138.7002 C   0  0  0  0  0  0  0  0  0  0  0  0
  -25.2956   -7.0037  135.7316 C   0  0  0  0  0  0  0  0  0  0  0  0
  -25.2591   -5.0916  131.1994 S   0  0  0  0  0  0  0  0  0  0  0  0
  -27.0352   -4.6464  130.9775 C   0  0  0  0  0  0  0  0  0  0  0  0
  -26.8277   -5.8055  131.8493 C   0  0  0  0  0  0  0  0  0  0  0  0
  3  2  1  0
  4  2  1  0
  5  4  1  0
  6  1  1  0
  6  2  1  0
  6  3  1  0
  7  5  1  0
  8  7  1  0
 10  9  1  0
 11  8  1  0
 11  9  1  0
 12  4  1  0
 12 10  1  0
 14 13  1  0
 15  3  1  0
 15 13  1  0
 15 14  1  0
M  END
$$$$

     RDKit          3D

 15 17  0  0  0  0  0  0  0  0999 V2000
  -18.5822   -2.4848  132.6256 O   0  0  0  0  0  0  0  0  0  0  0  0
  -18.8462   -3.0979  133.8639 C   0  0  0  0  0  0  0  0  0  0  0  0
  -17.7510   -2.6751  134.8804 C   0  0  0  0  0  0  0  0  0  0  0  0
  -17.9549   -3.2293  136.3243 C   0  0  0  0  0  0  0  0  0  0  0  0
  -19.3938   -3.7409  136.6644 C   0  0  0  0  0  0  0  0  0  0  0  0
  -19.9444   -4.8610  135.8335 N   0  0  0  0  0  0  0  0  0  0  0  0
  -17.5361   -2.1825  137.3625 C   0  0  0  0  0  0  0  0  0  0  0  0
  -20.2157   -2.6865  134.4290 C   0  0  0  0  0  0  0  0  0  0  0  0
  -18.9111   -5.2986  134.9570 N   0  0  0  0  0  0  0  0  0  0  0  0
  -21.4515   -2.8675  133.4982 C   0  0  0  0  0  0  0  0  0  0  0  0
  -20.4796   -3.4660  135.7258 C   0  0  0  0  0  0  0  0  0  0  0  0
  -18.8504   -4.6128  133.6665 C   0  0  0  0  0  0  0  0  0  0  0  0
  -20.8145   -2.7054  131.1776 O   0  0  0  0  0  0  0  0  0  0  0  0
  -21.4489   -2.0062  132.2280 C   0  0  0  0  0  0  0  0  0  0  0  0
  -20.7555   -1.8822  130.0349 C   0  0  0  0  0  0  0  0  0  0  0  0
  2  1  1  0
  3  2  1  0
  4  3  1  0
  5  4  1  0
  6  5  1  0
  7  4  1  0
  8  2  1  0
  9  6  1  0
 10  8  1  0
 11  5  1  0
 11  6  1  0
 11  8  1  0
 12  2  1  0
 12  9  1  0
 14 10  1  0
 14 13  1  0
 15 13  1  0
M  END
$$$$

     RDKit          3D

 15 19  0  0  0  0  0  0  0  0999 V2000
  -29.1686   -8.9304  151.1390 C   0  0  0  0  0  0  0  0  0  0  0  0
  -29.0548  -10.3663  151.3850 N   0  0  0  0  0  0  0  0  0  0  0  0
  -30.0053  -10.2990  152.4366 N   0  0  0  0  0  0  0  0  0  0  0  0
  -29.8848   -8.8411  152.4812 C   0  0  0  0  0  0  0  0  0  0  0  0
  -29.8121   -7.8696  150.1634 C   0  0  0  0  0  0  0  0  0  0  0  0
  -31.5494   -9.7738  150.4890 C   0  0  0  0  0  0  0  0  0  0  0  0
  -31.3201   -7.8696  148.2839 F   0  0  0  0  0  0  0  0  0  0  0  0
  -30.1203   -8.3690  148.7711 C   0  0  0  0  0  0  0  0  0  0  0  0
  -30.1598   -9.2862  149.9652 C   0  0  0  0  0  0  0  0  0  0  0  0
  -31.3104  -10.6260  151.7909 C   0  0  0  0  0  0  0  0  0  0  0  0
  -28.9060   -8.4907  147.8436 C   0  0  0  0  0  0  0  0  0  0  0  0
  -29.7869   -9.7306  145.6930 C   0  0  0  0  0  0  0  0  0  0  0  0
  -29.8445  -10.8266  146.5727 O   0  0  0  0  0  0  0  0  0  0  0  0
  -28.3980   -9.1488  145.4195 C   0  0  0  0  0  0  0  0  0  0  0  0
  -29.3496   -8.4337  146.3667 C   0  0  0  0  0  0  0  0  0  0  0  0
  2  1  1  0
  3  2  1  0
  4  1  1  0
  4  3  1  0
  5  1  1  0
  8  5  1  0
  8  7  1  0
  9  1  1  0
  9  5  1  0
  9  6  1  0
  9  8  1  0
 10  3  1  0
 10  6  1  0
 11  8  1  0
 13 12  1  0
 14 12  1  0
 15 11  1  0
 15 12  1  0
 15 14  1  0
M  END
$$$$

     RDKit          3D

 15 21  0  0  0  0  0  0  0  0999 V2000
  -23.8028   -3.9768  140.4351 C   0  0  0  0  0  0  0  0  0  0  0  0
  -23.1099   -4.1516  139.0904 C   0  0  0  0  0  0  0  0  0  0  0  0
  -24.5540   -2.6703  140.7045 C   0  0  0  0  0  0  0  0  0  0  0  0
  -24.2257   -5.2646  141.1406 C   0  0  0  0  0  0  0  0  0  0  0  0
  -21.6158   -4.3107  139.1896 C   0  0  0  0  0  0  0  0  0  0  0  0
  -25.8255   -2.6890  139.8514 C   0  0  0  0  0  0  0  0  0  0  0  0
  -22.8205   -1.5303  140.1610 Mg  0  0  0  0  0  2  0  0  0  0  0  0
  -25.3944   -5.0997  142.1433 C   0  0  0  0  0  0  0  0  0  0  0  0
  -25.6651   -3.7108  142.7373 C   0  0  0  0  0  0  0  0  0  0  0  0
  -22.3350   -3.6080  140.3119 C   0  0  0  0  0  0  0  0  0  0  0  0
  -24.8154   -2.5523  142.2080 C   0  0  0  0  0  0  0  0  0  0  0  0
  -26.7882   -1.5147  139.9973 C   0  0  0  0  0  0  0  0  0  0  0  0
  -26.6825   -4.3330  141.7758 C   0  0  0  0  0  0  0  0  0  0  0  0
  -26.8926   -3.6504  140.3922 C   0  0  0  0  0  0  0  0  0  0  0  0
  -27.8645   -2.4698  140.5032 C   0  0  0  0  0  0  0  0  0  0  0  0
  2  1  1  0
  3  1  1  0
  4  1  1  0
  5  2  1  0
  6  3  1  0
  7  3  1  0
  8  4  1  0
  9  8  1  0
 10  1  1  0
 10  2  1  0
 10  5  1  0
 10  7  1  0
 11  3  1  0
 11  9  1  0
 12  6  1  0
 13  8  1  0
 13  9  1  0
 14  6  1  0
 14 13  1  0
 15 12  1  0
 15 14  1  0
M  END
$$$$

     RDKit          3D

 15 19  0  0  0  0  0  0  0  0999 V2000
  -25.6084   -4.6151  138.4005 O   0  0  0  0  0  0  0  0  0  0  0  0
  -24.5781   -4.5048  137.4525 C   0  0  0  0  0  0  0  0  0  0  0  0
  -25.0785   -4.8492  136.1918 O   0  0  0  0  0  0  0  0  0  0  0  0
  -23.3600   -5.3102  137.8459 C   0  0  0  0  0  0  0  0  0  0  0  0
  -23.3580   -6.1698  139.1236 C   0  0  0  0  0  0  0  0  0  0  0  0
  -22.4172   -5.5913  140.1886 C   0  0  0  0  0  0  0  0  0  0  0  0
  -24.3120   -5.8574  136.8007 C   0  0  0  0  0  0  0  0  0  0  0  0
  -22.9652   -4.2860  140.7959 C   0  0  0  0  0  0  0  0  0  0  0  0
  -22.0393   -3.5096  141.7593 C   0  0  0  0  0  0  0  0  0  0  0  0
  -20.8816   -4.1793  142.4568 C   0  0  0  0  0  0  0  0  0  0  0  0
  -19.5482   -3.5395  142.2120 C   0  0  0  0  0  0  0  0  0  0  0  0
  -20.6480   -3.2650  141.2099 C   0  0  0  0  0  0  0  0  0  0  0  0
  -26.1968   -2.5374  139.5818 C   0  0  0  0  0  0  0  0  0  0  0  0
  -26.3378   -3.4140  138.3507 C   0  0  0  0  0  0  0  0  0  0  0  0
  -27.4416   -3.3852  139.3923 C   0  0  0  0  0  0  0  0  0  0  0  0
  2  1  1  0
  3  2  1  0
  4  2  1  0
  5  4  1  0
  6  5  1  0
  7  2  1  0
  7  3  1  0
  7  4  1  0
  8  6  1  0
  9  8  1  0
 10  9  1  0
 11 10  1  0
 12  9  1  0
 12 10  1  0
 12 11  1  0
 14  1  1  0
 14 13  1  0
 15 13  1  0
 15 14  1  0
M  END
$$$$

     RDKit          3D

 10 10  0  0  0  0  0  0  0  0999 V2000
  -15.5280   -0.9878  143.0601 O   0  0  0  0  0  0  0  0  0  0  0  0
  -15.9900    0.3381  143.0258 C   0  0  0  0  0  0  0  0  0  0  0  0
  -17.1346    0.5362  143.8152 O   0  0  0  0  0  0  0  0  0  0  0  0
  -15.0430    1.9007  141.8825 C   0  0  0  0  0  0  0  0  0  0  0  0
  -13.8916    1.6319  141.0998 O   0  0  0  0  0  0  0  0  0  0  0  0
  -16.1395    0.8742  141.6053 C   0  0  0  0  0  0  0  0  0  0  0  0
  -14.8951    1.3625  143.3056 C   0  0  0  0  0  0  0  0  0  0  0  0
  -12.3424    3.2302  142.0853 C   0  0  0  0  0  0  0  0  0  0  0  0
  -13.1481    2.8110  140.8441 C   0  0  0  0  0  0  0  0  0  0  0  0
  -12.2466    2.5509  139.7221 N   0  0  0  0  0  0  0  0  0  0  0  0
  2  1  1  0
  3  2  1  0
  5  4  1  0
  6  2  1  0
  6  4  1  0
  7  2  1  0
  7  4  1  0
  9  5  1  0
  9  8  1  0
 10  9  1  0
M  END
$$$$

     RDKit          3D

 11 13  0  0  0  0  0  0  0  0999 V2000
  -21.3904  -12.3174  151.4303 O   0  0  0  0  0  0  0  0  0  0  0  0
  -19.5215  -12.4164  152.9881 C   0  0  0  0  0  0  0  0  0  0  0  0
  -18.9489  -13.2555  154.1187 C   0  0  0  0  0  0  0  0  0  0  0  0
  -18.4194  -14.5832  153.5849 C   0  0  0  0  0  0  0  0  0  0  0  0
  -20.5617  -11.4339  153.4551 C   0  0  0  0  0  0  0  0  0  0  0  0
  -20.9783  -12.6820  152.7158 C   0  0  0  0  0  0  0  0  0  0  0  0
  -22.1512  -12.1571  154.0262 S   0  0  0  0  0  0  0  0  0  0  0  0
  -18.2900  -15.5041  154.6278 O   0  0  0  0  0  0  0  0  0  0  0  0
  -20.9134  -12.9134  154.5484 S   0  0  0  0  0  4  0  0  0  0  0  0
  -17.1935  -14.4166  152.9224 O   0  0  0  0  0  0  0  0  0  0  0  0
  -28.7580    0.0195  144.6107 C   0  0  0  0  0  0  0  0  0  0  0  0
  3  2  1  0
  4  3  1  0
  5  2  1  0
  6  1  1  0
  6  2  1  0
  6  5  1  0
  7  5  1  0
  7  6  1  0
  8  4  1  0
  9  3  1  0
  9  4  1  0
 10  4  1  0
 11  9  1  0
M  END
$$$$

     RDKit          3D

 15 18  0  0  0  0  0  0  0  0999 V2000
  -22.9847   -1.0562  131.6314 N   0  0  0  0  0  0  0  0  0  0  0  0
  -22.8559   -2.5199  131.8065 C   0  0  0  0  0  0  0  0  0  0  0  0
  -19.9901   -0.9040  132.8172 C   0  0  0  0  0  0  0  0  0  0  0  0
  -18.8179   -0.3493  133.4978 N   0  0  0  0  0  0  0  0  0  0  0  0
  -20.5240   -2.1106  133.4371 N   0  0  0  0  0  0  0  0  0  0  0  0
  -20.5837   -3.2770  132.5771 C   0  0  0  0  0  0  0  0  0  0  0  0
  -20.6453   -2.0444  130.9309 O   0  0  0  0  0  0  0  0  0  0  0  0
  -22.3098   -0.1609  132.6112 C   0  0  0  0  0  0  0  0  0  0  0  0
  -21.4681   -3.0624  131.3957 C   0  0  0  0  0  0  0  0  0  0  0  0
  -22.6517   -0.3845  134.0768 C   0  0  0  0  0  0  0  0  0  0  0  0
  -19.8094   -2.1456  132.0725 C   0  0  0  0  0  0  0  0  0  0  0  0
  -23.6241   -1.0493  134.3964 O   0  0  0  0  0  0  0  0  0  0  0  0
  -21.7698    0.5145  135.3566 S   0  0  0  0  0  0  0  0  0  0  0  0
  -18.0567   -1.3465  134.0098 F   0  0  0  0  0  0  0  0  0  0  0  0
  -20.9287    0.0452  132.3076 O   0  0  0  0  0  0  0  0  0  0  0  0
  2  1  1  0
  4  3  1  0
  5  3  1  0
  6  5  1  0
  8  1  1  0
  9  2  1  0
  9  6  1  0
  9  7  1  0
 10  8  1  0
 11  3  1  0
 11  5  1  0
 11  6  1  0
 11  7  1  0
 12 10  2  0
 13 10  1  0
 14  4  1  0
 15  3  1  0
 15  8  1  0
M  END
$$$$

     RDKit          3D

 15 16  0  0  0  0  0  0  0  0999 V2000
  -20.7257  -13.9668  154.7443 O   0  0  0  0  0  0  0  0  0  0  0  0
  -20.4599  -14.7792  155.8544 C   0  0  0  0  0  0  0  0  0  0  0  0
  -21.3239  -16.0340  156.0138 C   0  0  0  0  0  0  0  0  0  0  0  0
  -19.3864  -14.5302  156.5847 C   0  0  0  0  0  0  0  0  0  0  0  0
  -20.8809  -17.0753  154.9745 C   0  0  0  0  0  0  0  0  0  0  0  0
  -19.9013  -12.8959  158.4878 C   0  0  0  0  0  0  0  0  0  0  0  0
  -22.8893  -16.9912  153.4808 C   0  0  0  0  0  0  0  0  0  0  0  0
  -19.2868  -11.9844  156.2147 C   0  0  0  0  0  0  0  0  0  0  0  0
  -19.0769  -13.1482  157.1907 C   0  0  0  0  0  0  0  0  0  0  0  0
  -22.9131  -17.2188  151.9662 C   0  0  0  0  0  0  0  0  0  0  0  0
  -21.9545  -17.9077  154.2622 C   0  0  0  0  0  0  0  0  0  0  0  0
  -20.6923  -17.3477  156.4583 C   0  0  0  0  0  0  0  0  0  0  0  0
  -24.1191  -17.5976  152.8265 C   0  0  0  0  0  0  0  0  0  0  0  0
  -24.3828  -19.1137  152.9051 C   0  0  0  0  0  0  0  0  0  0  0  0
  -25.3345  -16.6658  152.6516 C   0  0  0  0  0  0  0  0  0  0  0  0
  2  1  1  0
  3  2  1  0
  4  2  2  3
  5  3  1  0
  9  4  1  0
  9  6  1  0
  9  8  1  0
 10  7  1  0
 11  5  1  0
 11  7  1  0
 12  3  1  0
 12  5  1  0
 13  7  1  0
 13 10  1  0
 14 13  1  0
 15 13  1  0
M  END
$$$$

     RDKit          3D

 14 14  0  0  0  0  0  0  0  0999 V2000
  -24.9052   -2.1911  149.5071 C   0  0  0  0  0  0  0  0  0  0  0  0
  -24.8347   -3.7317  149.4258 C   0  0  0  0  0  0  0  0  0  0  0  0
  -25.3610   -4.4892  148.1890 C   0  0  0  0  0  0  0  0  0  0  0  0
  -25.5473   -1.3629  148.3740 C   0  0  0  0  0  0  0  0  0  0  0  0
  -24.3061   -4.4913  147.0729 C   0  0  0  0  0  0  0  0  0  0  0  0
  -25.8390   -3.0529  150.3815 C   0  0  0  0  0  0  0  0  0  0  0  0
  -27.3662   -3.0725  150.1062 C   0  0  0  0  0  0  0  0  0  0  0  0
  -24.7022   -5.3800  145.8720 C   0  0  0  0  0  0  0  0  0  0  0  0
  -23.4994   -5.5640  144.9372 C   0  0  0  0  0  0  0  0  0  0  0  0
  -27.9819   -4.3919  150.5690 C   0  0  0  0  0  0  0  0  0  0  0  0
  -25.8840   -4.7893  145.0867 C   0  0  0  0  0  0  0  0  0  0  0  0
  -25.4565   -3.0947  151.8005 N   0  0  0  0  0  0  0  0  0  0  0  0
  -28.1588   -1.7230  150.9684 Cl  0  0  0  0  0  0  0  0  0  0  0  0
  -24.4924   -0.5047  147.6838 C   0  0  0  0  0  0  0  0  0  0  0  0
  2  1  1  0
  3  2  1  0
  4  1  1  0
  5  3  1  0
  6  1  1  0
  6  2  1  0
  7  6  1  0
  8  5  1  0
  9  8  1  0
 10  7  1  0
 11  8  1  0
 12  6  1  0
 13  7  1  0
 14  4  1  0
M  END
$$$$

     RDKit          3D

 14 13  0  0  0  0  0  0  0  0999 V2000
  -28.0851   -3.7997  146.8892 C   0  0  0  0  0  0  0  0  0  0  0  0
  -27.9374   -6.3538  146.8911 C   0  0  0  0  0  0  0  0  0  0  0  0
  -26.6239   -6.3761  146.0789 C   0  0  0  0  0  0  0  0  0  0  0  0
  -28.1631   -5.0754  147.7545 C   0  0  0  0  0  0  0  0  0  0  0  0
  -26.2949   -7.7707  145.5154 C   0  0  0  0  0  0  0  0  0  0  0  0
  -27.2924   -8.2950  144.4667 C   0  0  0  0  0  0  0  0  0  0  0  0
  -27.2377   -7.5104  143.1488 C   0  0  0  0  0  0  0  0  0  0  0  0
  -29.5728   -5.1567  148.3793 C   0  0  0  0  0  0  0  0  0  0  0  0
  -28.1285   -8.1350  142.1081 C   0  0  0  0  0  0  0  0  0  0  0  0
  -28.1892   -7.6303  140.8673 C   0  0  0  0  0  0  0  0  0  0  0  0
  -27.1321   -4.9866  148.9016 C   0  0  0  0  0  0  0  0  0  0  0  0
  -29.0994   -8.2127  139.8216 C   0  0  0  0  0  0  0  0  0  0  0  0
  -28.6183   -9.5955  139.3673 C   0  0  0  0  0  0  0  0  0  0  0  0
  -29.5241  -10.1593  138.2754 C   0  0  0  0  0  0  0  0  0  0  0  0
  3  2  1  0
  4  1  1  0
  4  2  1  0
  5  3  1  0
  6  5  1  0
  7  6  1  0
  8  4  1  0
  9  7  1  0
 10  9  2  3
 11  4  1  0
 12 10  1  0
 13 12  1  0
 14 13  1  0
M  END
$$$$

     RDKit          3D

 15 18  0  0  0  0  0  0  0  0999 V2000
  -28.3562   -9.9624  155.0075 O   0  0  0  0  0  0  0  0  0  0  0  0
  -27.2656  -10.7595  154.6206 C   0  0  0  0  0  0  0  0  0  0  0  0
  -26.8406  -10.4682  153.3208 O   0  0  0  0  0  0  0  0  0  0  0  0
  -29.0560  -11.1634  155.2176 C   0  0  0  0  0  0  0  0  0  0  0  0
  -28.3293  -12.8584  153.5783 C   0  0  0  0  0  0  0  0  0  0  0  0
  -29.0333  -14.1913  153.8887 C   0  0  0  0  0  0  0  0  0  0  0  0
  -28.5429  -12.3038  152.1323 C   0  0  0  0  0  0  0  0  0  0  0  0
  -29.3529  -14.5682  155.3406 C   0  0  0  0  0  0  0  0  0  0  0  0
  -27.5417  -14.1692  153.5858 C   0  0  0  0  0  0  0  0  0  0  0  0
  -29.6068  -11.2028  151.9908 C   0  0  0  0  0  0  0  0  0  0  0  0
  -29.8900  -10.8649  150.5408 C   0  0  0  0  0  0  0  0  0  0  0  0
  -31.1209  -10.0198  150.3266 C   0  0  0  0  0  0  0  0  0  0  0  0
  -31.2828  -11.4443  150.8211 C   0  0  0  0  0  0  0  0  0  0  0  0
  -30.9555  -11.7153  152.2210 N   0  0  0  0  0  0  0  0  0  0  0  0
  -27.9728  -12.0336  154.7712 N   0  0  0  0  0  0  0  0  0  0  0  0
  2  1  1  0
  3  2  1  0
  4  1  1  0
  6  5  1  0
  7  5  1  0
  8  6  1  0
  9  5  1  0
  9  6  1  0
 10  7  1  0
 11 10  1  0
 12 11  1  0
 13 11  1  0
 13 12  1  0
 14 10  1  0
 14 13  1  0
 15  2  1  0
 15  4  1  0
 15  5  1  0
M  END
$$$$

     RDKit          3D

 15 17  0  0  0  0  0  0  0  0999 V2000
  -21.7869   -0.8646  140.1268 N   0  0  0  0  0  0  0  0  0  0  0  0
  -20.5757   -1.0987  139.3032 C   0  0  0  0  0  0  0  0  0  0  0  0
  -22.8328   -0.0909  139.3959 C   0  0  0  0  0  0  0  0  0  0  0  0
  -23.8349   -0.9269  138.6960 N   0  0  0  0  0  0  0  0  0  0  0  0
  -19.7538    0.1146  139.0899 C   0  0  0  0  0  0  0  0  0  0  0  0
  -19.1653   -1.0034  139.9936 C   0  0  0  0  0  0  0  0  0  0  0  0
  -19.4420   -0.9728  141.5245 C   0  0  0  0  0  0  0  0  0  0  0  0
  -22.3044   -2.0917  140.5987 N   0  0  0  0  0  0  0  0  0  0  0  0
  -23.2651   -1.7188  137.5990 C   0  0  0  0  0  0  0  0  0  0  0  0
  -18.3480   -0.1376  140.9903 C   0  0  0  0  0  0  0  0  0  0  0  0
  -24.3695   -2.1147  136.6085 C   0  0  0  0  0  0  0  0  0  0  0  0
  -23.5479    0.8274  140.3878 C   0  0  0  0  0  0  0  0  0  0  0  0
  -25.3231   -3.1933  137.1218 C   0  0  0  0  0  0  0  0  0  0  0  0
  -24.8446   -4.1395  136.0284 C   0  0  0  0  0  0  0  0  0  0  0  0
  -23.8869   -3.0690  135.5161 C   0  0  0  0  0  0  0  0  0  0  0  0
  2  1  1  0
  3  1  1  0
  4  3  1  0
  5  2  1  0
  6  2  1  0
  6  5  1  0
  7  6  1  0
  8  1  1  0
  9  4  1  0
 10  6  1  0
 10  7  1  0
 11  9  1  0
 12  3  1  0
 13 11  1  0
 14 13  1  0
 15 11  1  0
 15 14  1  0
M  END
$$$$

     RDKit          3D

 15 20  0  0  0  0  0  0  0  0999 V2000
  -23.8608  -19.3308  144.6100 C   0  0  0  0  0  0  0  0  0  0  0  0
  -25.7016  -20.3950  144.9570 C   0  0  0  0  0  0  0  0  0  0  0  0
  -23.6702  -19.7354  146.2161 C   0  0  0  0  0  0  0  0  0  0  0  0
  -26.6328  -19.4590  145.9659 C   0  0  0  0  0  0  0  0  0  0  0  0
  -25.8964  -19.1256  142.7757 C   0  0  0  0  0  0  0  0  0  0  0  0
  -28.1742  -19.5160  145.9226 C   0  0  0  0  0  0  0  0  0  0  0  0
  -28.5242  -20.6315  144.9438 C   0  0  0  0  0  0  0  0  0  0  0  0
  -28.8873  -19.1756  144.6395 C   0  0  0  0  0  0  0  0  0  0  0  0
  -25.3893  -19.3884  144.1528 C   0  0  0  0  0  0  0  0  0  0  0  0
  -26.2940  -20.8203  146.0629 C   0  0  0  0  0  0  0  0  0  0  0  0
  -30.3612  -18.8197  144.8314 C   0  0  0  0  0  0  0  0  0  0  0  0
  -22.3863  -20.2509  146.4389 O   0  0  0  0  0  0  0  0  0  0  0  0
  -24.8335  -20.7742  146.8481 C   0  0  0  0  0  0  0  0  0  0  0  0
  -27.1173  -21.1924  144.6996 C   0  0  0  0  0  0  0  0  0  0  0  0
  -26.3241  -20.4722  143.3488 C   0  0  0  0  0  0  0  0  0  0  0  0
  3  1  1  0
  4  2  1  0
  6  4  1  0
  7  6  1  0
  8  6  1  0
  8  7  1  0
  9  1  1  0
  9  2  1  0
  9  5  1  0
 10  2  1  0
 10  4  1  0
 11  8  1  0
 12  3  1  0
 13  3  1  0
 13 10  1  0
 14  7  1  0
 14 10  1  0
 15  5  1  0
 15  9  1  0
 15 14  1  0
M  END
$$$$

     RDKit          3D

 14 18  0  0  0  0  0  0  0  0999 V2000
  -21.3947  -16.9654  136.9844 C   0  0  0  0  0  0  0  0  0  0  0  0
  -21.3597  -18.2588  137.7640 C   0  0  0  0  0  0  0  0  0  0  0  0
  -23.9326  -14.6775  135.7684 C   0  0  0  0  0  0  0  0  0  0  0  0
  -22.7230  -14.9149  134.8676 C   0  0  0  0  0  0  0  0  0  0  0  0
  -24.2545  -13.2068  136.0295 C   0  0  0  0  0  0  0  0  0  0  0  0
  -22.8227  -16.1474  133.9501 C   0  0  0  0  0  0  0  0  0  0  0  0
  -20.9689  -16.9441  138.4507 C   0  0  0  0  0  0  0  0  0  0  0  0
  -20.2977  -18.2247  138.8442 C   0  0  0  0  0  0  0  0  0  0  0  0
  -22.7086  -16.5200  136.7713 O   0  0  0  0  0  0  0  0  0  0  0  0
  -19.4505  -16.9489  138.6462 C   0  0  0  0  0  0  0  0  0  0  0  0
  -18.8868  -18.3239  138.3283 C   0  0  0  0  0  0  0  0  0  0  0  0
  -22.6234  -15.1741  136.3746 C   0  0  0  0  0  0  0  0  0  0  0  0
  -23.4908  -15.8028  132.6125 C   0  0  0  0  0  0  0  0  0  0  0  0
  -22.6127  -14.9200  131.7260 C   0  0  0  0  0  0  0  0  0  0  0  0
  2  1  1  0
  4  3  1  0
  5  3  1  0
  6  4  1  0
  7  1  1  0
  7  2  1  0
  8  2  1  0
  8  7  1  0
  9  1  1  0
 10  7  1  0
 10  8  1  0
 11  8  1  0
 11 10  1  0
 12  3  1  0
 12  4  1  0
 12  9  1  0
 13  6  1  0
 14 13  1  0
M  END
$$$$

     RDKit          3D

 15 15  0  0  0  0  0  0  0  0999 V2000
  -25.0540    1.7512  132.4930 O   0  0  0  0  0  0  0  0  0  0  0  0
  -24.3373    3.0099  132.6414 C   0  0  0  0  0  0  0  0  0  0  0  0
  -25.3576    2.3502  132.3167 O   0  0  0  0  0  0  0  0  0  0  0  0
  -24.3690    0.4004  132.8530 C   0  0  0  0  0  0  0  0  0  0  0  0
  -24.7103    4.4613  132.6447 C   0  0  0  0  0  0  0  0  0  0  0  0
  -23.5126    5.3591  132.9833 C   0  0  0  0  0  0  0  0  0  0  0  0
  -22.9672    5.1352  134.4101 C   0  0  0  0  0  0  0  0  0  0  0  0
  -21.6828    4.2885  134.4113 C   0  0  0  0  0  0  0  0  0  0  0  0
  -21.2175    3.9354  135.8401 C   0  0  0  0  0  0  0  0  0  0  0  0
  -21.4928    2.4726  136.2241 C   0  0  0  0  0  0  0  0  0  0  0  0
  -22.9882    2.1637  136.3529 C   0  0  0  0  0  0  0  0  0  0  0  0
  -23.1921    0.6941  136.7371 C   0  0  0  0  0  0  0  0  0  0  0  0
  -23.2882    0.4065  138.2315 C   0  0  0  0  0  0  0  0  0  0  0  0
  -24.5448    0.3819  137.3671 C   0  0  0  0  0  0  0  0  0  0  0  0
  -25.0948   -1.0096  137.0532 C   0  0  0  0  0  0  0  0  0  0  0  0
  2  1  1  0
  3  2  2  0
  4  1  1  0
  5  2  1  0
  6  5  1  0
  7  6  1  0
  8  7  1  0
  9  8  1  0
 10  9  1  0
 11 10  1  0
 12 11  1  0
 13 12  1  0
 14 12  1  0
 14 13  1  0
 15 14  1  0
M  END
$$$$

     RDKit          3D

 15 16  0  0  0  0  0  0  0  0999 V2000
  -22.2103   -0.3533  140.4737 C   0  0  0  0  0  0  0  0  0  0  0  0
  -21.8935    1.1395  140.6450 C   0  0  0  0  0  0  0  0  0  0  0  0
  -21.1153   -1.1844  139.7640 C   0  0  0  0  0  0  0  0  0  0  0  0
  -19.4622   -2.9892  140.5374 C   0  0  0  0  0  0  0  0  0  0  0  0
  -23.0277    2.1726  140.7426 C   0  0  0  0  0  0  0  0  0  0  0  0
  -23.3423    2.7228  139.3447 C   0  0  0  0  0  0  0  0  0  0  0  0
  -23.6774   -0.7855  140.2952 C   0  0  0  0  0  0  0  0  0  0  0  0
  -23.6966    4.2010  139.2702 C   0  0  0  0  0  0  0  0  0  0  0  0
  -19.3568   -4.2572  141.3470 C   0  0  0  0  0  0  0  0  0  0  0  0
  -18.9211   -4.2027  142.6106 C   0  0  0  0  0  0  0  0  0  0  0  0
  -22.3192    3.7278  138.8143 C   0  0  0  0  0  0  0  0  0  0  0  0
  -18.7817   -5.2497  143.5817 O   0  0  0  0  0  0  0  0  0  0  0  0
  -18.7910   -3.1899  139.1689 C   0  0  0  0  0  0  0  0  0  0  0  0
  -20.9449   -2.5820  140.4052 C   0  0  0  0  0  0  0  0  0  0  0  0
  -21.8228    0.1997  141.8513 C   0  0  0  0  0  0  0  0  0  0  0  0
  2  1  1  0
  3  1  1  0
  5  2  1  0
  6  5  1  0
  7  1  1  0
  8  6  1  0
  9  4  1  0
 10  9  2  3
 11  6  1  0
 11  8  1  0
 12 10  1  0
 13  4  1  0
 14  3  1  0
 14  4  1  0
 15  1  1  0
 15  2  1  0
M  END
$$$$

     RDKit          3D

 11 11  0  0  0  0  0  0  0  0999 V2000
  -25.9492  -10.9941  141.1445 F   0  0  0  0  0  0  0  0  0  0  0  0
  -26.6910  -10.6434  140.0328 C   0  0  0  0  0  0  0  0  0  0  0  0
  -24.8167   -9.1613  139.1084 C   0  0  0  0  0  0  0  0  0  0  0  0
  -25.5499   -7.8022  139.0693 C   0  0  0  0  0  0  0  0  0  0  0  0
  -24.6146   -6.5604  139.1340 C   0  0  0  0  0  0  0  0  0  0  0  0
  -25.5279   -5.2970  138.9762 C   0  0  0  0  0  0  0  0  0  0  0  0
  -23.9188   -6.5005  140.5120 C   0  0  0  0  0  0  0  0  0  0  0  0
  -24.8533   -3.9299  138.9343 C   0  0  0  0  0  0  0  0  0  0  0  0
  -23.5821   -6.6787  138.0901 N   0  0  0  0  0  0  0  0  0  0  0  0
  -25.7686  -10.3463  138.8484 C   0  0  0  0  0  0  0  0  0  0  0  0
  -25.5018   -4.4900  137.6787 C   0  0  0  0  0  0  0  0  0  0  0  0
  2  1  1  0
  4  3  1  0
  5  4  1  0
  6  5  1  0
  7  5  1  0
  8  6  1  0
  9  5  1  0
 10  2  1  0
 10  3  1  0
 11  6  1  0
 11  8  1  0
M  END
$$$$

     RDKit          3D

 14 14  0  0  0  0  0  0  0  0999 V2000
  -25.9110  -12.7764  142.4996 O   0  0  0  0  0  0  0  0  0  0  0  0
  -24.5429  -12.4680  142.4955 C   0  0  0  0  0  0  0  0  0  0  0  0
  -23.7199  -13.5620  141.8022 C   0  0  0  0  0  0  0  0  0  0  0  0
  -23.8995  -12.8218  143.8336 C   0  0  0  0  0  0  0  0  0  0  0  0
  -22.6835  -13.0533  140.7745 C   0  0  0  0  0  0  0  0  0  0  0  0
  -23.1456  -13.1976  139.3144 C   0  0  0  0  0  0  0  0  0  0  0  0
  -25.5762  -12.4950  138.9432 C   0  0  0  0  0  0  0  0  0  0  0  0
  -24.1069  -12.0910  138.8429 C   0  0  0  0  0  0  0  0  0  0  0  0
  -23.3844  -15.3284  143.6508 C   0  0  0  0  0  0  0  0  0  0  0  0
  -22.5564  -16.3694  142.8772 C   0  0  0  0  0  0  0  0  0  0  0  0
  -23.0680  -13.9062  143.1539 C   0  0  0  0  0  0  0  0  0  0  0  0
  -21.8942  -18.8469  142.5984 C   0  0  0  0  0  0  0  0  0  0  0  0
  -23.6216  -18.2145  144.2362 C   0  0  0  0  0  0  0  0  0  0  0  0
  -22.7204  -17.8141  143.3191 C   0  0  0  0  0  0  0  0  0  0  0  0
  2  1  1  0
  3  2  1  0
  4  2  1  0
  5  3  1  0
  6  5  1  0
  8  6  1  0
  8  7  1  0
 10  9  1  0
 11  3  1  0
 11  4  1  0
 11  9  1  0
 14 10  1  0
 14 12  1  0
 14 13  2  0
M  END
$$$$

     RDKit          3D

 14 19  0  0  0  0  0  0  0  0999 V2000
  -24.0393   -6.2557  142.9034 O   0  0  0  0  0  0  0  0  0  0  0  0
  -24.0672   -7.3069  143.8468 C   0  0  0  0  0  0  0  0  0  0  0  0
  -24.8333   -8.5849  143.3066 C   0  0  0  0  0  0  0  0  0  0  0  0
  -24.2851   -6.6841  145.2456 C   0  0  0  0  0  0  0  0  0  0  0  0
  -26.1554   -8.7732  144.0042 C   0  0  0  0  0  0  0  0  0  0  0  0
  -25.2189   -7.1699  146.1558 O   0  0  0  0  0  0  0  0  0  0  0  0
  -28.8652   -6.1701  143.6758 N   0  0  0  0  0  0  0  0  0  0  0  0
  -26.9488   -7.7052  143.2936 C   0  0  0  0  0  0  0  0  0  0  0  0
  -25.2261   -8.4052  141.7935 C   0  0  0  0  0  0  0  0  0  0  0  0
  -26.6660   -7.8510  141.7840 C   0  0  0  0  0  0  0  0  0  0  0  0
  -24.9132   -6.0717  143.9950 C   0  0  0  0  0  0  0  0  0  0  0  0
  -26.4011   -6.2389  143.5130 C   0  0  0  0  0  0  0  0  0  0  0  0
  -27.6274   -6.6919  144.2375 C   0  0  0  0  0  0  0  0  0  0  0  0
  -26.3567   -9.2214  141.1761 C   0  0  0  0  0  0  0  0  0  0  0  0
  2  1  1  0
  3  2  1  0
  4  2  1  0
  5  3  1  0
  6  4  1  0
  8  5  1  0
  9  3  1  0
 10  8  1  0
 10  9  1  0
 11  1  1  0
 11  2  1  0
 11  4  1  0
 12  8  1  0
 12 11  1  0
 13  7  1  0
 13  8  1  0
 13 12  1  0
 14  9  1  0
 14 10  1  0
M  END
$$$$

     RDKit          3D

 15 16  0  0  0  0  0  0  0  0999 V2000
  -26.4715   -7.0082  142.3801 C   0  0  0  0  0  0  0  0  0  0  0  0
  -25.7205   -5.9795  141.4801 C   0  0  0  0  0  0  0  0  0  0  0  0
  -27.9302   -7.2723  141.9791 C   0  0  0  0  0  0  0  0  0  0  0  0
  -28.0304   -8.4936  141.0289 C   0  0  0  0  0  0  0  0  0  0  0  0
  -24.4805   -6.8291  141.0703 C   0  0  0  0  0  0  0  0  0  0  0  0
  -28.9417   -8.2738  139.7927 C   0  0  0  0  0  0  0  0  0  0  0  0
  -28.4456   -7.0528  138.9484 C   0  0  0  0  0  0  0  0  0  0  0  0
  -26.2177   -5.6532  142.9238 C   0  0  0  0  0  0  0  0  0  0  0  0
  -28.5536   -7.2575  137.4283 C   0  0  0  0  0  0  0  0  0  0  0  0
  -24.3500   -7.1114  139.5550 C   0  0  0  0  0  0  0  0  0  0  0  0
  -24.5441   -5.9204  138.5874 C   0  0  0  0  0  0  0  0  0  0  0  0
  -24.2517   -5.4582  141.5782 C   0  0  0  0  0  0  0  0  0  0  0  0
  -31.3888   -8.0243  139.0478 C   0  0  0  0  0  0  0  0  0  0  0  0
  -30.4293   -8.1687  140.2284 C   0  0  0  0  0  0  0  0  0  0  0  0
  -24.7072   -6.3866  137.2098 N   0  0  0  0  0  0  0  0  0  0  0  0
  2  1  1  0
  3  1  1  0
  4  3  1  0
  5  2  1  0
  6  4  1  0
  7  6  1  0
  8  1  1  0
  8  2  1  0
  9  7  1  0
 10  5  1  0
 11 10  1  0
 12  2  1  0
 12  5  1  0
 14  6  1  0
 14 13  1  0
 15 11  1  0
M  END
$$$$

     RDKit          3D

 15 19  0  0  0  0  0  0  0  0999 V2000
  -18.8043    1.1068  144.0262 C   0  0  0  0  0  0  0  0  0  0  0  0
  -20.7816    2.5850  143.0812 C   0  0  0  0  0  0  0  0  0  0  0  0
  -22.0887    2.3920  143.8746 C   0  0  0  0  0  0  0  0  0  0  0  0
  -20.7419    1.6166  141.8596 C   0  0  0  0  0  0  0  0  0  0  0  0
  -20.3414    2.1477  140.4723 C   0  0  0  0  0  0  0  0  0  0  0  0
  -17.3532    1.3988  144.2484 C   0  0  0  0  0  0  0  0  0  0  0  0
  -19.5917    2.4176  144.0625 C   0  0  0  0  0  0  0  0  0  0  0  0
  -18.1622    0.7320  145.2932 N   0  0  0  0  0  0  0  0  0  0  0  0
  -20.0045    3.6390  140.2893 C   0  0  0  0  0  0  0  0  0  0  0  0
  -21.7945    1.7249  140.7374 C   0  0  0  0  0  0  0  0  0  0  0  0
  -23.0639    3.5086  141.9586 O   0  0  0  0  0  0  0  0  0  0  0  0
  -18.2063    2.3486  143.4356 C   0  0  0  0  0  0  0  0  0  0  0  0
  -23.3465    2.6190  143.0238 C   0  0  0  0  0  0  0  0  0  0  0  0
  -22.9095    2.8066  140.7405 C   0  0  0  0  0  0  0  0  0  0  0  0
  -19.8899    3.9088  138.9206 O   0  0  0  0  0  0  0  0  0  0  0  0
  3  2  1  0
  4  2  1  0
  5  4  1  0
  6  1  1  0
  7  1  1  0
  7  2  1  0
  8  1  1  0
  8  6  1  0
  9  5  1  0
 10  4  1  0
 10  5  1  0
 12  1  1  0
 12  6  1  0
 12  7  1  0
 13  3  1  0
 13 11  1  0
 14 10  1  0
 14 11  1  0
 15  9  1  0
M  END
$$$$

     RDKit          3D

 15 19  0  0  0  0  0  0  0  0999 V2000
  -20.1941   -5.2475  140.7214 C   0  0  0  0  0  0  0  0  0  0  0  0
  -18.8246   -5.9611  140.5195 C   0  0  0  0  0  0  0  0  0  0  0  0
  -21.3620   -5.9917  140.0451 C   0  0  0  0  0  0  0  0  0  0  0  0
  -22.7308   -5.6083  140.5842 C   0  0  0  0  0  0  0  0  0  0  0  0
  -22.3270   -5.1775  139.1764 C   0  0  0  0  0  0  0  0  0  0  0  0
  -18.0494   -4.8556  139.7488 C   0  0  0  0  0  0  0  0  0  0  0  0
  -17.4216   -5.4428  140.9432 C   0  0  0  0  0  0  0  0  0  0  0  0
  -22.1021   -3.6629  139.0531 C   0  0  0  0  0  0  0  0  0  0  0  0
  -22.6306   -3.0529  137.7594 C   0  0  0  0  0  0  0  0  0  0  0  0
  -20.1451   -4.2738  136.8183 Si  0  0  0  0  0  4  0  0  0  0  0  0
  -19.5546   -5.9034  141.8946 C   0  0  0  0  0  0  0  0  0  0  0  0
  -20.0967   -7.2589  142.3570 C   0  0  0  0  0  0  0  0  0  0  0  0
  -21.1808   -5.3117  135.6117 C   0  0  0  0  0  0  0  0  0  0  0  0
  -20.4231   -6.1338  136.5795 C   0  0  0  0  0  0  0  0  0  0  0  0
  -21.1293   -3.1443  137.9936 C   0  0  0  0  0  0  0  0  0  0  0  0
  2  1  1  0
  3  1  1  0
  4  3  1  0
  5  3  1  0
  5  4  1  0
  6  2  1  0
  7  2  1  0
  7  6  1  0
  8  5  1  0
  9  8  1  0
 11  1  1  0
 11  2  1  0
 12 11  1  0
 13 10  1  0
 14 10  1  0
 14 13  1  0
 15  8  1  0
 15  9  1  0
 15 10  1  0
M  END
$$$$

     RDKit          3D

 15 17  0  0  0  0  0  0  0  0999 V2000
  -29.4461  -21.1467  140.7245 O   0  0  0  0  0  0  0  0  0  0  0  0
  -30.6502  -21.5224  140.7222 C   0  0  0  0  0  0  0  0  0  0  0  0
  -31.2201  -22.0200  141.8904 O   0  0  0  0  0  0  0  0  0  0  0  0
  -31.4808  -21.4173  139.4689 C   0  0  0  0  0  0  0  0  0  0  0  0
  -30.7786  -22.1700  138.3152 C   0  0  0  0  0  0  0  0  0  0  0  0
  -31.7335  -19.9253  139.1616 C   0  0  0  0  0  0  0  0  0  0  0  0
  -31.5796  -22.5215  137.0365 C   0  0  0  0  0  0  0  0  0  0  0  0
  -32.4421  -19.6397  137.8152 C   0  0  0  0  0  0  0  0  0  0  0  0
  -33.0321  -18.2087  137.7880 C   0  0  0  0  0  0  0  0  0  0  0  0
  -34.2816  -18.0434  138.6771 C   0  0  0  0  0  0  0  0  0  0  0  0
  -33.4957  -20.7101  137.4517 C   0  0  0  0  0  0  0  0  0  0  0  0
  -32.9088  -23.2420  137.2499 C   0  0  0  0  0  0  0  0  0  0  0  0
  -34.9981  -16.7137  138.4902 C   0  0  0  0  0  0  0  0  0  0  0  0
  -32.8913  -21.8515  136.6167 C   0  0  0  0  0  0  0  0  0  0  0  0
  -35.6235  -17.9922  137.9591 C   0  0  0  0  0  0  0  0  0  0  0  0
  2  1  2  0
  3  2  1  0
  4  2  1  0
  5  4  1  0
  6  4  1  0
  7  5  1  0
  8  6  1  0
  9  8  1  0
 10  9  1  0
 11  8  1  0
 12  7  1  0
 13 10  1  0
 14  7  1  0
 14 11  1  0
 14 12  1  0
 15 10  1  0
 15 13  1  0
M  END
$$$$

     RDKit          3D

 15 19  0  0  0  0  0  0  0  0999 V2000
  -23.6602   -9.0564  140.8264 F   0  0  0  0  0  0  0  0  0  0  0  0
  -22.8940   -9.8716  141.6395 C   0  0  0  0  0  0  0  0  0  0  0  0
  -23.7700   -9.0029  143.7715 C   0  0  0  0  0  0  0  0  0  0  0  0
  -23.9982  -11.4442  143.4062 C   0  0  0  0  0  0  0  0  0  0  0  0
  -22.7915  -12.3236  143.8019 C   0  0  0  0  0  0  0  0  0  0  0  0
  -22.9261  -13.7697  144.2410 C   0  0  0  0  0  0  0  0  0  0  0  0
  -24.2350  -14.4826  144.1315 C   0  0  0  0  0  0  0  0  0  0  0  0
  -22.2796  -11.9858  145.1885 C   0  0  0  0  0  0  0  0  0  0  0  0
  -23.5793  -10.0590  142.9668 C   0  0  0  0  0  0  0  0  0  0  0  0
  -21.5391  -11.7143  144.0247 O   0  0  0  0  0  0  0  0  0  0  0  0
  -22.3761  -13.4516  145.6090 C   0  0  0  0  0  0  0  0  0  0  0  0
  -24.3808  -15.8595  144.6494 C   0  0  0  0  0  0  0  0  0  0  0  0
  -23.4796  -15.6715  143.4238 C   0  0  0  0  0  0  0  0  0  0  0  0
  -22.2358  -14.8056  143.4167 C   0  0  0  0  0  0  0  0  0  0  0  0
  -22.1799  -16.1395  143.9700 N   0  0  0  0  0  0  0  0  0  0  0  0
  2  1  1  0
  5  4  1  0
  6  5  1  0
  7  6  1  0
  8  5  1  0
  9  2  1  0
  9  3  2  0
  9  4  1  0
 10  5  1  0
 10  8  1  0
 11  6  1  0
 11  8  1  0
 12  7  1  0
 13  7  1  0
 13 12  1  0
 14  6  1  0
 14 13  1  0
 15 13  1  0
 15 14  1  0
M  END
$$$$

     RDKit          3D

 15 18  0  0  0  0  0  0  0  0999 V2000
  -22.9521   -5.3155  135.4377 O   0  0  0  0  0  0  0  0  0  0  0  0
  -22.1887   -5.3728  136.6775 C   0  0  0  0  0  0  0  0  0  0  0  0
  -22.4724   -4.7536  135.6213 O   0  0  0  0  0  0  0  0  0  0  0  0
  -23.9276   -6.3898  135.0023 C   0  0  0  0  0  0  0  0  0  0  0  0
  -24.3670   -6.4071  133.5662 C   0  0  0  0  0  0  0  0  0  0  0  0
  -23.5788   -7.4539  132.7757 C   0  0  0  0  0  0  0  0  0  0  0  0
  -24.2935   -7.8729  131.4924 C   0  0  0  0  0  0  0  0  0  0  0  0
  -24.5256   -9.2103  130.7789 C   0  0  0  0  0  0  0  0  0  0  0  0
  -23.4277   -8.9815  129.7675 C   0  0  0  0  0  0  0  0  0  0  0  0
  -23.5296   -6.4569  129.5085 C   0  0  0  0  0  0  0  0  0  0  0  0
  -24.1860   -8.7969  132.8333 C   0  0  0  0  0  0  0  0  0  0  0  0
  -23.1757   -7.6370  130.4160 C   0  0  0  0  0  0  0  0  0  0  0  0
  -24.2233  -10.0636  131.9626 C   0  0  0  0  0  0  0  0  0  0  0  0
  -23.0292   -9.7965  132.8302 C   0  0  0  0  0  0  0  0  0  0  0  0
  -24.4055   -7.2997  135.8596 C   0  0  0  0  0  0  0  0  0  0  0  0
  2  1  1  0
  3  2  2  0
  4  1  1  0
  5  4  1  0
  6  5  1  0
  7  6  1  0
  8  7  1  0
  9  8  1  0
 11  6  1  0
 11  7  1  0
 12  7  1  0
 12  9  1  0
 12 10  1  0
 13  8  1  0
 13 11  1  0
 14 11  1  0
 14 13  1  0
 15  4  2  0
M  END
$$$$

     RDKit          3D

 14 14  0  0  0  0  0  0  0  0999 V2000
  -21.5680  -24.2624  135.5374 N   0  0  0  0  0  0  0  0  0  0  0  0
  -21.9781  -23.6726  134.2448 C   0  0  0  0  0  0  0  0  0  0  0  0
  -22.4357  -23.9463  136.6871 C   0  0  0  0  0  0  0  0  0  0  0  0
  -23.2356  -24.3461  133.6664 C   0  0  0  0  0  0  0  0  0  0  0  0
  -22.2433  -22.1604  134.2908 C   0  0  0  0  0  0  0  0  0  0  0  0
  -22.2397  -24.9872  137.7930 C   0  0  0  0  0  0  0  0  0  0  0  0
  -24.1617  -23.2186  133.1581 C   0  0  0  0  0  0  0  0  0  0  0  0
  -22.5628  -26.4044  137.3204 C   0  0  0  0  0  0  0  0  0  0  0  0
  -24.1183  -20.5926  133.5641 C   0  0  0  0  0  0  0  0  0  0  0  0
  -24.1617  -23.1246  131.5810 C   0  0  0  0  0  0  0  0  0  0  0  0
  -23.7365  -22.0021  134.0248 C   0  0  0  0  0  0  0  0  0  0  0  0
  -24.4849  -24.4128  131.0990 O   0  0  0  0  0  0  0  0  0  0  0  0
  -25.2553  -22.1599  131.0639 C   0  0  0  0  0  0  0  0  0  0  0  0
  -22.7898  -22.7069  131.0024 C   0  0  0  0  0  0  0  0  0  0  0  0
  2  1  1  0
  3  1  1  0
  4  2  1  0
  5  2  1  0
  6  3  1  0
  7  4  1  0
  8  6  1  0
 10  7  1  0
 11  5  1  0
 11  7  1  0
 11  9  1  0
 12 10  1  0
 13 10  1  0
 14 10  1  0
M  END
$$$$

     RDKit          3D

 15 18  0  0  0  0  0  0  0  0999 V2000
  -26.3756  -13.7538  144.6415 N   0  0  0  0  0  0  0  0  0  0  0  0
  -26.3621  -15.2224  144.8093 C   0  0  0  0  0  0  0  0  0  0  0  0
  -25.0178  -15.7900  144.6260 N   0  0  0  0  0  0  0  0  0  0  0  0
  -27.3133  -15.7943  143.8407 N   0  0  0  0  0  0  0  0  0  0  0  0
  -26.8214  -13.5269  143.2610 C   0  0  0  0  0  0  0  0  0  0  0  0
  -25.1609  -13.0315  145.0746 C   0  0  0  0  0  0  0  0  0  0  0  0
  -24.9820  -13.1124  146.5950 C   0  0  0  0  0  0  0  0  0  0  0  0
  -27.4226  -14.8163  142.7638 C   0  0  0  0  0  0  0  0  0  0  0  0
  -26.0270  -12.6843  142.2320 C   0  0  0  0  0  0  0  0  0  0  0  0
  -24.7342  -13.3820  141.7769 C   0  0  0  0  0  0  0  0  0  0  0  0
  -28.3329  -13.6343  143.0748 C   0  0  0  0  0  0  0  0  0  0  0  0
  -26.1610  -12.5913  147.2807 N   0  0  0  0  0  0  0  0  0  0  0  0
  -23.4134  -12.7109  142.1171 C   0  0  0  0  0  0  0  0  0  0  0  0
  -22.4890  -12.6763  140.9207 C   0  0  0  0  0  0  0  0  0  0  0  0
  -23.9837  -12.6217  140.6959 C   0  0  0  0  0  0  0  0  0  0  0  0
  2  1  1  0
  3  2  1  0
  4  2  1  0
  5  1  1  0
  6  1  1  0
  7  6  1  0
  8  4  1  0
  8  5  1  0
  9  5  1  0
 10  9  1  0
 11  5  1  0
 11  8  1  0
 12  7  1  0
 13 10  1  0
 14 13  1  0
 15 10  1  0
 15 13  1  0
 15 14  1  0
M  END
$$$$

     RDKit          3D

 11 13  0  0  0  0  0  0  0  0999 V2000
  -31.0223  -18.5571  141.1494 C   0  0  0  0  0  0  0  0  0  0  0  0
  -29.4567  -17.9149  139.9178 C   0  0  0  0  0  0  0  0  0  0  0  0
  -28.3797  -16.8780  139.6509 C   0  0  0  0  0  0  0  0  0  0  0  0
  -28.6167  -15.5440  138.8964 C   0  0  0  0  0  0  0  0  0  0  0  0
  -29.2523  -14.4667  139.7696 C   0  0  0  0  0  0  0  0  0  0  0  0
  -28.5082  -18.1379  138.7572 C   0  0  0  0  0  0  0  0  0  0  0  0
  -29.0362  -20.1800  141.0375 C   0  0  0  0  0  0  0  0  0  0  0  0
  -30.9466  -17.7280  139.8502 C   0  0  0  0  0  0  0  0  0  0  0  0
  -30.3495  -14.2711  138.7301 C   0  0  0  0  0  0  0  0  0  0  0  0
  -29.7542  -15.3873  137.8810 C   0  0  0  0  0  0  0  0  0  0  0  0
  -29.4848  -18.7243  141.1908 C   0  0  0  0  0  0  0  0  0  0  0  0
  3  2  1  0
  4  3  1  0
  5  4  1  0
  6  2  1  0
  6  3  1  0
  8  1  1  0
  8  2  1  0
  9  5  1  0
 10  4  1  0
 10  9  1  0
 11  1  1  0
 11  2  1  0
 11  7  1  0
M  END
$$$$

     RDKit          3D

 15 16  0  0  0  0  0  0  0  0999 V2000
  -21.1494  -18.5377  132.3588 N   0  0  0  0  0  0  0  0  0  0  0  0
  -21.1328  -16.5489  133.2320 C   0  0  0  0  0  0  0  0  0  0  0  0
  -20.4720  -17.2738  132.0689 C   0  0  0  0  0  0  0  0  0  0  0  0
  -21.2308  -18.0299  134.8195 N   0  0  0  0  0  0  0  0  0  0  0  0
  -20.2891  -19.0911  134.9328 N   0  0  0  0  0  0  0  0  0  0  0  0
  -21.8289  -17.8646  133.4758 C   0  0  0  0  0  0  0  0  0  0  0  0
  -20.9286  -20.2831  135.5162 C   0  0  0  0  0  0  0  0  0  0  0  0
  -20.5203  -16.7632  134.6129 C   0  0  0  0  0  0  0  0  0  0  0  0
  -19.9476  -20.9207  136.5485 C   0  0  0  0  0  0  0  0  0  0  0  0
  -19.6796  -19.8998  137.6942 C   0  0  0  0  0  0  0  0  0  0  0  0
  -18.6678  -20.3332  138.7676 C   0  0  0  0  0  0  0  0  0  0  0  0
  -20.4905  -22.2461  137.1135 C   0  0  0  0  0  0  0  0  0  0  0  0
  -17.2765  -20.6349  138.1957 C   0  0  0  0  0  0  0  0  0  0  0  0
  -16.2533  -20.8201  139.3115 C   0  0  0  0  0  0  0  0  0  0  0  0
  -21.3564  -21.2538  134.3984 C   0  0  0  0  0  0  0  0  0  0  0  0
  3  1  1  0
  3  2  1  0
  5  4  1  0
  6  1  1  0
  6  2  1  0
  6  4  1  0
  7  5  1  0
  8  2  1  0
  8  4  1  0
  9  7  1  0
 10  9  1  0
 11 10  1  0
 12  9  1  0
 13 11  1  0
 14 13  1  0
 15  7  1  0
M  END
$$$$

     RDKit          3D

 15 17  0  0  0  0  0  0  0  0999 V2000
  -31.4672   -8.5917  135.8944 C   0  0  0  0  0  0  0  0  0  0  0  0
  -30.5093   -8.5681  137.0971 C   0  0  0  0  0  0  0  0  0  0  0  0
  -30.8005   -9.6374  138.1751 C   0  0  0  0  0  0  0  0  0  0  0  0
  -30.3519  -11.0134  137.7454 C   0  0  0  0  0  0  0  0  0  0  0  0
  -30.7065   -7.1750  137.6596 C   0  0  0  0  0  0  0  0  0  0  0  0
  -31.1116  -12.1188  137.8385 C   0  0  0  0  0  0  0  0  0  0  0  0
  -31.6156   -7.1903  135.4062 N   0  0  0  0  0  0  0  0  0  0  0  0
  -32.5216  -12.1093  138.3670 C   0  0  0  0  0  0  0  0  0  0  0  0
  -33.4323  -13.1768  137.7794 C   0  0  0  0  0  0  0  0  0  0  0  0
  -33.5737  -11.7299  137.3354 C   0  0  0  0  0  0  0  0  0  0  0  0
  -31.0410   -6.3141  136.4442 C   0  0  0  0  0  0  0  0  0  0  0  0
  -30.9266   -6.8203  134.1548 C   0  0  0  0  0  0  0  0  0  0  0  0
  -29.5615   -6.2932  134.5283 C   0  0  0  0  0  0  0  0  0  0  0  0
  -31.0629   -9.6360  134.8337 C   0  0  0  0  0  0  0  0  0  0  0  0
  -29.7990   -5.6178  135.8568 C   0  0  0  0  0  0  0  0  0  0  0  0
  2  1  1  0
  3  2  1  0
  4  3  1  0
  5  2  1  0
  6  4  2  3
  7  1  1  0
  8  6  1  0
  9  8  1  0
 10  8  1  0
 10  9  1  0
 11  5  1  0
 11  7  1  0
 12  7  1  0
 13 12  1  0
 14  1  1  0
 15 11  1  0
 15 13  1  0
M  END
$$$$

     RDKit          3D

 14 14  0  0  0  0  0  0  0  0999 V2000
  -22.3810    0.4881  145.2802 C   0  0  0  0  0  0  0  0  0  0  0  0
  -24.5704    1.8363  144.8762 C   0  0  0  0  0  0  0  0  0  0  0  0
  -21.3911   -0.1154  146.2446 C   0  0  0  0  0  0  0  0  0  0  0  0
  -22.1005    0.5566  144.0246 N   0  0  0  0  0  0  0  0  0  0  0  0
  -20.2325    0.8182  146.4747 C   0  0  0  0  0  0  0  0  0  0  0  0
  -20.0406    1.4984  147.8018 C   0  0  0  0  0  0  0  0  0  0  0  0
  -19.4420    1.0369  145.5674 O   0  0  0  0  0  0  0  0  0  0  0  0
  -22.1218    2.5137  148.7006 C   0  0  0  0  0  0  0  0  0  0  0  0
  -21.8518    4.2509  146.1997 C   0  0  0  0  0  0  0  0  0  0  0  0
  -23.7086    0.9925  145.8070 C   0  0  0  0  0  0  0  0  0  0  0  0
  -20.7470    3.9506  147.2215 C   0  0  0  0  0  0  0  0  0  0  0  0
  -21.0137    2.6461  147.9522 C   0  0  0  0  0  0  0  0  0  0  0  0
  -24.9232    0.3781  145.1264 C   0  0  0  0  0  0  0  0  0  0  0  0
  -20.5861    5.1100  148.2124 C   0  0  0  0  0  0  0  0  0  0  0  0
  3  1  1  0
  4  1  2  0
  5  3  1  0
  6  5  1  0
  7  5  2  0
 10  1  1  0
 10  2  1  0
 11  9  1  0
 12  6  1  0
 12  8  2  0
 12 11  1  0
 13  2  1  0
 13 10  1  0
 14 11  1  0
M  END
$$$$

     RDKit          3D

 15 16  0  0  0  0  0  0  0  0999 V2000
  -35.3114   -7.2051  146.6000 O   0  0  0  0  0  0  0  0  0  0  0  0
  -36.2816   -8.7826  148.1263 C   0  0  0  0  0  0  0  0  0  0  0  0
  -36.2016   -9.3023  149.5736 C   0  0  0  0  0  0  0  0  0  0  0  0
  -33.8125   -8.8451  147.4962 C   0  0  0  0  0  0  0  0  0  0  0  0
  -32.5168   -8.0176  147.4049 C   0  0  0  0  0  0  0  0  0  0  0  0
  -35.0399   -7.9488  147.7600 C   0  0  0  0  0  0  0  0  0  0  0  0
  -32.8269  -10.2284  152.0051 As  0  0  0  0  0  3  0  0  0  0  0  0
  -31.4394   -8.8157  146.9769 O   0  0  0  0  0  0  0  0  0  0  0  0
  -36.8191   -8.3963  150.6298 C   0  0  0  0  0  0  0  0  0  0  0  0
  -37.5445   -9.6581  150.1877 C   0  0  0  0  0  0  0  0  0  0  0  0
  -30.6823   -8.5583  148.0925 N   0  0  0  0  0  0  0  0  0  0  0  0
  -31.7239   -7.7160  148.6557 C   0  0  0  0  0  0  0  0  0  0  0  0
  -31.7941   -9.6384  150.4295 C   0  0  0  0  0  0  0  0  0  0  0  0
  -30.4329   -9.6297  150.7502 O   0  0  0  0  0  0  0  0  0  0  0  0
  -32.2393   -8.2217  150.0325 C   0  0  0  0  0  0  0  0  0  0  0  0
  3  2  1  0
  5  4  1  0
  6  1  1  0
  6  2  1  0
  6  4  1  0
  8  5  1  0
  9  3  1  0
 10  3  1  0
 10  9  1  0
 11  8  1  0
 12  5  1  0
 12 11  1  0
 13  7  1  0
 14 13  1  0
 15 12  1  0
 15 13  1  0
M  END
$$$$

     RDKit          3D

 15 17  0  0  0  0  0  0  0  0999 V2000
  -25.4140   -3.8859  130.4013 Br  0  0  0  0  0  0  0  0  0  0  0  0
  -26.3379   -2.1801  130.1774 C   0  0  0  0  0  0  0  0  0  0  0  0
  -26.1826   -1.6503  128.6868 C   0  0  0  0  0  0  0  0  0  0  0  0
  -27.7941   -2.3689  130.6210 C   0  0  0  0  0  0  0  0  0  0  0  0
  -27.1830   -2.1400  127.5656 C   0  0  0  0  0  0  0  0  0  0  0  0
  -25.6663   -1.2756  131.2052 C   0  0  0  0  0  0  0  0  0  0  0  0
  -26.0555   -0.1090  128.6523 C   0  0  0  0  0  0  0  0  0  0  0  0
  -25.0280   -0.1342  130.9078 C   0  0  0  0  0  0  0  0  0  0  0  0
  -28.5551   -1.4165  127.5559 C   0  0  0  0  0  0  0  0  0  0  0  0
  -24.8740    0.3482  129.4996 C   0  0  0  0  0  0  0  0  0  0  0  0
  -29.4357   -1.9183  126.4166 C   0  0  0  0  0  0  0  0  0  0  0  0
  -29.8006   -3.3915  126.6156 C   0  0  0  0  0  0  0  0  0  0  0  0
  -28.6249   -4.3100  126.9939 C   0  0  0  0  0  0  0  0  0  0  0  0
  -27.4171   -4.2528  126.0730 C   0  0  0  0  0  0  0  0  0  0  0  0
  -27.3193   -3.6870  127.4956 C   0  0  0  0  0  0  0  0  0  0  0  0
  2  1  1  0
  3  2  1  0
  4  2  1  0
  5  3  1  0
  6  2  1  0
  7  3  1  0
  8  6  2  0
  9  5  1  0
 10  7  1  0
 10  8  1  0
 11  9  1  0
 12 11  1  0
 13 12  1  0
 14 13  1  0
 15  5  1  0
 15 13  1  0
 15 14  1  0
M  END
$$$$

     RDKit          3D

 15 16  0  0  0  0  0  0  0  0999 V2000
  -26.4850   -2.0332  136.8469 C   0  0  0  0  0  0  0  0  0  0  0  0
  -25.9014   -3.1415  136.1882 O   0  0  0  0  0  0  0  0  0  0  0  0
  -27.4637   -1.3228  135.8967 C   0  0  0  0  0  0  0  0  0  0  0  0
  -28.2561   -3.2728  134.4329 C   0  0  0  0  0  0  0  0  0  0  0  0
  -28.6560   -2.2007  135.4549 C   0  0  0  0  0  0  0  0  0  0  0  0
  -24.7657   -3.6177  136.8866 C   0  0  0  0  0  0  0  0  0  0  0  0
  -23.4911   -2.9318  136.3414 C   0  0  0  0  0  0  0  0  0  0  0  0
  -22.2538   -3.7337  135.8706 C   0  0  0  0  0  0  0  0  0  0  0  0
  -22.2126   -5.2335  136.2901 C   0  0  0  0  0  0  0  0  0  0  0  0
  -20.9176   -2.9692  136.1002 C   0  0  0  0  0  0  0  0  0  0  0  0
  -22.7992   -6.2287  135.2552 C   0  0  0  0  0  0  0  0  0  0  0  0
  -23.1550   -7.5821  135.8643 C   0  0  0  0  0  0  0  0  0  0  0  0
  -21.9571   -7.4638  134.9360 C   0  0  0  0  0  0  0  0  0  0  0  0
  -23.2774   -3.2040  134.8528 C   0  0  0  0  0  0  0  0  0  0  0  0
  -20.7679   -1.5991  135.4272 C   0  0  0  0  0  0  0  0  0  0  0  0
  2  1  1  0
  3  1  1  0
  5  3  1  0
  5  4  1  0
  6  2  1  0
  7  6  1  0
  8  7  1  0
  9  8  1  0
 10  8  1  0
 11  9  1  0
 12 11  1  0
 13 11  1  0
 13 12  1  0
 14  7  1  0
 14  8  1  0
 15 10  1  0
M  END
$$$$

     RDKit          3D

 15 19  0  0  0  0  0  0  0  0999 V2000
  -27.2023   -9.8648  136.5497 N   0  0  0  0  0  0  0  0  0  0  0  0
  -27.4199  -10.4364  137.8990 C   0  0  0  0  0  0  0  0  0  0  0  0
  -28.0901   -9.4748  138.8240 N   0  0  0  0  0  0  0  0  0  0  0  0
  -26.0747   -9.9297  137.4885 C   0  0  0  0  0  0  0  0  0  0  0  0
  -29.4846   -9.2955  138.3629 C   0  0  0  0  0  0  0  0  0  0  0  0
  -26.1531  -11.1249  138.4001 C   0  0  0  0  0  0  0  0  0  0  0  0
  -28.1623   -9.9792  140.2139 C   0  0  0  0  0  0  0  0  0  0  0  0
  -28.8835   -9.0363  141.0877 N   0  0  0  0  0  0  0  0  0  0  0  0
  -27.9985   -8.0464  141.7471 C   0  0  0  0  0  0  0  0  0  0  0  0
  -28.7695   -7.1566  142.7104 C   0  0  0  0  0  0  0  0  0  0  0  0
  -30.2867   -7.3957  142.6944 C   0  0  0  0  0  0  0  0  0  0  0  0
  -30.8039   -7.5037  141.3270 N   0  0  0  0  0  0  0  0  0  0  0  0
  -28.1362   -6.5506  141.4587 C   0  0  0  0  0  0  0  0  0  0  0  0
  -30.2136   -8.6245  140.5686 C   0  0  0  0  0  0  0  0  0  0  0  0
  -30.1499   -8.2565  139.1465 N   0  0  0  0  0  0  0  0  0  0  0  0
  2  1  1  0
  3  2  1  0
  4  1  1  0
  4  2  1  0
  5  3  1  0
  6  2  1  0
  6  4  1  0
  7  3  1  0
  8  7  1  0
  9  8  1  0
 10  9  1  0
 11 10  1  0
 12 11  1  0
 13  9  1  0
 13 10  1  0
 14  8  1  0
 14 12  1  0
 15  5  1  0
 15 14  1  0
M  END
$$$$

     RDKit          3D

 14 15  0  0  0  0  0  0  0  0999 V2000
  -20.5745   -7.3343  142.1869 O   0  0  0  0  0  0  0  0  0  0  0  0
  -19.5569   -6.3066  144.0948 C   0  0  0  0  0  0  0  0  0  0  0  0
  -20.2600   -7.1730  144.9215 O   0  0  0  0  0  0  0  0  0  0  0  0
  -19.2227   -8.0501  144.8115 N   0  0  0  0  0  0  0  0  0  0  0  0
  -22.3396   -4.7921  141.7515 C   0  0  0  0  0  0  0  0  0  0  0  0
  -21.5210   -5.1919  142.9842 C   0  0  0  0  0  0  0  0  0  0  0  0
  -22.9656   -5.6926  142.8149 C   0  0  0  0  0  0  0  0  0  0  0  0
  -18.5103   -7.2150  144.0036 O   0  0  0  0  0  0  0  0  0  0  0  0
  -23.5029   -7.8825  143.4776 N   0  0  0  0  0  0  0  0  0  0  0  0
  -22.9703   -5.2318  139.7258 O   0  0  0  0  0  0  0  0  0  0  0  0
  -23.1528   -7.0790  142.3731 N   0  0  0  0  0  0  0  0  0  0  0  0
  -19.3603   -5.3931  141.8852 O   0  0  0  0  0  0  0  0  0  0  0  0
  -21.9759   -5.4471  140.5648 O   0  0  0  0  0  0  0  0  0  0  0  0
  -20.2551   -6.0760  142.7379 C   0  0  0  0  0  0  0  0  0  0  0  0
  3  2  1  0
  4  3  1  0
  6  5  1  0
  7  5  1  0
  7  6  1  0
  8  2  1  0
  8  4  1  0
 11  7  1  0
 11  9  1  0
 13  5  1  0
 13 10  1  0
 14  1  1  0
 14  2  1  0
 14  6  1  0
 14 12  1  0
M  END
$$$$

     RDKit          3D

  9  8  0  0  0  0  0  0  0  0999 V2000
  -20.6001  -12.1866  154.1842 Al  0  0  0  0  0  3  0  0  0  0  0  0
  -20.1940  -14.3167  152.8840 O   0  0  0  0  0  0  0  0  0  0  0  0
  -19.8822  -15.6135  152.4787 C   0  0  0  0  0  0  0  0  0  0  0  0
  -19.9998  -15.9245  151.2644 O   0  0  0  0  0  0  0  0  0  0  0  0
  -19.4120  -16.6347  153.4652 C   0  0  0  0  0  0  0  0  0  0  0  0
  -20.0817  -13.9461  154.1666 O   0  0  0  0  0  0  0  0  0  0  0  0
  -22.3663  -11.7519  154.4546 O   0  0  0  0  0  0  0  0  0  0  0  0
  -22.4910  -11.6291  155.7600 O   0  0  0  0  0  0  0  0  0  0  0  0
  -19.3562  -10.8613  153.9382 O   0  0  0  0  0  0  0  0  0  0  0  0
  3  2  1  0
  4  3  2  0
  5  3  1  0
  6  1  1  0
  6  2  1  0
  7  1  1  0
  8  7  1  0
  9  1  1  0
M  END
$$$$

     RDKit          3D

 15 15  0  0  0  0  0  0  0  0999 V2000
  -19.2314  -14.1859  151.3372 O   0  0  0  0  0  0  0  0  0  0  0  0
  -19.7659  -13.8545  152.6014 C   0  0  0  0  0  0  0  0  0  0  0  0
  -21.7917  -13.0353  153.8929 C   0  0  0  0  0  0  0  0  0  0  0  0
  -21.6152  -12.3578  151.4535 C   0  0  0  0  0  0  0  0  0  0  0  0
  -21.2775  -13.4579  152.5170 C   0  0  0  0  0  0  0  0  0  0  0  0
  -18.6929  -13.0457  151.9658 C   0  0  0  0  0  0  0  0  0  0  0  0
  -22.0409  -14.7451  152.1264 C   0  0  0  0  0  0  0  0  0  0  0  0
  -21.1595   -9.8961  150.7694 C   0  0  0  0  0  0  0  0  0  0  0  0
  -21.3574  -10.9047  151.9164 C   0  0  0  0  0  0  0  0  0  0  0  0
  -22.2626   -9.8686  149.6789 C   0  0  0  0  0  0  0  0  0  0  0  0
  -23.3306   -6.4890  151.0389 C   0  0  0  0  0  0  0  0  0  0  0  0
  -23.4202   -8.8682  149.9214 C   0  0  0  0  0  0  0  0  0  0  0  0
  -21.0408  -12.4193  154.8183 C   0  0  0  0  0  0  0  0  0  0  0  0
  -22.9380   -7.3818  149.8571 C   0  0  0  0  0  0  0  0  0  0  0  0
  -24.2551   -9.2463  151.1572 C   0  0  0  0  0  0  0  0  0  0  0  0
  2  1  1  0
  5  2  1  0
  5  3  1  0
  5  4  1  0
  6  1  1  0
  6  2  1  0
  7  5  1  0
  9  4  1  0
  9  8  1  0
 10  8  1  0
 12 10  1  0
 13  3  2  0
 14 11  1  0
 14 12  1  0
 15 12  1  0
M  END
$$$$

     RDKit          3D

 10 12  0  0  0  0  0  0  0  0999 V2000
  -18.7279   -8.0408  140.8194 C   0  0  0  0  0  0  0  0  0  0  0  0
  -19.4022   -9.0201  141.7661 C   0  0  0  0  0  0  0  0  0  0  0  0
  -19.0202  -10.4867  141.5481 C   0  0  0  0  0  0  0  0  0  0  0  0
  -17.8779  -10.8798  142.4932 C   0  0  0  0  0  0  0  0  0  0  0  0
  -19.7480   -6.9419  140.4546 C   0  0  0  0  0  0  0  0  0  0  0  0
  -18.5517   -6.6430  141.3447 C   0  0  0  0  0  0  0  0  0  0  0  0
  -17.1553  -12.9684  141.1347 C   0  0  0  0  0  0  0  0  0  0  0  0
  -15.8597  -12.3542  140.6066 C   0  0  0  0  0  0  0  0  0  0  0  0
  -17.5897  -12.3915  142.4929 C   0  0  0  0  0  0  0  0  0  0  0  0
  -20.1776   -8.3895  140.6167 C   0  0  0  0  0  0  0  0  0  0  0  0
  2  1  1  0
  3  2  1  0
  4  3  1  0
  5  1  1  0
  6  1  1  0
  6  5  1  0
  8  7  1  0
  9  4  1  0
  9  7  1  0
 10  1  1  0
 10  2  1  0
 10  5  1  0
M  END
$$$$

     RDKit          3D

 15 19  0  0  0  0  0  0  0  0999 V2000
  -21.8105   -1.7200  147.2355 O   0  0  0  0  0  0  0  0  0  0  0  0
  -20.7629   -1.2355  146.4396 C   0  0  0  0  0  0  0  0  0  0  0  0
  -22.9394   -0.2419  145.7643 C   0  0  0  0  0  0  0  0  0  0  0  0
  -22.8940    0.8211  146.9082 C   0  0  0  0  0  0  0  0  0  0  0  0
  -24.9715    1.6574  146.3490 C   0  0  0  0  0  0  0  0  0  0  0  0
  -22.7437   -1.6312  146.2318 N   0  0  0  0  0  0  0  0  0  0  0  0
  -23.5217    2.2023  146.4111 C   0  0  0  0  0  0  0  0  0  0  0  0
  -21.5730    3.3357  143.9773 O   0  0  0  0  0  0  0  0  0  0  0  0
  -21.7464   -0.9962  145.3547 C   0  0  0  0  0  0  0  0  0  0  0  0
  -22.4224    2.2234  143.8882 C   0  0  0  0  0  0  0  0  0  0  0  0
  -22.0566    2.0169  146.9081 C   0  0  0  0  0  0  0  0  0  0  0  0
  -24.7309    1.3290  144.8567 C   0  0  0  0  0  0  0  0  0  0  0  0
  -23.6145    2.3822  144.8668 C   0  0  0  0  0  0  0  0  0  0  0  0
  -25.1625   -1.1088  144.9213 N   0  0  0  0  0  0  0  0  0  0  0  0
  -24.1162   -0.0989  144.7314 C   0  0  0  0  0  0  0  0  0  0  0  0
  2  1  1  0
  4  3  1  0
  6  1  1  0
  6  3  1  0
  7  4  1  0
  7  5  1  0
  9  2  1  0
  9  3  1  0
  9  6  1  0
 10  8  1  0
 11  4  1  0
 11  7  1  0
 12  5  1  0
 13  7  1  0
 13 10  1  0
 13 12  1  0
 15  3  1  0
 15 12  1  0
 15 14  1  0
M  END
$$$$

     RDKit          3D

 15 15  0  0  0  0  0  0  0  0999 V2000
  -28.3547  -23.4763  135.3096 I   0  0  0  0  0  0  0  0  0  0  0  0
  -27.1475  -25.2370  135.5479 C   0  0  0  0  0  0  0  0  0  0  0  0
  -27.8576  -26.4984  135.1569 N   0  0  0  0  0  0  0  0  0  0  0  0
  -26.0778  -25.2566  136.6644 C   0  0  0  0  0  0  0  0  0  0  0  0
  -26.7330  -25.2471  138.0278 C   0  0  0  0  0  0  0  0  0  0  0  0
  -27.4082  -27.7621  135.7798 C   0  0  0  0  0  0  0  0  0  0  0  0
  -28.6103  -28.6732  136.0560 C   0  0  0  0  0  0  0  0  0  0  0  0
  -26.7923  -25.9095  134.2958 C   0  0  0  0  0  0  0  0  0  0  0  0
  -29.4537  -28.2278  137.2572 C   0  0  0  0  0  0  0  0  0  0  0  0
  -30.4683  -27.1575  136.8940 C   0  0  0  0  0  0  0  0  0  0  0  0
  -26.1854  -25.7339  139.1604 C   0  0  0  0  0  0  0  0  0  0  0  0
  -25.0947  -27.9912  139.3938 C   0  0  0  0  0  0  0  0  0  0  0  0
  -25.6501  -28.3178  140.7447 C   0  0  0  0  0  0  0  0  0  0  0  0
  -24.8702  -26.4764  139.2484 C   0  0  0  0  0  0  0  0  0  0  0  0
  -26.7120  -28.9087  140.8448 O   0  0  0  0  0  0  0  0  0  0  0  0
  2  1  1  0
  3  2  1  0
  4  2  1  0
  5  4  1  0
  6  3  1  0
  7  6  1  0
  8  2  1  0
  8  3  1  0
  9  7  1  0
 10  9  1  0
 11  5  2  3
 13 12  1  0
 14 11  1  0
 14 12  1  0
 15 13  2  0
M  END
$$$$

     RDKit          3D

 14 17  0  0  0  0  0  0  0  0999 V2000
  -23.5693  -10.2338  142.0875 N   0  0  0  0  0  0  0  0  0  0  0  0
  -23.1004   -8.9383  142.5840 C   0  0  0  0  0  0  0  0  0  0  0  0
  -22.3131   -9.0551  143.8818 C   0  0  0  0  0  0  0  0  0  0  0  0
  -23.7288   -8.5049  143.8985 C   0  0  0  0  0  0  0  0  0  0  0  0
  -24.2710   -9.9970  140.8111 C   0  0  0  0  0  0  0  0  0  0  0  0
  -25.7358  -10.2493  140.8065 N   0  0  0  0  0  0  0  0  0  0  0  0
  -26.3528  -10.7224  142.0641 C   0  0  0  0  0  0  0  0  0  0  0  0
  -23.5985  -10.6338  139.6734 N   0  0  0  0  0  0  0  0  0  0  0  0
  -24.7854  -11.2482  140.2786 C   0  0  0  0  0  0  0  0  0  0  0  0
  -29.1045   -9.2060  143.9963 O   0  0  0  0  0  0  0  0  0  0  0  0
  -27.6618   -9.9521  142.2975 C   0  0  0  0  0  0  0  0  0  0  0  0
  -27.4728   -8.4816  142.5188 C   0  0  0  0  0  0  0  0  0  0  0  0
  -28.5231   -8.0851  143.4549 N   0  0  0  0  0  0  0  0  0  0  0  0
  -28.3532  -10.3230  143.5842 C   0  0  0  0  0  0  0  0  0  0  0  0
  2  1  1  0
  3  2  1  0
  4  2  1  0
  4  3  1  0
  5  1  1  0
  6  5  1  0
  7  6  1  0
  8  5  1  0
  9  5  1  0
  9  6  1  0
  9  8  1  0
 11  7  1  0
 12 11  1  0
 13 10  1  0
 13 12  1  0
 14 10  1  0
 14 11  1  0
M  END
$$$$

     RDKit          3D

 15 15  0  0  0  0  0  0  0  0999 V2000
  -20.2304  -13.8587  152.3581 O   0  0  0  0  0  0  0  0  0  0  0  0
  -20.6932  -12.8836  151.4571 C   0  0  0  0  0  0  0  0  0  0  0  0
  -20.0149  -12.4675  149.0136 C   0  0  0  0  0  0  0  0  0  0  0  0
  -22.1054  -12.4243  151.9409 C   0  0  0  0  0  0  0  0  0  0  0  0
  -22.2225  -11.4090  148.6330 C   0  0  0  0  0  0  0  0  0  0  0  0
  -21.8682  -11.8553  153.2126 O   0  0  0  0  0  0  0  0  0  0  0  0
  -20.6495  -13.4497  150.0230 C   0  0  0  0  0  0  0  0  0  0  0  0
  -23.1158  -11.6700  149.5995 C   0  0  0  0  0  0  0  0  0  0  0  0
  -20.7771  -11.1392  148.9104 C   0  0  0  0  0  0  0  0  0  0  0  0
  -22.8768  -11.3483  151.0812 C   0  0  0  0  0  0  0  0  0  0  0  0
  -24.1999  -10.8758  151.7542 C   0  0  0  0  0  0  0  0  0  0  0  0
  -25.1586  -11.9491  152.3013 C   0  0  0  0  0  0  0  0  0  0  0  0
  -25.7313  -12.8377  151.2503 C   0  0  0  0  0  0  0  0  0  0  0  0
  -25.2486  -13.9815  151.0632 O   0  0  0  0  0  0  0  0  0  0  0  0
  -26.8372  -12.4345  150.5066 O   0  0  0  0  0  0  0  0  0  0  0  0
  2  1  1  0
  4  2  1  0
  6  4  1  0
  7  2  1  0
  7  3  1  0
  8  5  2  3
  9  3  1  0
  9  5  1  0
 10  4  1  0
 10  8  1  0
 11 10  1  0
 12 11  1  0
 13 12  1  0
 14 13  2  0
 15 13  1  0
M  END
$$$$

     RDKit          3D

 14 16  0  0  0  0  0  0  0  0999 V2000
  -20.2356  -13.4944  149.1312 O   0  0  0  0  0  0  0  0  0  0  0  0
  -20.9244  -11.0210  145.9242 C   0  0  0  0  0  0  0  0  0  0  0  0
  -22.0187  -11.8594  145.5656 O   0  0  0  0  0  0  0  0  0  0  0  0
  -20.5872   -9.9109  144.8873 C   0  0  0  0  0  0  0  0  0  0  0  0
  -21.5246   -8.7024  144.8563 C   0  0  0  0  0  0  0  0  0  0  0  0
  -20.6450  -12.8343  148.0641 O   0  0  0  0  0  0  0  0  0  0  0  0
  -20.8761  -11.5206  148.5015 C   0  0  0  0  0  0  0  0  0  0  0  0
  -22.0669   -9.1670  143.5075 C   0  0  0  0  0  0  0  0  0  0  0  0
  -23.5442   -9.6342  143.5783 C   0  0  0  0  0  0  0  0  0  0  0  0
  -19.7238  -10.5735  148.1992 C   0  0  0  0  0  0  0  0  0  0  0  0
  -20.9964  -10.2604  143.4521 C   0  0  0  0  0  0  0  0  0  0  0  0
  -21.0118  -10.4918  147.3823 C   0  0  0  0  0  0  0  0  0  0  0  0
  -23.2942  -11.2432  145.6200 C   0  0  0  0  0  0  0  0  0  0  0  0
  -23.8506  -11.0143  144.2040 C   0  0  0  0  0  0  0  0  0  0  0  0
  3  2  1  0
  4  2  1  0
  5  4  1  0
  6  1  1  0
  7  6  1  0
  8  5  1  0
  9  8  1  0
 10  7  1  0
 11  4  1  0
 11  8  1  0
 12  2  1  0
 12  7  1  0
 12 10  1  0
 13  3  1  0
 14  9  1  0
 14 13  1  0
M  END
$$$$

     RDKit          3D

 15 18  0  0  0  0  0  0  0  0999 V2000
  -30.8289  -12.0393  146.7926 N   0  0  0  0  0  0  0  0  0  0  0  0
  -29.8417  -12.8140  146.0037 C   0  0  0  0  0  0  0  0  0  0  0  0
  -28.8576  -12.0020  145.2252 N   0  0  0  0  0  0  0  0  0  0  0  0
  -29.2401  -13.9865  146.7810 C   0  0  0  0  0  0  0  0  0  0  0  0
  -27.5635  -11.6947  145.8892 C   0  0  0  0  0  0  0  0  0  0  0  0
  -27.7149  -14.1812  146.4997 C   0  0  0  0  0  0  0  0  0  0  0  0
  -27.4525  -14.6866  145.0352 C   0  0  0  0  0  0  0  0  0  0  0  0
  -28.3754  -14.1482  143.9207 C   0  0  0  0  0  0  0  0  0  0  0  0
  -26.9650  -12.8534  146.7054 C   0  0  0  0  0  0  0  0  0  0  0  0
  -30.8734  -12.7827  148.0913 C   0  0  0  0  0  0  0  0  0  0  0  0
  -30.6883  -11.3418  148.1030 C   0  0  0  0  0  0  0  0  0  0  0  0
  -27.1284  -15.2343  147.4705 C   0  0  0  0  0  0  0  0  0  0  0  0
  -29.6753  -13.7290  148.2105 C   0  0  0  0  0  0  0  0  0  0  0  0
  -28.6061  -12.6157  143.8931 C   0  0  0  0  0  0  0  0  0  0  0  0
  -29.3787  -10.6281  148.4043 C   0  0  0  0  0  0  0  0  0  0  0  0
  2  1  1  0
  3  2  1  0
  4  2  1  0
  5  3  1  0
  6  4  1  0
  7  6  1  0
  8  7  1  0
  9  5  1  0
  9  6  1  0
 10  1  1  0
 11  1  1  0
 11 10  1  0
 12  6  1  0
 13  4  1  0
 13 10  1  0
 14  3  1  0
 14  8  1  0
 15 11  1  0
M  END
$$$$

     RDKit          3D

 15 16  0  0  0  0  0  0  0  0999 V2000
  -31.1966  -17.5737  148.3671 O   0  0  0  0  0  0  0  0  0  0  0  0
  -31.0535  -17.1754  149.7029 C   0  0  0  0  0  0  0  0  0  0  0  0
  -30.5376  -18.1261  150.6342 O   0  0  0  0  0  0  0  0  0  0  0  0
  -30.6054  -15.7248  149.8815 C   0  0  0  0  0  0  0  0  0  0  0  0
  -29.7408  -15.3336  151.1023 C   0  0  0  0  0  0  0  0  0  0  0  0
  -28.5664  -16.2499  151.3044 C   0  0  0  0  0  0  0  0  0  0  0  0
  -32.0412  -16.1499  150.2253 C   0  0  0  0  0  0  0  0  0  0  0  0
  -27.6998  -16.5278  150.3188 C   0  0  0  0  0  0  0  0  0  0  0  0
  -26.6807  -17.6396  150.4670 C   0  0  0  0  0  0  0  0  0  0  0  0
  -27.3877  -19.0089  150.6373 C   0  0  0  0  0  0  0  0  0  0  0  0
  -28.2657  -19.4103  149.4300 C   0  0  0  0  0  0  0  0  0  0  0  0
  -29.5159  -20.1331  149.8546 C   0  0  0  0  0  0  0  0  0  0  0  0
  -30.5677  -19.4990  150.3841 C   0  0  0  0  0  0  0  0  0  0  0  0
  -25.6955  -17.6643  149.2828 C   0  0  0  0  0  0  0  0  0  0  0  0
  -24.5818  -16.1650  149.2898 P   0  0  0  0  0  0  0  0  0  0  0  0
  2  1  1  0
  3  2  1  0
  4  2  1  0
  5  4  1  0
  6  5  1  0
  7  2  1  0
  7  4  1  0
  8  6  2  3
  9  8  1  0
 10  9  1  0
 11 10  1  0
 12 11  1  0
 13  3  1  0
 13 12  2  3
 14  9  1  0
 15 14  1  0
M  END
$$$$

     RDKit          3D

 15 17  0  0  0  0  0  0  0  0999 V2000
  -31.3599   -4.3274  135.3075 O   0  0  0  0  0  0  0  0  0  0  0  0
  -31.2754   -5.5917  134.7200 C   0  0  0  0  0  0  0  0  0  0  0  0
  -32.3196   -6.2103  134.3770 O   0  0  0  0  0  0  0  0  0  0  0  0
  -32.6018   -3.6886  135.5734 C   0  0  0  0  0  0  0  0  0  0  0  0
  -29.9315   -6.2024  134.4582 C   0  0  0  0  0  0  0  0  0  0  0  0
  -29.0008   -6.1027  135.6733 C   0  0  0  0  0  0  0  0  0  0  0  0
  -29.5990   -6.7945  136.9227 C   0  0  0  0  0  0  0  0  0  0  0  0
  -29.5439   -8.3015  136.8120 C   0  0  0  0  0  0  0  0  0  0  0  0
  -30.6904   -9.0251  137.5426 C   0  0  0  0  0  0  0  0  0  0  0  0
  -31.8458   -9.3630  136.5971 C   0  0  0  0  0  0  0  0  0  0  0  0
  -28.5200   -7.6122  137.7045 C   0  0  0  0  0  0  0  0  0  0  0  0
  -28.9840   -6.2545  138.1895 C   0  0  0  0  0  0  0  0  0  0  0  0
  -31.4426  -10.4443  135.5819 C   0  0  0  0  0  0  0  0  0  0  0  0
  -32.5664  -10.8562  134.6414 C   0  0  0  0  0  0  0  0  0  0  0  0
  -31.4083  -10.0253  134.1194 C   0  0  0  0  0  0  0  0  0  0  0  0
  2  1  1  0
  3  2  2  0
  4  1  1  0
  5  2  1  0
  6  5  1  0
  7  6  1  0
  8  7  1  0
  9  8  1  0
 10  9  1  0
 11  7  1  0
 11  8  1  0
 12  7  1  0
 12 11  1  0
 13 10  1  0
 14 13  1  0
 15 13  1  0
 15 14  1  0
M  END
$$$$

     RDKit          3D

 15 16  0  0  0  0  0  0  0  0999 V2000
  -19.9767    1.4907  136.8597 O   0  0  0  0  0  0  0  0  0  0  0  0
  -18.7174    0.9826  137.2396 C   0  0  0  0  0  0  0  0  0  0  0  0
  -18.8094    0.2613  138.4326 O   0  0  0  0  0  0  0  0  0  0  0  0
  -19.4838    0.3979  136.1176 C   0  0  0  0  0  0  0  0  0  0  0  0
  -19.0357    0.8123  134.7111 C   0  0  0  0  0  0  0  0  0  0  0  0
  -20.2173    0.8889  133.7344 C   0  0  0  0  0  0  0  0  0  0  0  0
  -20.7687   -0.4975  133.3699 C   0  0  0  0  0  0  0  0  0  0  0  0
  -21.8915   -0.3854  132.3318 C   0  0  0  0  0  0  0  0  0  0  0  0
  -22.4478   -1.7667  131.9703 C   0  0  0  0  0  0  0  0  0  0  0  0
  -23.5487   -1.6434  130.9511 C   0  0  0  0  0  0  0  0  0  0  0  0
  -24.8794   -1.4610  131.3635 C   0  0  0  0  0  0  0  0  0  0  0  0
  -25.8966   -1.3138  130.4152 C   0  0  0  0  0  0  0  0  0  0  0  0
  -25.5918   -1.3378  129.0514 C   0  0  0  0  0  0  0  0  0  0  0  0
  -24.2686   -1.5048  128.6335 C   0  0  0  0  0  0  0  0  0  0  0  0
  -23.2483   -1.6524  129.5785 C   0  0  0  0  0  0  0  0  0  0  0  0
  2  1  1  0
  3  2  1  0
  4  1  1  0
  4  2  1  0
  5  4  1  0
  6  5  1  0
  7  6  1  0
  8  7  1  0
  9  8  1  0
 10  9  1  0
 11 10  4  0
 12 11  4  0
 13 12  4  0
 14 13  4  0
 15 10  4  0
 15 14  4  0
M  END
$$$$

     RDKit          3D

 15 16  0  0  0  0  0  0  0  0999 V2000
  -18.2870   -5.0917  140.9617 C   0  0  0  0  0  0  0  0  0  0  0  0
  -16.8134   -5.5429  141.0538 C   0  0  0  0  0  0  0  0  0  0  0  0
  -18.4369   -3.8178  141.5365 O   0  0  0  0  0  0  0  0  0  0  0  0
  -15.8362   -4.5754  140.3700 C   0  0  0  0  0  0  0  0  0  0  0  0
  -14.3919   -5.0511  140.5743 C   0  0  0  0  0  0  0  0  0  0  0  0
  -18.7943   -5.0651  139.4972 C   0  0  0  0  0  0  0  0  0  0  0  0
  -13.8591   -6.0074  139.5179 C   0  0  0  0  0  0  0  0  0  0  0  0
  -13.3975   -4.5578  139.5344 C   0  0  0  0  0  0  0  0  0  0  0  0
  -20.3386   -5.1619  139.3094 C   0  0  0  0  0  0  0  0  0  0  0  0
  -20.8908   -6.6120  139.1288 C   0  0  0  0  0  0  0  0  0  0  0  0
  -20.4987   -7.5791  140.2552 C   0  0  0  0  0  0  0  0  0  0  0  0
  -20.5104   -7.2102  137.7638 C   0  0  0  0  0  0  0  0  0  0  0  0
  -21.1140   -4.4147  140.4164 C   0  0  0  0  0  0  0  0  0  0  0  0
  -22.3103   -3.8472  139.9349 O   0  0  0  0  0  0  0  0  0  0  0  0
  -21.2690   -2.9508  140.2510 C   0  0  0  0  0  0  0  0  0  0  0  0
  2  1  1  0
  3  1  1  0
  4  2  1  0
  5  4  1  0
  6  1  1  0
  7  5  1  0
  8  5  1  0
  8  7  1  0
  9  6  1  0
 10  9  1  0
 11 10  1  0
 12 10  1  0
 13  9  1  0
 14 13  1  0
 15 13  1  0
 15 14  1  0
M  END
$$$$

     RDKit          3D

 11 12  0  0  0  0  0  0  0  0999 V2000
  -20.6702    2.9751  136.4648 C   0  0  0  0  0  0  0  0  0  0  0  0
  -19.3730    2.7973  135.9748 C   0  0  0  0  0  0  0  0  0  0  0  0
  -19.1380    1.9631  134.8623 C   0  0  0  0  0  0  0  0  0  0  0  0
  -17.7432    1.7502  134.2998 C   0  0  0  0  0  0  0  0  0  0  0  0
  -21.7453    2.3270  135.8530 C   0  0  0  0  0  0  0  0  0  0  0  0
  -21.5254    1.5000  134.7492 C   0  0  0  0  0  0  0  0  0  0  0  0
  -20.2300    1.3187  134.2550 C   0  0  0  0  0  0  0  0  0  0  0  0
  -16.9774    3.0476  134.0063 C   0  0  0  0  0  0  0  0  0  0  0  0
  -15.9303    2.6598  135.0518 C   0  0  0  0  0  0  0  0  0  0  0  0
  -16.4182    3.1165  132.5821 C   0  0  0  0  0  0  0  0  0  0  0  0
  -16.6909    1.3701  135.3441 C   0  0  0  0  0  0  0  0  0  0  0  0
  2  1  4  0
  3  2  4  0
  4  3  1  0
  5  1  4  0
  6  5  4  0
  7  3  4  0
  7  6  4  0
  8  4  1  0
  9  8  1  0
 10  8  1  0
 11  4  1  0
 11  9  1  0
M  END
$$$$

     RDKit          3D

 15 15  0  0  0  0  0  0  0  0999 V2000
  -22.1775  -12.4871  140.3335 C   0  0  0  0  0  0  0  0  0  0  0  0
  -24.4169  -13.9140  140.8399 C   0  0  0  0  0  0  0  0  0  0  0  0
  -23.6785  -16.3630  139.5211 C   0  0  0  0  0  0  0  0  0  0  0  0
  -22.2647  -16.6805  140.0834 C   0  0  0  0  0  0  0  0  0  0  0  0
  -21.8244  -11.7492  141.6211 C   0  0  0  0  0  0  0  0  0  0  0  0
  -24.0851  -12.4944  140.1850 C   0  0  0  0  0  0  0  0  0  0  0  0
  -19.4113  -12.3564  140.8473 C   0  0  0  0  0  0  0  0  0  0  0  0
  -25.1199  -11.0674  140.3145 C   0  0  0  0  0  0  0  0  0  0  0  0
  -25.8641  -10.0311  139.2901 N   0  0  0  0  0  0  0  0  0  0  0  0
  -24.6768  -17.5927  139.4826 C   0  0  0  0  0  0  0  0  0  0  0  0
  -24.0413  -14.9660  139.7213 C   0  0  0  0  0  0  0  0  0  0  0  0
  -17.9443  -12.4394  141.4369 C   0  0  0  0  0  0  0  0  0  0  0  0
  -20.5868  -13.4638  140.6020 C   0  0  0  0  0  0  0  0  0  0  0  0
  -20.4014  -11.8396  141.9062 C   0  0  0  0  0  0  0  0  0  0  0  0
  -23.9259  -18.9360  138.7877 C   0  0  0  0  0  0  0  0  0  0  0  0
  4  3  1  0
  5  1  1  0
  6  1  1  0
  6  2  1  0
  8  6  1  0
  9  8  1  0
 10  3  1  0
 11  2  1  0
 11  3  1  0
 12  7  1  0
 13  1  1  0
 13  7  1  0
 14  5  1  0
 14  7  1  0
 15 10  1  0
M  END
$$$$

     RDKit          3D

 15 18  0  0  0  0  0  0  0  0999 V2000
  -22.7975  -18.7003  146.7457 N   0  0  0  0  0  0  0  0  0  0  0  0
  -22.6256  -19.4624  147.9997 C   0  0  0  0  0  0  0  0  0  0  0  0
  -24.2136  -18.5215  146.3700 C   0  0  0  0  0  0  0  0  0  0  0  0
  -21.1920  -19.5361  148.3047 N   0  0  0  0  0  0  0  0  0  0  0  0
  -25.1246  -18.0989  147.5218 C   0  0  0  0  0  0  0  0  0  0  0  0
  -24.4936  -18.0951  148.8875 C   0  0  0  0  0  0  0  0  0  0  0  0
  -23.3471  -18.7429  149.1215 C   0  0  0  0  0  0  0  0  0  0  0  0
  -23.1740  -20.8990  147.8578 C   0  0  0  0  0  0  0  0  0  0  0  0
  -24.6207  -17.0391  146.5603 C   0  0  0  0  0  0  0  0  0  0  0  0
  -24.3525  -17.5959  145.1760 C   0  0  0  0  0  0  0  0  0  0  0  0
  -25.6025  -17.8499  144.3315 C   0  0  0  0  0  0  0  0  0  0  0  0
  -25.3484  -19.0268  143.3845 C   0  0  0  0  0  0  0  0  0  0  0  0
  -25.7107  -20.3907  143.9522 C   0  0  0  0  0  0  0  0  0  0  0  0
  -24.9250  -21.4296  143.4459 O   0  0  0  0  0  0  0  0  0  0  0  0
  -26.5957  -19.7520  142.8925 C   0  0  0  0  0  0  0  0  0  0  0  0
  2  1  1  0
  3  1  1  0
  4  2  1  0
  5  3  1  0
  6  5  1  0
  7  2  1  0
  7  6  2  0
  8  2  1  0
  9  3  1  0
  9  5  1  0
 10  3  1  0
 10  9  1  0
 11 10  1  0
 12 11  1  0
 13 12  1  0
 14 13  1  0
 15 12  1  0
 15 13  1  0
M  END
$$$$

     RDKit          3D

 15 18  0  0  0  0  0  0  0  0999 V2000
  -30.6341   -7.9759  143.1490 O   0  0  0  0  0  0  0  0  0  0  0  0
  -30.5144   -6.2773  144.8876 C   0  0  0  0  0  0  0  0  0  0  0  0
  -29.7075   -5.7682  145.9201 O   0  0  0  0  0  0  0  0  0  0  0  0
  -29.9576   -8.8093  145.3223 C   0  0  0  0  0  0  0  0  0  0  0  0
  -31.4743   -9.4343  145.5827 C   0  0  0  0  0  0  0  0  0  0  0  0
  -30.8867  -11.9951  145.9440 C   0  0  0  0  0  0  0  0  0  0  0  0
  -30.0097  -12.3199  144.7367 C   0  0  0  0  0  0  0  0  0  0  0  0
  -31.0884  -12.8825  143.8015 C   0  0  0  0  0  0  0  0  0  0  0  0
  -32.5628   -8.7015  146.2956 C   0  0  0  0  0  0  0  0  0  0  0  0
  -31.6715  -10.9898  145.0616 C   0  0  0  0  0  0  0  0  0  0  0  0
  -31.2269  -12.0254  142.5737 C   0  0  0  0  0  0  0  0  0  0  0  0
  -29.8547  -13.6826  144.0882 C   0  0  0  0  0  0  0  0  0  0  0  0
  -30.7832  -11.3812  143.8810 C   0  0  0  0  0  0  0  0  0  0  0  0
  -29.2861   -8.5163  146.6655 C   0  0  0  0  0  0  0  0  0  0  0  0
  -29.9636   -7.6132  144.3317 C   0  0  0  0  0  0  0  0  0  0  0  0
  3  2  1  0
  5  4  1  0
  7  6  1  0
  8  7  1  0
  9  5  2  0
 10  5  1  0
 10  6  1  0
 11  8  1  0
 12  7  1  0
 12  8  1  0
 13  7  1  0
 13  8  1  0
 13 10  1  0
 13 11  1  0
 14  4  1  0
 15  1  1  0
 15  2  1  0
 15  4  1  0
M  END
$$$$

     RDKit          3D

 15 17  0  0  0  0  0  0  0  0999 V2000
  -22.6320   -2.5576  136.1687 O   0  0  0  0  0  0  0  0  0  0  0  0
  -22.4772   -3.6329  137.0143 C   0  0  0  0  0  0  0  0  0  0  0  0
  -21.3535   -4.3724  136.6380 O   0  0  0  0  0  0  0  0  0  0  0  0
  -23.6285   -3.5647  136.0059 C   0  0  0  0  0  0  0  0  0  0  0  0
  -24.8676   -2.6463  135.8354 C   0  0  0  0  0  0  0  0  0  0  0  0
  -25.9990   -1.6737  133.7915 C   0  0  0  0  0  0  0  0  0  0  0  0
  -24.8923   -3.6587  136.9127 C   0  0  0  0  0  0  0  0  0  0  0  0
  -22.4657   -3.1470  138.4035 N   0  0  0  0  0  0  0  0  0  0  0  0
  -24.7776   -1.2424  133.3028 F   0  0  0  0  0  0  0  0  0  0  0  0
  -26.5680   -0.6634  134.5474 F   0  0  0  0  0  0  0  0  0  0  0  0
  -25.3760   -4.1132  133.7521 C   0  0  0  0  0  0  0  0  0  0  0  0
  -22.7951   -4.2415  139.3154 C   0  0  0  0  0  0  0  0  0  0  0  0
  -25.8230   -2.9398  134.6448 C   0  0  0  0  0  0  0  0  0  0  0  0
  -21.5740   -4.9091  139.9230 C   0  0  0  0  0  0  0  0  0  0  0  0
  -22.4094   -3.9495  140.7548 C   0  0  0  0  0  0  0  0  0  0  0  0
  2  1  1  0
  3  2  1  0
  4  1  1  0
  4  2  1  0
  5  4  1  0
  7  4  1  0
  7  5  1  0
  8  2  1  0
  9  6  1  0
 10  6  1  0
 12  8  1  0
 13  5  1  0
 13  6  1  0
 13 11  1  0
 14 12  1  0
 15 12  1  0
 15 14  1  0
M  END
$$$$

     RDKit          3D

  8  8  0  0  0  0  0  0  0  0999 V2000
  -21.0582   -9.9689  143.3695 C   0  0  0  0  0  0  0  0  0  0  0  0
  -21.8408  -11.1636  143.6891 N   0  0  0  0  0  0  0  0  0  0  0  0
  -22.6974  -10.8213  144.6834 F   0  0  0  0  0  0  0  0  0  0  0  0
  -22.6011  -11.5170  142.5534 N   0  0  0  0  0  0  0  0  0  0  0  0
  -21.8859   -8.9362  142.9586 F   0  0  0  0  0  0  0  0  0  0  0  0
  -21.8929  -12.5941  141.8655 C   0  0  0  0  0  0  0  0  0  0  0  0
  -22.4906  -12.9234  140.5079 C   0  0  0  0  0  0  0  0  0  0  0  0
  -21.1866  -12.1481  140.5973 C   0  0  0  0  0  0  0  0  0  0  0  0
  2  1  1  0
  3  2  1  0
  4  2  1  0
  5  1  1  0
  6  4  1  0
  7  6  1  0
  8  6  1  0
  8  7  1  0
M  END
$$$$

     RDKit          3D

 15 16  0  0  0  0  0  0  0  0999 V2000
  -30.5449  -16.5534  148.3077 C   0  0  0  0  0  0  0  0  0  0  0  0
  -30.7179  -16.7414  146.7504 C   0  0  0  0  0  0  0  0  0  0  0  0
  -30.4070  -17.8553  149.2729 C   0  0  0  0  0  0  0  0  0  0  0  0
  -29.9929  -15.4445  146.1969 C   0  0  0  0  0  0  0  0  0  0  0  0
  -27.8546  -17.6032  150.2461 C   0  0  0  0  0  0  0  0  0  0  0  0
  -28.6050  -18.9656  148.1685 C   0  0  0  0  0  0  0  0  0  0  0  0
  -28.6336  -16.0454  146.1675 C   0  0  0  0  0  0  0  0  0  0  0  0
  -28.4336  -16.6699  144.7903 C   0  0  0  0  0  0  0  0  0  0  0  0
  -28.1801  -21.4261  147.0943 C   0  0  0  0  0  0  0  0  0  0  0  0
  -29.7293  -17.6545  149.2183 C   0  0  0  0  0  0  0  0  0  0  0  0
  -27.4932  -20.2688  147.8781 C   0  0  0  0  0  0  0  0  0  0  0  0
  -27.1882  -18.4933  150.7865 O   0  0  0  0  0  0  0  0  0  0  0  0
  -28.9549  -15.2541  144.9893 C   0  0  0  0  0  0  0  0  0  0  0  0
  -32.1266  -17.9557  150.4978 P   0  0  0  0  0  0  0  0  0  0  0  0
  -33.0836  -17.0503  149.2894 O   0  0  0  0  0  0  0  0  0  0  0  0
  2  1  1  0
  3  1  1  0
  4  2  1  0
  5  3  1  0
  7  4  1  0
  8  7  1  0
 10  1  1  0
 10  6  1  0
 11  6  1  0
 11  9  1  0
 12  5  2  0
 13  4  1  0
 13  7  1  0
 13  8  1  0
 14  3  1  0
 15 14  1  0
M  END
$$$$

     RDKit          3D

 15 17  0  0  0  0  0  0  0  0999 V2000
  -19.9998   -4.2025  132.3343 N   0  0  0  0  0  0  0  0  0  0  0  0
  -17.7866   -4.9676  133.4468 C   0  0  0  0  0  0  0  0  0  0  0  0
  -21.6594   -5.7225  133.1327 C   0  0  0  0  0  0  0  0  0  0  0  0
  -21.7408   -6.0096  131.7629 O   0  0  0  0  0  0  0  0  0  0  0  0
  -20.6187   -4.7218  133.4910 N   0  0  0  0  0  0  0  0  0  0  0  0
  -18.5244   -5.8047  131.0691 C   0  0  0  0  0  0  0  0  0  0  0  0
  -18.6702   -4.8006  132.2018 C   0  0  0  0  0  0  0  0  0  0  0  0
  -22.0550   -4.3597  133.4584 C   0  0  0  0  0  0  0  0  0  0  0  0
  -24.3460   -4.8398  134.8130 C   0  0  0  0  0  0  0  0  0  0  0  0
  -17.9510   -4.3980  130.9207 C   0  0  0  0  0  0  0  0  0  0  0  0
  -26.5290   -3.6843  136.3739 C   0  0  0  0  0  0  0  0  0  0  0  0
  -26.1514   -2.0624  134.4699 P   0  0  0  0  0  0  0  0  0  0  0  0
  -22.7000   -4.1292  135.1458 S   0  0  0  0  0  0  0  0  0  0  0  0
  -27.1496   -2.3899  135.9870 C   0  0  0  0  0  0  0  0  0  0  0  0
  -25.4653   -3.7781  135.1993 B   0  0  0  0  0  0  0  0  0  0  0  0
  4  3  1  0
  5  1  1  0
  5  3  1  0
  7  1  1  0
  7  2  1  0
  7  6  1  0
  8  3  1  0
  8  5  1  0
 10  6  1  0
 10  7  1  0
 13  8  1  0
 13  9  1  0
 14 11  1  0
 14 12  1  0
 15  9  1  0
 15 11  1  0
 15 12  1  0
M  END
$$$$

     RDKit          3D

 13 16  0  0  0  0  0  0  0  0999 V2000
  -25.1179  -14.1666  138.4819 C   0  0  0  0  0  0  0  0  0  0  0  0
  -25.6204  -13.5125  137.3714 F   0  0  0  0  0  0  0  0  0  0  0  0
  -23.6350  -13.9938  138.7557 C   0  0  0  0  0  0  0  0  0  0  0  0
  -22.9609  -13.2051  137.8387 F   0  0  0  0  0  0  0  0  0  0  0  0
  -25.7133  -15.3472  138.8912 F   0  0  0  0  0  0  0  0  0  0  0  0
  -22.8890  -15.1593  139.4120 C   0  0  0  0  0  0  0  0  0  0  0  0
  -21.6503  -14.6276  140.1471 C   0  0  0  0  0  0  0  0  0  0  0  0
  -20.3584  -14.8092  139.4082 C   0  0  0  0  0  0  0  0  0  0  0  0
  -19.6789  -13.4586  139.7037 C   0  0  0  0  0  0  0  0  0  0  0  0
  -18.8420  -14.7149  139.6575 C   0  0  0  0  0  0  0  0  0  0  0  0
  -18.2588  -13.3780  139.2463 C   0  0  0  0  0  0  0  0  0  0  0  0
  -20.7352  -15.6639  140.5734 N   0  0  0  0  0  0  0  0  0  0  0  0
  -24.6589  -13.2525  139.6101 C   0  0  0  0  0  0  0  0  0  0  0  0
  2  1  1  0
  3  1  1  0
  4  3  1  0
  5  1  1  0
  6  3  1  0
  7  6  1  0
  8  7  1  0
  9  8  1  0
 10  8  1  0
 10  9  1  0
 11  9  1  0
 11 10  1  0
 12  7  1  0
 12  8  1  0
 13  1  1  0
 13  3  1  0
M  END
$$$$

     RDKit          3D

 14 15  0  0  0  0  0  0  0  0999 V2000
  -19.6542   -5.6319  141.9444 C   0  0  0  0  0  0  0  0  0  0  0  0
  -19.7042   -6.9065  141.1040 C   0  0  0  0  0  0  0  0  0  0  0  0
  -22.2411   -7.2394  141.1497 C   0  0  0  0  0  0  0  0  0  0  0  0
  -19.9213   -4.3295  141.1862 C   0  0  0  0  0  0  0  0  0  0  0  0
  -21.0075   -7.0976  140.2235 C   0  0  0  0  0  0  0  0  0  0  0  0
  -20.8327   -8.4848  139.5413 C   0  0  0  0  0  0  0  0  0  0  0  0
  -21.2022   -5.9928  139.0901 C   0  0  0  0  0  0  0  0  0  0  0  0
  -19.3982   -2.5118  137.6735 C   0  0  0  0  0  0  0  0  0  0  0  0
  -17.9117   -2.5769  139.7184 C   0  0  0  0  0  0  0  0  0  0  0  0
  -19.9046   -5.2735  138.6869 C   0  0  0  0  0  0  0  0  0  0  0  0
  -22.4515   -5.0617  139.1837 C   0  0  0  0  0  0  0  0  0  0  0  0
  -17.7981   -4.1112  139.7982 C   0  0  0  0  0  0  0  0  0  0  0  0
  -19.3782   -2.7475  139.2275 C   0  0  0  0  0  0  0  0  0  0  0  0
  -19.3375   -4.2272  139.7111 C   0  0  0  0  0  0  0  0  0  0  0  0
  2  1  1  0
  4  1  1  0
  5  2  1  0
  5  3  1  0
  6  5  1  0
  7  5  1  0
 10  7  1  0
 11  7  1  0
 12  9  1  0
 13  8  1  0
 13  9  1  0
 14  4  1  0
 14 10  1  0
 14 12  1  0
 14 13  1  0
M  END
$$$$

     RDKit          3D

 15 20  0  0  0  0  0  0  0  0999 V2000
  -25.4996   -4.5103  142.6173 Si  0  0  0  0  0  4  0  0  0  0  0  0
  -25.7013   -5.9791  141.4223 C   0  0  0  0  0  0  0  0  0  0  0  0
  -24.6566   -6.9650  141.9198 C   0  0  0  0  0  0  0  0  0  0  0  0
  -25.1087   -5.4675  140.0947 C   0  0  0  0  0  0  0  0  0  0  0  0
  -26.5126   -4.7343  144.1843 C   0  0  0  0  0  0  0  0  0  0  0  0
  -24.2101   -6.2849  139.2563 C   0  0  0  0  0  0  0  0  0  0  0  0
  -23.6399   -5.4142  140.3112 N   0  0  0  0  0  0  0  0  0  0  0  0
  -23.6699   -4.9241  142.6839 C   0  0  0  0  0  0  0  0  0  0  0  0
  -23.4647   -6.0388  141.6547 C   0  0  0  0  0  0  0  0  0  0  0  0
  -22.3440   -4.4340  143.2999 C   0  0  0  0  0  0  0  0  0  0  0  0
  -21.3240   -5.4623  142.7246 C   0  0  0  0  0  0  0  0  0  0  0  0
  -22.0315   -6.5421  141.8635 C   0  0  0  0  0  0  0  0  0  0  0  0
  -21.3564   -4.0907  142.1574 C   0  0  0  0  0  0  0  0  0  0  0  0
  -23.3039   -5.3033  144.1088 C   0  0  0  0  0  0  0  0  0  0  0  0
  -26.5333   -6.0789  144.5759 O   0  0  0  0  0  0  0  0  0  0  0  0
  2  1  1  0
  3  2  1  0
  4  2  1  0
  5  1  1  0
  6  4  1  0
  7  4  1  0
  7  6  1  0
  8  1  1  0
  9  3  1  0
  9  7  1  0
  9  8  1  0
 10  8  1  0
 11 10  1  0
 12  9  1  0
 12 11  1  0
 13 10  1  0
 13 11  1  0
 14  8  1  0
 14 10  1  0
 15  5  1  0
M  END
$$$$

     RDKit          3D

 11 10  0  0  0  0  0  0  0  0999 V2000
  -25.1375  -10.5032  142.9645 O   0  0  0  0  0  0  0  0  0  0  0  0
  -25.4053   -9.4855  142.2715 C   0  0  0  0  0  0  0  0  0  0  0  0
  -25.6498   -9.6163  140.9082 O   0  0  0  0  0  0  0  0  0  0  0  0
  -25.5104   -8.1432  142.9204 C   0  0  0  0  0  0  0  0  0  0  0  0
  -26.9107   -7.8706  143.2654 N   0  0  0  0  0  0  0  0  0  0  0  0
  -27.0665   -6.5057  143.8066 C   0  0  0  0  0  0  0  0  0  0  0  0
  -26.7915   -5.5350  142.8250 O   0  0  0  0  0  0  0  0  0  0  0  0
  -28.4774   -6.2957  144.3925 C   0  0  0  0  0  0  0  0  0  0  0  0
  -29.6622   -6.5620  143.3461 B   0  0  0  0  0  0  0  0  0  0  0  0
  -30.4507   -7.7880  143.4470 O   0  0  0  0  0  0  0  0  0  0  0  0
  -30.0433   -5.4778  142.2460 C   0  0  0  0  0  0  0  0  0  0  0  0
  2  1  2  0
  3  2  1  0
  4  2  1  0
  5  4  1  0
  6  5  1  0
  7  6  1  0
  8  6  1  0
  9  8  1  0
 10  9  1  0
 11  9  1  0
M  END
$$$$

     RDKit          3D

 15 19  0  0  0  0  0  0  0  0999 V2000
  -27.2131   -5.3462  141.8569 C   0  0  0  0  0  0  0  0  0  0  0  0
  -26.2256   -6.0853  142.6574 C   0  0  0  0  0  0  0  0  0  0  0  0
  -27.2438   -3.9367  142.2893 C   0  0  0  0  0  0  0  0  0  0  0  0
  -24.8084   -5.7170  142.5052 N   0  0  0  0  0  0  0  0  0  0  0  0
  -24.0331   -6.8795  142.0140 C   0  0  0  0  0  0  0  0  0  0  0  0
  -26.6611   -4.2725  140.9358 C   0  0  0  0  0  0  0  0  0  0  0  0
  -26.9845   -4.9917  143.2873 N   0  0  0  0  0  0  0  0  0  0  0  0
  -22.9198   -6.4501  141.1783 N   0  0  0  0  0  0  0  0  0  0  0  0
  -23.9554   -6.5012  143.4326 C   0  0  0  0  0  0  0  0  0  0  0  0
  -22.7441   -5.6892  143.9157 C   0  0  0  0  0  0  0  0  0  0  0  0
  -21.5855   -7.3354  145.2880 C   0  0  0  0  0  0  0  0  0  0  0  0
  -21.2250   -6.5451  146.4740 N   0  0  0  0  0  0  0  0  0  0  0  0
  -20.3733   -8.2400  145.4196 C   0  0  0  0  0  0  0  0  0  0  0  0
  -21.5635   -6.5550  144.0345 N   0  0  0  0  0  0  0  0  0  0  0  0
  -20.0493   -7.4012  146.6410 C   0  0  0  0  0  0  0  0  0  0  0  0
  2  1  1  0
  3  1  1  0
  4  2  1  0
  5  4  1  0
  6  1  1  0
  6  3  1  0
  7  1  1  0
  7  2  1  0
  7  3  1  0
  8  5  1  0
  9  4  1  0
  9  5  1  0
 10  9  1  0
 12 11  1  0
 13 11  1  0
 14 10  1  0
 14 11  1  0
 15 12  1  0
 15 13  1  0
M  END
$$$$

     RDKit          3D

 15 15  0  0  0  0  0  0  0  0999 V2000
  -27.7310  -10.1457  153.9815 O   0  0  0  0  0  0  0  0  0  0  0  0
  -28.5688   -9.6607  152.9394 C   0  0  0  0  0  0  0  0  0  0  0  0
  -29.2538  -10.8566  152.2314 C   0  0  0  0  0  0  0  0  0  0  0  0
  -27.7461   -8.8467  151.9302 C   0  0  0  0  0  0  0  0  0  0  0  0
  -28.3041  -11.6888  151.6092 O   0  0  0  0  0  0  0  0  0  0  0  0
  -27.6279   -9.2044  155.0322 C   0  0  0  0  0  0  0  0  0  0  0  0
  -26.8375   -9.7849  156.1096 N   0  0  0  0  0  0  0  0  0  0  0  0
  -30.1491  -11.6515  153.2173 C   0  0  0  0  0  0  0  0  0  0  0  0
  -30.9282  -12.8480  152.6067 C   0  0  0  0  0  0  0  0  0  0  0  0
  -29.9976  -14.0325  152.2535 C   0  0  0  0  0  0  0  0  0  0  0  0
  -30.7284  -15.3505  152.3002 C   0  0  0  0  0  0  0  0  0  0  0  0
  -31.7418  -15.6627  151.4779 C   0  0  0  0  0  0  0  0  0  0  0  0
  -32.2619  -14.7309  150.4144 C   0  0  0  0  0  0  0  0  0  0  0  0
  -32.8620  -13.4507  151.0159 C   0  0  0  0  0  0  0  0  0  0  0  0
  -31.7921  -12.4150  151.3983 C   0  0  0  0  0  0  0  0  0  0  0  0
  2  1  1  0
  3  2  1  0
  4  2  1  0
  5  3  1  0
  6  1  1  0
  7  6  1  0
  8  3  1  0
  9  8  1  0
 10  9  1  0
 11 10  1  0
 12 11  2  0
 13 12  1  0
 14 13  1  0
 15  9  1  0
 15 14  1  0
M  END
$$$$

     RDKit          3D

 10  9  0  0  0  0  0  0  0  0999 V2000
  -23.3419    3.3434  143.3396 O   0  0  0  0  0  0  0  0  0  0  0  0
  -25.1447    4.2145  141.9329 P   0  0  0  0  0  0  0  0  0  0  0  0
  -23.8375    5.1865  141.2758 O   0  0  0  0  0  0  0  0  0  0  0  0
  -25.3510    7.5648  144.8529 P   0  0  0  0  0  0  0  0  0  0  0  0
  -24.4152    9.0292  144.7763 O   0  0  0  0  0  0  0  0  0  0  0  0
  -25.4686    7.2603  143.1296 O   0  0  0  0  0  0  0  0  0  0  0  0
  -24.1426    2.8691  142.4059 O   0  0  0  0  0  0  0  0  0  0  0  0
  -25.4370    6.8289  140.3199 C   0  0  0  0  0  0  0  0  0  0  0  0
  -24.1831    7.2711  142.5492 C   0  0  0  0  0  0  0  0  0  0  0  0
  -24.1846    6.5583  141.1790 C   0  0  0  0  0  0  0  0  0  0  0  0
  3  2  1  0
  5  4  1  0
  6  4  1  0
  7  1  1  0
  7  2  1  0
  9  6  1  0
 10  3  1  0
 10  8  1  0
 10  9  1  0
M  END
$$$$

     RDKit          3D

 15 18  0  0  0  0  0  0  0  0999 V2000
  -26.2356   -4.9268  139.3733 N   0  0  0  0  0  2  0  0  0  0  0  0
  -26.0919   -4.9362  137.9206 C   0  0  0  0  0  0  0  0  0  0  0  0
  -26.4325   -3.6216  137.3525 N   0  0  0  0  0  0  0  0  0  0  0  0
  -25.6282   -2.5468  137.9464 C   0  0  0  0  0  0  0  0  0  0  0  0
  -25.5323   -1.3221  137.1138 C   0  0  0  0  0  0  0  0  0  0  0  0
  -24.7293   -5.3130  137.5614 N   0  0  0  0  0  2  0  0  0  0  0  0
  -26.2282   -1.3229  135.7446 C   0  0  0  0  0  0  0  0  0  0  0  0
  -24.3022   -2.2742  137.1815 C   0  0  0  0  0  0  0  0  0  0  0  0
  -25.8105   -0.0664  134.9607 C   0  0  0  0  0  0  0  0  0  0  0  0
  -26.8516    1.0496  134.8987 C   0  0  0  0  0  0  0  0  0  0  0  0
  -26.5536    0.2181  133.6582 C   0  0  0  0  0  0  0  0  0  0  0  0
  -23.2268   -1.2196  137.5018 C   0  0  0  0  0  0  0  0  0  0  0  0
  -22.8880   -1.1271  138.9694 C   0  0  0  0  0  0  0  0  0  0  0  0
  -27.6215   -0.7221  133.3286 N   0  0  0  0  0  0  0  0  0  0  0  0
  -23.3402   -2.4375  138.3718 C   0  0  0  0  0  0  0  0  0  0  0  0
  2  1  1  0
  3  2  1  0
  4  3  1  0
  5  4  1  0
  6  2  1  0
  7  5  1  0
  8  4  1  0
  8  5  1  0
  9  7  1  0
 10  9  1  0
 11  9  1  0
 11 10  1  0
 12  8  1  0
 13 12  1  0
 14 11  1  0
 15  8  1  0
 15 12  1  0
 15 13  1  0
M  RAD  2   1   2   6   2
M  END
$$$$

     RDKit          3D

 15 17  0  0  0  0  0  0  0  0999 V2000
  -27.5806    0.0493  133.6740 O   0  0  0  0  0  0  0  0  0  0  0  0
  -28.9013   -0.5747  133.6014 C   0  0  0  0  0  0  0  0  0  0  0  0
  -28.1285    0.3568  133.2733 O   0  0  0  0  0  0  0  0  0  0  0  0
  -26.3917   -0.5343  134.5025 C   0  0  0  0  0  0  0  0  0  0  0  0
  -26.7085   -1.7671  135.3583 C   0  0  0  0  0  0  0  0  0  0  0  0
  -25.9390   -1.9196  134.0431 C   0  0  0  0  0  0  0  0  0  0  0  0
  -24.4667   -2.3370  134.1953 C   0  0  0  0  0  0  0  0  0  0  0  0
  -24.3449   -3.5275  135.1704 C   0  0  0  0  0  0  0  0  0  0  0  0
  -26.6942   -2.5289  133.0336 O   0  0  0  0  0  0  0  0  0  0  0  0
  -22.8632   -3.9210  135.3369 C   0  0  0  0  0  0  0  0  0  0  0  0
  -25.8360   -1.9468  136.6078 C   0  0  0  0  0  0  0  0  0  0  0  0
  -22.7121   -5.2480  136.1009 C   0  0  0  0  0  0  0  0  0  0  0  0
  -22.2206   -5.1429  137.5398 C   0  0  0  0  0  0  0  0  0  0  0  0
  -21.2738   -5.6086  136.4464 C   0  0  0  0  0  0  0  0  0  0  0  0
  -25.0387   -3.2594  136.5437 C   0  0  0  0  0  0  0  0  0  0  0  0
  2  1  1  0
  3  2  2  0
  4  1  1  0
  5  4  1  0
  6  4  1  0
  6  5  1  0
  7  6  1  0
  8  7  1  0
  9  6  1  0
 10  8  1  0
 11  5  1  0
 12 10  1  0
 13 12  1  0
 14 12  1  0
 14 13  1  0
 15  8  1  0
 15 11  1  0
M  END
$$$$

     RDKit          3D

 15 18  0  0  0  0  0  0  0  0999 V2000
  -20.0461   -7.0249  139.3762 F   0  0  0  0  0  0  0  0  0  0  0  0
  -19.1123   -6.3025  138.6494 C   0  0  0  0  0  0  0  0  0  0  0  0
  -18.2850   -7.0551  137.5813 C   0  0  0  0  0  0  0  0  0  0  0  0
  -19.1213   -8.0279  136.7489 C   0  0  0  0  0  0  0  0  0  0  0  0
  -19.3746   -4.8038  138.4797 C   0  0  0  0  0  0  0  0  0  0  0  0
  -20.6950   -4.4406  139.0169 N   0  0  0  0  0  0  0  0  0  0  0  0
  -20.6562   -3.2984  139.9516 C   0  0  0  0  0  0  0  0  0  0  0  0
  -16.8751   -7.5837  137.9221 C   0  0  0  0  0  0  0  0  0  0  0  0
  -20.2569   -1.9180  138.3749 C   0  0  0  0  0  0  0  0  0  0  0  0
  -19.3484   -2.0860  137.3230 O   0  0  0  0  0  0  0  0  0  0  0  0
  -18.5788   -6.7612  136.1105 C   0  0  0  0  0  0  0  0  0  0  0  0
  -19.6577   -2.1625  139.7291 C   0  0  0  0  0  0  0  0  0  0  0  0
  -21.1960   -3.1163  138.5624 C   0  0  0  0  0  0  0  0  0  0  0  0
  -16.9007   -8.5213  139.1268 C   0  0  0  0  0  0  0  0  0  0  0  0
  -18.3569   -5.2944  139.5040 C   0  0  0  0  0  0  0  0  0  0  0  0
  2  1  1  0
  3  2  1  0
  4  3  1  0
  5  2  1  0
  6  5  1  0
  7  6  1  0
  8  3  1  0
 10  9  1  0
 11  3  1  0
 11  4  1  0
 12  7  1  0
 12  9  1  0
 13  6  1  0
 13  7  1  0
 13  9  1  0
 14  8  1  0
 15  2  1  0
 15  5  1  0
M  END
$$$$

     RDKit          3D

 15 18  0  0  0  0  0  0  0  0999 V2000
  -19.5721  -20.1137  135.0392 C   0  0  0  0  0  0  0  0  0  0  0  0
  -18.1515  -20.5804  134.6204 C   0  0  0  0  0  0  0  0  0  0  0  0
  -20.3802  -21.2135  135.7612 C   0  0  0  0  0  0  0  0  0  0  0  0
  -17.1497  -19.4571  134.2356 C   0  0  0  0  0  0  0  0  0  0  0  0
  -21.7804  -21.5023  135.2173 C   0  0  0  0  0  0  0  0  0  0  0  0
  -17.4731  -18.7590  132.8914 C   0  0  0  0  0  0  0  0  0  0  0  0
  -17.6011  -18.0002  134.1924 C   0  0  0  0  0  0  0  0  0  0  0  0
  -19.2330  -22.3807  132.9174 C   0  0  0  0  0  0  0  0  0  0  0  0
  -16.4467  -19.8730  132.9709 C   0  0  0  0  0  0  0  0  0  0  0  0
  -21.6250  -20.7699  136.5419 C   0  0  0  0  0  0  0  0  0  0  0  0
  -20.0096  -21.5547  131.8814 C   0  0  0  0  0  0  0  0  0  0  0  0
  -16.9391  -21.2443  132.5331 C   0  0  0  0  0  0  0  0  0  0  0  0
  -21.2339  -22.1587  131.6437 F   0  0  0  0  0  0  0  0  0  0  0  0
  -22.0483  -19.2954  136.5113 C   0  0  0  0  0  0  0  0  0  0  0  0
  -17.9816  -21.7210  133.5622 C   0  0  0  0  0  0  0  0  0  0  0  0
  2  1  1  0
  3  1  1  0
  4  2  1  0
  5  3  1  0
  6  4  1  0
  7  4  1  0
  7  6  1  0
  9  4  1  0
  9  6  1  0
 10  3  1  0
 10  5  1  0
 11  8  1  0
 12  9  1  0
 13 11  1  0
 14 10  1  0
 15  2  1  0
 15  8  1  0
 15 12  1  0
M  END
$$$$

     RDKit          3D

 15 19  0  0  0  0  0  0  0  0999 V2000
  -28.4397  -17.0857  139.7348 C   0  0  0  0  0  0  0  0  0  0  0  0
  -28.9635  -17.9062  140.8689 N   0  0  0  0  0  0  0  0  0  0  0  0
  -30.2054  -18.7089  140.6039 C   0  0  0  0  0  0  0  0  0  0  0  0
  -30.7062  -19.3954  141.9125 C   0  0  0  0  0  0  0  0  0  0  0  0
  -30.0462  -19.6722  139.3915 C   0  0  0  0  0  0  0  0  0  0  0  0
  -30.9437  -18.2754  142.9253 C   0  0  0  0  0  0  0  0  0  0  0  0
  -28.9831  -15.6807  139.7314 C   0  0  0  0  0  0  0  0  0  0  0  0
  -29.4692  -18.4094  143.2881 C   0  0  0  0  0  0  0  0  0  0  0  0
  -28.6658  -17.5304  142.2933 C   0  0  0  0  0  0  0  0  0  0  0  0
  -29.4685  -16.6725  138.8640 O   0  0  0  0  0  0  0  0  0  0  0  0
  -29.4952  -19.8318  142.7441 C   0  0  0  0  0  0  0  0  0  0  0  0
  -28.6771  -20.3262  139.2019 C   0  0  0  0  0  0  0  0  0  0  0  0
  -30.3461  -21.9736  138.6126 O   0  0  0  0  0  0  0  0  0  0  0  0
  -27.5318  -15.9201  140.0943 C   0  0  0  0  0  0  0  0  0  0  0  0
  -29.8604  -21.1670  139.6453 C   0  0  0  0  0  0  0  0  0  0  0  0
  2  1  1  0
  3  2  1  0
  4  3  1  0
  5  3  1  0
  6  4  1  0
  7  1  1  0
  8  6  1  0
  9  2  1  0
  9  8  1  0
 10  1  1  0
 10  7  1  0
 11  4  1  0
 11  8  1  0
 12  5  1  0
 14  1  1  0
 14  7  1  0
 15  5  1  0
 15 12  1  0
 15 13  1  0
M  END
$$$$

     RDKit          3D

 15 19  0  0  0  0  0  0  0  0999 V2000
  -26.6185   -6.9328  138.4832 O   0  0  0  0  0  0  0  0  0  0  0  0
  -27.8915   -7.1672  137.8827 C   0  0  0  0  0  0  0  0  0  0  0  0
  -28.8872   -7.5245  138.8195 O   0  0  0  0  0  0  0  0  0  0  0  0
  -28.3349   -5.9198  137.0697 C   0  0  0  0  0  0  0  0  0  0  0  0
  -28.7280   -4.7031  137.9469 C   0  0  0  0  0  0  0  0  0  0  0  0
  -26.6900   -6.4223  139.8067 C   0  0  0  0  0  0  0  0  0  0  0  0
  -26.2899   -7.4637  140.8377 C   0  0  0  0  0  0  0  0  0  0  0  0
  -25.0600   -6.6473  141.1980 C   0  0  0  0  0  0  0  0  0  0  0  0
  -24.1110   -6.3163  140.0671 C   0  0  0  0  0  0  0  0  0  0  0  0
  -30.0932   -4.5983  138.6139 C   0  0  0  0  0  0  0  0  0  0  0  0
  -31.1903   -4.2343  137.6908 C   0  0  0  0  0  0  0  0  0  0  0  0
  -31.1405   -5.5817  138.3055 N   0  0  0  0  0  0  0  0  0  0  0  0
  -25.4474   -5.6041  140.1338 C   0  0  0  0  0  0  0  0  0  0  0  0
  -29.7684   -3.7361  137.3854 C   0  0  0  0  0  0  0  0  0  0  0  0
  -27.7166   -8.3337  136.8953 C   0  0  0  0  0  0  0  0  0  0  0  0
  2  1  1  0
  3  2  1  0
  4  2  1  0
  5  4  1  0
  6  1  1  0
  7  6  1  0
  8  7  1  0
  9  8  1  0
 10  5  1  0
 11 10  1  0
 12 10  1  0
 12 11  1  0
 13  6  1  0
 13  8  1  0
 13  9  1  0
 14  5  1  0
 14 10  1  0
 14 11  1  0
 15  2  1  0
M  END
$$$$

     RDKit          3D

 15 17  0  0  0  0  0  0  0  0999 V2000
  -22.3457    2.1103  142.4512 C   0  0  0  0  0  0  0  0  0  0  0  0
  -22.1740    3.4947  143.0213 C   0  0  0  0  0  0  0  0  0  0  0  0
  -21.6891    1.1044  143.1638 O   0  0  0  0  0  0  0  0  0  0  0  0
  -21.9918    5.9622  142.6831 C   0  0  0  0  0  0  0  0  0  0  0  0
  -20.1067    4.5536  141.7995 C   0  0  0  0  0  0  0  0  0  0  0  0
  -21.2208    2.3963  143.4491 C   0  0  0  0  0  0  0  0  0  0  0  0
  -19.6560    3.3837  140.9697 C   0  0  0  0  0  0  0  0  0  0  0  0
  -19.9343    3.3349  139.7114 N   0  0  0  0  0  0  0  0  0  0  0  0
  -19.5563    2.2752  138.7864 C   0  0  0  0  0  0  0  0  0  0  0  0
  -21.6503    4.6000  142.0439 C   0  0  0  0  0  0  0  0  0  0  0  0
  -22.3523    4.4944  140.8242 O   0  0  0  0  0  0  0  0  0  0  0  0
  -19.8051    0.8465  139.2613 C   0  0  0  0  0  0  0  0  0  0  0  0
  -18.0817    1.8885  138.7871 C   0  0  0  0  0  0  0  0  0  0  0  0
  -18.3831    0.4842  139.1185 N   0  0  0  0  0  0  0  0  0  0  0  0
  -17.7720    0.0444  140.3851 C   0  0  0  0  0  0  0  0  0  0  0  0
  2  1  1  0
  3  1  1  0
  6  1  1  0
  6  2  1  0
  6  3  1  0
  7  5  1  0
  8  7  2  3
  9  8  1  0
 10  2  1  0
 10  4  1  0
 10  5  1  0
 11 10  1  0
 12  9  1  0
 13  9  1  0
 14 12  1  0
 14 13  1  0
 15 14  1  0
M  END
$$$$

     RDKit          3D

 11 14  0  0  0  0  0  0  0  0999 V2000
  -27.0413   -1.5575  143.9349 N   0  0  0  0  0  0  0  0  0  0  0  0
  -26.4465   -0.6968  142.9178 C   0  0  0  0  0  0  0  0  0  0  0  0
  -26.7631   -2.9368  143.5276 C   0  0  0  0  0  0  0  0  0  0  0  0
  -26.1465   -2.9527  142.1975 N   0  0  0  0  0  0  0  0  0  0  0  0
  -25.2264   -0.0204  143.4080 N   0  0  0  0  0  0  0  0  0  0  0  0
  -24.1603   -0.9774  143.7494 C   0  0  0  0  0  0  0  0  0  0  0  0
  -26.1943   -1.5831  141.7077 C   0  0  0  0  0  0  0  0  0  0  0  0
  -23.8670   -1.0408  145.2375 C   0  0  0  0  0  0  0  0  0  0  0  0
  -22.3724   -0.8705  145.4754 C   0  0  0  0  0  0  0  0  0  0  0  0
  -22.8664   -0.8605  142.9525 C   0  0  0  0  0  0  0  0  0  0  0  0
  -23.0053   -0.1753  144.3009 C   0  0  0  0  0  0  0  0  0  0  0  0
  2  1  1  0
  3  1  1  0
  4  3  1  0
  5  2  1  0
  6  5  1  0
  7  2  1  0
  7  4  1  0
  8  6  1  0
  9  8  1  0
 10  6  1  0
 11  6  1  0
 11  8  1  0
 11  9  1  0
 11 10  1  0
M  END
$$$$

     RDKit          3D

 15 17  0  0  0  0  0  0  0  0999 V2000
  -20.2240  -14.1117  141.3985 O   0  0  0  0  0  0  0  0  0  0  0  0
  -19.5451  -15.1875  142.0121 C   0  0  0  0  0  0  0  0  0  0  0  0
  -20.2847  -15.6745  143.1103 O   0  0  0  0  0  0  0  0  0  0  0  0
  -19.3498  -13.5302  140.4537 C   0  0  0  0  0  0  0  0  0  0  0  0
  -22.3918  -17.8850  141.9139 C   0  0  0  0  0  0  0  0  0  0  0  0
  -22.2428  -19.2206  141.1274 C   0  0  0  0  0  0  0  0  0  0  0  0
  -21.5931  -21.1849  141.7524 C   0  0  0  0  0  0  0  0  0  0  0  0
  -20.8898  -19.9249  141.2522 C   0  0  0  0  0  0  0  0  0  0  0  0
  -20.2292  -16.5105  141.9740 C   0  0  0  0  0  0  0  0  0  0  0  0
  -21.6325  -16.6520  141.3327 C   0  0  0  0  0  0  0  0  0  0  0  0
  -21.5235  -16.6589  139.8016 C   0  0  0  0  0  0  0  0  0  0  0  0
  -22.9446  -20.4778  141.7042 C   0  0  0  0  0  0  0  0  0  0  0  0
  -23.0843  -20.6651  143.2236 C   0  0  0  0  0  0  0  0  0  0  0  0
  -21.8271  -22.7539  143.6541 N   0  0  0  0  0  0  0  0  0  0  0  0
  -21.7175  -21.3486  143.2700 C   0  0  0  0  0  0  0  0  0  0  0  0
  2  1  1  0
  3  2  1  0
  4  1  1  0
  6  5  1  0
  8  6  1  0
  8  7  1  0
  9  2  1  0
  9  3  1  0
 10  5  1  0
 10  9  1  0
 11 10  1  0
 12  6  1  0
 12  7  1  0
 13 12  1  0
 15  7  1  0
 15 13  1  0
 15 14  1  0
M  END
$$$$

     RDKit          3D

 14 14  0  0  0  0  0  0  0  0999 V2000
  -20.7268    2.8367  138.4528 O   0  0  0  0  0  0  0  0  0  0  0  0
  -20.0914    2.2604  140.7322 C   0  0  0  0  0  0  0  0  0  0  0  0
  -18.6339    2.7807  140.7189 C   0  0  0  0  0  0  0  0  0  0  0  0
  -17.6124    1.8726  139.9977 C   0  0  0  0  0  0  0  0  0  0  0  0
  -17.0836    0.7493  140.8817 C   0  0  0  0  0  0  0  0  0  0  0  0
  -19.0595    3.9344  139.8069 C   0  0  0  0  0  0  0  0  0  0  0  0
  -20.4668    3.3624  139.7266 C   0  0  0  0  0  0  0  0  0  0  0  0
  -22.4138    0.4644  142.5605 C   0  0  0  0  0  0  0  0  0  0  0  0
  -21.0955    1.1998  142.9740 C   0  0  0  0  0  0  0  0  0  0  0  0
  -19.9077    0.2136  142.9504 C   0  0  0  0  0  0  0  0  0  0  0  0
  -21.2991    1.6696  144.4458 C   0  0  0  0  0  0  0  0  0  0  0  0
  -20.1456    2.2845  144.9624 O   0  0  0  0  0  0  0  0  0  0  0  0
  -20.8408    2.4687  142.0872 C   0  0  0  0  0  0  0  0  0  0  0  0
  -22.5309    0.0527  141.0900 C   0  0  0  0  0  0  0  0  0  0  0  0
  3  2  1  0
  4  3  1  0
  5  4  1  0
  6  3  1  0
  7  1  1  0
  7  2  1  0
  7  6  1  0
  9  8  1  0
 10  9  1  0
 11  9  1  0
 12 11  1  0
 13  2  1  0
 13  9  1  0
 14  8  1  0
M  END
$$$$

     RDKit          3D

 15 18  0  0  0  0  0  0  0  0999 V2000
  -21.9994  -12.2415  143.4765 C   0  0  0  0  0  0  0  0  0  0  0  0
  -23.1946  -11.6013  144.1546 C   0  0  0  0  0  0  0  0  0  0  0  0
  -21.6137  -11.4897  142.2171 C   0  0  0  0  0  0  0  0  0  0  0  0
  -24.4951  -11.8649  143.4489 C   0  0  0  0  0  0  0  0  0  0  0  0
  -20.1405  -11.2301  142.0308 C   0  0  0  0  0  0  0  0  0  0  0  0
  -19.6763  -10.3625  141.1187 C   0  0  0  0  0  0  0  0  0  0  0  0
  -20.5802   -9.6037  140.1802 C   0  0  0  0  0  0  0  0  0  0  0  0
  -25.4952  -10.9702  143.3886 C   0  0  0  0  0  0  0  0  0  0  0  0
  -25.4148   -9.5826  143.9734 C   0  0  0  0  0  0  0  0  0  0  0  0
  -22.2392  -10.7292  143.3711 C   0  0  0  0  0  0  0  0  0  0  0  0
  -26.6153   -9.2045  144.8322 C   0  0  0  0  0  0  0  0  0  0  0  0
  -21.3269   -8.4460  140.8256 C   0  0  0  0  0  0  0  0  0  0  0  0
  -24.8864   -8.4450  143.0931 C   0  0  0  0  0  0  0  0  0  0  0  0
  -25.2653   -9.4593  145.4850 C   0  0  0  0  0  0  0  0  0  0  0  0
  -20.1490   -8.1707  139.9052 C   0  0  0  0  0  0  0  0  0  0  0  0
  2  1  1  0
  3  1  1  0
  4  2  1  0
  5  3  1  0
  6  5  2  3
  7  6  1  0
  8  4  2  3
  9  8  1  0
 10  1  1  0
 10  2  1  0
 10  3  1  0
 11  9  1  0
 12  7  1  0
 13  9  1  0
 14  9  1  0
 14 11  1  0
 15  7  1  0
 15 12  1  0
M  END
$$$$

     RDKit          3D

 15 16  0  0  0  0  0  0  0  0999 V2000
  -30.9505   -8.9032  149.3553 C   0  0  0  0  0  0  0  0  0  0  0  0
  -32.4680   -9.0114  149.1269 C   0  0  0  0  0  0  0  0  0  0  0  0
  -30.5773   -8.2160  150.6618 C   0  0  0  0  0  0  0  0  0  0  0  0
  -33.2689   -9.6775  150.2636 C   0  0  0  0  0  0  0  0  0  0  0  0
  -32.8561  -11.1100  150.6926 C   0  0  0  0  0  0  0  0  0  0  0  0
  -32.1848  -12.1034  149.7111 C   0  0  0  0  0  0  0  0  0  0  0  0
  -30.7707  -12.3791  150.1375 C   0  0  0  0  0  0  0  0  0  0  0  0
  -29.0387   -8.0246  153.2737 C   0  0  0  0  0  0  0  0  0  0  0  0
  -30.4571  -12.5183  151.4338 C   0  0  0  0  0  0  0  0  0  0  0  0
  -31.5260  -12.4632  152.4809 C   0  0  0  0  0  0  0  0  0  0  0  0
  -28.4560   -9.4350  153.3778 C   0  0  0  0  0  0  0  0  0  0  0  0
  -32.5225  -11.3229  152.1928 C   0  0  0  0  0  0  0  0  0  0  0  0
  -33.8813  -11.7565  151.6412 C   0  0  0  0  0  0  0  0  0  0  0  0
  -28.6416   -7.3422  152.0266 N   0  0  0  0  0  0  0  0  0  0  0  0
  -29.0504   -8.0304  150.7835 C   0  0  0  0  0  0  0  0  0  0  0  0
  2  1  1  0
  3  1  1  0
  4  2  1  0
  5  4  1  0
  6  5  1  0
  7  6  1  0
  9  7  2  0
 10  9  1  0
 11  8  1  0
 12  5  1  0
 12 10  1  0
 13  5  1  0
 13 12  1  0
 14  8  1  0
 15  3  1  0
 15 14  1  0
M  END
$$$$

     RDKit          3D

 15 16  0  0  0  0  0  0  0  0999 V2000
  -16.5011  -11.8535  141.3590 F   0  0  0  0  0  0  0  0  0  0  0  0
  -16.0597  -10.6195  141.8108 C   0  0  0  0  0  0  0  0  0  0  0  0
  -14.5800  -10.4090  143.3783 C   0  0  0  0  0  0  0  0  0  0  0  0
  -14.0235   -9.0727  143.9130 C   0  0  0  0  0  0  0  0  0  0  0  0
  -14.5389  -10.5527  141.8534 C   0  0  0  0  0  0  0  0  0  0  0  0
  -16.1153  -10.4408  143.3321 C   0  0  0  0  0  0  0  0  0  0  0  0
  -12.5127   -9.1218  144.2000 C   0  0  0  0  0  0  0  0  0  0  0  0
  -11.6474   -9.2998  142.9338 C   0  0  0  0  0  0  0  0  0  0  0  0
  -16.7103  -11.5956  144.1051 C   0  0  0  0  0  0  0  0  0  0  0  0
  -11.5430   -8.1125  141.9589 C   0  0  0  0  0  0  0  0  0  0  0  0
  -16.6863  -11.6060  145.4403 C   0  0  0  0  0  0  0  0  0  0  0  0
  -12.2311   -6.9497  142.3631 O   0  0  0  0  0  0  0  0  0  0  0  0
  -10.1430   -9.1989  143.2071 C   0  0  0  0  0  0  0  0  0  0  0  0
  -10.0267   -8.0487  142.2032 C   0  0  0  0  0  0  0  0  0  0  0  0
   -9.1992   -8.4063  140.9651 C   0  0  0  0  0  0  0  0  0  0  0  0
  2  1  1  0
  4  3  1  0
  5  2  1  0
  5  3  1  0
  6  2  1  0
  6  3  1  0
  7  4  1  0
  8  7  1  0
  9  6  1  0
 10  8  1  0
 11  9  2  0
 12 10  1  0
 13  8  1  0
 14 10  1  0
 14 13  1  0
 15 14  1  0
M  END
$$$$

     RDKit          3D

 12 11  0  0  0  0  0  0  0  0999 V2000
  -21.8225   -2.4908  138.2685 O   0  0  0  0  0  0  0  0  0  0  0  0
  -22.1673    0.9158  138.0548 O   0  0  0  0  0  0  0  0  0  0  0  0
  -20.4227    0.9608  139.5337 O   0  0  0  0  0  0  0  0  0  0  0  0
  -32.9382    3.4070  131.7073 O   0  0  0  0  0  0  0  0  0  0  0  0
  -34.0251    3.7647  130.9073 C   0  0  0  0  0  0  0  0  0  0  0  0
  -29.5869    0.2098  130.4579 C   0  0  0  0  0  0  0  0  0  0  0  0
  -29.0971    2.3018  134.5807 S   0  0  0  0  0  4  0  0  0  0  0  0
  -31.3231    1.8946  131.1739 C   0  0  0  0  0  0  0  0  0  0  0  0
  -32.7442    2.0877  131.4584 N   0  0  0  0  0  0  0  0  0  0  0  0
  -22.3367   -2.4493  139.3736 C   0  0  0  0  0  0  0  0  0  0  0  0
  -31.0601    0.4379  130.7838 C   0  0  0  0  0  0  0  0  0  0  0  0
  -21.7774    1.2606  139.3497 C   0  0  0  0  0  0  0  0  0  0  0  0
  5  4  1  0
  7  2  1  0
  7  5  1  0
  9  4  1  0
  9  8  1  0
 10  1  2  0
 10  7  1  0
 11  6  1  0
 11  8  1  0
 12  2  1  0
 12  3  1  0
M  END
$$$$

     RDKit          3D

 15 22  0  0  0  0  0  0  0  0999 V2000
  -36.9914  -11.7888  143.8566 C   0  0  0  0  0  0  0  0  0  0  0  0
  -36.1863  -11.5672  145.1243 C   0  0  0  0  0  0  0  0  0  0  0  0
  -34.9617  -12.4840  145.2006 C   0  0  0  0  0  0  0  0  0  0  0  0
  -36.6664  -10.8117  142.6939 C   0  0  0  0  0  0  0  0  0  0  0  0
  -35.0732  -10.6369  141.2475 C   0  0  0  0  0  0  0  0  0  0  0  0
  -35.4872   -8.4924  142.6373 C   0  0  0  0  0  0  0  0  0  0  0  0
  -34.8543  -13.3114  143.9254 C   0  0  0  0  0  0  0  0  0  0  0  0
  -35.0660   -8.0446  144.0337 C   0  0  0  0  0  0  0  0  0  0  0  0
  -36.2188  -12.9581  144.4830 C   0  0  0  0  0  0  0  0  0  0  0  0
  -34.0611   -9.0937  144.5312 C   0  0  0  0  0  0  0  0  0  0  0  0
  -36.3541  -11.4645  141.3514 C   0  0  0  0  0  0  0  0  0  0  0  0
  -34.2956  -10.3539  143.6819 C   0  0  0  0  0  0  0  0  0  0  0  0
  -34.7831  -11.0085  144.9436 C   0  0  0  0  0  0  0  0  0  0  0  0
  -35.3461  -10.0224  142.6318 C   0  0  0  0  0  0  0  0  0  0  0  0
  -34.4624   -9.8413  145.8321 C   0  0  0  0  0  0  0  0  0  0  0  0
  2  1  1  0
  3  2  1  0
  4  1  1  0
  7  3  1  0
  8  6  1  0
  9  1  1  0
  9  2  1  0
  9  3  1  0
  9  7  1  0
 10  8  1  0
 11  4  1  0
 11  5  1  0
 12 10  1  0
 13  2  1  0
 13  3  1  0
 13 12  1  0
 14  4  1  0
 14  5  1  0
 14  6  1  0
 14 12  1  0
 15 10  1  0
 15 13  1  0
M  END
$$$$

     RDKit          3D

 15 15  0  0  0  0  0  0  0  0999 V2000
  -23.9948   -3.6268  143.6356 O   0  0  0  0  0  0  0  0  0  0  0  0
  -23.3982   -3.9688  142.4100 C   0  0  0  0  0  0  0  0  0  0  0  0
  -24.0913   -3.2269  141.2443 C   0  0  0  0  0  0  0  0  0  0  0  0
  -25.6457   -3.4514  141.2645 C   0  0  0  0  0  0  0  0  0  0  0  0
  -22.0915   -2.7708  139.6755 C   0  0  0  0  0  0  0  0  0  0  0  0
  -26.3931   -3.0179  139.9756 C   0  0  0  0  0  0  0  0  0  0  0  0
  -26.3488   -5.3817  141.9978 I   0  0  0  0  0  0  0  0  0  0  0  0
  -23.3869   -3.5687  139.8928 C   0  0  0  0  0  0  0  0  0  0  0  0
  -26.5639   -4.1644  138.9624 C   0  0  0  0  0  0  0  0  0  0  0  0
  -21.5772    2.0684  141.0272 O   0  0  0  0  0  0  0  0  0  0  0  0
  -23.4934    0.9320  141.9181 C   0  0  0  0  0  0  0  0  0  0  0  0
  -21.7581   -0.3302  140.5771 C   0  0  0  0  0  0  0  0  0  0  0  0
  -22.4867    1.0219  140.7729 C   0  0  0  0  0  0  0  0  0  0  0  0
  -22.3490   -1.2571  139.5154 C   0  0  0  0  0  0  0  0  0  0  0  0
  -21.0645   -0.4759  139.2316 C   0  0  0  0  0  0  0  0  0  0  0  0
  2  1  1  0
  3  2  1  0
  4  3  1  0
  6  4  1  0
  7  4  1  0
  8  3  1  0
  8  5  1  0
  9  6  1  0
 13 10  1  0
 13 11  1  0
 13 12  1  0
 14  5  1  0
 14 12  1  0
 15 12  1  0
 15 14  1  0
M  END
$$$$

     RDKit          3D

 15 16  0  0  0  0  0  0  0  0999 V2000
  -32.1506   -3.5032  135.5588 O   0  0  0  0  0  0  0  0  0  0  0  0
  -33.2746   -3.7476  134.7504 C   0  0  0  0  0  0  0  0  0  0  0  0
  -33.3639   -5.1171  134.4718 O   0  0  0  0  0  0  0  0  0  0  0  0
  -31.8618   -3.1322  132.6613 C   0  0  0  0  0  0  0  0  0  0  0  0
  -31.7394   -4.5359  132.0276 C   0  0  0  0  0  0  0  0  0  0  0  0
  -31.1017   -4.7017  130.6392 C   0  0  0  0  0  0  0  0  0  0  0  0
  -30.4990   -3.4730  129.9891 C   0  0  0  0  0  0  0  0  0  0  0  0
  -32.6211   -4.7390  130.8032 C   0  0  0  0  0  0  0  0  0  0  0  0
  -29.2312   -2.9848  130.3960 C   0  0  0  0  0  0  0  0  0  0  0  0
  -28.7053   -1.8353  129.7813 C   0  0  0  0  0  0  0  0  0  0  0  0
  -33.1794   -2.9464  133.4409 C   0  0  0  0  0  0  0  0  0  0  0  0
  -29.3950   -1.2085  128.7408 C   0  0  0  0  0  0  0  0  0  0  0  0
  -30.6103   -1.7259  128.2954 C   0  0  0  0  0  0  0  0  0  0  0  0
  -28.4413   -3.6551  131.4896 C   0  0  0  0  0  0  0  0  0  0  0  0
  -31.1522   -2.8593  128.9026 C   0  0  0  0  0  0  0  0  0  0  0  0
  2  1  1  0
  3  2  1  0
  5  4  1  0
  6  5  1  0
  7  6  1  0
  8  5  1  0
  8  6  1  0
  9  7  4  0
 10  9  4  0
 11  2  1  0
 11  4  1  0
 12 10  4  0
 13 12  4  0
 14  9  1  0
 15  7  4  0
 15 13  4  0
M  END
$$$$

     RDKit          3D

 15 17  0  0  0  0  0  0  0  0999 V2000
  -21.5961    0.6426  144.3715 C   0  0  0  0  0  0  0  0  0  0  0  0
  -21.1081   -0.6735  147.1370 C   0  0  0  0  0  0  0  0  0  0  0  0
  -20.6732    1.7550  143.8242 C   0  0  0  0  0  0  0  0  0  0  0  0
  -23.4880   -1.1922  146.9420 C   0  0  0  0  0  0  0  0  0  0  0  0
  -22.4636   -0.5053  147.8259 C   0  0  0  0  0  0  0  0  0  0  0  0
  -22.6810   -2.2147  146.1498 C   0  0  0  0  0  0  0  0  0  0  0  0
  -19.1559    1.4537  143.6899 C   0  0  0  0  0  0  0  0  0  0  0  0
  -21.0390   -0.2608  145.5490 B   0  0  0  0  0  0  0  0  0  0  0  0
  -21.2299   -1.7521  146.1682 C   0  0  0  0  0  0  0  0  0  0  0  0
  -18.5398    0.4499  142.7738 N   0  0  0  0  0  0  0  0  0  0  0  0
  -18.5316    1.8961  142.4188 C   0  0  0  0  0  0  0  0  0  0  0  0
  -16.6982    2.6261  142.6149 As  0  0  0  0  0  3  0  0  0  0  0  0
  -19.7987   -1.6401  142.5350 C   0  0  0  0  0  0  0  0  0  0  0  0
  -19.4509   -0.3307  141.8883 C   0  0  0  0  0  0  0  0  0  0  0  0
  -19.4859   -2.7819  142.0532 N   0  0  0  0  0  0  0  0  0  0  0  0
  3  1  1  0
  5  2  1  0
  5  4  1  0
  6  4  1  0
  7  3  1  0
  8  1  1  0
  8  2  1  0
  9  2  1  0
  9  6  1  0
  9  8  1  0
 10  7  1  0
 11  7  1  0
 11 10  1  0
 12 11  1  0
 14 10  1  0
 14 13  1  0
 15 13  2  0
M  END
$$$$

     RDKit          3D

 10 11  0  0  0  0  0  0  0  0999 V2000
  -29.8655  -17.2964  142.5834 O   0  0  0  0  0  0  0  0  0  0  0  0
  -29.4971  -18.0578  143.7207 C   0  0  0  0  0  0  0  0  0  0  0  0
  -28.1383  -18.4329  143.6565 O   0  0  0  0  0  0  0  0  0  0  0  0
  -30.6854  -18.8924  144.1707 C   0  0  0  0  0  0  0  0  0  0  0  0
  -31.6146  -17.7397  144.5652 C   0  0  0  0  0  0  0  0  0  0  0  0
  -32.9632  -18.2781  145.9552 As  0  0  0  0  0  3  0  0  0  0  0  0
  -30.6576  -16.5957  145.0587 C   0  0  0  0  0  0  0  0  0  0  0  0
  -29.2701  -17.2044  144.9476 C   0  0  0  0  0  0  0  0  0  0  0  0
  -27.8296  -17.3577  144.5208 C   0  0  0  0  0  0  0  0  0  0  0  0
  -27.3738  -16.2290  143.8423 F   0  0  0  0  0  0  0  0  0  0  0  0
  2  1  1  0
  3  2  1  0
  4  2  1  0
  5  4  1  0
  6  5  1  0
  7  5  1  0
  8  2  1  0
  8  7  1  0
  9  3  1  0
  9  8  1  0
 10  9  1  0
M  END
$$$$

     RDKit          3D

  7  6  0  0  0  0  0  0  0  0999 V2000
  -22.3908    6.5555  137.3994 C   0  0  0  0  0  0  0  0  0  0  0  0
  -20.6154    6.2466  135.7759 O   0  0  0  0  0  0  0  0  0  0  0  0
  -24.1108    7.4938  136.1415 C   0  0  0  0  0  0  0  0  0  0  0  0
  -22.8130    7.6905  136.6582 O   0  0  0  0  0  0  0  0  0  0  0  0
  -20.8823    6.3401  137.1532 C   0  0  0  0  0  0  0  0  0  0  0  0
  -22.6340    6.7803  138.8259 N   0  0  0  0  0  0  0  0  0  0  0  0
  -20.3497    5.0964  137.8783 C   0  0  0  0  0  0  0  0  0  0  0  0
  4  1  1  0
  4  3  1  0
  5  1  1  0
  5  2  1  0
  6  1  1  0
  7  5  1  0
M  END
$$$$

     RDKit          3D

 15 18  0  0  0  0  0  0  0  0999 V2000
  -20.5957    4.1584  148.8268 O   0  0  0  0  0  0  0  0  0  0  0  0
  -21.1602    4.9218  147.7964 C   0  0  0  0  0  0  0  0  0  0  0  0
  -22.2797    4.1771  147.0957 C   0  0  0  0  0  0  0  0  0  0  0  0
  -21.4572    4.1185  145.8184 C   0  0  0  0  0  0  0  0  0  0  0  0
  -20.9522    5.4426  145.2793 C   0  0  0  0  0  0  0  0  0  0  0  0
  -20.0824    5.3417  144.0220 C   0  0  0  0  0  0  0  0  0  0  0  0
  -20.3163    4.8729  146.5311 C   0  0  0  0  0  0  0  0  0  0  0  0
  -20.9545    5.3855  142.7659 C   0  0  0  0  0  0  0  0  0  0  0  0
  -20.0726    5.3096  141.5057 C   0  0  0  0  0  0  0  0  0  0  0  0
  -19.6783    6.5910  140.7601 C   0  0  0  0  0  0  0  0  0  0  0  0
  -20.1568    7.9676  141.2888 C   0  0  0  0  0  0  0  0  0  0  0  0
  -21.6140    8.3669  140.9807 C   0  0  0  0  0  0  0  0  0  0  0  0
  -22.1924    7.6254  139.7812 C   0  0  0  0  0  0  0  0  0  0  0  0
  -22.1445    6.1208  140.0235 C   0  0  0  0  0  0  0  0  0  0  0  0
  -20.6940    5.6210  140.1351 C   0  0  0  0  0  0  0  0  0  0  0  0
  2  1  1  0
  3  2  1  0
  4  3  1  0
  5  4  1  0
  6  5  1  0
  7  2  1  0
  7  4  1  0
  7  5  1  0
  8  6  1  0
  9  8  1  0
 10  9  1  0
 11 10  1  0
 12 11  1  0
 13 12  1  0
 14 13  1  0
 15  9  1  0
 15 10  1  0
 15 14  1  0
M  END
$$$$

     RDKit          3D

 15 14  0  0  0  0  0  0  0  0999 V2000
  -23.7092  -19.5180  140.6900 O   0  0  0  0  0  0  0  0  0  0  0  0
  -22.9749  -18.3173  140.7285 C   0  0  0  0  0  0  0  0  0  0  0  0
  -21.7132  -18.5085  140.1227 O   0  0  0  0  0  0  0  0  0  0  0  0
  -23.7359  -17.1964  139.9657 C   0  0  0  0  0  0  0  0  0  0  0  0
  -25.2698  -17.2130  140.0968 C   0  0  0  0  0  0  0  0  0  0  0  0
  -25.7813  -16.8596  141.4791 C   0  0  0  0  0  0  0  0  0  0  0  0
  -22.7256  -17.9228  142.1929 C   0  0  0  0  0  0  0  0  0  0  0  0
  -25.6168  -15.4282  141.9613 C   0  0  0  0  0  0  0  0  0  0  0  0
  -26.9377  -14.6537  142.1623 C   0  0  0  0  0  0  0  0  0  0  0  0
  -29.3608  -14.8587  141.4525 C   0  0  0  0  0  0  0  0  0  0  0  0
  -27.8293  -13.4114  140.0838 C   0  0  0  0  0  0  0  0  0  0  0  0
  -27.9184  -14.6895  140.9524 C   0  0  0  0  0  0  0  0  0  0  0  0
  -26.5518  -13.3503  139.2438 C   0  0  0  0  0  0  0  0  0  0  0  0
  -26.3004  -17.8514  142.2453 C   0  0  0  0  0  0  0  0  0  0  0  0
  -26.7900  -17.6826  143.6521 C   0  0  0  0  0  0  0  0  0  0  0  0
  2  1  1  0
  3  2  1  0
  4  2  1  0
  5  4  1  0
  6  5  1  0
  7  2  1  0
  8  6  1  0
  9  8  1  0
 12  9  1  0
 12 10  1  0
 12 11  1  0
 13 11  1  0
 14  6  2  3
 15 14  1  0
M  END
$$$$

     RDKit          3D

 15 18  0  0  0  0  0  0  0  0999 V2000
  -22.6855  -11.6567  155.0384 O   0  0  0  0  0  0  0  0  0  0  0  0
  -23.6535  -12.6814  154.7755 C   0  0  0  0  0  0  0  0  0  0  0  0
  -24.3468  -11.3506  152.7713 O   0  0  0  0  0  0  0  0  0  0  0  0
  -24.4272  -12.9936  156.0619 C   0  0  0  0  0  0  0  0  0  0  0  0
  -23.5084  -14.0369  155.4737 C   0  0  0  0  0  0  0  0  0  0  0  0
  -24.6270  -12.5307  153.5284 C   0  0  0  0  0  0  0  0  0  0  0  0
  -21.7320  -11.3186  152.6227 C   0  0  0  0  0  0  0  0  0  0  0  0
  -20.6362  -11.7661  153.5881 C   0  0  0  0  0  0  0  0  0  0  0  0
  -21.6037  -11.4030  151.2369 O   0  0  0  0  0  0  0  0  0  0  0  0
  -22.9212  -11.2809  150.6365 C   0  0  0  0  0  0  0  0  0  0  0  0
  -24.3284  -11.5220  151.3418 C   0  0  0  0  0  0  0  0  0  0  0  0
  -21.2845  -12.0259  154.9962 C   0  0  0  0  0  0  0  0  0  0  0  0
  -20.7406  -13.1919  154.1565 C   0  0  0  0  0  0  0  0  0  0  0  0
  -23.5995  -12.6583  150.6180 C   0  0  0  0  0  0  0  0  0  0  0  0
  -19.4111  -13.7607  154.6447 C   0  0  0  0  0  0  0  0  0  0  0  0
  2  1  1  0
  4  2  1  0
  5  2  1  0
  5  4  1  0
  6  2  1  0
  6  3  1  0
  8  7  1  0
  9  7  1  0
 10  9  1  0
 11  3  1  0
 11 10  1  0
 12  1  1  0
 12  8  1  0
 13  8  1  0
 13 12  1  0
 14 10  1  0
 14 11  1  0
 15 13  1  0
M  END
$$$$

     RDKit          3D

 15 19  0  0  0  0  0  0  0  0999 V2000
  -30.6391   -2.4912  134.2640 Al  0  0  0  0  0  3  0  0  0  0  0  0
  -28.1773   -2.1413  131.8659 C   0  0  0  0  0  0  0  0  0  0  0  0
  -28.2327   -3.3562  135.5734 C   0  0  0  0  0  0  0  0  0  0  0  0
  -26.5034   -4.5940  133.2057 N   0  0  0  0  0  0  0  0  0  0  0  0
  -26.3743   -3.1390  133.3656 C   0  0  0  0  0  0  0  0  0  0  0  0
  -27.9603   -4.8158  135.2285 C   0  0  0  0  0  0  0  0  0  0  0  0
  -27.7740   -5.1195  133.7327 C   0  0  0  0  0  0  0  0  0  0  0  0
  -25.0479   -2.5844  133.0965 C   0  0  0  0  0  0  0  0  0  0  0  0
  -27.6029   -0.9156  132.6290 C   0  0  0  0  0  0  0  0  0  0  0  0
  -28.5899   -0.7271  131.5165 C   0  0  0  0  0  0  0  0  0  0  0  0
  -25.5029   -2.8081  134.5078 N   0  0  0  0  0  0  0  0  0  0  0  0
  -24.6272   -1.6810  134.1573 C   0  0  0  0  0  0  0  0  0  0  0  0
  -28.1844   -3.0048  136.8707 C   0  0  0  0  0  0  0  0  0  0  0  0
  -27.6600   -2.2760  133.3013 C   0  0  0  0  0  0  0  0  0  0  0  0
  -28.6325   -2.3123  134.5314 C   0  0  0  0  0  0  0  0  0  0  0  0
  5  4  1  0
  6  3  1  0
  7  4  1  0
  7  6  1  0
  8  5  1  0
  9  2  1  0
 10  2  1  0
 10  9  1  0
 11  5  1  0
 11  8  1  0
 12  8  1  0
 12 11  1  0
 13  3  2  0
 14  2  1  0
 14  5  1  0
 14  9  1  0
 15  1  1  0
 15  3  1  0
 15 14  1  0
M  END
$$$$

     RDKit          3D

 15 17  0  0  0  0  0  0  0  0999 V2000
  -33.8389   -4.9608  143.6571 O   0  0  0  0  0  0  0  0  0  0  0  0
  -33.4303   -4.4396  144.9063 C   0  0  0  0  0  0  0  0  0  0  0  0
  -33.4680   -3.0281  144.8942 O   0  0  0  0  0  0  0  0  0  0  0  0
  -32.0125   -4.9222  145.2642 C   0  0  0  0  0  0  0  0  0  0  0  0
  -32.2156   -7.1249  144.2910 O   0  0  0  0  0  0  0  0  0  0  0  0
  -30.5938   -6.8957  146.0961 C   0  0  0  0  0  0  0  0  0  0  0  0
  -29.1446   -6.2897  144.0131 C   0  0  0  0  0  0  0  0  0  0  0  0
  -29.4998   -7.3454  145.0807 C   0  0  0  0  0  0  0  0  0  0  0  0
  -31.9517   -6.4461  145.4932 C   0  0  0  0  0  0  0  0  0  0  0  0
  -28.2460   -7.8744  145.7951 C   0  0  0  0  0  0  0  0  0  0  0  0
  -29.7310   -8.7457  144.4917 C   0  0  0  0  0  0  0  0  0  0  0  0
  -28.4811   -9.2529  145.1956 C   0  0  0  0  0  0  0  0  0  0  0  0
  -33.7196   -3.9058  142.7504 C   0  0  0  0  0  0  0  0  0  0  0  0
  -33.4840   -2.6638  143.5444 C   0  0  0  0  0  0  0  0  0  0  0  0
  -34.8200   -2.8590  142.8329 C   0  0  0  0  0  0  0  0  0  0  0  0
  2  1  1  0
  3  2  1  0
  4  2  1  0
  8  6  1  0
  8  7  1  0
  9  4  1  0
  9  5  1  0
  9  6  1  0
 10  8  1  0
 11  8  1  0
 12 10  1  0
 12 11  1  0
 13  1  1  0
 14  3  1  0
 14 13  1  0
 15 13  1  0
 15 14  1  0
M  END
$$$$

     RDKit          3D

 15 17  0  0  0  0  0  0  0  0999 V2000
  -20.3324   -5.3301  139.7157 C   0  0  0  0  0  0  0  0  0  0  0  0
  -19.5004   -5.6092  137.3450 C   0  0  0  0  0  0  0  0  0  0  0  0
  -20.4666   -6.7379  140.3400 C   0  0  0  0  0  0  0  0  0  0  0  0
  -18.8605   -4.8738  136.1400 C   0  0  0  0  0  0  0  0  0  0  0  0
  -21.7712   -6.8337  141.1474 C   0  0  0  0  0  0  0  0  0  0  0  0
  -19.9220   -4.6091  135.1248 C   0  0  0  0  0  0  0  0  0  0  0  0
  -22.0137   -8.1746  141.8405 C   0  0  0  0  0  0  0  0  0  0  0  0
  -19.3336   -3.4126  135.9524 C   0  0  0  0  0  0  0  0  0  0  0  0
  -19.1810   -5.1452  138.7015 C   0  0  0  0  0  0  0  0  0  0  0  0
  -22.4242   -9.3625  140.9310 C   0  0  0  0  0  0  0  0  0  0  0  0
  -23.9417   -9.4756  140.6401 C   0  0  0  0  0  0  0  0  0  0  0  0
  -24.5467   -8.2533  139.9245 C   0  0  0  0  0  0  0  0  0  0  0  0
  -19.6552   -2.1893  135.0587 C   0  0  0  0  0  0  0  0  0  0  0  0
  -18.5589   -6.3851  138.1915 N   0  0  0  0  0  0  0  0  0  0  0  0
  -18.2379   -2.6845  135.1069 C   0  0  0  0  0  0  0  0  0  0  0  0
  3  1  1  0
  4  2  1  0
  5  3  1  0
  6  4  1  0
  7  5  1  0
  8  4  1  0
  8  6  1  0
  9  1  1  0
  9  2  1  0
 10  7  1  0
 11 10  1  0
 12 11  1  0
 13  8  1  0
 14  2  1  0
 14  9  1  0
 15  8  1  0
 15 13  1  0
M  END
$$$$

     RDKit          3D

 14 15  0  0  0  0  0  0  0  0999 V2000
  -29.0813  -10.2416  152.0645 N   0  0  0  0  0  0  0  0  0  0  0  0
  -27.8703   -9.9770  152.8579 C   0  0  0  0  0  0  0  0  0  0  0  0
  -29.1286   -9.3957  153.3014 C   0  0  0  0  0  0  0  0  0  0  0  0
  -27.4629  -11.1370  153.6578 N   0  0  0  0  0  0  0  0  0  0  0  0
  -30.2468  -10.2750  152.9655 C   0  0  0  0  0  0  0  0  0  0  0  0
  -27.1831  -12.7144  151.7498 C   0  0  0  0  0  0  0  0  0  0  0  0
  -26.5241  -12.0362  152.9578 C   0  0  0  0  0  0  0  0  0  0  0  0
  -25.2100  -11.3406  152.5641 C   0  0  0  0  0  0  0  0  0  0  0  0
  -31.2210   -8.8018  151.2613 O   0  0  0  0  0  0  0  0  0  0  0  0
  -31.5103   -9.5793  152.4001 C   0  0  0  0  0  0  0  0  0  0  0  0
  -32.6204  -10.6005  152.0756 C   0  0  0  0  0  0  0  0  0  0  0  0
  -33.2155  -11.3312  153.3754 B   0  0  0  0  0  0  0  0  0  0  0  0
  -33.9333  -10.5333  154.4582 N   0  0  0  0  0  0  0  0  0  0  0  0
  -33.1027  -12.9109  153.5141 C   0  0  0  0  0  0  0  0  0  0  0  0
  2  1  1  0
  3  1  1  0
  3  2  1  0
  4  2  1  0
  5  1  1  0
  5  3  1  0
  7  4  1  0
  7  6  1  0
  8  7  1  0
 10  5  1  0
 10  9  1  0
 11 10  1  0
 12 11  1  0
 13 12  1  0
 14 12  1  0
M  END
$$$$

     RDKit          3D

 14 16  0  0  0  0  0  0  0  0999 V2000
  -32.0767  -10.8001  145.4069 Se  0  0  0  0  0  2  0  0  0  0  0  0
  -29.7075  -13.2793  144.5204 O   0  0  0  0  0  0  0  0  0  0  0  0
  -29.0679  -11.2797  149.1638 O   0  0  0  0  0  0  0  0  0  0  0  0
  -29.3539  -12.5923  149.5796 C   0  0  0  0  0  0  0  0  0  0  0  0
  -29.4278  -12.6979  150.9796 O   0  0  0  0  0  0  0  0  0  0  0  0
  -30.7086  -12.6041  148.9194 C   0  0  0  0  0  0  0  0  0  0  0  0
  -30.6794  -12.1981  147.4587 C   0  0  0  0  0  0  0  0  0  0  0  0
  -32.4501  -13.1984  145.7874 C   0  0  0  0  0  0  0  0  0  0  0  0
  -30.3234  -11.1714  148.5304 C   0  0  0  0  0  0  0  0  0  0  0  0
  -31.5159  -14.4315  145.6418 C   0  0  0  0  0  0  0  0  0  0  0  0
  -32.0692  -12.1114  146.8011 C   0  0  0  0  0  0  0  0  0  0  0  0
  -30.5620  -14.3847  144.4388 C   0  0  0  0  0  0  0  0  0  0  0  0
  -31.2784  -10.1067  149.0987 C   0  0  0  0  0  0  0  0  0  0  0  0
  -32.5039  -12.4208  144.6119 O   0  0  0  0  0  0  0  0  0  0  0  0
  4  3  1  0
  5  4  1  0
  6  4  1  0
  7  6  1  0
  9  3  1  0
  9  6  1  0
  9  7  1  0
 10  8  1  0
 11  1  1  0
 11  7  1  0
 11  8  1  0
 12  2  1  0
 12 10  1  0
 13  9  1  0
 14  1  1  0
 14  8  1  0
M  END
$$$$

     RDKit          3D

 13 16  0  0  0  0  0  0  0  0999 V2000
  -32.9224  -11.2427  130.4042 O   0  0  0  0  0  0  0  0  0  0  0  0
  -30.5901  -10.4298  130.2695 C   0  0  0  0  0  0  0  0  0  0  0  0
  -30.2606  -10.0141  131.7155 C   0  0  0  0  0  0  0  0  0  0  0  0
  -31.5996  -11.5373  130.0416 C   0  0  0  0  0  0  0  0  0  0  0  0
  -30.1395  -11.1109  132.7871 C   0  0  0  0  0  0  0  0  0  0  0  0
  -27.0172  -10.4058  132.6971 C   0  0  0  0  0  0  0  0  0  0  0  0
  -32.0524  -10.1614  130.5468 C   0  0  0  0  0  0  0  0  0  0  0  0
  -27.7854  -11.1410  133.8209 C   0  0  0  0  0  0  0  0  0  0  0  0
  -29.2561  -10.7129  133.9885 C   0  0  0  0  0  0  0  0  0  0  0  0
  -25.6698  -11.0960  132.4475 C   0  0  0  0  0  0  0  0  0  0  0  0
  -31.6387  -10.9624  133.0750 C   0  0  0  0  0  0  0  0  0  0  0  0
  -31.7309   -9.8521  132.0180 C   0  0  0  0  0  0  0  0  0  0  0  0
  -26.7828   -8.9260  133.0375 C   0  0  0  0  0  0  0  0  0  0  0  0
  3  2  1  0
  4  1  1  0
  4  2  1  0
  5  3  1  0
  7  1  1  0
  7  2  1  0
  7  4  1  0
  8  6  1  0
  9  5  1  0
  9  8  1  0
 10  6  1  0
 11  5  1  0
 12  3  1  0
 12  7  1  0
 12 11  1  0
 13  6  1  0
M  END
$$$$

     RDKit          3D

 11 13  0  0  0  0  0  0  0  0999 V2000
  -28.6632  -19.6357  145.8685 F   0  0  0  0  0  0  0  0  0  0  0  0
  -27.3426  -19.5994  145.4569 C   0  0  0  0  0  0  0  0  0  0  0  0
  -27.7787  -19.0268  142.9271 C   0  0  0  0  0  0  0  0  0  0  0  0
  -28.7251  -20.2164  142.8108 C   0  0  0  0  0  0  0  0  0  0  0  0
  -28.3578  -21.0799  141.6179 C   0  0  0  0  0  0  0  0  0  0  0  0
  -27.1731  -18.6206  144.2893 C   0  0  0  0  0  0  0  0  0  0  0  0
  -27.1392  -20.5388  140.8975 C   0  0  0  0  0  0  0  0  0  0  0  0
  -27.4547  -19.4372  139.8736 C   0  0  0  0  0  0  0  0  0  0  0  0
  -27.2624  -20.3658  142.4108 C   0  0  0  0  0  0  0  0  0  0  0  0
  -26.2715  -18.4875  139.7183 C   0  0  0  0  0  0  0  0  0  0  0  0
  -26.2653  -21.5345  140.4980 F   0  0  0  0  0  0  0  0  0  0  0  0
  2  1  1  0
  4  3  1  0
  5  4  1  0
  6  2  1  0
  6  3  1  0
  7  5  1  0
  8  7  1  0
  9  3  1  0
  9  4  1  0
  9  5  1  0
  9  7  1  0
 10  8  1  0
 11  7  1  0
M  END
$$$$

     RDKit          3D

 15 19  0  0  0  0  0  0  0  0999 V2000
  -23.9081  -20.1178  130.8211 N   0  0  0  0  0  0  0  0  0  0  0  0
  -22.8593  -19.0984  130.8444 C   0  0  0  0  0  0  0  0  0  0  0  0
  -22.9429  -18.2952  129.6213 N   0  0  0  0  0  0  0  0  0  0  0  0
  -21.5392  -19.7496  130.9245 N   0  0  0  0  0  0  0  0  0  0  0  0
  -20.3730  -18.8497  130.7510 C   0  0  0  0  0  0  0  0  0  0  0  0
  -19.5622  -18.6269  132.0385 C   0  0  0  0  0  0  0  0  0  0  0  0
  -20.6817  -17.4489  130.2901 C   0  0  0  0  0  0  0  0  0  0  0  0
  -19.5076  -17.1206  132.4734 C   0  0  0  0  0  0  0  0  0  0  0  0
  -19.9780  -16.4269  131.1570 C   0  0  0  0  0  0  0  0  0  0  0  0
  -20.0976  -14.4568  133.0123 Cl  0  0  0  0  0  0  0  0  0  0  0  0
  -20.2522  -18.2219  133.2825 C   0  0  0  0  0  0  0  0  0  0  0  0
  -20.6334  -16.0487  132.4230 C   0  0  0  0  0  0  0  0  0  0  0  0
  -22.0684  -17.1301  129.7428 C   0  0  0  0  0  0  0  0  0  0  0  0
  -20.8716  -17.1959  128.7912 C   0  0  0  0  0  0  0  0  0  0  0  0
  -20.4398  -15.8369  128.2349 C   0  0  0  0  0  0  0  0  0  0  0  0
  2  1  1  0
  3  2  1  0
  4  2  1  0
  5  4  1  0
  6  5  1  0
  7  5  1  0
  8  6  1  0
  9  7  1  0
  9  8  1  0
 11  6  1  0
 11  8  1  0
 12  8  1  0
 12  9  1  0
 12 10  1  0
 13  3  1  0
 13  7  1  0
 14  7  1  0
 14 13  1  0
 15 14  1  0
M  END
$$$$

     RDKit          3D

 15 15  0  0  0  0  0  0  0  0999 V2000
  -19.4240   -8.5566  143.2230 O   0  0  0  0  0  0  0  0  0  0  0  0
  -18.1242   -8.1285  142.8286 C   0  0  0  0  0  0  0  0  0  0  0  0
  -17.3523   -8.0418  143.9948 O   0  0  0  0  0  0  0  0  0  0  0  0
  -20.4284   -8.1664  142.3038 C   0  0  0  0  0  0  0  0  0  0  0  0
  -16.8722   -8.3079  140.7438 C   0  0  0  0  0  0  0  0  0  0  0  0
  -18.3771  -10.1331  141.3447 C   0  0  0  0  0  0  0  0  0  0  0  0
  -17.7381  -11.3114  140.5686 C   0  0  0  0  0  0  0  0  0  0  0  0
  -18.7859  -12.3260  139.9633 C   0  0  0  0  0  0  0  0  0  0  0  0
  -19.9077  -10.8553  138.1200 C   0  0  0  0  0  0  0  0  0  0  0  0
  -20.0978  -12.4298  140.7832 C   0  0  0  0  0  0  0  0  0  0  0  0
  -20.7079  -13.8164  140.9446 C   0  0  0  0  0  0  0  0  0  0  0  0
  -19.9428  -13.1802  142.0967 C   0  0  0  0  0  0  0  0  0  0  0  0
  -19.0869  -12.0981  138.4662 C   0  0  0  0  0  0  0  0  0  0  0  0
  -17.4560   -9.0788  141.8636 N   0  0  0  0  0  0  0  0  0  0  0  0
  -22.2433  -13.7643  141.0087 C   0  0  0  0  0  0  0  0  0  0  0  0
  2  1  1  0
  3  2  1  0
  4  1  1  0
  7  6  1  0
  8  7  1  0
 10  8  1  0
 11 10  1  0
 12 10  1  0
 12 11  1  0
 13  8  1  0
 13  9  1  0
 14  2  1  0
 14  5  1  0
 14  6  1  0
 15 11  1  0
M  END
$$$$

     RDKit          3D

 15 16  0  0  0  0  0  0  0  0999 V2000
  -23.9814  -21.7978  140.8173 C   0  0  0  0  0  0  0  0  0  0  0  0
  -24.8384  -20.8878  140.0388 N   0  0  0  0  0  0  0  0  0  0  0  0
  -23.3973  -22.9779  139.9830 C   0  0  0  0  0  0  0  0  0  0  0  0
  -22.9132  -20.9641  141.5721 C   0  0  0  0  0  0  0  0  0  0  0  0
  -22.9842  -22.5791  143.6010 C   0  0  0  0  0  0  0  0  0  0  0  0
  -20.8934  -22.4366  142.2009 C   0  0  0  0  0  0  0  0  0  0  0  0
  -22.1221  -21.6742  142.7092 C   0  0  0  0  0  0  0  0  0  0  0  0
  -23.4147  -22.8708  138.4646 C   0  0  0  0  0  0  0  0  0  0  0  0
  -26.0302  -21.5544  139.6816 N   0  0  0  0  0  0  0  0  0  0  0  0
  -22.2979  -21.9905  137.9228 C   0  0  0  0  0  0  0  0  0  0  0  0
  -22.0972  -22.7210  139.2382 C   0  0  0  0  0  0  0  0  0  0  0  0
  -21.5022  -22.5530  136.7629 C   0  0  0  0  0  0  0  0  0  0  0  0
  -22.1806  -23.0353  135.4989 C   0  0  0  0  0  0  0  0  0  0  0  0
  -23.5409  -22.6912  135.4766 O   0  0  0  0  0  0  0  0  0  0  0  0
  -20.1597  -22.5526  136.8252 C   0  0  0  0  0  0  0  0  0  0  0  0
  2  1  1  0
  3  1  1  0
  4  1  1  0
  7  4  1  0
  7  5  1  0
  7  6  1  0
  8  3  1  0
  9  2  1  0
 10  8  1  0
 11  3  1  0
 11  8  1  0
 11 10  1  0
 12 10  1  0
 13 12  1  0
 14 13  1  0
 15 12  2  0
M  END
$$$$

     RDKit          3D

 15 15  0  0  0  0  0  0  0  0999 V2000
  -18.3122   -3.9730  138.9097 C   0  0  0  0  0  0  0  0  0  0  0  0
  -19.1089   -3.4285  140.0733 C   0  0  0  0  0  0  0  0  0  0  0  0
  -18.6114   -3.6966  137.6313 C   0  0  0  0  0  0  0  0  0  0  0  0
  -19.7747   -2.8198  137.2321 C   0  0  0  0  0  0  0  0  0  0  0  0
  -19.6222   -1.9082  136.0110 C   0  0  0  0  0  0  0  0  0  0  0  0
  -18.3030   -1.9323  135.2180 C   0  0  0  0  0  0  0  0  0  0  0  0
  -19.5179   -1.3251  137.4117 C   0  0  0  0  0  0  0  0  0  0  0  0
  -18.5844   -3.9337  141.4354 C   0  0  0  0  0  0  0  0  0  0  0  0
  -18.8288   -5.4386  141.6092 C   0  0  0  0  0  0  0  0  0  0  0  0
  -19.2583   -3.1599  142.5772 C   0  0  0  0  0  0  0  0  0  0  0  0
  -18.1196   -0.6139  134.4594 C   0  0  0  0  0  0  0  0  0  0  0  0
  -17.0280   -0.6798  133.3792 C   0  0  0  0  0  0  0  0  0  0  0  0
  -15.1426   -2.3449  133.8680 C   0  0  0  0  0  0  0  0  0  0  0  0
  -14.6773   -0.0683  133.2527 O   0  0  0  0  0  0  0  0  0  0  0  0
  -15.5956   -0.8802  133.9431 C   0  0  0  0  0  0  0  0  0  0  0  0
  2  1  1  0
  3  1  2  3
  4  3  1  0
  5  4  1  0
  6  5  1  0
  7  4  1  0
  7  5  1  0
  8  2  1  0
  9  8  1  0
 10  8  1  0
 11  6  1  0
 12 11  1  0
 15 12  1  0
 15 13  1  0
 15 14  1  0
M  END
$$$$

     RDKit          3D

 10 12  0  0  0  0  0  0  0  0999 V2000
  -30.9216    1.1536  138.2249 C   0  0  0  0  0  0  0  0  0  0  0  0
  -31.2558    2.5967  138.1350 N   0  0  0  0  0  0  0  0  0  0  0  0
  -30.6791    3.3302  136.9889 C   0  0  0  0  0  0  0  0  0  0  0  0
  -29.7187    2.7071  136.0468 C   0  0  0  0  0  0  0  0  0  0  0  0
  -29.4836    1.2272  136.2285 C   0  0  0  0  0  0  0  0  0  0  0  0
  -29.2705    3.5226  137.2204 N   0  0  0  0  0  2  0  0  0  0  0  0
  -28.5288    2.8234  135.1058 C   0  0  0  0  0  0  0  0  0  0  0  0
  -28.1574    1.3733  135.4767 C   0  0  0  0  0  0  0  0  0  0  0  0
  -29.5181    0.7984  137.6920 C   0  0  0  0  0  0  0  0  0  0  0  0
  -31.2944    4.5286  136.6270 O   0  0  0  0  0  1  0  0  0  0  0  0
  2  1  1  0
  3  2  1  0
  4  3  1  0
  5  4  1  0
  6  3  1  0
  6  4  1  0
  7  4  1  0
  8  5  1  0
  8  7  1  0
  9  1  1  0
  9  5  1  0
 10  3  1  0
M  RAD  2   6   2  10   2
M  END
$$$$

     RDKit          3D

 15 16  0  0  0  0  0  0  0  0999 V2000
  -27.9698   -8.0761  141.2366 N   0  0  0  0  0  0  0  0  0  0  0  0
  -26.8836  -10.1067  141.7090 C   0  0  0  0  0  0  0  0  0  0  0  0
  -28.2178  -10.6124  142.1680 N   0  0  0  0  0  0  0  0  0  0  0  0
  -28.3119  -11.4448  143.4020 C   0  0  0  0  0  0  0  0  0  0  0  0
  -26.8199   -8.6395  141.8257 N   0  0  0  0  0  0  0  0  0  0  0  0
  -29.3521  -11.4024  145.5476 O   0  0  0  0  0  0  0  0  0  0  0  0
  -27.1912  -10.3802  145.4823 C   0  0  0  0  0  0  0  0  0  0  0  0
  -26.0644   -9.6848  144.7081 C   0  0  0  0  0  0  0  0  0  0  0  0
  -28.5235  -10.6209  144.7121 C   0  0  0  0  0  0  0  0  0  0  0  0
  -25.3001  -10.6770  143.8203 C   0  0  0  0  0  0  0  0  0  0  0  0
  -29.0461  -11.1418  141.0570 C   0  0  0  0  0  0  0  0  0  0  0  0
  -25.6650  -10.8443  142.3441 C   0  0  0  0  0  0  0  0  0  0  0  0
  -24.4290  -10.0336  142.7483 C   0  0  0  0  0  0  0  0  0  0  0  0
  -28.5621  -12.5063  140.5461 C   0  0  0  0  0  0  0  0  0  0  0  0
  -29.2615   -9.2897  144.4350 C   0  0  0  0  0  0  0  0  0  0  0  0
  3  2  1  0
  4  3  1  0
  5  1  1  0
  5  2  1  0
  8  7  1  0
  9  4  1  0
  9  6  1  0
  9  7  1  0
 10  8  1  0
 11  3  1  0
 12  2  1  0
 12 10  1  0
 13 10  1  0
 13 12  1  0
 14 11  1  0
 15  9  1  0
M  END
$$$$

     RDKit          3D

 15 15  0  0  0  0  0  0  0  0999 V2000
  -25.5102  -11.5492  152.6779 C   0  0  0  0  0  0  0  0  0  0  0  0
  -25.7484  -10.2263  153.2705 N   0  0  0  0  0  0  0  0  0  0  0  0
  -25.1327  -12.4800  153.6595 O   0  0  0  0  0  0  0  0  0  0  0  0
  -25.3532   -9.2124  152.2846 C   0  0  0  0  0  0  0  0  0  0  0  0
  -24.4132  -11.3510  151.6443 C   0  0  0  0  0  0  0  0  0  0  0  0
  -27.0456   -9.9874  153.9513 C   0  0  0  0  0  0  0  0  0  0  0  0
  -28.2964  -10.6119  153.3007 C   0  0  0  0  0  0  0  0  0  0  0  0
  -24.6293   -9.9330  151.1498 C   0  0  0  0  0  0  0  0  0  0  0  0
  -28.5930   -9.9912  151.6077 S   0  0  0  0  0  0  0  0  0  0  0  0
  -30.0334  -11.0615  151.2454 C   0  0  0  0  0  0  0  0  0  0  0  0
  -29.8445  -11.8222  149.9266 C   0  0  0  0  0  0  0  0  0  0  0  0
  -28.7854  -12.9443  150.0180 C   0  0  0  0  0  0  0  0  0  0  0  0
  -27.4177  -12.5457  149.4374 C   0  0  0  0  0  0  0  0  0  0  0  0
  -27.3936  -12.5979  147.9075 C   0  0  0  0  0  0  0  0  0  0  0  0
  -25.7605  -12.0860  147.2883 S   0  0  0  0  0  0  0  0  0  0  0  0
  2  1  1  0
  3  1  1  0
  4  2  1  0
  5  1  1  0
  6  2  1  0
  7  6  1  0
  8  4  1  0
  8  5  1  0
  9  7  1  0
 10  9  1  0
 11 10  1  0
 12 11  1  0
 13 12  1  0
 14 13  1  0
 15 14  1  0
M  END
$$$$

     RDKit          3D

 14 18  0  0  0  0  0  0  0  0999 V2000
  -25.2535   -6.1893  133.9447 N   0  0  0  0  0  0  0  0  0  0  0  0
  -25.4353   -6.7313  132.5522 C   0  0  0  0  0  0  0  0  0  0  0  0
  -24.9134   -8.1121  132.3003 N   0  0  0  0  0  0  0  0  0  0  0  0
  -26.4113   -6.9921  133.6484 C   0  0  0  0  0  0  0  0  0  0  0  0
  -24.0335   -7.0003  132.1591 C   0  0  0  0  0  0  0  0  0  0  0  0
  -23.5095   -8.2534  132.7997 C   0  0  0  0  0  0  0  0  0  0  0  0
  -22.3795   -8.5445  131.8251 C   0  0  0  0  0  0  0  0  0  0  0  0
  -20.9917   -8.4370  132.5113 C   0  0  0  0  0  0  0  0  0  0  0  0
  -20.7642   -7.0690  133.1850 C   0  0  0  0  0  0  0  0  0  0  0  0
  -20.8974   -5.9866  132.2038 N   0  0  0  0  0  0  0  0  0  0  0  0
  -22.4271   -9.6867  130.8595 C   0  0  0  0  0  0  0  0  0  0  0  0
  -23.3771   -9.5371  129.6709 C   0  0  0  0  0  0  0  0  0  0  0  0
  -19.3946   -7.0165  133.8705 C   0  0  0  0  0  0  0  0  0  0  0  0
  -23.3178  -10.0925  132.4261 P   0  0  0  0  0  0  0  0  0  0  0  0
  2  1  1  0
  3  2  1  0
  4  1  1  0
  4  2  1  0
  5  2  1  0
  5  3  1  0
  6  3  1  0
  6  5  1  0
  7  6  1  0
  8  7  1  0
  9  8  1  0
 10  9  1  0
 11  7  1  0
 12 11  1  0
 13  9  1  0
 14  6  1  0
 14  7  1  0
 14 11  1  0
M  END
$$$$

     RDKit          3D

 14 17  0  0  0  0  0  0  0  0999 V2000
  -19.8838   -2.6806  132.9075 C   0  0  0  0  0  0  0  0  0  0  0  0
  -20.4058   -2.2114  134.2918 C   0  0  0  0  0  0  0  0  0  0  0  0
  -20.6448   -0.7731  134.5072 N   0  0  0  0  0  0  0  0  0  0  0  0
  -20.2070    0.1660  133.4506 C   0  0  0  0  0  0  0  0  0  0  0  0
  -21.2837    0.9991  132.8401 N   0  0  0  0  0  0  0  0  0  0  0  0
  -22.5641    0.7564  133.4078 N   0  0  0  0  0  0  0  0  0  0  0  0
  -20.3448    1.5771  133.8369 C   0  0  0  0  0  0  0  0  0  0  0  0
  -19.3643   -2.2916  135.3982 C   0  0  0  0  0  0  0  0  0  0  0  0
  -19.6656   -0.7943  135.6092 C   0  0  0  0  0  0  0  0  0  0  0  0
  -20.8831   -5.0688  132.8331 C   0  0  0  0  0  0  0  0  0  0  0  0
  -18.2486   -1.2740  135.3319 C   0  0  0  0  0  0  0  0  0  0  0  0
  -19.1478   -4.7644  131.5802 C   0  0  0  0  0  0  0  0  0  0  0  0
  -19.6248   -4.1983  132.9195 C   0  0  0  0  0  0  0  0  0  0  0  0
  -20.3539   -5.6946  131.5456 C   0  0  0  0  0  0  0  0  0  0  0  0
  2  1  1  0
  3  2  1  0
  4  3  1  0
  5  4  1  0
  6  5  1  0
  7  4  1  0
  7  5  1  0
  8  2  1  0
  9  3  1  0
  9  8  1  0
 11  8  1  0
 11  9  1  0
 13  1  1  0
 13 10  1  0
 13 12  1  0
 14 10  1  0
 14 12  1  0
M  END
$$$$

     RDKit          3D

 15 15  0  0  0  0  0  0  0  0999 V2000
  -20.4183   -0.4438  144.1651 C   0  0  0  0  0  0  0  0  0  0  0  0
  -19.8920   -0.3552  142.8603 O   0  0  0  0  0  0  0  0  0  0  0  0
  -19.5062    0.0177  145.1385 O   0  0  0  0  0  0  0  0  0  0  0  0
  -22.2227    0.4840  142.5208 C   0  0  0  0  0  0  0  0  0  0  0  0
  -22.2901   -0.7319  141.5648 C   0  0  0  0  0  0  0  0  0  0  0  0
  -20.8407    0.6249  143.2254 C   0  0  0  0  0  0  0  0  0  0  0  0
  -22.3719    1.6152  141.7321 F   0  0  0  0  0  0  0  0  0  0  0  0
  -22.3111   -1.9262  142.2619 F   0  0  0  0  0  0  0  0  0  0  0  0
  -23.3859    0.4600  143.5700 C   0  0  0  0  0  0  0  0  0  0  0  0
  -23.3480    1.6744  144.5098 C   0  0  0  0  0  0  0  0  0  0  0  0
  -24.7076    0.4079  142.9344 N   0  0  0  0  0  0  0  0  0  0  0  0
  -18.7447   -1.0390  145.7063 C   0  0  0  0  0  0  0  0  0  0  0  0
  -20.2153   -2.9629  145.8464 F   0  0  0  0  0  0  0  0  0  0  0  0
  -19.5830   -1.9827  146.5924 C   0  0  0  0  0  0  0  0  0  0  0  0
  -17.8842   -1.7921  144.6778 C   0  0  0  0  0  0  0  0  0  0  0  0
  2  1  1  0
  3  1  1  0
  5  4  1  0
  6  1  1  0
  6  2  1  0
  6  4  1  0
  7  4  1  0
  8  5  1  0
  9  4  1  0
 10  9  1  0
 11  9  1  0
 12  3  1  0
 14 12  1  0
 14 13  1  0
 15 12  1  0
M  END
$$$$

     RDKit          3D

 11 13  0  0  0  0  0  0  0  0999 V2000
  -25.9395  -10.0155  151.1919 C   0  0  0  0  0  0  0  0  0  0  0  0
  -27.3687  -10.5112  151.0241 C   0  0  0  0  0  0  0  0  0  0  0  0
  -27.8515  -10.5346  149.5687 C   0  0  0  0  0  0  0  0  0  0  0  0
  -26.2593  -11.4868  151.3914 C   0  0  0  0  0  0  0  0  0  0  0  0
  -29.2954  -11.0559  149.5060 C   0  0  0  0  0  0  0  0  0  0  0  0
  -29.5753  -12.5602  149.4659 C   0  0  0  0  0  0  0  0  0  0  0  0
  -28.3818  -13.5366  149.4787 C   0  0  0  0  0  0  0  0  0  0  0  0
  -29.6787  -11.7284  148.1925 C   0  0  0  0  0  0  0  0  0  0  0  0
  -28.2000  -14.2762  150.7991 C   0  0  0  0  0  0  0  0  0  0  0  0
  -28.6796  -15.0360  149.5675 C   0  0  0  0  0  0  0  0  0  0  0  0
  -30.1423  -15.4943  149.5924 C   0  0  0  0  0  0  0  0  0  0  0  0
  2  1  1  0
  3  2  1  0
  4  1  1  0
  4  2  1  0
  5  3  1  0
  6  5  1  0
  7  6  1  0
  8  5  1  0
  8  6  1  0
  9  7  1  0
 10  7  1  0
 10  9  1  0
 11 10  1  0
M  END
$$$$

     RDKit          3D

 15 15  0  0  0  0  0  0  0  0999 V2000
  -23.2960   -4.5454  131.8618 O   0  0  0  0  0  0  0  0  0  0  0  0
  -21.9133   -4.6808  132.0629 C   0  0  0  0  0  0  0  0  0  0  0  0
  -21.5116   -4.4643  133.5131 C   0  0  0  0  0  0  0  0  0  0  0  0
  -18.4759   -2.0926  133.8106 C   0  0  0  0  0  0  0  0  0  0  0  0
  -21.1328   -3.4418  131.6454 C   0  0  0  0  0  0  0  0  0  0  0  0
  -19.5372    0.1452  133.9686 N   0  0  0  0  0  0  0  0  0  0  0  0
  -20.6865   -3.2371  133.0989 C   0  0  0  0  0  0  0  0  0  0  0  0
  -17.6722   -0.1605  132.4322 N   0  0  0  0  0  0  0  0  0  0  0  0
  -17.2137   -0.8349  131.2678 N   0  0  0  0  0  0  0  0  0  0  0  0
  -18.8783   -0.7911  133.0406 C   0  0  0  0  0  0  0  0  0  0  0  0
  -19.1551   -3.3842  133.3042 C   0  0  0  0  0  0  0  0  0  0  0  0
  -17.8466    1.2161  132.1368 N   0  0  0  0  0  0  0  0  0  0  0  0
  -18.1843   -0.5037  129.8505 S   0  0  0  0  0  5  0  0  0  0  0  0
  -17.9110   -1.5984  128.6935 C   0  0  0  0  0  0  0  0  0  0  0  0
  -18.3623   -2.9084  129.1400 N   0  0  0  0  0  0  0  0  0  0  0  0
  2  1  1  0
  3  2  1  0
  5  2  1  0
  7  3  1  0
  7  5  1  0
  9  8  1  0
 10  4  1  0
 10  6  1  0
 10  8  1  0
 11  4  1  0
 11  7  1  0
 12  8  1  0
 13  9  1  0
 14 13  2  0
 15 14  1  0
M  RAD  1  13   2
M  END
$$$$

     RDKit          3D

 15 18  0  0  0  0  0  0  0  0999 V2000
  -26.1615    0.4857  142.6526 C   0  0  0  0  0  0  0  0  0  0  0  0
  -26.9071   -0.8767  142.8368 C   0  0  0  0  0  0  0  0  0  0  0  0
  -26.0453   -2.1111  142.4418 C   0  0  0  0  0  0  0  0  0  0  0  0
  -26.9941    1.7165  142.2284 C   0  0  0  0  0  0  0  0  0  0  0  0
  -27.6047   -0.9303  144.2137 C   0  0  0  0  0  0  0  0  0  0  0  0
  -26.4818   -3.4839  142.9482 C   0  0  0  0  0  0  0  0  0  0  0  0
  -25.9739   -4.6724  142.1716 C   0  0  0  0  0  0  0  0  0  0  0  0
  -24.6575   -4.8180  142.2376 C   0  0  0  0  0  0  0  0  0  0  0  0
  -25.0716    0.7748  143.6897 C   0  0  0  0  0  0  0  0  0  0  0  0
  -24.6844    0.5326  142.2401 C   0  0  0  0  0  0  0  0  0  0  0  0
  -24.1094   -3.7141  143.0512 C   0  0  0  0  0  0  0  0  0  0  0  0
  -22.7222   -3.1701  142.7884 C   0  0  0  0  0  0  0  0  0  0  0  0
  -22.9898   -4.0414  144.0187 C   0  0  0  0  0  0  0  0  0  0  0  0
  -25.2275   -2.8056  143.5294 C   0  0  0  0  0  0  0  0  0  0  0  0
  -27.3419    1.6726  140.7417 C   0  0  0  0  0  0  0  0  0  0  0  0
  2  1  1  0
  3  2  1  0
  4  1  1  0
  5  2  1  0
  6  3  1  0
  7  6  1  0
  8  7  2  0
  9  1  1  0
 10  1  1  0
 10  9  1  0
 11  8  1  0
 12 11  1  0
 13 11  1  0
 13 12  1  0
 14  3  1  0
 14  6  1  0
 14 11  1  0
 15  4  1  0
M  END
$$$$

     RDKit          3D

 14 14  0  0  0  0  0  0  0  0999 V2000
  -22.0228  -10.3699  135.0371 O   0  0  0  0  0  0  0  0  0  0  0  0
  -21.3227   -8.7120  138.4833 O   0  0  0  0  0  0  0  0  0  0  0  0
  -23.0054   -9.5293  135.3094 O   0  0  0  0  0  0  0  0  0  0  0  0
  -21.8712   -9.7815  137.9243 O   0  0  0  0  0  0  0  0  0  0  0  0
  -23.3891   -7.6326  139.1467 C   0  0  0  0  0  0  0  0  0  0  0  0
  -24.3498   -6.4782  138.8190 C   0  0  0  0  0  0  0  0  0  0  0  0
  -21.4503   -6.4247  138.3536 O   0  0  0  0  0  0  0  0  0  0  0  0
  -25.4650   -6.9139  138.0738 O   0  0  0  0  0  0  0  0  0  0  0  0
  -22.1721   -7.6201  138.2054 C   0  0  0  0  0  0  0  0  0  0  0  0
  -25.7231   -6.4844  139.3935 C   0  0  0  0  0  0  0  0  0  0  0  0
  -20.8828   -9.8991  135.7168 C   0  0  0  0  0  0  0  0  0  0  0  0
  -26.1583   -7.6411  140.2949 C   0  0  0  0  0  0  0  0  0  0  0  0
  -23.2975   -8.9663  134.1543 O   0  0  0  0  0  0  0  0  0  0  0  0
  -20.8628  -10.4035  137.1620 C   0  0  0  0  0  0  0  0  0  0  0  0
  3  1  1  0
  4  2  1  0
  6  5  1  0
  8  6  1  0
  9  2  1  0
  9  5  1  0
  9  7  1  0
 10  6  1  0
 10  8  1  0
 11  1  1  0
 12 10  1  0
 13  3  1  0
 14  4  1  0
 14 11  1  0
M  END
$$$$

     RDKit          3D

 15 19  0  0  0  0  0  0  0  0999 V2000
  -21.5148   -2.0171  144.4670 C   0  0  0  0  0  0  0  0  0  0  0  0
  -20.9925   -1.8366  143.0306 C   0  0  0  0  0  0  0  0  0  0  0  0
  -19.7550   -4.0758  142.8662 C   0  0  0  0  0  0  0  0  0  0  0  0
  -19.5103   -5.2069  141.9439 N   0  0  0  0  0  0  0  0  0  0  0  0
  -19.0834   -6.4266  142.6487 C   0  0  0  0  0  0  0  0  0  0  0  0
  -20.7996   -3.1455  142.2430 C   0  0  0  0  0  0  0  0  0  0  0  0
  -17.8730   -5.8843  143.1053 O   0  0  0  0  0  0  0  0  0  0  0  0
  -18.3837   -6.9404  141.4108 C   0  0  0  0  0  0  0  0  0  0  0  0
  -22.8950   -2.6706  144.5236 C   0  0  0  0  0  0  0  0  0  0  0  0
  -18.0789   -5.5034  141.7706 C   0  0  0  0  0  0  0  0  0  0  0  0
  -17.9133   -8.4221  139.9762 C   0  0  0  0  0  0  0  0  0  0  0  0
  -16.4307   -8.1068  140.2434 C   0  0  0  0  0  0  0  0  0  0  0  0
  -19.0583   -7.3503  140.1516 C   0  0  0  0  0  0  0  0  0  0  0  0
  -18.2709   -7.3862  138.8955 C   0  0  0  0  0  0  0  0  0  0  0  0
  -17.3585   -8.0156  141.3968 C   0  0  0  0  0  0  0  0  0  0  0  0
  2  1  1  0
  4  3  1  0
  5  4  1  0
  6  2  1  0
  6  3  1  0
  7  5  1  0
  8  5  1  0
  9  1  1  0
 10  4  1  0
 10  7  1  0
 10  8  1  0
 12 11  1  0
 13  8  1  0
 13 11  1  0
 14 11  1  0
 14 13  1  0
 15  8  1  0
 15 11  1  0
 15 12  1  0
M  END
$$$$

     RDKit          3D

 11 11  0  0  0  0  0  0  0  0999 V2000
  -21.4787   -6.6148  139.4163 O   0  0  0  0  0  0  0  0  0  0  0  0
  -20.3700   -7.6750  137.4994 C   0  0  0  0  0  0  0  0  0  0  0  0
  -20.8310  -10.9564  138.3347 O   0  0  0  0  0  0  0  0  0  0  0  0
  -20.4860   -9.0679  136.8774 C   0  0  0  0  0  0  0  0  0  0  0  0
  -21.9638   -8.8777  138.8281 C   0  0  0  0  0  0  0  0  0  0  0  0
  -21.4688   -9.8497  137.7522 C   0  0  0  0  0  0  0  0  0  0  0  0
  -22.8972   -6.9734  137.4612 C   0  0  0  0  0  0  0  0  0  0  0  0
  -22.8506   -5.5062  137.1079 C   0  0  0  0  0  0  0  0  0  0  0  0
  -23.1774   -5.0677  135.8881 C   0  0  0  0  0  0  0  0  0  0  0  0
  -20.0254   -6.6022  136.4561 C   0  0  0  0  0  0  0  0  0  0  0  0
  -21.6791   -7.4612  138.3065 C   0  0  0  0  0  0  0  0  0  0  0  0
  4  2  1  0
  6  3  1  0
  6  4  1  0
  6  5  1  0
  8  7  1  0
  9  8  2  0
 10  2  1  0
 11  1  1  0
 11  2  1  0
 11  5  1  0
 11  7  1  0
M  END
$$$$

     RDKit          3D

 15 16  0  0  0  0  0  0  0  0999 V2000
  -29.6468  -15.1052  134.7513 C   0  0  0  0  0  0  0  0  0  0  0  0
  -29.5564  -16.9681  132.9730 C   0  0  0  0  0  0  0  0  0  0  0  0
  -29.6974  -15.4508  133.2474 C   0  0  0  0  0  0  0  0  0  0  0  0
  -28.7851  -14.6098  132.2950 C   0  0  0  0  0  0  0  0  0  0  0  0
  -30.8034  -17.7573  133.4192 C   0  0  0  0  0  0  0  0  0  0  0  0
  -31.9322  -17.8767  132.4133 C   0  0  0  0  0  0  0  0  0  0  0  0
  -28.0528  -13.4040  132.8911 C   0  0  0  0  0  0  0  0  0  0  0  0
  -31.0263  -19.0663  132.6808 C   0  0  0  0  0  0  0  0  0  0  0  0
  -28.0351  -12.2950  132.0394 O   0  0  0  0  0  0  0  0  0  0  0  0
  -27.2384  -14.5770  132.3411 C   0  0  0  0  0  0  0  0  0  0  0  0
  -26.4311  -15.4075  133.3644 C   0  0  0  0  0  0  0  0  0  0  0  0
  -24.6278  -13.6190  133.5163 C   0  0  0  0  0  0  0  0  0  0  0  0
  -23.7083  -14.0407  132.6477 C   0  0  0  0  0  0  0  0  0  0  0  0
  -24.7028  -15.4732  135.2106 C   0  0  0  0  0  0  0  0  0  0  0  0
  -25.5245  -14.5651  134.2847 C   0  0  0  0  0  0  0  0  0  0  0  0
  3  1  1  0
  3  2  1  0
  4  3  1  0
  5  2  1  0
  6  5  1  0
  7  4  1  0
  8  5  1  0
  8  6  1  0
  9  7  1  0
 10  4  1  0
 10  7  1  0
 11 10  1  0
 13 12  2  0
 15 11  1  0
 15 12  1  0
 15 14  1  0
M  END
$$$$

     RDKit          3D

 15 19  0  0  0  0  0  0  0  0999 V2000
  -23.3937    0.5797  137.1673 O   0  0  0  0  0  0  0  0  0  0  0  0
  -23.7926    1.8868  137.3316 C   0  0  0  0  0  0  0  0  0  0  0  0
  -23.0195    2.7864  137.7521 O   0  0  0  0  0  0  0  0  0  0  0  0
  -25.2095    2.1172  136.9711 C   0  0  0  0  0  0  0  0  0  0  0  0
  -25.6760    0.7384  136.4815 C   0  0  0  0  0  0  0  0  0  0  0  0
  -24.0737   -1.0751  135.4984 C   0  0  0  0  0  0  0  0  0  0  0  0
  -24.1628   -2.2934  136.3871 C   0  0  0  0  0  0  0  0  0  0  0  0
  -25.0162   -3.4380  135.9096 C   0  0  0  0  0  0  0  0  0  0  0  0
  -24.7045   -1.4535  137.5419 C   0  0  0  0  0  0  0  0  0  0  0  0
  -24.4702   -0.2081  136.6943 C   0  0  0  0  0  0  0  0  0  0  0  0
  -24.2315   -4.5489  135.2140 C   0  0  0  0  0  0  0  0  0  0  0  0
  -25.0770   -2.1519  135.1232 C   0  0  0  0  0  0  0  0  0  0  0  0
  -23.6982   -5.4739  136.2308 N   0  0  0  0  0  0  0  0  0  0  0  0
  -23.3905   -6.7983  135.6421 C   0  0  0  0  0  0  0  0  0  0  0  0
  -24.5927   -6.6347  136.4551 C   0  0  0  0  0  0  0  0  0  0  0  0
  2  1  1  0
  3  2  2  0
  4  2  1  0
  5  4  1  0
  7  6  1  0
  8  7  1  0
  9  7  1  0
 10  1  1  0
 10  5  1  0
 10  6  1  0
 10  9  1  0
 11  8  1  0
 12  6  1  0
 12  7  1  0
 12  8  1  0
 13 11  1  0
 14 13  1  0
 15 13  1  0
 15 14  1  0
M  END
$$$$

     RDKit          3D

 15 19  0  0  0  0  0  0  0  0999 V2000
  -29.6822   -8.8923  151.4258 C   0  0  0  0  0  0  0  0  0  0  0  0
  -30.9939   -8.8303  150.6538 C   0  0  0  0  0  0  0  0  0  0  0  0
  -31.6918   -7.4543  150.6823 C   0  0  0  0  0  0  0  0  0  0  0  0
  -32.5695   -7.2370  149.4359 C   0  0  0  0  0  0  0  0  0  0  0  0
  -30.9203   -9.5632  151.9886 C   0  0  0  0  0  0  0  0  0  0  0  0
  -34.0340   -7.7139  149.5687 C   0  0  0  0  0  0  0  0  0  0  0  0
  -34.3183   -9.0436  148.8662 C   0  0  0  0  0  0  0  0  0  0  0  0
  -35.6817   -9.1299  148.1620 C   0  0  0  0  0  0  0  0  0  0  0  0
  -36.0615  -10.5851  147.8686 C   0  0  0  0  0  0  0  0  0  0  0  0
  -36.4196  -11.3389  149.1634 C   0  0  0  0  0  0  0  0  0  0  0  0
  -35.3104  -12.2345  149.6958 C   0  0  0  0  0  0  0  0  0  0  0  0
  -35.1952  -13.5055  148.8704 C   0  0  0  0  0  0  0  0  0  0  0  0
  -36.3447  -13.6356  147.8841 C   0  0  0  0  0  0  0  0  0  0  0  0
  -36.5731  -12.8590  149.1565 C   0  0  0  0  0  0  0  0  0  0  0  0
  -34.3601   -8.9665  150.3859 C   0  0  0  0  0  0  0  0  0  0  0  0
  2  1  1  0
  3  2  1  0
  4  3  1  0
  5  1  1  0
  5  2  1  0
  6  4  1  0
  7  6  1  0
  8  7  1  0
  9  8  1  0
 10  9  1  0
 11 10  1  0
 12 11  1  0
 13 12  1  0
 14 10  1  0
 14 11  1  0
 14 12  1  0
 14 13  1  0
 15  6  1  0
 15  7  1  0
M  END
$$$$

     RDKit          3D

 14 13  0  0  0  0  0  0  0  0999 V2000
  -24.3310  -10.8165  140.5042 O   0  0  0  0  0  0  0  0  0  0  0  0
  -26.2948  -12.2126  140.7800 C   0  0  0  0  0  0  0  0  0  0  0  0
  -26.0595  -12.7905  139.5002 O   0  0  0  0  0  0  0  0  0  0  0  0
  -27.2662  -11.0212  140.6090 C   0  0  0  0  0  0  0  0  0  0  0  0
  -24.9464  -11.7360  141.3658 C   0  0  0  0  0  0  0  0  0  0  0  0
  -28.3364  -12.5396  137.8969 O   0  0  0  0  0  0  0  0  0  0  0  0
  -27.6647  -14.6236  138.9503 C   0  0  0  0  0  0  0  0  0  0  0  0
  -28.7282  -14.5190  140.0538 C   0  0  0  0  0  0  0  0  0  0  0  0
  -26.2245  -14.2085  139.3911 C   0  0  0  0  0  0  0  0  0  0  0  0
  -28.1086  -13.9008  137.6618 C   0  0  0  0  0  0  0  0  0  0  0  0
  -25.4156  -16.5349  140.1798 C   0  0  0  0  0  0  0  0  0  0  0  0
  -24.6800  -17.2835  141.2884 C   0  0  0  0  0  0  0  0  0  0  0  0
  -25.6216  -15.0569  140.5542 C   0  0  0  0  0  0  0  0  0  0  0  0
  -27.7109  -10.3976  141.9356 C   0  0  0  0  0  0  0  0  0  0  0  0
  3  2  1  0
  4  2  1  0
  5  1  1  0
  5  2  1  0
  8  7  1  0
  9  3  1  0
  9  7  1  0
 10  6  1  0
 10  7  1  0
 12 11  1  0
 13  9  1  0
 13 11  1  0
 14  4  1  0
M  END
$$$$

     RDKit          3D

 15 17  0  0  0  0  0  0  0  0999 V2000
  -26.7745   -2.0982  142.4111 O   0  0  0  0  0  0  0  0  0  0  0  0
  -27.0850   -0.9130  142.7118 C   0  0  0  0  0  0  0  0  0  0  0  0
  -26.1310    0.0939  142.5943 O   0  0  0  0  0  0  0  0  0  0  0  0
  -29.3817   -1.5085  143.1424 C   0  0  0  0  0  0  0  0  0  0  0  0
  -28.8440    0.8279  143.4889 C   0  0  0  0  0  0  0  0  0  0  0  0
  -29.5270    1.4957  142.2744 C   0  0  0  0  0  0  0  0  0  0  0  0
  -30.3196   -2.4123  143.0835 C   0  0  0  0  0  0  0  0  0  0  0  0
  -30.9708    1.9315  142.5660 C   0  0  0  0  0  0  0  0  0  0  0  0
  -31.2310   -2.4965  141.8955 C   0  0  0  0  0  0  0  0  0  0  0  0
  -31.8911    0.7379  142.9321 C   0  0  0  0  0  0  0  0  0  0  0  0
  -33.2677    0.8451  142.2019 C   0  0  0  0  0  0  0  0  0  0  0  0
  -33.1223    1.2082  143.6659 C   0  0  0  0  0  0  0  0  0  0  0  0
  -28.4481   -0.5926  143.1836 C   0  0  0  0  0  0  0  0  0  0  0  0
  -32.4747   -1.6161  142.0670 C   0  0  0  0  0  0  0  0  0  0  0  0
  -32.1970   -0.1359  141.7359 C   0  0  0  0  0  0  0  0  0  0  0  0
  2  1  2  0
  3  2  1  0
  6  5  1  0
  7  4  2  0
  8  6  1  0
  9  7  1  0
 10  8  1  0
 11 10  1  0
 12 10  1  0
 12 11  1  0
 13  2  1  0
 13  4  2  0
 13  5  1  0
 14  9  1  0
 15 10  1  0
 15 11  1  0
 15 14  1  0
M  END
$$$$

     RDKit          3D

 11 11  0  0  0  0  0  0  0  0999 V2000
  -17.0565   -5.3397  142.5044 C   0  0  0  0  0  0  0  0  0  0  0  0
  -17.8074   -2.9084  142.6565 C   0  0  0  0  0  0  0  0  0  0  0  0
  -17.4419   -6.8156  142.6877 C   0  0  0  0  0  0  0  0  0  0  0  0
  -18.1864   -2.5589  141.2151 C   0  0  0  0  0  0  0  0  0  0  0  0
  -17.2532   -7.3208  144.1388 C   0  0  0  0  0  0  0  0  0  0  0  0
  -18.1335   -4.3669  143.0249 C   0  0  0  0  0  0  0  0  0  0  0  0
  -15.7802   -7.6889  144.4081 C   0  0  0  0  0  0  0  0  0  0  0  0
  -18.1984   -8.5245  144.4015 C   0  0  0  0  0  0  0  0  0  0  0  0
  -19.6471   -8.5020  145.9987 C   0  0  0  0  0  0  0  0  0  0  0  0
  -18.2196   -9.0095  145.8534 C   0  0  0  0  0  0  0  0  0  0  0  0
  -19.6617   -8.0905  144.5368 C   0  0  0  0  0  0  0  0  0  0  0  0
  3  1  1  0
  4  2  1  0
  5  3  1  0
  6  1  1  0
  6  2  1  0
  7  5  1  0
  8  5  1  0
 10  8  1  0
 10  9  1  0
 11  8  1  0
 11  9  1  0
M  END
$$$$

     RDKit          3D

 11 14  0  0  0  0  0  0  0  0999 V2000
  -20.5158   -6.4961  142.1697 C   0  0  0  0  0  0  0  0  0  0  0  0
  -19.2782   -6.3390  141.2362 C   0  0  0  0  0  0  0  0  0  0  0  0
  -21.6412   -7.3382  141.5888 C   0  0  0  0  0  0  0  0  0  0  0  0
  -20.7235   -7.9593  142.6171 C   0  0  0  0  0  0  0  0  0  0  0  0
  -18.8633   -4.8687  140.9855 C   0  0  0  0  0  0  0  0  0  0  0  0
  -19.9147   -3.8733  140.5421 C   0  0  0  0  0  0  0  0  0  0  0  0
  -19.8680   -3.0492  141.7928 C   0  0  0  0  0  0  0  0  0  0  0  0
  -20.1801   -6.9324  143.5866 C   0  0  0  0  0  0  0  0  0  0  0  0
  -21.2473   -4.3445  140.1256 N   0  0  0  0  0  0  0  0  0  0  0  0
  -18.7436   -3.9997  142.2675 C   0  0  0  0  0  0  0  0  0  0  0  0
  -20.4121   -3.4900  139.2386 C   0  0  0  0  0  0  0  0  0  0  0  0
  2  1  1  0
  3  1  1  0
  4  1  1  0
  4  3  1  0
  5  2  1  0
  6  5  1  0
  7  6  1  0
  8  1  1  0
  8  4  1  0
  9  6  1  0
 10  5  1  0
 10  7  1  0
 11  6  1  0
 11  9  1  0
M  END
$$$$

     RDKit          3D

 15 17  0  0  0  0  0  0  0  0999 V2000
  -25.5971  -11.4961  142.2911 O   0  0  0  0  0  0  0  0  0  0  0  0
  -25.4382  -12.8291  141.8727 C   0  0  0  0  0  0  0  0  0  0  0  0
  -24.1397  -13.2353  142.2318 O   0  0  0  0  0  0  0  0  0  0  0  0
  -26.4743  -13.7452  142.5698 C   0  0  0  0  0  0  0  0  0  0  0  0
  -27.9750  -13.6444  142.1848 C   0  0  0  0  0  0  0  0  0  0  0  0
  -28.7870  -14.8371  142.4674 N   0  0  0  0  0  0  0  0  0  0  0  0
  -28.4612  -13.0146  140.8850 C   0  0  0  0  0  0  0  0  0  0  0  0
  -29.5791  -13.9348  140.3894 C   0  0  0  0  0  0  0  0  0  0  0  0
  -29.3594  -15.2241  141.1785 C   0  0  0  0  0  0  0  0  0  0  0  0
  -30.5625  -16.1865  141.3759 C   0  0  0  0  0  0  0  0  0  0  0  0
  -32.4500  -16.0468  140.3206 C   0  0  0  0  0  0  0  0  0  0  0  0
  -32.6941  -16.2615  142.8402 C   0  0  0  0  0  0  0  0  0  0  0  0
  -31.9421  -15.5721  141.6914 C   0  0  0  0  0  0  0  0  0  0  0  0
  -28.7067  -12.3105  142.2257 C   0  0  0  0  0  0  0  0  0  0  0  0
  -31.1230  -16.7548  140.0719 C   0  0  0  0  0  0  0  0  0  0  0  0
  2  1  1  0
  3  2  1  0
  4  2  1  0
  5  4  1  0
  6  5  1  0
  7  5  1  0
  8  7  1  0
  9  6  1  0
  9  8  1  0
 10  9  1  0
 13 10  1  0
 13 11  1  0
 13 12  1  0
 14  5  1  0
 14  7  1  0
 15 10  1  0
 15 11  1  0
M  END
$$$$

     RDKit          3D

 15 17  0  0  0  0  0  0  0  0999 V2000
  -32.8387   -5.1165  140.2649 O   0  0  0  0  0  0  0  0  0  0  0  0
  -33.6087   -6.2003  140.7379 C   0  0  0  0  0  0  0  0  0  0  0  0
  -34.1124   -6.0359  142.1851 C   0  0  0  0  0  0  0  0  0  0  0  0
  -34.6124   -6.0710  139.5964 C   0  0  0  0  0  0  0  0  0  0  0  0
  -33.6660   -4.9836  139.1303 C   0  0  0  0  0  0  0  0  0  0  0  0
  -32.9828   -6.1735  143.2021 C   0  0  0  0  0  0  0  0  0  0  0  0
  -33.6559   -4.8316  143.0053 C   0  0  0  0  0  0  0  0  0  0  0  0
  -38.4129   -7.2612  138.0764 O   0  0  0  0  0  0  0  0  0  0  0  0
  -37.0318   -7.1128  137.8579 C   0  0  0  0  0  0  0  0  0  0  0  0
  -36.1272   -5.7363  139.8785 C   0  0  0  0  0  0  0  0  0  0  0  0
  -36.7489   -4.5889  137.5814 C   0  0  0  0  0  0  0  0  0  0  0  0
  -36.5325   -4.5603  140.8385 C   0  0  0  0  0  0  0  0  0  0  0  0
  -35.8429   -3.2048  140.6859 C   0  0  0  0  0  0  0  0  0  0  0  0
  -38.4664   -6.0397  138.7707 C   0  0  0  0  0  0  0  0  0  0  0  0
  -36.9812   -5.7566  138.5594 C   0  0  0  0  0  0  0  0  0  0  0  0
  2  1  1  0
  3  2  1  0
  4  2  1  0
  5  1  1  0
  5  4  1  0
  6  3  1  0
  7  3  1  0
  7  6  1  0
  9  8  1  0
 10  4  1  0
 12 10  1  0
 13 12  1  0
 14  8  1  0
 15  9  1  0
 15 10  1  0
 15 11  1  0
 15 14  1  0
M  END
$$$$

     RDKit          3D

 14 17  0  0  0  0  0  0  0  0999 V2000
  -29.7410  -24.5272  147.7790 N   0  0  0  0  0  0  0  0  0  0  0  0
  -29.5356  -23.1542  147.2659 C   0  0  0  0  0  0  0  0  0  0  0  0
  -29.9622  -23.3124  149.6450 C   0  0  0  0  0  0  0  0  0  0  0  0
  -28.5980  -23.8741  146.1854 C   0  0  0  0  0  0  0  0  0  0  0  0
  -29.1286  -24.4950  149.0437 C   0  0  0  0  0  0  0  0  0  0  0  0
  -28.5543  -20.6741  148.2530 C   0  0  0  0  0  0  0  0  0  0  0  0
  -27.5979  -24.2900  148.6115 C   0  0  0  0  0  0  0  0  0  0  0  0
  -28.2792  -22.1229  147.7542 C   0  0  0  0  0  0  0  0  0  0  0  0
  -27.3602  -26.1428  146.7955 C   0  0  0  0  0  0  0  0  0  0  0  0
  -31.4468  -23.3475  149.4109 C   0  0  0  0  0  0  0  0  0  0  0  0
  -30.5679  -22.6147  148.3620 C   0  0  0  0  0  0  0  0  0  0  0  0
  -27.4022  -24.6236  147.0243 C   0  0  0  0  0  0  0  0  0  0  0  0
  -27.2909  -22.8130  148.7262 C   0  0  0  0  0  0  0  0  0  0  0  0
  -29.3099  -24.7533  145.3742 F   0  0  0  0  0  0  0  0  0  0  0  0
  2  1  1  0
  4  2  1  0
  5  1  1  0
  5  3  1  0
  7  5  1  0
  8  2  1  0
  8  6  1  0
 10  3  1  0
 11  2  1  0
 11  3  1  0
 11 10  1  0
 12  4  1  0
 12  7  1  0
 12  9  1  0
 13  7  1  0
 13  8  1  0
 14  4  1  0
M  END
$$$$

     RDKit          3D

 15 19  0  0  0  0  0  0  0  0999 V2000
  -25.6969   -2.5923  132.7357 C   0  0  0  0  0  0  0  0  0  0  0  0
  -26.3094   -3.9135  132.9449 N   0  0  0  0  0  0  0  0  0  0  0  0
  -27.7343   -3.8321  133.3930 C   0  0  0  0  0  0  0  0  0  0  0  0
  -26.0552   -4.2162  131.5234 C   0  0  0  0  0  0  0  0  0  0  0  0
  -28.0184   -4.0699  134.8226 N   0  0  0  0  0  0  0  0  0  0  0  0
  -27.2631   -5.2169  135.3401 C   0  0  0  0  0  0  0  0  0  0  0  0
  -28.7391   -3.0846  132.6348 C   0  0  0  0  0  0  0  0  0  0  0  0
  -25.0934   -5.3971  131.3872 C   0  0  0  0  0  0  0  0  0  0  0  0
  -27.3590   -5.4754  136.8264 C   0  0  0  0  0  0  0  0  0  0  0  0
  -26.4912   -4.3387  136.3322 C   0  0  0  0  0  0  0  0  0  0  0  0
  -27.2641   -3.1914  135.7173 C   0  0  0  0  0  0  0  0  0  0  0  0
  -29.9537   -3.8676  132.4326 C   0  0  0  0  0  0  0  0  0  0  0  0
  -30.7984   -4.0547  133.6162 N   0  0  0  0  0  0  0  0  0  0  0  0
  -28.6713   -4.5872  132.5416 N   0  0  0  0  0  0  0  0  0  0  0  0
  -25.3970   -2.8674  131.2735 C   0  0  0  0  0  0  0  0  0  0  0  0
  2  1  1  0
  3  2  1  0
  4  2  1  0
  5  3  1  0
  6  5  1  0
  7  3  1  0
  8  4  1  0
  9  6  1  0
 10  6  1  0
 10  9  1  0
 11  5  1  0
 11 10  1  0
 12  7  1  0
 13 12  1  0
 14  3  1  0
 14  7  1  0
 14 12  1  0
 15  1  1  0
 15  4  1  0
M  END
$$$$

     RDKit          3D

 15 16  0  0  0  0  0  0  0  0999 V2000
  -27.7345  -19.9242  139.8658 O   0  0  0  0  0  0  0  0  0  0  0  0
  -27.8022  -21.2109  140.0085 C   0  0  0  0  0  0  0  0  0  0  0  0
  -28.2469  -20.8281  138.8775 O   0  0  0  0  0  0  0  0  0  0  0  0
  -27.3129  -22.6711  140.2121 C   0  0  0  0  0  0  0  0  0  0  0  0
  -27.4836  -23.4773  138.9320 C   0  0  0  0  0  0  0  0  0  0  0  0
  -28.1512  -24.7766  139.2385 C   0  0  0  0  0  0  0  0  0  0  0  0
  -29.3183  -24.7651  140.0746 C   0  0  0  0  0  0  0  0  0  0  0  0
  -30.6376  -24.7980  139.4887 C   0  0  0  0  0  0  0  0  0  0  0  0
  -31.6588  -25.5872  140.0882 C   0  0  0  0  0  0  0  0  0  0  0  0
  -32.8590  -25.8869  139.3612 C   0  0  0  0  0  0  0  0  0  0  0  0
  -33.4666  -27.1892  139.4194 C   0  0  0  0  0  0  0  0  0  0  0  0
  -34.5767  -27.4197  140.2849 C   0  0  0  0  0  0  0  0  0  0  0  0
  -34.7494  -26.6465  141.4698 C   0  0  0  0  0  0  0  0  0  0  0  0
  -33.9201  -25.5075  141.6308 C   0  0  0  0  0  0  0  0  0  0  0  0
  -32.8290  -25.1996  140.7215 C   0  0  0  0  0  0  0  0  0  0  0  0
  2  1  1  0
  3  2  1  0
  4  2  1  0
  5  4  1  0
  6  5  1  0
  7  6  1  0
  8  7  1  0
  9  8  1  0
 10  9  1  0
 11 10  1  0
 12 11  1  0
 13 12  1  0
 14 13  2  0
 15  9  1  0
 15 10  1  0
 15 14  1  0
M  END
$$$$

     RDKit          3D

 14 15  0  0  0  0  0  0  0  0999 V2000
  -18.4789   -3.2346  145.7909 C   0  0  0  0  0  0  0  0  0  0  0  0
  -17.4205   -3.3731  143.5164 O   0  0  0  0  0  0  0  0  0  0  0  0
  -20.9337   -3.3641  146.6238 C   0  0  0  0  0  0  0  0  0  0  0  0
  -18.1743   -5.2590  144.1241 C   0  0  0  0  0  0  0  0  0  0  0  0
  -21.6485   -4.1780  144.2804 C   0  0  0  0  0  0  0  0  0  0  0  0
  -22.2405   -5.5751  146.3693 C   0  0  0  0  0  0  0  0  0  0  0  0
  -19.5034   -3.9822  146.6818 C   0  0  0  0  0  0  0  0  0  0  0  0
  -23.4186   -6.2939  145.6987 C   0  0  0  0  0  0  0  0  0  0  0  0
  -16.9004   -5.3561  144.9601 C   0  0  0  0  0  0  0  0  0  0  0  0
  -21.9789   -4.1611  145.7884 C   0  0  0  0  0  0  0  0  0  0  0  0
  -17.0510   -5.9727  146.3277 C   0  0  0  0  0  0  0  0  0  0  0  0
  -18.0026   -4.4643  142.8530 C   0  0  0  0  0  0  0  0  0  0  0  0
  -17.5722   -7.1924  146.5063 C   0  0  0  0  0  0  0  0  0  0  0  0
  -17.5898   -4.0026  144.7642 C   0  0  0  0  0  0  0  0  0  0  0  0
  7  1  1  0
  7  3  1  0
  8  6  1  0
  9  4  1  0
 10  3  1  0
 10  5  1  0
 10  6  1  0
 11  9  1  0
 12  2  1  0
 12  4  1  0
 13 11  2  0
 14  1  1  0
 14  2  1  0
 14  4  1  0
 14  9  1  0
M  END
$$$$

     RDKit          3D

 15 16  0  0  0  0  0  0  0  0999 V2000
  -20.8195   -5.5161  133.4119 C   0  0  0  0  0  0  0  0  0  0  0  0
  -19.5204   -4.6860  133.3704 C   0  0  0  0  0  0  0  0  0  0  0  0
  -22.4031   -7.6316  132.7572 C   0  0  0  0  0  0  0  0  0  0  0  0
  -22.6319   -8.1593  134.1868 C   0  0  0  0  0  0  0  0  0  0  0  0
  -23.8310   -7.8472  136.3763 C   0  0  0  0  0  0  0  0  0  0  0  0
  -22.8512   -7.2584  137.3691 C   0  0  0  0  0  0  0  0  0  0  0  0
  -24.3291   -6.8153  137.3649 C   0  0  0  0  0  0  0  0  0  0  0  0
  -23.2389   -5.8644  137.8114 C   0  0  0  0  0  0  0  0  0  0  0  0
  -22.7644   -4.3301  136.3562 Mg  0  0  0  0  0  2  0  0  0  0  0  0
  -18.3574   -5.4298  134.0681 C   0  0  0  0  0  0  0  0  0  0  0  0
  -20.6721   -7.0977  132.4964 S   0  0  0  0  0  0  0  0  0  0  0  0
  -23.6806   -7.3338  134.9415 C   0  0  0  0  0  0  0  0  0  0  0  0
  -22.3282   -2.9106  135.0155 O   0  0  0  0  0  0  0  0  0  0  0  0
  -17.1574   -4.5233  134.3419 C   0  0  0  0  0  0  0  0  0  0  0  0
  -19.1667   -4.2788  131.9303 C   0  0  0  0  0  0  0  0  0  0  0  0
  2  1  1  0
  4  3  1  0
  6  5  1  0
  7  5  1  0
  7  6  1  0
  8  6  1  0
  8  7  1  0
  9  8  1  0
 10  2  1  0
 11  1  1  0
 11  3  1  0
 12  4  1  0
 12  5  1  0
 13  9  1  0
 14 10  1  0
 15  2  1  0
M  END
$$$$

     RDKit          3D

 15 18  0  0  0  0  0  0  0  0999 V2000
  -31.8575  -13.4595  146.4972 O   0  0  0  0  0  0  0  0  0  0  0  0
  -31.1497  -13.0874  145.3562 C   0  0  0  0  0  0  0  0  0  0  0  0
  -31.1091  -11.6960  145.2248 O   0  0  0  0  0  0  0  0  0  0  0  0
  -30.4473  -13.6353  146.5606 C   0  0  0  0  0  0  0  0  0  0  0  0
  -30.1988  -15.1401  146.6658 C   0  0  0  0  0  0  0  0  0  0  0  0
  -29.0074  -15.6265  145.8317 C   0  0  0  0  0  0  0  0  0  0  0  0
  -27.5959  -15.1767  146.2903 C   0  0  0  0  0  0  0  0  0  0  0  0
  -27.3501  -13.6407  148.3821 C   0  0  0  0  0  0  0  0  0  0  0  0
  -28.6625  -12.8384  148.5099 C   0  0  0  0  0  0  0  0  0  0  0  0
  -28.7988  -11.7265  147.4424 C   0  0  0  0  0  0  0  0  0  0  0  0
  -27.8833  -11.6910  146.1776 C   0  0  0  0  0  0  0  0  0  0  0  0
  -27.4024  -15.0575  147.8187 C   0  0  0  0  0  0  0  0  0  0  0  0
  -29.9534  -12.6950  147.6728 C   0  0  0  0  0  0  0  0  0  0  0  0
  -27.8136  -12.8182  145.1230 C   0  0  0  0  0  0  0  0  0  0  0  0
  -26.9477  -14.0464  145.4475 C   0  0  0  0  0  0  0  0  0  0  0  0
  2  1  1  0
  3  2  1  0
  4  1  1  0
  4  2  1  0
  5  4  1  0
  6  5  1  0
  7  6  1  0
  9  8  1  0
 10  9  1  0
 11 10  1  0
 12  7  1  0
 12  8  1  0
 13  4  1  0
 13  9  1  0
 13 10  1  0
 14 11  1  0
 15  7  1  0
 15 14  1  0
M  END
$$$$

     RDKit          3D

 15 16  0  0  0  0  0  0  0  0999 V2000
  -26.1755  -19.8675  140.2621 O   0  0  0  0  0  0  0  0  0  0  0  0
  -27.3698  -19.3511  140.7692 C   0  0  0  0  0  0  0  0  0  0  0  0
  -28.4792  -19.8363  140.4178 O   0  0  0  0  0  0  0  0  0  0  0  0
  -27.3286  -18.1259  141.6172 C   0  0  0  0  0  0  0  0  0  0  0  0
  -27.4941  -16.9962  140.7764 O   0  0  0  0  0  0  0  0  0  0  0  0
  -26.3752  -16.1314  140.8189 C   0  0  0  0  0  0  0  0  0  0  0  0
  -25.1951  -16.6431  139.9691 C   0  0  0  0  0  0  0  0  0  0  0  0
  -25.4722  -16.6563  138.4481 C   0  0  0  0  0  0  0  0  0  0  0  0
  -26.2312  -17.9133  137.9397 C   0  0  0  0  0  0  0  0  0  0  0  0
  -25.3590  -19.2027  138.0750 C   0  0  0  0  0  0  0  0  0  0  0  0
  -26.6861  -17.7318  136.4713 C   0  0  0  0  0  0  0  0  0  0  0  0
  -26.0322  -20.3002  138.9108 C   0  0  0  0  0  0  0  0  0  0  0  0
  -27.8076  -16.6849  136.3337 C   0  0  0  0  0  0  0  0  0  0  0  0
  -28.7973  -16.9383  135.2053 C   0  0  0  0  0  0  0  0  0  0  0  0
  -29.2102  -17.1834  136.6484 C   0  0  0  0  0  0  0  0  0  0  0  0
  2  1  1  0
  3  2  2  0
  4  2  1  0
  5  4  1  0
  6  5  1  0
  7  6  1  0
  8  7  1  0
  9  8  1  0
 10  9  1  0
 11  9  1  0
 12  1  1  0
 12 10  1  0
 13 11  1  0
 14 13  1  0
 15 13  1  0
 15 14  1  0
M  END
$$$$

     RDKit          3D

 15 17  0  0  0  0  0  0  0  0999 V2000
  -22.3536   -2.1784  135.1062 I   0  0  0  0  0  0  0  0  0  0  0  0
  -25.7396    0.4932  136.5703 C   0  0  0  0  0  0  0  0  0  0  0  0
  -24.5631   -1.5718  137.5582 N   0  0  0  0  0  0  0  0  0  0  0  0
  -25.1834   -2.7828  138.1453 C   0  0  0  0  0  0  0  0  0  0  0  0
  -26.6386   -2.6620  138.6636 C   0  0  0  0  0  0  0  0  0  0  0  0
  -25.3714   -1.6289  135.0386 C   0  0  0  0  0  0  0  0  0  0  0  0
  -27.8346   -2.3482  137.7691 C   0  0  0  0  0  0  0  0  0  0  0  0
  -27.3888   -3.7790  137.9621 C   0  0  0  0  0  0  0  0  0  0  0  0
  -25.0789   -4.0626  137.2912 C   0  0  0  0  0  0  0  0  0  0  0  0
  -24.0697   -0.8603  135.1616 C   0  0  0  0  0  0  0  0  0  0  0  0
  -26.5075   -4.3515  136.8633 C   0  0  0  0  0  0  0  0  0  0  0  0
  -23.0260   -5.0985  138.4749 C   0  0  0  0  0  0  0  0  0  0  0  0
  -24.5230   -5.2755  138.0569 C   0  0  0  0  0  0  0  0  0  0  0  0
  -22.8200   -5.2493  139.9883 C   0  0  0  0  0  0  0  0  0  0  0  0
  -25.0591   -0.8747  136.3416 C   0  0  0  0  0  0  0  0  0  0  0  0
  4  3  1  0
  5  4  1  0
  7  5  1  0
  8  5  1  0
  8  7  1  0
  9  4  1  0
 10  1  1  0
 10  6  1  0
 11  8  1  0
 11  9  1  0
 13  9  1  0
 13 12  1  0
 14 12  1  0
 15  2  1  0
 15  3  1  0
 15  6  1  0
 15 10  1  0
M  END
$$$$

     RDKit          3D

 11 12  0  0  0  0  0  0  0  0999 V2000
  -28.0970  -24.1652  144.5103 O   0  0  0  0  0  0  0  0  0  0  0  0
  -29.1953  -23.3481  144.7990 C   0  0  0  0  0  0  0  0  0  0  0  0
  -30.1258  -23.3829  143.7463 O   0  0  0  0  0  0  0  0  0  0  0  0
  -29.8429  -23.6632  146.1324 C   0  0  0  0  0  0  0  0  0  0  0  0
  -28.5456  -22.9917  148.6926 O   0  0  0  0  0  0  0  0  0  0  0  0
  -30.4519  -24.1885  144.8519 C   0  0  0  0  0  0  0  0  0  0  0  0
  -29.4560  -23.4542  149.5406 F   0  0  0  0  0  0  0  0  0  0  0  0
  -29.2133  -24.7028  147.0772 C   0  0  0  0  0  0  0  0  0  0  0  0
  -30.5636  -22.6215  146.6872 F   0  0  0  0  0  0  0  0  0  0  0  0
  -28.0851  -24.0788  147.9224 C   0  0  0  0  0  0  0  0  0  0  0  0
  -27.4020  -25.1285  148.8078 C   0  0  0  0  0  0  0  0  0  0  0  0
  2  1  1  0
  3  2  1  0
  4  2  1  0
  6  2  1  0
  6  3  1  0
  6  4  1  0
  7  5  1  0
  8  4  1  0
  9  4  1  0
 10  5  1  0
 10  8  1  0
 11 10  1  0
M  END
$$$$

     RDKit          3D

  9  8  0  0  0  0  0  0  0  0999 V2000
  -23.8349   -8.9154  147.3627 P   0  0  0  0  0  0  0  0  0  0  0  0
  -23.3282  -10.4405  149.1889 O   0  0  0  0  0  0  0  0  0  0  0  0
  -23.7309  -10.5504  147.9392 O   0  0  0  0  0  0  0  0  0  0  0  0
  -22.6635   -9.4192  145.2856 O   0  0  0  0  0  0  0  0  0  0  0  0
  -25.7618   -7.5576  147.9733 O   0  0  0  0  0  0  0  0  0  0  0  0
  -22.5061   -8.3887  144.4788 O   0  0  0  0  0  0  0  0  0  0  0  0
  -23.9190   -9.3473  145.6807 O   0  0  0  0  0  0  0  0  0  0  0  0
  -25.5566   -8.7959  147.5727 O   0  0  0  0  0  0  0  0  0  0  0  0
  -26.1509   -7.6685  149.2286 O   0  0  0  0  0  0  0  0  0  0  0  0
  3  1  1  0
  3  2  1  0
  6  4  1  0
  7  1  1  0
  7  4  1  0
  8  1  1  0
  8  5  1  0
  9  5  1  0
M  END
$$$$

     RDKit          3D

 15 17  0  0  0  0  0  0  0  0999 V2000
  -19.7714  -16.0335  137.1435 O   0  0  0  0  0  0  0  0  0  0  0  0
  -20.7481  -15.2491  137.7741 C   0  0  0  0  0  0  0  0  0  0  0  0
  -21.0978  -15.7156  139.1479 N   0  0  0  0  0  0  0  0  0  0  0  0
  -20.6049  -13.4253  137.3215 Si  0  0  0  0  0  4  0  0  0  0  0  0
  -21.9775  -16.8974  139.1068 C   0  0  0  0  0  0  0  0  0  0  0  0
  -19.7252  -12.9897  135.7308 C   0  0  0  0  0  0  0  0  0  0  0  0
  -21.8552  -14.7878  136.8669 C   0  0  0  0  0  0  0  0  0  0  0  0
  -23.0134  -13.8796  137.3109 C   0  0  0  0  0  0  0  0  0  0  0  0
  -23.2544  -12.6422  136.4767 C   0  0  0  0  0  0  0  0  0  0  0  0
  -21.5725  -14.7168  140.1293 C   0  0  0  0  0  0  0  0  0  0  0  0
  -22.2350  -12.5861  137.6001 C   0  0  0  0  0  0  0  0  0  0  0  0
  -21.9315  -15.5184  142.4519 C   0  0  0  0  0  0  0  0  0  0  0  0
  -19.6650  -14.8352  141.8462 C   0  0  0  0  0  0  0  0  0  0  0  0
  -19.2098  -14.7162  143.0928 C   0  0  0  0  0  0  0  0  0  0  0  0
  -21.0932  -15.0690  141.5171 C   0  0  0  0  0  0  0  0  0  0  0  0
  2  1  1  0
  3  2  1  0
  4  2  1  0
  5  3  1  0
  6  4  1  0
  7  2  1  0
  7  4  1  0
  8  7  1  0
  9  8  1  0
 10  3  1  0
 11  4  1  0
 11  8  1  0
 11  9  1  0
 14 13  2  0
 15 10  1  0
 15 12  2  0
 15 13  1  0
M  END
$$$$

     RDKit          3D

 14 16  0  0  0  0  0  0  0  0999 V2000
  -22.2443  -13.7610  139.5465 C   0  0  0  0  0  0  0  0  0  0  0  0
  -23.6375  -13.5738  139.5732 O   0  0  0  0  0  0  0  0  0  0  0  0
  -21.7988  -14.1640  140.9003 N   0  0  0  0  0  0  0  0  0  0  0  0
  -21.5685  -12.4241  139.1995 C   0  0  0  0  0  0  0  0  0  0  0  0
  -21.8893  -11.9724  137.7998 C   0  0  0  0  0  0  0  0  0  0  0  0
  -20.7181  -15.1946  141.0053 C   0  0  0  0  0  0  0  0  0  0  0  0
  -20.0023  -15.6540  139.7186 C   0  0  0  0  0  0  0  0  0  0  0  0
  -21.3798  -12.5880  136.7287 C   0  0  0  0  0  0  0  0  0  0  0  0
  -22.1126  -15.5627  141.3234 C   0  0  0  0  0  0  0  0  0  0  0  0
  -22.9848  -16.4437  140.3963 C   0  0  0  0  0  0  0  0  0  0  0  0
  -22.9876  -17.8821  140.9314 C   0  0  0  0  0  0  0  0  0  0  0  0
  -23.4943  -18.9361  139.9644 C   0  0  0  0  0  0  0  0  0  0  0  0
  -22.6392  -20.1830  140.0146 C   0  0  0  0  0  0  0  0  0  0  0  0
  -21.9967  -18.8439  140.3016 C   0  0  0  0  0  0  0  0  0  0  0  0
  2  1  1  0
  3  1  1  0
  4  1  1  0
  5  4  1  0
  6  3  1  0
  7  6  1  0
  8  5  2  0
  9  3  1  0
  9  6  1  0
 10  9  1  0
 11 10  1  0
 12 11  1  0
 13 12  1  0
 14 11  1  0
 14 12  1  0
 14 13  1  0
M  END
$$$$

     RDKit          3D

  8  7  0  0  0  0  0  0  0  0999 V2000
  -28.4181  -18.6714  142.7188 C   0  0  0  0  0  0  0  0  0  0  0  0
  -27.6147  -19.9373  144.7507 C   0  0  0  0  0  0  0  0  0  0  0  0
  -28.7870  -19.6999  143.8028 C   0  0  0  0  0  0  0  0  0  0  0  0
  -30.2953  -20.6249  141.0892 N   0  0  0  0  0  0  0  0  0  0  0  0
  -29.7105  -19.5420  140.7238 C   0  0  0  0  0  0  0  0  0  0  0  0
  -29.5320  -18.3858  141.6789 C   0  0  0  0  0  0  0  0  0  0  0  0
  -30.7923  -16.6770  143.1143 C   0  0  0  0  0  0  0  0  0  0  0  0
  -30.8893  -17.9570  142.2838 C   0  0  0  0  0  0  0  0  0  0  0  0
  3  1  1  0
  3  2  1  0
  5  4  2  0
  6  1  1  0
  6  5  1  0
  8  6  1  0
  8  7  1  0
M  END
$$$$

     RDKit          3D

 15 15  0  0  0  0  0  0  0  0999 V2000
  -21.5647   -8.0664  150.7285 O   0  0  0  0  0  0  0  0  0  0  0  0
  -22.3187   -9.2351  150.9056 C   0  0  0  0  0  0  0  0  0  0  0  0
  -24.4778   -7.8791  150.6463 C   0  0  0  0  0  0  0  0  0  0  0  0
  -24.8378   -7.8901  152.1481 C   0  0  0  0  0  0  0  0  0  0  0  0
  -23.9133   -6.9746  152.9631 C   0  0  0  0  0  0  0  0  0  0  0  0
  -23.6784   -9.1239  150.1831 C   0  0  0  0  0  0  0  0  0  0  0  0
  -24.6138   -6.3588  154.1062 N   0  0  0  0  0  0  0  0  0  0  0  0
  -24.2343   -5.5498  152.9315 C   0  0  0  0  0  0  0  0  0  0  0  0
  -23.4601   -9.1248  148.6464 C   0  0  0  0  0  0  0  0  0  0  0  0
  -24.7772   -9.2107  147.8449 C   0  0  0  0  0  0  0  0  0  0  0  0
  -24.5961   -9.7408  146.4061 C   0  0  0  0  0  0  0  0  0  0  0  0
  -24.3317   -8.6483  145.3507 C   0  0  0  0  0  0  0  0  0  0  0  0
  -22.8754   -8.1659  145.2956 C   0  0  0  0  0  0  0  0  0  0  0  0
  -22.0266   -9.2542  145.0492 O   0  0  0  0  0  0  0  0  0  0  0  0
  -22.7303   -7.2308  144.2583 O   0  0  0  0  0  0  0  0  0  0  0  0
  2  1  1  0
  4  3  1  0
  5  4  1  0
  6  2  1  0
  6  3  1  0
  7  5  1  0
  8  5  1  0
  8  7  1  0
  9  6  1  0
 10  9  1  0
 11 10  1  0
 12 11  1  0
 13 12  1  0
 14 13  1  0
 15 13  1  0
M  END
$$$$

     RDKit          3D

 15 18  0  0  0  0  0  0  0  0999 V2000
  -20.8362  -10.3609  140.7248 C   0  0  0  0  0  0  0  0  0  0  0  0
  -19.6756  -10.0399  138.6436 C   0  0  0  0  0  0  0  0  0  0  0  0
  -21.3127   -9.7025  142.0367 C   0  0  0  0  0  0  0  0  0  0  0  0
  -18.9295   -9.0114  137.7733 C   0  0  0  0  0  0  0  0  0  0  0  0
  -20.4264  -10.0714  143.2426 C   0  0  0  0  0  0  0  0  0  0  0  0
  -19.1789   -9.2360  143.4886 C   0  0  0  0  0  0  0  0  0  0  0  0
  -20.4123   -9.0230  144.3533 C   0  0  0  0  0  0  0  0  0  0  0  0
  -19.6106   -9.6777  140.1178 C   0  0  0  0  0  0  0  0  0  0  0  0
  -21.9050  -10.3191  139.6244 C   0  0  0  0  0  0  0  0  0  0  0  0
  -17.4431   -9.1909  137.6968 C   0  0  0  0  0  0  0  0  0  0  0  0
  -21.1657  -10.1063  138.3047 C   0  0  0  0  0  0  0  0  0  0  0  0
  -16.9117   -9.1914  136.3319 N   0  0  0  0  0  0  0  0  0  0  0  0
  -18.3142   -9.5852  136.5158 C   0  0  0  0  0  0  0  0  0  0  0  0
  -20.2931   -9.5189  145.7300 N   0  0  0  0  0  0  0  0  0  0  0  0
  -20.3150  -11.9499  143.7629 Br  0  0  0  0  0  0  0  0  0  0  0  0
  3  1  1  0
  4  2  1  0
  5  3  1  0
  6  5  1  0
  7  5  1  0
  7  6  1  0
  8  1  1  0
  8  2  1  0
  9  1  1  0
 10  4  1  0
 11  2  1  0
 11  9  1  0
 12 10  1  0
 13  4  1  0
 13 10  1  0
 13 12  1  0
 14  7  1  0
 15  5  1  0
M  END
$$$$

     RDKit          3D

 15 14  0  0  0  0  0  0  0  0999 V2000
  -29.1883   -1.8674  139.9322 O   0  0  0  0  0  0  0  0  0  0  0  0
  -30.1193   -1.4799  140.9072 C   0  0  0  0  0  0  0  0  0  0  0  0
  -30.8162   -0.4517  140.6957 O   0  0  0  0  0  0  0  0  0  0  0  0
  -28.3850   -3.0381  140.0113 C   0  0  0  0  0  0  0  0  0  0  0  0
  -30.3038   -2.2318  142.2041 C   0  0  0  0  0  0  0  0  0  0  0  0
  -29.3015   -1.7717  143.2896 C   0  0  0  0  0  0  0  0  0  0  0  0
  -29.5521   -0.2994  143.7359 C   0  0  0  0  0  0  0  0  0  0  0  0
  -28.5296    0.6974  143.1533 C   0  0  0  0  0  0  0  0  0  0  0  0
  -27.1161    0.6009  143.7846 C   0  0  0  0  0  0  0  0  0  0  0  0
  -26.1005    1.4235  143.0116 C   0  0  0  0  0  0  0  0  0  0  0  0
  -27.1086    1.0175  145.2662 C   0  0  0  0  0  0  0  0  0  0  0  0
  -29.3688   -2.7151  144.5030 C   0  0  0  0  0  0  0  0  0  0  0  0
  -26.2782    2.7435  142.8380 C   0  0  0  0  0  0  0  0  0  0  0  0
  -26.3138    3.3192  141.4468 C   0  0  0  0  0  0  0  0  0  0  0  0
  -27.4296    2.7383  140.5793 C   0  0  0  0  0  0  0  0  0  0  0  0
  2  1  1  0
  3  2  2  0
  4  1  1  0
  5  2  1  0
  6  5  1  0
  7  6  1  0
  8  7  1  0
  9  8  1  0
 10  9  1  0
 11  9  1  0
 12  6  1  0
 13 10  2  3
 14 13  1  0
 15 14  1  0
M  END
$$$$

     RDKit          3D

 15 18  0  0  0  0  0  0  0  0999 V2000
  -21.3546   -8.3755  151.7099 C   0  0  0  0  0  0  0  0  0  0  0  0
  -23.8888   -8.5058  151.7396 C   0  0  0  0  0  0  0  0  0  0  0  0
  -24.3620   -7.3590  150.9128 C   0  0  0  0  0  0  0  0  0  0  0  0
  -25.1978   -7.8948  152.0084 N   0  0  0  0  0  0  0  0  0  0  0  0
  -20.4197   -8.9336  152.6956 C   0  0  0  0  0  0  0  0  0  0  0  0
  -20.8252   -8.8527  154.0939 N   0  0  0  0  0  0  0  0  0  0  0  0
  -20.1768   -7.5900  152.1369 N   0  0  0  0  0  0  0  0  0  0  0  0
  -23.0987   -6.5743  151.2771 C   0  0  0  0  0  0  0  0  0  0  0  0
  -23.3706   -5.2297  151.9828 C   0  0  0  0  0  0  0  0  0  0  0  0
  -22.0800   -4.5519  152.4804 C   0  0  0  0  0  0  0  0  0  0  0  0
  -22.6602   -7.7116  152.1814 C   0  0  0  0  0  0  0  0  0  0  0  0
  -21.2448   -3.9150  151.3574 C   0  0  0  0  0  0  0  0  0  0  0  0
  -21.8485   -2.5789  150.8927 C   0  0  0  0  0  0  0  0  0  0  0  0
  -21.2947   -1.3370  151.5748 C   0  0  0  0  0  0  0  0  0  0  0  0
  -20.8860   -1.6674  150.1481 C   0  0  0  0  0  0  0  0  0  0  0  0
  3  2  1  0
  4  2  1  0
  4  3  1  0
  5  1  1  0
  6  5  1  0
  7  1  1  0
  7  5  1  0
  8  3  1  0
  9  8  1  0
 10  9  1  0
 11  1  1  0
 11  2  1  0
 11  8  1  0
 12 10  1  0
 13 12  1  0
 14 13  1  0
 15 13  1  0
 15 14  1  0
M  END
$$$$

     RDKit          3D

 15 16  0  0  0  0  0  0  0  0999 V2000
  -19.2435    1.6987  138.0252 N   0  0  0  0  0  0  0  0  0  0  0  0
  -20.5669    1.4919  137.3890 C   0  0  0  0  0  0  0  0  0  0  0  0
  -21.0523    2.6785  136.6145 N   0  0  0  0  0  0  0  0  0  0  0  0
  -21.2323    1.1470  138.7298 C   0  0  0  0  0  0  0  0  0  0  0  0
  -20.9381    2.4453  135.1546 C   0  0  0  0  0  0  0  0  0  0  0  0
  -19.5176    2.0825  134.6401 C   0  0  0  0  0  0  0  0  0  0  0  0
  -19.6943    0.6894  133.9877 C   0  0  0  0  0  0  0  0  0  0  0  0
  -18.8379    3.1157  138.1396 C   0  0  0  0  0  0  0  0  0  0  0  0
  -19.8252    1.2510  139.3030 C   0  0  0  0  0  0  0  0  0  0  0  0
  -18.8541   -0.3696  134.6359 C   0  0  0  0  0  0  0  0  0  0  0  0
  -19.4005   -1.5037  135.0748 C   0  0  0  0  0  0  0  0  0  0  0  0
  -21.7411    0.5785  134.5542 Mg  0  0  0  0  0  2  0  0  0  0  0  0
  -22.4589    3.0177  136.9012 C   0  0  0  0  0  0  0  0  0  0  0  0
  -18.0715   -0.1369  140.0624 O   0  0  0  0  0  0  0  0  0  0  0  0
  -19.2386   -0.0725  139.7114 C   0  0  0  0  0  0  0  0  0  0  0  0
  2  1  1  0
  3  2  1  0
  4  2  1  0
  5  3  1  0
  6  5  1  0
  7  6  1  0
  8  1  1  0
  9  1  1  0
  9  4  1  0
 10  7  1  0
 11 10  2  0
 12  5  1  0
 12  7  1  0
 13  3  1  0
 15  9  1  0
 15 14  2  0
M  END
$$$$

     RDKit          3D

 15 18  0  0  0  0  0  0  0  0999 V2000
  -23.5439  -21.7577  135.0709 O   0  0  0  0  0  0  0  0  0  0  0  0
  -22.7653  -21.5429  136.1887 C   0  0  0  0  0  0  0  0  0  0  0  0
  -21.5423  -21.2506  136.1331 O   0  0  0  0  0  0  0  0  0  0  0  0
  -23.5537  -21.6239  137.4307 C   0  0  0  0  0  0  0  0  0  0  0  0
  -22.9423  -22.1437  138.7500 C   0  0  0  0  0  0  0  0  0  0  0  0
  -22.4565  -23.6031  138.7969 C   0  0  0  0  0  0  0  0  0  0  0  0
  -21.2451  -23.9269  139.6887 C   0  0  0  0  0  0  0  0  0  0  0  0
  -24.9739  -21.9132  136.9600 C   0  0  0  0  0  0  0  0  0  0  0  0
  -20.1262  -24.5820  138.9164 C   0  0  0  0  0  0  0  0  0  0  0  0
  -24.9023  -21.9970  135.4218 C   0  0  0  0  0  0  0  0  0  0  0  0
  -23.7010  -23.1792  139.5793 C   0  0  0  0  0  0  0  0  0  0  0  0
  -20.2643  -25.0566  137.6654 C   0  0  0  0  0  0  0  0  0  0  0  0
  -21.4973  -24.8252  136.8273 C   0  0  0  0  0  0  0  0  0  0  0  0
  -22.7539  -24.6091  137.6733 C   0  0  0  0  0  0  0  0  0  0  0  0
  -24.6314  -20.5576  137.5727 C   0  0  0  0  0  0  0  0  0  0  0  0
  2  1  1  0
  3  2  2  0
  4  2  1  0
  5  4  1  0
  6  5  1  0
  7  6  1  0
  8  4  1  0
  9  7  1  0
 10  1  1  0
 10  8  1  0
 11  5  1  0
 11  6  1  0
 12  9  2  0
 13 12  1  0
 14  6  1  0
 14 13  1  0
 15  4  1  0
 15  8  1  0
M  END
$$$$

     RDKit          3D

 11 12  0  0  0  0  0  0  0  0999 V2000
  -19.8248  -10.1010  142.9377 O   0  0  0  0  0  0  0  0  0  0  0  0
  -20.4064  -10.7275  143.8608 C   0  0  0  0  0  0  0  0  0  0  0  0
  -20.5906  -11.9532  144.7052 O   0  0  0  0  0  0  0  0  0  0  0  0
  -21.0648  -10.1196  146.2092 C   0  0  0  0  0  0  0  0  0  0  0  0
  -22.2667   -9.3190  146.7549 C   0  0  0  0  0  0  0  0  0  0  0  0
  -22.5445   -7.9727  146.0500 C   0  0  0  0  0  0  0  0  0  0  0  0
  -23.1855   -8.6693  143.6112 C   0  0  0  0  0  0  0  0  0  0  0  0
  -23.5925  -10.0751  143.9988 C   0  0  0  0  0  0  0  0  0  0  0  0
  -22.7709  -11.0520  144.4233 C   0  0  0  0  0  0  0  0  0  0  0  0
  -22.2257   -7.9061  144.5459 C   0  0  0  0  0  0  0  0  0  0  0  0
  -21.3519  -10.8247  144.8622 C   0  0  0  0  0  0  0  0  0  0  0  0
  2  1  2  0
  3  2  1  0
  5  4  1  0
  6  5  1  0
  8  7  1  0
  9  8  2  3
 10  6  1  0
 10  7  1  0
 11  2  1  0
 11  3  1  0
 11  4  1  0
 11  9  1  0
M  END
$$$$

     RDKit          3D

 15 15  0  0  0  0  0  0  0  0999 V2000
  -35.2023   -4.8943  138.7026 O   0  0  0  0  0  0  0  0  0  0  0  0
  -34.0804   -4.9494  139.5427 C   0  0  0  0  0  0  0  0  0  0  0  0
  -34.1810   -3.9498  140.5219 O   0  0  0  0  0  0  0  0  0  0  0  0
  -32.8145   -4.7201  138.7115 C   0  0  0  0  0  0  0  0  0  0  0  0
  -30.9060   -2.4672  139.9995 C   0  0  0  0  0  0  0  0  0  0  0  0
  -31.1351   -2.4578  141.5287 C   0  0  0  0  0  0  0  0  0  0  0  0
  -29.8349   -2.5588  142.3780 C   0  0  0  0  0  0  0  0  0  0  0  0
  -29.5050   -4.0304  142.7431 C   0  0  0  0  0  0  0  0  0  0  0  0
  -27.9910   -4.2889  142.7917 C   0  0  0  0  0  0  0  0  0  0  0  0
  -31.5300   -4.9432  139.5439 C   0  0  0  0  0  0  0  0  0  0  0  0
  -30.4883   -3.8197  139.3875 C   0  0  0  0  0  0  0  0  0  0  0  0
  -27.5192   -2.2225  144.2588 C   0  0  0  0  0  0  0  0  0  0  0  0
  -28.9392   -1.9046  144.7605 C   0  0  0  0  0  0  0  0  0  0  0  0
  -27.3054   -3.7313  144.0456 C   0  0  0  0  0  0  0  0  0  0  0  0
  -29.9817   -1.6797  143.6471 C   0  0  0  0  0  0  0  0  0  0  0  0
  2  1  1  0
  3  2  1  0
  4  2  1  0
  6  5  1  0
  7  6  1  0
  8  7  1  0
  9  8  1  0
 10  4  1  0
 11  5  1  0
 11 10  1  0
 13 12  1  0
 14  9  1  0
 14 12  1  0
 15  7  1  0
 15 13  1  0
M  END
$$$$

     RDKit          3D

 15 17  0  0  0  0  0  0  0  0999 V2000
  -27.1248   -1.3228  138.3416 C   0  0  0  0  0  0  0  0  0  0  0  0
  -26.4384   -1.1011  136.9853 C   0  0  0  0  0  0  0  0  0  0  0  0
  -26.1224   -1.3298  139.5034 C   0  0  0  0  0  0  0  0  0  0  0  0
  -26.0575   -0.0547  140.3408 C   0  0  0  0  0  0  0  0  0  0  0  0
  -25.8981    0.3309  136.7953 C   0  0  0  0  0  0  0  0  0  0  0  0
  -26.7720   -1.2869  140.8827 C   0  0  0  0  0  0  0  0  0  0  0  0
  -23.8311    1.8430  136.8995 C   0  0  0  0  0  0  0  0  0  0  0  0
  -22.8649    1.2306  135.8950 C   0  0  0  0  0  0  0  0  0  0  0  0
  -24.4120    0.4593  137.1855 C   0  0  0  0  0  0  0  0  0  0  0  0
  -26.0194   -2.0501  141.9809 C   0  0  0  0  0  0  0  0  0  0  0  0
  -23.4440   -0.1498  136.1710 C   0  0  0  0  0  0  0  0  0  0  0  0
  -26.3437   -1.4594  143.3622 C   0  0  0  0  0  0  0  0  0  0  0  0
  -27.7430   -1.7980  143.8763 C   0  0  0  0  0  0  0  0  0  0  0  0
  -27.1290   -2.5782  145.0308 C   0  0  0  0  0  0  0  0  0  0  0  0
  -25.7333   -2.2488  144.5189 C   0  0  0  0  0  0  0  0  0  0  0  0
  2  1  1  0
  3  1  1  0
  4  3  1  0
  5  2  1  0
  6  3  1  0
  6  4  1  0
  8  7  1  0
  9  5  1  0
  9  7  1  0
 10  6  1  0
 11  8  1  0
 11  9  1  0
 12 10  1  0
 13 12  1  0
 14 13  1  0
 15 12  1  0
 15 14  1  0
M  END
$$$$

     RDKit          3D

 14 16  0  0  0  0  0  0  0  0999 V2000
  -16.6327  -12.2164  135.7590 S   0  0  0  0  0  4  0  0  0  0  0  0
  -41.8922  -26.8193  127.7516 O   0  0  0  0  0  0  0  0  0  0  0  0
  -22.7117  -15.0174  136.7362 O   0  0  0  0  0  0  0  0  0  0  0  0
  -21.3291  -13.9377  133.5753 C   0  0  0  0  0  0  0  0  0  0  0  0
  -22.2209  -13.9002  134.7449 N   0  0  0  0  0  0  0  0  0  0  0  0
  -20.8357  -13.4265  134.9096 C   0  0  0  0  0  0  0  0  0  0  0  0
  -20.2187  -12.9428  133.6139 C   0  0  0  0  0  0  0  0  0  0  0  0
  -23.4687  -16.0138  134.7127 C   0  0  0  0  0  0  0  0  0  0  0  0
  -14.0464  -16.5686  144.6909 C   0  0  0  0  0  0  0  0  0  0  0  0
  -15.4138  -16.3048  145.2540 C   0  0  0  0  0  0  0  0  0  0  0  0
  -22.3629  -15.2147  135.3983 C   0  0  0  0  0  0  0  0  0  0  0  0
  -16.3740  -15.7381  144.5185 C   0  0  0  0  0  0  0  0  0  0  0  0
  -12.9756  -17.4187  145.9609 P   0  0  0  0  0  0  0  0  0  0  0  0
  -11.4553  -17.5150  144.8900 C   0  0  0  0  0  0  0  0  0  0  0  0
  2  1  1  0
  3  1  1  0
  5  4  1  0
  6  4  1  0
  6  5  1  0
  7  1  1  0
  7  4  1  0
  7  6  1  0
 10  9  1  0
 11  3  1  0
 11  5  1  0
 11  8  1  0
 12 10  2  0
 13  1  1  0
 13  9  1  0
 14 13  1  0
M  END
$$$$

     RDKit          3D

 15 18  0  0  0  0  0  0  0  0999 V2000
  -31.2930  -16.2991  143.9387 C   0  0  0  0  0  0  0  0  0  0  0  0
  -30.0404  -16.9435  144.3307 C   0  0  0  0  0  0  0  0  0  0  0  0
  -32.0348  -17.5968  144.0106 C   0  0  0  0  0  0  0  0  0  0  0  0
  -31.8088  -17.9800  141.5543 N   0  0  0  0  0  0  0  0  0  0  0  0
  -29.5656  -18.0348  145.2705 C   0  0  0  0  0  0  0  0  0  0  0  0
  -32.7222  -18.0148  142.6967 C   0  0  0  0  0  0  0  0  0  0  0  0
  -29.4598  -17.5363  146.7562 C   0  0  0  0  0  0  0  0  0  0  0  0
  -28.9959  -16.0242  146.8014 C   0  0  0  0  0  0  0  0  0  0  0  0
  -29.6880  -15.1588  145.7087 C   0  0  0  0  0  0  0  0  0  0  0  0
  -30.7817  -15.9855  145.2403 N   0  0  0  0  0  0  0  0  0  0  0  0
  -30.7348  -17.8102  147.5867 C   0  0  0  0  0  0  0  0  0  0  0  0
  -31.1144  -19.2298  147.5019 N   0  0  0  0  0  0  0  0  0  0  0  0
  -30.4986  -20.0193  148.5782 C   0  0  0  0  0  0  0  0  0  0  0  0
  -30.7548  -21.4408  148.3707 N   0  0  0  0  0  0  0  0  0  0  0  0
  -30.7411  -18.3482  144.3339 C   0  0  0  0  0  0  0  0  0  0  0  0
  2  1  1  0
  3  1  1  0
  5  2  1  0
  6  3  1  0
  6  4  1  0
  7  5  1  0
  8  7  1  0
  9  8  1  0
 10  1  1  0
 10  2  1  0
 10  9  1  0
 11  7  1  0
 12 11  1  0
 13 12  1  0
 14 13  1  0
 15  2  1  0
 15  3  1  0
 15  5  1  0
M  END
$$$$

     RDKit          3D

 15 14  0  0  0  0  0  0  0  0999 V2000
  -16.5929   -8.5555  146.8798 O   0  0  0  0  0  0  0  0  0  0  0  0
  -15.6994   -9.2660  146.4448 C   0  0  0  0  0  0  0  0  0  0  0  0
  -15.2670  -10.2396  147.2934 N   0  0  0  0  0  0  0  0  0  0  0  0
  -14.2760  -10.0575  148.2885 C   0  0  0  0  0  0  0  0  0  0  0  0
  -13.0774   -9.5510  147.9725 N   0  0  0  0  0  0  0  0  0  0  0  0
  -12.9600   -8.3557  147.4153 C   0  0  0  0  0  0  0  0  0  0  0  0
  -14.9381   -9.6502  149.4514 C   0  0  0  0  0  0  0  0  0  0  0  0
  -15.2220  -10.6565  147.3017 Si  0  0  0  0  0  4  0  0  0  0  0  0
  -15.9756  -10.7263  146.4010 C   0  0  0  0  0  0  0  0  0  0  0  0
  -13.2452   -8.1263  146.1195 N   0  0  0  0  0  2  0  0  0  0  0  0
  -13.0068   -6.8499  145.4387 C   0  0  0  0  0  0  0  0  0  0  0  0
  -12.3027   -7.0688  144.1499 C   0  0  0  0  0  0  0  0  0  0  0  0
  -14.4946   -7.6311  146.8185 S   0  0  0  0  0  1  0  0  0  0  0  0
  -12.5067   -7.0967  144.0332 C   0  0  0  0  0  0  0  0  0  0  0  0
  -12.6609   -6.6619  145.5611 O   0  0  0  0  0  0  0  0  0  0  0  0
  2  1  2  0
  5  4  1  0
  6  5  1  0
  7  4  1  0
  8  2  1  0
  8  3  1  0
  8  4  1  0
  9  8  1  0
 10  6  1  0
 11 10  1  0
 12 11  1  0
 13  6  1  0
 14 12  1  0
 15 11  1  0
M  RAD  2  10   2  13   2
M  END
$$$$

     RDKit          3D

 15 18  0  0  0  0  0  0  0  0999 V2000
  -21.9402  -12.2682  140.1769 C   0  0  0  0  0  0  0  0  0  0  0  0
  -22.9461  -12.0853  139.0691 C   0  0  0  0  0  0  0  0  0  0  0  0
  -24.1121  -13.0874  139.0019 C   0  0  0  0  0  0  0  0  0  0  0  0
  -21.7239  -11.0568  141.0443 C   0  0  0  0  0  0  0  0  0  0  0  0
  -23.0345  -11.1638  140.2693 C   0  0  0  0  0  0  0  0  0  0  0  0
  -20.4568  -10.3034  140.5449 C   0  0  0  0  0  0  0  0  0  0  0  0
  -19.8403   -9.4503  141.6402 C   0  0  0  0  0  0  0  0  0  0  0  0
  -20.6363   -8.7759  140.5442 C   0  0  0  0  0  0  0  0  0  0  0  0
  -23.8360  -14.3063  138.0856 C   0  0  0  0  0  0  0  0  0  0  0  0
  -23.4813  -13.9337  136.6245 C   0  0  0  0  0  0  0  0  0  0  0  0
  -25.8490  -13.9301  135.5910 C   0  0  0  0  0  0  0  0  0  0  0  0
  -26.9940  -13.5600  136.5333 C   0  0  0  0  0  0  0  0  0  0  0  0
  -20.5195   -9.5288  139.2335 C   0  0  0  0  0  0  0  0  0  0  0  0
  -24.5603  -13.1290  135.8741 C   0  0  0  0  0  0  0  0  0  0  0  0
  -22.7384  -15.2021  138.6781 C   0  0  0  0  0  0  0  0  0  0  0  0
  2  1  1  0
  3  2  1  0
  4  1  1  0
  5  1  1  0
  5  2  1  0
  5  4  1  0
  6  4  1  0
  7  6  1  0
  8  6  1  0
  8  7  1  0
  9  3  1  0
 10  9  1  0
 12 11  1  0
 13  6  1  0
 13  8  1  0
 14 10  1  0
 14 11  1  0
 15  9  1  0
M  END
$$$$

     RDKit          3D

 14 17  0  0  0  0  0  0  0  0999 V2000
  -26.5681  -15.1146  148.8115 O   0  0  0  0  0  0  0  0  0  0  0  0
  -27.2150  -13.2442  149.0121 C   0  0  0  0  0  0  0  0  0  0  0  0
  -26.7902  -14.0922  147.9859 O   0  0  0  0  0  0  0  0  0  0  0  0
  -26.2665  -13.0720  150.1761 C   0  0  0  0  0  0  0  0  0  0  0  0
  -24.7812  -13.0303  149.7928 C   0  0  0  0  0  0  0  0  0  0  0  0
  -26.9594  -14.3967  149.9453 C   0  0  0  0  0  0  0  0  0  0  0  0
  -23.8968  -12.2798  150.7815 C   0  0  0  0  0  0  0  0  0  0  0  0
  -22.2575  -13.0529  150.9739 S   0  0  0  0  0  0  0  0  0  0  0  0
  -24.2681  -11.6328  149.4432 C   0  0  0  0  0  0  0  0  0  0  0  0
  -21.4039  -11.8217  149.9483 C   0  0  0  0  0  0  0  0  0  0  0  0
  -21.4374  -13.3679  147.9189 C   0  0  0  0  0  0  0  0  0  0  0  0
  -21.2972  -13.3726  146.3956 C   0  0  0  0  0  0  0  0  0  0  0  0
  -21.8118  -11.9699  148.4767 C   0  0  0  0  0  0  0  0  0  0  0  0
  -23.3047  -11.6107  148.2339 C   0  0  0  0  0  0  0  0  0  0  0  0
  3  1  1  0
  3  2  1  0
  4  2  1  0
  5  4  1  0
  6  1  1  0
  6  2  1  0
  6  4  1  0
  7  5  1  0
  8  7  1  0
  9  5  1  0
  9  7  1  0
 10  8  1  0
 12 11  1  0
 13 10  1  0
 13 11  1  0
 14  9  1  0
 14 13  1  0
M  END
$$$$

     RDKit          3D

 15 17  0  0  0  0  0  0  0  0999 V2000
  -23.5860   -1.9233  147.9429 O   0  0  0  0  0  0  0  0  0  0  0  0
  -22.9437   -0.3033  146.3050 C   0  0  0  0  0  0  0  0  0  0  0  0
  -26.8062    2.2483  145.4451 O   0  0  0  0  0  0  0  0  0  0  0  0
  -23.1687   -0.5952  147.7894 C   0  0  0  0  0  0  0  0  0  0  0  0
  -23.6909   -2.1198  149.2490 F   0  0  0  0  0  0  0  0  0  0  0  0
  -24.3911    1.9277  143.9746 C   0  0  0  0  0  0  0  0  0  0  0  0
  -25.7636    3.0582  145.9441 C   0  0  0  0  0  0  0  0  0  0  0  0
  -25.3440    2.6880  142.2359 O   0  0  0  0  0  0  0  0  0  0  0  0
  -25.7472    1.8430  143.2869 C   0  0  0  0  0  0  0  0  0  0  0  0
  -26.9332    2.4570  144.0546 C   0  0  0  0  0  0  0  0  0  0  0  0
  -22.4464    1.1283  146.0701 C   0  0  0  0  0  0  0  0  0  0  0  0
  -24.0748    2.8580  142.8207 C   0  0  0  0  0  0  0  0  0  0  0  0
  -23.4897    2.1026  146.4495 N   0  0  0  0  0  0  0  0  0  0  0  0
  -23.2494    3.4082  145.7860 C   0  0  0  0  0  0  0  0  0  0  0  0
  -24.4099    2.5989  145.3818 C   0  0  0  0  0  0  0  0  0  0  0  0
  4  1  1  0
  4  2  1  0
  5  1  1  0
  7  3  1  0
  9  6  1  0
  9  8  1  0
 10  3  1  0
 10  9  1  0
 11  2  1  0
 12  6  1  0
 12  8  1  0
 13 11  1  0
 14 13  1  0
 15  6  1  0
 15  7  1  0
 15 13  1  0
 15 14  1  0
M  END
$$$$

     RDKit          3D

 15 19  0  0  0  0  0  0  0  0999 V2000
  -21.9314  -22.3453  141.8719 O   0  0  0  0  0  0  0  0  0  0  0  0
  -23.5901  -20.6948  141.2091 C   0  0  0  0  0  0  0  0  0  0  0  0
  -23.6021  -19.4956  140.4777 O   0  0  0  0  0  0  0  0  0  0  0  0
  -24.1267  -21.8341  138.9051 C   0  0  0  0  0  0  0  0  0  0  0  0
  -22.4262  -21.5899  140.8050 C   0  0  0  0  0  0  0  0  0  0  0  0
  -24.8555  -18.9075  140.6979 C   0  0  0  0  0  0  0  0  0  0  0  0
  -25.0308  -17.8864  141.8200 C   0  0  0  0  0  0  0  0  0  0  0  0
  -23.8440  -21.9726  140.4036 C   0  0  0  0  0  0  0  0  0  0  0  0
  -24.9958  -17.7942  139.6909 C   0  0  0  0  0  0  0  0  0  0  0  0
  -25.8941  -18.0477  138.5000 C   0  0  0  0  0  0  0  0  0  0  0  0
  -27.1122  -17.1222  138.3363 C   0  0  0  0  0  0  0  0  0  0  0  0
  -27.3909  -16.7045  136.8989 C   0  0  0  0  0  0  0  0  0  0  0  0
  -25.3740  -16.8149  140.7981 C   0  0  0  0  0  0  0  0  0  0  0  0
  -25.9506  -19.0272  139.6540 C   0  0  0  0  0  0  0  0  0  0  0  0
  -26.7751  -15.7133  137.8711 C   0  0  0  0  0  0  0  0  0  0  0  0
  3  2  1  0
  5  1  1  0
  5  2  1  0
  6  3  1  0
  7  6  1  0
  8  2  1  0
  8  4  1  0
  8  5  1  0
  9  6  1  0
 10  9  1  0
 11 10  1  0
 12 11  1  0
 13  7  1  0
 13  9  1  0
 14  6  1  0
 14  9  1  0
 14 10  1  0
 15 11  1  0
 15 12  1  0
M  END
$$$$

     RDKit          3D

 13 13  0  0  0  0  0  0  0  0999 V2000
  -32.1680   -4.4209  136.6121 P   0  0  0  0  0  0  0  0  0  0  0  0
  -32.0768   -3.0961  134.2240 O   0  0  0  0  0  0  0  0  0  0  0  0
  -33.3814   -2.9430  134.0692 O   0  0  0  0  0  0  0  0  0  0  0  0
  -25.7710   -6.6189  135.6855 C   0  0  0  0  0  0  0  0  0  0  0  0
  -26.2118   -4.5326  134.3085 C   0  0  0  0  0  0  0  0  0  0  0  0
  -26.8071   -5.5257  135.3436 C   0  0  0  0  0  0  0  0  0  0  0  0
  -25.0997   -3.6932  134.8847 C   0  0  0  0  0  0  0  0  0  0  0  0
  -31.8390   -2.8641  135.5864 C   0  0  0  0  0  0  0  0  0  0  0  0
  -29.5955   -4.0616  135.1832 C   0  0  0  0  0  0  0  0  0  0  0  0
  -30.6106   -3.4005  136.1476 C   0  0  0  0  0  0  0  0  0  0  0  0
  -25.3201   -2.7158  135.7671 C   0  0  0  0  0  0  0  0  0  0  0  0
  -28.1253   -6.1769  134.8133 C   0  0  0  0  0  0  0  0  0  0  0  0
  -29.4209   -5.5760  135.4214 C   0  0  0  0  0  0  0  0  0  0  0  0
  3  2  1  0
  6  4  1  0
  6  5  1  0
  7  5  1  0
  8  1  1  0
  8  2  1  0
 10  1  1  0
 10  8  1  0
 10  9  1  0
 11  7  2  0
 12  6  1  0
 13  9  1  0
 13 12  1  0
M  END
$$$$

     RDKit          3D

 11 11  0  0  0  0  0  0  0  0999 V2000
  -26.1627    2.3858  135.5764 C   0  0  0  0  0  0  0  0  0  0  0  0
  -25.7595    2.3051  134.2960 C   0  0  0  0  0  0  0  0  0  0  0  0
  -26.0827    1.3394  136.6788 C   0  0  0  0  0  0  0  0  0  0  0  0
  -25.1039    1.1490  133.6564 C   0  0  0  0  0  0  0  0  0  0  0  0
  -24.8322    1.1556  132.3486 C   0  0  0  0  0  0  0  0  0  0  0  0
  -26.6208   -0.0477  136.3767 C   0  0  0  0  0  0  0  0  0  0  0  0
  -24.1713   -0.0145  131.6752 C   0  0  0  0  0  0  0  0  0  0  0  0
  -25.2351   -0.5145  136.7979 C   0  0  0  0  0  0  0  0  0  0  0  0
  -25.9050   -1.7912  132.2647 C   0  0  0  0  0  0  0  0  0  0  0  0
  -24.7387    0.8512  137.0006 N   0  0  0  0  0  0  0  0  0  0  0  0
  -25.1942   -1.0294  131.1461 C   0  0  0  0  0  0  0  0  0  0  0  0
  2  1  2  3
  3  1  1  0
  4  2  1  0
  5  4  2  3
  6  3  1  0
  7  5  1  0
  8  6  1  0
 10  3  1  0
 10  8  1  0
 11  7  1  0
 11  9  1  0
M  END
$$$$

     RDKit          3D

 15 16  0  0  0  0  0  0  0  0999 V2000
  -24.8682   -5.1310  134.8621 N   0  0  0  0  0  2  0  0  0  0  0  0
  -24.4719   -4.2200  135.9278 C   0  0  0  0  0  0  0  0  0  0  0  0
  -24.3638   -4.5944  133.6079 C   0  0  0  0  0  0  0  0  0  0  0  0
  -25.0439   -5.2183  132.4606 N   0  0  0  0  0  2  0  0  0  0  0  0
  -25.1335   -4.5485  137.2605 C   0  0  0  0  0  0  0  0  0  0  0  0
  -24.3561   -4.1487  138.5205 C   0  0  0  0  0  0  0  0  0  0  0  0
  -23.6665   -5.3522  139.1656 C   0  0  0  0  0  0  0  0  0  0  0  0
  -25.3389   -3.8297  132.8313 C   0  0  0  0  0  0  0  0  0  0  0  0
  -22.5827   -5.9614  138.2623 C   0  0  0  0  0  0  0  0  0  0  0  0
  -21.6402   -6.8703  139.0689 C   0  0  0  0  0  0  0  0  0  0  0  0
  -19.7165   -6.6389  137.3967 C   0  0  0  0  0  0  0  0  0  0  0  0
  -20.6142   -7.5970  138.1885 C   0  0  0  0  0  0  0  0  0  0  0  0
  -24.8451   -2.9159  131.9268 F   0  0  0  0  0  0  0  0  0  0  0  0
  -25.6124   -3.3542  136.4432 C   0  0  0  0  0  0  0  0  0  0  0  0
  -26.6250   -3.6773  133.3106 F   0  0  0  0  0  0  0  0  0  0  0  0
  2  1  1  0
  3  1  1  0
  4  3  1  0
  5  2  1  0
  6  5  1  0
  7  6  1  0
  8  3  1  0
  8  4  1  0
  9  7  1  0
 10  9  1  0
 12 10  1  0
 12 11  1  0
 13  8  1  0
 14  2  1  0
 14  5  1  0
 15  8  1  0
M  RAD  2   1   2   4   2
M  END
$$$$

     RDKit          3D

 15 17  0  0  0  0  0  0  0  0999 V2000
  -22.7403   -1.8404  139.7339 Mg  0  0  0  0  0  2  0  0  0  0  0  0
  -21.5222   -4.5260  140.4177 O   0  0  0  0  0  0  0  0  0  0  0  0
  -20.7484   -3.6185  140.9775 O   0  0  0  0  0  0  0  0  0  0  0  0
  -23.8146    2.1533  137.9027 O   0  0  0  0  0  0  0  0  0  0  0  0
  -24.1077   -3.2616  136.3070 S   0  0  0  0  0  4  0  0  0  0  0  0
  -24.8150   -0.0268  138.3174 C   0  0  0  0  0  0  0  0  0  0  0  0
  -23.5312   -6.7487  137.7863 N   0  0  0  0  0  0  0  0  0  0  0  0
  -23.7062   -0.1839  137.2804 C   0  0  0  0  0  0  0  0  0  0  0  0
  -24.7556   -1.1058  139.3909 C   0  0  0  0  0  0  0  0  0  0  0  0
  -23.5805    0.8582  138.3717 C   0  0  0  0  0  0  0  0  0  0  0  0
  -20.7254   -2.5598  140.0693 C   0  0  0  0  0  0  0  0  0  0  0  0
  -23.1126   -7.2669  139.0783 C   0  0  0  0  0  0  0  0  0  0  0  0
  -25.8969   -2.5038  138.9425 P   0  0  0  0  0  0  0  0  0  0  0  0
  -26.6948   -2.5524  140.4830 O   0  0  0  0  0  0  0  0  0  0  0  0
  -24.7741   -3.7716  139.3192 O   0  0  0  0  0  0  0  0  0  0  0  0
  3  2  1  0
  6  5  1  0
  7  5  1  0
  8  6  1  0
  9  1  1  0
  9  5  1  0
  9  6  1  0
 10  4  1  0
 10  6  1  0
 10  8  1  0
 11  1  1  0
 11  3  1  0
 11  5  1  0
 12  7  1  0
 13  9  1  0
 14 13  1  0
 15 13  1  0
M  END
$$$$

     RDKit          3D

 15 15  0  0  0  0  0  0  0  0999 V2000
  -18.6308   -5.4692  131.4796 O   0  0  0  0  0  0  0  0  0  0  0  0
  -17.5610   -4.5750  131.7610 C   0  0  0  0  0  0  0  0  0  0  0  0
  -16.3596   -4.9786  131.1294 O   0  0  0  0  0  0  0  0  0  0  0  0
  -17.4035   -4.3098  133.2801 C   0  0  0  0  0  0  0  0  0  0  0  0
  -18.9495   -2.2744  134.1166 C   0  0  0  0  0  0  0  0  0  0  0  0
  -17.9370   -1.2652  133.5294 C   0  0  0  0  0  0  0  0  0  0  0  0
  -17.0402   -0.6578  134.5761 C   0  0  0  0  0  0  0  0  0  0  0  0
  -15.7117   -0.8349  134.5467 C   0  0  0  0  0  0  0  0  0  0  0  0
  -14.8038   -0.2442  135.5927 C   0  0  0  0  0  0  0  0  0  0  0  0
  -18.7130   -3.7787  133.8916 C   0  0  0  0  0  0  0  0  0  0  0  0
  -14.5291   -1.2305  136.7392 C   0  0  0  0  0  0  0  0  0  0  0  0
  -18.2700   -6.8192  131.6969 C   0  0  0  0  0  0  0  0  0  0  0  0
  -18.5003   -3.1696  135.2721 C   0  0  0  0  0  0  0  0  0  0  0  0
  -15.6924   -1.3641  137.7356 C   0  0  0  0  0  0  0  0  0  0  0  0
  -15.7865   -0.1766  138.6905 C   0  0  0  0  0  0  0  0  0  0  0  0
  2  1  1  0
  3  2  1  0
  4  2  1  0
  6  5  1  0
  7  6  1  0
  8  7  2  3
  9  8  1  0
 10  4  1  0
 10  5  1  0
 11  9  1  0
 12  1  1  0
 13  5  1  0
 13 10  1  0
 14 11  1  0
 15 14  1  0
M  END
$$$$

     RDKit          3D

 15 21  0  0  0  0  0  0  0  0999 V2000
  -29.1715  -20.2766  137.9038 C   0  0  0  0  0  0  0  0  0  0  0  0
  -30.4704  -19.8663  139.8237 C   0  0  0  0  0  0  0  0  0  0  0  0
  -29.9471  -20.7427  140.9626 C   0  0  0  0  0  0  0  0  0  0  0  0
  -29.6814  -22.2415  140.7071 C   0  0  0  0  0  0  0  0  0  0  0  0
  -28.1891  -20.1723  139.0676 C   0  0  0  0  0  0  0  0  0  0  0  0
  -29.1247  -23.0271  141.8795 C   0  0  0  0  0  0  0  0  0  0  0  0
  -30.5159  -20.4198  138.4680 N   0  0  0  0  0  0  0  0  0  0  0  0
  -27.7062  -22.3218  134.1938 Sb  0  0  0  0  0  3  0  0  0  0  0  0
  -29.7335  -22.4053  134.8400 C   0  0  0  0  0  0  0  0  0  0  0  0
  -28.8270  -21.4474  136.9650 C   0  0  0  0  0  0  0  0  0  0  0  0
  -30.1760  -23.5496  142.8306 C   0  0  0  0  0  0  0  0  0  0  0  0
  -30.6352  -23.1126  141.4713 C   0  0  0  0  0  0  0  0  0  0  0  0
  -27.6832  -21.1757  136.0075 C   0  0  0  0  0  0  0  0  0  0  0  0
  -29.1202  -21.1861  135.4986 C   0  0  0  0  0  0  0  0  0  0  0  0
  -29.0174  -19.7442  140.2661 C   0  0  0  0  0  0  0  0  0  0  0  0
  3  2  1  0
  4  3  1  0
  5  1  1  0
  6  4  1  0
  7  1  1  0
  7  2  1  0
  9  8  1  0
 10  1  1  0
 11  6  1  0
 12  4  1  0
 12  6  1  0
 12 11  1  0
 13  8  1  0
 13 10  1  0
 14  8  1  0
 14  9  1  0
 14 10  1  0
 14 13  1  0
 15  2  1  0
 15  3  1  0
 15  5  1  0
M  END
$$$$

     RDKit          3D

 15 17  0  0  0  0  0  0  0  0999 V2000
  -20.9723  -19.8449  136.3819 O   0  0  0  0  0  0  0  0  0  0  0  0
  -21.7126  -19.8474  137.6100 C   0  0  0  0  0  0  0  0  0  0  0  0
  -21.6437  -18.4618  138.0821 O   0  0  0  0  0  0  0  0  0  0  0  0
  -22.2641  -20.4503  136.3390 C   0  0  0  0  0  0  0  0  0  0  0  0
  -23.0831  -20.0034  135.0503 C   0  0  0  0  0  0  0  0  0  0  0  0
  -24.2583  -18.9696  135.2208 C   0  0  0  0  0  0  0  0  0  0  0  0
  -24.0747  -17.5455  135.9399 C   0  0  0  0  0  0  0  0  0  0  0  0
  -22.6776  -17.1160  135.4177 C   0  0  0  0  0  0  0  0  0  0  0  0
  -22.5005  -15.6309  135.0259 C   0  0  0  0  0  0  0  0  0  0  0  0
  -21.1109  -15.3990  134.3865 C   0  0  0  0  0  0  0  0  0  0  0  0
  -19.8157  -15.5619  135.1150 C   0  0  0  0  0  0  0  0  0  0  0  0
  -18.8143  -15.0652  137.4026 C   0  0  0  0  0  0  0  0  0  0  0  0
  -19.7848  -15.9511  136.6084 C   0  0  0  0  0  0  0  0  0  0  0  0
  -20.4260  -14.2871  134.9199 O   0  0  0  0  0  0  0  0  0  0  0  0
  -24.7531  -18.8117  136.5938 C   0  0  0  0  0  0  0  0  0  0  0  0
  2  1  1  0
  3  2  1  0
  4  1  1  0
  4  2  1  0
  5  4  1  0
  6  5  1  0
  7  6  1  0
  8  7  1  0
  9  8  1  0
 10  9  1  0
 11 10  1  0
 13 11  1  0
 13 12  1  0
 14 10  1  0
 14 11  1  0
 15  6  1  0
 15  7  1  0
M  END
$$$$

     RDKit          3D

 15 17  0  0  0  0  0  0  0  0999 V2000
  -26.5730    5.3735  132.4269 O   0  0  0  0  0  0  0  0  0  0  0  0
  -29.4040    0.9385  137.1346 S   0  0  0  0  0  5  0  0  0  0  0  0
  -28.8371   11.0787  142.5635 O   0  0  0  0  0  0  0  0  0  0  0  0
  -26.6398    4.7394  133.6227 N   0  0  0  0  0  2  0  0  0  0  0  0
  -29.0476    4.3911  135.8903 N   0  0  0  0  0  0  0  0  0  0  0  0
  -29.2552    3.2738  134.9610 C   0  0  0  0  0  0  0  0  0  0  0  0
  -32.0814    2.3983  133.7997 C   0  0  0  0  0  0  0  0  0  0  0  0
  -27.3561    5.6212  134.5340 C   0  0  0  0  0  0  0  0  0  0  0  0
  -31.9418    2.8534  132.3407 C   0  0  0  0  0  0  0  0  0  0  0  0
  -30.6205    2.6245  135.2216 C   0  0  0  0  0  0  0  0  0  0  0  0
  -28.3968    3.9980  129.9870 O   0  0  0  0  0  0  0  0  0  0  0  0
  -30.9500    1.4914  134.2609 C   0  0  0  0  0  0  0  0  0  0  0  0
  -33.0072    3.7908  131.9996 N   0  0  0  0  0  0  0  0  0  0  0  0
  -31.7159    3.4669  134.7330 N   0  0  0  0  0  0  0  0  0  0  0  0
  -27.6680    4.8868  135.8380 C   0  0  0  0  0  0  0  0  0  0  0  0
  2  1  1  0
  3  2  1  0
  4  1  1  0
  6  5  1  0
  8  2  1  0
  8  4  1  0
  9  7  1  0
 10  6  1  0
 11  2  1  0
 12  7  1  0
 12 10  1  0
 13  9  1  0
 14  7  1  0
 14 10  1  0
 15  2  1  0
 15  5  1  0
 15  8  1  0
M  RAD  2   2   2   4   2
M  END
$$$$

     RDKit          3D

 15 15  0  0  0  0  0  0  0  0999 V2000
  -30.7812  -18.7051  136.6209 O   0  0  0  0  0  0  0  0  0  0  0  0
  -31.0293  -17.3356  136.3769 C   0  0  0  0  0  0  0  0  0  0  0  0
  -32.5377  -17.0769  136.1829 C   0  0  0  0  0  0  0  0  0  0  0  0
  -33.1188  -17.8333  134.9635 C   0  0  0  0  0  0  0  0  0  0  0  0
  -32.0951  -18.1264  133.8499 C   0  0  0  0  0  0  0  0  0  0  0  0
  -30.9533  -17.0904  133.7568 C   0  0  0  0  0  0  0  0  0  0  0  0
  -31.4631  -15.7317  133.2033 C   0  0  0  0  0  0  0  0  0  0  0  0
  -29.4277  -19.3237  138.2323 C   0  0  0  0  0  0  0  0  0  0  0  0
  -29.2496  -20.7788  137.8065 C   0  0  0  0  0  0  0  0  0  0  0  0
  -30.7247  -18.8686  137.9345 O   0  0  0  0  0  0  0  0  0  0  0  0
  -29.0039  -16.5394  135.1726 C   0  0  0  0  0  0  0  0  0  0  0  0
  -30.0475  -15.4871  131.0903 C   0  0  0  0  0  0  0  0  0  0  0  0
  -33.3462  -17.3702  137.4534 C   0  0  0  0  0  0  0  0  0  0  0  0
  -30.2856  -16.9329  135.1134 C   0  0  0  0  0  0  0  0  0  0  0  0
  -30.3843  -14.9133  132.4687 C   0  0  0  0  0  0  0  0  0  0  0  0
  2  1  1  0
  3  2  1  0
  4  3  1  0
  5  4  1  0
  6  5  1  0
  7  6  1  0
  9  8  1  0
 10  1  1  0
 10  8  1  0
 13  3  1  0
 14  2  1  0
 14  6  1  0
 14 11  2  0
 15  7  1  0
 15 12  1  0
M  END
$$$$

     RDKit          3D

 15 16  0  0  0  0  0  0  0  0999 V2000
  -24.8506  -14.5594  153.3265 O   0  0  0  0  0  0  0  0  0  0  0  0
  -24.8415  -13.3016  153.2460 C   0  0  0  0  0  0  0  0  0  0  0  0
  -24.5583  -12.6859  152.0305 O   0  0  0  0  0  0  0  0  0  0  0  0
  -25.1574  -12.4664  154.4526 C   0  0  0  0  0  0  0  0  0  0  0  0
  -27.3372  -11.5169  153.4274 C   0  0  0  0  0  0  0  0  0  0  0  0
  -26.7401  -10.1335  153.1216 C   0  0  0  0  0  0  0  0  0  0  0  0
  -26.6706  -12.2051  154.6416 C   0  0  0  0  0  0  0  0  0  0  0  0
  -27.4178  -13.5001  154.9934 C   0  0  0  0  0  0  0  0  0  0  0  0
  -27.6179   -9.3497  152.1295 C   0  0  0  0  0  0  0  0  0  0  0  0
  -27.5735   -9.8803  150.6904 C   0  0  0  0  0  0  0  0  0  0  0  0
  -28.9807  -10.0775  150.1008 C   0  0  0  0  0  0  0  0  0  0  0  0
  -29.5381  -11.4853  150.2434 C   0  0  0  0  0  0  0  0  0  0  0  0
  -26.9750   -8.0438  151.6626 C   0  0  0  0  0  0  0  0  0  0  0  0
  -26.9267   -8.5732  150.2348 C   0  0  0  0  0  0  0  0  0  0  0  0
  -29.0578  -10.9905  148.8875 C   0  0  0  0  0  0  0  0  0  0  0  0
  2  1  2  0
  3  2  1  0
  4  2  1  0
  6  5  1  0
  7  4  1  0
  7  5  1  0
  8  7  1  0
  9  6  1  0
 10  9  1  0
 11 10  1  0
 12 11  1  0
 13  9  1  0
 14 10  1  0
 14 13  1  0
 15 11  1  0
 15 12  1  0
M  END
$$$$

     RDKit          3D

 13 16  0  0  0  0  0  0  0  0999 V2000
  -31.2855  -10.0895  150.1578 C   0  0  0  0  0  0  0  0  0  0  0  0
  -31.1310  -10.1921  152.6977 C   0  0  0  0  0  0  0  0  0  0  0  0
  -32.0994   -9.0182  152.9627 C   0  0  0  0  0  0  0  0  0  0  0  0
  -29.1864  -10.9732  151.2998 C   0  0  0  0  0  0  0  0  0  0  0  0
  -33.3142   -8.2362  153.5839 C   0  0  0  0  0  0  0  0  0  0  0  0
  -32.5816   -6.9923  153.4095 N   0  0  0  0  0  2  0  0  0  0  0  0
  -33.2049   -5.9822  154.2543 C   0  0  0  0  0  0  0  0  0  0  0  0
  -30.3488   -9.9696  151.3852 C   0  0  0  0  0  0  0  0  0  0  0  0
  -30.6111   -9.6756  148.8490 C   0  0  0  0  0  0  0  0  0  0  0  0
  -32.6299   -5.9816  155.6079 N   0  0  0  0  0  2  0  0  0  0  0  0
  -32.3033   -4.9093  154.6509 C   0  0  0  0  0  0  0  0  0  0  0  0
  -32.6602   -9.3270  154.2692 N   0  0  0  0  0  0  0  0  0  0  0  0
  -33.3979   -9.5172  152.9302 C   0  0  0  0  0  0  0  0  0  0  0  0
  3  2  1  0
  5  3  1  0
  6  5  1  0
  7  6  1  0
  8  1  1  0
  8  2  1  0
  8  4  1  0
  9  1  1  0
 10  7  1  0
 11  7  1  0
 11 10  1  0
 12  3  1  0
 12  5  1  0
 13  3  1  0
 13  5  1  0
 13 12  1  0
M  RAD  2   6   2  10   2
M  END
$$$$

     RDKit          3D

 15 17  0  0  0  0  0  0  0  0999 V2000
  -33.2088  -18.5201  146.9063 C   0  0  0  0  0  0  0  0  0  0  0  0
  -34.6165  -19.6511  148.8649 C   0  0  0  0  0  0  0  0  0  0  0  0
  -34.3924  -18.2388  146.0772 N   0  0  0  0  0  0  0  0  0  0  0  0
  -34.4449  -17.4855  148.9641 C   0  0  0  0  0  0  0  0  0  0  0  0
  -33.5902  -18.6084  148.4067 C   0  0  0  0  0  0  0  0  0  0  0  0
  -35.1323  -17.1346  144.0045 C   0  0  0  0  0  0  0  0  0  0  0  0
  -36.3469  -17.9643  143.9007 N   0  0  0  0  0  0  0  0  0  0  0  0
  -37.3746  -17.5458  144.8646 C   0  0  0  0  0  0  0  0  0  0  0  0
  -35.4904  -18.5204  149.4046 C   0  0  0  0  0  0  0  0  0  0  0  0
  -34.0030  -17.9050  144.7000 C   0  0  0  0  0  0  0  0  0  0  0  0
  -38.5563  -18.5253  144.8299 C   0  0  0  0  0  0  0  0  0  0  0  0
  -33.2771  -17.2568  149.9171 C   0  0  0  0  0  0  0  0  0  0  0  0
  -32.5007  -18.3780  149.3668 N   0  0  0  0  0  0  0  0  0  0  0  0
  -38.2501  -19.9024  145.4218 C   0  0  0  0  0  0  0  0  0  0  0  0
  -39.1411  -18.9229  146.1856 C   0  0  0  0  0  0  0  0  0  0  0  0
  3  1  1  0
  5  1  1  0
  5  2  1  0
  5  4  1  0
  7  6  1  0
  8  7  1  0
  9  2  1  0
  9  4  1  0
 10  3  1  0
 10  6  1  0
 11  8  1  0
 12  4  1  0
 13  5  1  0
 13 12  1  0
 14 11  1  0
 15 11  1  0
 15 14  1  0
M  END
$$$$

     RDKit          3D

 11 12  0  0  0  0  0  0  0  0999 V2000
  -31.6725  -12.6300  144.1101 B   0  0  0  0  0  0  0  0  0  0  0  0
  -31.8126  -13.9178  143.1588 C   0  0  0  0  0  0  0  0  0  0  0  0
  -30.5931  -11.9913  145.0853 C   0  0  0  0  0  0  0  0  0  0  0  0
  -31.1154  -11.9497  146.4560 N   0  0  0  0  0  0  0  0  0  0  0  0
  -32.9390  -14.8777  143.4608 C   0  0  0  0  0  0  0  0  0  0  0  0
  -31.0787  -13.1147  147.2962 C   0  0  0  0  0  0  0  0  0  0  0  0
  -30.5959  -14.2003  146.8767 O   0  0  0  0  0  0  0  0  0  0  0  0
  -31.7312  -10.7307  146.9813 C   0  0  0  0  0  0  0  0  0  0  0  0
  -32.9945  -15.9600  142.5792 O   0  0  0  0  0  0  0  0  0  0  0  0
  -33.2414  -13.5606  142.7789 C   0  0  0  0  0  0  0  0  0  0  0  0
  -33.1746  -12.3351  143.6446 C   0  0  0  0  0  0  0  0  0  0  0  0
  2  1  1  0
  3  1  1  0
  4  3  1  0
  5  2  1  0
  6  4  1  0
  7  6  2  0
  8  4  1  0
  9  5  1  0
 10  2  1  0
 10  5  1  0
 11  1  1  0
 11 10  1  0
M  END
$$$$

     RDKit          3D

 15 16  0  0  0  0  0  0  0  0999 V2000
  -31.7519  -20.8824  152.8883 Cl  0  0  0  0  0  0  0  0  0  0  0  0
  -30.6028  -18.6089  151.9862 C   0  0  0  0  0  0  0  0  0  0  0  0
  -31.5180  -19.7737  151.4957 C   0  0  0  0  0  0  0  0  0  0  0  0
  -29.9187  -17.8910  150.9123 C   0  0  0  0  0  0  0  0  0  0  0  0
  -31.2023  -17.6899  152.9498 C   0  0  0  0  0  0  0  0  0  0  0  0
  -31.1030  -17.2647  151.5412 N   0  0  0  0  0  0  0  0  0  0  0  0
  -32.9028  -19.4343  150.8829 C   0  0  0  0  0  0  0  0  0  0  0  0
  -32.8191  -18.8376  149.4609 C   0  0  0  0  0  0  0  0  0  0  0  0
  -33.9966  -19.2525  148.5671 C   0  0  0  0  0  0  0  0  0  0  0  0
  -36.5118  -19.2993  148.2836 C   0  0  0  0  0  0  0  0  0  0  0  0
  -27.1862  -18.1720  150.5165 Si  0  0  0  0  0  4  0  0  0  0  0  0
  -28.5986  -17.2213  151.2976 C   0  0  0  0  0  0  0  0  0  0  0  0
  -25.6945  -18.2184  151.6374 C   0  0  0  0  0  0  0  0  0  0  0  0
  -35.3416  -18.6871  149.0520 C   0  0  0  0  0  0  0  0  0  0  0  0
  -26.7281  -17.3989  148.8841 C   0  0  0  0  0  0  0  0  0  0  0  0
  3  1  1  0
  3  2  1  0
  4  2  1  0
  5  2  1  0
  6  2  1  0
  6  4  1  0
  6  5  1  0
  7  3  1  0
  8  7  1  0
  9  8  1  0
 12  4  1  0
 12 11  1  0
 13 11  1  0
 14  9  1  0
 14 10  1  0
 15 11  1  0
M  END
$$$$

     RDKit          3D

 15 15  0  0  0  0  0  0  0  0999 V2000
  -21.9291   -3.3939  139.3152 O   0  0  0  0  0  0  0  0  0  0  0  0
  -22.2769   -4.0362  138.1218 C   0  0  0  0  0  0  0  0  0  0  0  0
  -21.9183   -3.9966  135.7521 O   0  0  0  0  0  0  0  0  0  0  0  0
  -22.7041   -1.9461  136.6944 C   0  0  0  0  0  0  0  0  0  0  0  0
  -22.4057   -0.8238  137.7056 C   0  0  0  0  0  0  0  0  0  0  0  0
  -23.1762    0.4606  137.3657 C   0  0  0  0  0  0  0  0  0  0  0  0
  -22.6511    1.7060  138.1018 C   0  0  0  0  0  0  0  0  0  0  0  0
  -22.9129    1.7138  139.6352 C   0  0  0  0  0  0  0  0  0  0  0  0
  -21.8308   -3.2019  136.9073 C   0  0  0  0  0  0  0  0  0  0  0  0
  -23.1759    3.1511  140.1503 C   0  0  0  0  0  0  0  0  0  0  0  0
  -22.1453    4.1092  139.7180 N   0  0  0  0  0  0  0  0  0  0  0  0
  -21.7823    1.0307  140.4318 C   0  0  0  0  0  0  0  0  0  0  0  0
  -21.0150    4.1406  140.6516 C   0  0  0  0  0  0  0  0  0  0  0  0
  -19.6926    3.7310  140.0235 C   0  0  0  0  0  0  0  0  0  0  0  0
  -19.9799    5.1973  140.2901 C   0  0  0  0  0  0  0  0  0  0  0  0
  2  1  1  0
  5  4  1  0
  6  5  1  0
  7  6  1  0
  8  7  1  0
  9  2  1  0
  9  3  1  0
  9  4  1  0
 10  8  1  0
 11 10  1  0
 12  8  1  0
 13 11  1  0
 14 13  1  0
 15 13  1  0
 15 14  1  0
M  END
$$$$

     RDKit          3D

 15 16  0  0  0  0  0  0  0  0999 V2000
  -29.8352   -0.1925  140.9574 O   0  0  0  0  0  0  0  0  0  0  0  0
  -31.0122   -0.0732  140.2144 C   0  0  0  0  0  0  0  0  0  0  0  0
  -31.9780    0.6724  140.9170 O   0  0  0  0  0  0  0  0  0  0  0  0
  -31.3474    1.3146  139.8318 C   0  0  0  0  0  0  0  0  0  0  0  0
  -32.2698    1.4469  138.6544 C   0  0  0  0  0  0  0  0  0  0  0  0
  -33.2762    2.3361  138.5934 C   0  0  0  0  0  0  0  0  0  0  0  0
  -33.6627    3.2664  139.7261 C   0  0  0  0  0  0  0  0  0  0  0  0
  -34.0988    4.6353  139.1688 C   0  0  0  0  0  0  0  0  0  0  0  0
  -34.7104    5.5189  140.2274 C   0  0  0  0  0  0  0  0  0  0  0  0
  -35.2431    5.0325  141.3609 C   0  0  0  0  0  0  0  0  0  0  0  0
  -35.0999    3.5882  141.7763 C   0  0  0  0  0  0  0  0  0  0  0  0
  -34.7810    2.6506  140.5976 C   0  0  0  0  0  0  0  0  0  0  0  0
  -36.3122    1.1161  139.2555 C   0  0  0  0  0  0  0  0  0  0  0  0
  -35.5726    0.1177  139.4629 O   0  0  0  0  0  0  0  0  0  0  0  0
  -35.9956    2.3981  139.8098 N   0  0  0  0  0  0  0  0  0  0  0  0
  2  1  1  0
  3  2  1  0
  4  2  1  0
  4  3  1  0
  5  4  1  0
  6  5  2  3
  7  6  1  0
  8  7  1  0
  9  8  1  0
 10  9  2  0
 11 10  1  0
 12  7  1  0
 12 11  1  0
 14 13  2  0
 15 12  1  0
 15 13  1  0
M  END
$$$$

     RDKit          3D

 15 16  0  0  0  0  0  0  0  0999 V2000
  -26.1697  -17.6195  149.5876 N   0  0  0  0  0  0  0  0  0  0  0  0
  -27.2975  -16.7277  150.0088 C   0  0  0  0  0  0  0  0  0  0  0  0
  -27.2915  -16.4544  151.4441 N   0  0  0  0  0  0  0  0  0  0  0  0
  -26.9432  -15.3886  150.5029 C   0  0  0  0  0  0  0  0  0  0  0  0
  -26.6391  -18.5635  148.5519 C   0  0  0  0  0  0  0  0  0  0  0  0
  -27.5432  -15.5484  149.1690 N   0  0  0  0  0  0  0  0  0  0  0  0
  -27.6982  -19.5518  149.0886 C   0  0  0  0  0  0  0  0  0  0  0  0
  -28.0927  -21.8506  150.0497 C   0  0  0  0  0  0  0  0  0  0  0  0
  -26.8589  -20.1083  151.4478 C   0  0  0  0  0  0  0  0  0  0  0  0
  -26.2938  -21.1315  152.4645 C   0  0  0  0  0  0  0  0  0  0  0  0
  -24.9513  -21.7208  152.0057 C   0  0  0  0  0  0  0  0  0  0  0  0
  -27.1223  -20.6560  150.0175 C   0  0  0  0  0  0  0  0  0  0  0  0
  -24.8029  -17.0966  149.3126 C   0  0  0  0  0  0  0  0  0  0  0  0
  -23.9415  -17.2051  150.5682 C   0  0  0  0  0  0  0  0  0  0  0  0
  -26.1236  -20.4595  153.8338 C   0  0  0  0  0  0  0  0  0  0  0  0
  2  1  1  0
  3  2  1  0
  4  2  1  0
  4  3  1  0
  5  1  1  0
  6  2  1  0
  6  4  1  0
  7  5  1  0
 10  9  1  0
 11 10  1  0
 12  7  1  0
 12  8  1  0
 12  9  1  0
 13  1  1  0
 14 13  1  0
 15 10  1  0
M  END
$$$$

     RDKit          3D

 15 15  0  0  0  0  0  0  0  0999 V2000
  -23.5607   -7.5264  138.7393 C   0  0  0  0  0  0  0  0  0  0  0  0
  -24.6759   -8.4362  139.3445 C   0  0  0  0  0  0  0  0  0  0  0  0
  -25.9684   -8.8717  138.6010 C   0  0  0  0  0  0  0  0  0  0  0  0
  -23.8427   -6.7951  137.3896 C   0  0  0  0  0  0  0  0  0  0  0  0
  -22.4785   -6.5071  136.6604 C   0  0  0  0  0  0  0  0  0  0  0  0
  -27.1824   -9.3927  139.4320 C   0  0  0  0  0  0  0  0  0  0  0  0
  -28.4003   -9.9850  138.6233 C   0  0  0  0  0  0  0  0  0  0  0  0
  -23.4480   -6.4528  134.3975 C   0  0  0  0  0  0  0  0  0  0  0  0
  -22.5541   -5.8063  135.3575 N   0  0  0  0  0  0  0  0  0  0  0  0
  -24.6627   -5.5203  137.5607 C   0  0  0  0  0  0  0  0  0  0  0  0
  -28.0278  -10.8581  137.3714 C   0  0  0  0  0  0  0  0  0  0  0  0
  -25.6711   -5.3599  138.4036 C   0  0  0  0  0  0  0  0  0  0  0  0
  -26.6906  -11.2258  137.4164 F   0  0  0  0  0  0  0  0  0  0  0  0
  -29.3982  -10.7609  139.5755 C   0  0  0  0  0  0  0  0  0  0  0  0
  -24.7700   -9.8085  138.6869 C   0  0  0  0  0  0  0  0  0  0  0  0
  2  1  1  0
  3  2  1  0
  4  1  1  0
  5  4  1  0
  6  3  1  0
  7  6  1  0
  9  5  1  0
  9  8  1  0
 10  4  1  0
 11  7  1  0
 12 10  2  0
 13 11  1  0
 14  7  1  0
 15  2  1  0
 15  3  1  0
M  END
$$$$

     RDKit          3D

 15 19  0  0  0  0  0  0  0  0999 V2000
  -25.3856  -11.4564  147.3467 C   0  0  0  0  0  0  0  0  0  0  0  0
  -25.6691  -12.9403  147.4034 C   0  0  0  0  0  0  0  0  0  0  0  0
  -24.8260  -10.8017  146.3102 C   0  0  0  0  0  0  0  0  0  0  0  0
  -25.7722  -13.8667  146.4004 C   0  0  0  0  0  0  0  0  0  0  0  0
  -24.4884  -11.5867  145.1045 C   0  0  0  0  0  0  0  0  0  0  0  0
  -25.7900  -12.2022  144.5491 C   0  0  0  0  0  0  0  0  0  0  0  0
  -23.6303  -11.0266  143.9875 C   0  0  0  0  0  0  0  0  0  0  0  0
  -25.7135  -13.6692  144.8751 C   0  0  0  0  0  0  0  0  0  0  0  0
  -23.4313  -12.1197  142.8921 C   0  0  0  0  0  0  0  0  0  0  0  0
  -23.3970  -13.6215  143.3653 C   0  0  0  0  0  0  0  0  0  0  0  0
  -24.5263  -14.4472  142.6897 C   0  0  0  0  0  0  0  0  0  0  0  0
  -23.7187  -15.4727  141.8722 C   0  0  0  0  0  0  0  0  0  0  0  0
  -24.6620  -15.9889  142.8898 C   0  0  0  0  0  0  0  0  0  0  0  0
  -24.3487  -15.8453  144.3539 C   0  0  0  0  0  0  0  0  0  0  0  0
  -24.4311  -14.3409  144.2432 C   0  0  0  0  0  0  0  0  0  0  0  0
  2  1  1  0
  3  1  2  0
  4  2  2  0
  5  3  1  0
  6  5  1  0
  7  5  1  0
  8  4  1  0
  8  6  1  0
  9  7  1  0
 10  9  1  0
 11 10  1  0
 12 11  1  0
 13 11  1  0
 13 12  1  0
 14 13  1  0
 15  8  1  0
 15 10  1  0
 15 11  1  0
 15 14  1  0
M  END
$$$$

     RDKit          3D

 15 17  0  0  0  0  0  0  0  0999 V2000
  -29.8778   -3.9483  137.6042 C   0  0  0  0  0  0  0  0  0  0  0  0
  -29.6497   -2.7398  138.5447 C   0  0  0  0  0  0  0  0  0  0  0  0
  -29.8643   -0.2925  139.3055 C   0  0  0  0  0  0  0  0  0  0  0  0
  -28.4907   -0.3375  140.0088 C   0  0  0  0  0  0  0  0  0  0  0  0
  -30.4423   -3.8682  136.1753 C   0  0  0  0  0  0  0  0  0  0  0  0
  -29.2402   -0.9246  136.9033 C   0  0  0  0  0  0  0  0  0  0  0  0
  -30.0477   -1.3097  138.1525 C   0  0  0  0  0  0  0  0  0  0  0  0
  -28.6373   -2.2226  136.3674 C   0  0  0  0  0  0  0  0  0  0  0  0
  -27.0628    0.8745  141.7756 C   0  0  0  0  0  0  0  0  0  0  0  0
  -27.4452    0.2896  143.1516 C   0  0  0  0  0  0  0  0  0  0  0  0
  -28.5882   -3.1533  137.5586 C   0  0  0  0  0  0  0  0  0  0  0  0
  -29.5613   -2.9120  135.3646 C   0  0  0  0  0  0  0  0  0  0  0  0
  -28.2366    0.9655  140.7849 C   0  0  0  0  0  0  0  0  0  0  0  0
  -27.3690   -1.2383  143.2091 C   0  0  0  0  0  0  0  0  0  0  0  0
  -31.9358   -3.5263  136.1207 C   0  0  0  0  0  0  0  0  0  0  0  0
  2  1  1  0
  4  3  1  0
  5  1  1  0
  7  2  1  0
  7  3  1  0
  7  6  1  0
  8  6  1  0
 10  9  1  0
 11  1  1  0
 11  2  1  0
 11  8  1  0
 12  5  1  0
 12  8  1  0
 13  4  1  0
 13  9  1  0
 14 10  1  0
 15  5  1  0
M  END
$$$$

     RDKit          3D

 15 16  0  0  0  0  0  0  0  0999 V2000
  -21.1550  -20.2300  144.3690 O   0  0  0  0  0  0  0  0  0  0  0  0
  -21.8047  -20.7242  145.5135 C   0  0  0  0  0  0  0  0  0  0  0  0
  -22.6032  -21.9859  145.1255 C   0  0  0  0  0  0  0  0  0  0  0  0
  -23.5854  -21.7609  143.9622 C   0  0  0  0  0  0  0  0  0  0  0  0
  -22.6527  -19.5900  146.1503 C   0  0  0  0  0  0  0  0  0  0  0  0
  -24.7628  -20.4577  147.3947 C   0  0  0  0  0  0  0  0  0  0  0  0
  -24.9088  -21.3497  148.6258 C   0  0  0  0  0  0  0  0  0  0  0  0
  -23.3666  -19.8614  147.5060 C   0  0  0  0  0  0  0  0  0  0  0  0
  -24.3787  -23.0360  143.6627 C   0  0  0  0  0  0  0  0  0  0  0  0
  -25.3680  -22.7907  142.5160 C   0  0  0  0  0  0  0  0  0  0  0  0
  -23.6866  -21.2320  149.4247 N   0  0  0  0  0  0  0  0  0  0  0  0
  -24.8335  -23.0572  141.1169 C   0  0  0  0  0  0  0  0  0  0  0  0
  -25.8005  -24.0387  141.7619 C   0  0  0  0  0  0  0  0  0  0  0  0
  -22.6508  -20.7618  148.5086 C   0  0  0  0  0  0  0  0  0  0  0  0
  -21.6816  -20.0314  149.2108 O   0  0  0  0  0  0  0  0  0  0  0  0
  2  1  1  0
  3  2  1  0
  4  3  1  0
  5  2  1  0
  7  6  1  0
  8  5  1  0
  8  6  1  0
  9  4  1  0
 10  9  1  0
 11  7  1  0
 12 10  1  0
 13 10  1  0
 13 12  1  0
 14  8  1  0
 14 11  1  0
 15 14  1  0
M  END
$$$$

     RDKit          3D

 14 14  0  0  0  0  0  0  0  0999 V2000
  -32.5608  -16.6417  149.5021 C   0  0  0  0  0  0  0  0  0  0  0  0
  -31.2624  -16.2553  148.9433 N   0  0  0  0  0  0  0  0  0  0  0  0
  -30.9683  -16.9736  147.6896 C   0  0  0  0  0  0  0  0  0  0  0  0
  -32.5199  -17.7794  150.5298 C   0  0  0  0  0  0  0  0  0  0  0  0
  -31.1586  -18.4097  150.8761 C   0  0  0  0  0  0  0  0  0  0  0  0
  -31.9575  -16.6607  146.5284 C   0  0  0  0  0  0  0  0  0  0  0  0
  -29.5803  -16.7131  147.3006 N   0  0  0  0  0  0  0  0  0  0  0  0
  -33.7593  -18.7017  150.5318 C   0  0  0  0  0  0  0  0  0  0  0  0
  -32.6706  -16.3204  150.9968 C   0  0  0  0  0  0  0  0  0  0  0  0
  -33.6062  -19.8509  149.5385 C   0  0  0  0  0  0  0  0  0  0  0  0
  -32.1665  -15.1647  146.2357 C   0  0  0  0  0  0  0  0  0  0  0  0
  -33.2690  -13.4874  144.7050 C   0  0  0  0  0  0  0  0  0  0  0  0
  -34.0488  -15.8531  151.4789 C   0  0  0  0  0  0  0  0  0  0  0  0
  -33.0608  -14.9689  145.0053 C   0  0  0  0  0  0  0  0  0  0  0  0
  2  1  1  0
  3  2  1  0
  4  1  1  0
  5  4  1  0
  6  3  1  0
  7  3  1  0
  8  4  1  0
  9  1  1  0
  9  4  1  0
 10  8  1  0
 11  6  1  0
 13  9  1  0
 14 11  1  0
 14 12  1  0
M  END
$$$$

     RDKit          3D

 15 17  0  0  0  0  0  0  0  0999 V2000
  -15.5861   -7.2144  144.7639 O   0  0  0  0  0  0  0  0  0  0  0  0
  -17.0276   -7.1097  147.0722 N   0  0  0  0  0  0  0  0  0  0  0  0
  -18.8033   -8.7616  146.2453 C   0  0  0  0  0  0  0  0  0  0  0  0
  -20.0294   -7.5755  147.9687 O   0  0  0  0  0  0  0  0  0  0  0  0
  -17.8763   -7.0339  143.8016 C   0  0  0  0  0  0  0  0  0  0  0  0
  -18.2505   -5.6197  144.2821 C   0  0  0  0  0  0  0  0  0  0  0  0
  -17.5176   -5.4657  141.8695 C   0  0  0  0  0  0  0  0  0  0  0  0
  -18.3784   -3.2898  143.0924 C   0  0  0  0  0  0  0  0  0  0  0  0
  -18.3666   -6.5917  141.3024 C   0  0  0  0  0  0  0  0  0  0  0  0
  -17.9314   -4.6969  143.1237 C   0  0  0  0  0  0  0  0  0  0  0  0
  -19.9506   -7.7807  146.5776 C   0  0  0  0  0  0  0  0  0  0  0  0
  -17.3163   -6.9037  142.3632 C   0  0  0  0  0  0  0  0  0  0  0  0
  -17.3404   -8.2271  146.1482 C   0  0  0  0  0  0  0  0  0  0  0  0
  -16.8489   -7.8377  144.6996 C   0  0  0  0  0  0  0  0  0  0  0  0
  -16.9955   -3.6120  143.5060 N   0  0  0  0  0  0  0  0  0  0  0  0
  6  5  1  0
  9  7  1  0
 10  6  1  0
 10  7  1  0
 10  8  1  0
 11  3  1  0
 11  4  1  0
 12  5  1  0
 12  7  1  0
 12  9  1  0
 13  2  1  0
 13  3  1  0
 14  1  1  0
 14  5  1  0
 14 13  1  0
 15  8  1  0
 15 10  1  0
M  END
$$$$

     RDKit          3D

 11 14  0  0  0  0  0  0  0  0999 V2000
  -26.8511   -3.7843  139.5513 N   0  0  0  0  0  0  0  0  0  0  0  0
  -27.3504   -2.4192  139.4857 C   0  0  0  0  0  0  0  0  0  0  0  0
  -25.3998   -3.6448  139.6773 C   0  0  0  0  0  0  0  0  0  0  0  0
  -24.9208   -3.9041  141.0919 C   0  0  0  0  0  0  0  0  0  0  0  0
  -25.8937   -4.4908  142.1203 C   0  0  0  0  0  0  0  0  0  0  0  0
  -24.6204   -4.9092  139.9720 C   0  0  0  0  0  0  0  0  0  0  0  0
  -26.9172   -3.5045  142.7337 C   0  0  0  0  0  0  0  0  0  0  0  0
  -27.9138   -2.4949  142.1130 C   0  0  0  0  0  0  0  0  0  0  0  0
  -28.7045   -2.1081  139.8940 C   0  0  0  0  0  0  0  0  0  0  0  0
  -27.5746   -1.8241  140.8276 N   0  0  0  0  0  0  0  0  0  0  0  0
  -28.3173   -3.9450  142.2508 C   0  0  0  0  0  0  0  0  0  0  0  0
  2  1  1  0
  3  1  1  0
  4  3  1  0
  5  4  1  0
  6  3  1  0
  6  4  1  0
  7  5  1  0
  8  7  1  0
  9  2  1  0
 10  2  1  0
 10  8  1  0
 10  9  1  0
 11  7  1  0
 11  8  1  0
M  END
$$$$

     RDKit          3D

 14 16  0  0  0  0  0  0  0  0999 V2000
  -25.3100   -9.5889  134.2984 O   0  0  0  0  0  0  0  0  0  0  0  0
  -24.3619   -7.7539  134.7694 C   0  0  0  0  0  0  0  0  0  0  0  0
  -24.1160   -5.8392  136.0096 C   0  0  0  0  0  0  0  0  0  0  0  0
  -25.3191   -5.6406  138.3472 C   0  0  0  0  0  0  0  0  0  0  0  0
  -24.7149   -5.0027  137.1250 C   0  0  0  0  0  0  0  0  0  0  0  0
  -24.4829   -7.1974  136.0633 O   0  0  0  0  0  0  0  0  0  0  0  0
  -26.7709   -7.9578  135.0403 O   0  0  0  0  0  0  0  0  0  0  0  0
  -24.0583   -9.2323  134.8349 C   0  0  0  0  0  0  0  0  0  0  0  0
  -24.2416   -2.5738  137.6870 C   0  0  0  0  0  0  0  0  0  0  0  0
  -23.3890   -5.3849  140.0280 C   0  0  0  0  0  0  0  0  0  0  0  0
  -23.8408   -4.0370  137.8819 C   0  0  0  0  0  0  0  0  0  0  0  0
  -25.6815   -8.2346  134.2021 C   0  0  0  0  0  0  0  0  0  0  0  0
  -25.2970   -4.8864  135.7355 C   0  0  0  0  0  0  0  0  0  0  0  0
  -24.4367   -4.6683  139.1718 C   0  0  0  0  0  0  0  0  0  0  0  0
  5  3  1  0
  5  4  1  0
  6  2  1  0
  6  3  1  0
  8  1  1  0
  8  2  1  0
 11  5  1  0
 11  9  1  0
 12  1  1  0
 12  2  1  0
 12  7  1  0
 13  3  1  0
 13  5  1  0
 14  4  1  0
 14 10  1  0
 14 11  1  0
M  END
$$$$

     RDKit          3D

 14 17  0  0  0  0  0  0  0  0999 V2000
  -20.8297   -2.2708  132.6191 C   0  0  0  0  0  0  0  0  0  0  0  0
  -22.1764   -1.6922  133.1620 C   0  0  0  0  0  0  0  0  0  0  0  0
  -22.3073   -2.0835  134.5851 C   0  0  0  0  0  0  0  0  0  0  0  0
  -23.0480   -2.8804  133.4304 C   0  0  0  0  0  0  0  0  0  0  0  0
  -19.6981   -1.2431  132.8872 C   0  0  0  0  0  0  0  0  0  0  0  0
  -19.7883   -3.2901  130.4875 C   0  0  0  0  0  0  0  0  0  0  0  0
  -23.5591   -1.6196  133.9469 C   0  0  0  0  0  0  0  0  0  0  0  0
  -20.9921   -2.5738  131.1052 C   0  0  0  0  0  0  0  0  0  0  0  0
  -21.1371    0.6528  132.0361 F   0  0  0  0  0  0  0  0  0  0  0  0
  -20.4611   -3.4544  133.2603 F   0  0  0  0  0  0  0  0  0  0  0  0
  -18.7768    1.1706  132.2840 C   0  0  0  0  0  0  0  0  0  0  0  0
  -17.5232    0.8287  133.0973 C   0  0  0  0  0  0  0  0  0  0  0  0
  -19.8691    0.1086  132.1516 C   0  0  0  0  0  0  0  0  0  0  0  0
  -18.9435    0.4005  130.9751 C   0  0  0  0  0  0  0  0  0  0  0  0
  2  1  1  0
  3  2  1  0
  4  2  1  0
  4  3  1  0
  5  1  1  0
  7  2  1  0
  7  3  1  0
  7  4  1  0
  8  1  1  0
  8  6  1  0
 10  1  1  0
 12 11  1  0
 13  5  1  0
 13  9  1  0
 13 11  1  0
 14 11  1  0
 14 13  1  0
M  END
$$$$

     RDKit          3D

 15 19  0  0  0  0  0  0  0  0999 V2000
  -25.2152   -3.5592  144.3149 O   0  0  0  0  0  0  0  0  0  0  0  0
  -25.3964   -3.7826  143.0890 C   0  0  0  0  0  0  0  0  0  0  0  0
  -25.3420   -5.0917  142.6187 O   0  0  0  0  0  0  0  0  0  0  0  0
  -25.7047   -2.6461  142.1596 C   0  0  0  0  0  0  0  0  0  0  0  0
  -27.7320   -1.7301  143.3300 C   0  0  0  0  0  0  0  0  0  0  0  0
  -27.9607   -3.1589  140.9131 C   0  0  0  0  0  0  0  0  0  0  0  0
  -27.8264   -2.2469  139.6513 C   0  0  0  0  0  0  0  0  0  0  0  0
  -26.8404   -1.0896  139.6952 C   0  0  0  0  0  0  0  0  0  0  0  0
  -27.2411   -2.4268  142.0787 C   0  0  0  0  0  0  0  0  0  0  0  0
  -27.0205   -0.2056  140.9729 C   0  0  0  0  0  0  0  0  0  0  0  0
  -27.8602   -0.9675  142.0336 C   0  0  0  0  0  0  0  0  0  0  0  0
  -27.3783   -0.6532  138.3323 C   0  0  0  0  0  0  0  0  0  0  0  0
  -27.1517   -1.5784  137.2244 C   0  0  0  0  0  0  0  0  0  0  0  0
  -29.2564   -1.7376  139.3021 C   0  0  0  0  0  0  0  0  0  0  0  0
  -28.2594   -1.9750  138.2162 C   0  0  0  0  0  0  0  0  0  0  0  0
  2  1  2  0
  3  2  1  0
  4  2  1  0
  7  6  1  0
  8  7  1  0
  9  4  1  0
  9  5  1  0
  9  6  1  0
 10  8  1  0
 11  5  1  0
 11  9  1  0
 11 10  1  0
 12  8  1  0
 13 12  1  0
 14  7  1  0
 15  7  1  0
 15 12  1  0
 15 13  1  0
 15 14  1  0
M  END
$$$$

     RDKit          3D

 15 16  0  0  0  0  0  0  0  0999 V2000
  -27.9055   -1.1776  146.2259 C   0  0  0  0  0  0  0  0  0  0  0  0
  -26.9209   -1.5604  145.0704 C   0  0  0  0  0  0  0  0  0  0  0  0
  -25.4023   -1.2826  145.3225 C   0  0  0  0  0  0  0  0  0  0  0  0
  -24.5980   -1.5057  144.1340 C   0  0  0  0  0  0  0  0  0  0  0  0
  -24.5258   -2.4669  145.2440 N   0  0  0  0  0  0  0  0  0  0  0  0
  -28.6883    0.1126  145.9035 C   0  0  0  0  0  0  0  0  0  0  0  0
  -27.4353   -1.2440  147.7301 C   0  0  0  0  0  0  0  0  0  0  0  0
  -26.9825    0.0915  148.4074 C   0  0  0  0  0  0  0  0  0  0  0  0
  -25.8530    0.9044  147.7415 C   0  0  0  0  0  0  0  0  0  0  0  0
  -27.1393   -3.8001  147.7546 C   0  0  0  0  0  0  0  0  0  0  0  0
  -24.8302   -0.1337  144.5979 N   0  0  0  0  0  0  0  0  0  0  0  0
  -24.4646    0.5690  148.2214 C   0  0  0  0  0  0  0  0  0  0  0  0
  -24.1873   -0.5729  148.6758 O   0  0  0  0  0  0  0  0  0  0  0  0
  -26.5326   -2.4447  148.1088 C   0  0  0  0  0  0  0  0  0  0  0  0
  -23.4482    1.5107  148.1031 O   0  0  0  0  0  0  0  0  0  0  0  0
  2  1  1  0
  3  2  1  0
  4  3  1  0
  5  3  1  0
  5  4  1  0
  6  1  1  0
  7  1  1  0
  8  7  1  0
  9  8  1  0
 11  3  1  0
 11  4  1  0
 12  9  1  0
 13 12  2  0
 14  7  1  0
 14 10  1  0
 15 12  1  0
M  END
$$$$

     RDKit          3D

 15 15  0  0  0  0  0  0  0  0999 V2000
  -25.5530   -3.8924  133.5702 As  0  0  0  0  0  3  0  0  0  0  0  0
  -26.7225   -3.2328  132.1025 C   0  0  0  0  0  0  0  0  0  0  0  0
  -26.8258   -1.6910  132.0654 C   0  0  0  0  0  0  0  0  0  0  0  0
  -23.8635   -2.8734  133.5105 C   0  0  0  0  0  0  0  0  0  0  0  0
  -26.3114   -3.8613  130.7980 C   0  0  0  0  0  0  0  0  0  0  0  0
  -28.2362   -1.1532  132.3535 C   0  0  0  0  0  0  0  0  0  0  0  0
  -27.8735   -1.1463  134.9913 C   0  0  0  0  0  0  0  0  0  0  0  0
  -25.0907   -3.6897  130.2712 C   0  0  0  0  0  0  0  0  0  0  0  0
  -29.7084   -2.6564  133.9160 C   0  0  0  0  0  0  0  0  0  0  0  0
  -28.7483   -1.4800  133.7733 C   0  0  0  0  0  0  0  0  0  0  0  0
  -30.2379   -1.2318  133.9823 C   0  0  0  0  0  0  0  0  0  0  0  0
  -24.5321   -4.6428  129.2381 C   0  0  0  0  0  0  0  0  0  0  0  0
  -23.7157   -3.9193  128.1461 C   0  0  0  0  0  0  0  0  0  0  0  0
  -22.3369   -1.7837  128.1400 C   0  0  0  0  0  0  0  0  0  0  0  0
  -22.4450   -3.2151  128.6694 C   0  0  0  0  0  0  0  0  0  0  0  0
  2  1  1  0
  3  2  1  0
  4  1  1  0
  5  2  1  0
  6  3  1  0
  8  5  2  3
 10  6  1  0
 10  7  1  0
 10  9  1  0
 11  9  1  0
 11 10  1  0
 12  8  1  0
 13 12  1  0
 15 13  1  0
 15 14  1  0
M  END
$$$$

     RDKit          3D

 15 21  0  0  0  0  0  0  0  0999 V2000
  -28.4514  -22.5200  141.2345 N   0  0  0  0  0  0  0  0  0  0  0  0
  -29.2977  -22.6988  142.4250 C   0  0  0  0  0  0  0  0  0  0  0  0
  -29.0826  -23.9261  143.0693 O   0  0  0  0  0  0  0  0  0  0  0  0
  -29.5250  -21.4485  143.2893 C   0  0  0  0  0  0  0  0  0  0  0  0
  -28.3794  -21.2751  144.3403 C   0  0  0  0  0  0  0  0  0  0  0  0
  -27.4117  -20.2543  143.6573 C   0  0  0  0  0  0  0  0  0  0  0  0
  -25.8706  -20.0729  143.7621 C   0  0  0  0  0  0  0  0  0  0  0  0
  -27.6935  -20.1781  145.1467 C   0  0  0  0  0  0  0  0  0  0  0  0
  -26.3831  -21.2456  143.0484 C   0  0  0  0  0  0  0  0  0  0  0  0
  -29.2229  -21.8956  140.1501 C   0  0  0  0  0  0  0  0  0  0  0  0
  -30.2114  -24.1573  140.5646 C   0  0  0  0  0  0  0  0  0  0  0  0
  -28.6763  -19.1136  145.5556 C   0  0  0  0  0  0  0  0  0  0  0  0
  -30.1000  -19.5205  145.3310 C   0  0  0  0  0  0  0  0  0  0  0  0
  -29.0459  -20.6120  145.5745 C   0  0  0  0  0  0  0  0  0  0  0  0
  -29.9354  -22.7427  141.1037 C   0  0  0  0  0  0  0  0  0  0  0  0
  2  1  1  0
  3  2  1  0
  4  2  1  0
  5  4  1  0
  6  5  1  0
  7  6  1  0
  8  5  1  0
  8  6  1  0
  9  6  1  0
  9  7  1  0
 10  1  1  0
 12  8  1  0
 13 12  1  0
 14  5  1  0
 14  8  1  0
 14 12  1  0
 14 13  1  0
 15  1  1  0
 15  2  1  0
 15 10  1  0
 15 11  1  0
M  END
$$$$

     RDKit          3D

 14 15  0  0  0  0  0  0  0  0999 V2000
  -26.0444   -7.9626  139.5825 C   0  0  0  0  0  0  0  0  0  0  0  0
  -26.5863   -7.4274  138.2628 C   0  0  0  0  0  0  0  0  0  0  0  0
  -25.4649   -6.6788  138.9953 C   0  0  0  0  0  0  0  0  0  0  0  0
  -26.1610   -8.2471  137.0320 C   0  0  0  0  0  0  0  0  0  0  0  0
  -26.5536   -7.5523  135.7156 C   0  0  0  0  0  0  0  0  0  0  0  0
  -25.9180   -6.1629  135.5131 C   0  0  0  0  0  0  0  0  0  0  0  0
  -25.7855   -5.3809  139.7920 C   0  0  0  0  0  0  0  0  0  0  0  0
  -24.5545   -6.2033  134.7837 C   0  0  0  0  0  0  0  0  0  0  0  0
  -24.5606   -5.9083  133.2770 C   0  0  0  0  0  0  0  0  0  0  0  0
  -23.4470   -6.5223  132.4233 C   0  0  0  0  0  0  0  0  0  0  0  0
  -24.1139   -4.8309  134.2670 C   0  0  0  0  0  0  0  0  0  0  0  0
  -27.2677   -4.9698  139.8129 C   0  0  0  0  0  0  0  0  0  0  0  0
  -23.4137   -7.0403  135.3889 C   0  0  0  0  0  0  0  0  0  0  0  0
  -24.9371   -4.2252  139.2339 C   0  0  0  0  0  0  0  0  0  0  0  0
  2  1  1  0
  3  1  1  0
  3  2  1  0
  4  2  1  0
  5  4  1  0
  6  5  1  0
  7  3  1  0
  8  6  1  0
  9  8  1  0
 10  9  1  0
 11  8  1  0
 11  9  1  0
 12  7  1  0
 13  8  1  0
 14  7  1  0
M  END
$$$$

     RDKit          3D

 15 16  0  0  0  0  0  0  0  0999 V2000
  -22.3678   -1.6005  130.6115 O   0  0  0  0  0  0  0  0  0  0  0  0
  -23.1026   -0.7667  130.0187 C   0  0  0  0  0  0  0  0  0  0  0  0
  -24.4715   -1.0025  129.9063 O   0  0  0  0  0  0  0  0  0  0  0  0
  -22.5093    0.4916  129.4561 C   0  0  0  0  0  0  0  0  0  0  0  0
  -23.9119    2.1706  130.8671 B   0  0  0  0  0  0  0  0  0  0  0  0
  -24.5319    1.8604  132.3030 C   0  0  0  0  0  0  0  0  0  0  0  0
  -25.9482    2.3955  132.3907 C   0  0  0  0  0  0  0  0  0  0  0  0
  -26.1729    3.7809  132.9133 C   0  0  0  0  0  0  0  0  0  0  0  0
  -25.9338    3.8365  134.4337 C   0  0  0  0  0  0  0  0  0  0  0  0
  -26.5838    2.7886  135.3912 C   0  0  0  0  0  0  0  0  0  0  0  0
  -26.9952    1.5754  132.5125 C   0  0  0  0  0  0  0  0  0  0  0  0
  -22.4586    1.6178  130.4957 C   0  0  0  0  0  0  0  0  0  0  0  0
  -27.0389    0.6564  133.6879 C   0  0  0  0  0  0  0  0  0  0  0  0
  -27.0810    1.3660  135.0646 C   0  0  0  0  0  0  0  0  0  0  0  0
  -28.0756    2.5268  135.2010 C   0  0  0  0  0  0  0  0  0  0  0  0
  2  1  2  0
  3  2  1  0
  4  2  1  0
  6  5  1  0
  7  6  1  0
  8  7  1  0
  9  8  1  0
 10  9  1  0
 11  7  2  0
 12  4  1  0
 12  5  1  0
 13 11  1  0
 14 10  1  0
 14 13  1  0
 15 10  1  0
 15 14  1  0
M  END
$$$$

     RDKit          3D

 14 16  0  0  0  0  0  0  0  0999 V2000
  -26.2257   -8.5627  138.7802 C   0  0  0  0  0  0  0  0  0  0  0  0
  -24.1890  -10.0760  138.8911 C   0  0  0  0  0  0  0  0  0  0  0  0
  -26.7257   -7.1368  138.4915 C   0  0  0  0  0  0  0  0  0  0  0  0
  -24.1035   -9.2793  141.2008 C   0  0  0  0  0  0  0  0  0  0  0  0
  -24.1729  -10.5381  140.3401 C   0  0  0  0  0  0  0  0  0  0  0  0
  -30.0585   -5.6179  137.0527 C   0  0  0  0  0  0  0  0  0  0  0  0
  -24.1841   -8.0876  140.2526 C   0  0  0  0  0  0  0  0  0  0  0  0
  -24.6845   -8.6312  138.9120 C   0  0  0  0  0  0  0  0  0  0  0  0
  -30.8699   -6.8840  136.7721 C   0  0  0  0  0  0  0  0  0  0  0  0
  -28.2418   -7.1207  138.2488 C   0  0  0  0  0  0  0  0  0  0  0  0
  -28.8043   -5.7405  137.8109 C   0  0  0  0  0  0  0  0  0  0  0  0
  -28.7668   -5.6076  136.3333 N   0  0  0  0  0  0  0  0  0  0  0  0
  -28.0631   -4.4294  138.0283 C   0  0  0  0  0  0  0  0  0  0  0  0
  -28.0767   -4.3277  136.5172 C   0  0  0  0  0  0  0  0  0  0  0  0
  3  1  1  0
  5  2  1  0
  5  4  1  0
  7  4  1  0
  8  1  1  0
  8  2  1  0
  8  7  1  0
  9  6  1  0
 10  3  1  0
 11  6  1  0
 11 10  1  0
 12  6  1  0
 12 11  1  0
 13 11  1  0
 14 12  1  0
 14 13  1  0
M  END
$$$$

     RDKit          3D

 14 15  0  0  0  0  0  0  0  0999 V2000
  -22.0376  -19.4915  139.8204 F   0  0  0  0  0  0  0  0  0  0  0  0
  -23.3013  -19.7633  139.3212 C   0  0  0  0  0  0  0  0  0  0  0  0
  -23.9495  -18.5592  139.0958 F   0  0  0  0  0  0  0  0  0  0  0  0
  -23.1709  -20.5486  137.9919 C   0  0  0  0  0  0  0  0  0  0  0  0
  -22.6137  -21.7904  138.2645 F   0  0  0  0  0  0  0  0  0  0  0  0
  -22.2453  -19.7968  137.0033 C   0  0  0  0  0  0  0  0  0  0  0  0
  -23.2329  -19.3797  134.5475 C   0  0  0  0  0  0  0  0  0  0  0  0
  -22.3908  -20.2594  135.5249 C   0  0  0  0  0  0  0  0  0  0  0  0
  -22.8388  -21.6609  135.4844 N   0  0  0  0  0  0  0  0  0  0  0  0
  -24.1358  -18.2589  135.0522 C   0  0  0  0  0  0  0  0  0  0  0  0
  -22.7852  -17.9277  134.4339 C   0  0  0  0  0  0  0  0  0  0  0  0
  -24.0753  -20.5429  140.3894 C   0  0  0  0  0  0  0  0  0  0  0  0
  -24.2635  -21.8297  135.8179 C   0  0  0  0  0  0  0  0  0  0  0  0
  -24.8212  -20.8043  137.2377 S   0  0  0  0  0  0  0  0  0  0  0  0
  2  1  1  0
  3  2  1  0
  4  2  1  0
  5  4  1  0
  6  4  1  0
  8  6  1  0
  8  7  1  0
  9  8  1  0
 10  7  1  0
 11  7  1  0
 11 10  1  0
 12  2  1  0
 13  9  1  0
 14  4  1  0
 14 13  1  0
M  END
$$$$

     RDKit          3D

 11 12  0  0  0  0  0  0  0  0999 V2000
  -25.4018   -7.4543  140.9843 C   0  0  0  0  0  0  0  0  0  0  0  0
  -28.0642   -7.6366  141.2703 C   0  0  0  0  0  0  0  0  0  0  0  0
  -28.2862   -7.5928  142.7641 C   0  0  0  0  0  0  0  0  0  0  0  0
  -25.0729   -6.8563  142.3816 C   0  0  0  0  0  0  0  0  0  0  0  0
  -26.7206   -8.2827  140.8327 C   0  0  0  0  0  0  0  0  0  0  0  0
  -28.1506   -8.6936  143.5336 C   0  0  0  0  0  0  0  0  0  0  0  0
  -26.7524   -9.1082  143.9218 C   0  0  0  0  0  0  0  0  0  0  0  0
  -26.0946   -8.9663  145.2819 C   0  0  0  0  0  0  0  0  0  0  0  0
  -24.8217   -7.8374  143.3866 O   0  0  0  0  0  0  0  0  0  0  0  0
  -25.3544   -6.3371  139.9278 C   0  0  0  0  0  0  0  0  0  0  0  0
  -25.9304   -7.8674  144.2516 C   0  0  0  0  0  0  0  0  0  0  0  0
  3  2  1  0
  4  1  1  0
  5  1  1  0
  5  2  1  0
  6  3  2  3
  7  6  1  0
  8  7  1  0
  9  4  1  0
 10  1  1  0
 11  7  1  0
 11  8  1  0
 11  9  1  0
M  END
$$$$

     RDKit          3D

 15 18  0  0  0  0  0  0  0  0999 V2000
  -16.3644   -4.4825  139.1235 C   0  0  0  0  0  0  0  0  0  0  0  0
  -16.6066   -3.0518  139.7107 C   0  0  0  0  0  0  0  0  0  0  0  0
  -18.1548   -3.7968  141.7573 C   0  0  0  0  0  0  0  0  0  0  0  0
  -17.4406   -5.4638  138.6246 C   0  0  0  0  0  0  0  0  0  0  0  0
  -16.9377   -3.6698  142.6794 C   0  0  0  0  0  0  0  0  0  0  0  0
  -18.9463   -5.1749  138.7462 C   0  0  0  0  0  0  0  0  0  0  0  0
  -15.8522   -4.4272  142.0050 N   0  0  0  0  0  0  0  0  0  0  0  0
  -15.3239   -2.5579  140.4727 C   0  0  0  0  0  0  0  0  0  0  0  0
  -16.6899   -4.5955  137.6292 C   0  0  0  0  0  0  0  0  0  0  0  0
  -14.8176   -3.4568  141.6438 C   0  0  0  0  0  0  0  0  0  0  0  0
  -19.4726   -5.2892  140.1678 C   0  0  0  0  0  0  0  0  0  0  0  0
  -17.9065   -2.8366  140.5557 C   0  0  0  0  0  0  0  0  0  0  0  0
  -20.7995   -5.2926  140.3669 C   0  0  0  0  0  0  0  0  0  0  0  0
  -18.5387   -5.2501  141.3634 C   0  0  0  0  0  0  0  0  0  0  0  0
  -16.1863   -4.6914  143.4133 C   0  0  0  0  0  0  0  0  0  0  0  0
  2  1  1  0
  4  1  1  0
  5  3  1  0
  6  4  1  0
  7  5  1  0
  8  2  1  0
  9  1  1  0
  9  4  1  0
 10  7  1  0
 10  8  1  0
 11  6  1  0
 12  2  1  0
 12  3  1  0
 13 11  2  0
 14  3  1  0
 14 11  1  0
 15  5  1  0
 15  7  1  0
M  END
$$$$

     RDKit          3D

  7  9  0  0  0  0  0  0  0  0999 V2000
  -28.2865   -6.3264  145.8059 C   0  0  0  0  0  0  0  0  0  0  0  0
  -28.8281   -6.5639  148.1485 C   0  0  0  0  0  0  0  0  0  0  0  0
  -29.6052   -5.4638  147.4933 C   0  0  0  0  0  0  0  0  0  0  0  0
  -28.6766   -4.9642  146.3901 C   0  0  0  0  0  0  0  0  0  0  0  0
  -29.0261   -7.2201  146.8065 C   0  0  0  0  0  0  0  0  0  0  0  0
  -30.4407   -6.4693  146.7057 C   0  0  0  0  0  0  0  0  0  0  0  0
  -30.2342   -7.9566  146.4380 C   0  0  0  0  0  0  0  0  0  0  0  0
  3  2  1  0
  4  1  1  0
  4  3  1  0
  5  1  1  0
  5  2  1  0
  6  3  1  0
  6  5  1  0
  7  5  1  0
  7  6  1  0
M  END
$$$$

     RDKit          3D

 15 16  0  0  0  0  0  0  0  0999 V2000
  -34.6646  -11.3924  147.8978 O   0  0  0  0  0  0  0  0  0  0  0  0
  -33.7390  -10.9677  148.8633 C   0  0  0  0  0  0  0  0  0  0  0  0
  -33.9465  -11.7064  150.0549 O   0  0  0  0  0  0  0  0  0  0  0  0
  -32.3369  -11.2642  148.3342 C   0  0  0  0  0  0  0  0  0  0  0  0
  -32.0995  -10.5284  147.1872 F   0  0  0  0  0  0  0  0  0  0  0  0
  -35.8381  -10.8947  148.2588 F   0  0  0  0  0  0  0  0  0  0  0  0
  -33.9854  -10.8598  151.1883 C   0  0  0  0  0  0  0  0  0  0  0  0
  -32.6472  -10.4272  151.8294 C   0  0  0  0  0  0  0  0  0  0  0  0
  -35.0149  -11.3753  152.1944 C   0  0  0  0  0  0  0  0  0  0  0  0
  -35.2704  -10.0778  151.4506 C   0  0  0  0  0  0  0  0  0  0  0  0
  -32.2103   -9.0285  151.3751 C   0  0  0  0  0  0  0  0  0  0  0  0
  -30.6390   -7.1488  152.1745 C   0  0  0  0  0  0  0  0  0  0  0  0
  -30.8767   -8.6472  152.0373 C   0  0  0  0  0  0  0  0  0  0  0  0
  -30.8969   -7.9906  153.4177 C   0  0  0  0  0  0  0  0  0  0  0  0
  -32.4827   -7.6585  154.1788 Cl  0  0  0  0  0  0  0  0  0  0  0  0
  2  1  1  0
  3  2  1  0
  4  2  1  0
  5  4  1  0
  6  1  1  0
  7  3  1  0
  8  7  1  0
  9  7  1  0
 10  7  1  0
 10  9  1  0
 11  8  1  0
 13 11  1  0
 13 12  1  0
 14 12  1  0
 14 13  1  0
 15 14  1  0
M  END
$$$$

     RDKit          3D

 15 17  0  0  0  0  0  0  0  0999 V2000
  -23.6686  -11.2397  144.5981 C   0  0  0  0  0  0  0  0  0  0  0  0
  -23.5882   -9.8128  144.0881 C   0  0  0  0  0  0  0  0  0  0  0  0
  -24.6586  -12.0667  143.7868 C   0  0  0  0  0  0  0  0  0  0  0  0
  -25.3087  -11.2090  142.6963 C   0  0  0  0  0  0  0  0  0  0  0  0
  -25.4703  -11.8247  141.2976 C   0  0  0  0  0  0  0  0  0  0  0  0
  -26.2099  -10.8770  140.3872 C   0  0  0  0  0  0  0  0  0  0  0  0
  -25.6638   -9.8139  139.7664 C   0  0  0  0  0  0  0  0  0  0  0  0
  -24.2067   -9.4293  139.8347 C   0  0  0  0  0  0  0  0  0  0  0  0
  -24.1070  -13.4437  143.3694 C   0  0  0  0  0  0  0  0  0  0  0  0
  -23.1882   -9.7056  137.4834 C   0  0  0  0  0  0  0  0  0  0  0  0
  -23.3255  -10.2833  138.9022 C   0  0  0  0  0  0  0  0  0  0  0  0
  -24.4795   -9.7993  136.6733 C   0  0  0  0  0  0  0  0  0  0  0  0
  -23.8598  -10.9572  143.1102 C   0  0  0  0  0  0  0  0  0  0  0  0
  -24.7130   -8.9079  144.6163 C   0  0  0  0  0  0  0  0  0  0  0  0
  -25.0562   -7.8238  143.5988 C   0  0  0  0  0  0  0  0  0  0  0  0
  2  1  1  0
  3  1  1  0
  4  3  1  0
  5  4  1  0
  6  5  1  0
  7  6  2  3
  8  7  1  0
  9  3  1  0
 11  8  1  0
 11 10  1  0
 12 10  1  0
 13  1  1  0
 13  2  1  0
 13  3  1  0
 13  4  1  0
 14  2  1  0
 15 14  1  0
M  END
$$$$

     RDKit          3D

  9  8  0  0  0  0  0  0  0  0999 V2000
  -17.5264   -3.8272  140.7776 C   0  0  0  0  0  0  0  0  0  0  0  0
  -17.5789   -3.6121  139.3527 N   0  0  0  0  0  0  0  0  0  0  0  0
  -16.9062   -5.1916  142.6786 O   0  0  0  0  0  0  0  0  0  0  0  0
  -17.3585   -4.6461  138.3275 C   0  0  0  0  0  0  0  0  0  0  0  0
  -18.0693   -2.9593  141.5724 N   0  0  0  0  0  0  0  0  0  0  0  0
  -16.8563   -4.9621  141.3440 N   0  0  0  0  0  0  0  0  0  0  0  0
  -16.0409   -5.1303  138.3963 O   0  0  0  0  0  0  0  0  0  0  0  0
  -17.5601   -4.0922  137.0509 O   0  0  0  0  0  0  0  0  0  0  0  0
  -18.2704   -5.7037  138.5049 O   0  0  0  0  0  0  0  0  0  0  0  0
  2  1  1  0
  4  2  1  0
  5  1  2  0
  6  1  1  0
  6  3  1  0
  7  4  1  0
  8  4  1  0
  9  4  1  0
M  END
$$$$

     RDKit          3D

 14 16  0  0  0  0  0  0  0  0999 V2000
  -24.9769  -20.2348  144.8925 N   0  0  0  0  0  0  0  0  0  0  0  0
  -25.7852  -18.8410  144.3667 C   0  0  0  0  0  0  0  0  0  0  0  0
  -25.3734  -17.8073  143.1563 N   0  0  0  0  0  0  0  0  0  0  0  0
  -26.1643  -20.7472  144.4779 C   0  0  0  0  0  0  0  0  0  0  0  0
  -26.1939  -19.6739  143.5075 N   0  0  0  0  0  0  0  0  0  0  0  0
  -24.5167  -21.1222  142.3154 C   0  0  0  0  0  0  0  0  0  0  0  0
  -25.4369  -20.0278  141.2221 C   0  0  0  0  0  0  0  0  0  0  0  0
  -24.9113  -22.5951  142.0301 C   0  0  0  0  0  0  0  0  0  0  0  0
  -24.5831  -23.0950  140.5997 C   0  0  0  0  0  0  0  0  0  0  0  0
  -23.1312  -23.1298  140.3786 N   0  0  0  0  0  0  0  0  0  0  0  0
  -24.7121  -18.7816  143.1544 C   0  0  0  0  0  0  0  0  0  0  0  0
  -24.1428  -20.9281  143.8698 O   0  0  0  0  0  0  0  0  0  0  0  0
  -25.1746  -24.5009  140.4021 C   0  0  0  0  0  0  0  0  0  0  0  0
  -25.7854  -18.2939  141.6575 C   0  0  0  0  0  0  0  0  0  0  0  0
  2  1  1  0
  3  2  1  0
  4  1  1  0
  5  2  1  0
  5  4  1  0
  7  6  1  0
  8  6  1  0
  9  8  1  0
 10  9  1  0
 11  3  1  0
 11  5  1  0
 12  1  1  0
 12  6  1  0
 13  9  1  0
 14  3  1  0
 14  7  1  0
M  END
$$$$

     RDKit          3D

 10  9  0  0  0  0  0  0  0  0999 V2000
  -21.2425    1.8575  141.2810 N   0  0  0  0  0  0  0  0  0  0  0  0
  -21.4834    1.4237  139.8789 C   0  0  0  0  0  0  0  0  0  0  0  0
  -24.0026    1.6234  139.9976 N   0  0  0  0  0  0  0  0  0  0  0  0
  -21.4819    0.8475  142.3286 C   0  0  0  0  0  0  0  0  0  0  0  0
  -21.9286    3.0719  141.5413 N   0  0  0  0  0  0  0  0  0  0  0  0
  -20.3060    0.5746  139.3759 C   0  0  0  0  0  0  0  0  0  0  0  0
  -23.1015   -0.6749  139.9745 C   0  0  0  0  0  0  0  0  0  0  0  0
  -20.9432    4.1499  141.5459 C   0  0  0  0  0  0  0  0  0  0  0  0
  -24.2755   -1.1622  139.3836 O   0  0  0  0  0  0  0  0  0  0  0  0
  -22.8846    0.7908  139.5450 C   0  0  0  0  0  0  0  0  0  0  0  0
  2  1  1  0
  4  1  1  0
  5  1  1  0
  6  2  1  0
  8  5  1  0
  9  7  1  0
 10  2  1  0
 10  3  1  0
 10  7  1  0
M  END
$$$$

     RDKit          3D

 15 21  0  0  0  0  0  0  0  0999 V2000
  -21.6000   -8.7012  139.5376 C   0  0  0  0  0  0  0  0  0  0  0  0
  -20.2580   -7.3021  141.1650 F   0  0  0  0  0  0  0  0  0  0  0  0
  -20.0446   -8.7312  139.0829 C   0  0  0  0  0  0  0  0  0  0  0  0
  -20.0253   -9.6975  137.8911 C   0  0  0  0  0  0  0  0  0  0  0  0
  -19.4352  -11.0725  138.2785 C   0  0  0  0  0  0  0  0  0  0  0  0
  -20.1564  -11.8846  139.3643 C   0  0  0  0  0  0  0  0  0  0  0  0
  -21.3689  -10.2909  137.6036 C   0  0  0  0  0  0  0  0  0  0  0  0
  -19.3408   -9.0839  136.6630 C   0  0  0  0  0  0  0  0  0  0  0  0
  -20.8746   -7.5586  139.0545 N   0  0  0  0  0  0  0  0  0  0  0  0
  -20.5147   -8.3874  140.3503 C   0  0  0  0  0  0  0  0  0  0  0  0
  -20.9488  -13.0996  137.8652 C   0  0  0  0  0  0  0  0  0  0  0  0
  -20.2467  -13.3397  139.1333 N   0  0  0  0  0  0  0  0  0  0  0  0
  -23.4095   -8.8551  137.8041 C   0  0  0  0  0  0  0  0  0  0  0  0
  -20.8185  -11.6277  138.0503 C   0  0  0  0  0  0  0  0  0  0  0  0
  -22.3303   -9.6377  138.5589 C   0  0  0  0  0  0  0  0  0  0  0  0
  3  1  1  0
  4  3  1  0
  5  4  1  0
  6  5  1  0
  7  4  1  0
  8  4  1  0
  9  1  1  0
  9  3  1  0
 10  1  1  0
 10  2  1  0
 10  3  1  0
 10  9  1  0
 12  6  1  0
 12 11  1  0
 14  5  1  0
 14  6  1  0
 14  7  1  0
 14 11  1  0
 15  1  1  0
 15  7  1  0
 15 13  1  0
M  END
$$$$

     RDKit          3D

  7  7  0  0  0  0  0  0  0  0999 V2000
  -28.5262   -4.9068  137.3527 C   0  0  0  0  0  0  0  0  0  0  0  0
  -27.6917   -3.8814  138.1510 C   0  0  0  0  0  0  0  0  0  0  0  0
  -26.4980   -4.5104  138.8932 C   0  0  0  0  0  0  0  0  0  0  0  0
  -25.4499   -3.5052  139.3489 C   0  0  0  0  0  0  0  0  0  0  0  0
  -27.7036   -5.5856  136.2497 C   0  0  0  0  0  0  0  0  0  0  0  0
  -25.1512   -4.4393  138.1879 C   0  0  0  0  0  0  0  0  0  0  0  0
  -29.1885   -5.9512  138.2619 C   0  0  0  0  0  0  0  0  0  0  0  0
  2  1  1  0
  3  2  1  0
  4  3  1  0
  5  1  1  0
  6  3  1  0
  6  4  1  0
  7  1  1  0
M  END
$$$$

     RDKit          3D

 15 15  0  0  0  0  0  0  0  0999 V2000
  -20.7970    2.3880  145.7357 C   0  0  0  0  0  0  0  0  0  0  0  0
  -22.3357    2.2920  145.6823 C   0  0  0  0  0  0  0  0  0  0  0  0
  -22.9462    3.2001  144.5835 C   0  0  0  0  0  0  0  0  0  0  0  0
  -20.2918   -0.0414  146.2903 C   0  0  0  0  0  0  0  0  0  0  0  0
  -25.3550    2.3140  144.9071 C   0  0  0  0  0  0  0  0  0  0  0  0
  -20.1323    1.4204  146.7565 C   0  0  0  0  0  0  0  0  0  0  0  0
  -20.6246    1.6265  148.2281 C   0  0  0  0  0  0  0  0  0  0  0  0
  -22.7672    2.5929  143.1793 C   0  0  0  0  0  0  0  0  0  0  0  0
  -20.6037    3.0911  148.6298 C   0  0  0  0  0  0  0  0  0  0  0  0
  -19.8189    0.7742  149.2401 C   0  0  0  0  0  0  0  0  0  0  0  0
  -24.4300    3.5339  144.8696 C   0  0  0  0  0  0  0  0  0  0  0  0
  -20.3228    0.9672  150.6777 C   0  0  0  0  0  0  0  0  0  0  0  0
  -21.4673    0.1315  151.1039 C   0  0  0  0  0  0  0  0  0  0  0  0
  -20.1399   -0.1934  151.4546 O   0  0  0  0  0  0  0  0  0  0  0  0
  -19.4779    3.8128  148.6878 C   0  0  0  0  0  0  0  0  0  0  0  0
  2  1  1  0
  3  2  1  0
  6  1  1  0
  6  4  1  0
  7  6  1  0
  8  3  1  0
  9  7  1  0
 10  7  1  0
 11  3  1  0
 11  5  1  0
 12 10  1  0
 13 12  1  0
 14 12  1  0
 14 13  1  0
 15  9  2  0
M  END
$$$$

     RDKit          3D

 11 16  0  0  0  0  0  0  0  0999 V2000
  -32.4815  -18.6831  148.6569 C   0  0  0  0  0  0  0  0  0  0  0  0
  -31.5806  -19.6514  149.3348 C   0  0  0  0  0  0  0  0  0  0  0  0
  -32.3029  -20.9484  149.0079 C   0  0  0  0  0  0  0  0  0  0  0  0
  -32.2139  -21.5036  147.6002 C   0  0  0  0  0  0  0  0  0  0  0  0
  -30.2919  -23.2932  148.1580 C   0  0  0  0  0  0  0  0  0  0  0  0
  -31.3538  -22.7303  147.2184 C   0  0  0  0  0  0  0  0  0  0  0  0
  -31.3450  -20.3208  147.9632 C   0  0  0  0  0  0  0  0  0  0  0  0
  -31.6447  -23.9811  148.0349 C   0  0  0  0  0  0  0  0  0  0  0  0
  -30.8396  -18.0309  147.5063 C   0  0  0  0  0  0  0  0  0  0  0  0
  -31.9383  -19.0490  147.3151 C   0  0  0  0  0  0  0  0  0  0  0  0
  -31.1559  -18.1666  148.9905 C   0  0  0  0  0  0  0  0  0  0  0  0
  2  1  1  0
  3  2  1  0
  4  3  1  0
  6  4  1  0
  6  5  1  0
  7  2  1  0
  7  3  1  0
  7  4  1  0
  8  5  1  0
  8  6  1  0
 10  1  1  0
 10  7  1  0
 10  9  1  0
 11  1  1  0
 11  2  1  0
 11  9  1  0
M  END
$$$$

     RDKit          3D

 15 16  0  0  0  0  0  0  0  0999 V2000
  -30.0346  -18.9243  147.8945 F   0  0  0  0  0  0  0  0  0  0  0  0
  -29.5015  -17.6954  148.2366 C   0  0  0  0  0  0  0  0  0  0  0  0
  -29.0051  -18.9485  150.2276 F   0  0  0  0  0  0  0  0  0  0  0  0
  -29.7170  -15.3836  148.0064 F   0  0  0  0  0  0  0  0  0  0  0  0
  -30.4884  -16.5418  148.0120 C   0  0  0  0  0  0  0  0  0  0  0  0
  -31.3635  -16.5403  149.2801 C   0  0  0  0  0  0  0  0  0  0  0  0
  -33.1203  -14.8777  148.4742 S   0  0  0  0  0  0  0  0  0  0  0  0
  -31.9939  -14.2813  147.3106 O   0  0  0  0  0  0  0  0  0  0  0  0
  -31.8506  -15.2530  149.5853 O   0  0  0  0  0  0  0  0  0  0  0  0
  -30.4398  -17.0269  150.4026 C   0  0  0  0  0  0  0  0  0  0  0  0
  -31.8957  -15.2133  146.2567 C   0  0  0  0  0  0  0  0  0  0  0  0
  -31.2899  -16.5973  146.6625 C   0  0  0  0  0  0  0  0  0  0  0  0
  -32.3922  -17.6800  146.5770 C   0  0  0  0  0  0  0  0  0  0  0  0
  -29.2168  -17.6696  149.7374 C   0  0  0  0  0  0  0  0  0  0  0  0
  -28.0890  -16.9026  149.9849 F   0  0  0  0  0  0  0  0  0  0  0  0
  2  1  1  0
  5  2  1  0
  5  4  1  0
  6  5  1  0
  8  7  1  0
  9  6  1  0
  9  7  1  0
 10  6  1  0
 11  8  1  0
 12  5  1  0
 12 11  1  0
 13 12  1  0
 14  2  1  0
 14  3  1  0
 14 10  1  0
 15 14  1  0
M  END
$$$$

     RDKit          3D

 15 17  0  0  0  0  0  0  0  0999 V2000
  -23.4538  -13.5414  139.7454 O   0  0  0  0  0  0  0  0  0  0  0  0
  -24.6293  -13.7228  139.3289 C   0  0  0  0  0  0  0  0  0  0  0  0
  -24.8318  -14.4946  138.1888 O   0  0  0  0  0  0  0  0  0  0  0  0
  -25.8007  -13.0720  140.0229 C   0  0  0  0  0  0  0  0  0  0  0  0
  -26.2475  -11.7757  139.3050 C   0  0  0  0  0  0  0  0  0  0  0  0
  -25.5085  -12.8416  141.5221 C   0  0  0  0  0  0  0  0  0  0  0  0
  -25.1535  -10.7193  139.0567 C   0  0  0  0  0  0  0  0  0  0  0  0
  -25.8421  -14.0177  142.4347 C   0  0  0  0  0  0  0  0  0  0  0  0
  -24.9118  -14.1357  143.6465 C   0  0  0  0  0  0  0  0  0  0  0  0
  -26.7295  -12.7785  142.4324 C   0  0  0  0  0  0  0  0  0  0  0  0
  -24.8585  -15.5143  144.2845 C   0  0  0  0  0  0  0  0  0  0  0  0
  -23.7126  -15.0389  143.4066 C   0  0  0  0  0  0  0  0  0  0  0  0
  -24.7756   -9.9477  140.3299 C   0  0  0  0  0  0  0  0  0  0  0  0
  -23.3379  -10.0932  140.8145 C   0  0  0  0  0  0  0  0  0  0  0  0
  -23.7653   -8.8334  140.0849 C   0  0  0  0  0  0  0  0  0  0  0  0
  2  1  2  0
  3  2  1  0
  4  2  1  0
  5  4  1  0
  6  4  1  0
  7  5  1  0
  8  6  1  0
  9  8  1  0
 10  6  1  0
 10  8  1  0
 11  9  1  0
 12  9  1  0
 12 11  1  0
 13  7  1  0
 14 13  1  0
 15 13  1  0
 15 14  1  0
M  END
$$$$

     RDKit          3D

 15 15  0  0  0  0  0  0  0  0999 V2000
  -17.6400   -5.8729  143.6161 O   0  0  0  0  0  0  0  0  0  0  0  0
  -16.5138   -6.5095  143.0662 C   0  0  0  0  0  0  0  0  0  0  0  0
  -16.8219   -7.8415  142.7383 O   0  0  0  0  0  0  0  0  0  0  0  0
  -15.3114   -6.4189  144.0290 C   0  0  0  0  0  0  0  0  0  0  0  0
  -13.9704   -6.7979  143.3784 C   0  0  0  0  0  0  0  0  0  0  0  0
  -13.8612   -8.2852  143.0880 C   0  0  0  0  0  0  0  0  0  0  0  0
  -14.0352   -8.8106  141.8420 C   0  0  0  0  0  0  0  0  0  0  0  0
  -13.5473   -9.1517  144.3087 C   0  0  0  0  0  0  0  0  0  0  0  0
  -12.6923  -10.3957  144.1090 C   0  0  0  0  0  0  0  0  0  0  0  0
  -14.1869  -10.5312  144.3868 C   0  0  0  0  0  0  0  0  0  0  0  0
  -14.3990   -8.0501  140.5853 C   0  0  0  0  0  0  0  0  0  0  0  0
  -13.4193   -8.3415  139.4320 C   0  0  0  0  0  0  0  0  0  0  0  0
  -12.0638   -7.5929  139.4837 C   0  0  0  0  0  0  0  0  0  0  0  0
  -11.2018   -7.9875  140.6895 C   0  0  0  0  0  0  0  0  0  0  0  0
  -12.2260   -6.0690  139.3989 C   0  0  0  0  0  0  0  0  0  0  0  0
  2  1  1  0
  3  2  1  0
  4  2  1  0
  5  4  1  0
  6  5  1  0
  7  6  2  3
  8  6  1  0
  9  8  1  0
 10  8  1  0
 10  9  1  0
 11  7  1  0
 12 11  1  0
 13 12  1  0
 14 13  1  0
 15 13  1  0
M  END
$$$$

     RDKit          3D

 15 20  0  0  0  0  0  0  0  0999 V2000
  -23.2648   -8.1818  148.2288 O   0  0  0  0  0  0  0  0  0  0  0  0
  -23.9434   -7.3441  148.8800 C   0  0  0  0  0  0  0  0  0  0  0  0
  -25.2128   -6.9945  148.4309 O   0  0  0  0  0  0  0  0  0  0  0  0
  -23.3683   -6.6851  150.0945 C   0  0  0  0  0  0  0  0  0  0  0  0
  -22.5010   -7.5880  150.9414 C   0  0  0  0  0  0  0  0  0  0  0  0
  -21.3503   -6.8092  151.6024 C   0  0  0  0  0  0  0  0  0  0  0  0
  -23.2243   -8.4527  151.9884 C   0  0  0  0  0  0  0  0  0  0  0  0
  -23.1548   -9.7794  151.1884 C   0  0  0  0  0  0  0  0  0  0  0  0
  -23.8699  -10.9180  151.9063 C   0  0  0  0  0  0  0  0  0  0  0  0
  -23.8959   -7.1860  151.4223 C   0  0  0  0  0  0  0  0  0  0  0  0
  -24.9293  -11.7331  151.1600 C   0  0  0  0  0  0  0  0  0  0  0  0
  -25.2283  -11.4335  149.6949 C   0  0  0  0  0  0  0  0  0  0  0  0
  -26.0580  -10.7925  150.7982 C   0  0  0  0  0  0  0  0  0  0  0  0
  -25.6460   -9.3901  151.2159 C   0  0  0  0  0  0  0  0  0  0  0  0
  -24.3586   -9.5135  152.0610 C   0  0  0  0  0  0  0  0  0  0  0  0
  2  1  2  0
  3  2  1  0
  4  2  1  0
  5  4  1  0
  6  5  1  0
  7  5  1  0
  8  7  1  0
  9  8  1  0
 10  4  1  0
 10  5  1  0
 10  7  1  0
 11  9  1  0
 12 11  1  0
 13 11  1  0
 13 12  1  0
 14 13  1  0
 15  7  1  0
 15  8  1  0
 15  9  1  0
 15 14  1  0
M  END
$$$$

     RDKit          3D

 15 16  0  0  0  0  0  0  0  0999 V2000
  -22.3453    2.6557  137.9051 O   0  0  0  0  0  0  0  0  0  0  0  0
  -21.2639    2.3027  138.7511 C   0  0  0  0  0  0  0  0  0  0  0  0
  -20.5577    3.5042  139.1911 N   0  0  0  0  0  0  0  0  0  0  0  0
  -22.7028    4.8398  138.9418 C   0  0  0  0  0  0  0  0  0  0  0  0
  -20.6236    5.7898  139.8039 N   0  0  0  0  0  0  0  0  0  0  0  0
  -20.3451    1.4422  138.0131 N   0  0  0  0  0  0  0  0  0  0  0  0
  -23.2845    3.4430  138.6189 C   0  0  0  0  0  0  0  0  0  0  0  0
  -24.6065    3.5440  137.8068 C   0  0  0  0  0  0  0  0  0  0  0  0
  -21.2628    4.7360  139.3815 C   0  0  0  0  0  0  0  0  0  0  0  0
  -24.3654    3.9291  136.3261 C   0  0  0  0  0  0  0  0  0  0  0  0
  -25.5466    4.6530  135.7185 C   0  0  0  0  0  0  0  0  0  0  0  0
  -25.3957    2.2055  137.8966 C   0  0  0  0  0  0  0  0  0  0  0  0
  -26.8438    4.3293  135.9078 C   0  0  0  0  0  0  0  0  0  0  0  0
  -27.3605    3.2741  136.8664 C   0  0  0  0  0  0  0  0  0  0  0  0
  -26.5047    2.0848  136.9252 N   0  0  0  0  0  0  0  0  0  0  0  0
  2  1  1  0
  3  2  1  0
  6  2  1  0
  7  1  1  0
  7  4  1  0
  8  7  1  0
  9  3  1  0
  9  4  1  0
  9  5  2  0
 10  8  1  0
 11 10  1  0
 12  8  1  0
 13 11  2  0
 14 13  1  0
 15 12  1  0
 15 14  1  0
M  END
$$$$

     RDKit          3D

 15 19  0  0  0  0  0  0  0  0999 V2000
  -18.3908    4.4220  137.3222 O   0  0  0  0  0  0  0  0  0  0  0  0
  -17.7823    3.4901  138.1729 C   0  0  0  0  0  0  0  0  0  0  0  0
  -18.5200    3.2148  139.4646 C   0  0  0  0  0  0  0  0  0  0  0  0
  -19.7984    4.0586  139.6125 C   0  0  0  0  0  0  0  0  0  0  0  0
  -20.8600    3.4292  140.5068 C   0  0  0  0  0  0  0  0  0  0  0  0
  -21.7244    4.4297  141.2292 C   0  0  0  0  0  0  0  0  0  0  0  0
  -22.9422    4.1312  141.7120 C   0  0  0  0  0  0  0  0  0  0  0  0
  -23.5749    2.7665  141.6224 C   0  0  0  0  0  0  0  0  0  0  0  0
  -23.0237    1.8445  142.7173 C   0  0  0  0  0  0  0  0  0  0  0  0
  -17.2504    4.1225  139.4463 C   0  0  0  0  0  0  0  0  0  0  0  0
  -22.2252    0.6308  142.2705 C   0  0  0  0  0  0  0  0  0  0  0  0
  -21.0303    3.4134  138.9957 C   0  0  0  0  0  0  0  0  0  0  0  0
  -22.6535   -0.6161  143.0089 C   0  0  0  0  0  0  0  0  0  0  0  0
  -17.6547    3.3534  140.6910 C   0  0  0  0  0  0  0  0  0  0  0  0
  -23.6732    0.4724  142.7502 C   0  0  0  0  0  0  0  0  0  0  0  0
  2  1  1  0
  3  2  1  0
  4  3  1  0
  5  4  1  0
  6  5  1  0
  7  6  2  3
  8  7  1  0
  9  8  1  0
 10  2  1  0
 10  3  1  0
 11  9  1  0
 12  4  1  0
 12  5  1  0
 13 11  1  0
 14  3  1  0
 14 10  1  0
 15  9  1  0
 15 11  1  0
 15 13  1  0
M  END
$$$$

     RDKit          3D

 15 20  0  0  0  0  0  0  0  0999 V2000
  -31.4905  -12.9756  145.5801 C   0  0  0  0  0  0  0  0  0  0  0  0
  -30.6695  -14.2341  145.9562 C   0  0  0  0  0  0  0  0  0  0  0  0
  -30.0356  -14.9453  144.7799 C   0  0  0  0  0  0  0  0  0  0  0  0
  -30.1945  -14.3779  143.3625 C   0  0  0  0  0  0  0  0  0  0  0  0
  -32.1271  -12.3721  146.8428 C   0  0  0  0  0  0  0  0  0  0  0  0
  -29.6809  -13.9716  147.0782 C   0  0  0  0  0  0  0  0  0  0  0  0
  -31.7076  -10.9546  147.2176 C   0  0  0  0  0  0  0  0  0  0  0  0
  -31.2739  -15.0535  142.5236 C   0  0  0  0  0  0  0  0  0  0  0  0
  -29.8040  -15.3629  142.2652 C   0  0  0  0  0  0  0  0  0  0  0  0
  -31.9118  -14.1410  141.4698 C   0  0  0  0  0  0  0  0  0  0  0  0
  -29.6974  -12.5523  147.6726 C   0  0  0  0  0  0  0  0  0  0  0  0
  -31.1423  -12.1416  147.9918 C   0  0  0  0  0  0  0  0  0  0  0  0
  -33.2233  -14.6527  140.8930 C   0  0  0  0  0  0  0  0  0  0  0  0
  -33.2285  -13.5140  141.9019 C   0  0  0  0  0  0  0  0  0  0  0  0
  -29.1464  -14.0741  145.6577 C   0  0  0  0  0  0  0  0  0  0  0  0
  2  1  1  0
  3  2  1  0
  4  3  1  0
  5  1  1  0
  6  2  1  0
  7  5  1  0
  8  4  1  0
  9  4  1  0
  9  8  1  0
 10  8  1  0
 11  6  1  0
 12  5  1  0
 12  7  1  0
 12 11  1  0
 13 10  1  0
 14 10  1  0
 14 13  1  0
 15  2  1  0
 15  3  1  0
 15  6  1  0
M  END
$$$$

     RDKit          3D

 15 15  0  0  0  0  0  0  0  0999 V2000
  -27.0363   -4.5446  144.6374 C   0  0  0  0  0  0  0  0  0  0  0  0
  -28.0286   -4.2717  143.5170 C   0  0  0  0  0  0  0  0  0  0  0  0
  -29.3712   -5.0135  143.1328 C   0  0  0  0  0  0  0  0  0  0  0  0
  -28.0575   -3.4057  144.7806 C   0  0  0  0  0  0  0  0  0  0  0  0
  -30.1059   -4.1200  142.0444 C   0  0  0  0  0  0  0  0  0  0  0  0
  -29.3434   -4.2078  140.6754 C   0  0  0  0  0  0  0  0  0  0  0  0
  -30.3831   -5.4740  144.2481 C   0  0  0  0  0  0  0  0  0  0  0  0
  -29.4864   -6.6341  146.3443 C   0  0  0  0  0  0  0  0  0  0  0  0
  -29.7540   -3.3798  139.4342 C   0  0  0  0  0  0  0  0  0  0  0  0
  -29.3527   -1.8838  139.2614 C   0  0  0  0  0  0  0  0  0  0  0  0
  -28.3736   -1.2900  140.2865 C   0  0  0  0  0  0  0  0  0  0  0  0
  -30.4396   -6.4194  147.3131 F   0  0  0  0  0  0  0  0  0  0  0  0
  -30.3251   -2.6841  142.5760 C   0  0  0  0  0  0  0  0  0  0  0  0
  -30.5543   -1.0533  139.1321 N   0  0  0  0  0  0  0  0  0  0  0  0
  -30.1532   -6.8125  144.9775 C   0  0  0  0  0  0  0  0  0  0  0  0
  2  1  1  0
  3  2  1  0
  4  1  1  0
  4  2  1  0
  5  3  1  0
  6  5  1  0
  7  3  1  0
  9  6  1  0
 10  9  1  0
 11 10  1  0
 12  8  1  0
 13  5  1  0
 14 10  1  0
 15  7  1  0
 15  8  1  0
M  END
$$$$

     RDKit          3D

 15 22  0  0  0  0  0  0  0  0999 V2000
  -21.4265  -15.1879  151.6271 O   0  0  0  0  0  0  0  0  0  0  0  0
  -20.6692  -17.3830  150.0759 C   0  0  0  0  0  0  0  0  0  0  0  0
  -19.5401  -16.3767  150.0019 N   0  0  0  0  0  0  0  0  0  0  0  0
  -19.2982  -17.8324  150.0949 C   0  0  0  0  0  0  0  0  0  0  0  0
  -20.8709  -16.0762  149.4447 C   0  0  0  0  0  0  0  0  0  0  0  0
  -20.9025  -15.8634  147.9385 C   0  0  0  0  0  0  0  0  0  0  0  0
  -22.1715  -16.4358  147.3146 C   0  0  0  0  0  0  0  0  0  0  0  0
  -23.3906  -16.8176  148.0292 C   0  0  0  0  0  0  0  0  0  0  0  0
  -23.3184  -15.5076  147.3355 N   0  0  0  0  0  0  0  0  0  0  0  0
  -23.7444  -14.8535  148.5928 C   0  0  0  0  0  0  0  0  0  0  0  0
  -23.1458  -15.0332  149.9867 C   0  0  0  0  0  0  0  0  0  0  0  0
  -21.6318  -15.0223  150.2445 C   0  0  0  0  0  0  0  0  0  0  0  0
  -23.8404  -16.2048  149.3439 C   0  0  0  0  0  0  0  0  0  0  0  0
  -18.8264  -18.4423  148.7858 C   0  0  0  0  0  0  0  0  0  0  0  0
  -20.2912  -18.5221  149.1547 C   0  0  0  0  0  0  0  0  0  0  0  0
  3  2  1  0
  4  2  1  0
  4  3  1  0
  5  2  1  0
  5  3  1  0
  6  5  1  0
  7  6  1  0
  8  7  1  0
  9  7  1  0
  9  8  1  0
 10  9  1  0
 11 10  1  0
 12  1  1  0
 12  5  1  0
 12 11  1  0
 13  8  1  0
 13 10  1  0
 13 11  1  0
 14  4  1  0
 15  2  1  0
 15  4  1  0
 15 14  1  0
M  END
$$$$

     RDKit          3D

 15 19  0  0  0  0  0  0  0  0999 V2000
  -26.3092  -11.9412  139.7081 As  0  0  0  0  0  3  0  0  0  0  0  0
  -25.5674  -12.9015  137.1227 C   0  0  0  0  0  0  0  0  0  0  0  0
  -26.3915  -14.8352  137.6542 C   0  0  0  0  0  0  0  0  0  0  0  0
  -26.7783  -13.7353  136.6563 C   0  0  0  0  0  0  0  0  0  0  0  0
  -26.7045  -14.2266  135.1858 C   0  0  0  0  0  0  0  0  0  0  0  0
  -27.9293  -13.8382  134.3497 C   0  0  0  0  0  0  0  0  0  0  0  0
  -25.1796  -14.0064  138.1125 C   0  0  0  0  0  0  0  0  0  0  0  0
  -23.8484  -13.3313  140.0573 N   0  0  0  0  0  0  0  0  0  0  0  0
  -25.9719  -11.5849  137.8130 C   0  0  0  0  0  0  0  0  0  0  0  0
  -25.2222  -13.5662  139.5875 C   0  0  0  0  0  0  0  0  0  0  0  0
  -26.4940  -11.7219  134.2645 C   0  0  0  0  0  0  0  0  0  0  0  0
  -23.7288  -12.0761  140.8203 C   0  0  0  0  0  0  0  0  0  0  0  0
  -23.4202  -10.9213  139.8810 C   0  0  0  0  0  0  0  0  0  0  0  0
  -24.7907  -11.0231  140.5516 C   0  0  0  0  0  0  0  0  0  0  0  0
  -26.5649  -13.2327  134.0229 C   0  0  0  0  0  0  0  0  0  0  0  0
  4  2  1  0
  4  3  1  0
  5  4  1  0
  6  5  1  0
  7  2  1  0
  7  3  1  0
  9  1  1  0
  9  2  1  0
 10  1  1  0
 10  7  1  0
 10  8  1  0
 12  8  1  0
 13 12  1  0
 14  1  1  0
 14 12  1  0
 14 13  1  0
 15  5  1  0
 15  6  1  0
 15 11  1  0
M  END
$$$$

     RDKit          3D

 11 12  0  0  0  0  0  0  0  0999 V2000
  -22.1194  -12.0837  142.8897 O   0  0  0  0  0  0  0  0  0  0  0  0
  -23.1380  -10.0134  143.8132 C   0  0  0  0  0  0  0  0  0  0  0  0
  -22.4303  -11.2676  145.7529 O   0  0  0  0  0  0  0  0  0  0  0  0
  -18.9662  -12.9031  142.4997 C   0  0  0  0  0  0  0  0  0  0  0  0
  -23.8962   -7.7916  144.7522 C   0  0  0  0  0  0  0  0  0  0  0  0
  -21.9987  -10.3984  144.7425 C   0  0  0  0  0  0  0  0  0  0  0  0
  -19.9432  -10.7612  143.0662 C   0  0  0  0  0  0  0  0  0  0  0  0
  -21.3324  -11.1569  143.6037 C   0  0  0  0  0  0  0  0  0  0  0  0
  -22.4385  -10.7339  142.6678 C   0  0  0  0  0  0  0  0  0  0  0  0
  -23.2643   -8.5032  143.5592 C   0  0  0  0  0  0  0  0  0  0  0  0
  -19.5158  -11.6496  141.9756 N   0  0  0  0  0  0  0  0  0  0  0  0
  6  2  1  0
  6  3  1  0
  8  1  1  0
  8  6  1  0
  8  7  1  0
  9  1  1  0
  9  2  1  0
  9  8  1  0
 10  2  1  0
 10  5  1  0
 11  4  1  0
 11  7  1  0
M  END
$$$$

     RDKit          3D

 15 18  0  0  0  0  0  0  0  0999 V2000
  -28.2776  -16.9893  144.7225 O   0  0  0  0  0  0  0  0  0  0  0  0
  -28.2647  -17.6569  145.9749 C   0  0  0  0  0  0  0  0  0  0  0  0
  -27.2087  -17.0329  146.9177 C   0  0  0  0  0  0  0  0  0  0  0  0
  -29.6169  -17.4410  146.7050 C   0  0  0  0  0  0  0  0  0  0  0  0
  -30.2139  -18.7826  147.1962 C   0  0  0  0  0  0  0  0  0  0  0  0
  -28.0037  -16.2163  147.8725 C   0  0  0  0  0  0  0  0  0  0  0  0
  -28.7530  -17.8522  143.7122 C   0  0  0  0  0  0  0  0  0  0  0  0
  -27.3744  -15.1878  148.7764 C   0  0  0  0  0  0  0  0  0  0  0  0
  -25.9037  -14.9959  148.4667 C   0  0  0  0  0  0  0  0  0  0  0  0
  -29.3019  -16.4505  147.7855 C   0  0  0  0  0  0  0  0  0  0  0  0
  -30.9306  -18.7606  148.5269 C   0  0  0  0  0  0  0  0  0  0  0  0
  -25.3353  -15.4363  147.3263 C   0  0  0  0  0  0  0  0  0  0  0  0
  -26.1431  -16.1388  146.2613 C   0  0  0  0  0  0  0  0  0  0  0  0
  -30.6773  -20.0218  149.3132 C   0  0  0  0  0  0  0  0  0  0  0  0
  -29.5814  -19.4344  148.4299 C   0  0  0  0  0  0  0  0  0  0  0  0
  2  1  1  0
  3  2  1  0
  4  2  1  0
  5  4  1  0
  6  3  1  0
  7  1  1  0
  8  6  1  0
  9  8  1  0
 10  4  1  0
 10  6  2  0
 11  5  1  0
 12  9  2  0
 13  3  1  0
 13 12  1  0
 14 11  1  0
 15  5  1  0
 15 11  1  0
 15 14  1  0
M  END
$$$$

     RDKit          3D

 15 16  0  0  0  0  0  0  0  0999 V2000
  -21.7322   -0.2200  135.9706 C   0  0  0  0  0  0  0  0  0  0  0  0
  -22.7209   -1.0937  135.1886 C   0  0  0  0  0  0  0  0  0  0  0  0
  -21.2352   -1.4904  135.2778 C   0  0  0  0  0  0  0  0  0  0  0  0
  -23.7666   -1.8013  136.0762 C   0  0  0  0  0  0  0  0  0  0  0  0
  -25.8729   -3.2730  136.0782 C   0  0  0  0  0  0  0  0  0  0  0  0
  -24.7127   -2.6799  135.2382 C   0  0  0  0  0  0  0  0  0  0  0  0
  -25.4700   -4.2564  137.1974 C   0  0  0  0  0  0  0  0  0  0  0  0
  -23.9288   -3.7805  134.4941 C   0  0  0  0  0  0  0  0  0  0  0  0
  -23.6363   -3.5421  133.0616 C   0  0  0  0  0  0  0  0  0  0  0  0
  -24.6962   -4.3728  133.4724 O   0  0  0  0  0  0  0  0  0  0  0  0
  -25.0351   -3.5730  138.4677 C   0  0  0  0  0  0  0  0  0  0  0  0
  -20.4065   -1.3233  133.9862 C   0  0  0  0  0  0  0  0  0  0  0  0
  -20.8235   -0.2346  133.2016 O   0  0  0  0  0  0  0  0  0  0  0  0
  -20.8045   -2.6282  136.2208 C   0  0  0  0  0  0  0  0  0  0  0  0
  -25.8858   -2.9007  139.2467 C   0  0  0  0  0  0  0  0  0  0  0  0
  2  1  1  0
  3  1  1  0
  3  2  1  0
  4  2  1  0
  6  4  1  0
  6  5  1  0
  7  5  1  0
  8  6  1  0
  9  8  1  0
 10  8  1  0
 10  9  1  0
 11  7  1  0
 12  3  1  0
 13 12  1  0
 14  3  1  0
 15 11  2  0
M  END
$$$$

     RDKit          3D

 15 17  0  0  0  0  0  0  0  0999 V2000
  -27.7828  -20.4295  135.4707 O   0  0  0  0  0  0  0  0  0  0  0  0
  -26.7424  -20.8320  134.6090 C   0  0  0  0  0  0  0  0  0  0  0  0
  -25.8525  -21.6908  135.2623 O   0  0  0  0  0  0  0  0  0  0  0  0
  -28.1307  -21.3318  134.4438 C   0  0  0  0  0  0  0  0  0  0  0  0
  -28.5043  -22.7098  135.0178 C   0  0  0  0  0  0  0  0  0  0  0  0
  -28.2769  -23.8643  134.0233 C   0  0  0  0  0  0  0  0  0  0  0  0
  -29.9615  -25.0194  132.4874 C   0  0  0  0  0  0  0  0  0  0  0  0
  -30.8984  -24.8458  131.2834 C   0  0  0  0  0  0  0  0  0  0  0  0
  -30.2055  -24.3853  129.9922 C   0  0  0  0  0  0  0  0  0  0  0  0
  -29.0860  -25.3347  129.5255 C   0  0  0  0  0  0  0  0  0  0  0  0
  -27.1826  -24.8438  131.1984 C   0  0  0  0  0  0  0  0  0  0  0  0
  -27.6912  -23.6971  132.0973 C   0  0  0  0  0  0  0  0  0  0  0  0
  -29.0813  -23.7789  132.7357 C   0  0  0  0  0  0  0  0  0  0  0  0
  -27.0442  -23.7546  133.3502 O   0  0  0  0  0  0  0  0  0  0  0  0
  -27.6770  -24.7621  129.7457 C   0  0  0  0  0  0  0  0  0  0  0  0
  2  1  1  0
  3  2  1  0
  4  1  1  0
  4  2  1  0
  5  4  1  0
  6  5  1  0
  8  7  1  0
  9  8  1  0
 10  9  1  0
 12 11  1  0
 13  6  1  0
 13  7  1  0
 13 12  1  0
 14  6  1  0
 14 12  1  0
 15 10  1  0
 15 11  1  0
M  END
$$$$

     RDKit          3D

 15 17  0  0  0  0  0  0  0  0999 V2000
  -22.1646    4.2158  137.6429 C   0  0  0  0  0  0  0  0  0  0  0  0
  -22.3241    4.7183  136.1799 C   0  0  0  0  0  0  0  0  0  0  0  0
  -23.2530    3.9172  138.7191 C   0  0  0  0  0  0  0  0  0  0  0  0
  -21.9238    1.9085  139.5531 C   0  0  0  0  0  0  0  0  0  0  0  0
  -23.6435    4.9574  135.3878 C   0  0  0  0  0  0  0  0  0  0  0  0
  -21.8946    0.8529  140.6537 C   0  0  0  0  0  0  0  0  0  0  0  0
  -23.3238    2.4309  139.1537 C   0  0  0  0  0  0  0  0  0  0  0  0
  -24.8524    5.4080  136.1964 C   0  0  0  0  0  0  0  0  0  0  0  0
  -25.3133    4.3589  137.2114 C   0  0  0  0  0  0  0  0  0  0  0  0
  -22.1267    3.2281  136.4798 C   0  0  0  0  0  0  0  0  0  0  0  0
  -21.0493    5.3864  135.5943 C   0  0  0  0  0  0  0  0  0  0  0  0
  -24.6367    4.5762  138.5640 C   0  0  0  0  0  0  0  0  0  0  0  0
  -22.1335    3.0563  141.9554 C   0  0  0  0  0  0  0  0  0  0  0  0
  -20.7615    4.9641  134.1504 C   0  0  0  0  0  0  0  0  0  0  0  0
  -21.3315    2.2465  140.9268 C   0  0  0  0  0  0  0  0  0  0  0  0
  2  1  1  0
  3  1  1  0
  5  2  1  0
  6  4  1  0
  7  3  1  0
  7  4  1  0
  8  5  1  0
  9  8  1  0
 10  1  1  0
 10  2  1  0
 11  2  1  0
 12  3  1  0
 12  9  1  0
 14 11  1  0
 15  4  1  0
 15  6  1  0
 15 13  1  0
M  END
$$$$

     RDKit          3D

 15 16  0  0  0  0  0  0  0  0999 V2000
  -28.4765  -22.1114  137.3432 C   0  0  0  0  0  0  0  0  0  0  0  0
  -29.3025  -21.0071  138.0174 C   0  0  0  0  0  0  0  0  0  0  0  0
  -28.4397  -20.0882  138.8995 C   0  0  0  0  0  0  0  0  0  0  0  0
  -29.2496  -18.9439  139.5299 C   0  0  0  0  0  0  0  0  0  0  0  0
  -27.5493  -21.5494  136.2573 C   0  0  0  0  0  0  0  0  0  0  0  0
  -30.1846  -19.4253  140.6496 C   0  0  0  0  0  0  0  0  0  0  0  0
  -30.8680  -18.2395  141.3412 C   0  0  0  0  0  0  0  0  0  0  0  0
  -28.1393  -21.3467  134.9358 C   0  0  0  0  0  0  0  0  0  0  0  0
  -31.8103  -18.7180  142.4521 C   0  0  0  0  0  0  0  0  0  0  0  0
  -27.2981  -22.5341  135.1880 N   0  0  0  0  0  0  0  0  0  0  0  0
  -32.4926  -17.5346  143.1439 C   0  0  0  0  0  0  0  0  0  0  0  0
  -33.4468  -18.0358  144.2349 C   0  0  0  0  0  0  0  0  0  0  0  0
  -33.7744  -17.0137  145.3178 C   0  0  0  0  0  0  0  0  0  0  0  0
  -32.8372  -18.1736  145.6207 C   0  0  0  0  0  0  0  0  0  0  0  0
  -33.4356  -19.1863  146.3762 O   0  0  0  0  0  0  0  0  0  0  0  0
  2  1  1  0
  3  2  1  0
  4  3  1  0
  5  1  1  0
  6  4  1  0
  7  6  1  0
  8  5  1  0
  9  7  1  0
 10  5  1  0
 10  8  1  0
 11  9  1  0
 12 11  1  0
 13 12  1  0
 14 12  1  0
 14 13  1  0
 15 14  1  0
M  END
$$$$

     RDKit          3D

 15 17  0  0  0  0  0  0  0  0999 V2000
  -20.7458   -7.3310  135.0905 C   0  0  0  0  0  0  0  0  0  0  0  0
  -20.7908   -6.2207  136.1793 C   0  0  0  0  0  0  0  0  0  0  0  0
  -21.3191   -4.8460  135.6603 C   0  0  0  0  0  0  0  0  0  0  0  0
  -21.2446   -3.7841  136.7700 C   0  0  0  0  0  0  0  0  0  0  0  0
  -20.0178   -7.5035  131.8623 C   0  0  0  0  0  0  0  0  0  0  0  0
  -19.7072   -7.1075  133.9634 C   0  0  0  0  0  0  0  0  0  0  0  0
  -20.2005   -6.2935  132.7656 C   0  0  0  0  0  0  0  0  0  0  0  0
  -19.5484   -8.3260  133.0524 C   0  0  0  0  0  0  0  0  0  0  0  0
  -22.8220   -4.9379  135.2331 C   0  0  0  0  0  0  0  0  0  0  0  0
  -23.5003   -3.5982  134.8197 C   0  0  0  0  0  0  0  0  0  0  0  0
  -20.1287   -2.7887  137.0285 C   0  0  0  0  0  0  0  0  0  0  0  0
  -21.2548   -2.4052  136.0896 C   0  0  0  0  0  0  0  0  0  0  0  0
  -23.7858   -2.6206  135.9990 C   0  0  0  0  0  0  0  0  0  0  0  0
  -19.4226   -6.0953  136.8814 C   0  0  0  0  0  0  0  0  0  0  0  0
  -22.5810   -1.7445  136.4492 C   0  0  0  0  0  0  0  0  0  0  0  0
  2  1  1  0
  3  2  1  0
  4  3  1  0
  6  1  1  0
  7  5  1  0
  7  6  1  0
  8  5  1  0
  8  6  1  0
  9  3  1  0
 10  9  1  0
 11  4  1  0
 12  4  1  0
 12 11  1  0
 13 10  1  0
 14  2  1  0
 15 12  1  0
 15 13  1  0
M  END
$$$$

     RDKit          3D

 21 28  0  0  0  0  0  0  0  0999 V2000
  -23.0246  -20.0693  132.2332 O   0  0  0  0  0  0  0  0  0  0  0  0
  -21.9769  -18.1172  132.9871 C   0  0  0  0  0  0  0  0  0  0  0  0
  -20.7067  -18.6136  132.6038 O   0  0  0  0  0  0  0  0  0  0  0  0
  -23.3131  -18.8409  132.8414 C   0  0  0  0  0  0  0  0  0  0  0  0
  -23.7757  -18.9863  134.2808 C   0  0  0  0  0  0  0  0  0  0  0  0
  -23.7800  -20.1945  133.4022 C   0  0  0  0  0  0  0  0  0  0  0  0
  -20.2122  -19.9497  132.7505 C   0  0  0  0  0  0  0  0  0  0  0  0
  -20.2627  -20.4248  134.2101 C   0  0  0  0  0  0  0  0  0  0  0  0
  -19.9658  -21.9379  134.3866 C   0  0  0  0  0  0  0  0  0  0  0  0
  -18.7633  -21.6483  135.3321 C   0  0  0  0  0  0  0  0  0  0  0  0
  -19.0512  -20.1754  135.0822 C   0  0  0  0  0  0  0  0  0  0  0  0
  -17.9210  -19.2704  134.6541 C   0  0  0  0  0  0  0  0  0  0  0  0
  -25.1674  -20.4711  133.0161 N   0  0  0  0  0  0  0  0  0  0  0  0
  -17.4271  -22.1742  134.7666 C   0  0  0  0  0  0  0  0  0  0  0  0
  -17.3124  -18.6020  135.8865 C   0  0  0  0  0  0  0  0  0  0  0  0
  -22.0491  -16.8869  133.3963 N   0  0  0  0  0  0  0  0  0  0  0  0
  -16.9890  -17.1740  135.4775 C   0  0  0  0  0  0  0  0  0  0  0  0
  -17.2929  -15.9455  136.3560 C   0  0  0  0  0  0  0  0  0  0  0  0
  -18.7927  -18.9154  135.8766 C   0  0  0  0  0  0  0  0  0  0  0  0
  -18.1287  -16.1703  137.6295 C   0  0  0  0  0  0  0  0  0  0  0  0
  -18.2499  -17.8304  134.9560 C   0  0  0  0  0  0  0  0  0  0  0  0
  3  2  1  0
  4  1  1  0
  4  2  1  0
  5  4  1  0
  6  1  1  0
  6  4  1  0
  6  5  1  0
  7  3  1  0
  8  7  1  0
  9  8  1  0
 10  9  1  0
 11  8  1  0
 11 10  1  0
 12 11  1  0
 13  6  1  0
 14 10  1  0
 15 12  1  0
 16  2  2  0
 17 15  1  0
 18 17  1  0
 19 11  1  0
 19 12  1  0
 19 15  1  0
 20 18  1  0
 21 12  1  0
 21 15  1  0
 21 17  1  0
 21 19  1  0
M  END
$$$$

     RDKit          3D

 21 24  0  0  0  0  0  0  0  0999 V2000
  -25.2880  -11.4186  143.8633 C   0  0  0  0  0  0  0  0  0  0  0  0
  -25.8056  -10.0503  144.3038 C   0  0  0  0  0  0  0  0  0  0  0  0
  -26.7311  -11.0126  143.5397 C   0  0  0  0  0  0  0  0  0  0  0  0
  -27.1519  -10.6256  142.1062 C   0  0  0  0  0  0  0  0  0  0  0  0
  -26.5838  -11.5727  141.0081 C   0  0  0  0  0  0  0  0  0  0  0  0
  -26.9448  -11.1499  139.5717 C   0  0  0  0  0  0  0  0  0  0  0  0
  -26.6924  -12.2632  138.5421 C   0  0  0  0  0  0  0  0  0  0  0  0
  -27.8103  -13.3044  138.5229 C   0  0  0  0  0  0  0  0  0  0  0  0
  -27.1348   -9.0922  141.8517 C   0  0  0  0  0  0  0  0  0  0  0  0
  -25.9291   -8.2809  142.3462 C   0  0  0  0  0  0  0  0  0  0  0  0
  -26.1770   -9.9489  145.8059 C   0  0  0  0  0  0  0  0  0  0  0  0
  -25.1785   -8.7882  143.5872 C   0  0  0  0  0  0  0  0  0  0  0  0
  -27.1904   -8.8118  146.0684 C   0  0  0  0  0  0  0  0  0  0  0  0
  -26.7569   -7.8650  147.2108 C   0  0  0  0  0  0  0  0  0  0  0  0
  -27.0969   -6.3675  147.0005 C   0  0  0  0  0  0  0  0  0  0  0  0
  -26.0091   -5.5685  146.2289 C   0  0  0  0  0  0  0  0  0  0  0  0
  -25.9213   -5.7806  144.6934 C   0  0  0  0  0  0  0  0  0  0  0  0
  -24.5446   -6.2906  144.2205 C   0  0  0  0  0  0  0  0  0  0  0  0
  -28.5299   -6.1160  146.5002 C   0  0  0  0  0  0  0  0  0  0  0  0
  -24.5678   -8.9147  142.1696 C   0  0  0  0  0  0  0  0  0  0  0  0
  -24.3230   -7.8001  144.4508 C   0  0  0  0  0  0  0  0  0  0  0  0
  2  1  1  0
  3  1  1  0
  3  2  1  0
  4  3  1  0
  5  4  1  0
  6  5  1  0
  7  6  1  0
  8  7  1  0
  9  4  1  0
 10  9  1  0
 11  2  1  0
 12  2  1  0
 12 10  1  0
 13 11  1  0
 14 13  1  0
 15 14  1  0
 16 15  1  0
 17 16  1  0
 18 17  1  0
 19 15  1  0
 20 10  1  0
 20 12  1  0
 21 12  1  0
 21 18  1  0
M  END
$$$$

     RDKit          3D

 21 25  0  0  0  0  0  0  0  0999 V2000
  -18.4749  -11.0733  139.6857 C   0  0  0  0  0  0  0  0  0  0  0  0
  -16.1926  -10.9309  138.9892 C   0  0  0  0  0  0  0  0  0  0  0  0
  -19.2505  -12.0806  138.7968 C   0  0  0  0  0  0  0  0  0  0  0  0
  -16.7532   -9.5504  138.7971 C   0  0  0  0  0  0  0  0  0  0  0  0
  -15.9107   -8.6315  137.8477 C   0  0  0  0  0  0  0  0  0  0  0  0
  -18.6677  -12.3827  137.3974 C   0  0  0  0  0  0  0  0  0  0  0  0
  -17.0762  -11.5979  140.0261 C   0  0  0  0  0  0  0  0  0  0  0  0
  -15.0150  -11.6988  138.3798 C   0  0  0  0  0  0  0  0  0  0  0  0
  -17.1842  -12.7942  137.3801 C   0  0  0  0  0  0  0  0  0  0  0  0
  -16.3305   -9.1308  136.4301 C   0  0  0  0  0  0  0  0  0  0  0  0
  -16.0662  -10.6693  136.2821 C   0  0  0  0  0  0  0  0  0  0  0  0
  -18.2795   -9.6644  139.0532 C   0  0  0  0  0  0  0  0  0  0  0  0
  -16.2857  -11.5511  137.5594 C   0  0  0  0  0  0  0  0  0  0  0  0
  -17.6775   -8.6623  135.7782 C   0  0  0  0  0  0  0  0  0  0  0  0
  -16.1190   -8.3138  139.3657 C   0  0  0  0  0  0  0  0  0  0  0  0
  -17.6091   -8.7422  134.2390 C   0  0  0  0  0  0  0  0  0  0  0  0
  -14.9158   -8.5457  140.3088 C   0  0  0  0  0  0  0  0  0  0  0  0
  -18.1324   -6.9839  136.2282 S   0  0  0  0  0  5  0  0  0  0  0  0
  -18.7411   -6.2380  135.0446 O   0  0  0  0  0  0  0  0  0  0  0  0
  -16.9379   -7.0319  139.6376 C   0  0  0  0  0  0  0  0  0  0  0  0
  -16.1092   -5.7610  139.4497 C   0  0  0  0  0  0  0  0  0  0  0  0
  3  1  1  0
  4  2  1  0
  5  4  1  0
  6  3  1  0
  7  1  1  0
  7  2  1  0
  8  2  1  0
  9  6  1  0
 10  5  1  0
 11 10  1  0
 12  1  1  0
 12  4  1  0
 13  2  1  0
 13  8  1  0
 13  9  1  0
 13 11  1  0
 14 10  1  0
 15  4  1  0
 15  5  1  0
 16 14  1  0
 17 15  1  0
 18 14  1  0
 19 18  2  0
 20 15  1  0
 21 20  1  0
M  RAD  1  18   2
M  END
$$$$

     RDKit          3D

 20 23  0  0  0  0  0  0  0  0999 V2000
  -26.1427   -1.3664  139.5012 F   0  0  0  0  0  0  0  0  0  0  0  0
  -26.0067   -2.7587  139.3323 C   0  0  0  0  0  0  0  0  0  0  0  0
  -26.0944   -3.7286  140.5200 C   0  0  0  0  0  0  0  0  0  0  0  0
  -25.1456   -3.4996  141.5805 C   0  0  0  0  0  0  0  0  0  0  0  0
  -25.4069   -3.1549  138.0045 C   0  0  0  0  0  0  0  0  0  0  0  0
  -25.2988   -4.6414  137.7657 C   0  0  0  0  0  0  0  0  0  0  0  0
  -26.1698   -5.3115  136.8006 N   0  0  0  0  0  0  0  0  0  0  0  0
  -22.1075   -5.1811  144.1514 O   0  0  0  0  0  0  0  0  0  0  0  0
  -26.7517   -4.8472  138.0667 C   0  0  0  0  0  0  0  0  0  0  0  0
  -25.0048   -2.8980  146.8853 O   0  0  0  0  0  0  0  0  0  0  0  0
  -23.8626   -1.9484  140.8490 O   0  0  0  0  0  0  0  0  0  0  0  0
  -23.9008   -3.2576  141.0110 O   0  0  0  0  0  0  0  0  0  0  0  0
  -26.5563   -2.3874  146.1366 P   0  0  0  0  0  0  0  0  0  0  0  0
  -28.2149   -2.2203  146.7714 O   0  0  0  0  0  0  0  0  0  0  0  0
  -28.8015   -3.4018  146.5237 O   0  0  0  0  0  0  0  0  0  0  0  0
  -22.9801   -4.4017  143.5039 C   0  0  0  0  0  0  0  0  0  0  0  0
  -24.4142   -4.6196  143.9911 C   0  0  0  0  0  0  0  0  0  0  0  0
  -26.8889   -3.2913  138.2207 C   0  0  0  0  0  0  0  0  0  0  0  0
  -25.2646   -4.8417  142.5499 C   0  0  0  0  0  0  0  0  0  0  0  0
  -25.2941   -3.4651  145.2484 P   0  0  0  0  0  0  0  0  0  0  0  0
  2  1  1  0
  3  2  1  0
  4  3  1  0
  5  2  1  0
  6  5  1  0
  7  6  1  0
  9  6  1  0
  9  7  1  0
 12  4  1  0
 12 11  1  0
 13 10  4  0
 14 13  1  0
 15 14  1  0
 16  8  1  0
 17 16  1  0
 18  2  1  0
 18  5  1  0
 18  9  1  0
 19  4  1  0
 19 17  1  0
 20 10  4  0
 20 13  4  0
 20 17  1  0
M  END
$$$$

     RDKit          3D

  9  8  0  0  0  0  0  0  0  0999 V2000
  -33.3810   -5.9430  138.4733 O   0  0  0  0  0  0  0  0  0  0  0  0
  -33.6576   -4.3029  137.9739 P   0  0  0  0  0  0  0  0  0  0  0  0
  -34.6595   -4.5071  140.5094 O   0  0  0  0  0  0  0  0  0  0  0  0
  -33.6876   -3.8227  141.0853 O   0  0  0  0  0  0  0  0  0  0  0  0
  -32.2691   -3.6460  138.7821 O   0  0  0  0  0  0  0  0  0  0  0  0
  -35.0546   -2.4856  139.4004 O   0  0  0  0  0  0  0  0  0  0  0  0
  -36.1522   -2.2613  140.1001 O   0  0  0  0  0  0  0  0  0  0  0  0
  -34.9455   -3.8852  139.2726 C   0  0  0  0  0  0  0  0  0  0  0  0
  -34.3633   -7.0699  137.0951 I   0  0  0  0  0  0  0  0  0  0  0  0
  2  1  1  0
  4  3  1  0
  5  2  1  0
  7  6  1  0
  8  2  1  0
  8  3  1  0
  8  6  1  0
  9  1  1  0
M  END
$$$$

     RDKit          3D

 21 22  0  0  0  0  0  0  0  0999 V2000
  -23.7634   -4.5197  149.9014 C   0  0  0  0  0  0  0  0  0  0  0  0
  -24.1578   -3.3119  149.0126 C   0  0  0  0  0  0  0  0  0  0  0  0
  -24.4890   -5.8320  149.6080 C   0  0  0  0  0  0  0  0  0  0  0  0
  -25.4690   -2.6120  148.8538 C   0  0  0  0  0  0  0  0  0  0  0  0
  -24.0263   -7.1680  151.7446 C   0  0  0  0  0  0  0  0  0  0  0  0
  -24.1557   -7.2342  153.2141 N   0  0  0  0  0  0  0  0  0  0  0  0
  -26.1891   -6.0617  151.3313 O   0  0  0  0  0  0  0  0  0  0  0  0
  -24.1943   -4.5913  151.3713 C   0  0  0  0  0  0  0  0  0  0  0  0
  -24.5046   -2.1908  149.7921 O   0  0  0  0  0  0  0  0  0  0  0  0
  -23.2217   -2.9650  148.0598 F   0  0  0  0  0  0  0  0  0  0  0  0
  -25.2411   -8.1292  153.6300 C   0  0  0  0  0  0  0  0  0  0  0  0
  -24.8014   -5.9871  151.1050 C   0  0  0  0  0  0  0  0  0  0  0  0
  -27.7893   -3.4373  148.5137 C   0  0  0  0  0  0  0  0  0  0  0  0
  -26.7527   -3.0907  149.5369 C   0  0  0  0  0  0  0  0  0  0  0  0
  -27.6019   -4.4246  147.6799 C   0  0  0  0  0  0  0  0  0  0  0  0
  -28.7390   -6.7897  145.3867 O   0  0  0  0  0  0  0  0  0  0  0  0
  -29.5435   -5.9683  144.5817 C   0  0  0  0  0  0  0  0  0  0  0  0
  -27.3962   -5.4135  146.8495 C   0  0  0  0  0  0  0  0  0  0  0  0
  -26.0986   -5.4980  146.0970 C   0  0  0  0  0  0  0  0  0  0  0  0
  -28.3945   -6.5330  146.7512 C   0  0  0  0  0  0  0  0  0  0  0  0
  -30.1045   -4.8338  145.0070 C   0  0  0  0  0  0  0  0  0  0  0  0
  2  1  1  0
  3  1  1  0
  4  2  1  0
  6  5  1  0
  8  1  1  0
  9  2  1  0
  9  4  1  0
 10  2  1  0
 11  6  1  0
 12  3  1  0
 12  5  1  0
 12  7  1  0
 12  8  1  0
 14  4  1  0
 14 13  1  0
 15 13  2  0
 17 16  1  0
 18 15  2  0
 19 18  1  0
 20 16  1  0
 20 18  1  0
 21 17  2  0
M  END
$$$$

     RDKit          3D

 21 22  0  0  0  0  0  0  0  0999 V2000
  -30.9065  -25.5894  140.0918 O   0  0  0  0  0  0  0  0  0  0  0  0
  -29.7924  -25.9597  139.6356 C   0  0  0  0  0  0  0  0  0  0  0  0
  -29.4034  -25.5308  138.3700 O   0  0  0  0  0  0  0  0  0  0  0  0
  -28.9209  -26.8924  140.4326 C   0  0  0  0  0  0  0  0  0  0  0  0
  -29.5125  -28.2347  140.4756 N   0  0  0  0  0  0  0  0  0  0  0  0
  -28.6713  -26.3494  141.8552 C   0  0  0  0  0  0  0  0  0  0  0  0
  -27.7496  -27.3044  142.6431 C   0  0  0  0  0  0  0  0  0  0  0  0
  -27.3735  -26.8209  144.0529 C   0  0  0  0  0  0  0  0  0  0  0  0
  -28.5395  -26.6883  145.0667 C   0  0  0  0  0  0  0  0  0  0  0  0
  -27.9868  -26.2241  146.4620 C   0  0  0  0  0  0  0  0  0  0  0  0
  -28.1946  -27.1407  147.7042 C   0  0  0  0  0  0  0  0  0  0  0  0
  -27.9238  -26.3227  148.9993 C   0  0  0  0  0  0  0  0  0  0  0  0
  -29.4465  -27.9418  145.0794 C   0  0  0  0  0  0  0  0  0  0  0  0
  -27.9101  -27.1894  150.2820 C   0  0  0  0  0  0  0  0  0  0  0  0
  -29.2470  -27.7256  150.7382 C   0  0  0  0  0  0  0  0  0  0  0  0
  -29.3020  -28.4955  152.0637 C   0  0  0  0  0  0  0  0  0  0  0  0
  -28.5967  -27.3452  152.7673 C   0  0  0  0  0  0  0  0  0  0  0  0
  -28.5790  -26.5458  151.4778 C   0  0  0  0  0  0  0  0  0  0  0  0
  -27.2972  -28.3989  147.6616 C   0  0  0  0  0  0  0  0  0  0  0  0
  -28.6385  -29.9016  152.0119 C   0  0  0  0  0  0  0  0  0  0  0  0
  -27.1862  -30.0267  152.5048 C   0  0  0  0  0  0  0  0  0  0  0  0
  2  1  2  0
  3  2  1  0
  4  2  1  0
  5  4  1  0
  6  4  1  0
  7  6  1  0
  8  7  1  0
  9  8  1  0
 10  9  1  0
 11 10  1  0
 12 11  1  0
 13  9  1  0
 14 12  1  0
 15 14  1  0
 16 15  1  0
 17 16  1  0
 18 14  1  0
 18 15  1  0
 18 17  1  0
 19 11  1  0
 20 16  1  0
 21 20  1  0
M  END
$$$$

     RDKit          3D

 21 25  0  0  0  0  0  0  0  0999 V2000
  -31.3967   -5.1169  139.2268 Sb  0  0  0  0  0  3  0  0  0  0  0  0
  -32.9553   -4.5915  141.6744 O   0  0  0  0  0  0  0  0  0  0  0  0
  -34.1993   -5.7484  139.9603 C   0  0  0  0  0  0  0  0  0  0  0  0
  -33.0123   -4.0554  138.4539 N   0  0  0  0  0  0  0  0  0  0  0  0
  -34.1550   -4.9254  138.6555 C   0  0  0  0  0  0  0  0  0  0  0  0
  -32.8721   -5.6174  140.7178 C   0  0  0  0  0  0  0  0  0  0  0  0
  -35.4753   -4.4935  138.0149 C   0  0  0  0  0  0  0  0  0  0  0  0
  -35.8063   -1.9451  137.5849 C   0  0  0  0  0  0  0  0  0  0  0  0
  -34.6236   -2.8701  136.0057 C   0  0  0  0  0  0  0  0  0  0  0  0
  -29.9318   -2.2075  137.9535 C   0  0  0  0  0  0  0  0  0  0  0  0
  -34.6541   -5.6334  137.4057 C   0  0  0  0  0  0  0  0  0  0  0  0
  -30.4949   -2.0860  139.3777 C   0  0  0  0  0  0  0  0  0  0  0  0
  -30.4641   -3.3897  140.1941 C   0  0  0  0  0  0  0  0  0  0  0  0
  -34.9112   -3.0924  134.5087 C   0  0  0  0  0  0  0  0  0  0  0  0
  -35.7013   -3.3372  137.0024 C   0  0  0  0  0  0  0  0  0  0  0  0
  -33.5077   -1.8825  136.3742 C   0  0  0  0  0  0  0  0  0  0  0  0
  -28.4318   -2.5196  137.9376 C   0  0  0  0  0  0  0  0  0  0  0  0
  -27.8836   -2.3730  136.5123 C   0  0  0  0  0  0  0  0  0  0  0  0
  -34.9257   -1.4107  136.4554 C   0  0  0  0  0  0  0  0  0  0  0  0
  -27.9035   -3.6332  135.6649 C   0  0  0  0  0  0  0  0  0  0  0  0
  -26.5938   -3.1337  136.2572 C   0  0  0  0  0  0  0  0  0  0  0  0
  4  1  1  0
  5  3  1  0
  5  4  1  0
  6  1  1  0
  6  2  1  0
  6  3  1  0
  7  5  1  0
 11  5  1  0
 11  7  1  0
 12 10  1  0
 13  1  1  0
 13 12  1  0
 14  9  1  0
 15  7  1  0
 15  8  1  0
 15  9  1  0
 16  9  1  0
 17 10  1  0
 18 17  1  0
 19  8  1  0
 19  9  1  0
 19 16  1  0
 20 18  1  0
 21 18  1  0
 21 20  1  0
M  END
$$$$

     RDKit          3D

 21 25  0  0  0  0  0  0  0  0999 V2000
  -32.7199   -6.7724  138.5546 O   0  0  0  0  0  0  0  0  0  0  0  0
  -33.4354   -7.1573  139.7100 C   0  0  0  0  0  0  0  0  0  0  0  0
  -32.8245   -6.6226  140.8606 O   0  0  0  0  0  0  0  0  0  0  0  0
  -34.8464   -6.5911  139.6115 C   0  0  0  0  0  0  0  0  0  0  0  0
  -35.4994   -7.1377  138.5218 F   0  0  0  0  0  0  0  0  0  0  0  0
  -32.1990   -7.6203  141.4691 F   0  0  0  0  0  0  0  0  0  0  0  0
  -31.4917   -7.4634  138.5170 C   0  0  0  0  0  0  0  0  0  0  0  0
  -30.2890   -6.6524  138.7371 C   0  0  0  0  0  0  0  0  0  0  0  0
  -30.4822   -5.1544  138.9902 C   0  0  0  0  0  0  0  0  0  0  0  0
  -30.6883   -7.0117  137.3634 N   0  0  0  0  0  0  0  0  0  0  0  0
  -29.1680   -4.4210  139.3726 C   0  0  0  0  0  0  0  0  0  0  0  0
  -29.1072   -2.8564  139.4052 C   0  0  0  0  0  0  0  0  0  0  0  0
  -30.3689   -1.9629  139.3564 C   0  0  0  0  0  0  0  0  0  0  0  0
  -30.2824   -4.7559  140.4004 C   0  0  0  0  0  0  0  0  0  0  0  0
  -30.0601   -0.4702  139.4015 C   0  0  0  0  0  0  0  0  0  0  0  0
  -30.6352   -1.1668  140.6279 C   0  0  0  0  0  0  0  0  0  0  0  0
  -28.9147   -3.5562  138.1110 C   0  0  0  0  0  0  0  0  0  0  0  0
  -32.1041   -0.8310  140.9116 C   0  0  0  0  0  0  0  0  0  0  0  0
  -32.7295   -1.9176  141.7928 C   0  0  0  0  0  0  0  0  0  0  0  0
  -34.2472   -1.8573  141.8808 C   0  0  0  0  0  0  0  0  0  0  0  0
  -33.5773   -2.9600  141.0764 C   0  0  0  0  0  0  0  0  0  0  0  0
  2  1  1  0
  3  2  1  0
  4  2  1  0
  5  4  1  0
  6  3  1  0
  7  1  1  0
  8  7  1  0
  9  8  1  0
 10  7  1  0
 10  8  1  0
 11  9  1  0
 12 11  1  0
 13 12  1  0
 14  9  1  0
 14 11  1  0
 15 13  1  0
 16 13  1  0
 16 15  1  0
 17 11  1  0
 17 12  1  0
 18 16  1  0
 19 18  1  0
 20 19  1  0
 21 19  1  0
 21 20  1  0
M  END
$$$$

     RDKit          3D

 20 25  0  0  0  0  0  0  0  0999 V2000
  -21.5563   -5.0219  137.6309 C   0  0  0  0  0  0  0  0  0  0  0  0
  -20.0914   -5.0353  137.1792 C   0  0  0  0  0  0  0  0  0  0  0  0
  -19.4167   -6.4026  137.1173 C   0  0  0  0  0  0  0  0  0  0  0  0
  -18.8153   -7.8671  135.6312 C   0  0  0  0  0  0  0  0  0  0  0  0
  -19.4136   -8.1351  134.2281 C   0  0  0  0  0  0  0  0  0  0  0  0
  -17.0251   -6.0405  136.5976 C   0  0  0  0  0  0  0  0  0  0  0  0
  -19.7678   -5.8143  135.9179 C   0  0  0  0  0  0  0  0  0  0  0  0
  -18.3729   -6.4388  135.9963 C   0  0  0  0  0  0  0  0  0  0  0  0
  -19.4461   -9.6521  133.8700 C   0  0  0  0  0  0  0  0  0  0  0  0
  -17.3930   -7.1884  133.2668 O   0  0  0  0  0  0  0  0  0  0  0  0
  -20.7770   -7.6289  134.7490 C   0  0  0  0  0  0  0  0  0  0  0  0
  -20.1890   -7.3242  136.1450 C   0  0  0  0  0  0  0  0  0  0  0  0
  -19.1290   -7.7786  131.6862 C   0  0  0  0  0  0  0  0  0  0  0  0
  -20.9161   -7.5719  129.8570 C   0  0  0  0  0  0  0  0  0  0  0  0
  -22.3921   -7.8426  129.5610 C   0  0  0  0  0  0  0  0  0  0  0  0
  -18.3990  -10.0094  132.8142 C   0  0  0  0  0  0  0  0  0  0  0  0
  -20.6385   -7.6334  131.3676 C   0  0  0  0  0  0  0  0  0  0  0  0
  -18.6366   -9.2457  131.4964 C   0  0  0  0  0  0  0  0  0  0  0  0
  -18.7920   -7.2388  133.1040 C   0  0  0  0  0  0  0  0  0  0  0  0
  -19.2120   -3.8164  137.4719 C   0  0  0  0  0  0  0  0  0  0  0  0
  2  1  1  0
  3  2  1  0
  5  4  1  0
  7  2  1  0
  7  3  1  0
  8  3  1  0
  8  4  1  0
  8  6  1  0
  8  7  1  0
  9  5  1  0
 11  5  1  0
 12  3  1  0
 12  4  1  0
 12  7  1  0
 12 11  1  0
 15 14  1  0
 16  9  1  0
 17 13  1  0
 17 14  1  0
 18 13  1  0
 18 16  1  0
 19  5  1  0
 19 10  1  0
 19 13  1  0
 20  2  1  0
M  END
$$$$

     RDKit          3D

 21 23  0  0  0  0  0  0  0  0999 V2000
  -22.5244   -3.2305  138.0069 N   0  0  0  0  0  0  0  0  0  0  0  0
  -21.7375   -3.7506  136.8567 C   0  0  0  0  0  0  0  0  0  0  0  0
  -21.7102   -2.8306  139.2078 C   0  0  0  0  0  0  0  0  0  0  0  0
  -20.6384   -1.8543  138.8855 N   0  0  0  0  0  0  0  0  0  0  0  0
  -19.3884   -2.5907  138.6888 C   0  0  0  0  0  0  0  0  0  0  0  0
  -22.7448   -1.9575  140.4034 Cl  0  0  0  0  0  0  0  0  0  0  0  0
  -23.7236   -4.0569  138.3579 C   0  0  0  0  0  0  0  0  0  0  0  0
  -21.8295   -6.0491  139.4365 Sb  0  0  0  0  0  3  0  0  0  0  0  0
  -23.4780   -5.4962  138.2634 N   0  0  0  0  0  0  0  0  0  0  0  0
  -19.5412   -3.8525  139.5252 C   0  0  0  0  0  0  0  0  0  0  0  0
  -20.9569   -1.0385  137.7788 N   0  0  0  0  0  0  0  0  0  0  0  0
  -21.0146   -4.0413  139.8991 C   0  0  0  0  0  0  0  0  0  0  0  0
  -18.4969   -4.9552  139.3622 C   0  0  0  0  0  0  0  0  0  0  0  0
  -24.8313   -3.9755  136.1243 N   0  0  0  0  0  0  0  0  0  0  0  0
  -25.2450   -2.1617  137.7460 C   0  0  0  0  0  0  0  0  0  0  0  0
  -18.5508   -4.7993  141.9609 C   0  0  0  0  0  0  0  0  0  0  0  0
  -19.2597   -6.7344  143.4367 C   0  0  0  0  0  0  0  0  0  0  0  0
  -26.4074   -1.6212  137.3156 C   0  0  0  0  0  0  0  0  0  0  0  0
  -24.9739   -3.6377  137.5475 C   0  0  0  0  0  0  0  0  0  0  0  0
  -18.4486   -4.0560  140.5960 C   0  0  0  0  0  0  0  0  0  0  0  0
  -19.5838   -5.9213  142.1855 C   0  0  0  0  0  0  0  0  0  0  0  0
  2  1  1  0
  3  1  1  0
  4  3  1  0
  5  4  1  0
  6  3  1  0
  7  1  1  0
  9  7  1  0
  9  8  1  0
 10  5  1  0
 11  4  1  0
 12  3  1  0
 12  8  1  0
 12 10  1  0
 13 10  1  0
 18 15  2  0
 19  7  1  0
 19 14  1  0
 19 15  1  0
 20 10  1  0
 20 13  1  0
 20 16  1  0
 21 16  1  0
 21 17  1  0
M  END
$$$$

     RDKit          3D

 20 24  0  0  0  0  0  0  0  0999 V2000
  -28.5876  -13.6389  143.3714 C   0  0  0  0  0  0  0  0  0  0  0  0
  -29.1567  -12.4092  143.7025 O   0  0  0  0  0  0  0  0  0  0  0  0
  -28.6306  -14.0281  142.1759 O   0  0  0  0  0  0  0  0  0  0  0  0
  -27.9528  -14.5354  144.4061 C   0  0  0  0  0  0  0  0  0  0  0  0
  -27.0588  -13.8312  145.2346 O   0  0  0  0  0  0  0  0  0  0  0  0
  -28.9656  -15.3465  145.1859 C   0  0  0  0  0  0  0  0  0  0  0  0
  -28.4299  -16.7041  145.7004 C   0  0  0  0  0  0  0  0  0  0  0  0
  -28.9382  -17.9939  145.0486 C   0  0  0  0  0  0  0  0  0  0  0  0
  -28.2789  -14.1685  145.8512 C   0  0  0  0  0  0  0  0  0  0  0  0
  -30.0131  -17.9120  143.9438 C   0  0  0  0  0  0  0  0  0  0  0  0
  -30.2797  -16.7601  147.4301 C   0  0  0  0  0  0  0  0  0  0  0  0
  -30.8518  -18.0482  146.8794 C   0  0  0  0  0  0  0  0  0  0  0  0
  -29.4132  -18.3479  146.4664 C   0  0  0  0  0  0  0  0  0  0  0  0
  -28.8933  -17.1013  147.0517 N   0  0  0  0  0  0  0  0  0  0  0  0
  -29.3731  -17.6528  142.5811 C   0  0  0  0  0  0  0  0  0  0  0  0
  -30.6323  -17.4978  141.3308 Cl  0  0  0  0  0  0  0  0  0  0  0  0
  -29.0160  -11.8447  144.9975 C   0  0  0  0  0  0  0  0  0  0  0  0
  -30.0054  -10.7236  145.1810 C   0  0  0  0  0  0  0  0  0  0  0  0
  -29.1942  -12.9343  146.0646 C   0  0  0  0  0  0  0  0  0  0  0  0
  -31.3138  -10.8837  144.9554 C   0  0  0  0  0  0  0  0  0  0  0  0
  2  1  1  0
  3  1  2  0
  4  1  1  0
  5  4  1  0
  6  4  1  0
  7  6  1  0
  8  7  1  0
  9  4  1  0
  9  5  1  0
  9  6  1  0
 10  8  1  0
 12 11  1  0
 13  8  1  0
 13 12  1  0
 14  7  1  0
 14 11  1  0
 14 13  1  0
 15 10  1  0
 16 15  1  0
 17  2  1  0
 18 17  1  0
 19  9  1  0
 19 17  1  0
 20 18  2  0
M  END
$$$$

     RDKit          3D

 21 27  0  0  0  0  0  0  0  0999 V2000
  -19.3099    0.7387  144.3554 O   0  0  0  0  0  0  0  0  0  0  0  0
  -19.9885    0.2184  145.4426 C   0  0  0  0  0  0  0  0  0  0  0  0
  -21.2343   -0.5840  144.9838 C   0  0  0  0  0  0  0  0  0  0  0  0
  -23.1507   -0.1609  143.3215 C   0  0  0  0  0  0  0  0  0  0  0  0
  -22.3011    0.4176  144.4592 C   0  0  0  0  0  0  0  0  0  0  0  0
  -21.7426   -1.5315  146.1379 C   0  0  0  0  0  0  0  0  0  0  0  0
  -21.6061   -3.0200  145.8548 C   0  0  0  0  0  0  0  0  0  0  0  0
  -23.1982   -3.6914  144.7505 C   0  0  0  0  0  0  0  0  0  0  0  0
  -21.8308   -3.4018  144.4981 O   0  0  0  0  0  0  0  0  0  0  0  0
  -18.0951    0.0676  144.6242 C   0  0  0  0  0  0  0  0  0  0  0  0
  -23.0349   -3.2911  146.1866 C   0  0  0  0  0  0  0  0  0  0  0  0
  -25.4642   -2.9575  147.1527 C   0  0  0  0  0  0  0  0  0  0  0  0
  -26.3724   -1.6602  146.2280 S   0  0  0  0  0  0  0  0  0  0  0  0
  -23.3445   -3.1105  148.7025 C   0  0  0  0  0  0  0  0  0  0  0  0
  -25.8386   -4.3441  146.6165 C   0  0  0  0  0  0  0  0  0  0  0  0
  -23.2513   -1.7366  146.3371 C   0  0  0  0  0  0  0  0  0  0  0  0
  -22.2174   -2.2519  149.2684 C   0  0  0  0  0  0  0  0  0  0  0  0
  -17.9282   -1.3271  145.0498 C   0  0  0  0  0  0  0  0  0  0  0  0
  -23.9147   -2.7223  147.3028 C   0  0  0  0  0  0  0  0  0  0  0  0
  -17.5091   -0.0373  145.9544 C   0  0  0  0  0  0  0  0  0  0  0  0
  -18.8364   -0.6135  145.9260 C   0  0  0  0  0  0  0  0  0  0  0  0
  2  1  1  0
  3  2  1  0
  5  3  1  0
  5  4  1  0
  6  3  1  0
  7  6  1  0
  9  7  1  0
  9  8  1  0
 10  1  1  0
 11  7  1  0
 11  8  1  0
 13 12  1  0
 15 12  1  0
 16  6  1  0
 16 11  1  0
 17 14  1  0
 18 10  1  0
 19 11  1  0
 19 12  1  0
 19 14  1  0
 19 16  1  0
 20 10  1  0
 20 18  1  0
 21  2  1  0
 21 10  1  0
 21 18  1  0
 21 20  1  0
M  END
$$$$

     RDKit          3D

 21 24  0  0  0  0  0  0  0  0999 V2000
  -24.2268  -15.0821  139.0865 O   0  0  0  0  0  0  0  0  0  0  0  0
  -24.8463  -14.6365  140.0605 C   0  0  0  0  0  0  0  0  0  0  0  0
  -24.8029  -13.7403  142.2204 O   0  0  0  0  0  0  0  0  0  0  0  0
  -27.0072  -14.0278  141.0464 C   0  0  0  0  0  0  0  0  0  0  0  0
  -27.6903  -14.7179  142.2896 C   0  0  0  0  0  0  0  0  0  0  0  0
  -29.0344  -14.0551  142.6611 C   0  0  0  0  0  0  0  0  0  0  0  0
  -28.8119  -12.5601  142.8494 C   0  0  0  0  0  0  0  0  0  0  0  0
  -28.5905  -12.0844  144.2833 C   0  0  0  0  0  0  0  0  0  0  0  0
  -27.7250  -10.8415  144.4119 C   0  0  0  0  0  0  0  0  0  0  0  0
  -28.0559   -9.8077  145.1911 C   0  0  0  0  0  0  0  0  0  0  0  0
  -28.1229  -11.8600  141.7137 C   0  0  0  0  0  0  0  0  0  0  0  0
  -25.5028  -14.1657  141.0914 C   0  0  0  0  0  0  0  0  0  0  0  0
  -27.3028  -12.5412  140.9029 C   0  0  0  0  0  0  0  0  0  0  0  0
  -29.3214   -9.7818  145.9381 C   0  0  0  0  0  0  0  0  0  0  0  0
  -27.8381  -16.2812  142.2186 C   0  0  0  0  0  0  0  0  0  0  0  0
  -29.9259  -11.7988  143.5453 C   0  0  0  0  0  0  0  0  0  0  0  0
  -29.0647  -16.8438  141.4447 C   0  0  0  0  0  0  0  0  0  0  0  0
  -29.1431  -16.4836  139.9609 C   0  0  0  0  0  0  0  0  0  0  0  0
  -26.5427  -17.0076  141.8264 C   0  0  0  0  0  0  0  0  0  0  0  0
  -30.1877  -10.7941  145.8695 C   0  0  0  0  0  0  0  0  0  0  0  0
  -29.9119  -12.0273  145.0497 C   0  0  0  0  0  0  0  0  0  0  0  0
  2  1  2  0
  5  4  1  0
  6  5  1  0
  7  6  1  0
  8  7  1  0
  9  8  1  0
 10  9  2  0
 11  7  1  0
 12  2  2  0
 12  3  1  0
 12  4  1  0
 13  4  1  0
 13 11  2  0
 14 10  1  0
 15  5  1  0
 16  7  1  0
 16  8  1  0
 17 15  1  0
 18 17  1  0
 19 15  1  0
 20 14  2  0
 21  8  1  0
 21 16  1  0
 21 20  1  0
M  END
$$$$

     RDKit          3D

 21 22  0  0  0  0  0  0  0  0999 V2000
  -24.5235  -12.2049  146.8031 O   0  0  0  0  0  0  0  0  0  0  0  0
  -23.9131  -11.4174  145.8008 C   0  0  0  0  0  0  0  0  0  0  0  0
  -21.6122  -11.8550  146.0675 O   0  0  0  0  0  0  0  0  0  0  0  0
  -23.0775   -9.8060  148.3598 C   0  0  0  0  0  0  0  0  0  0  0  0
  -22.7444   -8.6556  149.1055 O   0  0  0  0  0  0  0  0  0  0  0  0
  -22.2795   -9.8096  147.0513 C   0  0  0  0  0  0  0  0  0  0  0  0
  -22.5294  -11.0732  146.2678 C   0  0  0  0  0  0  0  0  0  0  0  0
  -25.9099  -12.4833  146.6103 C   0  0  0  0  0  0  0  0  0  0  0  0
  -26.0891  -13.4954  145.4459 C   0  0  0  0  0  0  0  0  0  0  0  0
  -26.3621  -13.2131  147.9140 C   0  0  0  0  0  0  0  0  0  0  0  0
  -26.7774  -11.1670  146.4521 C   0  0  0  0  0  0  0  0  0  0  0  0
  -23.5862   -8.5764  150.2354 C   0  0  0  0  0  0  0  0  0  0  0  0
  -25.9260  -12.5090  149.2149 C   0  0  0  0  0  0  0  0  0  0  0  0
  -26.7405  -13.0461  150.3997 C   0  0  0  0  0  0  0  0  0  0  0  0
  -26.6478  -12.2279  151.6824 C   0  0  0  0  0  0  0  0  0  0  0  0
  -27.9023  -12.1535  150.8196 C   0  0  0  0  0  0  0  0  0  0  0  0
  -28.3416  -10.7417  145.0767 O   0  0  0  0  0  0  0  0  0  0  0  0
  -28.2846  -11.3403  146.3480 C   0  0  0  0  0  0  0  0  0  0  0  0
  -30.0890  -13.1995  150.2140 C   0  0  0  0  0  0  0  0  0  0  0  0
  -26.9499  -10.5459  145.0742 C   0  0  0  0  0  0  0  0  0  0  0  0
  -29.1253  -12.8992  151.3557 C   0  0  0  0  0  0  0  0  0  0  0  0
  2  1  1  0
  5  4  1  0
  6  4  1  0
  7  2  1  0
  7  3  2  0
  7  6  1  0
  8  1  1  0
  9  8  1  0
 10  8  1  0
 11  8  1  0
 12  5  1  0
 13 10  1  0
 14 13  1  0
 15 14  1  0
 16 14  1  0
 16 15  1  0
 18 11  1  0
 18 17  1  0
 20 11  1  0
 20 17  1  0
 21 16  1  0
 21 19  1  0
M  END
$$$$

     RDKit          3D

 10 10  0  0  0  0  0  0  0  0999 V2000
  -23.9021    8.0374  147.3831 P   0  0  0  0  0  0  0  0  0  0  0  0
  -24.1263    9.0324  148.7873 O   0  0  0  0  0  0  0  0  0  0  0  0
  -23.5694    6.5683  148.3055 O   0  0  0  0  0  0  0  0  0  0  0  0
  -24.8043    5.9816  148.2224 N   0  0  0  0  0  0  0  0  0  0  0  0
  -25.4535    7.0828  147.5422 C   0  0  0  0  0  0  0  0  0  0  0  0
  -24.9431    4.2552  149.9978 C   0  0  0  0  0  0  0  0  0  0  0  0
  -23.4335    4.0538  150.1408 C   0  0  0  0  0  0  0  0  0  0  0  0
  -25.0273    6.7255  150.6514 C   0  0  0  0  0  0  0  0  0  0  0  0
  -25.9063    6.6665  146.2870 O   0  0  0  0  0  0  0  0  0  0  0  0
  -25.3570    5.6784  149.5655 C   0  0  0  0  0  0  0  0  0  0  0  0
  2  1  1  0
  3  1  1  0
  4  3  1  0
  5  1  1  0
  5  4  1  0
  7  6  1  0
  9  5  1  0
 10  4  1  0
 10  6  1  0
 10  8  1  0
M  END
$$$$

     RDKit          3D

 11 12  0  0  0  0  0  0  0  0999 V2000
  -24.2435  -14.8442  140.7882 C   0  0  0  0  0  0  0  0  0  0  0  0
  -25.5633  -15.5986  140.8839 C   0  0  0  0  0  0  0  0  0  0  0  0
  -23.2465  -15.4504  139.7962 C   0  0  0  0  0  0  0  0  0  0  0  0
  -26.7847  -14.7356  141.2237 C   0  0  0  0  0  0  0  0  0  0  0  0
  -24.5312  -15.7258  141.9978 C   0  0  0  0  0  0  0  0  0  0  0  0
  -22.9633  -14.5765  138.5857 C   0  0  0  0  0  0  0  0  0  0  0  0
  -21.9285  -14.7010  139.6922 C   0  0  0  0  0  0  0  0  0  0  0  0
  -27.7993  -15.5488  141.9049 N   0  0  0  0  0  0  0  0  0  0  0  0
  -28.6087  -16.4828  141.1729 C   0  0  0  0  0  0  0  0  0  0  0  0
  -28.4775  -16.6157  139.9269 O   0  0  0  0  0  0  0  0  0  0  0  0
  -28.0129  -15.4234  143.3470 C   0  0  0  0  0  0  0  0  0  0  0  0
  2  1  1  0
  3  1  1  0
  4  2  1  0
  5  1  1  0
  5  2  1  0
  6  3  1  0
  7  3  1  0
  7  6  1  0
  8  4  1  0
  9  8  1  0
 10  9  2  0
 11  8  1  0
M  END
$$$$

     RDKit          3D

 20 22  0  0  0  0  0  0  0  0999 V2000
  -26.2848  -14.0853  148.4666 O   0  0  0  0  0  0  0  0  0  0  0  0
  -26.4206  -11.9144  149.4767 C   0  0  0  0  0  0  0  0  0  0  0  0
  -27.2792  -11.0215  150.1501 O   0  0  0  0  0  0  0  0  0  0  0  0
  -27.6923  -12.3338  147.4570 C   0  0  0  0  0  0  0  0  0  0  0  0
  -26.7845  -10.6118  148.8956 C   0  0  0  0  0  0  0  0  0  0  0  0
  -27.1721  -13.0084  148.7328 C   0  0  0  0  0  0  0  0  0  0  0  0
  -30.9734  -15.2576  149.8457 N   0  0  0  0  0  0  0  0  0  0  0  0
  -27.7730  -10.8455  147.7696 C   0  0  0  0  0  0  0  0  0  0  0  0
  -29.8946  -15.9136  151.8187 O   0  0  0  0  0  0  0  0  0  0  0  0
  -29.2907  -17.1927  149.8754 C   0  0  0  0  0  0  0  0  0  0  0  0
  -31.4794  -17.2211  148.4633 C   0  0  0  0  0  0  0  0  0  0  0  0
  -30.0699  -17.7950  148.6626 C   0  0  0  0  0  0  0  0  0  0  0  0
  -31.3002  -13.9119  150.3276 C   0  0  0  0  0  0  0  0  0  0  0  0
  -31.4538  -15.6932  148.5323 C   0  0  0  0  0  0  0  0  0  0  0  0
  -27.9040  -16.6618  149.4226 C   0  0  0  0  0  0  0  0  0  0  0  0
  -28.1144  -15.5536  148.5614 O   0  0  0  0  0  0  0  0  0  0  0  0
  -32.4690  -13.9656  151.3046 C   0  0  0  0  0  0  0  0  0  0  0  0
  -26.9457  -15.1783  147.8500 C   0  0  0  0  0  0  0  0  0  0  0  0
  -27.0275  -16.2733  150.6284 C   0  0  0  0  0  0  0  0  0  0  0  0
  -30.0689  -16.1002  150.5832 C   0  0  0  0  0  0  0  0  0  0  0  0
  3  2  1  0
  5  2  1  0
  5  3  1  0
  6  1  1  0
  6  2  1  0
  6  4  1  0
  8  4  1  0
  8  5  1  0
 12 10  1  0
 12 11  1  0
 13  7  1  0
 14  7  1  0
 14 11  1  0
 15 10  1  0
 16 15  1  0
 17 13  1  0
 18  1  1  0
 18 16  1  0
 19 15  1  0
 20  7  1  0
 20  9  2  0
 20 10  1  0
M  END
$$$$

     RDKit          3D

 21 24  0  0  0  0  0  0  0  0999 V2000
  -27.8549    2.0232  136.0678 O   0  0  0  0  0  0  0  0  0  0  0  0
  -26.6870    2.4955  136.1422 C   0  0  0  0  0  0  0  0  0  0  0  0
  -25.7681    2.2360  135.1209 O   0  0  0  0  0  0  0  0  0  0  0  0
  -26.3171    3.4066  137.2776 C   0  0  0  0  0  0  0  0  0  0  0  0
  -24.8148    3.3105  137.6323 C   0  0  0  0  0  0  0  0  0  0  0  0
  -24.5749    2.2493  138.7517 C   0  0  0  0  0  0  0  0  0  0  0  0
  -23.2103    1.5719  138.8296 C   0  0  0  0  0  0  0  0  0  0  0  0
  -24.4435    0.7525  138.4742 C   0  0  0  0  0  0  0  0  0  0  0  0
  -23.9407    3.2363  136.3884 C   0  0  0  0  0  0  0  0  0  0  0  0
  -22.6359    3.7646  136.4008 C   0  0  0  0  0  0  0  0  0  0  0  0
  -24.4459    2.6852  135.1913 C   0  0  0  0  0  0  0  0  0  0  0  0
  -24.4893    0.3439  137.0696 N   0  0  0  0  0  0  0  0  0  0  0  0
  -23.7444   -0.9077  136.8624 C   0  0  0  0  0  0  0  0  0  0  0  0
  -21.8334    3.6995  135.2548 C   0  0  0  0  0  0  0  0  0  0  0  0
  -22.3242    3.1084  134.0879 C   0  0  0  0  0  0  0  0  0  0  0  0
  -24.5689   -2.1371  137.3146 C   0  0  0  0  0  0  0  0  0  0  0  0
  -24.0838   -3.5415  136.9480 C   0  0  0  0  0  0  0  0  0  0  0  0
  -22.7778   -3.6950  136.1511 C   0  0  0  0  0  0  0  0  0  0  0  0
  -23.6296    2.6018  134.0572 C   0  0  0  0  0  0  0  0  0  0  0  0
  -25.2499   -2.9170  136.1906 C   0  0  0  0  0  0  0  0  0  0  0  0
  -22.6623   -5.1115  135.5920 C   0  0  0  0  0  0  0  0  0  0  0  0
  2  1  2  0
  3  2  1  0
  4  2  1  0
  5  4  1  0
  6  5  1  0
  7  6  1  0
  8  6  1  0
  8  7  1  0
  9  5  1  0
 10  9  4  0
 11  3  1  0
 11  9  4  0
 12  8  1  0
 13 12  1  0
 14 10  4  0
 15 14  4  0
 16 13  1  0
 17 16  1  0
 18 17  1  0
 19 11  4  0
 19 15  4  0
 20 16  1  0
 20 17  1  0
 21 18  1  0
M  END
$$$$

     RDKit          3D

 21 24  0  0  0  0  0  0  0  0999 V2000
  -23.2138  -19.9078  139.9892 Mg  0  0  0  0  0  2  0  0  0  0  0  0
  -23.8343  -19.2418  141.6680 O   0  0  0  0  0  0  0  0  0  0  0  0
  -25.1768  -20.3583  137.9449 O   0  0  0  0  0  0  0  0  0  0  0  0
  -25.5651  -19.4028  138.9332 C   0  0  0  0  0  0  0  0  0  0  0  0
  -23.9323  -20.9954  138.3158 C   0  0  0  0  0  0  0  0  0  0  0  0
  -25.8083  -20.0905  140.3672 C   0  0  0  0  0  0  0  0  0  0  0  0
  -25.0055  -20.0161  141.6904 C   0  0  0  0  0  0  0  0  0  0  0  0
  -26.3509  -19.2763  141.5616 C   0  0  0  0  0  0  0  0  0  0  0  0
  -24.7872  -18.0471  138.6744 C   0  0  0  0  0  0  0  0  0  0  0  0
  -23.0216  -21.5359  137.1748 C   0  0  0  0  0  0  0  0  0  0  0  0
  -23.2917  -21.2773  135.8596 C   0  0  0  0  0  0  0  0  0  0  0  0
  -22.7431  -22.2419  134.8535 C   0  0  0  0  0  0  0  0  0  0  0  0
  -23.3535  -22.2306  133.4457 C   0  0  0  0  0  0  0  0  0  0  0  0
  -25.6805  -16.8698  139.0843 C   0  0  0  0  0  0  0  0  0  0  0  0
  -24.2952  -16.9596  139.6554 C   0  0  0  0  0  0  0  0  0  0  0  0
  -23.9160  -23.6655  133.7159 C   0  0  0  0  0  0  0  0  0  0  0  0
  -23.2991  -15.9555  139.0119 C   0  0  0  0  0  0  0  0  0  0  0  0
  -25.3834  -23.7452  133.6852 N   0  0  0  0  0  0  0  0  0  0  0  0
  -23.3002  -23.6634  135.1128 C   0  0  0  0  0  0  0  0  0  0  0  0
  -21.9454  -15.9218  139.7679 C   0  0  0  0  0  0  0  0  0  0  0  0
  -21.3162  -17.1603  139.6086 F   0  0  0  0  0  0  0  0  0  0  0  0
  2  1  1  0
  4  3  1  0
  5  1  1  0
  5  3  1  0
  6  4  1  0
  7  2  1  0
  7  6  1  0
  8  6  1  0
  8  7  1  0
  9  4  1  0
 10  5  1  0
 11 10  2  3
 12 11  1  0
 13 12  1  0
 14  9  1  0
 15  9  1  0
 15 14  1  0
 16 13  1  0
 17 15  1  0
 18 16  1  0
 19 12  1  0
 19 16  1  0
 20 17  1  0
 21 20  1  0
M  END
$$$$

     RDKit          3D

 20 25  0  0  0  0  0  0  0  0999 V2000
  -23.0526    0.1403  140.9674 C   0  0  0  0  0  0  0  0  0  0  0  0
  -23.7320   -0.2292  139.6050 C   0  0  0  0  0  0  0  0  0  0  0  0
  -23.6929    1.0155  138.6424 C   0  0  0  0  0  0  0  0  0  0  0  0
  -24.0426    0.7556  141.9102 N   0  0  0  0  0  0  0  0  0  0  0  0
  -23.4263   -0.5535  142.2005 C   0  0  0  0  0  0  0  0  0  0  0  0
  -22.6985   -2.6225  139.6076 C   0  0  0  0  0  0  0  0  0  0  0  0
  -23.1523   -1.4138  138.8927 N   0  0  0  0  0  0  0  0  0  0  0  0
  -25.2019   -3.2907  139.8120 C   0  0  0  0  0  0  0  0  0  0  0  0
  -23.7723   -3.4938  140.3014 C   0  0  0  0  0  0  0  0  0  0  0  0
  -25.4060    2.7321  137.6050 C   0  0  0  0  0  0  0  0  0  0  0  0
  -25.9280    0.1926  137.2544 C   0  0  0  0  0  0  0  0  0  0  0  0
  -25.4020   -0.7715  136.1658 C   0  0  0  0  0  0  0  0  0  0  0  0
  -26.0062   -0.5788  134.7430 C   0  0  0  0  0  0  0  0  0  0  0  0
  -25.6181   -1.2621  133.4697 C   0  0  0  0  0  0  0  0  0  0  0  0
  -24.9526    1.2593  137.7556 C   0  0  0  0  0  0  0  0  0  0  0  0
  -26.9228    0.4207  134.0816 C   0  0  0  0  0  0  0  0  0  0  0  0
  -24.7187    0.5848  136.4191 C   0  0  0  0  0  0  0  0  0  0  0  0
  -26.3825    1.1804  132.8871 C   0  0  0  0  0  0  0  0  0  0  0  0
  -26.7297   -1.4390  135.7140 C   0  0  0  0  0  0  0  0  0  0  0  0
  -26.5933   -0.3244  132.7461 C   0  0  0  0  0  0  0  0  0  0  0  0
  2  1  1  0
  3  2  1  0
  4  1  1  0
  5  1  1  0
  5  4  1  0
  7  2  1  0
  7  6  1  0
  9  6  1  0
  9  8  1  0
 12 11  1  0
 13 12  1  0
 14 13  1  0
 15  3  1  0
 15 10  1  0
 15 11  1  0
 16 13  1  0
 17 11  1  0
 17 12  1  0
 17 15  1  0
 18 16  1  0
 19 12  1  0
 19 13  1  0
 20 14  1  0
 20 16  1  0
 20 18  1  0
M  END
$$$$

     RDKit          3D

 21 26  0  0  0  0  0  0  0  0999 V2000
  -31.9892   -3.0520  141.4810 O   0  0  0  0  0  0  0  0  0  0  0  0
  -31.6609   -3.1065  140.1138 C   0  0  0  0  0  0  0  0  0  0  0  0
  -32.5467   -3.9315  139.3957 O   0  0  0  0  0  0  0  0  0  0  0  0
  -30.3232   -3.7741  140.3870 C   0  0  0  0  0  0  0  0  0  0  0  0
  -29.5172   -3.0970  141.4984 C   0  0  0  0  0  0  0  0  0  0  0  0
  -29.5081   -1.5626  141.2712 C   0  0  0  0  0  0  0  0  0  0  0  0
  -29.9678   -3.4307  142.9168 C   0  0  0  0  0  0  0  0  0  0  0  0
  -28.5441   -1.0091  140.2112 C   0  0  0  0  0  0  0  0  0  0  0  0
  -27.6369   -1.9801  139.4221 C   0  0  0  0  0  0  0  0  0  0  0  0
  -28.2835   -2.3832  138.1285 C   0  0  0  0  0  0  0  0  0  0  0  0
  -30.5015   -2.3384  143.7359 N   0  0  0  0  0  0  0  0  0  0  0  0
  -28.5598   -1.5334  137.1254 C   0  0  0  0  0  0  0  0  0  0  0  0
  -28.2257   -0.0502  137.1166 C   0  0  0  0  0  0  0  0  0  0  0  0
  -28.2048   -0.8870  141.6945 C   0  0  0  0  0  0  0  0  0  0  0  0
  -28.1024    0.7663  138.4272 C   0  0  0  0  0  0  0  0  0  0  0  0
  -29.6385   -1.6529  144.6483 C   0  0  0  0  0  0  0  0  0  0  0  0
  -29.0586    0.2720  139.5181 C   0  0  0  0  0  0  0  0  0  0  0  0
  -26.9100    0.3562  135.8889 S   0  0  0  0  0  0  0  0  0  0  0  0
  -28.7225    0.6927  135.9401 C   0  0  0  0  0  0  0  0  0  0  0  0
  -30.8666   -3.8491  141.7762 C   0  0  0  0  0  0  0  0  0  0  0  0
  -30.0936   -0.6598  145.4062 C   0  0  0  0  0  0  0  0  0  0  0  0
  2  1  1  0
  3  2  1  0
  4  2  1  0
  5  4  1  0
  6  5  1  0
  7  5  1  0
  8  6  1  0
  9  8  1  0
 10  9  1  0
 11  7  1  0
 12 10  2  0
 13 12  1  0
 14  6  1  0
 14  8  1  0
 15 13  1  0
 16 11  1  0
 17  8  1  0
 17 15  1  0
 18 13  1  0
 19 13  1  0
 19 18  1  0
 20  1  1  0
 20  4  1  0
 20  5  1  0
 20  7  1  0
 21 16  2  0
M  END
$$$$

     RDKit          3D

 19 24  0  0  0  0  0  0  0  0999 V2000
  -22.1471  -11.9015  144.6125 As  0  0  0  0  0  3  0  0  0  0  0  0
  -21.1967  -13.6456  143.1585 C   0  0  0  0  0  0  0  0  0  0  0  0
  -20.0704  -14.1493  142.3030 C   0  0  0  0  0  0  0  0  0  0  0  0
  -20.8140  -13.1776  144.4025 O   0  0  0  0  0  0  0  0  0  0  0  0
  -21.0620  -15.1189  142.8960 C   0  0  0  0  0  0  0  0  0  0  0  0
  -23.2269  -13.2463  143.5092 C   0  0  0  0  0  0  0  0  0  0  0  0
  -25.2750  -11.3374  145.9546 N   0  0  0  0  0  0  0  0  0  0  0  0
  -22.4107  -14.5347  143.4040 C   0  0  0  0  0  0  0  0  0  0  0  0
  -25.5204  -11.9397  147.2311 C   0  0  0  0  0  0  0  0  0  0  0  0
  -20.2629  -13.9409  140.8056 C   0  0  0  0  0  0  0  0  0  0  0  0
  -26.5618  -12.6808  147.4627 N   0  0  0  0  0  0  0  0  0  0  0  0
  -27.6691  -12.9390  146.5289 C   0  0  0  0  0  0  0  0  0  0  0  0
  -25.1370  -12.1395  144.7340 C   0  0  0  0  0  0  0  0  0  0  0  0
  -25.0776   -9.9966  145.8979 O   0  0  0  0  0  0  0  0  0  0  0  0
  -23.8460  -12.9700  144.8038 C   0  0  0  0  0  0  0  0  0  0  0  0
  -27.5471  -12.4834  145.1306 N   0  0  0  0  0  0  0  0  0  0  0  0
  -28.9840  -12.6078  147.1153 N   0  0  0  0  0  0  0  0  0  0  0  0
  -28.6028  -14.0150  146.8623 C   0  0  0  0  0  0  0  0  0  0  0  0
  -26.3503  -13.0687  144.5203 C   0  0  0  0  0  0  0  0  0  0  0  0
  3  2  1  0
  4  1  1  0
  4  2  1  0
  5  2  1  0
  5  3  1  0
  6  1  1  0
  8  2  1  0
  8  5  1  0
  8  6  1  0
  9  7  1  0
 10  3  1  0
 11  9  2  0
 12 11  1  0
 13  7  1  0
 14  7  1  0
 15  1  1  0
 15  6  1  0
 15 13  1  0
 16 12  1  0
 17 12  1  0
 18 12  1  0
 18 17  1  0
 19 13  1  0
 19 16  1  0
M  END
$$$$

     RDKit          3D

 21 24  0  0  0  0  0  0  0  0999 V2000
  -21.1736    4.2115  137.6472 C   0  0  0  0  0  0  0  0  0  0  0  0
  -19.7621    3.4783  137.6122 C   0  0  0  0  0  0  0  0  0  0  0  0
  -21.7756    4.9030  136.4447 C   0  0  0  0  0  0  0  0  0  0  0  0
  -22.7142    2.5130  135.4293 C   0  0  0  0  0  0  0  0  0  0  0  0
  -19.6322    1.1468  136.5901 C   0  0  0  0  0  0  0  0  0  0  0  0
  -19.3715    2.6494  136.3963 C   0  0  0  0  0  0  0  0  0  0  0  0
  -22.7463    2.8277  133.8474 C   0  0  0  0  0  0  0  0  0  0  0  0
  -21.5598    3.5605  133.1769 C   0  0  0  0  0  0  0  0  0  0  0  0
  -24.2299    3.3321  133.5868 C   0  0  0  0  0  0  0  0  0  0  0  0
  -20.7196    2.6811  132.2167 C   0  0  0  0  0  0  0  0  0  0  0  0
  -25.1619    2.1451  133.7259 C   0  0  0  0  0  0  0  0  0  0  0  0
  -24.5638    4.5217  134.5854 C   0  0  0  0  0  0  0  0  0  0  0  0
  -24.2505    4.2726  136.1074 C   0  0  0  0  0  0  0  0  0  0  0  0
  -23.0278    1.1906  131.2945 C   0  0  0  0  0  0  0  0  0  0  0  0
  -25.0496    0.8802  133.1131 C   0  0  0  0  0  0  0  0  0  0  0  0
  -23.9413    0.2779  132.2295 C   0  0  0  0  0  0  0  0  0  0  0  0
  -22.8180    3.7631  136.2991 C   0  0  0  0  0  0  0  0  0  0  0  0
  -22.2068    1.4842  134.4247 C   0  0  0  0  0  0  0  0  0  0  0  0
  -21.2254    0.9615  131.7180 S   0  0  0  0  0  0  0  0  0  0  0  0
  -22.4697    3.3510  137.7399 C   0  0  0  0  0  0  0  0  0  0  0  0
  -24.6005    3.9527  132.1757 C   0  0  0  0  0  0  0  0  0  0  0  0
  2  1  1  0
  3  1  1  0
  6  2  1  0
  6  5  1  0
  7  4  1  0
  8  7  1  0
  9  7  1  0
 10  8  1  0
 11  9  1  0
 12  9  1  0
 13 12  1  0
 15 11  2  3
 16 14  1  0
 16 15  1  0
 17  3  1  0
 17  4  1  0
 17 13  1  0
 18  4  1  0
 18  7  1  0
 19 10  1  0
 19 14  1  0
 20  1  1  0
 20 17  1  0
 21  9  1  0
M  END
$$$$

     RDKit          3D

 11 13  0  0  0  0  0  0  0  0999 V2000
  -19.5246    2.4506  134.9749 S   0  0  0  0  0  0  0  0  0  0  0  0
  -18.1720    5.7637  135.1133 C   0  0  0  0  0  0  0  0  0  0  0  0
  -16.9573    4.8624  135.0313 C   0  0  0  0  0  0  0  0  0  0  0  0
  -19.5571    5.2544  134.7240 C   0  0  0  0  0  0  0  0  0  0  0  0
  -16.8258    3.9200  133.8200 C   0  0  0  0  0  0  0  0  0  0  0  0
  -18.0178    4.5543  136.0800 C   0  0  0  0  0  0  0  0  0  0  0  0
  -14.3826    4.4121  133.3290 C   0  0  0  0  0  0  0  0  0  0  0  0
  -19.4327    4.1167  135.7111 C   0  0  0  0  0  0  0  0  0  0  0  0
  -15.8232    4.4644  132.7968 C   0  0  0  0  0  0  0  0  0  0  0  0
  -13.7856    5.7315  133.7979 C   0  0  0  0  0  0  0  0  0  0  0  0
  -13.3734    5.1456  132.4578 C   0  0  0  0  0  0  0  0  0  0  0  0
  3  2  1  0
  4  2  1  0
  5  3  1  0
  6  2  1  0
  6  3  1  0
  8  1  1  0
  8  4  1  0
  8  6  1  0
  9  5  1  0
  9  7  1  0
 10  7  1  0
 11  7  1  0
 11 10  1  0
M  END
$$$$

     RDKit          3D

 21 22  0  0  0  0  0  0  0  0999 V2000
  -31.8108   -1.8759  140.3850 O   0  0  0  0  0  0  0  0  0  0  0  0
  -30.8614   -2.9091  140.4097 C   0  0  0  0  0  0  0  0  0  0  0  0
  -31.3032   -4.0498  139.4855 C   0  0  0  0  0  0  0  0  0  0  0  0
  -30.2355   -5.1728  139.3764 C   0  0  0  0  0  0  0  0  0  0  0  0
  -29.5122   -2.3608  139.9427 C   0  0  0  0  0  0  0  0  0  0  0  0
  -30.6608   -6.2790  138.3339 C   0  0  0  0  0  0  0  0  0  0  0  0
  -28.8585   -4.5085  139.0045 C   0  0  0  0  0  0  0  0  0  0  0  0
  -30.0394   -7.6446  138.6321 C   0  0  0  0  0  0  0  0  0  0  0  0
  -28.4997   -3.4200  139.9364 N   0  0  0  0  0  0  0  0  0  0  0  0
  -30.3489   -8.3885  139.9230 C   0  0  0  0  0  0  0  0  0  0  0  0
  -29.2129   -8.3968  140.9628 C   0  0  0  0  0  0  0  0  0  0  0  0
  -27.8302   -8.6451  140.3784 C   0  0  0  0  0  0  0  0  0  0  0  0
  -27.4241  -10.0833  140.1026 C   0  0  0  0  0  0  0  0  0  0  0  0
  -26.4856  -10.6968  141.1697 C   0  0  0  0  0  0  0  0  0  0  0  0
  -27.1241  -10.7120  142.5646 C   0  0  0  0  0  0  0  0  0  0  0  0
  -25.1090  -10.0207  141.2103 C   0  0  0  0  0  0  0  0  0  0  0  0
  -26.9896   -7.6445  140.0138 C   0  0  0  0  0  0  0  0  0  0  0  0
  -27.2420   -6.1671  140.1992 C   0  0  0  0  0  0  0  0  0  0  0  0
  -27.6628   -5.4841  138.8799 C   0  0  0  0  0  0  0  0  0  0  0  0
  -29.4098   -8.3089  137.6446 C   0  0  0  0  0  0  0  0  0  0  0  0
  -32.1833   -6.4743  138.1702 C   0  0  0  0  0  0  0  0  0  0  0  0
  2  1  1  0
  3  2  1  0
  4  3  1  0
  5  2  1  0
  6  4  1  0
  7  4  1  0
  8  6  1  0
  9  5  1  0
  9  7  1  0
 10  8  1  0
 11 10  1  0
 12 11  1  0
 13 12  1  0
 14 13  1  0
 15 14  1  0
 16 14  1  0
 17 12  2  3
 18 17  1  0
 19  7  1  0
 19 18  1  0
 20  8  2  0
 21  6  1  0
M  END
$$$$

     RDKit          3D

 21 21  0  0  0  0  0  0  0  0999 V2000
  -27.7768   -4.6852  145.8954 O   0  0  0  0  0  0  0  0  0  0  0  0
  -27.1124   -4.9458  143.4333 C   0  0  0  0  0  0  0  0  0  0  0  0
  -25.6662   -4.3764  143.1055 C   0  0  0  0  0  0  0  0  0  0  0  0
  -24.9267   -4.4084  141.7517 C   0  0  0  0  0  0  0  0  0  0  0  0
  -25.4193   -3.2331  140.8125 C   0  0  0  0  0  0  0  0  0  0  0  0
  -26.0620   -5.4232  137.6461 C   0  0  0  0  0  0  0  0  0  0  0  0
  -28.4082   -6.1058  138.4596 C   0  0  0  0  0  0  0  0  0  0  0  0
  -24.6392   -5.1571  143.9454 C   0  0  0  0  0  0  0  0  0  0  0  0
  -25.2712   -4.4774  138.5773 C   0  0  0  0  0  0  0  0  0  0  0  0
  -26.9158   -6.4704  138.4099 C   0  0  0  0  0  0  0  0  0  0  0  0
  -28.2299   -5.3487  142.4233 C   0  0  0  0  0  0  0  0  0  0  0  0
  -23.3563   -4.4759  143.6930 C   0  0  0  0  0  0  0  0  0  0  0  0
  -26.1881   -3.7240  139.5600 C   0  0  0  0  0  0  0  0  0  0  0  0
  -26.8578   -2.4900  138.8505 C   0  0  0  0  0  0  0  0  0  0  0  0
  -29.4555   -6.1071  143.0331 C   0  0  0  0  0  0  0  0  0  0  0  0
  -23.3862   -4.2686  142.2024 C   0  0  0  0  0  0  0  0  0  0  0  0
  -27.4404   -4.8334  144.6955 C   0  0  0  0  0  0  0  0  0  0  0  0
  -30.3905   -5.4405  143.8028 C   0  0  0  0  0  0  0  0  0  0  0  0
  -31.3832   -6.1427  144.7085 C   0  0  0  0  0  0  0  0  0  0  0  0
  -32.4051   -5.2122  145.3732 C   0  0  0  0  0  0  0  0  0  0  0  0
  -33.6448   -5.6505  145.7517 C   0  0  0  0  0  0  0  0  0  0  0  0
  3  2  1  0
  4  3  1  0
  5  4  1  0
  8  3  1  0
  9  6  1  0
 10  6  1  0
 10  7  1  0
 11  2  1  0
 12  8  1  0
 13  5  1  0
 13  9  1  0
 14 13  1  0
 15 11  1  0
 16  4  1  0
 16 12  1  0
 17  1  2  0
 17  2  2  0
 18 15  2  3
 19 18  1  0
 20 19  1  0
 21 20  2  0
M  END
$$$$

     RDKit          3D

 11 12  0  0  0  0  0  0  0  0999 V2000
  -23.7486  -22.3164  134.6621 O   0  0  0  0  0  0  0  0  0  0  0  0
  -22.8566  -21.6150  135.4775 C   0  0  0  0  0  0  0  0  0  0  0  0
  -23.5425  -20.8093  136.4088 O   0  0  0  0  0  0  0  0  0  0  0  0
  -21.7109  -21.6654  137.7705 C   0  0  0  0  0  0  0  0  0  0  0  0
  -22.1331  -21.0070  139.0912 C   0  0  0  0  0  0  0  0  0  0  0  0
  -20.9632  -20.8402  140.0717 C   0  0  0  0  0  0  0  0  0  0  0  0
  -22.9378  -21.9812  136.9095 C   0  0  0  0  0  0  0  0  0  0  0  0
  -19.9146  -19.8397  139.5571 C   0  0  0  0  0  0  0  0  0  0  0  0
  -19.2291  -19.0044  140.6341 C   0  0  0  0  0  0  0  0  0  0  0  0
  -17.7860  -18.6039  140.3257 C   0  0  0  0  0  0  0  0  0  0  0  0
  -20.2829  -18.3688  139.7332 C   0  0  0  0  0  0  0  0  0  0  0  0
  2  1  1  0
  3  2  1  0
  5  4  1  0
  6  5  1  0
  7  2  1  0
  7  3  1  0
  7  4  1  0
  8  6  1  0
  9  8  1  0
 10  9  1  0
 11  8  1  0
 11  9  1  0
M  END
$$$$

     RDKit          3D

 21 24  0  0  0  0  0  0  0  0999 V2000
  -18.2855  -17.7488  140.7944 O   0  0  0  0  0  0  0  0  0  0  0  0
  -18.8943  -17.1224  139.6867 C   0  0  0  0  0  0  0  0  0  0  0  0
  -20.3455  -16.7732  140.0352 C   0  0  0  0  0  0  0  0  0  0  0  0
  -21.0156  -19.0098  141.1475 C   0  0  0  0  0  0  0  0  0  0  0  0
  -17.0443  -18.2928  140.4076 C   0  0  0  0  0  0  0  0  0  0  0  0
  -21.2904  -17.9922  140.0185 C   0  0  0  0  0  0  0  0  0  0  0  0
  -20.2682  -20.2525  140.6311 C   0  0  0  0  0  0  0  0  0  0  0  0
  -19.7937  -21.1746  141.7716 C   0  0  0  0  0  0  0  0  0  0  0  0
  -22.1926  -22.1079  142.4329 C   0  0  0  0  0  0  0  0  0  0  0  0
  -15.8525  -17.6823  141.1518 C   0  0  0  0  0  0  0  0  0  0  0  0
  -16.4080  -19.0671  141.5464 C   0  0  0  0  0  0  0  0  0  0  0  0
  -15.5603  -20.3390  141.3347 C   0  0  0  0  0  0  0  0  0  0  0  0
  -15.5750  -21.0070  139.9460 C   0  0  0  0  0  0  0  0  0  0  0  0
  -14.2908  -20.7627  139.1461 C   0  0  0  0  0  0  0  0  0  0  0  0
  -14.1271  -19.3217  138.6537 C   0  0  0  0  0  0  0  0  0  0  0  0
  -20.1436  -23.5839  142.6537 C   0  0  0  0  0  0  0  0  0  0  0  0
  -20.2529  -24.7584  141.9051 O   0  0  0  0  0  0  0  0  0  0  0  0
  -20.7433  -22.3694  141.9981 C   0  0  0  0  0  0  0  0  0  0  0  0
  -14.7529  -17.3007  140.1279 C   0  0  0  0  0  0  0  0  0  0  0  0
  -20.4596  -23.5926  141.1505 C   0  0  0  0  0  0  0  0  0  0  0  0
  -13.6841  -18.3382  139.7570 C   0  0  0  0  0  0  0  0  0  0  0  0
  2  1  1  0
  3  2  1  0
  5  1  1  0
  6  3  1  0
  6  4  1  0
  7  4  1  0
  8  7  1  0
 10  5  1  0
 11  5  1  0
 11 10  1  0
 12 11  1  0
 13 12  1  0
 14 13  1  0
 15 14  1  0
 17 16  1  0
 18  8  1  0
 18  9  1  0
 18 16  1  0
 19 10  1  0
 20 16  1  0
 20 17  1  0
 20 18  1  0
 21 15  1  0
 21 19  1  0
M  END
$$$$

     RDKit          3D

 20 23  0  0  0  0  0  0  0  0999 V2000
  -19.5816   -6.3944  141.0335 C   0  0  0  0  0  0  0  0  0  0  0  0
  -21.5753   -6.8116  139.4518 C   0  0  0  0  0  0  0  0  0  0  0  0
  -21.7863   -8.3220  139.4277 C   0  0  0  0  0  0  0  0  0  0  0  0
  -21.0351   -6.8997  140.8817 C   0  0  0  0  0  0  0  0  0  0  0  0
  -21.2274   -8.4260  140.8484 C   0  0  0  0  0  0  0  0  0  0  0  0
  -19.5605   -0.9212  146.5574 C   0  0  0  0  0  0  0  0  0  0  0  0
  -18.2788   -1.5277  146.0610 C   0  0  0  0  0  0  0  0  0  0  0  0
  -18.2115   -4.2480  143.9286 Cl  0  0  0  0  0  0  0  0  0  0  0  0
  -17.7282   -1.4088  147.4838 C   0  0  0  0  0  0  0  0  0  0  0  0
  -19.9809   -9.1976  140.9419 N   0  0  0  0  0  0  0  0  0  0  0  0
  -19.9327   -4.5407  143.5257 C   0  0  0  0  0  0  0  0  0  0  0  0
  -19.1946   -1.3047  147.9524 C   0  0  0  0  0  0  0  0  0  0  0  0
  -17.6952   -0.7272  144.8885 C   0  0  0  0  0  0  0  0  0  0  0  0
  -20.8950   -3.9117  144.5585 C   0  0  0  0  0  0  0  0  0  0  0  0
  -20.2441   -4.0897  142.0829 C   0  0  0  0  0  0  0  0  0  0  0  0
  -16.9436   -2.6409  147.9596 C   0  0  0  0  0  0  0  0  0  0  0  0
  -19.6235   -2.3135  146.0532 C   0  0  0  0  0  0  0  0  0  0  0  0
  -19.4624   -4.8549  140.9917 C   0  0  0  0  0  0  0  0  0  0  0  0
  -20.6303   -2.4331  144.8994 C   0  0  0  0  0  0  0  0  0  0  0  0
  -20.0091   -2.9480  147.7353 S   0  0  0  0  0  0  0  0  0  0  0  0
  3  2  1  0
  4  1  1  0
  4  2  1  0
  5  3  1  0
  5  4  1  0
  7  6  1  0
  9  7  1  0
 10  5  1  0
 11  8  1  0
 12  6  1  0
 12  9  1  0
 13  7  1  0
 14 11  1  0
 15 11  1  0
 16  9  1  0
 17  6  1  0
 17  7  1  0
 18  1  1  0
 18 15  1  0
 19 14  1  0
 19 17  1  0
 20 12  1  0
 20 17  1  0
M  END
$$$$

     RDKit          3D

 20 24  0  0  0  0  0  0  0  0999 V2000
  -21.1039  -12.2942  153.2553 O   0  0  0  0  0  0  0  0  0  0  0  0
  -20.4492  -13.5019  152.8932 C   0  0  0  0  0  0  0  0  0  0  0  0
  -19.2543  -13.3201  151.9286 C   0  0  0  0  0  0  0  0  0  0  0  0
  -18.2105  -12.3390  152.4803 C   0  0  0  0  0  0  0  0  0  0  0  0
  -21.4280  -14.5711  152.3976 C   0  0  0  0  0  0  0  0  0  0  0  0
  -23.3193  -13.0685  148.9067 Sb  0  0  0  0  0  3  0  0  0  0  0  0
  -21.5986  -11.5850  152.1369 C   0  0  0  0  0  0  0  0  0  0  0  0
  -22.7096  -10.5872  152.5343 C   0  0  0  0  0  0  0  0  0  0  0  0
  -23.3577  -10.8355  149.2393 C   0  0  0  0  0  0  0  0  0  0  0  0
  -17.0121  -12.2277  151.5451 C   0  0  0  0  0  0  0  0  0  0  0  0
  -22.5823  -10.4487  147.9810 C   0  0  0  0  0  0  0  0  0  0  0  0
  -21.6102   -9.3156  148.2399 C   0  0  0  0  0  0  0  0  0  0  0  0
  -21.9630  -10.2464  149.3579 C   0  0  0  0  0  0  0  0  0  0  0  0
  -24.3278  -11.1799  154.4562 C   0  0  0  0  0  0  0  0  0  0  0  0
  -25.2395  -10.4925  155.4634 C   0  0  0  0  0  0  0  0  0  0  0  0
  -23.0421  -10.4429  154.0397 C   0  0  0  0  0  0  0  0  0  0  0  0
  -23.0626  -11.8837  151.8056 C   0  0  0  0  0  0  0  0  0  0  0  0
  -23.7680  -11.6448  150.4433 C   0  0  0  0  0  0  0  0  0  0  0  0
  -24.8517   -9.2330  155.8924 F   0  0  0  0  0  0  0  0  0  0  0  0
  -25.6227  -10.5301  153.9911 C   0  0  0  0  0  0  0  0  0  0  0  0
  2  1  1  0
  3  2  1  0
  4  3  1  0
  5  2  1  0
  7  1  1  0
  8  7  1  0
  9  6  1  0
 10  4  1  0
 11  9  1  0
 12 11  1  0
 13  9  1  0
 13 11  1  0
 13 12  1  0
 15 14  1  0
 16  8  1  0
 16 14  1  0
 17  7  1  0
 17  8  1  0
 18  6  1  0
 18  9  1  0
 18 17  1  0
 19 15  1  0
 20 14  1  0
 20 15  1  0
M  END
$$$$

     RDKit          3D

 20 26  0  0  0  0  0  0  0  0999 V2000
  -19.0041   -4.5861  138.5603 F   0  0  0  0  0  0  0  0  0  0  0  0
  -20.1258   -2.8498  139.7606 C   0  0  0  0  0  0  0  0  0  0  0  0
  -19.0527   -1.8106  140.1493 C   0  0  0  0  0  0  0  0  0  0  0  0
  -21.6127   -2.4925  139.8278 C   0  0  0  0  0  0  0  0  0  0  0  0
  -21.7353   -1.1960  138.9369 C   0  0  0  0  0  0  0  0  0  0  0  0
  -20.9153   -2.3997  138.5193 C   0  0  0  0  0  0  0  0  0  0  0  0
  -19.3468   -0.3558  139.7183 C   0  0  0  0  0  0  0  0  0  0  0  0
  -20.5210    0.3044  140.4233 C   0  0  0  0  0  0  0  0  0  0  0  0
  -20.4625    1.7945  140.7460 C   0  0  0  0  0  0  0  0  0  0  0  0
  -20.6775   -0.0937  138.9767 C   0  0  0  0  0  0  0  0  0  0  0  0
  -22.1560   -1.2079  140.3888 C   0  0  0  0  0  0  0  0  0  0  0  0
  -21.2802   -0.5271  141.2511 O   0  0  0  0  0  0  0  0  0  0  0  0
  -19.6976   -4.3394  139.7324 C   0  0  0  0  0  0  0  0  0  0  0  0
  -23.2970   -5.6844  143.1741 Cl  0  0  0  0  0  0  0  0  0  0  0  0
  -23.3814   -6.8691  140.7536 C   0  0  0  0  0  0  0  0  0  0  0  0
  -21.3197   -5.5075  141.3308 C   0  0  0  0  0  0  0  0  0  0  0  0
  -24.0848   -6.6790  139.4672 C   0  0  0  0  0  0  0  0  0  0  0  0
  -22.8500   -5.6127  141.4512 C   0  0  0  0  0  0  0  0  0  0  0  0
  -24.7872   -6.8573  140.6779 O   0  0  0  0  0  0  0  0  0  0  0  0
  -20.8487   -5.3550  139.8672 C   0  0  0  0  0  0  0  0  0  0  0  0
  3  2  1  0
  4  2  1  0
  5  4  1  0
  6  2  1  0
  6  4  1  0
  6  5  1  0
  7  3  1  0
  8  7  1  0
  9  8  1  0
 10  5  1  0
 10  7  1  0
 10  8  1  0
 11  4  1  0
 11  5  1  0
 12  8  1  0
 12 11  1  0
 13  1  1  0
 13  2  1  0
 17 15  1  0
 18 14  1  0
 18 15  1  0
 18 16  1  0
 19 15  1  0
 19 17  1  0
 20 13  1  0
 20 16  1  0
M  END
$$$$

     RDKit          3D

 21 26  0  0  0  0  0  0  0  0999 V2000
  -18.3941   -9.7327  136.5796 C   0  0  0  0  0  0  0  0  0  0  0  0
  -16.6650  -11.5687  137.4761 C   0  0  0  0  0  0  0  0  0  0  0  0
  -19.4119   -9.6569  137.7375 C   0  0  0  0  0  0  0  0  0  0  0  0
  -16.5517  -11.6209  139.0262 C   0  0  0  0  0  0  0  0  0  0  0  0
  -19.4653   -8.2994  138.4640 C   0  0  0  0  0  0  0  0  0  0  0  0
  -20.8725   -7.7688  138.9245 C   0  0  0  0  0  0  0  0  0  0  0  0
  -16.9546  -10.0998  136.9782 C   0  0  0  0  0  0  0  0  0  0  0  0
  -20.8362   -7.2622  140.3452 C   0  0  0  0  0  0  0  0  0  0  0  0
  -15.3207  -12.0404  136.8669 C   0  0  0  0  0  0  0  0  0  0  0  0
  -17.7508  -12.5876  137.0374 C   0  0  0  0  0  0  0  0  0  0  0  0
  -22.2297   -6.8171  140.7758 C   0  0  0  0  0  0  0  0  0  0  0  0
  -21.1869   -8.3745  141.3459 C   0  0  0  0  0  0  0  0  0  0  0  0
  -20.6324   -9.8001  141.2439 C   0  0  0  0  0  0  0  0  0  0  0  0
  -23.1849   -6.0772  139.8504 C   0  0  0  0  0  0  0  0  0  0  0  0
  -23.1632   -7.5688  139.7106 C   0  0  0  0  0  0  0  0  0  0  0  0
  -22.3450   -7.7305  141.8654 O   0  0  0  0  0  0  0  0  0  0  0  0
  -22.1148   -8.6190  139.1674 C   0  0  0  0  0  0  0  0  0  0  0  0
  -21.4105  -10.8448  140.4660 C   0  0  0  0  0  0  0  0  0  0  0  0
  -22.7456   -9.3467  137.9591 C   0  0  0  0  0  0  0  0  0  0  0  0
  -15.1999  -10.6352  139.6732 Cl  0  0  0  0  0  0  0  0  0  0  0  0
  -21.9267   -9.4439  140.4859 C   0  0  0  0  0  0  0  0  0  0  0  0
  3  1  1  0
  4  2  1  0
  5  3  1  0
  6  5  1  0
  7  1  1  0
  7  2  1  0
  8  6  1  0
  9  2  1  0
 10  2  1  0
 11  8  1  0
 12  8  1  0
 13 12  1  0
 14 11  1  0
 15 11  1  0
 15 14  1  0
 16 11  1  0
 16 12  1  0
 17  6  1  0
 17 15  1  0
 18 13  1  0
 19 17  1  0
 20  4  1  0
 21 12  1  0
 21 13  1  0
 21 17  1  0
 21 18  1  0
M  END
$$$$

     RDKit          3D

 21 26  0  0  0  0  0  0  0  0999 V2000
  -29.1866   -9.4747  142.0064 O   0  0  0  0  0  0  0  0  0  0  0  0
  -28.9140   -6.2922  144.0037 C   0  0  0  0  0  0  0  0  0  0  0  0
  -28.7412   -5.4663  142.8357 O   0  0  0  0  0  0  0  0  0  0  0  0
  -29.5501   -8.1717  142.1963 C   0  0  0  0  0  0  0  0  0  0  0  0
  -30.7975   -7.8658  143.0861 C   0  0  0  0  0  0  0  0  0  0  0  0
  -33.1110   -7.9683  141.8581 C   0  0  0  0  0  0  0  0  0  0  0  0
  -31.6642   -7.2293  141.9635 C   0  0  0  0  0  0  0  0  0  0  0  0
  -30.3954   -7.5007  141.0395 C   0  0  0  0  0  0  0  0  0  0  0  0
  -33.1417   -9.3783  141.4577 C   0  0  0  0  0  0  0  0  0  0  0  0
  -29.4260   -7.6957  143.5715 C   0  0  0  0  0  0  0  0  0  0  0  0
  -31.8831  -10.1642  141.8656 C   0  0  0  0  0  0  0  0  0  0  0  0
  -29.7158   -8.7503  144.6470 C   0  0  0  0  0  0  0  0  0  0  0  0
  -32.6547  -10.8834  144.2596 C   0  0  0  0  0  0  0  0  0  0  0  0
  -33.6884   -8.2741  140.4519 C   0  0  0  0  0  0  0  0  0  0  0  0
  -31.5841  -10.2208  143.3988 C   0  0  0  0  0  0  0  0  0  0  0  0
  -35.2617   -8.6060  140.2882 C   0  0  0  0  0  0  0  0  0  0  0  0
  -33.8272  -10.7835  141.1547 C   0  0  0  0  0  0  0  0  0  0  0  0
  -33.7441   -6.6793  140.0876 C   0  0  0  0  0  0  0  0  0  0  0  0
  -31.1542   -8.9255  144.0966 C   0  0  0  0  0  0  0  0  0  0  0  0
  -32.4444  -11.4102  141.2647 C   0  0  0  0  0  0  0  0  0  0  0  0
  -34.3746   -6.2037  138.7046 C   0  0  0  0  0  0  0  0  0  0  0  0
  3  2  1  0
  4  1  1  0
  5  4  1  0
  7  5  1  0
  7  6  1  0
  8  4  1  0
  8  7  1  0
  9  6  1  0
 10  2  1  0
 10  4  1  0
 10  5  1  0
 11  9  1  0
 12 10  1  0
 14  6  1  0
 14  9  1  0
 15 11  1  0
 15 13  1  0
 16 14  1  0
 17  9  1  0
 18 14  1  0
 19  5  1  0
 19 12  1  0
 19 15  1  0
 20 11  1  0
 20 17  1  0
 21 18  1  0
M  END
$$$$

     RDKit          3D

 21 22  0  0  0  0  0  0  0  0999 V2000
  -27.1002  -13.9932  145.7429 C   0  0  0  0  0  0  0  0  0  0  0  0
  -28.5869  -12.6765  143.9041 C   0  0  0  0  0  0  0  0  0  0  0  0
  -29.2559  -13.0985  142.5694 C   0  0  0  0  0  0  0  0  0  0  0  0
  -29.9324  -12.1586  140.2836 C   0  0  0  0  0  0  0  0  0  0  0  0
  -30.5576  -13.9423  142.7728 C   0  0  0  0  0  0  0  0  0  0  0  0
  -31.3924  -11.9325  139.9158 C   0  0  0  0  0  0  0  0  0  0  0  0
  -29.5302  -11.8288  141.7299 C   0  0  0  0  0  0  0  0  0  0  0  0
  -30.2989  -15.6290  140.9801 N   0  0  0  0  0  0  0  0  0  0  0  0
  -31.5461  -16.2867  142.9926 C   0  0  0  0  0  0  0  0  0  0  0  0
  -25.9948  -12.9062  145.7458 C   0  0  0  0  0  0  0  0  0  0  0  0
  -31.4327  -16.5715  144.5078 C   0  0  0  0  0  0  0  0  0  0  0  0
  -28.3722  -13.8486  144.8904 C   0  0  0  0  0  0  0  0  0  0  0  0
  -30.3702  -15.4462  142.4352 C   0  0  0  0  0  0  0  0  0  0  0  0
  -24.6434  -13.3744  145.1698 C   0  0  0  0  0  0  0  0  0  0  0  0
  -30.3368  -10.9349  139.4719 C   0  0  0  0  0  0  0  0  0  0  0  0
  -27.2781  -14.8188  144.4699 C   0  0  0  0  0  0  0  0  0  0  0  0
  -23.0099  -15.2141  145.4232 C   0  0  0  0  0  0  0  0  0  0  0  0
  -24.1191  -14.6093  145.8555 C   0  0  0  0  0  0  0  0  0  0  0  0
  -32.6075  -15.9945  145.3003 C   0  0  0  0  0  0  0  0  0  0  0  0
  -33.7948  -16.6499  144.9342 O   0  0  0  0  0  0  0  0  0  0  0  0
  -34.7700  -16.0088  145.5496 O   0  0  0  0  0  0  0  0  0  0  0  0
  3  2  1  0
  5  3  1  0
  6  4  1  0
  7  3  1  0
  7  4  1  0
 10  1  1  0
 11  9  1  0
 12  1  1  0
 12  2  1  0
 13  5  1  0
 13  8  1  0
 13  9  1  0
 14 10  1  0
 15  4  1  0
 15  6  1  0
 16  1  1  0
 16 12  1  0
 18 14  1  0
 18 17  2  0
 19 11  1  0
 20 19  1  0
 21 20  1  0
M  END
$$$$

     RDKit          3D

 21 21  0  0  0  0  0  0  0  0999 V2000
  -28.0471  -21.3581  148.8624 C   0  0  0  0  0  0  0  0  0  0  0  0
  -29.3515  -21.3173  148.4211 C   0  0  0  0  0  0  0  0  0  0  0  0
  -30.0865  -22.4761  148.2887 C   0  0  0  0  0  0  0  0  0  0  0  0
  -27.6790  -22.3150  149.7866 C   0  0  0  0  0  0  0  0  0  0  0  0
  -28.2633  -22.1244  151.0248 C   0  0  0  0  0  0  0  0  0  0  0  0
  -31.3043  -22.5425  148.9349 C   0  0  0  0  0  0  0  0  0  0  0  0
  -32.6634  -22.7720  148.7998 C   0  0  0  0  0  0  0  0  0  0  0  0
  -29.4038  -23.6425  148.0750 C   0  0  0  0  0  0  0  0  0  0  0  0
  -33.2280  -23.3148  149.9587 C   0  0  0  0  0  0  0  0  0  0  0  0
  -29.4347  -24.6171  149.0646 C   0  0  0  0  0  0  0  0  0  0  0  0
  -30.7811  -22.9671  147.7167 C   0  0  0  0  0  0  0  0  0  0  0  0
  -32.7253  -23.0860  151.1562 N   0  0  0  0  0  2  0  0  0  0  0  0
  -32.3919  -24.1677  151.8848 C   0  0  0  0  0  0  0  0  0  0  0  0
  -29.5597  -22.5584  151.2765 C   0  0  0  0  0  0  0  0  0  0  0  0
  -31.6619  -24.0611  152.8992 O   0  0  0  0  0  0  0  0  0  0  0  0
  -33.7065  -23.9286  151.9895 N   0  0  0  0  0  2  0  0  0  0  0  0
  -28.8560  -20.8808  151.2537 C   0  0  0  0  0  0  0  0  0  0  0  0
  -32.3032  -22.7883  149.0139 C   0  0  0  0  0  0  0  0  0  0  0  0
  -30.7739  -22.4923  150.3797 C   0  0  0  0  0  0  0  0  0  0  0  0
  -28.9143  -20.2911  152.6347 C   0  0  0  0  0  0  0  0  0  0  0  0
  -28.8378  -19.0189  152.8534 C   0  0  0  0  0  0  0  0  0  0  0  0
  2  1  1  0
  3  2  1  0
  4  1  1  0
  5  4  1  0
  6  3  1  0
  8  3  1  0
  9  7  1  0
 10  8  1  0
 11  3  1  0
 12  9  1  0
 13 12  1  0
 14  5  1  0
 15 13  1  0
 16 13  1  0
 17  5  1  0
 17 14  1  0
 18  6  1  0
 18  7  1  0
 19 14  1  0
 20 17  1  0
 21 20  2  0
M  RAD  2  12   2  16   2
M  END
$$$$

     RDKit          3D

 21 24  0  0  0  0  0  0  0  0999 V2000
  -28.3217   -2.6282  143.7145 O   0  0  0  0  0  0  0  0  0  0  0  0
  -28.7086   -2.7776  142.3713 C   0  0  0  0  0  0  0  0  0  0  0  0
  -27.9628   -1.8874  141.5881 O   0  0  0  0  0  0  0  0  0  0  0  0
  -28.4452   -4.2313  141.9189 C   0  0  0  0  0  0  0  0  0  0  0  0
  -29.1233   -4.6670  140.5864 C   0  0  0  0  0  0  0  0  0  0  0  0
  -28.5282   -3.9713  139.3356 C   0  0  0  0  0  0  0  0  0  0  0  0
  -30.6668   -4.4987  140.6464 C   0  0  0  0  0  0  0  0  0  0  0  0
  -27.1158   -4.5073  138.9992 C   0  0  0  0  0  0  0  0  0  0  0  0
  -27.0033   -5.2393  137.6619 C   0  0  0  0  0  0  0  0  0  0  0  0
  -26.3333   -3.8821  137.8353 C   0  0  0  0  0  0  0  0  0  0  0  0
  -31.4171   -5.5125  139.7558 C   0  0  0  0  0  0  0  0  0  0  0  0
  -26.9649   -2.7481  137.0085 C   0  0  0  0  0  0  0  0  0  0  0  0
  -31.6228   -6.8700  140.4507 C   0  0  0  0  0  0  0  0  0  0  0  0
  -32.8622   -6.8389  141.3688 C   0  0  0  0  0  0  0  0  0  0  0  0
  -34.0865   -7.6029  140.8680 C   0  0  0  0  0  0  0  0  0  0  0  0
  -26.2933   -1.4095  137.3492 C   0  0  0  0  0  0  0  0  0  0  0  0
  -33.2849   -8.1425  142.0486 C   0  0  0  0  0  0  0  0  0  0  0  0
  -27.2030   -0.2450  137.6712 C   0  0  0  0  0  0  0  0  0  0  0  0
  -26.8438    0.4715  138.9410 C   0  0  0  0  0  0  0  0  0  0  0  0
  -26.4273   -0.9817  138.8036 C   0  0  0  0  0  0  0  0  0  0  0  0
  -32.4686   -9.4101  141.7731 C   0  0  0  0  0  0  0  0  0  0  0  0
  2  1  1  0
  3  2  1  0
  4  2  1  0
  5  4  1  0
  6  5  1  0
  7  5  1  0
  8  6  1  0
  9  8  1  0
 10  8  1  0
 10  9  1  0
 11  7  1  0
 12 10  1  0
 13 11  1  0
 14 13  1  0
 15 14  1  0
 16 12  1  0
 17 14  1  0
 17 15  1  0
 18 16  1  0
 19 18  1  0
 20 16  1  0
 20 18  1  0
 20 19  1  0
 21 17  1  0
M  END
$$$$

     RDKit          3D

 21 25  0  0  0  0  0  0  0  0999 V2000
  -24.8781   -8.5214  156.9367 O   0  0  0  0  0  0  0  0  0  0  0  0
  -24.4366   -8.2500  154.6070 C   0  0  0  0  0  0  0  0  0  0  0  0
  -23.8700   -7.0056  154.9531 O   0  0  0  0  0  0  0  0  0  0  0  0
  -23.3403   -9.2140  154.0875 C   0  0  0  0  0  0  0  0  0  0  0  0
  -25.1865   -8.8327  155.7897 C   0  0  0  0  0  0  0  0  0  0  0  0
  -23.7475   -9.9444  152.8057 C   0  0  0  0  0  0  0  0  0  0  0  0
  -26.2795   -9.8492  155.6024 C   0  0  0  0  0  0  0  0  0  0  0  0
  -23.8796   -9.1350  151.5714 C   0  0  0  0  0  0  0  0  0  0  0  0
  -25.9008  -10.5875  150.5418 C   0  0  0  0  0  0  0  0  0  0  0  0
  -22.7198   -9.8826  151.8530 O   0  0  0  0  0  0  0  0  0  0  0  0
  -24.6386   -9.7294  150.3738 C   0  0  0  0  0  0  0  0  0  0  0  0
  -27.1092   -9.8104  150.9983 C   0  0  0  0  0  0  0  0  0  0  0  0
  -25.9695   -9.0418  150.3604 C   0  0  0  0  0  0  0  0  0  0  0  0
  -26.3704   -8.3516  149.0186 C   0  0  0  0  0  0  0  0  0  0  0  0
  -25.2307   -7.6027  148.3375 C   0  0  0  0  0  0  0  0  0  0  0  0
  -27.5714   -7.3759  149.2478 C   0  0  0  0  0  0  0  0  0  0  0  0
  -25.5627   -8.2726  147.0261 C   0  0  0  0  0  0  0  0  0  0  0  0
  -27.3506   -6.4075  150.4155 C   0  0  0  0  0  0  0  0  0  0  0  0
  -25.4419   -9.7747  146.9240 C   0  0  0  0  0  0  0  0  0  0  0  0
  -25.7636  -10.2155  145.5024 C   0  0  0  0  0  0  0  0  0  0  0  0
  -26.6027   -9.1803  147.7334 C   0  0  0  0  0  0  0  0  0  0  0  0
  3  2  1  0
  4  2  1  0
  5  1  2  0
  5  2  1  0
  6  4  1  0
  7  5  1  0
  8  6  1  0
 10  6  1  0
 10  8  1  0
 11  8  1  0
 11  9  1  0
 12  9  1  0
 13  9  1  0
 13 11  1  0
 13 12  1  0
 14 13  1  0
 15 14  1  0
 16 14  1  0
 17 15  1  0
 18 16  1  0
 19 17  1  0
 20 19  1  0
 21 14  1  0
 21 17  1  0
 21 19  1  0
M  END
$$$$

     RDKit          3D

 11 14  0  0  0  0  0  0  0  0999 V2000
  -21.6233   -4.0479  133.2468 N   0  0  0  0  0  0  0  0  0  0  0  0
  -21.3715   -2.6824  132.7616 C   0  0  0  0  0  0  0  0  0  0  0  0
  -21.1743   -5.1160  132.3174 C   0  0  0  0  0  0  0  0  0  0  0  0
  -19.7491   -5.2719  132.6076 C   0  0  0  0  0  0  0  0  0  0  0  0
  -22.2348   -2.3694  131.5578 C   0  0  0  0  0  0  0  0  0  0  0  0
  -19.4584   -6.3280  131.6964 C   0  0  0  0  0  0  0  0  0  0  0  0
  -23.5713   -2.3702  131.6525 C   0  0  0  0  0  0  0  0  0  0  0  0
  -20.0529   -4.9369  131.2246 C   0  0  0  0  0  0  0  0  0  0  0  0
  -21.6111   -2.0297  130.2338 C   0  0  0  0  0  0  0  0  0  0  0  0
  -20.5589   -6.4668  132.8300 C   0  0  0  0  0  0  0  0  0  0  0  0
  -21.1113   -4.1856  134.4983 F   0  0  0  0  0  0  0  0  0  0  0  0
  2  1  1  0
  3  1  1  0
  4  3  1  0
  5  2  1  0
  6  4  1  0
  7  5  2  0
  8  3  1  0
  8  4  1  0
  8  6  1  0
  9  5  1  0
 10  3  1  0
 10  4  1  0
 10  6  1  0
 11  1  1  0
M  END
$$$$

     RDKit          3D

 21 25  0  0  0  0  0  0  0  0999 V2000
  -26.4353  -17.4758  136.0498 O   0  0  0  0  0  0  0  0  0  0  0  0
  -26.5741  -16.6659  134.9061 C   0  0  0  0  0  0  0  0  0  0  0  0
  -27.9134  -16.3237  134.7102 O   0  0  0  0  0  0  0  0  0  0  0  0
  -24.8324  -18.4762  134.5398 C   0  0  0  0  0  0  0  0  0  0  0  0
  -24.4800  -19.9098  134.9051 C   0  0  0  0  0  0  0  0  0  0  0  0
  -26.2908  -18.1125  134.8017 C   0  0  0  0  0  0  0  0  0  0  0  0
  -24.6258  -19.5167  133.4290 C   0  0  0  0  0  0  0  0  0  0  0  0
  -23.1779  -20.5545  135.3252 C   0  0  0  0  0  0  0  0  0  0  0  0
  -22.6057  -19.7317  136.4575 C   0  0  0  0  0  0  0  0  0  0  0  0
  -23.1681  -21.0864  136.7940 C   0  0  0  0  0  0  0  0  0  0  0  0
  -23.3393  -19.3074  132.6099 C   0  0  0  0  0  0  0  0  0  0  0  0
  -24.0467  -21.7479  135.7634 C   0  0  0  0  0  0  0  0  0  0  0  0
  -23.4487  -18.1666  131.5760 C   0  0  0  0  0  0  0  0  0  0  0  0
  -25.3479  -21.0325  135.3706 C   0  0  0  0  0  0  0  0  0  0  0  0
  -24.4592  -18.3510  130.4052 C   0  0  0  0  0  0  0  0  0  0  0  0
  -25.8683  -17.7950  130.7176 C   0  0  0  0  0  0  0  0  0  0  0  0
  -25.8768  -16.2892  130.7786 C   0  0  0  0  0  0  0  0  0  0  0  0
  -24.5361  -19.7962  129.8916 C   0  0  0  0  0  0  0  0  0  0  0  0
  -25.8647  -15.7263  131.8628 O   0  0  0  0  0  0  0  0  0  0  0  0
  -25.8634  -15.4671  129.5205 C   0  0  0  0  0  0  0  0  0  0  0  0
  -27.0891  -14.6809  129.4239 N   0  0  0  0  0  0  0  0  0  0  0  0
  2  1  1  0
  3  2  1  0
  5  4  1  0
  6  1  1  0
  6  2  1  0
  6  4  1  0
  7  4  1  0
  7  5  1  0
  8  5  1  0
  9  8  1  0
 10  8  1  0
 10  9  1  0
 11  7  1  0
 12  8  1  0
 12 10  1  0
 13 11  1  0
 14  5  1  0
 14 12  1  0
 15 13  1  0
 16 15  1  0
 17 16  1  0
 18 15  1  0
 19 17  2  0
 20 17  1  0
 21 20  1  0
M  END
$$$$

     RDKit          3D

 13 13  0  0  0  0  0  0  0  0999 V2000
  -34.2466   -7.4934  146.1814 C   0  0  0  0  0  0  0  0  0  0  0  0
  -36.1707  -10.0876  148.0752 C   0  0  0  0  0  0  0  0  0  0  0  0
  -35.1777   -9.3837  147.5225 C   0  0  0  0  0  0  0  0  0  0  0  0
  -34.5313   -6.3238  145.2152 C   0  0  0  0  0  0  0  0  0  0  0  0
  -35.5349   -9.4252  145.0370 C   0  0  0  0  0  0  0  0  0  0  0  0
  -35.4028   -8.5210  146.2979 C   0  0  0  0  0  0  0  0  0  0  0  0
  -36.6645   -8.9945  144.0790 C   0  0  0  0  0  0  0  0  0  0  0  0
  -33.8835   -6.5162  143.8442 C   0  0  0  0  0  0  0  0  0  0  0  0
  -39.1136   -8.5452  143.7184 C   0  0  0  0  0  0  0  0  0  0  0  0
  -38.4135  -10.7808  144.5993 C   0  0  0  0  0  0  0  0  0  0  0  0
  -40.3906   -8.0931  144.4144 C   0  0  0  0  0  0  0  0  0  0  0  0
  -39.3230   -7.0737  144.0489 C   0  0  0  0  0  0  0  0  0  0  0  0
  -38.0913   -9.2800  144.6076 C   0  0  0  0  0  0  0  0  0  0  0  0
  3  2  2  0
  4  1  1  0
  6  1  1  0
  6  3  1  0
  6  5  1  0
  7  5  1  0
  8  4  1  0
 11  9  1  0
 12  9  1  0
 12 11  1  0
 13  7  1  0
 13  9  1  0
 13 10  1  0
M  END
$$$$

     RDKit          3D

 21 24  0  0  0  0  0  0  0  0999 V2000
  -26.2133  -11.7015  140.3347 C   0  0  0  0  0  0  0  0  0  0  0  0
  -23.6850  -11.7371  139.8569 C   0  0  0  0  0  0  0  0  0  0  0  0
  -23.0613  -11.0578  141.1078 C   0  0  0  0  0  0  0  0  0  0  0  0
  -24.9633  -12.5913  140.0814 C   0  0  0  0  0  0  0  0  0  0  0  0
  -24.7816  -13.4867  141.1513 O   0  0  0  0  0  0  0  0  0  0  0  0
  -21.5431  -11.2075  141.2482 C   0  0  0  0  0  0  0  0  0  0  0  0
  -28.0876  -11.8522  139.2627 C   0  0  0  0  0  0  0  0  0  0  0  0
  -20.8010  -10.3418  140.2620 C   0  0  0  0  0  0  0  0  0  0  0  0
  -27.5822  -13.9217  140.7536 C   0  0  0  0  0  0  0  0  0  0  0  0
  -23.8281  -10.9133  142.4110 C   0  0  0  0  0  0  0  0  0  0  0  0
  -27.5836  -14.8459  139.7700 C   0  0  0  0  0  0  0  0  0  0  0  0
  -26.7965  -11.0747  139.0616 C   0  0  0  0  0  0  0  0  0  0  0  0
  -27.8825  -16.2903  140.1153 C   0  0  0  0  0  0  0  0  0  0  0  0
  -23.7791  -11.8423  143.3698 C   0  0  0  0  0  0  0  0  0  0  0  0
  -27.5423  -12.4158  140.5738 C   0  0  0  0  0  0  0  0  0  0  0  0
  -24.5906  -11.7097  144.6157 C   0  0  0  0  0  0  0  0  0  0  0  0
  -22.1454   -9.8824  140.7852 C   0  0  0  0  0  0  0  0  0  0  0  0
  -27.4638  -17.3926  139.1312 C   0  0  0  0  0  0  0  0  0  0  0  0
  -26.5330  -16.9742  137.9708 C   0  0  0  0  0  0  0  0  0  0  0  0
  -26.9624  -16.9040  141.1663 C   0  0  0  0  0  0  0  0  0  0  0  0
  -26.6911  -18.0920  140.2521 C   0  0  0  0  0  0  0  0  0  0  0  0
  3  2  1  0
  4  1  1  0
  4  2  1  0
  5  4  1  0
  6  3  1  0
  8  6  1  0
 10  3  1  0
 11  9  2  3
 12  1  1  0
 12  7  1  0
 13 11  1  0
 14 10  2  3
 15  1  1  0
 15  7  1  0
 15  9  1  0
 16 14  1  0
 17  3  1  0
 17  6  1  0
 17  8  1  0
 18 13  1  0
 19 18  1  0
 20 13  1  0
 21 18  1  0
 21 20  1  0
M  END
$$$$

     RDKit          3D

 21 23  0  0  0  0  0  0  0  0999 V2000
  -27.7657   -6.1835  135.7810 N   0  0  0  0  0  0  0  0  0  0  0  0
  -27.8093   -5.0966  136.7967 C   0  0  0  0  0  0  0  0  0  0  0  0
  -28.0478   -8.0797  136.5214 C   0  0  0  0  0  0  0  0  0  0  0  0
  -28.8737   -7.0504  135.8692 N   0  0  0  0  0  0  0  0  0  0  0  0
  -28.3847   -8.1589  138.0415 C   0  0  0  0  0  0  0  0  0  0  0  0
  -28.2464   -6.7253  138.8511 C   0  0  0  0  0  0  0  0  0  0  0  0
  -28.7291   -5.3685  138.1052 C   0  0  0  0  0  0  0  0  0  0  0  0
  -26.8436   -7.2528  136.2268 C   0  0  0  0  0  0  0  0  0  0  0  0
  -29.7990   -4.2016  138.4392 C   0  0  0  0  0  0  0  0  0  0  0  0
  -32.0594   -5.9427  137.4131 C   0  0  0  0  0  0  0  0  0  0  0  0
  -29.5956   -3.4984  140.0192 C   0  0  0  0  0  0  0  0  0  0  0  0
  -28.6458   -0.4672  140.7927 C   0  0  0  0  0  0  0  0  0  0  0  0
  -32.7545   -6.7043  138.4025 O   0  0  0  0  0  0  0  0  0  0  0  0
  -28.3617   -0.5273  142.4165 C   0  0  0  0  0  0  0  0  0  0  0  0
  -27.6295    0.5724  141.6963 C   0  0  0  0  0  0  0  0  0  0  0  0
  -31.3720   -4.4749  137.9737 C   0  0  0  0  0  0  0  0  0  0  0  0
  -29.4318   -4.6094  141.1172 C   0  0  0  0  0  0  0  0  0  0  0  0
  -28.4958   -5.2065  141.9405 C   0  0  0  0  0  0  0  0  0  0  0  0
  -28.4963   -2.1272  140.2128 C   0  0  0  0  0  0  0  0  0  0  0  0
  -28.3305    1.9288  142.1942 C   0  0  0  0  0  0  0  0  0  0  0  0
  -29.5595    2.5742  141.4673 C   0  0  0  0  0  0  0  0  0  0  0  0
  2  1  1  0
  4  1  1  0
  4  3  1  0
  5  3  1  0
  6  5  1  0
  7  2  1  0
  7  6  1  0
  8  1  1  0
  8  3  1  0
  9  7  1  0
 11  9  1  0
 13 10  1  0
 14 12  1  0
 15 12  1  0
 15 14  1  0
 16  9  1  0
 16 10  1  0
 17 11  1  0
 18 17  2  0
 19 11  1  0
 19 12  1  0
 20 15  1  0
 21 20  1  0
M  END
$$$$

     RDKit          3D

 20 25  0  0  0  0  0  0  0  0999 V2000
  -21.8292  -13.2664  141.2851 C   0  0  0  0  0  0  0  0  0  0  0  0
  -22.8929  -13.6343  140.2314 C   0  0  0  0  0  0  0  0  0  0  0  0
  -21.0284  -11.9542  141.0964 C   0  0  0  0  0  0  0  0  0  0  0  0
  -21.2321  -11.1550  139.8276 C   0  0  0  0  0  0  0  0  0  0  0  0
  -22.6982  -14.9237  139.4505 C   0  0  0  0  0  0  0  0  0  0  0  0
  -20.3323  -13.3198  140.9269 C   0  0  0  0  0  0  0  0  0  0  0  0
  -22.8631  -16.1488  140.3198 C   0  0  0  0  0  0  0  0  0  0  0  0
  -20.3440  -10.2789  139.3255 C   0  0  0  0  0  0  0  0  0  0  0  0
  -19.1257   -9.6826  140.0023 C   0  0  0  0  0  0  0  0  0  0  0  0
  -18.5289  -10.4175  141.2289 C   0  0  0  0  0  0  0  0  0  0  0  0
  -19.5252  -10.3259  142.4311 C   0  0  0  0  0  0  0  0  0  0  0  0
  -20.8418  -11.1119  142.3909 C   0  0  0  0  0  0  0  0  0  0  0  0
  -23.6320  -14.8918  140.6634 C   0  0  0  0  0  0  0  0  0  0  0  0
  -19.1849   -9.5986  143.7268 C   0  0  0  0  0  0  0  0  0  0  0  0
  -19.1198  -11.1090  143.6967 C   0  0  0  0  0  0  0  0  0  0  0  0
  -17.0679   -9.9425  141.5012 C   0  0  0  0  0  0  0  0  0  0  0  0
  -15.7796   -7.8704  140.7366 C   0  0  0  0  0  0  0  0  0  0  0  0
  -19.9012  -13.7226  139.5072 C   0  0  0  0  0  0  0  0  0  0  0  0
  -20.4554  -11.8269  143.6880 C   0  0  0  0  0  0  0  0  0  0  0  0
  -16.8604   -8.4134  141.6711 C   0  0  0  0  0  0  0  0  0  0  0  0
  2  1  1  0
  3  1  1  0
  4  3  1  0
  5  2  1  0
  6  1  1  0
  6  3  1  0
  7  5  1  0
  8  4  2  0
  9  8  1  0
 10  9  1  0
 11 10  1  0
 12  3  1  0
 12 11  1  0
 13  2  1  0
 13  5  1  0
 13  7  1  0
 14 11  1  0
 15 11  1  0
 15 14  1  0
 16 10  1  0
 18  6  1  0
 19 12  1  0
 19 15  1  0
 20 16  1  0
 20 17  1  0
M  END
$$$$

     RDKit          3D

 21 22  0  0  0  0  0  0  0  0999 V2000
  -25.4414  -21.7567  138.0253 C   0  0  0  0  0  0  0  0  0  0  0  0
  -28.7668  -22.1602  137.5457 C   0  0  0  0  0  0  0  0  0  0  0  0
  -28.4298  -22.7482  138.9466 C   0  0  0  0  0  0  0  0  0  0  0  0
  -24.6818  -23.0150  138.4336 C   0  0  0  0  0  0  0  0  0  0  0  0
  -28.0151  -24.2540  139.0434 C   0  0  0  0  0  0  0  0  0  0  0  0
  -26.3175  -21.9861  136.7762 C   0  0  0  0  0  0  0  0  0  0  0  0
  -26.5784  -24.7246  139.3530 C   0  0  0  0  0  0  0  0  0  0  0  0
  -27.6881  -21.3170  136.8560 C   0  0  0  0  0  0  0  0  0  0  0  0
  -25.0339  -26.4270  143.2996 Si  0  0  0  0  0  4  0  0  0  0  0  0
  -26.5733  -25.5385  138.0642 C   0  0  0  0  0  0  0  0  0  0  0  0
  -25.3141  -24.5481  143.2087 C   0  0  0  0  0  0  0  0  0  0  0  0
  -25.2986  -23.8556  139.5823 C   0  0  0  0  0  0  0  0  0  0  0  0
  -28.0083  -25.1441  137.7834 C   0  0  0  0  0  0  0  0  0  0  0  0
  -26.7123  -24.3609  143.0877 O   0  0  0  0  0  0  0  0  0  0  0  0
  -24.4950  -23.8717  142.0680 C   0  0  0  0  0  0  0  0  0  0  0  0
  -25.3068  -23.1207  140.9551 C   0  0  0  0  0  0  0  0  0  0  0  0
  -26.0784  -27.1752  144.6600 C   0  0  0  0  0  0  0  0  0  0  0  0
  -23.2367  -26.8164  143.6531 C   0  0  0  0  0  0  0  0  0  0  0  0
  -27.1605  -23.2841  143.8755 C   0  0  0  0  0  0  0  0  0  0  0  0
  -27.6841  -22.4618  146.1859 C   0  0  0  0  0  0  0  0  0  0  0  0
  -27.3487  -23.6920  145.3486 C   0  0  0  0  0  0  0  0  0  0  0  0
  3  2  1  0
  4  1  1  0
  5  3  1  0
  6  1  1  0
  7  5  1  0
  8  2  1  0
  8  6  1  0
 10  7  1  0
 11  9  1  0
 12  4  1  0
 12  7  1  0
 13  5  1  0
 13 10  1  0
 14 11  1  0
 15 11  1  0
 16 12  1  0
 16 15  1  0
 17  9  1  0
 18  9  1  0
 19 14  1  0
 21 19  1  0
 21 20  1  0
M  END
$$$$

     RDKit          3D

 21 22  0  0  0  0  0  0  0  0999 V2000
  -33.4410  -17.0484  143.4819 C   0  0  0  0  0  0  0  0  0  0  0  0
  -35.7250  -16.5711  143.7986 O   0  0  0  0  0  0  0  0  0  0  0  0
  -33.5175  -13.8442  142.6506 C   0  0  0  0  0  0  0  0  0  0  0  0
  -34.8415  -14.8384  142.4217 C   0  0  0  0  0  0  0  0  0  0  0  0
  -34.7364  -16.2626  143.0970 C   0  0  0  0  0  0  0  0  0  0  0  0
  -33.5399  -12.9144  144.0597 C   0  0  0  0  0  0  0  0  0  0  0  0
  -32.9187  -14.0404  144.7265 C   0  0  0  0  0  0  0  0  0  0  0  0
  -33.1588  -12.9553  145.5707 N   0  0  0  0  0  0  0  0  0  0  0  0
  -34.8157  -11.0563  146.2748 O   0  0  0  0  0  0  0  0  0  0  0  0
  -35.6704  -10.8788  145.2582 C   0  0  0  0  0  0  0  0  0  0  0  0
  -36.0719  -12.2376  144.5129 C   0  0  0  0  0  0  0  0  0  0  0  0
  -32.9407  -11.4572  143.7897 C   0  0  0  0  0  0  0  0  0  0  0  0
  -33.5662  -13.3877  146.9688 C   0  0  0  0  0  0  0  0  0  0  0  0
  -36.0021  -12.4324  142.6764 S   0  0  0  0  0  0  0  0  0  0  0  0
  -32.4262  -14.2373  147.5253 N   0  0  0  0  0  0  0  0  0  0  0  0
  -31.8233  -13.6554  148.6866 N   0  0  0  0  0  0  0  0  0  0  0  0
  -30.6557  -14.5090  143.4224 C   0  0  0  0  0  0  0  0  0  0  0  0
  -36.0004  -14.1692  142.9332 O   0  0  0  0  0  0  0  0  0  0  0  0
  -30.4642  -15.3067  144.6887 C   0  0  0  0  0  0  0  0  0  0  0  0
  -29.8260  -13.2044  142.9500 C   0  0  0  0  0  0  0  0  0  0  0  0
  -31.3203  -14.0552  144.7688 C   0  0  0  0  0  0  0  0  0  0  0  0
  4  3  1  0
  5  1  1  0
  5  2  2  0
  5  4  1  0
  6  3  1  0
  7  6  1  0
  8  6  1  0
  8  7  1  0
 10  9  1  0
 11 10  1  0
 12  6  1  0
 13  8  1  0
 14 11  1  0
 15 13  1  0
 16 15  1  0
 18  4  1  0
 18 14  1  0
 19 17  1  0
 20 17  1  0
 21  7  1  0
 21 17  1  0
 21 19  1  0
M  END
$$$$

     RDKit          3D

 21 22  0  0  0  0  0  0  0  0999 V2000
  -24.1413  -15.9974  149.1208 O   0  0  0  0  0  0  0  0  0  0  0  0
  -23.5970  -14.4193  148.2907 C   0  0  0  0  0  0  0  0  0  0  0  0
  -25.7985  -13.6785  150.1653 O   0  0  0  0  0  0  0  0  0  0  0  0
  -26.4159  -11.1754  148.4580 C   0  0  0  0  0  0  0  0  0  0  0  0
  -28.6577   -9.1584  146.9325 C   0  0  0  0  0  0  0  0  0  0  0  0
  -27.8491  -10.7828  146.8448 C   0  0  0  0  0  0  0  0  0  0  0  0
  -29.3593   -8.9163  145.5778 C   0  0  0  0  0  0  0  0  0  0  0  0
  -25.2060  -13.0079  149.0564 C   0  0  0  0  0  0  0  0  0  0  0  0
  -22.4820  -12.5330  149.0443 C   0  0  0  0  0  0  0  0  0  0  0  0
  -25.2757   -8.9340  148.2632 C   0  0  0  0  0  0  0  0  0  0  0  0
  -23.4108  -11.2215  147.7585 C   0  0  0  0  0  0  0  0  0  0  0  0
  -23.8278  -17.4797  148.5886 C   0  0  0  0  0  0  0  0  0  0  0  0
  -22.7282  -10.5379  148.6873 C   0  0  0  0  0  0  0  0  0  0  0  0
  -24.7403  -17.5915  147.2531 C   0  0  0  0  0  0  0  0  0  0  0  0
  -23.7439   -7.6102  147.8375 C   0  0  0  0  0  0  0  0  0  0  0  0
  -22.5849   -8.4941  148.1613 N   0  0  0  0  0  0  0  0  0  0  0  0
  -22.4103   -4.9150  148.3854 O   0  0  0  0  0  0  0  0  0  0  0  0
  -23.8230   -5.4271  146.5775 C   0  0  0  0  0  0  0  0  0  0  0  0
  -22.9453   -3.0159  147.6668 C   0  0  0  0  0  0  0  0  0  0  0  0
  -22.9620   -0.6366  147.3143 C   0  0  0  0  0  0  0  0  0  0  0  0
  -22.4492   -6.3841  147.4615 C   0  0  0  0  0  0  0  0  0  0  0  0
  2  1  1  0
  6  4  1  0
  6  5  1  0
  7  5  1  0
  8  2  1  0
  8  3  1  0
  8  4  1  0
  9  2  1  0
 10  4  1  0
 12  1  1  0
 13  9  1  0
 13 11  2  0
 14 12  1  0
 15 10  1  0
 16 13  1  0
 16 15  1  0
 19 17  1  0
 20 19  1  0
 21 15  1  0
 21 16  1  0
 21 17  1  0
 21 18  1  0
M  END
$$$$

     RDKit          3D

 20 22  0  0  0  0  0  0  0  0999 V2000
  -22.1888  -18.6700  139.0582 O   0  0  0  0  0  0  0  0  0  0  0  0
  -22.3584  -17.5056  139.8401 C   0  0  0  0  0  0  0  0  0  0  0  0
  -23.0536  -17.3589  142.2133 O   0  0  0  0  0  0  0  0  0  0  0  0
  -24.9276  -17.3236  140.6043 C   0  0  0  0  0  0  0  0  0  0  0  0
  -25.6397  -16.9450  139.2558 C   0  0  0  0  0  0  0  0  0  0  0  0
  -23.4814  -17.5948  140.8838 C   0  0  0  0  0  0  0  0  0  0  0  0
  -21.2384  -18.4444  140.0737 C   0  0  0  0  0  0  0  0  0  0  0  0
  -24.9406  -17.2215  137.9790 N   0  0  0  0  0  0  0  0  0  0  0  0
  -25.1901  -18.4540  137.3089 N   0  0  0  0  0  0  0  0  0  0  0  0
  -25.9861  -15.4395  139.3107 C   0  0  0  0  0  0  0  0  0  0  0  0
  -24.7425  -14.5266  139.1571 C   0  0  0  0  0  0  0  0  0  0  0  0
  -25.9213  -19.8016  138.2401 S   0  0  0  0  0  0  0  0  0  0  0  0
  -24.7617  -17.4777  135.0903 C   0  0  0  0  0  0  0  0  0  0  0  0
  -27.6778  -19.5396  137.8224 C   0  0  0  0  0  0  0  0  0  0  0  0
  -25.7472  -18.2456  135.9657 C   0  0  0  0  0  0  0  0  0  0  0  0
  -25.8790  -12.4572  140.2543 C   0  0  0  0  0  0  0  0  0  0  0  0
  -25.9675  -12.8194  141.7367 C   0  0  0  0  0  0  0  0  0  0  0  0
  -24.6317  -13.3242  140.1234 C   0  0  0  0  0  0  0  0  0  0  0  0
  -24.7108  -13.6721  141.6084 C   0  0  0  0  0  0  0  0  0  0  0  0
  -24.4461  -18.8035  140.7138 C   0  0  0  0  0  0  0  0  0  0  0  0
  2  1  1  0
  5  4  1  0
  6  2  1  0
  6  3  1  0
  6  4  1  0
  7  1  1  0
  7  2  1  0
  8  5  1  0
  9  8  1  0
 10  5  1  0
 11 10  1  0
 12  9  1  0
 14 12  1  0
 15  9  1  0
 15 13  1  0
 17 16  1  0
 18 11  1  0
 18 16  1  0
 19 17  1  0
 19 18  1  0
 20  4  1  0
 20  6  1  0
M  END
$$$$

     RDKit          3D

 21 23  0  0  0  0  0  0  0  0999 V2000
  -23.3883    3.0031  136.7430 C   0  0  0  0  0  0  0  0  0  0  0  0
  -24.2732    3.3555  135.4637 C   0  0  0  0  0  0  0  0  0  0  0  0
  -24.1951    4.8761  134.9568 C   0  0  0  0  0  0  0  0  0  0  0  0
  -23.9866    1.9841  137.7725 C   0  0  0  0  0  0  0  0  0  0  0  0
  -21.8544    2.8316  136.4499 C   0  0  0  0  0  0  0  0  0  0  0  0
  -21.3932    3.9632  135.4641 C   0  0  0  0  0  0  0  0  0  0  0  0
  -21.8479    5.4224  135.7369 C   0  0  0  0  0  0  0  0  0  0  0  0
  -21.5425    1.5133  135.6667 C   0  0  0  0  0  0  0  0  0  0  0  0
  -23.3006    5.6395  135.8717 N   0  0  0  0  0  0  0  0  0  0  0  0
  -24.8946    0.9150  137.1987 C   0  0  0  0  0  0  0  0  0  0  0  0
  -21.0396    2.8775  137.7924 C   0  0  0  0  0  0  0  0  0  0  0  0
  -24.5858   -0.3624  137.0207 C   0  0  0  0  0  0  0  0  0  0  0  0
  -23.2671   -0.9587  137.2490 C   0  0  0  0  0  0  0  0  0  0  0  0
  -23.6898    5.0900  133.4530 C   0  0  0  0  0  0  0  0  0  0  0  0
  -24.7476    4.6312  132.4678 C   0  0  0  0  0  0  0  0  0  0  0  0
  -22.9681   -2.1330  136.7047 C   0  0  0  0  0  0  0  0  0  0  0  0
  -25.9244    5.5593  132.6210 C   0  0  0  0  0  0  0  0  0  0  0  0
  -26.6615    5.1690  133.8949 C   0  0  0  0  0  0  0  0  0  0  0  0
  -26.2338    5.4289  131.1395 C   0  0  0  0  0  0  0  0  0  0  0  0
  -24.8131    4.8631  130.9731 C   0  0  0  0  0  0  0  0  0  0  0  0
  -25.6818    5.4768  135.0808 C   0  0  0  0  0  0  0  0  0  0  0  0
  2  1  1  0
  3  2  1  0
  4  1  1  0
  5  1  1  0
  6  5  1  0
  7  6  1  0
  8  5  1  0
  9  3  1  0
  9  7  1  0
 10  4  1  0
 11  5  1  0
 12 10  2  3
 13 12  1  0
 14  3  1  0
 15 14  1  0
 16 13  2  0
 17 15  1  0
 18 17  1  0
 19 17  1  0
 20 15  1  0
 20 19  1  0
 21  3  1  0
 21 18  1  0
M  END
$$$$

     RDKit          3D

 11 12  0  0  0  0  0  0  0  0999 V2000
  -25.3602    2.5887  136.4205 C   0  0  0  0  0  0  0  0  0  0  0  0
  -24.7226    3.9188  136.9259 C   0  0  0  0  0  0  0  0  0  0  0  0
  -24.2815    3.9125  138.4063 C   0  0  0  0  0  0  0  0  0  0  0  0
  -24.3082    1.6025  135.9280 C   0  0  0  0  0  0  0  0  0  0  0  0
  -23.6776    0.6449  136.6513 C   0  0  0  0  0  0  0  0  0  0  0  0
  -23.8849    0.2978  138.1170 C   0  0  0  0  0  0  0  0  0  0  0  0
  -26.2634    2.8847  135.2969 C   0  0  0  0  0  0  0  0  0  0  0  0
  -24.2480    1.4937  138.9987 C   0  0  0  0  0  0  0  0  0  0  0  0
  -23.3797    2.7141  138.6879 C   0  0  0  0  0  0  0  0  0  0  0  0
  -23.2993    2.0495  140.0516 C   0  0  0  0  0  0  0  0  0  0  0  0
  -26.9742    3.1176  134.4137 N   0  0  0  0  0  0  0  0  0  0  0  0
  2  1  1  0
  3  2  1  0
  4  1  1  0
  5  4  2  3
  6  5  1  0
  7  1  1  0
  8  6  1  0
  9  3  1  0
  9  8  1  0
 10  8  1  0
 10  9  1  0
 11  7  3  0
M  END
$$$$

     RDKit          3D

 20 21  0  0  0  0  0  0  0  0999 V2000
  -22.1745   -2.4845  144.3588 O   0  0  0  0  0  0  0  0  0  0  0  0
  -23.2489   -1.9894  143.6085 C   0  0  0  0  0  0  0  0  0  0  0  0
  -24.5490   -1.8071  145.6314 O   0  0  0  0  0  0  0  0  0  0  0  0
  -25.3394   -0.5348  143.7057 C   0  0  0  0  0  0  0  0  0  0  0  0
  -25.8574    0.7223  144.2939 N   0  0  0  0  0  0  0  0  0  0  0  0
  -24.1300   -1.0935  144.4940 C   0  0  0  0  0  0  0  0  0  0  0  0
  -26.7233    1.4184  143.3259 C   0  0  0  0  0  0  0  0  0  0  0  0
  -25.8911    2.1275  142.3562 N   0  0  0  0  0  2  0  0  0  0  0  0
  -26.7237    2.7044  141.3016 C   0  0  0  0  0  0  0  0  0  0  0  0
  -26.5218    0.5574  145.6102 C   0  0  0  0  0  0  0  0  0  0  0  0
  -27.9732   -0.0305  142.2933 Mg  0  0  0  0  0  1  0  0  0  0  0  0
  -25.8486    3.2482  140.2389 N   0  0  0  0  0  0  0  0  0  0  0  0
  -25.3557    2.3430  139.1620 C   0  0  0  0  0  0  0  0  0  0  0  0
  -23.8620    2.3166  138.8937 C   0  0  0  0  0  0  0  0  0  0  0  0
  -27.7605   -0.3492  145.5883 C   0  0  0  0  0  0  0  0  0  0  0  0
  -23.8384    0.8205  139.1400 C   0  0  0  0  0  0  0  0  0  0  0  0
  -26.2828    1.3946  138.4243 C   0  0  0  0  0  0  0  0  0  0  0  0
  -26.4031    4.4721  139.6323 C   0  0  0  0  0  0  0  0  0  0  0  0
  -25.3252    0.8268  139.4598 C   0  0  0  0  0  0  0  0  0  0  0  0
  -27.5783    4.1940  138.9150 O   0  0  0  0  0  0  0  0  0  0  0  0
  2  1  1  0
  5  4  1  0
  6  2  1  0
  6  3  1  0
  6  4  1  0
  7  5  1  0
  8  7  1  0
  9  8  1  0
 10  5  1  0
 11  7  1  0
 12  9  1  0
 13 12  1  0
 14 13  1  0
 15 10  1  0
 16 14  1  0
 17 13  1  0
 18 12  1  0
 19 13  1  0
 19 16  1  0
 19 17  1  0
 20 18  1  0
M  RAD  2   8   2  11   2
M  END
$$$$

     RDKit          3D

 21 25  0  0  0  0  0  0  0  0999 V2000
  -29.6317   -4.6365  135.1543 O   0  0  0  0  0  0  0  0  0  0  0  0
  -30.9762   -4.3027  135.3161 C   0  0  0  0  0  0  0  0  0  0  0  0
  -31.3258   -3.8415  136.6051 O   0  0  0  0  0  0  0  0  0  0  0  0
  -32.0466   -4.5584  134.2576 C   0  0  0  0  0  0  0  0  0  0  0  0
  -33.5328   -4.0352  134.2588 C   0  0  0  0  0  0  0  0  0  0  0  0
  -31.6477   -5.4437  133.0189 C   0  0  0  0  0  0  0  0  0  0  0  0
  -29.5935   -6.8510  133.7509 C   0  0  0  0  0  0  0  0  0  0  0  0
  -31.0969   -6.8607  133.3446 C   0  0  0  0  0  0  0  0  0  0  0  0
  -29.1753   -7.9351  134.7631 C   0  0  0  0  0  0  0  0  0  0  0  0
  -28.7238   -8.0560  133.3134 C   0  0  0  0  0  0  0  0  0  0  0  0
  -28.2329   -7.3526  135.8433 C   0  0  0  0  0  0  0  0  0  0  0  0
  -27.9078   -8.3684  136.9668 C   0  0  0  0  0  0  0  0  0  0  0  0
  -31.2764   -3.3654  134.3186 O   0  0  0  0  0  0  0  0  0  0  0  0
  -33.9590   -3.0631  135.3726 C   0  0  0  0  0  0  0  0  0  0  0  0
  -34.5521   -5.0454  134.7770 C   0  0  0  0  0  0  0  0  0  0  0  0
  -34.8154   -4.1551  135.9809 C   0  0  0  0  0  0  0  0  0  0  0  0
  -28.6586   -6.7561  132.5494 C   0  0  0  0  0  0  0  0  0  0  0  0
  -28.2642   -7.8790  138.3690 C   0  0  0  0  0  0  0  0  0  0  0  0
  -31.1446   -8.4977  137.4634 I   0  0  0  0  0  0  0  0  0  0  0  0
  -29.0647   -9.0232  137.7548 C   0  0  0  0  0  0  0  0  0  0  0  0
  -28.7512  -10.4147  138.2993 C   0  0  0  0  0  0  0  0  0  0  0  0
  2  1  1  0
  3  2  1  0
  4  2  1  0
  5  4  1  0
  6  4  1  0
  8  6  1  0
  8  7  1  0
  9  7  1  0
 10  7  1  0
 10  9  1  0
 11  9  1  0
 12 11  1  0
 13  2  1  0
 13  4  1  0
 14  5  1  0
 15  5  1  0
 16 14  1  0
 16 15  1  0
 17  7  1  0
 17 10  1  0
 18 12  1  0
 20 12  1  0
 20 18  1  0
 20 19  1  0
 21 20  1  0
M  END
$$$$

     RDKit          3D

 21 22  0  0  0  0  0  0  0  0999 V2000
  -31.1788  -23.6818  135.0750 O   0  0  0  0  0  0  0  0  0  0  0  0
  -32.7770  -25.6642  134.5797 C   0  0  0  0  0  0  0  0  0  0  0  0
  -32.5802  -24.1574  135.1658 C   0  0  0  0  0  0  0  0  0  0  0  0
  -30.2319  -23.4946  136.2354 C   0  0  0  0  0  0  0  0  0  0  0  0
  -27.8953  -21.5234  136.9938 C   0  0  0  0  0  0  0  0  0  0  0  0
  -26.7696  -20.2285  137.6623 C   0  0  0  0  0  0  0  0  0  0  0  0
  -20.9700  -17.3201  139.1215 C   0  0  0  0  0  0  0  0  0  0  0  0
  -22.1635  -18.6850  138.8282 C   0  0  0  0  0  0  0  0  0  0  0  0
  -29.0854  -22.4319  135.8315 C   0  0  0  0  0  0  0  0  0  0  0  0
  -19.2031  -17.0808  138.5517 C   0  0  0  0  0  0  0  0  0  0  0  0
  -23.0155  -19.5250  139.9467 C   0  0  0  0  0  0  0  0  0  0  0  0
  -24.7950  -17.6040  140.3632 C   0  0  0  0  0  0  0  0  0  0  0  0
  -28.5665  -23.1350  134.7152 O   0  0  0  0  0  0  0  0  0  0  0  0
  -24.4330  -19.0344  139.4777 C   0  0  0  0  0  0  0  0  0  0  0  0
  -23.8141  -18.5123  138.1877 C   0  0  0  0  0  0  0  0  0  0  0  0
  -24.9450  -19.7604  138.0297 C   0  0  0  0  0  0  0  0  0  0  0  0
  -21.0260  -19.6430  138.7623 N   0  0  0  0  0  0  0  0  0  0  0  0
  -23.7864  -17.3517  141.6154 C   0  0  0  0  0  0  0  0  0  0  0  0
  -21.0529  -20.9751  138.3115 N   0  0  0  0  0  0  0  0  0  0  0  0
  -23.9771  -20.8125  137.3225 C   0  0  0  0  0  0  0  0  0  0  0  0
  -33.6713  -23.1468  134.4412 C   0  0  0  0  0  0  0  0  0  0  0  0
  3  1  1  0
  3  2  1  0
  4  1  1  0
  6  5  1  0
  8  7  1  0
  9  4  1  0
  9  5  1  0
 10  7  1  0
 11  8  1  0
 13  9  1  0
 14 11  1  0
 14 12  1  0
 15  8  1  0
 15 14  1  0
 16  6  1  0
 16 14  1  0
 16 15  1  0
 17  8  1  0
 18 12  1  0
 19 17  1  0
 20 16  1  0
 21  3  1  0
M  END
$$$$

     RDKit          3D

 20 25  0  0  0  0  0  0  0  0999 V2000
  -22.9694    3.3669  143.0670 C   0  0  0  0  0  0  0  0  0  0  0  0
  -24.3671    2.9316  142.6344 C   0  0  0  0  0  0  0  0  0  0  0  0
  -22.4285    4.6472  142.4001 C   0  0  0  0  0  0  0  0  0  0  0  0
  -21.8346    5.9896  144.5002 C   0  0  0  0  0  0  0  0  0  0  0  0
  -23.1436    2.1904  142.0881 C   0  0  0  0  0  0  0  0  0  0  0  0
  -22.4426    5.1898  145.6855 C   0  0  0  0  0  0  0  0  0  0  0  0
  -23.3330    4.1690  145.2915 O   0  0  0  0  0  0  0  0  0  0  0  0
  -22.6971    5.9226  143.2139 C   0  0  0  0  0  0  0  0  0  0  0  0
  -23.0246    0.7209  142.5508 C   0  0  0  0  0  0  0  0  0  0  0  0
  -22.1878   -0.0579  141.5120 C   0  0  0  0  0  0  0  0  0  0  0  0
  -22.6815    3.1520  144.5632 C   0  0  0  0  0  0  0  0  0  0  0  0
  -21.6034    7.4507  144.9111 C   0  0  0  0  0  0  0  0  0  0  0  0
  -20.9299   -0.9777  141.6666 C   0  0  0  0  0  0  0  0  0  0  0  0
  -20.0386   -0.3128  142.7421 C   0  0  0  0  0  0  0  0  0  0  0  0
  -20.5975   -0.5429  144.1617 C   0  0  0  0  0  0  0  0  0  0  0  0
  -20.7044    0.3919  141.5147 C   0  0  0  0  0  0  0  0  0  0  0  0
  -19.5775   -1.2368  145.0926 C   0  0  0  0  0  0  0  0  0  0  0  0
  -19.9308   -2.6757  145.4778 C   0  0  0  0  0  0  0  0  0  0  0  0
  -18.7669   -2.4041  144.5374 C   0  0  0  0  0  0  0  0  0  0  0  0
  -20.1613   -0.5342  140.3972 C   0  0  0  0  0  0  0  0  0  0  0  0
  2  1  1  0
  3  1  1  0
  5  1  1  0
  5  2  1  0
  6  4  1  0
  7  6  1  0
  8  3  1  0
  8  4  1  0
  9  5  1  0
 10  9  1  0
 11  1  1  0
 11  7  1  0
 12  4  1  0
 13 10  1  0
 14 13  1  0
 15 14  1  0
 16 10  1  0
 16 13  1  0
 16 14  1  0
 17 15  1  0
 18 17  1  0
 19 17  1  0
 19 18  1  0
 20 13  1  0
 20 16  1  0
M  END
$$$$

     RDKit          3D

 20 22  0  0  0  0  0  0  0  0999 V2000
  -23.9747  -21.4504  149.2001 O   0  0  0  0  0  0  0  0  0  0  0  0
  -24.9122  -20.8086  146.8138 O   0  0  0  0  0  0  0  0  0  0  0  0
  -23.8198  -20.2757  149.9909 C   0  0  0  0  0  0  0  0  0  0  0  0
  -24.0480  -20.0266  151.4677 C   0  0  0  0  0  0  0  0  0  0  0  0
  -23.0501  -17.6406  150.9685 C   0  0  0  0  0  0  0  0  0  0  0  0
  -25.1525  -17.8541  152.4689 C   0  0  0  0  0  0  0  0  0  0  0  0
  -26.1756  -20.5553  147.3677 C   0  0  0  0  0  0  0  0  0  0  0  0
  -25.2522  -17.8201  154.0237 C   0  0  0  0  0  0  0  0  0  0  0  0
  -23.8245  -18.5524  151.9651 C   0  0  0  0  0  0  0  0  0  0  0  0
  -25.8586  -19.0709  154.6569 C   0  0  0  0  0  0  0  0  0  0  0  0
  -25.6691  -19.0170  156.4274 Cl  0  0  0  0  0  0  0  0  0  0  0  0
  -26.4622  -18.3672  151.8303 C   0  0  0  0  0  0  0  0  0  0  0  0
  -22.8577  -20.7403  151.0408 N   0  0  0  0  0  0  0  0  0  0  0  0
  -25.1429  -21.0088  149.7470 C   0  0  0  0  0  0  0  0  0  0  0  0
  -26.9096  -19.5337  146.4245 C   0  0  0  0  0  0  0  0  0  0  0  0
  -26.0598  -20.1383  148.8588 C   0  0  0  0  0  0  0  0  0  0  0  0
  -28.3488  -19.0536  146.7038 C   0  0  0  0  0  0  0  0  0  0  0  0
  -29.1414  -19.6196  147.8849 C   0  0  0  0  0  0  0  0  0  0  0  0
  -27.8256  -17.6208  146.8754 C   0  0  0  0  0  0  0  0  0  0  0  0
  -26.4211  -18.0838  146.4979 C   0  0  0  0  0  0  0  0  0  0  0  0
  3  1  1  0
  4  3  1  0
  7  2  1  0
  8  6  1  0
  9  4  1  0
  9  5  1  0
  9  6  1  0
 10  8  1  0
 11 10  1  0
 12  6  1  0
 13  3  1  0
 13  4  1  0
 14  1  1  0
 14  3  1  0
 15  7  1  0
 16  7  1  0
 16 14  1  0
 17 15  1  0
 18 17  1  0
 19 17  1  0
 20 15  1  0
 20 19  1  0
M  END
$$$$

     RDKit          3D

 21 25  0  0  0  0  0  0  0  0999 V2000
  -21.0954  -17.1762  150.9541 N   0  0  0  0  0  0  0  0  0  0  0  0
  -20.5223  -16.2138  149.9905 C   0  0  0  0  0  0  0  0  0  0  0  0
  -21.7473  -16.4933  152.0740 C   0  0  0  0  0  0  0  0  0  0  0  0
  -20.0195  -16.9597  148.7217 C   0  0  0  0  0  0  0  0  0  0  0  0
  -19.3072  -15.4929  150.6252 C   0  0  0  0  0  0  0  0  0  0  0  0
  -19.6022  -14.2533  151.4696 C   0  0  0  0  0  0  0  0  0  0  0  0
  -21.0955  -17.2072  147.6446 C   0  0  0  0  0  0  0  0  0  0  0  0
  -22.1650  -18.1117  148.1188 N   0  0  0  0  0  0  0  0  0  0  0  0
  -21.6703  -19.4673  148.4106 C   0  0  0  0  0  0  0  0  0  0  0  0
  -21.1375  -20.3322  147.2790 C   0  0  0  0  0  0  0  0  0  0  0  0
  -20.6366  -21.6953  147.7439 C   0  0  0  0  0  0  0  0  0  0  0  0
  -23.0934  -18.6756  147.1262 C   0  0  0  0  0  0  0  0  0  0  0  0
  -22.9472  -18.2232  145.6608 C   0  0  0  0  0  0  0  0  0  0  0  0
  -22.6303  -20.1070  147.3818 C   0  0  0  0  0  0  0  0  0  0  0  0
  -18.6066  -14.0357  152.6244 C   0  0  0  0  0  0  0  0  0  0  0  0
  -22.2307  -17.4832  153.1121 C   0  0  0  0  0  0  0  0  0  0  0  0
  -19.0268  -14.0970  150.0644 C   0  0  0  0  0  0  0  0  0  0  0  0
  -18.8237  -12.6852  153.3225 C   0  0  0  0  0  0  0  0  0  0  0  0
  -21.1024  -17.9944  153.9791 C   0  0  0  0  0  0  0  0  0  0  0  0
  -20.9964  -16.6059  153.3831 C   0  0  0  0  0  0  0  0  0  0  0  0
  -20.0775  -12.6717  154.1973 C   0  0  0  0  0  0  0  0  0  0  0  0
  2  1  1  0
  3  1  1  0
  4  2  1  0
  5  2  1  0
  6  5  1  0
  7  4  1  0
  8  7  1  0
  9  8  1  0
 10  9  1  0
 11 10  1  0
 12  8  1  0
 13 12  1  0
 14  9  1  0
 14 10  1  0
 14 12  1  0
 15  6  1  0
 16  3  1  0
 17  5  1  0
 17  6  1  0
 18 15  1  0
 19 16  1  0
 20  3  1  0
 20 16  1  0
 20 19  1  0
 21 18  1  0
M  END
$$$$

     RDKit          3D

 20 23  0  0  0  0  0  0  0  0999 V2000
  -27.6572   -4.7838  147.2391 O   0  0  0  0  0  0  0  0  0  0  0  0
  -26.6642   -4.1474  146.4583 C   0  0  0  0  0  0  0  0  0  0  0  0
  -26.5069   -4.7443  145.0389 C   0  0  0  0  0  0  0  0  0  0  0  0
  -26.7128   -7.1650  146.0826 C   0  0  0  0  0  0  0  0  0  0  0  0
  -26.0294   -8.5574  146.0356 C   0  0  0  0  0  0  0  0  0  0  0  0
  -28.2362   -7.4065  146.2528 C   0  0  0  0  0  0  0  0  0  0  0  0
  -24.8065   -8.7793  145.1426 C   0  0  0  0  0  0  0  0  0  0  0  0
  -25.1880   -5.4699  144.8013 C   0  0  0  0  0  0  0  0  0  0  0  0
  -28.8914   -7.3014  147.6460 C   0  0  0  0  0  0  0  0  0  0  0  0
  -28.7158   -4.9338  146.4640 O   0  0  0  0  0  0  0  0  0  0  0  0
  -23.7634   -9.8194  145.6358 C   0  0  0  0  0  0  0  0  0  0  0  0
  -26.4876   -6.2666  144.8382 C   0  0  0  0  0  0  0  0  0  0  0  0
  -26.1665   -9.3487  144.7379 C   0  0  0  0  0  0  0  0  0  0  0  0
  -23.1665   -9.4115  147.0184 C   0  0  0  0  0  0  0  0  0  0  0  0
  -28.1585   -6.8869  148.9361 C   0  0  0  0  0  0  0  0  0  0  0  0
  -22.0281  -10.3382  147.4756 C   0  0  0  0  0  0  0  0  0  0  0  0
  -22.6929   -9.9938  144.5449 C   0  0  0  0  0  0  0  0  0  0  0  0
  -29.2280   -6.2624  146.5544 C   0  0  0  0  0  0  0  0  0  0  0  0
  -22.6873   -7.9792  147.0278 C   0  0  0  0  0  0  0  0  0  0  0  0
  -23.1324   -7.1200  147.9468 C   0  0  0  0  0  0  0  0  0  0  0  0
  2  1  1  0
  3  2  1  0
  5  4  1  0
  6  4  1  0
  7  5  1  0
  8  3  1  0
  9  6  1  0
 10  1  1  0
 11  7  1  0
 12  3  1  0
 12  4  1  0
 12  8  1  0
 13  5  1  0
 13  7  1  0
 14 11  1  0
 15  9  1  0
 16 14  1  0
 17 11  1  0
 18  6  1  0
 18  9  1  0
 18 10  1  0
 19 14  1  0
 20 19  2  0
M  END
$$$$

     RDKit          3D

 21 27  0  0  0  0  0  0  0  0999 V2000
  -25.2433    2.9201  144.3305 C   0  0  0  0  0  0  0  0  0  0  0  0
  -23.7867    3.2526  143.9155 C   0  0  0  0  0  0  0  0  0  0  0  0
  -22.9675    1.3735  145.4613 N   0  0  0  0  0  0  0  0  0  0  0  0
  -22.6207    2.4572  144.5345 C   0  0  0  0  0  0  0  0  0  0  0  0
  -22.9329    3.8720  145.0291 C   0  0  0  0  0  0  0  0  0  0  0  0
  -26.0606    2.3410  143.1692 C   0  0  0  0  0  0  0  0  0  0  0  0
  -27.0463    3.5092  143.2665 C   0  0  0  0  0  0  0  0  0  0  0  0
  -21.8999    4.9807  144.6899 C   0  0  0  0  0  0  0  0  0  0  0  0
  -21.4841    5.1025  143.2770 N   0  0  0  0  0  0  0  0  0  0  0  0
  -26.2277    4.1061  144.4232 C   0  0  0  0  0  0  0  0  0  0  0  0
  -28.4577    3.0793  143.6787 C   0  0  0  0  0  0  0  0  0  0  0  0
  -25.6677    5.5027  144.1047 C   0  0  0  0  0  0  0  0  0  0  0  0
  -22.3863    5.8048  142.3346 C   0  0  0  0  0  0  0  0  0  0  0  0
  -20.3380    4.3115  142.7992 C   0  0  0  0  0  0  0  0  0  0  0  0
  -21.5647    6.8154  141.5258 C   0  0  0  0  0  0  0  0  0  0  0  0
  -22.4292    8.0394  141.2871 C   0  0  0  0  0  0  0  0  0  0  0  0
  -23.7362    7.9251  142.0382 C   0  0  0  0  0  0  0  0  0  0  0  0
  -22.4764    7.2998  142.6233 C   0  0  0  0  0  0  0  0  0  0  0  0
  -20.6797    3.5848  141.5007 C   0  0  0  0  0  0  0  0  0  0  0  0
  -21.0112    4.5967  140.4128 C   0  0  0  0  0  0  0  0  0  0  0  0
  -22.1197    5.5670  140.8429 C   0  0  0  0  0  0  0  0  0  0  0  0
  2  1  1  0
  4  2  1  0
  4  3  1  0
  5  2  1  0
  5  4  1  0
  6  1  1  0
  7  6  1  0
  8  5  1  0
  9  8  1  0
 10  1  1  0
 10  7  1  0
 11  7  1  0
 12 10  1  0
 13  9  1  0
 14  9  1  0
 15 13  1  0
 16 15  1  0
 17 16  1  0
 18 13  1  0
 18 15  1  0
 18 16  1  0
 18 17  1  0
 19 14  1  0
 20 19  1  0
 21 13  1  0
 21 15  1  0
 21 20  1  0
M  END
$$$$

     RDKit          3D

 21 22  0  0  0  0  0  0  0  0999 V2000
  -24.1872  -16.5657  132.6293 N   0  0  0  0  0  0  0  0  0  0  0  0
  -23.4074  -15.5825  132.5071 C   0  0  0  0  0  0  0  0  0  0  0  0
  -24.1630  -14.4098  133.0585 N   0  0  0  0  0  0  0  0  0  0  0  0
  -21.9426  -15.7834  132.5875 N   0  0  0  0  0  0  0  0  0  0  0  0
  -22.8919  -18.1192  134.3889 C   0  0  0  0  0  0  0  0  0  0  0  0
  -24.2970  -13.7954  134.4464 C   0  0  0  0  0  0  0  0  0  0  0  0
  -21.3744  -17.0911  132.7420 N   0  0  0  0  0  0  0  0  0  0  0  0
  -21.4848  -17.4502  134.1554 C   0  0  0  0  0  0  0  0  0  0  0  0
  -26.4850   -9.4313  132.5456 C   0  0  0  0  0  0  0  0  0  0  0  0
  -24.7661  -10.3699  134.9860 C   0  0  0  0  0  0  0  0  0  0  0  0
  -23.4410  -17.8617  135.6093 O   0  0  0  0  0  0  0  0  0  0  0  0
  -25.2818   -8.4689  137.1834 C   0  0  0  0  0  0  0  0  0  0  0  0
  -26.1171  -10.0578  133.9953 C   0  0  0  0  0  0  0  0  0  0  0  0
  -25.0894   -9.3324  136.1216 N   0  0  0  0  0  0  0  0  0  0  0  0
  -25.4852   -9.4069  131.2908 C   0  0  0  0  0  0  0  0  0  0  0  0
  -22.8994  -12.0022  134.0320 C   0  0  0  0  0  0  0  0  0  0  0  0
  -24.1557  -18.9199  132.3165 C   0  0  0  0  0  0  0  0  0  0  0  0
  -24.0018  -17.8510  133.3373 C   0  0  0  0  0  0  0  0  0  0  0  0
  -24.3673  -12.0654  134.6784 C   0  0  0  0  0  0  0  0  0  0  0  0
  -24.1114   -9.6801  131.7239 C   0  0  0  0  0  0  0  0  0  0  0  0
  -24.6629  -10.5300  130.6688 C   0  0  0  0  0  0  0  0  0  0  0  0
  2  1  2  0
  3  2  1  0
  4  2  1  0
  6  3  1  0
  7  4  1  0
  8  5  1  0
  8  7  1  0
 11  5  1  0
 13  9  1  0
 13 10  1  0
 14 10  1  0
 14 12  2  0
 15  9  1  0
 18  1  1  0
 18  5  1  0
 18 17  1  0
 19  6  1  0
 19 10  1  0
 19 16  1  0
 20 15  1  0
 21 15  1  0
 21 20  1  0
M  END
$$$$

     RDKit          3D

 21 24  0  0  0  0  0  0  0  0999 V2000
  -23.7855    2.2053  140.1402 N   0  0  0  0  0  0  0  0  0  0  0  0
  -24.6640    3.3791  141.9785 C   0  0  0  0  0  0  0  0  0  0  0  0
  -25.0817    4.7190  142.4628 N   0  0  0  0  0  0  0  0  0  0  0  0
  -23.7931    3.4725  140.7780 N   0  0  0  0  0  0  0  0  0  0  0  0
  -24.2663    4.5073  139.8162 C   0  0  0  0  0  0  0  0  0  0  0  0
  -22.7711    1.3106  140.7363 C   0  0  0  0  0  0  0  0  0  0  0  0
  -26.2557    5.2923  141.7419 C   0  0  0  0  0  0  0  0  0  0  0  0
  -26.6608    4.5050  140.5691 N   0  0  0  0  0  0  0  0  0  0  0  0
  -26.4445    4.6679  143.0540 C   0  0  0  0  0  0  0  0  0  0  0  0
  -28.0460    4.1866  140.3828 C   0  0  0  0  0  0  0  0  0  0  0  0
  -25.7457    4.3353  139.4278 C   0  0  0  0  0  0  0  0  0  0  0  0
  -28.5056    2.8829  140.6381 C   0  0  0  0  0  0  0  0  0  0  0  0
  -21.3599    1.5268  140.1460 C   0  0  0  0  0  0  0  0  0  0  0  0
  -29.8523    2.5646  140.4289 C   0  0  0  0  0  0  0  0  0  0  0  0
  -23.1645   -0.1593  140.4806 C   0  0  0  0  0  0  0  0  0  0  0  0
  -30.7401    3.5399  139.9478 C   0  0  0  0  0  0  0  0  0  0  0  0
  -21.9103   -0.9093  140.0395 C   0  0  0  0  0  0  0  0  0  0  0  0
  -30.2849    4.8373  139.6881 C   0  0  0  0  0  0  0  0  0  0  0  0
  -19.7111   -0.1063  139.2243 C   0  0  0  0  0  0  0  0  0  0  0  0
  -28.9384    5.1572  139.8926 C   0  0  0  0  0  0  0  0  0  0  0  0
  -20.9028    0.1563  139.7719 C   0  0  0  0  0  0  0  0  0  0  0  0
  3  2  1  0
  4  1  1  0
  4  2  1  0
  5  4  1  0
  6  1  1  0
  7  3  1  0
  8  7  1  0
  9  3  1  0
  9  7  1  0
 10  8  1  0
 11  5  1  0
 11  8  1  0
 12 10  4  0
 13  6  1  0
 14 12  4  0
 15  6  1  0
 16 14  4  0
 17 15  1  0
 18 16  4  0
 20 10  4  0
 20 18  4  0
 21 13  1  0
 21 17  1  0
 21 19  2  0
M  END
$$$$

     RDKit          3D

 11 13  0  0  0  0  0  0  0  0999 V2000
  -21.6716  -19.3227  143.0525 O   0  0  0  0  0  0  0  0  0  0  0  0
  -21.6854  -17.1733  140.6689 C   0  0  0  0  0  0  0  0  0  0  0  0
  -21.2173  -15.7346  140.8995 C   0  0  0  0  0  0  0  0  0  0  0  0
  -21.5307  -16.2282  139.4764 C   0  0  0  0  0  0  0  0  0  0  0  0
  -21.1785  -16.9116  143.1667 C   0  0  0  0  0  0  0  0  0  0  0  0
  -19.5801  -18.6948  143.9960 C   0  0  0  0  0  0  0  0  0  0  0  0
  -21.6814  -18.2623  145.2583 C   0  0  0  0  0  0  0  0  0  0  0  0
  -21.0647  -18.3107  143.8401 C   0  0  0  0  0  0  0  0  0  0  0  0
  -20.6533  -16.8910  141.7231 C   0  0  0  0  0  0  0  0  0  0  0  0
  -21.1834  -17.7089  139.3618 C   0  0  0  0  0  0  0  0  0  0  0  0
  -23.3652  -19.0722  142.8879 Cl  0  0  0  0  0  0  0  0  0  0  0  0
  3  2  1  0
  4  2  1  0
  4  3  1  0
  8  1  1  0
  8  5  1  0
  8  6  1  0
  8  7  1  0
  9  2  1  0
  9  3  1  0
  9  5  1  0
 10  2  1  0
 10  4  1  0
 11  1  1  0
M  END
$$$$

     RDKit          3D

 21 25  0  0  0  0  0  0  0  0999 V2000
  -25.9871  -25.0303  139.4183 C   0  0  0  0  0  0  0  0  0  0  0  0
  -26.2411  -24.9431  137.8871 C   0  0  0  0  0  0  0  0  0  0  0  0
  -27.0323  -24.1760  140.1483 C   0  0  0  0  0  0  0  0  0  0  0  0
  -26.8900  -24.2543  141.6812 C   0  0  0  0  0  0  0  0  0  0  0  0
  -25.1625  -24.2815  137.0378 C   0  0  0  0  0  0  0  0  0  0  0  0
  -25.5503  -23.6472  142.1319 C   0  0  0  0  0  0  0  0  0  0  0  0
  -24.4000  -24.1598  142.9573 C   0  0  0  0  0  0  0  0  0  0  0  0
  -25.6524  -23.7316  143.6854 C   0  0  0  0  0  0  0  0  0  0  0  0
  -23.9423  -23.6495  137.6832 C   0  0  0  0  0  0  0  0  0  0  0  0
  -28.0624  -23.4820  142.3965 C   0  0  0  0  0  0  0  0  0  0  0  0
  -27.6161  -22.2057  143.1883 C   0  0  0  0  0  0  0  0  0  0  0  0
  -26.6614  -26.2725  137.3069 C   0  0  0  0  0  0  0  0  0  0  0  0
  -25.2271  -25.8062  137.1005 C   0  0  0  0  0  0  0  0  0  0  0  0
  -26.3040  -22.3891  144.0214 C   0  0  0  0  0  0  0  0  0  0  0  0
  -24.0768  -22.2996  138.3554 C   0  0  0  0  0  0  0  0  0  0  0  0
  -24.5892  -21.2782  137.3790 C   0  0  0  0  0  0  0  0  0  0  0  0
  -25.8927  -20.9763  137.3050 C   0  0  0  0  0  0  0  0  0  0  0  0
  -26.4003  -20.0060  136.2820 C   0  0  0  0  0  0  0  0  0  0  0  0
  -27.6631  -20.3692  135.6446 C   0  0  0  0  0  0  0  0  0  0  0  0
  -26.3925  -20.5953  134.9303 N   0  0  0  0  0  0  0  0  0  0  0  0
  -22.7271  -24.2006  137.5243 C   0  0  0  0  0  0  0  0  0  0  0  0
  2  1  1  0
  3  1  1  0
  4  3  1  0
  5  2  1  0
  6  4  1  0
  7  6  1  0
  8  6  1  0
  8  7  1  0
  9  5  1  0
 10  4  1  0
 11 10  1  0
 12  2  1  0
 13  2  1  0
 13  5  1  0
 13 12  1  0
 14  8  1  0
 14 11  1  0
 15  9  1  0
 16 15  1  0
 17 16  2  3
 18 17  1  0
 19 18  1  0
 20 18  1  0
 20 19  1  0
 21  9  2  0
M  END
$$$$

     RDKit          3D

 21 26  0  0  0  0  0  0  0  0999 V2000
  -25.3984  -16.4199  138.6202 O   0  0  0  0  0  0  0  0  0  0  0  0
  -25.9070  -15.5857  139.6184 C   0  0  0  0  0  0  0  0  0  0  0  0
  -26.8497  -14.6517  139.2331 O   0  0  0  0  0  0  0  0  0  0  0  0
  -25.7446  -15.9817  141.0557 C   0  0  0  0  0  0  0  0  0  0  0  0
  -25.4110  -14.7830  141.9596 C   0  0  0  0  0  0  0  0  0  0  0  0
  -24.5997  -15.1070  143.2061 C   0  0  0  0  0  0  0  0  0  0  0  0
  -27.1920  -16.3745  141.1063 C   0  0  0  0  0  0  0  0  0  0  0  0
  -23.9322  -14.4327  142.0171 C   0  0  0  0  0  0  0  0  0  0  0  0
  -28.2658  -15.3198  140.8727 C   0  0  0  0  0  0  0  0  0  0  0  0
  -29.7128  -15.5021  140.2912 C   0  0  0  0  0  0  0  0  0  0  0  0
  -30.1273  -16.6654  139.3514 C   0  0  0  0  0  0  0  0  0  0  0  0
  -27.4141  -15.8671  139.6921 C   0  0  0  0  0  0  0  0  0  0  0  0
  -30.0573  -16.2887  137.8584 C   0  0  0  0  0  0  0  0  0  0  0  0
  -29.4380  -15.9627  141.6722 C   0  0  0  0  0  0  0  0  0  0  0  0
  -31.6700  -14.4197  137.6575 C   0  0  0  0  0  0  0  0  0  0  0  0
  -32.1185  -16.3819  136.2242 C   0  0  0  0  0  0  0  0  0  0  0  0
  -33.4127  -17.0904  136.6721 C   0  0  0  0  0  0  0  0  0  0  0  0
  -34.1322  -17.5945  138.7118 C   0  0  0  0  0  0  0  0  0  0  0  0
  -33.2237  -18.2260  137.6674 C   0  0  0  0  0  0  0  0  0  0  0  0
  -34.4951  -16.0917  137.7497 S   0  0  0  0  0  0  0  0  0  0  0  0
  -31.3402  -15.6785  137.3263 C   0  0  0  0  0  0  0  0  0  0  0  0
  2  1  1  0
  3  2  1  0
  4  2  1  0
  5  4  1  0
  6  5  1  0
  7  4  1  0
  8  5  1  0
  8  6  1  0
  9  7  1  0
 10  9  1  0
 11 10  1  0
 12  2  1  0
 12  3  1  0
 12  7  1  0
 12  9  1  0
 13 11  1  0
 14  9  1  0
 14 10  1  0
 17 16  1  0
 19 17  1  0
 19 18  1  0
 20 17  1  0
 20 18  1  0
 21 13  1  0
 21 15  2  0
 21 16  1  0
M  END
$$$$

     RDKit          3D

 20 22  0  0  0  0  0  0  0  0999 V2000
  -25.2844   -7.4908  145.1249 N   0  0  0  0  0  0  0  0  0  0  0  0
  -24.6975   -8.0642  143.9055 C   0  0  0  0  0  0  0  0  0  0  0  0
  -25.9139   -5.2702  144.0675 C   0  0  0  0  0  0  0  0  0  0  0  0
  -22.3546   -7.1329  144.6387 C   0  0  0  0  0  0  0  0  0  0  0  0
  -25.3588   -4.1102  144.8195 N   0  0  0  0  0  0  0  0  0  0  0  0
  -25.5077   -4.0962  146.2811 C   0  0  0  0  0  0  0  0  0  0  0  0
  -23.3397   -7.5091  143.5347 C   0  0  0  0  0  0  0  0  0  0  0  0
  -26.9068   -3.8772  146.6575 N   0  0  0  0  0  0  0  0  0  0  0  0
  -27.5726   -7.1195  144.1092 C   0  0  0  0  0  0  0  0  0  0  0  0
  -27.0467   -4.1786  148.0272 N   0  0  0  0  0  0  0  0  0  0  0  0
  -29.1822   -6.1725  142.3022 C   0  0  0  0  0  0  0  0  0  0  0  0
  -27.7430   -6.2504  142.8580 C   0  0  0  0  0  0  0  0  0  0  0  0
  -22.4180   -8.5504  145.1894 C   0  0  0  0  0  0  0  0  0  0  0  0
  -30.1750   -5.5670  143.2644 C   0  0  0  0  0  0  0  0  0  0  0  0
  -22.8836   -8.6606  146.6463 C   0  0  0  0  0  0  0  0  0  0  0  0
  -23.4669   -8.9312  144.1391 C   0  0  0  0  0  0  0  0  0  0  0  0
  -20.9813   -6.7485  144.0868 C   0  0  0  0  0  0  0  0  0  0  0  0
  -26.3735   -6.5212  144.8746 C   0  0  0  0  0  0  0  0  0  0  0  0
  -27.1280   -4.9000  143.2207 C   0  0  0  0  0  0  0  0  0  0  0  0
  -30.5551   -4.2896  143.1745 C   0  0  0  0  0  0  0  0  0  0  0  0
  2  1  1  0
  5  3  1  0
  6  5  1  0
  7  2  1  0
  7  4  1  0
  8  6  1  0
 10  8  1  0
 12  9  1  0
 12 11  1  0
 13  4  1  0
 14 11  1  0
 15 13  1  0
 16  2  1  0
 16  7  1  0
 16 13  1  0
 17  4  1  0
 18  1  1  0
 18  3  1  0
 18  9  1  0
 19  3  1  0
 19 12  1  0
 20 14  2  0
M  END
$$$$

     RDKit          3D

 21 25  0  0  0  0  0  0  0  0999 V2000
  -22.8253  -11.3160  147.4558 C   0  0  0  0  0  0  0  0  0  0  0  0
  -24.5909  -10.6248  148.5645 C   0  0  0  0  0  0  0  0  0  0  0  0
  -24.9261   -9.8672  147.2674 C   0  0  0  0  0  0  0  0  0  0  0  0
  -23.0270  -12.1803  149.8980 C   0  0  0  0  0  0  0  0  0  0  0  0
  -24.2045  -12.6388  150.6834 N   0  0  0  0  0  0  0  0  0  0  0  0
  -24.6561  -13.9527  150.1009 C   0  0  0  0  0  0  0  0  0  0  0  0
  -23.1406  -10.9655  148.8795 C   0  0  0  0  0  0  0  0  0  0  0  0
  -22.0519  -10.3470  146.8489 O   0  0  0  0  0  0  0  0  0  0  0  0
  -24.3068  -11.1828  147.1393 C   0  0  0  0  0  0  0  0  0  0  0  0
  -26.4253   -9.8818  146.9016 C   0  0  0  0  0  0  0  0  0  0  0  0
  -27.9977  -10.3032  144.9397 C   0  0  0  0  0  0  0  0  0  0  0  0
  -25.5801  -12.8509  150.1816 C   0  0  0  0  0  0  0  0  0  0  0  0
  -27.8268   -8.1055  145.8287 C   0  0  0  0  0  0  0  0  0  0  0  0
  -26.8888   -6.9986  146.1338 C   0  0  0  0  0  0  0  0  0  0  0  0
  -29.1401   -8.6430  146.4588 C   0  0  0  0  0  0  0  0  0  0  0  0
  -30.2049   -7.6932  146.4233 O   0  0  0  0  0  0  0  0  0  0  0  0
  -25.7315   -7.2701  145.1189 C   0  0  0  0  0  0  0  0  0  0  0  0
  -29.3751   -9.8268  145.4776 C   0  0  0  0  0  0  0  0  0  0  0  0
  -25.9540   -8.6654  144.5790 C   0  0  0  0  0  0  0  0  0  0  0  0
  -24.6804   -9.4721  144.1930 C   0  0  0  0  0  0  0  0  0  0  0  0
  -26.9405   -9.3091  145.5593 C   0  0  0  0  0  0  0  0  0  0  0  0
  3  2  1  0
  5  4  1  0
  6  5  1  0
  7  1  1  0
  7  2  1  0
  7  4  1  0
  8  1  1  0
  9  1  1  0
  9  2  1  0
  9  3  1  0
 10  3  1  0
 12  5  1  0
 12  6  1  0
 14 13  1  0
 15 13  1  0
 16 15  1  0
 17 14  1  0
 18 11  1  0
 18 15  1  0
 19 17  1  0
 20 19  1  0
 21 10  1  0
 21 11  1  0
 21 13  1  0
 21 19  1  0
M  END
$$$$

     RDKit          3D

 21 25  0  0  0  0  0  0  0  0999 V2000
  -25.4273    0.9838  146.1444 O   0  0  0  0  0  0  0  0  0  0  0  0
  -26.3337    2.0406  145.9613 C   0  0  0  0  0  0  0  0  0  0  0  0
  -24.2745    1.5401  146.4727 O   0  0  0  0  0  0  0  0  0  0  0  0
  -27.7532    1.5411  145.6181 C   0  0  0  0  0  0  0  0  0  0  0  0
  -28.5403    2.6780  145.3461 O   0  0  0  0  0  0  0  0  0  0  0  0
  -28.5048    0.6299  146.6757 C   0  0  0  0  0  0  0  0  0  0  0  0
  -28.2439    0.8487  148.2018 C   0  0  0  0  0  0  0  0  0  0  0  0
  -28.5751   -0.8170  146.3011 N   0  0  0  0  0  0  0  0  0  0  0  0
  -28.0291   -0.2908  149.1058 C   0  0  0  0  0  0  0  0  0  0  0  0
  -24.0351   -2.2199  145.4291 C   0  0  0  0  0  0  0  0  0  0  0  0
  -27.2826   -1.4243  145.9256 C   0  0  0  0  0  0  0  0  0  0  0  0
  -26.8780    0.5381  148.6821 N   0  0  0  0  0  0  0  0  0  0  0  0
  -23.7153   -3.6114  144.9031 C   0  0  0  0  0  0  0  0  0  0  0  0
  -27.2805   -2.9215  146.2673 C   0  0  0  0  0  0  0  0  0  0  0  0
  -29.6215   -1.0833  145.2899 C   0  0  0  0  0  0  0  0  0  0  0  0
  -25.1269   -3.0601  144.7818 C   0  0  0  0  0  0  0  0  0  0  0  0
  -26.1050   -3.7515  145.7530 C   0  0  0  0  0  0  0  0  0  0  0  0
  -26.5445   -4.9727  145.2121 O   0  0  0  0  0  0  0  0  0  0  0  0
  -26.9003    1.8216  149.4004 C   0  0  0  0  0  0  0  0  0  0  0  0
  -27.4774   -3.9190  145.1403 C   0  0  0  0  0  0  0  0  0  0  0  0
  -28.2639    2.2143  148.8560 C   0  0  0  0  0  0  0  0  0  0  0  0
  2  1  1  0
  3  1  1  0
  4  2  1  0
  5  4  1  0
  6  4  1  0
  7  6  1  0
  8  6  1  0
  9  7  1  0
 11  8  1  0
 12  7  1  0
 12  9  1  0
 13 10  1  0
 14 11  1  0
 15  8  1  0
 16 10  1  0
 16 13  1  0
 17 14  1  0
 17 16  1  0
 18 17  1  0
 19 12  1  0
 20 14  1  0
 20 17  1  0
 20 18  1  0
 21  7  1  0
 21 19  1  0
M  END
$$$$

     RDKit          3D

 13 15  0  0  0  0  0  0  0  0999 V2000
  -27.3796  -21.1003  139.4902 C   0  0  0  0  0  0  0  0  0  0  0  0
  -26.7325  -19.9703  140.3262 C   0  0  0  0  0  0  0  0  0  0  0  0
  -25.7662  -18.9576  139.7048 C   0  0  0  0  0  0  0  0  0  0  0  0
  -27.4585  -21.6902  137.5836 C   0  0  0  0  0  0  0  0  0  0  0  0
  -26.4876  -21.7359  138.6080 O   0  0  0  0  0  0  0  0  0  0  0  0
  -28.4057  -16.2946  139.3853 C   0  0  0  0  0  0  0  0  0  0  0  0
  -26.5572  -17.8304  140.3911 C   0  0  0  0  0  0  0  0  0  0  0  0
  -26.1838  -15.3476  140.0579 C   0  0  0  0  0  0  0  0  0  0  0  0
  -27.2679  -20.5770  136.5713 C   0  0  0  0  0  0  0  0  0  0  0  0
  -28.4149  -20.8480  138.3982 C   0  0  0  0  0  0  0  0  0  0  0  0
  -26.9010  -16.5925  139.4995 C   0  0  0  0  0  0  0  0  0  0  0  0
  -28.2370  -19.7216  137.3754 C   0  0  0  0  0  0  0  0  0  0  0  0
  -27.6497  -18.8385  140.7831 C   0  0  0  0  0  0  0  0  0  0  0  0
  2  1  1  0
  3  2  1  0
  5  1  1  0
  5  4  1  0
  7  3  1  0
  9  4  1  0
 10  1  1  0
 10  4  1  0
 11  6  1  0
 11  7  1  0
 11  8  1  0
 12  9  1  0
 12 10  1  0
 13  2  1  0
 13  7  1  0
M  END
$$$$

     RDKit          3D

 21 25  0  0  0  0  0  0  0  0999 V2000
  -24.5546   -6.7816  137.9235 N   0  0  0  0  0  0  0  0  0  0  0  0
  -23.4775   -7.1071  138.8558 C   0  0  0  0  0  0  0  0  0  0  0  0
  -22.6730   -5.9989  139.3823 N   0  0  0  0  0  0  0  0  0  0  0  0
  -23.6191   -8.3844  139.6616 C   0  0  0  0  0  0  0  0  0  0  0  0
  -22.4208   -9.3133  139.4936 C   0  0  0  0  0  0  0  0  0  0  0  0
  -22.7190  -10.8333  139.3463 C   0  0  0  0  0  0  0  0  0  0  0  0
  -24.1624  -11.1168  139.1797 N   0  0  0  0  0  0  0  0  0  0  0  0
  -21.8740  -11.4412  138.1958 C   0  0  0  0  0  0  0  0  0  0  0  0
  -24.8443  -11.2833  140.4717 C   0  0  0  0  0  0  0  0  0  0  0  0
  -22.6952   -8.2934  138.3956 C   0  0  0  0  0  0  0  0  0  0  0  0
  -26.3591  -11.2037  140.2820 C   0  0  0  0  0  0  0  0  0  0  0  0
  -24.2701   -7.5545  136.7174 C   0  0  0  0  0  0  0  0  0  0  0  0
  -21.5675  -12.9414  138.3866 C   0  0  0  0  0  0  0  0  0  0  0  0
  -26.7524   -9.8675  139.8409 N   0  0  0  0  0  0  0  0  0  0  0  0
  -20.4487  -13.2276  139.4021 C   0  0  0  0  0  0  0  0  0  0  0  0
  -19.0847  -12.7075  138.9139 C   0  0  0  0  0  0  0  0  0  0  0  0
  -18.5799  -11.4802  139.6567 C   0  0  0  0  0  0  0  0  0  0  0  0
  -17.1017  -11.5810  139.9822 C   0  0  0  0  0  0  0  0  0  0  0  0
  -18.2458  -13.6332  141.5713 Br  0  0  0  0  0  0  0  0  0  0  0  0
  -17.8755  -12.8577  139.8155 C   0  0  0  0  0  0  0  0  0  0  0  0
  -23.4308   -8.7509  137.1371 C   0  0  0  0  0  0  0  0  0  0  0  0
  2  1  1  0
  3  2  1  0
  4  2  1  0
  5  4  1  0
  6  5  1  0
  7  6  1  0
  8  6  1  0
  9  7  1  0
 10  2  1  0
 10  4  1  0
 10  5  1  0
 11  9  1  0
 12  1  1  0
 13  8  1  0
 14 11  1  0
 15 13  1  0
 16 15  1  0
 17 16  1  0
 18 17  1  0
 20 16  1  0
 20 17  1  0
 20 18  1  0
 20 19  1  0
 21 10  1  0
 21 12  1  0
M  END
$$$$

     RDKit          3D

 21 22  0  0  0  0  0  0  0  0999 V2000
  -18.4822  -18.0058  138.1189 O   0  0  0  0  0  0  0  0  0  0  0  0
  -19.3622  -17.0756  137.5274 C   0  0  0  0  0  0  0  0  0  0  0  0
  -20.7644  -17.3918  137.8204 N   0  0  0  0  0  0  0  0  0  0  0  0
  -20.9935  -17.5925  136.3883 C   0  0  0  0  0  0  0  0  0  0  0  0
  -19.5539  -17.2231  135.9943 C   0  0  0  0  0  0  0  0  0  0  0  0
  -19.4643  -15.8155  135.3687 C   0  0  0  0  0  0  0  0  0  0  0  0
  -18.6339  -18.3214  135.3095 C   0  0  0  0  0  0  0  0  0  0  0  0
  -19.0621  -19.1660  134.0495 C   0  0  0  0  0  0  0  0  0  0  0  0
  -19.0094  -18.4801  132.6105 C   0  0  0  0  0  0  0  0  0  0  0  0
  -20.1524  -17.4749  132.3614 C   0  0  0  0  0  0  0  0  0  0  0  0
  -20.7386  -18.3609  131.2747 C   0  0  0  0  0  0  0  0  0  0  0  0
  -20.3156  -20.0256  134.3365 C   0  0  0  0  0  0  0  0  0  0  0  0
  -19.6205  -19.3640  131.4813 C   0  0  0  0  0  0  0  0  0  0  0  0
  -17.5817  -17.9758  132.1247 C   0  0  0  0  0  0  0  0  0  0  0  0
  -16.5142  -19.0891  132.2488 C   0  0  0  0  0  0  0  0  0  0  0  0
  -17.0954  -16.6521  132.7829 C   0  0  0  0  0  0  0  0  0  0  0  0
  -16.6377  -15.5764  131.7786 C   0  0  0  0  0  0  0  0  0  0  0  0
  -15.2887  -15.8770  131.1776 C   0  0  0  0  0  0  0  0  0  0  0  0
  -14.1147  -15.5885  131.7673 C   0  0  0  0  0  0  0  0  0  0  0  0
  -13.9909  -14.8897  133.0919 C   0  0  0  0  0  0  0  0  0  0  0  0
  -15.3918  -18.7854  131.4682 O   0  0  0  0  0  0  0  0  0  0  0  0
  2  1  1  0
  3  2  1  0
  4  3  1  0
  5  2  1  0
  5  4  1  0
  6  5  1  0
  7  5  1  0
  8  7  1  0
  9  8  1  0
 10  9  1  0
 11 10  1  0
 12  8  1  0
 13  9  1  0
 13 11  1  0
 14  9  1  0
 15 14  1  0
 16 14  1  0
 17 16  1  0
 18 17  1  0
 19 18  2  3
 20 19  1  0
 21 15  1  0
M  END
$$$$

     RDKit          3D

 17 17  0  0  0  0  0  0  0  0999 V2000
  -19.2266  -10.2479  150.3379 O   0  0  0  0  0  0  0  0  0  0  0  0
  -18.0074  -10.8611  150.7002 C   0  0  0  0  0  0  0  0  0  0  0  0
  -17.1303   -9.9779  151.3509 O   0  0  0  0  0  0  0  0  0  0  0  0
  -19.2609  -11.1227  151.4445 C   0  0  0  0  0  0  0  0  0  0  0  0
  -20.0162  -12.4039  151.1051 C   0  0  0  0  0  0  0  0  0  0  0  0
  -21.5090  -12.2275  151.4185 C   0  0  0  0  0  0  0  0  0  0  0  0
  -22.3338  -13.4087  150.8785 C   0  0  0  0  0  0  0  0  0  0  0  0
  -23.7277  -13.5092  151.5209 C   0  0  0  0  0  0  0  0  0  0  0  0
  -24.8364  -11.5685  150.1484 C   0  0  0  0  0  0  0  0  0  0  0  0
  -25.6019  -12.4604  149.1401 C   0  0  0  0  0  0  0  0  0  0  0  0
  -24.5731  -12.2236  151.5166 C   0  0  0  0  0  0  0  0  0  0  0  0
  -32.4839  -10.0685  148.6466 F   0  0  0  0  0  0  0  0  0  0  0  0
  -30.4059   -9.9207  149.8271 C   0  0  0  0  0  0  0  0  0  0  0  0
  -29.5983  -10.2887  148.5663 C   0  0  0  0  0  0  0  0  0  0  0  0
  -27.1235  -12.4412  149.3567 C   0  0  0  0  0  0  0  0  0  0  0  0
  -31.7276   -9.2467  149.4664 C   0  0  0  0  0  0  0  0  0  0  0  0
  -27.7947  -10.7067  148.9499 P   0  0  0  0  0  0  0  0  0  0  0  0
  2  1  1  0
  3  2  1  0
  4  1  1  0
  4  2  1  0
  5  4  1  0
  6  5  1  0
  7  6  1  0
  8  7  1  0
 10  9  1  0
 11  8  1  0
 11  9  1  0
 14 13  1  0
 15 10  1  0
 16 12  1  0
 16 13  1  0
 17 14  1  0
 17 15  1  0
M  END
$$$$

     RDKit          3D

 20 23  0  0  0  0  0  0  0  0999 V2000
  -26.4572   -7.0619  139.3312 O   0  0  0  0  0  0  0  0  0  0  0  0
  -25.9826   -6.8027  140.6139 C   0  0  0  0  0  0  0  0  0  0  0  0
  -25.9077   -5.6082  141.0058 O   0  0  0  0  0  0  0  0  0  0  0  0
  -25.4909   -7.9141  141.4952 C   0  0  0  0  0  0  0  0  0  0  0  0
  -25.5545   -6.5993  145.5229 O   0  0  0  0  0  0  0  0  0  0  0  0
  -26.8441   -6.7989  145.3200 O   0  0  0  0  0  0  0  0  0  0  0  0
  -26.9265   -7.5152  143.1282 O   0  0  0  0  0  0  0  0  0  0  0  0
  -25.6294   -7.5740  142.8600 O   0  0  0  0  0  0  0  0  0  0  0  0
  -27.1067   -6.4198  143.9906 C   0  0  0  0  0  0  0  0  0  0  0  0
  -26.4533   -8.3484  138.7148 C   0  0  0  0  0  0  0  0  0  0  0  0
  -26.2242   -9.2591  141.1855 C   0  0  0  0  0  0  0  0  0  0  0  0
  -25.6462  -10.5364  141.8058 C   0  0  0  0  0  0  0  0  0  0  0  0
  -24.3852  -10.5263  142.6879 C   0  0  0  0  0  0  0  0  0  0  0  0
  -25.3926   -8.4120  137.5807 C   0  0  0  0  0  0  0  0  0  0  0  0
  -23.9418   -8.1192  137.9512 C   0  0  0  0  0  0  0  0  0  0  0  0
  -24.7703  -10.5883  144.1614 C   0  0  0  0  0  0  0  0  0  0  0  0
  -23.5361   -9.4883  137.4133 C   0  0  0  0  0  0  0  0  0  0  0  0
  -26.5883   -9.5271  139.7222 C   0  0  0  0  0  0  0  0  0  0  0  0
  -25.3818  -10.2241  140.3387 C   0  0  0  0  0  0  0  0  0  0  0  0
  -24.9900   -9.7938  137.0670 C   0  0  0  0  0  0  0  0  0  0  0  0
  2  1  1  0
  3  2  2  0
  4  2  1  0
  6  5  1  0
  8  4  1  0
  8  7  1  0
  9  6  1  0
  9  7  1  0
 10  1  1  0
 11  4  1  0
 12 11  1  0
 13 12  1  0
 14 10  1  0
 15 14  1  0
 16 13  1  0
 17 15  1  0
 18 10  1  0
 18 11  1  0
 19 11  1  0
 19 12  1  0
 19 18  1  0
 20 14  1  0
 20 17  1  0
M  END
$$$$

     RDKit          3D

 10 11  0  0  0  0  0  0  0  0999 V2000
  -23.3840   -6.1066  143.0469 O   0  0  0  0  0  0  0  0  0  0  0  0
  -24.7077   -6.3963  142.6552 C   0  0  0  0  0  0  0  0  0  0  0  0
  -25.3638   -7.3858  143.3963 O   0  0  0  0  0  0  0  0  0  0  0  0
  -25.5004   -5.5191  141.7236 C   0  0  0  0  0  0  0  0  0  0  0  0
  -23.7687   -4.8744  143.5929 C   0  0  0  0  0  0  0  0  0  0  0  0
  -24.7235   -4.9653  140.7068 O   0  0  0  0  0  0  0  0  0  0  0  0
  -22.9228   -3.6595  143.1003 C   0  0  0  0  0  0  0  0  0  0  0  0
  -25.2039   -5.0054  143.1160 C   0  0  0  0  0  0  0  0  0  0  0  0
  -21.9330   -3.9855  141.9703 C   0  0  0  0  0  0  0  0  0  0  0  0
  -23.7772   -2.4318  142.7558 C   0  0  0  0  0  0  0  0  0  0  0  0
  2  1  1  0
  3  2  1  0
  4  2  1  0
  5  1  1  0
  6  4  1  0
  7  5  1  0
  8  2  1  0
  8  4  1  0
  8  5  1  0
  9  7  1  0
 10  7  1  0
M  END
$$$$

     RDKit          3D

 21 25  0  0  0  0  0  0  0  0999 V2000
  -22.6259  -21.6292  149.9411 F   0  0  0  0  0  0  0  0  0  0  0  0
  -23.2609  -20.7701  149.0597 C   0  0  0  0  0  0  0  0  0  0  0  0
  -22.4137  -20.1266  147.9471 C   0  0  0  0  0  0  0  0  0  0  0  0
  -24.7663  -20.9805  148.8272 C   0  0  0  0  0  0  0  0  0  0  0  0
  -21.0629  -20.8407  147.6722 C   0  0  0  0  0  0  0  0  0  0  0  0
  -19.8433  -19.8980  147.5732 C   0  0  0  0  0  0  0  0  0  0  0  0
  -22.8458  -19.3050  149.1925 C   0  0  0  0  0  0  0  0  0  0  0  0
  -19.8030  -18.9874  148.7889 C   0  0  0  0  0  0  0  0  0  0  0  0
  -25.1275  -22.4804  148.7081 C   0  0  0  0  0  0  0  0  0  0  0  0
  -19.7136  -19.8359  150.0765 C   0  0  0  0  0  0  0  0  0  0  0  0
  -24.5181  -23.1552  147.5426 N   0  0  0  0  0  0  0  0  0  0  0  0
  -20.8581  -19.5907  151.0701 C   0  0  0  0  0  0  0  0  0  0  0  0
  -24.7891  -22.5019  146.2578 C   0  0  0  0  0  0  0  0  0  0  0  0
  -22.1297  -18.8988  150.5234 C   0  0  0  0  0  0  0  0  0  0  0  0
  -18.9855  -21.1913  150.2166 C   0  0  0  0  0  0  0  0  0  0  0  0
  -26.6472  -22.6885  148.7392 C   0  0  0  0  0  0  0  0  0  0  0  0
  -18.6673  -18.7623  149.7672 C   0  0  0  0  0  0  0  0  0  0  0  0
  -26.1431  -22.8987  145.6083 C   0  0  0  0  0  0  0  0  0  0  0  0
  -26.6339  -21.4899  145.1689 C   0  0  0  0  0  0  0  0  0  0  0  0
  -24.7817  -23.4906  145.1571 C   0  0  0  0  0  0  0  0  0  0  0  0
  -26.8060  -22.6136  144.2332 C   0  0  0  0  0  0  0  0  0  0  0  0
  2  1  1  0
  3  2  1  0
  4  2  1  0
  5  3  1  0
  6  5  1  0
  7  2  1  0
  7  3  1  0
  8  6  1  0
  9  4  1  0
 10  8  1  0
 11  9  1  0
 12 10  1  0
 13 11  1  0
 14  7  1  0
 14 12  1  0
 15 10  1  0
 16  9  1  0
 17  8  1  0
 17 10  1  0
 18 13  1  0
 19 18  1  0
 20 13  1  0
 20 18  1  0
 21 18  1  0
 21 19  1  0
M  END
$$$$

     RDKit          3D

 20 25  0  0  0  0  0  0  0  0999 V2000
  -25.5567  -13.6971  142.0553 N   0  0  0  0  0  0  0  0  0  0  0  0
  -26.6891  -14.4219  141.4783 C   0  0  0  0  0  0  0  0  0  0  0  0
  -26.2876  -15.6294  140.7582 N   0  0  0  0  0  0  0  0  0  0  0  0
  -25.6263  -12.7573  140.9291 C   0  0  0  0  0  0  0  0  0  0  0  0
  -27.2510  -16.7475  140.6067 C   0  0  0  0  0  0  0  0  0  0  0  0
  -26.7193  -13.5656  140.2448 C   0  0  0  0  0  0  0  0  0  0  0  0
  -27.3121  -17.5564  141.9070 C   0  0  0  0  0  0  0  0  0  0  0  0
  -28.5902  -16.9890  141.3296 C   0  0  0  0  0  0  0  0  0  0  0  0
  -26.3171  -14.8335  139.5139 C   0  0  0  0  0  0  0  0  0  0  0  0
  -28.0578  -13.0262  139.9465 N   0  0  0  0  0  0  0  0  0  0  0  0
  -30.0338  -11.9595  140.8020 N   0  0  0  0  0  0  0  0  0  0  0  0
  -30.5016  -14.3459  141.4487 C   0  0  0  0  0  0  0  0  0  0  0  0
  -29.7792  -15.0018  142.3198 N   0  0  0  0  0  0  0  0  0  0  0  0
  -31.1991  -15.0471  140.4000 N   0  0  0  0  0  0  0  0  0  0  0  0
  -29.6004  -16.4495  142.3068 C   0  0  0  0  0  0  0  0  0  0  0  0
  -28.5737  -12.0584  140.9214 C   0  0  0  0  0  0  0  0  0  0  0  0
  -31.5727  -14.4380  139.1295 C   0  0  0  0  0  0  0  0  0  0  0  0
  -30.7636  -12.8742  141.6996 C   0  0  0  0  0  0  0  0  0  0  0  0
  -27.3380  -19.0820  141.7583 C   0  0  0  0  0  0  0  0  0  0  0  0
  -28.3354  -17.0112  142.8837 C   0  0  0  0  0  0  0  0  0  0  0  0
  2  1  1  0
  3  2  1  0
  4  1  1  0
  5  3  1  0
  6  2  1  0
  6  4  1  0
  7  5  1  0
  8  5  1  0
  8  7  1  0
  9  3  1  0
  9  6  1  0
 10  6  1  0
 13 12  2  3
 14 12  1  0
 15  8  1  0
 15 13  1  0
 16 10  1  0
 16 11  1  0
 17 14  1  0
 18 11  1  0
 18 12  1  0
 19  7  1  0
 20  7  1  0
 20  8  1  0
 20 15  1  0
M  END
$$$$

     RDKit          3D

 21 24  0  0  0  0  0  0  0  0999 V2000
  -30.6692   -5.4286  139.2942 O   0  0  0  0  0  0  0  0  0  0  0  0
  -30.3060   -4.4869  140.0467 C   0  0  0  0  0  0  0  0  0  0  0  0
  -31.0068   -4.2974  141.2541 O   0  0  0  0  0  0  0  0  0  0  0  0
  -28.1790   -3.0973  140.5397 C   0  0  0  0  0  0  0  0  0  0  0  0
  -28.6772   -2.6533  141.9353 C   0  0  0  0  0  0  0  0  0  0  0  0
  -28.7716   -3.6317  144.2508 C   0  0  0  0  0  0  0  0  0  0  0  0
  -29.7987   -2.8514  145.1135 C   0  0  0  0  0  0  0  0  0  0  0  0
  -29.2929   -2.8231  146.5524 C   0  0  0  0  0  0  0  0  0  0  0  0
  -29.1359   -3.8572  142.7615 C   0  0  0  0  0  0  0  0  0  0  0  0
  -30.3085   -1.4373  144.5866 C   0  0  0  0  0  0  0  0  0  0  0  0
  -30.5833   -3.5195  142.3793 C   0  0  0  0  0  0  0  0  0  0  0  0
  -29.9102   -0.2365  145.5138 C   0  0  0  0  0  0  0  0  0  0  0  0
  -28.4051    0.1823  145.4649 C   0  0  0  0  0  0  0  0  0  0  0  0
  -28.0532    1.1769  144.3314 C   0  0  0  0  0  0  0  0  0  0  0  0
  -30.2732   -1.0490  143.0616 C   0  0  0  0  0  0  0  0  0  0  0  0
  -27.1567    2.3288  144.8072 C   0  0  0  0  0  0  0  0  0  0  0  0
  -30.1153   -2.1288  141.9683 C   0  0  0  0  0  0  0  0  0  0  0  0
  -29.2593   -3.5272  139.5265 C   0  0  0  0  0  0  0  0  0  0  0  0
  -29.5485   -1.8203  147.4021 C   0  0  0  0  0  0  0  0  0  0  0  0
  -30.3081   -0.6068  146.9606 C   0  0  0  0  0  0  0  0  0  0  0  0
  -26.7963    3.2515  143.6451 C   0  0  0  0  0  0  0  0  0  0  0  0
  2  1  2  0
  3  2  1  0
  5  4  1  0
  7  6  1  0
  8  7  1  0
  9  5  1  0
  9  6  1  0
 10  7  1  0
 11  3  1  0
 11  9  1  0
 12 10  1  0
 13 12  1  0
 14 13  1  0
 15 10  1  0
 16 14  1  0
 17  5  1  0
 17 11  1  0
 17 15  1  0
 18  2  1  0
 18  4  1  0
 19  8  2  0
 20 12  1  0
 20 19  1  0
 21 16  1  0
M  END
$$$$

     RDKit          3D

 21 23  0  0  0  0  0  0  0  0999 V2000
  -26.6505  -25.3174  140.2182 N   0  0  0  0  0  0  0  0  0  0  0  0
  -26.4361  -26.3236  141.2816 C   0  0  0  0  0  0  0  0  0  0  0  0
  -25.7259  -25.8410  142.3964 O   0  0  0  0  0  0  0  0  0  0  0  0
  -26.1743  -23.9492  140.5172 C   0  0  0  0  0  0  0  0  0  0  0  0
  -25.5616  -27.1999  140.3985 C   0  0  0  0  0  0  0  0  0  0  0  0
  -27.2263  -23.1470  141.3075 C   0  0  0  0  0  0  0  0  0  0  0  0
  -25.8193  -26.1513  139.3179 C   0  0  0  0  0  0  0  0  0  0  0  0
  -24.5935  -25.5131  138.5742 C   0  0  0  0  0  0  0  0  0  0  0  0
  -23.2401  -25.3883  139.3482 C   0  0  0  0  0  0  0  0  0  0  0  0
  -22.3663  -26.6534  139.1641 C   0  0  0  0  0  0  0  0  0  0  0  0
  -21.8822  -26.7754  137.7506 C   0  0  0  0  0  0  0  0  0  0  0  0
  -21.6167  -25.6986  137.0028 C   0  0  0  0  0  0  0  0  0  0  0  0
  -22.3693  -24.1518  138.9446 C   0  0  0  0  0  0  0  0  0  0  0  0
  -27.4599  -23.7407  142.5564 O   0  0  0  0  0  0  0  0  0  0  0  0
  -21.6911  -24.2743  137.5267 C   0  0  0  0  0  0  0  0  0  0  0  0
  -20.2470  -23.7016  137.5501 C   0  0  0  0  0  0  0  0  0  0  0  0
  -28.5430  -23.0291  140.5304 C   0  0  0  0  0  0  0  0  0  0  0  0
  -23.0776  -22.8042  139.3027 C   0  0  0  0  0  0  0  0  0  0  0  0
  -19.7562  -23.2865  136.1610 C   0  0  0  0  0  0  0  0  0  0  0  0
  -22.6109  -21.5228  138.6120 C   0  0  0  0  0  0  0  0  0  0  0  0
  -23.9786  -22.0996  138.2925 C   0  0  0  0  0  0  0  0  0  0  0  0
  2  1  1  0
  3  2  1  0
  4  1  1  0
  5  2  1  0
  6  4  1  0
  7  1  1  0
  7  5  1  0
  8  7  1  0
  9  8  1  0
 10  9  1  0
 11 10  1  0
 12 11  2  0
 13  9  1  0
 14  6  1  0
 15 12  1  0
 15 13  1  0
 16 15  1  0
 17  6  1  0
 18 13  1  0
 19 16  1  0
 20 18  1  0
 21 18  1  0
 21 20  1  0
M  END
$$$$

     RDKit          3D

 20 21  0  0  0  0  0  0  0  0999 V2000
  -26.1498  -24.2618  141.0017 O   0  0  0  0  0  0  0  0  0  0  0  0
  -28.3608  -27.2444  141.8547 O   0  0  0  0  0  0  0  0  0  0  0  0
  -24.9933  -24.8384  141.2894 O   0  0  0  0  0  0  0  0  0  0  0  0
  -29.3296  -22.9754  138.7305 O   0  0  0  0  0  0  0  0  0  0  0  0
  -25.0737  -26.1991  140.9063 C   0  0  0  0  0  0  0  0  0  0  0  0
  -25.8613  -23.0806  140.2824 C   0  0  0  0  0  0  0  0  0  0  0  0
  -25.5571  -21.9756  141.2020 C   0  0  0  0  0  0  0  0  0  0  0  0
  -26.2150  -26.9350  141.6536 C   0  0  0  0  0  0  0  0  0  0  0  0
  -27.1057  -22.5356  139.5455 C   0  0  0  0  0  0  0  0  0  0  0  0
  -25.4879  -29.7479  139.4894 O   0  0  0  0  0  0  0  0  0  0  0  0
  -26.5862  -20.9238  141.1055 C   0  0  0  0  0  0  0  0  0  0  0  0
  -27.4798  -21.2739  140.0765 O   0  0  0  0  0  0  0  0  0  0  0  0
  -24.4738  -21.8982  141.9841 C   0  0  0  0  0  0  0  0  0  0  0  0
  -25.0938  -26.3292  139.3561 C   0  0  0  0  0  0  0  0  0  0  0  0
  -28.8238  -23.5537  140.8827 O   0  0  0  0  0  0  0  0  0  0  0  0
  -27.4754  -26.5464  141.1697 O   0  0  0  0  0  0  0  0  0  0  0  0
  -28.3249  -23.4782  139.5729 C   0  0  0  0  0  0  0  0  0  0  0  0
  -24.7123  -27.6148  138.6764 C   0  0  0  0  0  0  0  0  0  0  0  0
  -26.0586  -27.2407  138.8845 O   0  0  0  0  0  0  0  0  0  0  0  0
  -24.3739  -28.8977  139.4518 C   0  0  0  0  0  0  0  0  0  0  0  0
  3  1  1  0
  5  3  1  0
  6  1  1  0
  7  6  1  0
  8  5  1  0
  9  6  1  0
 11  7  1  0
 12  9  1  0
 12 11  1  0
 13  7  2  0
 14  5  1  0
 16  2  1  0
 16  8  1  0
 17  4  1  0
 17  9  1  0
 17 15  1  0
 18 14  1  0
 19 14  1  0
 19 18  1  0
 20 10  1  0
 20 18  1  0
M  END
$$$$

     RDKit          3D

 21 24  0  0  0  0  0  0  0  0999 V2000
  -26.5872   -6.0466  134.7497 O   0  0  0  0  0  0  0  0  0  0  0  0
  -27.1972   -7.2814  135.0768 C   0  0  0  0  0  0  0  0  0  0  0  0
  -28.6520   -6.9884  135.3469 C   0  0  0  0  0  0  0  0  0  0  0  0
  -29.2185   -7.5338  136.6772 C   0  0  0  0  0  0  0  0  0  0  0  0
  -26.8742   -8.2631  133.9849 N   0  0  0  0  0  0  0  0  0  0  0  0
  -30.6356   -9.4536  137.3058 N   0  0  0  0  0  0  0  0  0  0  0  0
  -28.3187   -7.9809  134.2648 C   0  0  0  0  0  0  0  0  0  0  0  0
  -28.2633   -8.5200  137.3101 N   0  0  0  0  0  0  0  0  0  0  0  0
  -28.0807   -9.7842  136.9723 C   0  0  0  0  0  0  0  0  0  0  0  0
  -29.9408  -11.3365  135.9920 C   0  0  0  0  0  0  0  0  0  0  0  0
  -31.1594  -10.5879  136.5575 C   0  0  0  0  0  0  0  0  0  0  0  0
  -28.7622  -10.4439  135.9126 O   0  0  0  0  0  0  0  0  0  0  0  0
  -32.3323  -10.0708  135.5921 C   0  0  0  0  0  0  0  0  0  0  0  0
  -32.0504  -11.6048  132.3939 I   0  0  0  0  0  0  0  0  0  0  0  0
  -33.0177   -8.8993  136.4277 C   0  0  0  0  0  0  0  0  0  0  0  0
  -32.0608   -7.6238  136.5663 C   0  0  0  0  0  0  0  0  0  0  0  0
  -30.6481   -8.1864  136.5223 C   0  0  0  0  0  0  0  0  0  0  0  0
  -24.9989   -7.3850  132.5295 C   0  0  0  0  0  0  0  0  0  0  0  0
  -26.4865   -7.6882  132.6563 C   0  0  0  0  0  0  0  0  0  0  0  0
  -32.6998  -12.4713  134.6236 S   0  0  0  0  0  0  0  0  0  0  0  0
  -33.3445  -10.9883  135.2965 O   0  0  0  0  0  0  0  0  0  0  0  0
  2  1  1  0
  3  2  1  0
  4  3  1  0
  5  2  1  0
  7  2  1  0
  7  3  1  0
  7  5  1  0
  8  4  1  0
  9  8  2  3
 11  6  1  0
 11 10  1  0
 12  9  1  0
 12 10  1  0
 13 11  1  0
 15 13  1  0
 16 15  1  0
 17  4  1  0
 17  6  1  0
 17 16  1  0
 19  5  1  0
 19 18  1  0
 20 14  1  0
 21 13  1  0
 21 20  1  0
M  END
$$$$

     RDKit          3D

 21 25  0  0  0  0  0  0  0  0999 V2000
  -18.4297   -4.3247  140.2728 O   0  0  0  0  0  0  0  0  0  0  0  0
  -17.6833   -3.3576  140.9780 C   0  0  0  0  0  0  0  0  0  0  0  0
  -16.2063   -3.9119  141.2764 C   0  0  0  0  0  0  0  0  0  0  0  0
  -15.6393   -3.7647  142.6859 C   0  0  0  0  0  0  0  0  0  0  0  0
  -15.2638   -4.6772  143.6133 C   0  0  0  0  0  0  0  0  0  0  0  0
  -15.2961   -6.1880  143.5653 C   0  0  0  0  0  0  0  0  0  0  0  0
  -16.6871   -6.7608  143.8467 C   0  0  0  0  0  0  0  0  0  0  0  0
  -18.5806   -2.8302  142.1652 C   0  0  0  0  0  0  0  0  0  0  0  0
  -15.8590   -5.2367  140.5574 C   0  0  0  0  0  0  0  0  0  0  0  0
  -18.0449   -1.5420  142.8468 C   0  0  0  0  0  0  0  0  0  0  0  0
  -17.5314   -1.8720  139.6970 Br  0  0  0  0  0  0  0  0  0  0  0  0
  -18.7730   -0.3066  142.5194 C   0  0  0  0  0  0  0  0  0  0  0  0
  -18.8899   -3.9217  143.2146 C   0  0  0  0  0  0  0  0  0  0  0  0
  -18.2377    0.9400  143.1928 C   0  0  0  0  0  0  0  0  0  0  0  0
  -18.4620    0.1956  144.4894 C   0  0  0  0  0  0  0  0  0  0  0  0
  -16.6207   -8.2562  144.1670 C   0  0  0  0  0  0  0  0  0  0  0  0
  -19.0130   -0.9849  143.8166 N   0  0  0  0  0  0  0  0  0  0  0  0
  -17.7946   -9.2620  144.0660 C   0  0  0  0  0  0  0  0  0  0  0  0
  -17.1593   -9.7414  145.4097 C   0  0  0  0  0  0  0  0  0  0  0  0
  -16.7122   -8.3573  145.7015 C   0  0  0  0  0  0  0  0  0  0  0  0
  -15.7620   -9.1838  145.0076 C   0  0  0  0  0  0  0  0  0  0  0  0
  2  1  1  0
  3  2  1  0
  4  3  1  0
  5  4  2  3
  6  5  1  0
  7  6  1  0
  8  2  1  0
  9  3  1  0
 10  8  1  0
 11  2  1  0
 12 10  1  0
 13  8  1  0
 14 12  1  0
 15 14  1  0
 16  7  1  0
 17 10  1  0
 17 12  1  0
 17 15  1  0
 18 16  1  0
 19 18  1  0
 20 16  1  0
 20 19  1  0
 21 16  1  0
 21 19  1  0
 21 20  1  0
M  END
$$$$

     RDKit          3D

 21 22  0  0  0  0  0  0  0  0999 V2000
  -28.5902   -4.5656  142.6890 O   0  0  0  0  0  0  0  0  0  0  0  0
  -29.0617   -5.1786  143.9491 C   0  0  0  0  0  0  0  0  0  0  0  0
  -27.9562   -5.8165  144.5482 O   0  0  0  0  0  0  0  0  0  0  0  0
  -29.9942   -6.3394  143.5902 C   0  0  0  0  0  0  0  0  0  0  0  0
  -31.2604   -4.7934  142.0792 C   0  0  0  0  0  0  0  0  0  0  0  0
  -30.7290   -3.4988  142.1288 O   0  0  0  0  0  0  0  0  0  0  0  0
  -31.1533   -5.4037  143.5375 N   0  0  0  0  0  0  0  0  0  0  0  0
  -27.9769   -0.1180  140.3971 C   0  0  0  0  0  0  0  0  0  0  0  0
  -29.3356   -3.4421  142.1979 C   0  0  0  0  0  0  0  0  0  0  0  0
  -30.5767   -5.6681  140.8153 C   0  0  0  0  0  0  0  0  0  0  0  0
  -28.6403   -2.1461  142.6679 C   0  0  0  0  0  0  0  0  0  0  0  0
  -30.3773   -4.5565  144.5911 C   0  0  0  0  0  0  0  0  0  0  0  0
  -27.1064   -0.3508  141.6288 C   0  0  0  0  0  0  0  0  0  0  0  0
  -26.6133   -2.7988  140.9575 C   0  0  0  0  0  0  0  0  0  0  0  0
  -29.2816    1.9414  141.3063 C   0  0  0  0  0  0  0  0  0  0  0  0
  -27.1874   -1.8580  142.0309 C   0  0  0  0  0  0  0  0  0  0  0  0
  -30.7109    2.5059  141.2344 C   0  0  0  0  0  0  0  0  0  0  0  0
  -28.9717    1.0035  140.1676 C   0  0  0  0  0  0  0  0  0  0  0  0
  -32.6115    3.6597  142.6629 C   0  0  0  0  0  0  0  0  0  0  0  0
  -30.2225    3.8309  143.4093 C   0  0  0  0  0  0  0  0  0  0  0  0
  -31.1288    3.7663  142.1638 C   0  0  0  0  0  0  0  0  0  0  0  0
  2  1  1  0
  3  2  1  0
  4  2  1  0
  6  5  1  0
  7  4  1  0
  7  5  1  0
  9  1  1  0
  9  6  1  0
 10  5  1  0
 11  9  1  0
 12  2  1  0
 12  7  1  0
 13  8  1  0
 16 11  1  0
 16 13  1  0
 16 14  1  0
 17 15  1  0
 18  8  1  0
 18 15  1  0
 21 17  1  0
 21 19  1  0
 21 20  1  0
M  END
$$$$

     RDKit          3D

 21 26  0  0  0  0  0  0  0  0999 V2000
  -27.4057   -7.3664  139.7655 C   0  0  0  0  0  0  0  0  0  0  0  0
  -26.4200   -8.3291  141.4219 C   0  0  0  0  0  0  0  0  0  0  0  0
  -25.5032   -9.5762  141.3785 C   0  0  0  0  0  0  0  0  0  0  0  0
  -26.0497   -7.2143  140.4444 C   0  0  0  0  0  0  0  0  0  0  0  0
  -27.7931   -8.4548  140.7602 C   0  0  0  0  0  0  0  0  0  0  0  0
  -25.4308  -10.3240  140.0233 C   0  0  0  0  0  0  0  0  0  0  0  0
  -22.9052  -10.6812  139.8483 C   0  0  0  0  0  0  0  0  0  0  0  0
  -24.2876  -11.3625  139.9453 C   0  0  0  0  0  0  0  0  0  0  0  0
  -24.4311  -12.4210  141.0672 C   0  0  0  0  0  0  0  0  0  0  0  0
  -23.5498  -12.2489  142.2696 C   0  0  0  0  0  0  0  0  0  0  0  0
  -24.1044  -12.8391  143.5578 C   0  0  0  0  0  0  0  0  0  0  0  0
  -23.5246  -14.1993  143.9026 C   0  0  0  0  0  0  0  0  0  0  0  0
  -23.1159  -13.7171  141.0632 P   0  0  0  0  0  0  0  0  0  0  0  0
  -24.3269  -15.4549  143.4548 C   0  0  0  0  0  0  0  0  0  0  0  0
  -25.4200  -15.7902  144.4470 C   0  0  0  0  0  0  0  0  0  0  0  0
  -23.4306  -16.6695  143.1248 C   0  0  0  0  0  0  0  0  0  0  0  0
  -25.2446  -16.3244  145.6685 C   0  0  0  0  0  0  0  0  0  0  0  0
  -22.7969  -13.3623  142.8657 C   0  0  0  0  0  0  0  0  0  0  0  0
  -23.9149  -16.6781  146.2779 C   0  0  0  0  0  0  0  0  0  0  0  0
  -23.1466  -17.7098  145.4484 C   0  0  0  0  0  0  0  0  0  0  0  0
  -22.4524  -17.0887  144.2326 C   0  0  0  0  0  0  0  0  0  0  0  0
  3  2  1  0
  4  1  1  0
  4  2  1  0
  5  1  1  0
  5  2  1  0
  6  3  1  0
  8  6  1  0
  8  7  1  0
  9  8  1  0
 10  9  1  0
 11 10  1  0
 12 11  1  0
 13  9  1  0
 13 10  1  0
 14 12  1  0
 15 14  1  0
 16 14  1  0
 17 15  2  0
 18 10  1  0
 18 11  1  0
 18 12  1  0
 18 13  1  0
 19 17  1  0
 20 19  1  0
 21 16  1  0
 21 20  1  0
M  END
$$$$

     RDKit          3D

 21 25  0  0  0  0  0  0  0  0999 V2000
  -30.1972   -9.1976  147.6174 O   0  0  0  0  0  0  0  0  0  0  0  0
  -29.6108   -8.4637  146.5869 C   0  0  0  0  0  0  0  0  0  0  0  0
  -30.3370   -7.5377  145.6231 C   0  0  0  0  0  0  0  0  0  0  0  0
  -31.8012   -7.2324  146.0032 C   0  0  0  0  0  0  0  0  0  0  0  0
  -30.0103   -8.9754  145.2066 C   0  0  0  0  0  0  0  0  0  0  0  0
  -28.1898   -8.6707  146.9908 C   0  0  0  0  0  0  0  0  0  0  0  0
  -32.1538   -6.2385  143.8221 N   0  0  0  0  0  0  0  0  0  0  0  0
  -33.2481   -8.2936  144.2819 C   0  0  0  0  0  0  0  0  0  0  0  0
  -34.6459   -8.1234  143.8571 N   0  0  0  0  0  0  0  0  0  0  0  0
  -32.7154   -7.0358  144.8490 N   0  0  0  0  0  0  0  0  0  0  0  0
  -35.4814   -7.5275  144.9140 C   0  0  0  0  0  0  0  0  0  0  0  0
  -28.8899   -9.4549  148.1125 C   0  0  0  0  0  0  0  0  0  0  0  0
  -35.2931   -8.1860  146.2166 N   0  0  0  0  0  0  0  0  0  0  0  0
  -36.5305   -9.6816  144.8993 O   0  0  0  0  0  0  0  0  0  0  0  0
  -36.5863   -8.3821  146.8923 C   0  0  0  0  0  0  0  0  0  0  0  0
  -37.1271   -7.1010  147.5541 C   0  0  0  0  0  0  0  0  0  0  0  0
  -36.0588   -6.2288  148.2337 C   0  0  0  0  0  0  0  0  0  0  0  0
  -35.1445   -7.0224  149.1844 C   0  0  0  0  0  0  0  0  0  0  0  0
  -35.6982   -7.3116  150.5700 C   0  0  0  0  0  0  0  0  0  0  0  0
  -36.5550   -8.3836  145.4286 C   0  0  0  0  0  0  0  0  0  0  0  0
  -34.6393   -6.2302  150.3837 C   0  0  0  0  0  0  0  0  0  0  0  0
  2  1  1  0
  3  2  1  0
  4  3  1  0
  5  2  1  0
  5  3  1  0
  6  2  1  0
  9  8  1  0
 10  4  1  0
 10  7  1  0
 10  8  1  0
 11  9  1  0
 12  1  1  0
 12  6  1  0
 13 11  1  0
 15 13  1  0
 16 15  1  0
 17 16  1  0
 18 17  1  0
 19 18  1  0
 20 11  1  0
 20 13  1  0
 20 14  1  0
 20 15  1  0
 21 18  1  0
 21 19  1  0
M  END
$$$$

     RDKit          3D

 11 14  0  0  0  0  0  0  0  0999 V2000
  -33.4361  -13.2050  135.7534 P   0  0  0  0  0  0  0  0  0  0  0  0
  -33.2589  -12.8491  137.4450 O   0  0  0  0  0  0  0  0  0  0  0  0
  -33.0831  -14.7567  136.4525 O   0  0  0  0  0  0  0  0  0  0  0  0
  -35.1610  -13.3994  135.8272 O   0  0  0  0  0  0  0  0  0  0  0  0
  -32.9828  -14.1932  137.7294 C   0  0  0  0  0  0  0  0  0  0  0  0
  -31.1822  -13.2875  139.1528 C   0  0  0  0  0  0  0  0  0  0  0  0
  -31.4946  -15.2143  139.9128 C   0  0  0  0  0  0  0  0  0  0  0  0
  -32.6788  -15.6305  139.1935 C   0  0  0  0  0  0  0  0  0  0  0  0
  -33.8769  -14.8322  138.7327 C   0  0  0  0  0  0  0  0  0  0  0  0
  -31.2903  -13.8625  140.5246 C   0  0  0  0  0  0  0  0  0  0  0  0
  -31.6737  -14.6076  138.4694 C   0  0  0  0  0  0  0  0  0  0  0  0
  2  1  1  0
  3  1  1  0
  4  1  1  0
  5  2  1  0
  5  3  1  0
  8  7  1  0
  9  5  1  0
  9  8  1  0
 10  6  1  0
 10  7  1  0
 11  5  1  0
 11  6  1  0
 11  7  1  0
 11  8  1  0
M  END
$$$$

     RDKit          3D

 21 23  0  0  0  0  0  0  0  0999 V2000
  -34.9919   -7.0522  145.0871 O   0  0  0  0  0  1  0  0  0  0  0  0
  -34.5290   -8.2441  145.1900 N   0  0  0  0  0  2  0  0  0  0  0  0
  -34.3733   -8.6664  143.9570 C   0  0  0  0  0  0  0  0  0  0  0  0
  -35.0190   -8.2621  142.9831 O   0  0  0  0  0  0  0  0  0  0  0  0
  -34.8506   -7.3792  146.4088 C   0  0  0  0  0  0  0  0  0  0  0  0
  -36.1773   -7.7431  147.0731 C   0  0  0  0  0  0  0  0  0  0  0  0
  -33.4442   -9.8999  143.6943 C   0  0  0  0  0  0  0  0  0  0  0  0
  -36.3697   -9.1906  147.2098 C   0  0  0  0  0  0  0  0  0  0  0  0
  -36.6786   -9.6917  148.5281 C   0  0  0  0  0  0  0  0  0  0  0  0
  -37.5740   -9.1620  147.5757 C   0  0  0  0  0  0  0  0  0  0  0  0
  -32.2337   -9.7431  142.8350 C   0  0  0  0  0  0  0  0  0  0  0  0
  -32.3198  -10.3706  141.5221 C   0  0  0  0  0  0  0  0  0  0  0  0
  -31.9791   -9.6196  140.3368 C   0  0  0  0  0  0  0  0  0  0  0  0
  -37.3534   -6.8775  147.3841 C   0  0  0  0  0  0  0  0  0  0  0  0
  -32.9770   -8.6831  140.7798 C   0  0  0  0  0  0  0  0  0  0  0  0
  -33.0857   -7.3962  140.1177 C   0  0  0  0  0  0  0  0  0  0  0  0
  -31.9996   -6.5027  140.1603 C   0  0  0  0  0  0  0  0  0  0  0  0
  -30.6778   -6.6615  140.5789 C   0  0  0  0  0  0  0  0  0  0  0  0
  -33.8161   -7.6487  141.3087 C   0  0  0  0  0  0  0  0  0  0  0  0
  -30.3154   -7.9657  140.9996 C   0  0  0  0  0  0  0  0  0  0  0  0
  -31.1335   -9.0876  140.7371 C   0  0  0  0  0  0  0  0  0  0  0  0
  3  2  1  0
  4  3  2  0
  5  1  1  0
  5  2  1  0
  6  5  1  0
  7  3  1  0
  8  6  1  0
  9  8  1  0
 10  8  1  0
 10  9  1  0
 11  7  1  0
 12 11  1  0
 13 12  1  0
 14  6  1  0
 15 13  1  0
 16 15  1  0
 17 16  1  0
 18 17  2  0
 19 15  1  0
 19 16  1  0
 20 18  1  0
 21 13  1  0
 21 20  1  0
M  RAD  2   1   2   2   2
M  END
$$$$

     RDKit          3D

 21 23  0  0  0  0  0  0  0  0999 V2000
  -21.2306   -1.0020  140.7066 C   0  0  0  0  0  0  0  0  0  0  0  0
  -23.0047   -2.5155  139.5594 C   0  0  0  0  0  0  0  0  0  0  0  0
  -22.1676    0.2080  140.8705 C   0  0  0  0  0  0  0  0  0  0  0  0
  -22.4661   -2.3425  138.1309 C   0  0  0  0  0  0  0  0  0  0  0  0
  -23.7560    1.4723  142.4277 C   0  0  0  0  0  0  0  0  0  0  0  0
  -25.0473    1.5737  141.5776 C   0  0  0  0  0  0  0  0  0  0  0  0
  -26.1642    0.6773  142.1359 C   0  0  0  0  0  0  0  0  0  0  0  0
  -21.4753   -3.4563  137.7551 C   0  0  0  0  0  0  0  0  0  0  0  0
  -21.9347   -2.3725  140.6569 C   0  0  0  0  0  0  0  0  0  0  0  0
  -20.0347   -3.0256  137.4355 C   0  0  0  0  0  0  0  0  0  0  0  0
  -18.8483   -4.0410  137.5230 C   0  0  0  0  0  0  0  0  0  0  0  0
  -19.2474   -5.4762  137.9602 C   0  0  0  0  0  0  0  0  0  0  0  0
  -17.6222   -3.5390  138.3458 C   0  0  0  0  0  0  0  0  0  0  0  0
  -25.5307    3.0292  141.5244 C   0  0  0  0  0  0  0  0  0  0  0  0
  -22.9549    0.1774  142.1928 C   0  0  0  0  0  0  0  0  0  0  0  0
  -17.8355   -3.4486  139.8521 C   0  0  0  0  0  0  0  0  0  0  0  0
  -18.0622   -6.4530  137.8711 C   0  0  0  0  0  0  0  0  0  0  0  0
  -17.6133   -2.1816  139.0493 C   0  0  0  0  0  0  0  0  0  0  0  0
  -21.0131   -3.3641  136.3087 C   0  0  0  0  0  0  0  0  0  0  0  0
  -18.3477   -7.8317  138.4468 C   0  0  0  0  0  0  0  0  0  0  0  0
  -17.4303   -6.8759  139.1901 C   0  0  0  0  0  0  0  0  0  0  0  0
  3  1  1  0
  4  2  1  0
  6  5  1  0
  7  6  1  0
  8  4  1  0
  9  1  1  0
  9  2  1  0
 10  8  1  0
 11 10  1  0
 12 11  1  0
 13 11  1  0
 14  6  1  0
 15  3  1  0
 15  5  1  0
 16 13  1  0
 17 12  1  0
 18 13  1  0
 18 16  1  0
 19  8  1  0
 19 10  1  0
 20 17  1  0
 21 17  1  0
 21 20  1  0
M  END
$$$$

     RDKit          3D

 21 25  0  0  0  0  0  0  0  0999 V2000
  -23.6554    0.7932  139.7728 O   0  0  0  0  0  0  0  0  0  0  0  0
  -23.7371    1.6032  140.9214 C   0  0  0  0  0  0  0  0  0  0  0  0
  -23.7880    3.0387  140.5603 N   0  0  0  0  0  0  0  0  0  0  0  0
  -22.9061    3.4544  139.4494 C   0  0  0  0  0  0  0  0  0  0  0  0
  -21.5378    2.8639  139.6899 C   0  0  0  0  0  0  0  0  0  0  0  0
  -22.9588    4.9745  139.3887 C   0  0  0  0  0  0  0  0  0  0  0  0
  -23.3492    6.0101  140.4743 C   0  0  0  0  0  0  0  0  0  0  0  0
  -20.8507    3.6051  140.8405 C   0  0  0  0  0  0  0  0  0  0  0  0
  -24.8330    6.0075  140.9168 C   0  0  0  0  0  0  0  0  0  0  0  0
  -21.4047    3.5955  142.2986 C   0  0  0  0  0  0  0  0  0  0  0  0
  -22.5748    1.2763  141.8807 C   0  0  0  0  0  0  0  0  0  0  0  0
  -25.0169    6.2523  142.4484 C   0  0  0  0  0  0  0  0  0  0  0  0
  -25.3336    7.7263  142.8097 C   0  0  0  0  0  0  0  0  0  0  0  0
  -22.2775    2.4323  142.8427 C   0  0  0  0  0  0  0  0  0  0  0  0
  -21.6156    4.3430  139.7279 C   0  0  0  0  0  0  0  0  0  0  0  0
  -26.6411    8.3120  142.2582 C   0  0  0  0  0  0  0  0  0  0  0  0
  -27.8921    7.5352  142.6751 C   0  0  0  0  0  0  0  0  0  0  0  0
  -28.0231    6.2162  141.9053 C   0  0  0  0  0  0  0  0  0  0  0  0
  -25.8870    5.2692  144.6700 C   0  0  0  0  0  0  0  0  0  0  0  0
  -27.3701    5.0117  142.5974 C   0  0  0  0  0  0  0  0  0  0  0  0
  -25.9184    5.1742  143.1317 C   0  0  0  0  0  0  0  0  0  0  0  0
  2  1  1  0
  3  2  1  0
  4  3  1  0
  5  4  1  0
  6  4  1  0
  7  6  1  0
  8  5  1  0
  9  7  1  0
 10  8  1  0
 11  2  1  0
 12  9  1  0
 13 12  1  0
 14 10  1  0
 14 11  1  0
 15  4  1  0
 15  5  1  0
 15  6  1  0
 15  8  1  0
 16 13  1  0
 17 16  1  0
 18 17  1  0
 20 18  1  0
 21 12  1  0
 21 19  1  0
 21 20  1  0
M  END
$$$$

     RDKit          3D

 20 21  0  0  0  0  0  0  0  0999 V2000
  -23.0540    1.3541  142.0837 O   0  0  0  0  0  0  0  0  0  0  0  0
  -24.7188    3.9653  140.8855 C   0  0  0  0  0  0  0  0  0  0  0  0
  -24.2988    3.1790  139.7750 O   0  0  0  0  0  0  0  0  0  0  0  0
  -23.0384    2.5741  142.1861 C   0  0  0  0  0  0  0  0  0  0  0  0
  -24.2272    4.3324  143.2239 O   0  0  0  0  0  0  0  0  0  0  0  0
  -23.7889    0.5269  138.6207 C   0  0  0  0  0  0  0  0  0  0  0  0
  -23.7733    1.9336  136.9550 C   0  0  0  0  0  0  0  0  0  0  0  0
  -25.3629    2.5293  139.1004 C   0  0  0  0  0  0  0  0  0  0  0  0
  -24.3353    3.3381  142.2420 C   0  0  0  0  0  0  0  0  0  0  0  0
  -26.3687    3.4934  138.4279 C   0  0  0  0  0  0  0  0  0  0  0  0
  -24.8027    1.5227  138.0497 C   0  0  0  0  0  0  0  0  0  0  0  0
  -23.6094    3.4515  136.5632 C   0  0  0  0  0  0  0  0  0  0  0  0
  -22.5584   -0.3424  136.5876 C   0  0  0  0  0  0  0  0  0  0  0  0
  -21.3630    1.2313  138.1439 C   0  0  0  0  0  0  0  0  0  0  0  0
  -21.4645    2.8884  135.1153 C   0  0  0  0  0  0  0  0  0  0  0  0
  -22.1066    4.9979  136.4115 C   0  0  0  0  0  0  0  0  0  0  0  0
  -21.3147    2.4739  138.8950 N   0  0  0  0  0  0  0  0  0  0  0  0
  -22.7519    0.8832  137.5316 C   0  0  0  0  0  0  0  0  0  0  0  0
  -22.5797    3.8624  135.4935 C   0  0  0  0  0  0  0  0  0  0  0  0
  -23.1061    4.5745  137.4805 C   0  0  0  0  0  0  0  0  0  0  0  0
  3  2  1  0
  4  1  2  0
  8  3  1  0
  9  2  1  0
  9  4  1  0
  9  5  1  0
 10  8  1  0
 11  6  1  0
 11  7  1  0
 11  8  1  0
 12  7  1  0
 17 14  1  0
 18  6  1  0
 18  7  1  0
 18 13  1  0
 18 14  1  0
 19 12  1  0
 19 15  1  0
 19 16  1  0
 20 12  1  0
 20 16  1  0
M  END
$$$$

     RDKit          3D

 21 23  0  0  0  0  0  0  0  0999 V2000
  -21.1857  -20.4651  136.8102 C   0  0  0  0  0  0  0  0  0  0  0  0
  -20.3937  -21.3491  137.8241 C   0  0  0  0  0  0  0  0  0  0  0  0
  -20.2123  -22.8088  137.4404 C   0  0  0  0  0  0  0  0  0  0  0  0
  -22.5754  -21.9710  134.9900 C   0  0  0  0  0  0  0  0  0  0  0  0
  -23.4473  -20.0706  135.5370 C   0  0  0  0  0  0  0  0  0  0  0  0
  -20.2738  -19.5306  135.9731 C   0  0  0  0  0  0  0  0  0  0  0  0
  -18.9104  -23.2271  136.7482 C   0  0  0  0  0  0  0  0  0  0  0  0
  -19.6007  -20.0844  134.6978 C   0  0  0  0  0  0  0  0  0  0  0  0
  -20.4563  -19.9575  133.4419 C   0  0  0  0  0  0  0  0  0  0  0  0
  -20.7967  -18.5555  132.9829 C   0  0  0  0  0  0  0  0  0  0  0  0
  -21.5909  -18.4722  131.6921 C   0  0  0  0  0  0  0  0  0  0  0  0
  -19.3740  -19.0568  132.8025 C   0  0  0  0  0  0  0  0  0  0  0  0
  -22.5168  -21.0717  136.2437 C   0  0  0  0  0  0  0  0  0  0  0  0
  -24.7564  -19.7795  136.2904 C   0  0  0  0  0  0  0  0  0  0  0  0
  -19.1519  -23.8135  135.3474 C   0  0  0  0  0  0  0  0  0  0  0  0
  -18.5460  -19.1743  134.0765 C   0  0  0  0  0  0  0  0  0  0  0  0
  -21.1613  -23.6989  137.8120 C   0  0  0  0  0  0  0  0  0  0  0  0
  -23.5934  -21.0161  134.3501 C   0  0  0  0  0  0  0  0  0  0  0  0
  -21.0725  -25.7080  137.6919 Al  0  0  0  0  0  3  0  0  0  0  0  0
  -21.1741  -21.1921  139.6338 Br  0  0  0  0  0  0  0  0  0  0  0  0
  -22.3009  -26.8160  138.8135 C   0  0  0  0  0  0  0  0  0  0  0  0
  2  1  1  0
  3  2  1  0
  6  1  1  0
  7  3  1  0
  8  6  1  0
  9  8  1  0
 10  9  1  0
 11 10  1  0
 12  9  1  0
 12 10  1  0
 13  1  1  0
 13  4  1  0
 13  5  1  0
 14  5  1  0
 15  7  1  0
 16  8  1  0
 16 12  1  0
 17  3  2  3
 18  4  1  0
 18  5  1  0
 19 17  1  0
 20  2  1  0
 21 19  1  0
M  END
$$$$

     RDKit          3D

 20 22  0  0  0  0  0  0  0  0999 V2000
  -24.4111    1.9401  142.9775 C   0  0  0  0  0  0  0  0  0  0  0  0
  -25.5609    1.1059  143.5671 C   0  0  0  0  0  0  0  0  0  0  0  0
  -24.4176    3.4954  143.1517 C   0  0  0  0  0  0  0  0  0  0  0  0
  -25.8384    4.1456  143.1389 C   0  0  0  0  0  0  0  0  0  0  0  0
  -26.5370    4.3909  144.5026 C   0  0  0  0  0  0  0  0  0  0  0  0
  -25.7990    0.4716  142.1900 C   0  0  0  0  0  0  0  0  0  0  0  0
  -23.5650    3.8593  144.4005 C   0  0  0  0  0  0  0  0  0  0  0  0
  -27.2234    0.6716  141.6405 C   0  0  0  0  0  0  0  0  0  0  0  0
  -26.3254    3.4978  145.5659 O   0  0  0  0  0  0  0  0  0  0  0  0
  -27.0703    5.7772  144.8642 C   0  0  0  0  0  0  0  0  0  0  0  0
  -25.3767   -1.0091  142.1552 C   0  0  0  0  0  0  0  0  0  0  0  0
  -24.7491    1.4168  141.5740 C   0  0  0  0  0  0  0  0  0  0  0  0
  -28.0246    4.7111  144.3577 C   0  0  0  0  0  0  0  0  0  0  0  0
  -22.5968    5.0508  144.5327 C   0  0  0  0  0  0  0  0  0  0  0  0
  -22.4819    6.2386  143.5266 C   0  0  0  0  0  0  0  0  0  0  0  0
  -23.8083    7.0248  143.4390 C   0  0  0  0  0  0  0  0  0  0  0  0
  -22.0597    3.6800  144.1560 C   0  0  0  0  0  0  0  0  0  0  0  0
  -23.5730    8.4695  143.4585 N   0  0  0  0  0  0  0  0  0  0  0  0
  -21.8578    6.0037  142.1277 C   0  0  0  0  0  0  0  0  0  0  0  0
  -20.2916    5.6739  142.1842 B   0  0  0  0  0  0  0  0  0  0  0  0
  2  1  1  0
  3  1  1  0
  4  3  1  0
  5  4  1  0
  6  2  1  0
  7  3  1  0
  8  6  1  0
  9  5  1  0
 10  5  1  0
 11  6  1  0
 12  1  1  0
 12  6  1  0
 13  5  1  0
 13 10  1  0
 14  7  1  0
 15 14  1  0
 16 15  1  0
 17  7  1  0
 17 14  1  0
 18 16  1  0
 19 15  1  0
 20 19  1  0
M  END
$$$$

     RDKit          3D

 21 25  0  0  0  0  0  0  0  0999 V2000
  -25.9318   -3.9554  144.3588 O   0  0  0  0  0  0  0  0  0  0  0  0
  -26.8297   -2.4076  143.1924 C   0  0  0  0  0  0  0  0  0  0  0  0
  -28.1518   -2.3767  142.6511 O   0  0  0  0  0  0  0  0  0  0  0  0
  -26.4757   -2.6944  144.6670 C   0  0  0  0  0  0  0  0  0  0  0  0
  -27.4945   -2.8167  145.5935 F   0  0  0  0  0  0  0  0  0  0  0  0
  -29.2043   -2.7485  143.5068 C   0  0  0  0  0  0  0  0  0  0  0  0
  -29.2111   -4.2367  143.9289 C   0  0  0  0  0  0  0  0  0  0  0  0
  -27.1109   -4.8527  142.3959 C   0  0  0  0  0  0  0  0  0  0  0  0
  -29.6748   -5.1712  142.8158 C   0  0  0  0  0  0  0  0  0  0  0  0
  -28.2495   -5.3001  143.3513 C   0  0  0  0  0  0  0  0  0  0  0  0
  -27.7904   -7.8533  143.6398 C   0  0  0  0  0  0  0  0  0  0  0  0
  -29.1398   -8.5846  143.3234 C   0  0  0  0  0  0  0  0  0  0  0  0
  -29.5988   -9.5147  145.5559 C   0  0  0  0  0  0  0  0  0  0  0  0
  -27.9732   -6.4764  144.3226 C   0  0  0  0  0  0  0  0  0  0  0  0
  -29.0930   -9.9348  142.6861 N   0  0  0  0  0  0  0  0  0  0  0  0
  -26.1822   -3.7692  142.9816 C   0  0  0  0  0  0  0  0  0  0  0  0
  -27.9044  -10.7891  142.8860 C   0  0  0  0  0  0  0  0  0  0  0  0
  -26.0010   -1.2575  142.6066 C   0  0  0  0  0  0  0  0  0  0  0  0
  -28.0965   -9.9594  141.6146 C   0  0  0  0  0  0  0  0  0  0  0  0
  -26.7501  -10.5091  141.9661 C   0  0  0  0  0  0  0  0  0  0  0  0
  -30.0408   -8.6060  144.4922 N   0  0  0  0  0  0  0  0  0  0  0  0
  3  2  1  0
  4  1  1  0
  4  2  1  0
  5  4  1  0
  6  3  1  0
  7  6  1  0
  9  7  1  0
 10  7  1  0
 10  8  1  0
 10  9  1  0
 12 11  1  0
 14 10  1  0
 14 11  1  0
 15 12  1  0
 16  1  1  0
 16  2  1  0
 16  8  1  0
 17 15  1  0
 18  2  1  0
 19 15  1  0
 19 17  1  0
 20 17  1  0
 20 19  1  0
 21 12  1  0
 21 13  1  0
M  END
$$$$

     RDKit          3D

 14 14  0  0  0  0  0  0  0  0999 V2000
  -31.5651   -1.8282  139.3996 O   0  0  0  0  0  0  0  0  0  0  0  0
  -30.4604   -0.9591  139.4493 C   0  0  0  0  0  0  0  0  0  0  0  0
  -30.1498   -0.6356  140.7815 O   0  0  0  0  0  0  0  0  0  0  0  0
  -30.7021    0.3146  138.6170 C   0  0  0  0  0  0  0  0  0  0  0  0
  -30.9110   -0.0092  137.1350 C   0  0  0  0  0  0  0  0  0  0  0  0
  -31.1845    1.5269  136.1807 S   0  0  0  0  0  0  0  0  0  0  0  0
  -29.4256    1.8669  135.7942 C   0  0  0  0  0  0  0  0  0  0  0  0
  -28.9723    1.1402  134.5228 C   0  0  0  0  0  0  0  0  0  0  0  0
  -29.6850    1.6568  133.2991 C   0  0  0  0  0  0  0  0  0  0  0  0
  -29.2767    2.8597  132.6984 C   0  0  0  0  0  0  0  0  0  0  0  0
  -29.9517    3.3518  131.5770 C   0  0  0  0  0  0  0  0  0  0  0  0
  -31.0404    2.6508  131.0511 C   0  0  0  0  0  0  0  0  0  0  0  0
  -31.4571    1.4572  131.6468 C   0  0  0  0  0  0  0  0  0  0  0  0
  -30.7848    0.9612  132.7681 C   0  0  0  0  0  0  0  0  0  0  0  0
  2  1  1  0
  3  2  1  0
  4  2  1  0
  5  4  1  0
  6  5  1  0
  7  6  1  0
  8  7  1  0
  9  8  1  0
 10  9  4  0
 11 10  4  0
 12 11  4  0
 13 12  4  0
 14  9  4  0
 14 13  4  0
M  END
$$$$

     RDKit          3D

 21 24  0  0  0  0  0  0  0  0999 V2000
  -18.2750  -17.1195  144.7501 C   0  0  0  0  0  0  0  0  0  0  0  0
  -19.6382  -17.7926  144.9767 C   0  0  0  0  0  0  0  0  0  0  0  0
  -21.0029  -17.0270  142.8667 C   0  0  0  0  0  0  0  0  0  0  0  0
  -19.8256  -18.0571  146.3413 O   0  0  0  0  0  0  0  0  0  0  0  0
  -17.7522  -17.1847  143.3109 C   0  0  0  0  0  0  0  0  0  0  0  0
  -21.6017  -15.6986  141.3860 C   0  0  0  0  0  0  0  0  0  0  0  0
  -20.9155  -17.0987  144.4119 C   0  0  0  0  0  0  0  0  0  0  0  0
  -21.8460  -17.2706  141.6151 C   0  0  0  0  0  0  0  0  0  0  0  0
  -21.1016  -18.2602  140.7088 C   0  0  0  0  0  0  0  0  0  0  0  0
  -20.3381  -15.7933  142.1708 C   0  0  0  0  0  0  0  0  0  0  0  0
  -22.5733  -14.8389  142.3602 C   0  0  0  0  0  0  0  0  0  0  0  0
  -22.2507  -14.7196  143.9699 C   0  0  0  0  0  0  0  0  0  0  0  0
  -22.0813  -12.3665  141.7074 C   0  0  0  0  0  0  0  0  0  0  0  0
  -24.4148  -12.3585  139.8716 C   0  0  0  0  0  0  0  0  0  0  0  0
  -25.8305  -12.1880  140.4399 C   0  0  0  0  0  0  0  0  0  0  0  0
  -21.2068  -15.6082  144.8605 C   0  0  0  0  0  0  0  0  0  0  0  0
  -23.1110  -13.5049  141.7631 C   0  0  0  0  0  0  0  0  0  0  0  0
  -23.9934  -11.0302  140.5186 C   0  0  0  0  0  0  0  0  0  0  0  0
  -25.3809  -10.9257  141.1637 C   0  0  0  0  0  0  0  0  0  0  0  0
  -22.8098  -11.0219  141.5221 C   0  0  0  0  0  0  0  0  0  0  0  0
  -23.7008  -13.6502  140.3484 C   0  0  0  0  0  0  0  0  0  0  0  0
  2  1  1  0
  4  2  1  0
  5  1  1  0
  7  2  1  0
  7  3  1  0
  8  3  1  0
  8  6  1  0
  9  8  1  0
 10  3  1  0
 10  6  1  0
 11  6  1  0
 12 11  1  0
 15 14  1  0
 16  7  1  0
 16 12  1  0
 17 11  1  0
 17 13  1  0
 18 14  1  0
 19 15  1  0
 19 18  1  0
 20 13  1  0
 20 18  1  0
 21 14  1  0
 21 17  1  0
M  END
$$$$

     RDKit          3D

 21 26  0  0  0  0  0  0  0  0999 V2000
  -19.1158   -7.8218  136.0418 C   0  0  0  0  0  0  0  0  0  0  0  0
  -19.6833   -7.8990  137.4237 C   0  0  0  0  0  0  0  0  0  0  0  0
  -19.8156   -9.0462  138.1150 C   0  0  0  0  0  0  0  0  0  0  0  0
  -17.5799   -8.0534  136.0215 C   0  0  0  0  0  0  0  0  0  0  0  0
  -19.3724  -10.4265  137.6598 C   0  0  0  0  0  0  0  0  0  0  0  0
  -16.8413   -6.7324  136.4771 C   0  0  0  0  0  0  0  0  0  0  0  0
  -15.9621   -6.7700  137.7239 C   0  0  0  0  0  0  0  0  0  0  0  0
  -17.1503   -9.3333  136.8115 C   0  0  0  0  0  0  0  0  0  0  0  0
  -18.8360  -11.0674  135.6696 C   0  0  0  0  0  0  0  0  0  0  0  0
  -15.6211   -6.2703  135.6858 C   0  0  0  0  0  0  0  0  0  0  0  0
  -18.0542  -10.5800  136.8815 C   0  0  0  0  0  0  0  0  0  0  0  0
  -14.7610   -6.1793  136.9500 C   0  0  0  0  0  0  0  0  0  0  0  0
  -20.1361  -10.9931  136.4753 C   0  0  0  0  0  0  0  0  0  0  0  0
  -15.9806   -5.6926  140.6058 C   0  0  0  0  0  0  0  0  0  0  0  0
  -13.7187   -6.6772  139.8085 C   0  0  0  0  0  0  0  0  0  0  0  0
  -12.6563   -6.6149  140.9519 C   0  0  0  0  0  0  0  0  0  0  0  0
  -13.1596   -6.9944  142.3348 C   0  0  0  0  0  0  0  0  0  0  0  0
  -15.4131   -5.4652  138.1626 C   0  0  0  0  0  0  0  0  0  0  0  0
  -14.8035   -5.5527  139.6156 C   0  0  0  0  0  0  0  0  0  0  0  0
  -11.7893   -5.3763  140.9630 C   0  0  0  0  0  0  0  0  0  0  0  0
  -12.8205   -5.5351  142.0504 C   0  0  0  0  0  0  0  0  0  0  0  0
  2  1  1  0
  3  2  2  0
  4  1  1  0
  5  3  1  0
  6  4  1  0
  7  6  1  0
  8  4  1  0
 10  6  1  0
 11  5  1  0
 11  8  1  0
 11  9  1  0
 12  7  1  0
 12 10  1  0
 13  5  1  0
 13  9  1  0
 16 15  1  0
 17 16  1  0
 18  7  1  0
 18 12  1  0
 19 14  1  0
 19 15  1  0
 19 18  1  0
 20 16  1  0
 21 16  1  0
 21 17  1  0
 21 20  1  0
M  END
$$$$

     RDKit          3D

 11 10  0  0  0  0  0  0  0  0999 V2000
  -16.5109    0.4547  138.2340 O   0  0  0  0  0  0  0  0  0  0  0  0
  -15.8716   -0.7542  137.8908 C   0  0  0  0  0  0  0  0  0  0  0  0
  -14.5405   -0.4954  137.5302 O   0  0  0  0  0  0  0  0  0  0  0  0
  -17.7195   -2.0122  137.2598 C   0  0  0  0  0  0  0  0  0  0  0  0
  -19.2034   -0.9610  135.0059 As  0  0  0  0  0  2  0  0  0  0  0  0
  -19.6228   -3.2387  136.5131 O   0  0  0  0  0  1  0  0  0  0  0  0
  -16.5378   -1.3836  136.8088 O   0  0  0  0  0  0  0  0  0  0  0  0
  -16.5945   -0.8750  134.0026 O   0  0  0  0  0  0  0  0  0  0  0  0
  -16.4886    1.2191  137.1561 O   0  0  0  0  0  0  0  0  0  0  0  0
  -17.8874   -1.1384  133.5389 C   0  0  0  0  0  0  0  0  0  0  0  0
  -18.5302   -2.4979  136.0609 C   0  0  0  0  0  0  0  0  0  0  0  0
  2  1  1  0
  3  2  1  0
  7  2  1  0
  7  4  1  0
  9  1  1  0
 10  5  1  0
 10  8  1  0
 11  4  1  0
 11  5  1  0
 11  6  1  0
M  RAD  2   5   2   6   2
M  END
$$$$

     RDKit          3D

 21 21  0  0  0  0  0  0  0  0999 V2000
  -23.3620  -15.4241  140.6298 C   0  0  0  0  0  0  0  0  0  0  0  0
  -24.4807  -15.2030  139.1953 S   0  0  0  0  0  0  0  0  0  0  0  0
  -25.7023  -14.0861  139.9922 C   0  0  0  0  0  0  0  0  0  0  0  0
  -22.4574  -14.2078  140.8931 C   0  0  0  0  0  0  0  0  0  0  0  0
  -26.6076  -14.8208  140.9921 C   0  0  0  0  0  0  0  0  0  0  0  0
  -27.6732  -13.9206  141.5935 C   0  0  0  0  0  0  0  0  0  0  0  0
  -22.3051  -13.9209  142.4019 C   0  0  0  0  0  0  0  0  0  0  0  0
  -23.3190  -12.8595  142.8818 C   0  0  0  0  0  0  0  0  0  0  0  0
  -28.4760  -14.6782  142.6784 C   0  0  0  0  0  0  0  0  0  0  0  0
  -28.1498  -14.1838  144.1082 C   0  0  0  0  0  0  0  0  0  0  0  0
  -23.2609  -12.4917  144.3701 C   0  0  0  0  0  0  0  0  0  0  0  0
  -23.4262  -13.6464  145.3626 C   0  0  0  0  0  0  0  0  0  0  0  0
  -28.7691  -12.8225  144.4628 C   0  0  0  0  0  0  0  0  0  0  0  0
  -30.3041  -12.8894  144.5202 C   0  0  0  0  0  0  0  0  0  0  0  0
  -23.3751  -13.1165  146.8047 C   0  0  0  0  0  0  0  0  0  0  0  0
  -21.9431  -12.8565  147.3255 C   0  0  0  0  0  0  0  0  0  0  0  0
  -21.1035  -14.1336  147.3926 C   0  0  0  0  0  0  0  0  0  0  0  0
  -30.9795  -12.4777  145.8239 C   0  0  0  0  0  0  0  0  0  0  0  0
  -31.0435  -11.5490  144.6101 C   0  0  0  0  0  0  0  0  0  0  0  0
  -30.2672  -10.2381  144.8231 C   0  0  0  0  0  0  0  0  0  0  0  0
  -21.8304  -15.1636  147.9996 O   0  0  0  0  0  0  0  0  0  0  0  0
  2  1  1  0
  3  2  1  0
  4  1  1  0
  5  3  1  0
  6  5  1  0
  7  4  1  0
  8  7  1  0
  9  6  1  0
 10  9  1  0
 11  8  1  0
 12 11  1  0
 13 10  1  0
 14 13  1  0
 15 12  1  0
 16 15  1  0
 17 16  1  0
 18 14  1  0
 19 14  1  0
 19 18  1  0
 20 19  1  0
 21 17  1  0
M  END
$$$$

     RDKit          3D

 21 27  0  0  0  0  0  0  0  0999 V2000
  -22.6780  -14.0228  140.9608 O   0  0  0  0  0  0  0  0  0  0  0  0
  -21.7370  -13.9666  141.9944 C   0  0  0  0  0  0  0  0  0  0  0  0
  -20.6967  -14.6753  141.9656 O   0  0  0  0  0  0  0  0  0  0  0  0
  -22.4805  -14.7865  139.7745 C   0  0  0  0  0  0  0  0  0  0  0  0
  -23.7861  -14.8065  138.9556 C   0  0  0  0  0  0  0  0  0  0  0  0
  -24.2185  -13.4522  138.3947 C   0  0  0  0  0  0  0  0  0  0  0  0
  -24.9894  -15.7117  139.3274 C   0  0  0  0  0  0  0  0  0  0  0  0
  -24.7044  -16.8714  138.3612 C   0  0  0  0  0  0  0  0  0  0  0  0
  -25.4187  -16.4292  137.0890 C   0  0  0  0  0  0  0  0  0  0  0  0
  -24.6902  -15.1878  136.4957 C   0  0  0  0  0  0  0  0  0  0  0  0
  -23.6548  -14.5006  137.4429 C   0  0  0  0  0  0  0  0  0  0  0  0
  -25.3093  -17.1440  139.6859 C   0  0  0  0  0  0  0  0  0  0  0  0
  -24.8486  -16.1694  140.7947 C   0  0  0  0  0  0  0  0  0  0  0  0
  -25.7742  -15.1425  141.5371 C   0  0  0  0  0  0  0  0  0  0  0  0
  -27.1047  -14.5510  140.9215 C   0  0  0  0  0  0  0  0  0  0  0  0
  -28.4130  -15.3759  140.8244 C   0  0  0  0  0  0  0  0  0  0  0  0
  -25.7851  -16.5785  141.9654 C   0  0  0  0  0  0  0  0  0  0  0  0
  -25.8650  -15.4845  143.0110 C   0  0  0  0  0  0  0  0  0  0  0  0
  -29.1593  -15.4740  142.1668 C   0  0  0  0  0  0  0  0  0  0  0  0
  -30.4979  -16.1989  142.0652 C   0  0  0  0  0  0  0  0  0  0  0  0
  -29.3274  -16.8648  142.7685 C   0  0  0  0  0  0  0  0  0  0  0  0
  2  1  1  0
  3  2  2  0
  4  1  1  0
  5  4  1  0
  6  5  1  0
  7  5  1  0
  8  7  1  0
  9  8  1  0
 10  9  1  0
 11  5  1  0
 11  6  1  0
 11 10  1  0
 12  7  1  0
 12  8  1  0
 13  7  1  0
 13 12  1  0
 14 13  1  0
 15 14  1  0
 16 15  1  0
 17 13  1  0
 17 14  1  0
 18 14  1  0
 18 17  1  0
 19 16  1  0
 20 19  1  0
 21 19  1  0
 21 20  1  0
M  END
$$$$

     RDKit          3D

 21 25  0  0  0  0  0  0  0  0999 V2000
  -31.5429   -3.1777  140.8585 O   0  0  0  0  0  0  0  0  0  0  0  0
  -30.6033   -4.2232  140.9504 C   0  0  0  0  0  0  0  0  0  0  0  0
  -29.5320   -3.9313  141.9515 C   0  0  0  0  0  0  0  0  0  0  0  0
  -28.8483   -5.0683  142.7472 C   0  0  0  0  0  0  0  0  0  0  0  0
  -29.7601   -5.9193  143.6684 C   0  0  0  0  0  0  0  0  0  0  0  0
  -29.1439   -3.9539  140.4373 C   0  0  0  0  0  0  0  0  0  0  0  0
  -29.4716   -7.4521  143.7415 C   0  0  0  0  0  0  0  0  0  0  0  0
  -28.1001   -7.8773  144.3394 C   0  0  0  0  0  0  0  0  0  0  0  0
  -31.1933   -5.3606  143.8407 C   0  0  0  0  0  0  0  0  0  0  0  0
  -28.3311   -2.6378  140.3880 C   0  0  0  0  0  0  0  0  0  0  0  0
  -28.2730   -2.8656  138.2616 C   0  0  0  0  0  0  0  0  0  0  0  0
  -27.8346   -7.2923  145.7315 C   0  0  0  0  0  0  0  0  0  0  0  0
  -32.5551   -6.9730  142.4232 C   0  0  0  0  0  0  0  0  0  0  0  0
  -26.5416   -1.2523  139.2203 C   0  0  0  0  0  0  0  0  0  0  0  0
  -27.2321   -2.6133  139.3346 C   0  0  0  0  0  0  0  0  0  0  0  0
  -32.5364   -5.9448  141.2673 C   0  0  0  0  0  0  0  0  0  0  0  0
  -29.3548   -2.8857  139.3299 C   0  0  0  0  0  0  0  0  0  0  0  0
  -32.3536   -6.3589  143.8234 C   0  0  0  0  0  0  0  0  0  0  0  0
  -26.9098   -7.6189  143.4050 C   0  0  0  0  0  0  0  0  0  0  0  0
  -30.2283   -5.3334  145.0094 C   0  0  0  0  0  0  0  0  0  0  0  0
  -31.1228   -5.6602  140.6808 C   0  0  0  0  0  0  0  0  0  0  0  0
  2  1  1  0
  3  2  1  0
  4  3  1  0
  5  4  1  0
  6  2  1  0
  6  3  1  0
  7  5  1  0
  8  7  1  0
  9  5  1  0
 10  6  1  0
 12  8  1  0
 15 10  1  0
 15 11  1  0
 15 14  1  0
 16 13  1  0
 17  6  1  0
 17 10  1  0
 17 11  1  0
 18  9  1  0
 18 13  1  0
 19  8  1  0
 20  5  1  0
 20  9  1  0
 21  2  1  0
 21 16  1  0
M  END
$$$$

     RDKit          3D

 21 25  0  0  0  0  0  0  0  0999 V2000
  -31.3512   -3.1060  140.3416 C   0  0  0  0  0  0  0  0  0  0  0  0
  -31.9606   -3.2297  142.7933 C   0  0  0  0  0  0  0  0  0  0  0  0
  -30.4281   -3.5861  139.2000 C   0  0  0  0  0  0  0  0  0  0  0  0
  -29.5141   -2.8882  142.1774 C   0  0  0  0  0  0  0  0  0  0  0  0
  -30.3479   -2.5854  138.0367 C   0  0  0  0  0  0  0  0  0  0  0  0
  -28.1696   -0.7429  142.5721 C   0  0  0  0  0  0  0  0  0  0  0  0
  -31.6413   -2.6002  137.1723 C   0  0  0  0  0  0  0  0  0  0  0  0
  -30.8677   -3.5267  141.7532 C   0  0  0  0  0  0  0  0  0  0  0  0
  -31.1663   -1.8873  135.8564 C   0  0  0  0  0  0  0  0  0  0  0  0
  -29.4288   -1.3644  141.9503 C   0  0  0  0  0  0  0  0  0  0  0  0
  -31.0718   -0.3885  136.0486 C   0  0  0  0  0  0  0  0  0  0  0  0
  -32.5584   -1.6977  136.3867 C   0  0  0  0  0  0  0  0  0  0  0  0
  -32.4909   -1.4759  137.8214 C   0  0  0  0  0  0  0  0  0  0  0  0
  -29.7967    0.2608  136.5388 C   0  0  0  0  0  0  0  0  0  0  0  0
  -32.3384   -0.2708  136.8572 C   0  0  0  0  0  0  0  0  0  0  0  0
  -26.8917   -1.1430  141.8338 C   0  0  0  0  0  0  0  0  0  0  0  0
  -30.3738    0.6105  135.1529 C   0  0  0  0  0  0  0  0  0  0  0  0
  -31.0094    2.0053  135.0596 C   0  0  0  0  0  0  0  0  0  0  0  0
  -31.7490    2.1890  133.7316 C   0  0  0  0  0  0  0  0  0  0  0  0
  -32.8985    1.2288  133.5975 C   0  0  0  0  0  0  0  0  0  0  0  0
  -32.7882    0.0947  132.8978 C   0  0  0  0  0  0  0  0  0  0  0  0
  3  1  1  0
  5  3  1  0
  7  5  1  0
  8  1  1  0
  8  2  1  0
  8  4  1  0
  9  7  1  0
 10  4  1  0
 10  6  1  0
 11  9  1  0
 12  7  1  0
 12  9  1  0
 13  7  1  0
 13 12  1  0
 14 11  1  0
 15 11  1  0
 15 12  1  0
 15 13  1  0
 16  6  1  0
 17 11  1  0
 17 14  1  0
 18 17  1  0
 19 18  1  0
 20 19  1  0
 21 20  2  0
M  END
$$$$

     RDKit          3D

 21 24  0  0  0  0  0  0  0  0999 V2000
  -25.0176   -4.0576  141.9894 C   0  0  0  0  0  0  0  0  0  0  0  0
  -25.7977   -3.5983  143.2410 C   0  0  0  0  0  0  0  0  0  0  0  0
  -23.6288   -3.4199  141.8218 C   0  0  0  0  0  0  0  0  0  0  0  0
  -23.1614   -2.5167  143.0010 C   0  0  0  0  0  0  0  0  0  0  0  0
  -23.5733   -2.9481  144.4252 C   0  0  0  0  0  0  0  0  0  0  0  0
  -25.7444   -3.1145  145.7445 C   0  0  0  0  0  0  0  0  0  0  0  0
  -23.3333   -2.9206  140.3715 C   0  0  0  0  0  0  0  0  0  0  0  0
  -24.2581   -1.7520  139.9699 C   0  0  0  0  0  0  0  0  0  0  0  0
  -25.9892   -1.8636  145.9036 N   0  0  0  0  0  0  0  0  0  0  0  0
  -26.4925   -1.9800  142.8965 Cl  0  0  0  0  0  0  0  0  0  0  0  0
  -23.9143   -1.2721  138.5623 C   0  0  0  0  0  0  0  0  0  0  0  0
  -24.9684   -3.6220  144.5468 C   0  0  0  0  0  0  0  0  0  0  0  0
  -23.7580   -4.9289  142.1305 C   0  0  0  0  0  0  0  0  0  0  0  0
  -24.0363   -7.3586  141.5160 C   0  0  0  0  0  0  0  0  0  0  0  0
  -22.5222   -0.6425  138.5303 C   0  0  0  0  0  0  0  0  0  0  0  0
  -21.2528   -1.2970  140.6525 C   0  0  0  0  0  0  0  0  0  0  0  0
  -21.4318   -1.5438  139.1538 C   0  0  0  0  0  0  0  0  0  0  0  0
  -21.8197   -2.6287  140.1731 C   0  0  0  0  0  0  0  0  0  0  0  0
  -25.5383   -7.4263  141.6215 C   0  0  0  0  0  0  0  0  0  0  0  0
  -26.3083   -7.6199  140.5477 C   0  0  0  0  0  0  0  0  0  0  0  0
  -23.5685   -5.9826  141.0232 C   0  0  0  0  0  0  0  0  0  0  0  0
  2  1  1  0
  3  1  1  0
  4  3  1  0
  5  4  1  0
  7  3  1  0
  8  7  1  0
  9  6  2  0
 10  2  1  0
 11  8  1  0
 12  2  1  0
 12  5  1  0
 12  6  1  0
 13  1  1  0
 13  3  1  0
 15 11  1  0
 17 15  1  0
 17 16  1  0
 18  7  1  0
 18 16  1  0
 18 17  1  0
 19 14  1  0
 20 19  2  0
 21 13  1  0
 21 14  1  0
M  END
$$$$

     RDKit          3D

 10 10  0  0  0  0  0  0  0  0999 V2000
  -32.4901   -5.4050  147.2314 O   0  0  0  0  0  0  0  0  0  0  0  0
  -27.5494   -3.1053  143.7791 O   0  0  0  0  0  0  0  0  0  0  0  0
  -30.4952   -5.2253  143.4589 C   0  0  0  0  0  0  0  0  0  0  0  0
  -28.2949   -4.1362  143.3090 N   0  0  0  0  0  0  0  0  0  0  0  0
  -29.1399   -4.7227  145.5392 C   0  0  0  0  0  0  0  0  0  0  0  0
  -29.5098   -4.2453  144.1272 C   0  0  0  0  0  0  0  0  0  0  0  0
  -31.8814   -5.2017  144.1246 C   0  0  0  0  0  0  0  0  0  0  0  0
  -32.2057   -6.3634  145.0594 C   0  0  0  0  0  0  0  0  0  0  0  0
  -32.7978   -6.3290  143.6565 C   0  0  0  0  0  0  0  0  0  0  0  0
  -33.1835   -6.0285  146.1880 C   0  0  0  0  0  0  0  0  0  0  0  0
  4  2  1  0
  6  3  1  0
  6  4  1  0
  6  5  1  0
  7  3  1  0
  8  7  1  0
  9  7  1  0
  9  8  1  0
 10  1  1  0
 10  8  1  0
M  END
$$$$

     RDKit          3D

 21 24  0  0  0  0  0  0  0  0999 V2000
  -22.1013  -14.3856  149.6800 O   0  0  0  0  0  0  0  0  0  0  0  0
  -23.5250  -14.3604  149.6403 C   0  0  0  0  0  0  0  0  0  0  0  0
  -24.1749  -15.3099  148.6248 C   0  0  0  0  0  0  0  0  0  0  0  0
  -23.2816  -15.7627  147.4560 C   0  0  0  0  0  0  0  0  0  0  0  0
  -23.0064  -14.6455  146.4392 C   0  0  0  0  0  0  0  0  0  0  0  0
  -23.6924  -15.3163  150.8185 C   0  0  0  0  0  0  0  0  0  0  0  0
  -22.2103  -15.2413  150.7717 C   0  0  0  0  0  0  0  0  0  0  0  0
  -24.2832  -14.1822  145.7762 C   0  0  0  0  0  0  0  0  0  0  0  0
  -24.8559  -12.9796  145.9641 C   0  0  0  0  0  0  0  0  0  0  0  0
  -21.3648  -15.0309  152.0093 C   0  0  0  0  0  0  0  0  0  0  0  0
  -20.2656  -13.9904  151.9350 C   0  0  0  0  0  0  0  0  0  0  0  0
  -24.2338  -11.8617  146.7646 C   0  0  0  0  0  0  0  0  0  0  0  0
  -21.1581  -16.2622  151.0835 C   0  0  0  0  0  0  0  0  0  0  0  0
  -24.4295  -16.6591  149.8285 S   0  0  0  0  0  0  0  0  0  0  0  0
  -20.5809  -12.6078  151.4126 C   0  0  0  0  0  0  0  0  0  0  0  0
  -25.2690  -10.8017  147.1287 C   0  0  0  0  0  0  0  0  0  0  0  0
  -21.8307  -11.9489  151.9924 C   0  0  0  0  0  0  0  0  0  0  0  0
  -20.4545  -11.4984  152.4534 C   0  0  0  0  0  0  0  0  0  0  0  0
  -19.0204  -14.2445  152.3927 C   0  0  0  0  0  0  0  0  0  0  0  0
  -18.6035  -15.5617  152.9834 C   0  0  0  0  0  0  0  0  0  0  0  0
  -20.0134  -10.1358  151.9193 C   0  0  0  0  0  0  0  0  0  0  0  0
  2  1  1  0
  3  2  1  0
  4  3  1  0
  5  4  1  0
  6  2  1  0
  7  1  1  0
  7  6  1  0
  8  5  1  0
  9  8  2  3
 10  7  1  0
 11 10  1  0
 12  9  1  0
 13  7  1  0
 13 10  1  0
 14  3  1  0
 14  6  1  0
 15 11  1  0
 16 12  1  0
 17 15  1  0
 18 15  1  0
 18 17  1  0
 19 11  2  3
 20 19  1  0
 21 18  1  0
M  END
$$$$

     RDKit          3D

 21 21  0  0  0  0  0  0  0  0999 V2000
  -27.7925  -12.3256  148.3409 C   0  0  0  0  0  0  0  0  0  0  0  0
  -30.2957  -12.0323  148.4920 C   0  0  0  0  0  0  0  0  0  0  0  0
  -29.1533  -12.8492  146.3503 C   0  0  0  0  0  0  0  0  0  0  0  0
  -31.0673  -12.6085  149.6644 C   0  0  0  0  0  0  0  0  0  0  0  0
  -27.8401  -12.2102  145.9293 C   0  0  0  0  0  0  0  0  0  0  0  0
  -32.4820  -12.0116  149.9003 C   0  0  0  0  0  0  0  0  0  0  0  0
  -32.4859  -10.5132  150.1198 C   0  0  0  0  0  0  0  0  0  0  0  0
  -31.4617   -9.8303  150.9359 C   0  0  0  0  0  0  0  0  0  0  0  0
  -31.3621  -10.0099  152.2570 C   0  0  0  0  0  0  0  0  0  0  0  0
  -29.1587  -12.8512  147.8902 C   0  0  0  0  0  0  0  0  0  0  0  0
  -33.4723   -9.7905  149.5743 C   0  0  0  0  0  0  0  0  0  0  0  0
  -30.3903   -9.1991  153.0862 C   0  0  0  0  0  0  0  0  0  0  0  0
  -26.8991  -12.3679  147.1137 C   0  0  0  0  0  0  0  0  0  0  0  0
  -30.1849   -9.7808  154.5261 C   0  0  0  0  0  0  0  0  0  0  0  0
  -31.5064   -9.9993  155.3195 C   0  0  0  0  0  0  0  0  0  0  0  0
  -30.4891  -10.8199  148.1173 N   0  0  0  0  0  0  0  0  0  0  0  0
  -33.1781  -12.7272  151.0645 C   0  0  0  0  0  0  0  0  0  0  0  0
  -29.2049   -8.9158  155.2999 C   0  0  0  0  0  0  0  0  0  0  0  0
  -27.8924   -9.1574  155.2525 C   0  0  0  0  0  0  0  0  0  0  0  0
  -30.8218   -7.7129  153.1015 C   0  0  0  0  0  0  0  0  0  0  0  0
  -31.2887  -10.3096  156.8054 C   0  0  0  0  0  0  0  0  0  0  0  0
  4  2  1  0
  5  3  1  0
  6  4  1  0
  7  6  1  0
  8  7  1  0
  9  8  2  3
 10  1  1  0
 10  2  1  0
 10  3  1  0
 11  7  2  0
 12  9  1  0
 13  1  1  0
 13  5  1  0
 14 12  1  0
 15 14  1  0
 16  2  2  0
 17  6  1  0
 18 14  1  0
 19 18  2  0
 20 12  1  0
 21 15  1  0
M  END
$$$$

     RDKit          3D

 21 24  0  0  0  0  0  0  0  0999 V2000
  -31.5693  -16.1639  145.5911 O   0  0  0  0  0  0  0  0  0  0  0  0
  -30.7210  -16.7946  146.5351 C   0  0  0  0  0  0  0  0  0  0  0  0
  -29.4617  -16.1905  146.4637 O   0  0  0  0  0  0  0  0  0  0  0  0
  -31.2485  -17.5054  145.3496 C   0  0  0  0  0  0  0  0  0  0  0  0
  -32.2465  -18.4048  145.6807 F   0  0  0  0  0  0  0  0  0  0  0  0
  -28.5002  -17.0998  145.9778 C   0  0  0  0  0  0  0  0  0  0  0  0
  -28.7397  -17.7562  144.6111 C   0  0  0  0  0  0  0  0  0  0  0  0
  -27.7959  -16.5310  144.7335 C   0  0  0  0  0  0  0  0  0  0  0  0
  -26.2548  -16.7532  144.7638 C   0  0  0  0  0  0  0  0  0  0  0  0
  -25.7474  -17.9465  143.9289 C   0  0  0  0  0  0  0  0  0  0  0  0
  -25.4748  -19.1828  144.8106 C   0  0  0  0  0  0  0  0  0  0  0  0
  -24.9481  -20.3803  144.0194 C   0  0  0  0  0  0  0  0  0  0  0  0
  -30.2463  -17.8400  144.2255 C   0  0  0  0  0  0  0  0  0  0  0  0
  -30.6130  -17.4888  142.7435 C   0  0  0  0  0  0  0  0  0  0  0  0
  -28.2384  -15.1065  144.3490 C   0  0  0  0  0  0  0  0  0  0  0  0
  -23.6368  -20.3215  144.7948 C   0  0  0  0  0  0  0  0  0  0  0  0
  -31.8250  -18.2983  142.1912 C   0  0  0  0  0  0  0  0  0  0  0  0
  -33.2099  -17.7855  142.6177 C   0  0  0  0  0  0  0  0  0  0  0  0
  -24.3207  -19.3993  147.0824 C   0  0  0  0  0  0  0  0  0  0  0  0
  -24.1533  -19.1172  145.5852 C   0  0  0  0  0  0  0  0  0  0  0  0
  -30.7543  -15.9934  142.4132 C   0  0  0  0  0  0  0  0  0  0  0  0
  2  1  1  0
  3  2  1  0
  4  1  1  0
  4  2  1  0
  5  4  1  0
  6  3  1  0
  7  6  1  0
  8  6  1  0
  8  7  1  0
  9  8  1  0
 10  9  1  0
 11 10  1  0
 12 11  1  0
 13  4  1  0
 13  7  1  0
 14 13  1  0
 15  8  1  0
 16 12  1  0
 17 14  1  0
 18 17  1  0
 20 11  1  0
 20 16  1  0
 20 19  1  0
 21 14  1  0
M  END
$$$$

     RDKit          3D

 21 26  0  0  0  0  0  0  0  0999 V2000
  -29.9932  -12.7015  148.1756 N   0  0  0  0  0  0  0  0  0  0  0  0
  -29.6286  -12.7586  146.7741 C   0  0  0  0  0  0  0  0  0  0  0  0
  -29.1090  -13.7953  146.3815 O   0  0  0  0  0  0  0  0  0  0  0  0
  -30.4246  -11.7897  149.3126 C   0  0  0  0  0  0  0  0  0  0  0  0
  -29.8897  -11.6117  145.8360 C   0  0  0  0  0  0  0  0  0  0  0  0
  -31.1797  -12.3450  150.4085 C   0  0  0  0  0  0  0  0  0  0  0  0
  -29.7480  -11.8436  150.6936 C   0  0  0  0  0  0  0  0  0  0  0  0
  -31.6507   -9.4916  147.4177 C   0  0  0  0  0  0  0  0  0  0  0  0
  -28.7486  -10.6114  145.9705 C   0  0  0  0  0  0  0  0  0  0  0  0
  -31.2790  -10.7819  146.3451 C   0  0  0  0  0  0  0  0  0  0  0  0
  -29.8326  -10.7446  151.8551 C   0  0  0  0  0  0  0  0  0  0  0  0
  -31.0530  -13.1069  149.1876 C   0  0  0  0  0  0  0  0  0  0  0  0
  -29.2180  -11.1932  153.2698 C   0  0  0  0  0  0  0  0  0  0  0  0
  -27.3525  -11.0756  155.0592 C   0  0  0  0  0  0  0  0  0  0  0  0
  -27.8927  -10.5200  153.7185 C   0  0  0  0  0  0  0  0  0  0  0  0
  -25.9937  -10.4466  155.1410 C   0  0  0  0  0  0  0  0  0  0  0  0
  -24.8169  -11.2546  154.7102 C   0  0  0  0  0  0  0  0  0  0  0  0
  -25.4883  -12.7027  156.1712 C   0  0  0  0  0  0  0  0  0  0  0  0
  -25.7909   -9.7104  156.4910 C   0  0  0  0  0  0  0  0  0  0  0  0
  -24.1119  -12.0891  155.8192 C   0  0  0  0  0  0  0  0  0  0  0  0
  -26.1268  -11.9947  154.9861 C   0  0  0  0  0  0  0  0  0  0  0  0
  2  1  1  0
  3  2  2  0
  4  1  1  0
  5  2  1  0
  6  4  1  0
  7  4  1  0
  7  6  1  0
  9  5  1  0
 10  5  1  0
 10  8  1  0
 11  7  1  0
 12  1  1  0
 12  4  1  0
 12  6  1  0
 13 11  1  0
 15 13  1  0
 15 14  1  0
 16 14  1  0
 17 16  1  0
 19 16  1  0
 20 17  1  0
 20 18  1  0
 21 14  1  0
 21 16  1  0
 21 17  1  0
 21 18  1  0
M  END
$$$$

     RDKit          3D

 11 13  0  0  0  0  0  0  0  0999 V2000
  -25.3048  -13.5941  147.6799 F   0  0  0  0  0  0  0  0  0  0  0  0
  -24.1964  -12.7913  147.4615 C   0  0  0  0  0  0  0  0  0  0  0  0
  -24.4606  -11.2870  147.4425 C   0  0  0  0  0  0  0  0  0  0  0  0
  -25.9336  -10.8567  147.5597 C   0  0  0  0  0  0  0  0  0  0  0  0
  -26.0214   -9.4077  148.0695 C   0  0  0  0  0  0  0  0  0  0  0  0
  -23.8031  -11.9365  148.6596 C   0  0  0  0  0  0  0  0  0  0  0  0
  -24.6431  -12.0917  149.7687 O   0  0  0  0  0  0  0  0  0  0  0  0
  -27.4503   -8.8320  148.2288 C   0  0  0  0  0  0  0  0  0  0  0  0
  -28.3039   -8.7283  146.9797 C   0  0  0  0  0  0  0  0  0  0  0  0
  -28.6006   -9.7943  148.0991 C   0  0  0  0  0  0  0  0  0  0  0  0
  -29.2618   -9.8718  146.7548 C   0  0  0  0  0  0  0  0  0  0  0  0
  2  1  1  0
  3  2  1  0
  4  3  1  0
  5  4  1  0
  6  2  1  0
  6  3  1  0
  7  6  1  0
  8  5  1  0
  9  8  1  0
 10  8  1  0
 10  9  1  0
 11  9  1  0
 11 10  1  0
M  END
$$$$

     RDKit          3D

 21 23  0  0  0  0  0  0  0  0999 V2000
  -27.5044   -5.8676  139.4884 C   0  0  0  0  0  0  0  0  0  0  0  0
  -26.3220   -3.1916  138.7808 C   0  0  0  0  0  0  0  0  0  0  0  0
  -25.8375   -5.4971  134.3844 C   0  0  0  0  0  0  0  0  0  0  0  0
  -22.9631   -9.0576  129.6755 C   0  0  0  0  0  0  0  0  0  0  0  0
  -24.3295   -4.6686  128.8850 N   0  0  0  0  0  0  0  0  0  0  0  0
  -24.3545   -8.6208  138.4175 C   0  0  0  0  0  0  0  0  0  0  0  0
  -24.7694   -3.7003  137.1432 C   0  0  0  0  0  0  0  0  0  0  0  0
  -23.7876   -5.1703  126.2871 C   0  0  0  0  0  0  0  0  0  0  0  0
  -24.2109   -6.3458  130.9308 C   0  0  0  0  0  0  0  0  0  0  0  0
  -24.1246   -8.3851  124.4289 C   0  0  0  0  0  0  0  0  0  0  0  0
  -21.2500   -5.1346  138.7457 C   0  0  0  0  0  0  0  0  0  0  0  0
  -19.3025   -7.4262  139.6840 C   0  0  0  0  0  0  0  0  0  0  0  0
  -21.3623  -10.3604  129.9675 N   0  0  0  0  0  0  0  0  0  0  0  0
  -22.2124  -10.9068  138.9594 C   0  0  0  0  0  0  0  0  0  0  0  0
  -24.6804   -9.2396  136.3137 Cl  0  0  0  0  0  0  0  0  0  0  0  0
  -22.3420   -8.2120  125.6439 C   0  0  0  0  0  0  0  0  0  0  0  0
  -22.7064  -10.5218  137.0554 C   0  0  0  0  0  0  0  0  0  0  0  0
  -24.0870   -5.2838  124.1691 C   0  0  0  0  0  0  0  0  0  0  0  0
  -22.7523   -4.9665  122.9211 C   0  0  0  0  0  0  0  0  0  0  0  0
  -22.2303   -3.5704  124.3539 C   0  0  0  0  0  0  0  0  0  0  0  0
  -21.2906   -6.0629  124.7018 C   0  0  0  0  0  0  0  0  0  0  0  0
  2  1  1  0
  6  1  1  0
  7  2  1  0
  7  3  1  0
  8  5  1  0
  9  3  1  0
  9  4  1  0
  9  5  1  0
 11  7  1  0
 12 11  2  0
 13  4  1  0
 14  6  1  0
 15  6  1  0
 16 10  1  0
 17  6  1  0
 17 14  1  0
 18  8  1  0
 18 10  1  0
 19 18  1  0
 20 18  1  0
 20 19  1  0
 21  8  1  0
 21 16  1  0
M  END
$$$$

     RDKit          3D

 21 24  0  0  0  0  0  0  0  0999 V2000
  -19.9572    0.3562  143.0049 C   0  0  0  0  0  0  0  0  0  0  0  0
  -22.9498    0.9610  141.8927 N   0  0  0  0  0  0  0  0  0  0  0  0
  -22.3588    2.2954  141.7397 C   0  0  0  0  0  0  0  0  0  0  0  0
  -22.5457    0.4768  143.2102 C   0  0  0  0  0  0  0  0  0  0  0  0
  -21.7701    2.4424  140.3282 C   0  0  0  0  0  0  0  0  0  0  0  0
  -21.1865    1.1226  143.5234 C   0  0  0  0  0  0  0  0  0  0  0  0
  -21.2964    2.4780  142.8362 C   0  0  0  0  0  0  0  0  0  0  0  0
  -22.6300   -1.0693  143.3225 C   0  0  0  0  0  0  0  0  0  0  0  0
  -22.8828    2.2588  139.2793 C   0  0  0  0  0  0  0  0  0  0  0  0
  -22.3451   -1.7802  142.0687 N   0  0  0  0  0  0  0  0  0  0  0  0
  -22.4701    2.4558  137.8314 C   0  0  0  0  0  0  0  0  0  0  0  0
  -22.9719    1.3543  136.9143 C   0  0  0  0  0  0  0  0  0  0  0  0
  -24.4090    1.4937  136.3564 C   0  0  0  0  0  0  0  0  0  0  0  0
  -22.7674    1.0376  138.3821 C   0  0  0  0  0  0  0  0  0  0  0  0
  -23.4516   -1.7301  141.2769 O   0  0  0  0  0  0  0  0  0  0  0  0
  -23.8446   -3.0632  141.0923 C   0  0  0  0  0  0  0  0  0  0  0  0
  -24.6035   -3.2646  139.7930 C   0  0  0  0  0  0  0  0  0  0  0  0
  -25.5536    1.8918  137.3120 C   0  0  0  0  0  0  0  0  0  0  0  0
  -23.1721   -3.7560  139.9183 C   0  0  0  0  0  0  0  0  0  0  0  0
  -26.0098    0.7399  138.2235 C   0  0  0  0  0  0  0  0  0  0  0  0
  -26.9488    1.2388  139.3166 C   0  0  0  0  0  0  0  0  0  0  0  0
  3  2  1  0
  4  2  1  0
  5  3  1  0
  6  1  1  0
  6  4  1  0
  7  3  1  0
  7  6  1  0
  8  4  1  0
  9  5  1  0
 10  8  1  0
 11  9  1  0
 12 11  1  0
 13 12  1  0
 14  9  1  0
 14 11  1  0
 14 12  1  0
 15 10  1  0
 16 15  1  0
 17 16  1  0
 18 13  1  0
 19 16  1  0
 19 17  1  0
 20 18  1  0
 21 20  1  0
M  END
$$$$

     RDKit          3D

 19 23  0  0  0  0  0  0  0  0999 V2000
  -25.8297  -11.8553  141.8799 N   0  0  0  0  0  0  0  0  0  0  0  0
  -27.0256  -12.0888  141.4354 C   0  0  0  0  0  0  0  0  0  0  0  0
  -24.6461  -12.3857  141.2642 C   0  0  0  0  0  0  0  0  0  0  0  0
  -23.4098  -11.2636  143.0747 N   0  0  0  0  0  0  0  0  0  0  0  0
  -27.2690  -12.9571  140.2329 C   0  0  0  0  0  0  0  0  0  0  0  0
  -22.8731  -12.3770  143.8663 C   0  0  0  0  0  0  0  0  0  0  0  0
  -26.7936  -12.3066  138.8931 C   0  0  0  0  0  0  0  0  0  0  0  0
  -21.6424  -12.0667  144.4797 O   0  0  0  0  0  0  0  0  0  0  0  0
  -28.1234  -12.0109  138.1221 C   0  0  0  0  0  0  0  0  0  0  0  0
  -28.5740  -13.1643  137.2511 C   0  0  0  0  0  0  0  0  0  0  0  0
  -23.2964  -12.1052  141.8769 C   0  0  0  0  0  0  0  0  0  0  0  0
  -29.0298  -12.7448  135.8469 C   0  0  0  0  0  0  0  0  0  0  0  0
  -24.7409  -13.1526  140.1684 C   0  0  0  0  0  0  0  0  0  0  0  0
  -26.0717  -13.5152  139.5638 C   0  0  0  0  0  0  0  0  0  0  0  0
  -27.1158  -13.0000  137.5657 C   0  0  0  0  0  0  0  0  0  0  0  0
  -29.1113  -13.9682  134.9227 C   0  0  0  0  0  0  0  0  0  0  0  0
  -29.4573  -13.5416  133.4944 C   0  0  0  0  0  0  0  0  0  0  0  0
  -30.0948  -14.8514  135.4024 O   0  0  0  0  0  0  0  0  0  0  0  0
  -22.7408  -13.2915  142.6567 C   0  0  0  0  0  0  0  0  0  0  0  0
  2  1  2  0
  3  1  1  0
  5  2  1  0
  6  4  1  0
  7  5  1  0
  8  6  1  0
  9  7  1  0
 10  9  1  0
 11  3  1  0
 11  4  1  0
 12 10  1  0
 13  3  2  0
 14  5  1  0
 14  7  1  0
 14 13  1  0
 15  7  1  0
 15  9  1  0
 15 10  1  0
 16 12  1  0
 17 16  1  0
 18 16  1  0
 19  6  1  0
 19 11  1  0
M  END
$$$$

     RDKit          3D

  8  8  0  0  0  0  0  0  0  0999 V2000
  -26.8970  -22.2444  140.5130 O   0  0  0  0  0  0  0  0  0  0  0  0
  -25.5828  -22.6557  140.8262 C   0  0  0  0  0  0  0  0  0  0  0  0
  -26.2091  -22.9636  139.5168 C   0  0  0  0  0  0  0  0  0  0  0  0
  -26.1709  -23.5685  143.0019 C   0  0  0  0  0  0  0  0  0  0  0  0
  -25.8089  -22.0675  138.3503 C   0  0  0  0  0  0  0  0  0  0  0  0
  -24.7935  -24.9949  141.4974 C   0  0  0  0  0  0  0  0  0  0  0  0
  -24.9939  -26.1878  142.0598 C   0  0  0  0  0  0  0  0  0  0  0  0
  -25.5751  -23.7750  141.8221 C   0  0  0  0  0  0  0  0  0  0  0  0
  2  1  1  0
  3  1  1  0
  3  2  1  0
  5  3  1  0
  7  6  2  0
  8  2  1  0
  8  4  2  0
  8  6  1  0
M  END
$$$$

     RDKit          3D

 21 24  0  0  0  0  0  0  0  0999 V2000
  -30.9016  -12.2328  139.9323 O   0  0  0  0  0  0  0  0  0  0  0  0
  -31.0025  -13.4727  140.6106 C   0  0  0  0  0  0  0  0  0  0  0  0
  -32.1791  -13.6267  141.6084 C   0  0  0  0  0  0  0  0  0  0  0  0
  -32.7798  -14.7092  140.6640 C   0  0  0  0  0  0  0  0  0  0  0  0
  -31.5781  -14.5781  139.7292 C   0  0  0  0  0  0  0  0  0  0  0  0
  -32.9658  -16.1842  141.1331 C   0  0  0  0  0  0  0  0  0  0  0  0
  -33.4463  -16.4333  142.5518 C   0  0  0  0  0  0  0  0  0  0  0  0
  -32.0151  -16.7992  142.1402 C   0  0  0  0  0  0  0  0  0  0  0  0
  -33.0840  -12.3739  141.9305 C   0  0  0  0  0  0  0  0  0  0  0  0
  -32.7575  -17.6390  143.1553 C   0  0  0  0  0  0  0  0  0  0  0  0
  -32.6051  -11.6627  143.2478 C   0  0  0  0  0  0  0  0  0  0  0  0
  -34.5067  -12.8624  142.1290 C   0  0  0  0  0  0  0  0  0  0  0  0
  -33.3790  -10.3734  143.5567 C   0  0  0  0  0  0  0  0  0  0  0  0
  -35.4947  -12.6532  141.2393 C   0  0  0  0  0  0  0  0  0  0  0  0
  -32.5400   -9.2005  143.0512 C   0  0  0  0  0  0  0  0  0  0  0  0
  -31.2141   -9.7936  142.5612 C   0  0  0  0  0  0  0  0  0  0  0  0
  -31.1528  -11.1751  143.2014 C   0  0  0  0  0  0  0  0  0  0  0  0
  -35.3152  -10.2710  140.1705 C   0  0  0  0  0  0  0  0  0  0  0  0
  -30.0115   -8.9172  142.9163 C   0  0  0  0  0  0  0  0  0  0  0  0
  -34.8307  -10.7743  138.8082 C   0  0  0  0  0  0  0  0  0  0  0  0
  -36.1191  -11.2923  140.9878 C   0  0  0  0  0  0  0  0  0  0  0  0
  2  1  1  0
  3  2  1  0
  4  3  1  0
  5  2  1  0
  5  4  1  0
  6  4  1  0
  7  6  1  0
  8  6  1  0
  8  7  1  0
  9  3  1  0
 10  7  1  0
 10  8  1  0
 11  9  1  0
 12  9  1  0
 13 11  1  0
 14 12  2  3
 15 13  1  0
 16 15  1  0
 17 11  1  0
 17 16  1  0
 19 16  1  0
 20 18  1  0
 21 14  1  0
 21 18  1  0
M  END
$$$$

     RDKit          3D

 20 23  0  0  0  0  0  0  0  0999 V2000
  -22.6992   -9.4402  138.1813 O   0  0  0  0  0  0  0  0  0  0  0  0
  -21.7301   -8.7813  139.0296 C   0  0  0  0  0  0  0  0  0  0  0  0
  -22.5497   -9.7208  138.8729 O   0  0  0  0  0  0  0  0  0  0  0  0
  -19.9618  -10.3171  140.0253 C   0  0  0  0  0  0  0  0  0  0  0  0
  -20.2559   -9.0799  139.0939 C   0  0  0  0  0  0  0  0  0  0  0  0
  -20.9650  -10.7068  141.1520 C   0  0  0  0  0  0  0  0  0  0  0  0
  -21.1774  -10.3827  142.6606 C   0  0  0  0  0  0  0  0  0  0  0  0
  -20.8900   -9.0606  143.3846 C   0  0  0  0  0  0  0  0  0  0  0  0
  -18.5450  -10.5286  140.5815 C   0  0  0  0  0  0  0  0  0  0  0  0
  -21.4179   -7.8569  142.5986 C   0  0  0  0  0  0  0  0  0  0  0  0
  -18.5044   -9.2094  142.6174 C   0  0  0  0  0  0  0  0  0  0  0  0
  -19.2806   -6.9085  138.0646 C   0  0  0  0  0  0  0  0  0  0  0  0
  -19.9934  -11.2100  142.2394 C   0  0  0  0  0  0  0  0  0  0  0  0
  -23.7790   -9.8294  135.9210 C   0  0  0  0  0  0  0  0  0  0  0  0
  -22.3166   -9.5069  135.6595 C   0  0  0  0  0  0  0  0  0  0  0  0
  -19.4200   -8.9575  143.8123 C   0  0  0  0  0  0  0  0  0  0  0  0
  -18.6836  -10.5622  142.0325 N   0  0  0  0  0  0  0  0  0  0  0  0
  -19.4508   -7.7666  139.3361 C   0  0  0  0  0  0  0  0  0  0  0  0
  -18.3149   -7.5425  137.0496 C   0  0  0  0  0  0  0  0  0  0  0  0
  -23.0443   -8.8461  136.8156 C   0  0  0  0  0  0  0  0  0  0  0  0
  2  1  1  0
  3  2  2  0
  5  2  1  0
  5  4  1  0
  6  4  1  0
  7  6  1  0
  8  7  1  0
  9  4  1  0
 10  8  1  0
 13  6  1  0
 13  7  1  0
 15 14  1  0
 16  8  1  0
 16 11  1  0
 17  9  1  0
 17 11  1  0
 17 13  1  0
 18  5  1  0
 18 12  1  0
 19 12  1  0
 20  1  1  0
 20 14  1  0
 20 15  1  0
M  END
$$$$

     RDKit          3D

 19 19  0  0  0  0  0  0  0  0999 V2000
  -35.4522   -6.9463  143.3034 C   0  0  0  0  0  0  0  0  0  0  0  0
  -34.5422   -5.9176  142.5962 C   0  0  0  0  0  0  0  0  0  0  0  0
  -35.9914   -6.5249  144.6948 C   0  0  0  0  0  0  0  0  0  0  0  0
  -36.5085   -7.3255  142.4477 O   0  0  0  0  0  0  0  0  0  0  0  0
  -33.2570   -5.4700  143.3651 C   0  0  0  0  0  0  0  0  0  0  0  0
  -32.3394   -6.6893  143.7544 C   0  0  0  0  0  0  0  0  0  0  0  0
  -32.3729   -1.9804  142.6874 C   0  0  0  0  0  0  0  0  0  0  0  0
  -31.1960   -5.5744  146.3762 N   0  0  0  0  0  0  0  0  0  0  0  0
  -29.9649   -3.5514  147.0242 C   0  0  0  0  0  0  0  0  0  0  0  0
  -32.5087   -7.2939  145.1730 C   0  0  0  0  0  0  0  0  0  0  0  0
  -31.3180   -4.2534  147.0146 C   0  0  0  0  0  0  0  0  0  0  0  0
  -32.7022   -7.0722  147.6749 C   0  0  0  0  0  0  0  0  0  0  0  0
  -30.9632   -2.5182  142.7771 C   0  0  0  0  0  0  0  0  0  0  0  0
  -31.1252   -3.9968  143.0805 C   0  0  0  0  0  0  0  0  0  0  0  0
  -32.4647   -4.4429  142.4753 C   0  0  0  0  0  0  0  0  0  0  0  0
  -33.2346   -3.1352  142.1874 C   0  0  0  0  0  0  0  0  0  0  0  0
  -36.5523   -5.0996  144.7966 C   0  0  0  0  0  0  0  0  0  0  0  0
  -37.0256   -4.8116  146.2233 C   0  0  0  0  0  0  0  0  0  0  0  0
  -32.4797   -6.3062  146.3619 C   0  0  0  0  0  0  0  0  0  0  0  0
  2  1  1  0
  3  1  1  0
  4  1  1  0
  5  2  1  0
  6  5  1  0
 10  6  1  0
 11  8  1  0
 11  9  1  0
 13  7  1  0
 14 13  1  0
 15  5  1  0
 15 14  1  0
 16  7  1  0
 16 15  1  0
 17  3  1  0
 18 17  1  0
 19  8  1  0
 19 10  1  0
 19 12  1  0
M  END
$$$$

     RDKit          3D

 21 24  0  0  0  0  0  0  0  0999 V2000
  -23.2762  -24.7207  139.7802 C   0  0  0  0  0  0  0  0  0  0  0  0
  -24.3085  -25.6035  139.0825 C   0  0  0  0  0  0  0  0  0  0  0  0
  -24.2853  -23.5255  139.7636 C   0  0  0  0  0  0  0  0  0  0  0  0
  -22.5625  -23.2841  137.6922 C   0  0  0  0  0  0  0  0  0  0  0  0
  -22.2430  -21.7908  137.3028 C   0  0  0  0  0  0  0  0  0  0  0  0
  -25.3562  -24.5316  139.2881 C   0  0  0  0  0  0  0  0  0  0  0  0
  -22.8496  -23.3896  139.2172 C   0  0  0  0  0  0  0  0  0  0  0  0
  -26.3935  -24.1813  138.1687 C   0  0  0  0  0  0  0  0  0  0  0  0
  -26.0190  -24.4496  136.7156 C   0  0  0  0  0  0  0  0  0  0  0  0
  -26.0725  -23.0127  137.2512 C   0  0  0  0  0  0  0  0  0  0  0  0
  -21.4692  -24.1873  137.3170 N   0  0  0  0  0  0  0  0  0  0  0  0
  -27.2192  -22.1736  136.6612 C   0  0  0  0  0  0  0  0  0  0  0  0
  -26.7156  -21.0808  135.6599 C   0  0  0  0  0  0  0  0  0  0  0  0
  -27.6424  -20.9309  134.6146 O   0  0  0  0  0  0  0  0  0  0  0  0
  -24.1784  -20.6519  135.9467 C   0  0  0  0  0  0  0  0  0  0  0  0
  -20.7314  -21.3960  137.4999 C   0  0  0  0  0  0  0  0  0  0  0  0
  -25.2821  -21.2975  135.0736 C   0  0  0  0  0  0  0  0  0  0  0  0
  -22.8103  -21.3936  135.8937 C   0  0  0  0  0  0  0  0  0  0  0  0
  -19.8291  -21.7375  136.2889 C   0  0  0  0  0  0  0  0  0  0  0  0
  -20.6038  -19.8922  137.8629 C   0  0  0  0  0  0  0  0  0  0  0  0
  -19.1772  -19.4765  138.2264 C   0  0  0  0  0  0  0  0  0  0  0  0
  2  1  1  0
  3  1  1  0
  5  4  1  0
  6  2  1  0
  6  3  1  0
  7  1  1  0
  7  3  1  0
  7  4  1  0
  8  6  1  0
  9  8  1  0
 10  8  1  0
 10  9  1  0
 11  4  1  0
 12 10  1  0
 13 12  1  0
 14 13  1  0
 16  5  1  0
 17 13  1  0
 17 15  1  0
 18  5  1  0
 18 15  1  0
 19 16  1  0
 20 16  1  0
 21 20  1  0
M  END
$$$$

     RDKit          3D

 20 24  0  0  0  0  0  0  0  0999 V2000
  -32.6238  -20.2074  149.7838 O   0  0  0  0  0  0  0  0  0  0  0  0
  -32.0587  -19.0145  149.3041 C   0  0  0  0  0  0  0  0  0  0  0  0
  -31.9475  -21.2471  149.2030 N   0  0  0  0  0  0  0  0  0  0  0  0
  -30.6281  -19.3145  148.8664 C   0  0  0  0  0  0  0  0  0  0  0  0
  -30.8997  -20.7052  148.3338 C   0  0  0  0  0  0  0  0  0  0  0  0
  -32.8985  -22.1011  148.4817 C   0  0  0  0  0  0  0  0  0  0  0  0
  -29.0432  -22.2727  149.4340 C   0  0  0  0  0  0  0  0  0  0  0  0
  -28.1828  -21.3586  150.2234 N   0  0  0  0  0  0  0  0  0  0  0  0
  -29.5233  -19.1346  149.9666 C   0  0  0  0  0  0  0  0  0  0  0  0
  -29.4281  -21.9178  150.8119 C   0  0  0  0  0  0  0  0  0  0  0  0
  -29.7188  -21.6820  148.1646 C   0  0  0  0  0  0  0  0  0  0  0  0
  -33.9862  -22.4070  149.3139 O   0  0  0  0  0  0  0  0  0  0  0  0
  -28.1553  -19.9261  149.8045 C   0  0  0  0  0  0  0  0  0  0  0  0
  -26.9763  -19.3096  150.6068 C   0  0  0  0  0  0  0  0  0  0  0  0
  -29.7433  -18.6265  151.3617 C   0  0  0  0  0  0  0  0  0  0  0  0
  -26.7984  -17.7723  150.4437 C   0  0  0  0  0  0  0  0  0  0  0  0
  -26.5652  -17.1069  151.8245 C   0  0  0  0  0  0  0  0  0  0  0  0
  -29.4229  -17.5936  150.2320 C   0  0  0  0  0  0  0  0  0  0  0  0
  -28.0261  -17.1247  149.7832 C   0  0  0  0  0  0  0  0  0  0  0  0
  -25.5807  -17.4848  149.5205 C   0  0  0  0  0  0  0  0  0  0  0  0
  2  1  1  0
  3  1  1  0
  4  2  1  0
  5  3  1  0
  5  4  1  0
  6  3  1  0
  8  7  1  0
  9  4  1  0
 10  7  1  0
 10  8  1  0
 11  5  1  0
 11  7  1  0
 12  6  1  0
 13  8  1  0
 13  9  1  0
 14 13  1  0
 15  9  1  0
 16 14  1  0
 17 16  1  0
 18  9  1  0
 18 15  1  0
 19 16  1  0
 19 18  1  0
 20 16  1  0
M  END
$$$$

     RDKit          3D

 21 26  0  0  0  0  0  0  0  0999 V2000
  -24.4266  -19.7360  135.2955 C   0  0  0  0  0  0  0  0  0  0  0  0
  -24.2344  -19.6529  136.8558 C   0  0  0  0  0  0  0  0  0  0  0  0
  -24.4644  -18.2392  137.5082 C   0  0  0  0  0  0  0  0  0  0  0  0
  -23.9048  -17.0080  136.7890 C   0  0  0  0  0  0  0  0  0  0  0  0
  -26.9428  -18.6620  135.3333 C   0  0  0  0  0  0  0  0  0  0  0  0
  -28.2988  -20.4432  136.6106 C   0  0  0  0  0  0  0  0  0  0  0  0
  -23.3336  -16.0229  137.8262 C   0  0  0  0  0  0  0  0  0  0  0  0
  -23.5290  -16.5728  139.1885 C   0  0  0  0  0  0  0  0  0  0  0  0
  -23.7422  -21.0422  134.7868 C   0  0  0  0  0  0  0  0  0  0  0  0
  -28.8303  -17.8576  136.9212 C   0  0  0  0  0  0  0  0  0  0  0  0
  -27.7278  -19.0291  136.6362 C   0  0  0  0  0  0  0  0  0  0  0  0
  -23.1956  -17.5074  137.9998 C   0  0  0  0  0  0  0  0  0  0  0  0
  -25.9398  -19.6966  134.7641 C   0  0  0  0  0  0  0  0  0  0  0  0
  -30.3134  -16.8569  137.7772 C   0  0  0  0  0  0  0  0  0  0  0  0
  -23.4979  -21.0718  132.9300 S   0  0  0  0  0  0  0  0  0  0  0  0
  -31.3574  -17.5572  137.2991 C   0  0  0  0  0  0  0  0  0  0  0  0
  -30.4632  -18.5701  138.2074 C   0  0  0  0  0  0  0  0  0  0  0  0
  -28.4664  -18.4839  138.9702 N   0  0  0  0  0  0  0  0  0  0  0  0
  -27.5107  -16.7723  138.1981 C   0  0  0  0  0  0  0  0  0  0  0  0
  -30.3150  -16.3819  136.8338 C   0  0  0  0  0  0  0  0  0  0  0  0
  -29.5710  -16.5384  138.9701 C   0  0  0  0  0  0  0  0  0  0  0  0
  2  1  1  0
  3  2  1  0
  4  3  1  0
  7  4  1  0
  8  7  1  0
  9  1  1  0
 11  5  1  0
 11  6  1  0
 11 10  1  0
 12  3  1  0
 12  4  1  0
 12  7  1  0
 12  8  1  0
 13  1  1  0
 13  5  1  0
 14 10  1  0
 15  9  1  0
 16 14  1  0
 17 16  1  0
 18 17  1  0
 19 18  1  0
 20 16  1  0
 20 17  1  0
 20 19  1  0
 21 10  1  0
 21 14  1  0
M  END
$$$$

     RDKit          3D

 11 13  0  0  0  0  0  0  0  0999 V2000
  -20.9472  -12.4562  146.6144 F   0  0  0  0  0  0  0  0  0  0  0  0
  -21.1427  -11.8183  145.4000 C   0  0  0  0  0  0  0  0  0  0  0  0
  -20.2679  -12.1989  144.1920 C   0  0  0  0  0  0  0  0  0  0  0  0
  -21.6805  -10.3939  145.5141 C   0  0  0  0  0  0  0  0  0  0  0  0
  -19.3156  -13.3680  144.3992 C   0  0  0  0  0  0  0  0  0  0  0  0
  -21.3183   -9.3984  144.3969 C   0  0  0  0  0  0  0  0  0  0  0  0
  -18.7836  -11.9451  144.4021 C   0  0  0  0  0  0  0  0  0  0  0  0
  -20.0123   -8.6786  144.6463 C   0  0  0  0  0  0  0  0  0  0  0  0
  -20.9012   -7.4664  144.7560 C   0  0  0  0  0  0  0  0  0  0  0  0
  -22.0704   -8.2153  144.5238 O   0  0  0  0  0  0  0  0  0  0  0  0
  -22.6055  -11.5307  145.0871 C   0  0  0  0  0  0  0  0  0  0  0  0
  2  1  1  0
  3  2  1  0
  4  2  1  0
  5  3  1  0
  6  4  1  0
  7  3  1  0
  7  5  1  0
  8  6  1  0
  9  8  1  0
 10  6  1  0
 10  9  1  0
 11  2  1  0
 11  4  1  0
M  END
$$$$

     RDKit          3D

 19 21  0  0  0  0  0  0  0  0999 V2000
  -25.0520   -8.4620  144.7152 C   0  0  0  0  0  0  0  0  0  0  0  0
  -24.1562   -8.2593  143.6021 C   0  0  0  0  0  0  0  0  0  0  0  0
  -23.7063   -9.3616  142.8291 C   0  0  0  0  0  0  0  0  0  0  0  0
  -25.5366   -7.9455  143.6986 C   0  0  0  0  0  0  0  0  0  0  0  0
  -23.6975  -10.5224  143.5135 N   0  0  0  0  0  0  0  0  0  0  0  0
  -24.7317   -8.9753  142.0278 N   0  0  0  0  0  2  0  0  0  0  0  0
  -26.0180   -8.9938  142.6791 C   0  0  0  0  0  0  0  0  0  0  0  0
  -27.4258   -9.4489  142.2614 C   0  0  0  0  0  0  0  0  0  0  0  0
  -28.2753   -9.9552  143.3843 C   0  0  0  0  0  0  0  0  0  0  0  0
  -29.2387   -9.1103  143.9888 C   0  0  0  0  0  0  0  0  0  0  0  0
  -26.5959  -10.5517  141.6509 C   0  0  0  0  0  0  0  0  0  0  0  0
  -28.0913  -11.2349  143.9655 C   0  0  0  0  0  0  0  0  0  0  0  0
  -25.9612   -9.4020  142.6484 C   0  0  0  0  0  0  0  0  0  0  0  0
  -28.9831  -11.6652  144.9646 C   0  0  0  0  0  0  0  0  0  0  0  0
  -25.1883  -10.2176  141.8665 O   0  0  0  0  0  1  0  0  0  0  0  0
  -30.1936   -9.8119  144.7835 C   0  0  0  0  0  0  0  0  0  0  0  0
  -29.8604  -11.1367  144.7863 N   0  0  0  0  0  0  0  0  0  0  0  0
  -22.7983   -8.3698  144.2775 F   0  0  0  0  0  0  0  0  0  0  0  0
  -23.7617   -7.4674  145.6765 Cl  0  0  0  0  0  0  0  0  0  0  0  0
  2  1  1  0
  3  2  1  0
  4  1  1  0
  4  2  1  0
  5  3  1  0
  6  3  1  0
  7  4  1  0
  9  8  1  0
 10  9  1  0
 11  8  1  0
 12  9  2  0
 13  6  1  0
 13  7  1  0
 13  8  1  0
 14 12  1  0
 15 13  1  0
 16 10  1  0
 17 14  1  0
 17 16  1  0
 18  2  1  0
 19  1  1  0
M  RAD  2   6   2  15   2
M  END
$$$$

     RDKit          3D

 21 22  0  0  0  0  0  0  0  0999 V2000
  -20.4828   -8.3258  140.9252 C   0  0  0  0  0  0  0  0  0  0  0  0
  -21.2709   -7.2337  140.1804 C   0  0  0  0  0  0  0  0  0  0  0  0
  -21.2909   -9.0017  142.0443 C   0  0  0  0  0  0  0  0  0  0  0  0
  -21.9103   -4.7496  140.4183 C   0  0  0  0  0  0  0  0  0  0  0  0
  -21.1625  -10.5740  143.9981 C   0  0  0  0  0  0  0  0  0  0  0  0
  -21.5605   -9.8930  145.0780 C   0  0  0  0  0  0  0  0  0  0  0  0
  -20.3895   -9.9125  142.8857 C   0  0  0  0  0  0  0  0  0  0  0  0
  -21.7433   -6.1024  141.1180 C   0  0  0  0  0  0  0  0  0  0  0  0
  -22.8728   -4.7894  139.2114 C   0  0  0  0  0  0  0  0  0  0  0  0
  -23.5828   -3.4282  138.9650 C   0  0  0  0  0  0  0  0  0  0  0  0
  -24.5444   -1.5869  136.9408 Si  0  0  0  0  0  4  0  0  0  0  0  0
  -25.8767   -2.7811  136.4206 C   0  0  0  0  0  0  0  0  0  0  0  0
  -24.8548   -3.2823  139.8572 C   0  0  0  0  0  0  0  0  0  0  0  0
  -23.8693   -3.2568  137.4425 C   0  0  0  0  0  0  0  0  0  0  0  0
  -25.0894   -4.0119  136.8871 C   0  0  0  0  0  0  0  0  0  0  0  0
  -24.5464   -2.6413  141.2233 C   0  0  0  0  0  0  0  0  0  0  0  0
  -24.6335   -3.5647  142.4382 C   0  0  0  0  0  0  0  0  0  0  0  0
  -25.7598   -2.5792  142.1494 C   0  0  0  0  0  0  0  0  0  0  0  0
  -26.4038   -0.1600  142.3339 C   0  0  0  0  0  0  0  0  0  0  0  0
  -26.6613   -1.6901  144.3137 C   0  0  0  0  0  0  0  0  0  0  0  0
  -25.8164   -1.3569  143.0818 C   0  0  0  0  0  0  0  0  0  0  0  0
  2  1  1  0
  3  1  1  0
  6  5  2  0
  7  3  1  0
  7  5  1  0
  8  2  1  0
  8  4  1  0
  9  4  1  0
 10  9  1  0
 12 11  1  0
 13 10  1  0
 14 10  1  0
 14 11  1  0
 15 12  1  0
 15 14  1  0
 16 13  1  0
 17 16  1  0
 18 16  1  0
 18 17  1  0
 21 18  1  0
 21 19  1  0
 21 20  1  0
M  END
$$$$

     RDKit          3D

 21 28  0  0  0  0  0  0  0  0999 V2000
  -24.1163  -13.9746  147.2093 C   0  0  0  0  0  0  0  0  0  0  0  0
  -25.0936  -13.6335  146.1606 C   0  0  0  0  0  0  0  0  0  0  0  0
  -25.0569  -14.2495  144.9738 C   0  0  0  0  0  0  0  0  0  0  0  0
  -24.1093  -15.4163  144.7401 C   0  0  0  0  0  0  0  0  0  0  0  0
  -23.9241  -15.6907  143.2125 C   0  0  0  0  0  0  0  0  0  0  0  0
  -24.3837  -17.1085  142.8574 C   0  0  0  0  0  0  0  0  0  0  0  0
  -23.0438  -14.7176  146.9161 C   0  0  0  0  0  0  0  0  0  0  0  0
  -21.9001  -14.0761  144.8027 C   0  0  0  0  0  0  0  0  0  0  0  0
  -25.0690  -17.1077  141.4848 C   0  0  0  0  0  0  0  0  0  0  0  0
  -26.4056  -17.8260  141.1845 C   0  0  0  0  0  0  0  0  0  0  0  0
  -26.7667  -19.1604  141.9276 C   0  0  0  0  0  0  0  0  0  0  0  0
  -27.5453  -18.9360  143.1527 N   0  0  0  0  0  0  0  0  0  0  0  0
  -26.1464  -19.3579  143.2956 C   0  0  0  0  0  0  0  0  0  0  0  0
  -22.9050  -16.7668  142.8531 C   0  0  0  0  0  0  0  0  0  0  0  0
  -25.2202  -15.9211  142.4367 C   0  0  0  0  0  0  0  0  0  0  0  0
  -26.3512  -18.0863  139.6690 C   0  0  0  0  0  0  0  0  0  0  0  0
  -25.2055  -17.2601  139.0778 C   0  0  0  0  0  0  0  0  0  0  0  0
  -22.7652  -15.1448  145.4916 C   0  0  0  0  0  0  0  0  0  0  0  0
  -25.6258  -20.1172  142.0927 C   0  0  0  0  0  0  0  0  0  0  0  0
  -23.8020  -17.7884  139.3325 C   0  0  0  0  0  0  0  0  0  0  0  0
  -24.3716  -16.6801  140.2027 C   0  0  0  0  0  0  0  0  0  0  0  0
  2  1  1  0
  3  2  2  0
  4  3  1  0
  5  4  1  0
  6  5  1  0
  7  1  2  0
  9  6  1  0
 10  9  1  0
 11 10  1  0
 12 11  1  0
 13 11  1  0
 13 12  1  0
 14  5  1  0
 14  6  1  0
 15  5  1  0
 15  6  1  0
 15  9  1  0
 16 10  1  0
 17 16  1  0
 18  4  1  0
 18  7  1  0
 18  8  1  0
 19 11  1  0
 19 13  1  0
 20 17  1  0
 21  9  1  0
 21 17  1  0
 21 20  1  0
M  END
$$$$

     RDKit          3D

 19 22  0  0  0  0  0  0  0  0999 V2000
  -34.1990   -5.6582  143.9200 O   0  0  0  0  0  0  0  0  0  0  0  0
  -33.0892   -5.0922  143.2703 C   0  0  0  0  0  0  0  0  0  0  0  0
  -33.3388   -4.9737  141.9012 O   0  0  0  0  0  0  0  0  0  0  0  0
  -33.0597   -6.4836  143.8019 C   0  0  0  0  0  0  0  0  0  0  0  0
  -32.5318   -6.8847  145.1707 C   0  0  0  0  0  0  0  0  0  0  0  0
  -31.5653   -5.9202  145.7075 N   0  0  0  0  0  0  0  0  0  0  0  0
  -31.9431   -8.3115  144.9340 C   0  0  0  0  0  0  0  0  0  0  0  0
  -29.5487   -7.6314  144.2076 C   0  0  0  0  0  0  0  0  0  0  0  0
  -29.5616   -9.6910  144.9128 C   0  0  0  0  0  0  0  0  0  0  0  0
  -30.1774  -11.0372  144.4271 C   0  0  0  0  0  0  0  0  0  0  0  0
  -28.7958   -8.8997  143.8415 C   0  0  0  0  0  0  0  0  0  0  0  0
  -30.8145  -11.8249  145.6025 C   0  0  0  0  0  0  0  0  0  0  0  0
  -32.7687  -12.2658  145.7950 C   0  0  0  0  0  0  0  0  0  0  0  0
  -30.4033   -8.4182  145.2070 C   0  0  0  0  0  0  0  0  0  0  0  0
  -31.9418  -11.1837  146.1474 O   0  0  0  0  0  0  0  0  0  0  0  0
  -29.0675  -11.9233  143.8221 C   0  0  0  0  0  0  0  0  0  0  0  0
  -32.4086   -8.7612  143.5175 C   0  0  0  0  0  0  0  0  0  0  0  0
  -33.3585   -7.7021  142.9662 C   0  0  0  0  0  0  0  0  0  0  0  0
  -31.6336  -13.0296  145.1684 C   0  0  0  0  0  0  0  0  0  0  0  0
  2  1  1  0
  3  2  1  0
  4  1  1  0
  4  2  1  0
  5  4  1  0
  6  5  1  0
  7  5  1  0
 10  9  1  0
 11  8  1  0
 11  9  1  0
 12 10  1  0
 14  7  1  0
 14  8  1  0
 14  9  1  0
 15 12  1  0
 15 13  1  0
 16 10  1  0
 17  7  1  0
 18  4  1  0
 18 17  1  0
 19 12  1  0
 19 13  1  0
M  END
$$$$

     RDKit          3D

 21 24  0  0  0  0  0  0  0  0999 V2000
  -22.6376  -17.5729  149.6232 N   0  0  0  0  0  0  0  0  0  0  0  0
  -22.3661  -18.2947  148.4146 C   0  0  0  0  0  0  0  0  0  0  0  0
  -23.2155  -19.1880  148.0031 N   0  0  0  0  0  0  0  0  0  0  0  0
  -21.0656  -18.1233  147.6846 C   0  0  0  0  0  0  0  0  0  0  0  0
  -20.7055  -17.4553  151.7806 C   0  0  0  0  0  0  0  0  0  0  0  0
  -21.7723  -17.7172  152.8578 C   0  0  0  0  0  0  0  0  0  0  0  0
  -22.1694  -16.2001  149.8976 C   0  0  0  0  0  0  0  0  0  0  0  0
  -23.3423  -15.2882  150.3516 C   0  0  0  0  0  0  0  0  0  0  0  0
  -24.5805  -15.8618  150.7161 C   0  0  0  0  0  0  0  0  0  0  0  0
  -24.3690  -15.2955  149.3847 C   0  0  0  0  0  0  0  0  0  0  0  0
  -25.2790  -15.2454  148.3722 C   0  0  0  0  0  0  0  0  0  0  0  0
  -26.5214  -15.8418  148.7911 C   0  0  0  0  0  0  0  0  0  0  0  0
  -26.7431  -16.4002  150.1336 C   0  0  0  0  0  0  0  0  0  0  0  0
  -25.7298  -16.4329  151.1609 C   0  0  0  0  0  0  0  0  0  0  0  0
  -22.3330  -16.4352  153.4432 C   0  0  0  0  0  0  0  0  0  0  0  0
  -22.2180  -16.1879  154.9426 C   0  0  0  0  0  0  0  0  0  0  0  0
  -21.2590  -15.5007  153.9761 C   0  0  0  0  0  0  0  0  0  0  0  0
  -20.2216  -14.8881  151.2831 C   0  0  0  0  0  0  0  0  0  0  0  0
  -20.8931  -16.2349  150.8138 C   0  0  0  0  0  0  0  0  0  0  0  0
  -20.9110  -13.7698  152.1253 C   0  0  0  0  0  0  0  0  0  0  0  0
  -21.5205  -14.0775  153.5150 C   0  0  0  0  0  0  0  0  0  0  0  0
  2  1  1  0
  3  2  2  0
  4  2  1  0
  6  5  1  0
  7  1  1  0
  8  7  1  0
  9  8  1  0
 10  8  1  0
 10  9  4  0
 11 10  4  0
 12 11  4  0
 13 12  4  0
 14  9  4  0
 14 13  4  0
 15  6  1  0
 16 15  1  0
 17 15  1  0
 17 16  1  0
 19  5  1  0
 19  7  1  0
 19 18  1  0
 20 18  1  0
 21 17  1  0
 21 20  1  0
M  END
$$$$

     RDKit          3D

 20 27  0  0  0  0  0  0  0  0999 V2000
  -29.1290  -16.1575  144.1934 O   0  0  0  0  0  0  0  0  0  0  0  0
  -32.4456  -17.3464  145.0368 O   0  0  0  0  0  0  0  0  0  0  0  0
  -28.6126  -19.3236  145.5698 O   0  0  0  0  0  0  0  0  0  0  0  0
  -28.9817  -20.4772  146.2927 C   0  0  0  0  0  0  0  0  0  0  0  0
  -29.7210  -20.3198  147.6512 C   0  0  0  0  0  0  0  0  0  0  0  0
  -27.9927  -19.4387  146.7981 C   0  0  0  0  0  0  0  0  0  0  0  0
  -30.5344  -20.3435  146.3768 C   0  0  0  0  0  0  0  0  0  0  0  0
  -30.5739  -18.2036  143.9087 C   0  0  0  0  0  0  0  0  0  0  0  0
  -31.2364  -18.0620  145.2614 C   0  0  0  0  0  0  0  0  0  0  0  0
  -30.5714  -16.7966  145.6067 C   0  0  0  0  0  0  0  0  0  0  0  0
  -29.1626  -16.2424  145.5731 C   0  0  0  0  0  0  0  0  0  0  0  0
  -31.6520  -16.1863  144.8605 C   0  0  0  0  0  0  0  0  0  0  0  0
  -28.8290  -19.1671  148.0076 C   0  0  0  0  0  0  0  0  0  0  0  0
  -31.3998  -21.5543  146.3457 N   0  0  0  0  0  0  0  0  0  0  0  0
  -30.7323  -22.8805  146.4667 C   0  0  0  0  0  0  0  0  0  0  0  0
  -31.1141  -22.3912  145.1552 C   0  0  0  0  0  0  0  0  0  0  0  0
  -30.4227  -16.6991  144.0947 C   0  0  0  0  0  0  0  0  0  0  0  0
  -30.4666  -19.0237  142.9145 N   0  0  0  0  0  0  0  0  0  0  0  0
  -31.3260  -19.0859  146.3232 N   0  0  0  0  0  0  0  0  0  0  0  0
  -31.1053  -20.2669  142.9165 N   0  0  0  0  0  0  0  0  0  0  0  0
  4  3  1  0
  5  4  1  0
  6  3  1  0
  6  4  1  0
  7  4  1  0
  7  5  1  0
  9  2  1  0
  9  8  1  0
 10  9  1  0
 11  1  1  0
 11 10  1  0
 12  2  1  0
 12 10  1  0
 13  5  1  0
 13  6  1  0
 14  7  1  0
 15 14  1  0
 16 14  1  0
 16 15  1  0
 17  1  1  0
 17  8  1  0
 17 10  1  0
 17 12  1  0
 18  8  2  3
 19  7  1  0
 19  9  1  0
 20 18  1  0
M  END
$$$$

     RDKit          3D

 21 26  0  0  0  0  0  0  0  0999 V2000
  -21.1920   -9.6159  153.7406 O   0  0  0  0  0  0  0  0  0  0  0  0
  -22.4947   -9.0147  153.6785 C   0  0  0  0  0  0  0  0  0  0  0  0
  -23.5546   -9.5385  152.6443 C   0  0  0  0  0  0  0  0  0  0  0  0
  -20.8544  -10.3916  152.5952 C   0  0  0  0  0  0  0  0  0  0  0  0
  -24.2142   -8.1753  152.2859 C   0  0  0  0  0  0  0  0  0  0  0  0
  -25.6908   -8.0665  152.7104 C   0  0  0  0  0  0  0  0  0  0  0  0
  -27.1610   -8.4474  152.7457 C   0  0  0  0  0  0  0  0  0  0  0  0
  -23.5490   -9.9610  154.1508 C   0  0  0  0  0  0  0  0  0  0  0  0
  -20.6061   -9.5096  151.3494 C   0  0  0  0  0  0  0  0  0  0  0  0
  -20.6043  -10.3326  150.0246 C   0  0  0  0  0  0  0  0  0  0  0  0
  -21.9731  -11.0037  149.7027 C   0  0  0  0  0  0  0  0  0  0  0  0
  -22.5129  -10.8073  148.2506 C   0  0  0  0  0  0  0  0  0  0  0  0
  -26.1305   -9.4242  153.2792 C   0  0  0  0  0  0  0  0  0  0  0  0
  -21.7910  -11.7082  147.2213 C   0  0  0  0  0  0  0  0  0  0  0  0
  -22.1855  -14.1501  147.9781 C   0  0  0  0  0  0  0  0  0  0  0  0
  -23.2558  -15.0426  148.6471 C   0  0  0  0  0  0  0  0  0  0  0  0
  -22.6499  -12.9675  147.0539 C   0  0  0  0  0  0  0  0  0  0  0  0
  -24.0097  -11.1936  148.1330 C   0  0  0  0  0  0  0  0  0  0  0  0
  -23.7002  -14.5474  150.0246 C   0  0  0  0  0  0  0  0  0  0  0  0
  -24.0797  -12.4325  147.2470 C   0  0  0  0  0  0  0  0  0  0  0  0
  -25.0458   -9.3743  152.2124 C   0  0  0  0  0  0  0  0  0  0  0  0
  2  1  1  0
  3  2  1  0
  4  1  1  0
  5  3  1  0
  6  5  1  0
  7  6  1  0
  8  2  1  0
  8  3  1  0
  9  4  1  0
 10  9  1  0
 11 10  1  0
 12 11  1  0
 13  6  1  0
 13  7  1  0
 14 12  1  0
 16 15  1  0
 17 14  1  0
 17 15  1  0
 18 12  1  0
 19 16  1  0
 20 17  1  0
 20 18  1  0
 21  3  1  0
 21  5  1  0
 21  6  1  0
 21 13  1  0
M  END
$$$$

     RDKit          3D

 21 27  0  0  0  0  0  0  0  0999 V2000
  -28.0639  -18.6925  137.9747 N   0  0  0  0  0  0  0  0  0  0  0  0
  -28.1749  -17.9316  139.2266 C   0  0  0  0  0  0  0  0  0  0  0  0
  -27.4793  -17.3590  138.0169 C   0  0  0  0  0  0  0  0  0  0  0  0
  -29.3590  -17.0227  139.2815 N   0  0  0  0  0  0  0  0  0  0  0  0
  -26.1099  -17.1426  138.7251 C   0  0  0  0  0  0  0  0  0  0  0  0
  -26.0932  -17.5485  137.3083 C   0  0  0  0  0  0  0  0  0  0  0  0
  -25.4947  -18.9643  136.9658 C   0  0  0  0  0  0  0  0  0  0  0  0
  -24.7828  -19.6635  138.0866 N   0  0  0  0  0  0  0  0  0  0  0  0
  -24.6401  -18.8336  135.6818 C   0  0  0  0  0  0  0  0  0  0  0  0
  -25.5886  -20.6191  138.8981 C   0  0  0  0  0  0  0  0  0  0  0  0
  -25.9109  -19.6801  135.6480 C   0  0  0  0  0  0  0  0  0  0  0  0
  -26.7855  -21.0105  138.2828 O   0  0  0  0  0  0  0  0  0  0  0  0
  -23.7429  -20.7069  137.8716 C   0  0  0  0  0  0  0  0  0  0  0  0
  -25.7172  -21.1639  135.3321 C   0  0  0  0  0  0  0  0  0  0  0  0
  -24.5312  -21.6631  138.7121 C   0  0  0  0  0  0  0  0  0  0  0  0
  -23.8439  -22.1095  139.9983 C   0  0  0  0  0  0  0  0  0  0  0  0
  -24.4239  -23.1370  139.0314 C   0  0  0  0  0  0  0  0  0  0  0  0
  -26.8687  -21.5117  134.3877 C   0  0  0  0  0  0  0  0  0  0  0  0
  -27.8512  -20.3415  134.4258 C   0  0  0  0  0  0  0  0  0  0  0  0
  -27.0345  -19.1143  134.7879 C   0  0  0  0  0  0  0  0  0  0  0  0
  -29.4901  -18.3670  139.7847 C   0  0  0  0  0  0  0  0  0  0  0  0
  2  1  1  0
  3  1  1  0
  3  2  1  0
  4  2  1  0
  5  3  1  0
  6  3  1  0
  6  5  1  0
  7  6  1  0
  8  7  1  0
  9  7  1  0
 10  8  1  0
 11  7  1  0
 11  9  1  0
 12 10  1  0
 13  8  1  0
 14 11  1  0
 15 10  1  0
 15 13  1  0
 16 15  1  0
 17 15  1  0
 17 16  1  0
 18 14  1  0
 19 18  1  0
 20 11  1  0
 20 19  1  0
 21  2  1  0
 21  4  1  0
M  END
$$$$

     RDKit          3D

 20 21  0  0  0  0  0  0  0  0999 V2000
  -21.5620  -21.6492  139.4110 C   0  0  0  0  0  0  0  0  0  0  0  0
  -20.1717  -21.0198  139.2429 C   0  0  0  0  0  0  0  0  0  0  0  0
  -20.1049  -19.6675  139.9598 C   0  0  0  0  0  0  0  0  0  0  0  0
  -18.6251  -17.6851  140.5356 C   0  0  0  0  0  0  0  0  0  0  0  0
  -21.9283  -22.6759  138.3386 C   0  0  0  0  0  0  0  0  0  0  0  0
  -22.5688  -21.2924  138.3220 C   0  0  0  0  0  0  0  0  0  0  0  0
  -19.8484  -18.5433  144.1506 C   0  0  0  0  0  0  0  0  0  0  0  0
  -17.2543  -17.3443  141.1417 C   0  0  0  0  0  0  0  0  0  0  0  0
  -18.6722  -19.1114  139.9555 C   0  0  0  0  0  0  0  0  0  0  0  0
  -18.5057  -18.0603  144.6928 C   0  0  0  0  0  0  0  0  0  0  0  0
  -17.8008  -17.1890  143.6440 C   0  0  0  0  0  0  0  0  0  0  0  0
  -15.6460  -16.0505  143.1667 F   0  0  0  0  0  0  0  0  0  0  0  0
  -18.9130  -16.7820  139.5241 F   0  0  0  0  0  0  0  0  0  0  0  0
  -23.9837  -21.3186  138.7285 N   0  0  0  0  0  0  0  0  0  0  0  0
  -15.5941  -18.0489  144.5521 N   0  0  0  0  0  0  0  0  0  0  0  0
  -16.2771  -17.2185  143.5683 C   0  0  0  0  0  0  0  0  0  0  0  0
  -24.7411  -19.2680  137.5410 C   0  0  0  0  0  0  0  0  0  0  0  0
  -17.0961  -17.9806  142.5327 C   0  0  0  0  0  0  0  0  0  0  0  0
  -23.9645  -17.9586  137.4077 C   0  0  0  0  0  0  0  0  0  0  0  0
  -24.4889  -19.9512  138.9030 C   0  0  0  0  0  0  0  0  0  0  0  0
  2  1  1  0
  3  2  1  0
  5  1  1  0
  6  1  1  0
  6  5  1  0
  8  4  1  0
  9  3  1  0
  9  4  1  0
 10  7  1  0
 11 10  1  0
 13  4  1  0
 14  6  1  0
 16 11  1  0
 16 12  1  0
 16 15  1  0
 18  8  1  0
 18 11  1  0
 18 16  1  0
 19 17  1  0
 20 14  1  0
 20 17  1  0
M  END
$$$$

     RDKit          3D

 21 25  0  0  0  0  0  0  0  0999 V2000
  -25.3845    3.5413  141.8325 O   0  0  0  0  0  0  0  0  0  0  0  0
  -23.7431    3.0601  140.0218 C   0  0  0  0  0  0  0  0  0  0  0  0
  -23.8538    2.1686  138.9501 O   0  0  0  0  0  0  0  0  0  0  0  0
  -22.5253    4.3979  139.8838 C   0  0  0  0  0  0  0  0  0  0  0  0
  -21.1009    4.2768  139.7558 O   0  0  0  0  0  0  0  0  0  0  0  0
  -25.2401    3.3749  140.4451 C   0  0  0  0  0  0  0  0  0  0  0  0
  -22.6065    3.8303  137.5483 C   0  0  0  0  0  0  0  0  0  0  0  0
  -21.2769    3.0161  138.1092 C   0  0  0  0  0  0  0  0  0  0  0  0
  -23.2973    5.1453  138.5545 C   0  0  0  0  0  0  0  0  0  0  0  0
  -23.5966    4.6190  132.6194 I   0  0  0  0  0  0  0  0  0  0  0  0
  -22.1705    1.9084  135.8498 C   0  0  0  0  0  0  0  0  0  0  0  0
  -23.1778    5.2509  140.3935 C   0  0  0  0  0  0  0  0  0  0  0  0
  -20.9832    1.1511  135.6599 O   0  0  0  0  0  0  0  0  0  0  0  0
  -22.3851    2.2866  137.3731 C   0  0  0  0  0  0  0  0  0  0  0  0
  -23.5627    3.6996  134.5514 C   0  0  0  0  0  0  0  0  0  0  0  0
  -22.1831    3.0586  134.8013 C   0  0  0  0  0  0  0  0  0  0  0  0
  -24.6982    5.5472  138.0066 C   0  0  0  0  0  0  0  0  0  0  0  0
  -22.4285    4.3642  141.7896 C   0  0  0  0  0  0  0  0  0  0  0  0
  -21.3088    3.0199  141.4343 C   0  0  0  0  0  0  0  0  0  0  0  0
  -20.9573    2.9898  139.7648 C   0  0  0  0  0  0  0  0  0  0  0  0
  -23.7080    2.7805  137.7182 C   0  0  0  0  0  0  0  0  0  0  0  0
  3  2  1  0
  4  2  1  0
  5  4  1  0
  6  1  1  0
  6  2  1  0
  8  7  1  0
  9  7  1  0
 12  4  1  0
 12  9  1  0
 13 11  1  0
 14  7  1  0
 14  8  1  0
 14 11  1  0
 15 10  1  0
 16 11  1  0
 16 15  1  0
 17  9  1  0
 18 12  1  0
 19 18  1  0
 20  5  1  0
 20  8  1  0
 20 19  1  0
 21  3  1  0
 21  7  1  0
 21 14  1  0
M  END
$$$$

     RDKit          3D

 11 13  0  0  0  0  0  0  0  0999 V2000
  -22.9996  -21.9077  136.3344 O   0  0  0  0  0  0  0  0  0  0  0  0
  -23.0509  -20.5002  136.3848 C   0  0  0  0  0  0  0  0  0  0  0  0
  -24.2710  -20.0742  136.9164 O   0  0  0  0  0  0  0  0  0  0  0  0
  -22.1698  -21.2839  137.2880 C   0  0  0  0  0  0  0  0  0  0  0  0
  -22.6368  -21.5875  138.7144 C   0  0  0  0  0  0  0  0  0  0  0  0
  -22.0780  -20.5340  139.6761 C   0  0  0  0  0  0  0  0  0  0  0  0
  -22.7205  -20.5415  141.0574 C   0  0  0  0  0  0  0  0  0  0  0  0
  -21.7770  -20.1322  142.1925 C   0  0  0  0  0  0  0  0  0  0  0  0
  -23.0371  -19.4190  140.0773 C   0  0  0  0  0  0  0  0  0  0  0  0
  -21.4537  -21.2522  143.1673 C   0  0  0  0  0  0  0  0  0  0  0  0
  -22.4121  -20.1443  143.5731 C   0  0  0  0  0  0  0  0  0  0  0  0
  2  1  1  0
  3  2  1  0
  4  1  1  0
  4  2  1  0
  5  4  1  0
  6  5  1  0
  7  6  1  0
  8  7  1  0
  9  6  1  0
  9  7  1  0
 10  8  1  0
 11  8  1  0
 11 10  1  0
M  END
$$$$

     RDKit          3D

 11 15  0  0  0  0  0  0  0  0999 V2000
  -24.2156  -14.9853  140.4545 C   0  0  0  0  0  0  0  0  0  0  0  0
  -24.5520  -13.7210  140.9038 F   0  0  0  0  0  0  0  0  0  0  0  0
  -23.6128  -14.9968  139.0569 C   0  0  0  0  0  0  0  0  0  0  0  0
  -22.7215  -15.2233  140.2737 C   0  0  0  0  0  0  0  0  0  0  0  0
  -25.1666  -16.1420  140.8296 C   0  0  0  0  0  0  0  0  0  0  0  0
  -26.4360  -16.3883  140.0129 C   0  0  0  0  0  0  0  0  0  0  0  0
  -25.9721  -17.8352  139.7595 C   0  0  0  0  0  0  0  0  0  0  0  0
  -24.8198  -17.0388  141.9961 C   0  0  0  0  0  0  0  0  0  0  0  0
  -24.3869  -18.4446  141.6583 C   0  0  0  0  0  0  0  0  0  0  0  0
  -24.6671  -17.5216  140.5056 C   0  0  0  0  0  0  0  0  0  0  0  0
  -27.3345  -17.5538  140.3647 C   0  0  0  0  0  0  0  0  0  0  0  0
  2  1  1  0
  3  1  1  0
  4  1  1  0
  4  3  1  0
  5  1  1  0
  6  5  1  0
  7  6  1  0
  8  5  1  0
  9  8  1  0
 10  5  1  0
 10  7  1  0
 10  8  1  0
 10  9  1  0
 11  6  1  0
 11  7  1  0
M  END
$$$$
