No_0-/dssg/home/sw_qyf/PocketFlow/Model-Generation-Results/5HT2A_7WC7_rec_A_10.pdb/2024-01-01-03-54-21/
     RDKit          3D

 31 33  0  0  0  0  0  0  0  0999 V2000
  -24.1553  -17.8465  145.7021 C   0  0  0  0  0  0  0  0  0  0  0  0
  -23.9795  -18.4462  146.7426 C   0  0  0  0  0  0  0  0  0  0  0  0
  -24.2723  -16.4220  145.8037 C   0  0  0  0  0  0  0  0  0  0  0  0
  -24.0151  -15.5895  144.6874 C   0  0  0  0  0  0  0  0  0  0  0  0
  -24.0834  -17.9646  148.0883 C   0  0  0  0  0  0  0  0  0  0  0  0
  -24.2949  -16.5690  148.2409 C   0  0  0  0  0  0  0  0  0  0  0  0
  -24.3289  -15.7594  147.1024 C   0  0  0  0  0  0  0  0  0  0  0  0
  -24.3318  -14.1513  144.8501 C   0  0  0  0  0  0  0  0  0  0  0  0
  -24.9693  -13.7232  143.9870 C   0  0  0  0  0  0  0  0  0  0  0  0
  -26.0051  -12.7580  144.4131 C   0  0  0  0  0  0  0  0  0  0  0  0
  -26.8702  -13.0932  145.0458 C   0  0  0  0  0  0  0  0  0  0  0  0
  -27.1863  -14.0103  145.8196 C   0  0  0  0  0  0  0  0  0  0  0  0
  -28.3367  -14.1679  146.6997 C   0  0  0  0  0  0  0  0  0  0  0  0
  -28.6555  -15.2035  147.5763 C   0  0  0  0  0  0  0  0  0  0  0  0
  -29.8092  -15.0521  148.3475 C   0  0  0  0  0  0  0  0  0  0  0  0
  -30.5461  -13.8547  148.1830 C   0  0  0  0  0  0  0  0  0  0  0  0
  -30.1839  -12.8296  147.4597 C   0  0  0  0  0  0  0  0  0  0  0  0
  -29.0039  -12.8901  146.7153 C   0  0  0  0  0  0  0  0  0  0  0  0
  -28.0078  -11.9216  145.1346 C   0  0  0  0  0  0  0  0  0  0  0  0
  -29.0647  -11.9015  145.9907 C   0  0  0  0  0  0  0  0  0  0  0  0
  -29.9086  -10.7456  145.9315 C   0  0  0  0  0  0  0  0  0  0  0  0
  -31.0974  -10.7850  146.0233 O   0  0  0  0  0  0  0  0  0  0  0  0
  -29.3866   -9.6140  145.3990 O   0  0  0  0  0  0  0  0  0  0  0  0
  -27.8709  -16.4211  147.6996 C   0  0  0  0  0  0  0  0  0  0  0  0
  -24.9815  -14.0657  142.7312 O   0  0  0  0  0  0  0  0  0  0  0  0
  -27.9515  -17.1044  148.7349 O   0  0  0  0  0  0  0  0  0  0  0  0
  -27.2629  -16.8735  146.6962 O   0  0  0  0  0  0  0  0  0  0  0  0
  -29.4540   -9.4225  144.0299 C   0  0  0  0  0  0  0  0  0  0  0  0
  -29.4997   -8.1704  143.6491 C   0  0  0  0  0  0  0  0  0  0  0  0
  -30.1637   -7.7729  142.6223 C   0  0  0  0  0  0  0  0  0  0  0  0
  -30.7856   -6.8494  142.1530 C   0  0  0  0  0  0  0  0  0  0  0  0
  1  2  1  0
  1  3  1  0
  3  4  2  3
  2  5  1  0
  5  6  1  0
  3  7  1  0
  6  7  1  0
  4  8  1  0
  8  9  2  3
  9 10  1  0
 10 11  1  0
 20 21  1  0
 21 22  2  0
 21 23  1  0
 14 24  1  0
  9 25  1  0
 24 26  2  0
 24 27  1  0
 23 28  1  0
 28 29  1  0
 29 30  2  3
 30 31  1  0
 11 12  2  0
 12 13  1  0
 18 20  1  0
 20 19  2  0
 19 11  1  0
 13 14  2  0
 14 15  1  0
 15 16  2  0
 16 17  1  0
 17 18  2  0
 18 13  1  0
M  END

$$$$
No_1-/dssg/home/sw_qyf/PocketFlow/Model-Generation-Results/5HT2A_7WC7_rec_A_10.pdb/2024-01-01-03-54-21/
     RDKit          3D

 21 22  0  0  0  0  0  0  0  0999 V2000
  -23.1746  -16.6014  144.8668 C   0  0  0  0  0  0  0  0  0  0  0  0
  -23.8963  -15.5346  144.7885 C   0  0  0  0  0  0  0  0  0  0  0  0
  -23.6398  -14.5115  145.3282 C   0  0  0  0  0  0  0  0  0  0  0  0
  -24.3867  -13.2477  145.3907 C   0  0  0  0  0  0  0  0  0  0  0  0
  -23.7392  -12.0982  145.9892 C   0  0  0  0  0  0  0  0  0  0  0  0
  -25.7153  -13.1103  144.9365 C   0  0  0  0  0  0  0  0  0  0  0  0
  -26.3728  -11.9056  145.3022 C   0  0  0  0  0  0  0  0  0  0  0  0
  -26.1346  -10.7324  144.8884 C   0  0  0  0  0  0  0  0  0  0  0  0
  -27.1087   -9.6533  145.1232 C   0  0  0  0  0  0  0  0  0  0  0  0
  -23.6806  -17.7017  145.3762 C   0  0  0  0  0  0  0  0  0  0  0  0
  -24.8097  -17.6247  146.3621 C   0  0  0  0  0  0  0  0  0  0  0  0
  -25.9037  -16.8410  146.0704 C   0  0  0  0  0  0  0  0  0  0  0  0
  -26.0827  -16.0304  145.2258 C   0  0  0  0  0  0  0  0  0  0  0  0
  -25.1408  -15.1594  144.7690 C   0  0  0  0  0  0  0  0  0  0  0  0
  -25.5300  -14.7312  143.4529 O   0  0  0  0  0  0  0  0  0  0  0  0
  -26.2735  -13.8491  144.0229 C   0  0  0  0  0  0  0  0  0  0  0  0
  -27.4380  -12.1075  146.3816 C   0  0  0  0  0  0  0  0  0  0  0  0
  -28.6172  -12.5559  145.9852 C   0  0  0  0  0  0  0  0  0  0  0  0
  -29.5521  -13.0706  147.0662 C   0  0  0  0  0  0  0  0  0  0  0  0
  -30.1349  -12.1522  147.9295 C   0  0  0  0  0  0  0  0  0  0  0  0
  -30.9632  -12.5581  148.9830 C   0  0  0  0  0  0  0  0  0  0  0  0
  1  2  1  0
  2  3  2  0
  3  4  1  0
  4  5  1  0
  4  6  1  0
  6  7  1  0
  7  8  2  3
  8  9  1  0
  1 10  2  0
 10 11  1  0
 11 12  2  0
 12 13  1  0
  2 14  1  0
 13 14  1  0
 14 15  1  0
  6 16  1  0
 15 16  1  0
  7 17  1  0
 17 18  2  3
 18 19  1  0
 19 20  2  3
 20 21  1  0
M  END

$$$$
No_2-/dssg/home/sw_qyf/PocketFlow/Model-Generation-Results/5HT2A_7WC7_rec_A_10.pdb/2024-01-01-03-54-21/
     RDKit          3D

 26 28  0  0  0  0  0  0  0  0999 V2000
  -24.1553  -17.8465  145.7021 C   0  0  0  0  0  0  0  0  0  0  0  0
  -23.9795  -18.4462  146.7426 C   0  0  0  0  0  0  0  0  0  0  0  0
  -24.3577  -16.4380  145.7329 C   0  0  0  0  0  0  0  0  0  0  0  0
  -24.6120  -15.7738  146.9649 C   0  0  0  0  0  0  0  0  0  0  0  0
  -24.1170  -17.8639  148.0590 C   0  0  0  0  0  0  0  0  0  0  0  0
  -24.3602  -16.5130  148.2032 C   0  0  0  0  0  0  0  0  0  0  0  0
  -24.5424  -15.6038  144.5505 C   0  0  0  0  0  0  0  0  0  0  0  0
  -25.6846  -14.7004  144.4992 C   0  0  0  0  0  0  0  0  0  0  0  0
  -25.7832  -13.8049  143.4452 C   0  0  0  0  0  0  0  0  0  0  0  0
  -26.9428  -12.9954  143.4251 C   0  0  0  0  0  0  0  0  0  0  0  0
  -27.6859  -12.7670  144.6558 C   0  0  0  0  0  0  0  0  0  0  0  0
  -27.5156  -13.6023  145.7588 C   0  0  0  0  0  0  0  0  0  0  0  0
  -26.4116  -14.5396  145.7633 C   0  0  0  0  0  0  0  0  0  0  0  0
  -28.8071  -11.7887  144.6860 C   0  0  0  0  0  0  0  0  0  0  0  0
  -29.5908  -11.7909  145.6530 O   0  0  0  0  0  0  0  0  0  0  0  0
  -28.8229  -10.8028  143.7876 N   0  0  0  0  0  0  0  0  0  0  0  0
  -29.6923   -9.9082  143.7596 C   0  0  0  0  0  0  0  0  0  0  0  0
  -30.4851   -9.6898  142.6506 C   0  0  0  0  0  0  0  0  0  0  0  0
  -30.2560   -8.6677  141.9809 O   0  0  0  0  0  0  0  0  0  0  0  0
  -29.3666   -8.5767  140.9122 C   0  0  0  0  0  0  0  0  0  0  0  0
  -29.5070   -7.4555  140.0451 C   0  0  0  0  0  0  0  0  0  0  0  0
  -28.8512   -7.4772  138.8129 C   0  0  0  0  0  0  0  0  0  0  0  0
  -27.9941   -8.6312  138.4976 C   0  0  0  0  0  0  0  0  0  0  0  0
  -27.8762   -9.6436  139.4727 C   0  0  0  0  0  0  0  0  0  0  0  0
  -28.6256   -9.6574  140.6208 C   0  0  0  0  0  0  0  0  0  0  0  0
  -31.9440   -9.8035  142.9329 O   0  0  0  0  0  0  0  0  0  0  0  0
  3  7  1  0
  7  8  1  0
 11 14  1  0
 14 15  1  0
 14 16  1  0
 16 17  1  0
 17 18  1  0
 18 19  1  0
 19 20  1  0
 18 26  1  0
  8  9  2  0
  9 10  1  0
 10 11  2  0
 11 12  1  0
 12 13  2  0
 13  8  1  0
  1  2  2  0
  2  5  1  0
  5  6  2  0
  6  4  1  0
  4  3  2  0
  3  1  1  0
 20 21  2  0
 21 22  1  0
 22 23  2  0
 23 24  1  0
 24 25  2  0
 25 20  1  0
M  END

$$$$
No_3-/dssg/home/sw_qyf/PocketFlow/Model-Generation-Results/5HT2A_7WC7_rec_A_10.pdb/2024-01-01-03-54-21/
     RDKit          3D

 35 37  0  0  0  0  0  0  0  0999 V2000
  -23.1746  -16.6014  144.8668 C   0  0  0  0  0  0  0  0  0  0  0  0
  -23.7011  -17.0158  145.9774 C   0  0  0  0  0  0  0  0  0  0  0  0
  -24.2134  -16.0722  146.8877 C   0  0  0  0  0  0  0  0  0  0  0  0
  -23.3742  -15.2706  144.3922 C   0  0  0  0  0  0  0  0  0  0  0  0
  -24.0445  -14.2973  145.2608 C   0  0  0  0  0  0  0  0  0  0  0  0
  -24.4773  -14.7066  146.5258 C   0  0  0  0  0  0  0  0  0  0  0  0
  -24.1815  -12.8836  144.8776 C   0  0  0  0  0  0  0  0  0  0  0  0
  -23.5951  -11.9399  145.7058 C   0  0  0  0  0  0  0  0  0  0  0  0
  -23.5736  -18.3367  146.4194 N   0  0  0  0  0  0  0  0  0  0  0  0
  -24.1960  -19.2766  146.1113 O   0  0  0  0  0  0  0  0  0  0  0  0
  -25.5689  -12.6755  144.6996 N   0  0  0  0  0  0  0  0  0  0  0  0
  -26.2253  -11.6168  145.1251 C   0  0  0  0  0  0  0  0  0  0  0  0
  -27.2754  -11.6803  145.7749 C   0  0  0  0  0  0  0  0  0  0  0  0
  -28.4530  -12.0260  145.2655 C   0  0  0  0  0  0  0  0  0  0  0  0
  -29.6762  -12.1755  146.0900 C   0  0  0  0  0  0  0  0  0  0  0  0
  -29.4251  -12.5865  147.5281 C   0  0  0  0  0  0  0  0  0  0  0  0
  -29.7607  -13.8668  147.7057 C   0  0  0  0  0  0  0  0  0  0  0  0
  -29.5719  -14.8076  146.7791 C   0  0  0  0  0  0  0  0  0  0  0  0
  -28.2263  -15.3803  146.7328 C   0  0  0  0  0  0  0  0  0  0  0  0
  -27.8287  -16.3048  145.7384 C   0  0  0  0  0  0  0  0  0  0  0  0
  -30.6041  -14.1245  148.9460 C   0  0  0  0  0  0  0  0  0  0  0  0
  -31.4254  -13.6600  149.5832 C   0  0  0  0  0  0  0  0  0  0  0  0
  -32.0628  -14.0685  150.7431 C   0  0  0  0  0  0  0  0  0  0  0  0
  -33.0325  -13.2922  151.4938 C   0  0  0  0  0  0  0  0  0  0  0  0
  -33.3550  -12.0095  150.8966 C   0  0  0  0  0  0  0  0  0  0  0  0
  -32.7692  -11.5349  149.7650 C   0  0  0  0  0  0  0  0  0  0  0  0
  -31.7659  -12.2557  149.1519 C   0  0  0  0  0  0  0  0  0  0  0  0
  -28.6612  -11.0270  144.0668 C   0  0  0  0  0  0  0  0  0  0  0  0
  -29.5317  -10.0221  144.2800 C   0  0  0  0  0  0  0  0  0  0  0  0
  -29.8244   -9.0677  143.2676 C   0  0  0  0  0  0  0  0  0  0  0  0
  -30.4559   -7.8524  143.6090 C   0  0  0  0  0  0  0  0  0  0  0  0
  -30.7207   -6.9574  142.5605 C   0  0  0  0  0  0  0  0  0  0  0  0
  -30.0439   -7.2981  141.3376 C   0  0  0  0  0  0  0  0  0  0  0  0
  -29.3452   -8.4388  141.0982 C   0  0  0  0  0  0  0  0  0  0  0  0
  -29.1995   -9.3264  142.0742 C   0  0  0  0  0  0  0  0  0  0  0  0
  5  7  1  0
  7  8  1  0
  2  9  1  0
  9 10  2  0
  7 11  1  0
 11 12  1  0
 12 13  2  3
 13 14  1  0
 14 15  1  0
 15 16  1  0
 16 17  1  0
 17 18  1  0
 18 19  1  0
 19 20  2  0
 17 21  1  0
 14 28  1  0
 28 29  2  3
 29 30  1  0
 21 22  1  0
 22 23  2  0
 23 24  1  0
 24 25  2  0
 25 26  1  0
 26 27  2  0
 27 22  1  0
  1  2  2  0
  2  3  1  0
  3  6  2  0
  6  5  1  0
  5  4  2  0
  4  1  1  0
 30 31  2  0
 31 32  1  0
 32 33  2  0
 33 34  1  0
 34 35  2  0
 35 30  1  0
M  END

$$$$
No_4-/dssg/home/sw_qyf/PocketFlow/Model-Generation-Results/5HT2A_7WC7_rec_A_10.pdb/2024-01-01-03-54-21/
     RDKit          3D

 35 38  0  0  0  0  0  0  0  0999 V2000
  -23.1746  -16.6014  144.8668 C   0  0  0  0  0  0  0  0  0  0  0  0
  -24.0189  -16.0564  145.8445 C   0  0  0  0  0  0  0  0  0  0  0  0
  -24.4850  -14.7380  145.6359 C   0  0  0  0  0  0  0  0  0  0  0  0
  -25.2717  -14.0560  146.5949 C   0  0  0  0  0  0  0  0  0  0  0  0
  -25.6617  -12.7328  146.4162 C   0  0  0  0  0  0  0  0  0  0  0  0
  -26.1318  -12.3175  145.5473 C   0  0  0  0  0  0  0  0  0  0  0  0
  -25.7712  -13.0194  144.2701 C   0  0  0  0  0  0  0  0  0  0  0  0
  -25.0839  -14.2555  144.4182 C   0  0  0  0  0  0  0  0  0  0  0  0
  -27.2385  -11.3209  145.4736 C   0  0  0  0  0  0  0  0  0  0  0  0
  -27.1217  -10.3399  144.4916 C   0  0  0  0  0  0  0  0  0  0  0  0
  -28.1520  -10.0762  143.5547 C   0  0  0  0  0  0  0  0  0  0  0  0
  -29.2250  -10.1522  143.9447 C   0  0  0  0  0  0  0  0  0  0  0  0
  -29.5514  -10.9331  145.2393 C   0  0  0  0  0  0  0  0  0  0  0  0
  -28.5655  -11.6688  145.8045 C   0  0  0  0  0  0  0  0  0  0  0  0
  -24.2493  -16.7601  147.0055 C   0  0  0  0  0  0  0  0  0  0  0  0
  -23.8120  -18.0655  147.1932 C   0  0  0  0  0  0  0  0  0  0  0  0
  -22.8722  -17.9751  145.0315 N   0  0  0  0  0  0  0  0  0  0  0  0
  -23.1434  -18.6379  146.1272 C   0  0  0  0  0  0  0  0  0  0  0  0
  -30.5077   -9.6101  143.3356 C   0  0  0  0  0  0  0  0  0  0  0  0
  -31.5255   -9.9873  143.6035 O   0  0  0  0  0  0  0  0  0  0  0  0
  -30.3052   -8.9227  142.1324 N   0  0  0  0  0  0  0  0  0  0  0  0
  -31.3808   -8.0501  141.6483 C   0  0  0  0  0  0  0  0  0  0  0  0
  -28.8228  -12.5584  146.9638 C   0  0  0  0  0  0  0  0  0  0  0  0
  -29.6031  -12.0726  148.0406 C   0  0  0  0  0  0  0  0  0  0  0  0
  -28.6356  -13.9782  146.8410 C   0  0  0  0  0  0  0  0  0  0  0  0
  -29.3844  -14.9260  147.3406 C   0  0  0  0  0  0  0  0  0  0  0  0
  -30.3502  -13.0880  148.8276 C   0  0  0  0  0  0  0  0  0  0  0  0
  -30.1204  -14.4994  148.5653 C   0  0  0  0  0  0  0  0  0  0  0  0
  -22.9022  -16.0713  143.8262 O   0  0  0  0  0  0  0  0  0  0  0  0
  -29.1274   -8.8744  141.3999 C   0  0  0  0  0  0  0  0  0  0  0  0
  -29.1071   -7.8730  140.3062 C   0  0  0  0  0  0  0  0  0  0  0  0
  -28.8239   -8.3240  138.9541 C   0  0  0  0  0  0  0  0  0  0  0  0
  -29.2061   -9.4011  138.5005 C   0  0  0  0  0  0  0  0  0  0  0  0
  -28.8202   -9.8284  137.1179 C   0  0  0  0  0  0  0  0  0  0  0  0
  -29.0623  -10.9285  136.6476 N   0  0  0  0  0  0  0  0  0  0  0  0
  1  2  1  0
  2  3  1  0
  6  9  1  0
  2 15  1  0
  1 17  1  0
 16 18  1  0
 12 19  1  0
 19 20  2  0
 19 21  1  0
 21 22  1  0
 14 23  1  0
  1 29  2  0
 21 30  1  0
 30 31  1  0
 31 32  1  0
 32 33  2  3
 33 34  1  0
 34 35  1  0
 15 16  1  0
 18 17  1  0
 23 24  2  0
 24 27  1  0
 27 28  2  0
 28 26  1  0
 26 25  2  0
 25 23  1  0
  3  4  2  0
  4  5  1  0
  5  6  2  0
  6  7  1  0
  7  8  2  0
  8  3  1  0
  9 10  2  0
 10 11  1  0
 11 12  2  0
 12 13  1  0
 13 14  2  0
 14  9  1  0
M  END

$$$$
No_5-/dssg/home/sw_qyf/PocketFlow/Model-Generation-Results/5HT2A_7WC7_rec_A_10.pdb/2024-01-01-03-54-21/
     RDKit          3D

 29 32  0  0  0  0  0  0  0  0999 V2000
  -24.1553  -17.8465  145.7021 C   0  0  0  0  0  0  0  0  0  0  0  0
  -23.9795  -18.4462  146.7426 C   0  0  0  0  0  0  0  0  0  0  0  0
  -25.1593  -16.8262  145.6925 C   0  0  0  0  0  0  0  0  0  0  0  0
  -25.3302  -15.8818  144.5925 C   0  0  0  0  0  0  0  0  0  0  0  0
  -24.4570  -18.1009  148.0274 C   0  0  0  0  0  0  0  0  0  0  0  0
  -25.3496  -17.0286  148.1023 C   0  0  0  0  0  0  0  0  0  0  0  0
  -25.5669  -16.2449  146.9641 C   0  0  0  0  0  0  0  0  0  0  0  0
  -26.3838  -14.9379  144.6390 C   0  0  0  0  0  0  0  0  0  0  0  0
  -26.4968  -13.8520  143.7535 C   0  0  0  0  0  0  0  0  0  0  0  0
  -27.0556  -12.6248  144.1191 C   0  0  0  0  0  0  0  0  0  0  0  0
  -27.2468  -11.5597  143.2035 C   0  0  0  0  0  0  0  0  0  0  0  0
  -27.9394  -10.3659  143.7728 C   0  0  0  0  0  0  0  0  0  0  0  0
  -28.1436   -9.2442  143.0651 C   0  0  0  0  0  0  0  0  0  0  0  0
  -28.7167   -9.4419  141.7353 C   0  0  0  0  0  0  0  0  0  0  0  0
  -27.9196  -10.2822  140.9454 C   0  0  0  0  0  0  0  0  0  0  0  0
  -28.0595  -10.4453  139.5619 C   0  0  0  0  0  0  0  0  0  0  0  0
  -27.5042  -11.5582  138.9341 C   0  0  0  0  0  0  0  0  0  0  0  0
  -27.5353  -11.6269  141.7677 C   0  0  0  0  0  0  0  0  0  0  0  0
  -28.2095   -9.2820  138.7975 C   0  0  0  0  0  0  0  0  0  0  0  0
  -28.1929   -7.9742  139.4123 C   0  0  0  0  0  0  0  0  0  0  0  0
  -28.9785   -7.8905  140.7439 C   0  0  0  0  0  0  0  0  0  0  0  0
  -28.0448  -12.0309  137.8696 O   0  0  0  0  0  0  0  0  0  0  0  0
  -29.6309   -6.9229  141.3681 C   0  0  0  0  0  0  0  0  0  0  0  0
  -29.2258   -5.7974  141.1431 O   0  0  0  0  0  0  0  0  0  0  0  0
  -30.7544   -7.1527  142.0701 O   0  0  0  0  0  0  0  0  0  0  0  0
  -31.1838   -8.3598  142.5267 C   0  0  0  0  0  0  0  0  0  0  0  0
  -31.1799   -9.5452  142.1509 C   0  0  0  0  0  0  0  0  0  0  0  0
  -29.7932  -10.1489  142.1133 O   0  0  0  0  0  0  0  0  0  0  0  0
  -31.8724   -8.1241  143.7582 O   0  0  0  0  0  0  0  0  0  0  0  0
  3  4  1  0
  4  8  1  0
  8  9  1  0
  9 10  2  3
 10 11  1  0
 11 12  1  0
 12 13  1  0
 13 14  1  0
 14 15  1  0
 15 16  1  0
 16 17  2  3
 11 18  1  0
 15 18  1  0
 16 19  1  0
 19 20  1  0
 14 21  1  0
 20 21  1  0
 17 22  1  0
 21 23  1  0
 23 24  2  0
 23 25  1  0
 25 26  1  0
 26 27  1  0
 14 28  1  0
 27 28  1  0
 26 29  2  0
  1  2  2  0
  2  5  1  0
  5  6  2  0
  6  7  1  0
  7  3  2  0
  3  1  1  0
M  END

$$$$
No_6-/dssg/home/sw_qyf/PocketFlow/Model-Generation-Results/5HT2A_7WC7_rec_A_10.pdb/2024-01-01-03-54-21/
     RDKit          3D

 15 16  0  0  0  0  0  0  0  0999 V2000
  -24.1553  -17.8465  145.7021 C   0  0  0  0  0  0  0  0  0  0  0  0
  -23.9795  -18.4462  146.7426 C   0  0  0  0  0  0  0  0  0  0  0  0
  -25.1196  -16.8106  145.6409 C   0  0  0  0  0  0  0  0  0  0  0  0
  -25.9236  -16.5070  146.7422 C   0  0  0  0  0  0  0  0  0  0  0  0
  -25.6173  -17.2153  147.9099 C   0  0  0  0  0  0  0  0  0  0  0  0
  -24.6179  -18.1473  147.9620 C   0  0  0  0  0  0  0  0  0  0  0  0
  -26.9749  -15.4806  146.6971 C   0  0  0  0  0  0  0  0  0  0  0  0
  -28.1740  -15.7949  146.3287 C   0  0  0  0  0  0  0  0  0  0  0  0
  -29.1773  -14.7981  146.3471 C   0  0  0  0  0  0  0  0  0  0  0  0
  -28.8866  -13.4166  146.7213 C   0  0  0  0  0  0  0  0  0  0  0  0
  -27.4728  -13.0783  146.8188 C   0  0  0  0  0  0  0  0  0  0  0  0
  -26.5603  -14.0908  146.8970 C   0  0  0  0  0  0  0  0  0  0  0  0
  -29.8813  -12.3515  146.6175 C   0  0  0  0  0  0  0  0  0  0  0  0
  -30.6713  -12.1194  147.5537 O   0  0  0  0  0  0  0  0  0  0  0  0
  -29.8692  -11.6684  145.5263 O   0  0  0  0  0  0  0  0  0  0  0  0
  4  7  1  0
 10 13  1  0
 13 14  1  0
 13 15  2  0
  1  2  2  0
  2  6  1  0
  6  5  2  0
  5  4  1  0
  4  3  2  0
  3  1  1  0
  7  8  2  0
  8  9  1  0
  9 10  2  0
 10 11  1  0
 11 12  2  0
 12  7  1  0
M  END

$$$$
No_7-/dssg/home/sw_qyf/PocketFlow/Model-Generation-Results/5HT2A_7WC7_rec_A_10.pdb/2024-01-01-03-54-21/
     RDKit          3D

 29 32  0  0  0  0  0  0  0  0999 V2000
  -24.1553  -17.8465  145.7021 C   0  0  0  0  0  0  0  0  0  0  0  0
  -24.2856  -16.6364  145.3494 C   0  0  0  0  0  0  0  0  0  0  0  0
  -24.7211  -15.5955  146.2115 C   0  0  0  0  0  0  0  0  0  0  0  0
  -24.8539  -14.2010  145.8739 C   0  0  0  0  0  0  0  0  0  0  0  0
  -24.1440  -13.8321  144.7074 C   0  0  0  0  0  0  0  0  0  0  0  0
  -23.4275  -14.8130  143.9942 C   0  0  0  0  0  0  0  0  0  0  0  0
  -23.5139  -16.1160  144.3501 C   0  0  0  0  0  0  0  0  0  0  0  0
  -25.0300  -18.4710  146.6850 C   0  0  0  0  0  0  0  0  0  0  0  0
  -25.6018  -17.5020  147.5544 C   0  0  0  0  0  0  0  0  0  0  0  0
  -25.7327  -16.1380  147.2971 C   0  0  0  0  0  0  0  0  0  0  0  0
  -25.4628  -13.1758  146.7725 C   0  0  0  0  0  0  0  0  0  0  0  0
  -25.9277  -11.9515  146.0426 C   0  0  0  0  0  0  0  0  0  0  0  0
  -25.8629  -11.8249  144.6965 C   0  0  0  0  0  0  0  0  0  0  0  0
  -26.3952  -10.6083  144.1946 C   0  0  0  0  0  0  0  0  0  0  0  0
  -27.6252  -10.1948  144.9002 C   0  0  0  0  0  0  0  0  0  0  0  0
  -28.6620   -9.6495  144.0482 C   0  0  0  0  0  0  0  0  0  0  0  0
  -28.4163   -8.8906  143.1141 C   0  0  0  0  0  0  0  0  0  0  0  0
  -29.4065   -8.3263  142.2462 C   0  0  0  0  0  0  0  0  0  0  0  0
  -30.2286   -7.7173  142.3559 C   0  0  0  0  0  0  0  0  0  0  0  0
  -31.4639   -7.6476  141.4565 C   0  0  0  0  0  0  0  0  0  0  0  0
  -29.0688   -8.6618  140.7419 C   0  0  0  0  0  0  0  0  0  0  0  0
  -29.2672   -7.7716  139.8007 C   0  0  0  0  0  0  0  0  0  0  0  0
  -29.8133   -7.0683  139.3155 N   0  0  0  0  0  0  0  0  0  0  0  0
  -28.1694   -7.9566  138.7369 N   0  0  0  0  0  0  0  0  0  0  0  0
  -31.0797   -7.3847  140.1742 N   0  0  0  0  0  0  0  0  0  0  0  0
  -25.0326  -12.6310  143.9993 O   0  0  0  0  0  0  0  0  0  0  0  0
  -30.0127  -10.0344  144.4783 C   0  0  0  0  0  0  0  0  0  0  0  0
  -30.9914   -9.7334  144.0183 O   0  0  0  0  0  0  0  0  0  0  0  0
  -30.0844  -10.7369  145.6422 O   0  0  0  0  0  0  0  0  0  0  0  0
  4 11  1  0
 11 12  1  0
 12 13  1  0
 13 14  1  0
 14 15  1  0
 15 16  1  0
 16 17  2  3
 17 18  1  0
 18 19  1  0
 19 20  2  0
 18 21  1  0
 21 22  1  0
 22 23  2  0
 22 24  1  0
 20 25  1  0
 23 25  1  0
  5 26  1  0
 13 26  1  0
 16 27  1  0
 27 28  1  0
 27 29  2  0
  3  4  1  0
  4  5  2  0
  5  6  1  0
  6  7  2  0
  7  2  1  0
  1  2  2  0
  2  3  1  0
  3 10  2  0
 10  9  1  0
  9  8  2  0
  8  1  1  0
M  END

$$$$
No_8-/dssg/home/sw_qyf/PocketFlow/Model-Generation-Results/5HT2A_7WC7_rec_A_10.pdb/2024-01-01-03-54-21/
     RDKit          3D

 34 38  0  0  0  0  0  0  0  0999 V2000
  -24.1553  -17.8465  145.7021 C   0  0  0  0  0  0  0  0  0  0  0  0
  -23.9795  -18.4462  146.7426 C   0  0  0  0  0  0  0  0  0  0  0  0
  -24.2723  -16.4220  145.8037 C   0  0  0  0  0  0  0  0  0  0  0  0
  -24.9934  -15.8373  146.8363 C   0  0  0  0  0  0  0  0  0  0  0  0
  -25.2878  -14.4778  146.8072 C   0  0  0  0  0  0  0  0  0  0  0  0
  -24.4015  -18.0073  148.0208 C   0  0  0  0  0  0  0  0  0  0  0  0
  -24.7473  -16.6561  148.1531 C   0  0  0  0  0  0  0  0  0  0  0  0
  -25.7523  -13.9097  145.7899 C   0  0  0  0  0  0  0  0  0  0  0  0
  -25.4871  -12.5671  145.4572 C   0  0  0  0  0  0  0  0  0  0  0  0
  -24.6550  -11.7609  146.1666 C   0  0  0  0  0  0  0  0  0  0  0  0
  -24.0083  -12.4742  147.3276 C   0  0  0  0  0  0  0  0  0  0  0  0
  -24.1549  -13.6981  147.5582 C   0  0  0  0  0  0  0  0  0  0  0  0
  -24.2225  -15.6884  144.5240 C   0  0  0  0  0  0  0  0  0  0  0  0
  -25.1277  -14.5642  144.4677 C   0  0  0  0  0  0  0  0  0  0  0  0
  -26.4746  -11.7947  144.5928 C   0  0  0  0  0  0  0  0  0  0  0  0
  -26.7422  -10.4322  144.8454 C   0  0  0  0  0  0  0  0  0  0  0  0
  -27.8722   -9.9100  144.0710 C   0  0  0  0  0  0  0  0  0  0  0  0
  -28.2106  -10.3316  142.8593 C   0  0  0  0  0  0  0  0  0  0  0  0
  -27.6872  -11.6539  142.5425 C   0  0  0  0  0  0  0  0  0  0  0  0
  -26.8731  -12.3539  143.4244 C   0  0  0  0  0  0  0  0  0  0  0  0
  -29.1630   -9.6863  142.0507 C   0  0  0  0  0  0  0  0  0  0  0  0
  -29.4713   -8.4775  142.0815 C   0  0  0  0  0  0  0  0  0  0  0  0
  -30.3022   -7.7875  141.0577 C   0  0  0  0  0  0  0  0  0  0  0  0
  -29.5439   -7.4110  139.8230 C   0  0  0  0  0  0  0  0  0  0  0  0
  -28.6981   -8.4264  139.2550 C   0  0  0  0  0  0  0  0  0  0  0  0
  -28.2798   -8.2839  137.9478 C   0  0  0  0  0  0  0  0  0  0  0  0
  -22.8595  -15.0813  144.5470 O   0  0  0  0  0  0  0  0  0  0  0  0
  -24.6480  -13.7622  143.5259 O   0  0  0  0  0  0  0  0  0  0  0  0
  -28.0824   -9.4670  140.0163 C   0  0  0  0  0  0  0  0  0  0  0  0
  -28.5431  -10.1964  141.0192 C   0  0  0  0  0  0  0  0  0  0  0  0
  -26.8125   -9.9548  139.3652 C   0  0  0  0  0  0  0  0  0  0  0  0
  -27.5681   -7.3413  137.4350 O   0  0  0  0  0  0  0  0  0  0  0  0
  -28.8667   -9.1214  137.0683 O   0  0  0  0  0  0  0  0  0  0  0  0
  -23.6767  -18.3509  144.5686 O   0  0  0  0  0  0  0  0  0  0  0  0
  9 15  1  0
 18 21  1  0
 21 22  2  0
 22 23  1  0
 23 24  1  0
 24 25  1  0
 25 26  2  3
 13 27  1  0
 14 28  1  0
 25 29  1  0
 21 30  1  0
 29 30  2  0
 29 31  1  0
 26 32  1  0
 26 33  1  0
  1 34  1  0
  8  9  2  0
  9 10  1  0
 10 11  2  0
 11 12  1  0
 12  5  2  0
  1  2  2  0
  2  6  1  0
  6  7  2  0
  7  4  1  0
  3  1  1  0
  3  4  2  0
  4  5  1  0
  5  8  1  0
  8 14  1  0
 14 13  2  0
 13  3  1  0
 15 16  2  0
 16 17  1  0
 17 18  2  0
 18 19  1  0
 19 20  2  0
 20 15  1  0
M  END

$$$$
No_9-/dssg/home/sw_qyf/PocketFlow/Model-Generation-Results/5HT2A_7WC7_rec_A_10.pdb/2024-01-01-03-54-21/
     RDKit          3D

 28 29  0  0  0  0  0  0  0  0999 V2000
  -24.1553  -17.8465  145.7021 C   0  0  0  0  0  0  0  0  0  0  0  0
  -24.6364  -17.2931  146.7091 C   0  0  0  0  0  0  0  0  0  0  0  0
  -24.0780  -17.2921  147.9389 C   0  0  0  0  0  0  0  0  0  0  0  0
  -24.6869  -16.7004  149.1440 C   0  0  0  0  0  0  0  0  0  0  0  0
  -24.2524  -17.0858  150.4341 C   0  0  0  0  0  0  0  0  0  0  0  0
  -24.1951  -17.0308  144.4048 C   0  0  0  0  0  0  0  0  0  0  0  0
  -23.0136  -16.0465  144.4708 C   0  0  0  0  0  0  0  0  0  0  0  0
  -23.5747  -14.7361  144.4678 C   0  0  0  0  0  0  0  0  0  0  0  0
  -24.8642  -14.3338  144.9755 C   0  0  0  0  0  0  0  0  0  0  0  0
  -25.3110  -13.1038  144.6484 C   0  0  0  0  0  0  0  0  0  0  0  0
  -25.2178  -12.1037  145.7034 C   0  0  0  0  0  0  0  0  0  0  0  0
  -26.0982  -10.8595  145.5134 C   0  0  0  0  0  0  0  0  0  0  0  0
  -27.4410  -11.1714  145.2742 C   0  0  0  0  0  0  0  0  0  0  0  0
  -28.1793  -10.3217  144.4142 C   0  0  0  0  0  0  0  0  0  0  0  0
  -29.5506  -10.1956  144.5023 C   0  0  0  0  0  0  0  0  0  0  0  0
  -30.2578   -9.3247  143.7490 C   0  0  0  0  0  0  0  0  0  0  0  0
  -29.6885   -8.5927  142.7669 C   0  0  0  0  0  0  0  0  0  0  0  0
  -30.4042   -7.5860  142.0629 C   0  0  0  0  0  0  0  0  0  0  0  0
  -29.8109   -7.2030  140.7450 C   0  0  0  0  0  0  0  0  0  0  0  0
  -29.2760   -8.3358  139.9006 C   0  0  0  0  0  0  0  0  0  0  0  0
  -28.7348   -8.0540  138.6683 C   0  0  0  0  0  0  0  0  0  0  0  0
  -28.1158   -9.1278  137.9972 C   0  0  0  0  0  0  0  0  0  0  0  0
  -27.8935  -10.3490  138.6645 C   0  0  0  0  0  0  0  0  0  0  0  0
  -28.2401  -10.4605  140.0918 C   0  0  0  0  0  0  0  0  0  0  0  0
  -28.9053   -9.3990  140.7367 C   0  0  0  0  0  0  0  0  0  0  0  0
  -29.1833   -9.5454  142.1368 C   0  0  0  0  0  0  0  0  0  0  0  0
  -23.8182  -19.2182  145.6779 C   0  0  0  0  0  0  0  0  0  0  0  0
  -25.7924  -16.5647  146.6791 O   0  0  0  0  0  0  0  0  0  0  0  0
  1  2  1  0
  2  3  1  0
  3  4  1  0
  4  5  1  0
  1  6  1  0
  6  7  1  0
  7  8  1  0
  8  9  1  0
  9 10  1  0
 10 11  1  0
 11 12  1  0
 12 13  1  0
 13 14  1  0
 14 15  2  3
 15 16  1  0
  1 27  1  0
  2 28  2  0
 16 17  1  0
 17 18  2  0
 18 19  1  0
 19 20  2  0
 25 26  2  0
 26 17  1  0
 20 21  1  0
 21 22  2  0
 22 23  1  0
 23 24  2  0
 24 25  1  0
 25 20  1  0
M  END

$$$$
No_10-/dssg/home/sw_qyf/PocketFlow/Model-Generation-Results/5HT2A_7WC7_rec_A_10.pdb/2024-01-01-03-54-21/
     RDKit          3D

 27 31  0  0  0  0  0  0  0  0999 V2000
  -24.1553  -17.8465  145.7021 C   0  0  0  0  0  0  0  0  0  0  0  0
  -24.2856  -16.6364  145.3494 C   0  0  0  0  0  0  0  0  0  0  0  0
  -25.0033  -15.6772  146.0737 C   0  0  0  0  0  0  0  0  0  0  0  0
  -25.6964  -16.1810  147.2049 C   0  0  0  0  0  0  0  0  0  0  0  0
  -24.8143  -18.3454  146.8324 C   0  0  0  0  0  0  0  0  0  0  0  0
  -25.5291  -17.4614  147.6373 C   0  0  0  0  0  0  0  0  0  0  0  0
  -23.6646  -16.1054  144.2503 F   0  0  0  0  0  0  0  0  0  0  0  0
  -25.1730  -14.2504  145.6720 C   0  0  0  0  0  0  0  0  0  0  0  0
  -24.1495  -13.4852  146.0979 C   0  0  0  0  0  0  0  0  0  0  0  0
  -24.0796  -12.0434  145.6628 C   0  0  0  0  0  0  0  0  0  0  0  0
  -25.3396  -11.4750  145.2458 C   0  0  0  0  0  0  0  0  0  0  0  0
  -26.3284  -12.1120  145.4941 C   0  0  0  0  0  0  0  0  0  0  0  0
  -27.6687  -11.4973  145.2276 C   0  0  0  0  0  0  0  0  0  0  0  0
  -28.8811  -11.9978  145.7858 C   0  0  0  0  0  0  0  0  0  0  0  0
  -28.7182  -13.1689  146.6196 C   0  0  0  0  0  0  0  0  0  0  0  0
  -27.4179  -13.7163  146.8247 C   0  0  0  0  0  0  0  0  0  0  0  0
  -26.2937  -13.0854  146.3982 C   0  0  0  0  0  0  0  0  0  0  0  0
  -27.8537  -10.3150  144.3776 C   0  0  0  0  0  0  0  0  0  0  0  0
  -29.1289   -9.8734  143.9824 C   0  0  0  0  0  0  0  0  0  0  0  0
  -30.2389  -10.2244  144.5631 C   0  0  0  0  0  0  0  0  0  0  0  0
  -30.1118  -11.3792  145.5518 C   0  0  0  0  0  0  0  0  0  0  0  0
  -29.0636   -9.2484  142.6925 C   0  0  0  0  0  0  0  0  0  0  0  0
  -29.4535   -7.9231  142.4863 C   0  0  0  0  0  0  0  0  0  0  0  0
  -29.5212   -7.3720  141.1330 C   0  0  0  0  0  0  0  0  0  0  0  0
  -29.0760   -8.1942  140.0917 C   0  0  0  0  0  0  0  0  0  0  0  0
  -28.6300   -9.4801  140.3668 C   0  0  0  0  0  0  0  0  0  0  0  0
  -28.6453  -10.0307  141.6255 C   0  0  0  0  0  0  0  0  0  0  0  0
  2  7  1  0
  3  8  1  0
 19 22  1  0
 12 13  2  0
 14 15  2  0
 15 16  1  0
 16 17  2  0
 13 14  1  0
 14 21  1  0
 21 20  2  0
 20 19  1  0
 19 18  2  0
 18 13  1  0
 22 23  2  0
 23 24  1  0
 24 25  2  0
 25 26  1  0
 26 27  2  0
 27 22  1  0
  1  2  2  0
  2  3  1  0
  3  4  2  0
  4  6  1  0
  6  5  2  0
  5  1  1  0
  8  9  2  0
  9 10  1  0
 10 11  2  0
 11 12  1  0
 12 17  1  0
 17  8  1  0
M  END

$$$$
No_11-/dssg/home/sw_qyf/PocketFlow/Model-Generation-Results/5HT2A_7WC7_rec_A_10.pdb/2024-01-01-03-54-21/
     RDKit          3D

 35 38  0  0  0  0  0  0  0  0999 V2000
  -23.1746  -16.6014  144.8668 C   0  0  0  0  0  0  0  0  0  0  0  0
  -23.7011  -17.0158  145.9774 C   0  0  0  0  0  0  0  0  0  0  0  0
  -23.7336  -18.2775  146.3737 C   0  0  0  0  0  0  0  0  0  0  0  0
  -24.1960  -18.6445  147.6858 C   0  0  0  0  0  0  0  0  0  0  0  0
  -24.7100  -17.6145  148.5486 C   0  0  0  0  0  0  0  0  0  0  0  0
  -24.7929  -16.2635  148.0870 C   0  0  0  0  0  0  0  0  0  0  0  0
  -24.2508  -15.9434  146.8891 C   0  0  0  0  0  0  0  0  0  0  0  0
  -23.3214  -15.3402  144.3653 N   0  0  0  0  0  0  0  0  0  0  0  0
  -24.2743  -14.3498  144.4440 C   0  0  0  0  0  0  0  0  0  0  0  0
  -23.6819  -13.2747  145.0282 C   0  0  0  0  0  0  0  0  0  0  0  0
  -24.5169  -12.2657  145.7283 C   0  0  0  0  0  0  0  0  0  0  0  0
  -25.3561  -11.3907  145.0231 C   0  0  0  0  0  0  0  0  0  0  0  0
  -26.7392  -11.1366  145.5240 C   0  0  0  0  0  0  0  0  0  0  0  0
  -27.3135  -12.2732  146.1863 C   0  0  0  0  0  0  0  0  0  0  0  0
  -28.7062  -12.2273  146.4315 C   0  0  0  0  0  0  0  0  0  0  0  0
  -29.3721  -13.1935  147.2490 C   0  0  0  0  0  0  0  0  0  0  0  0
  -30.5926  -12.9724  147.9303 C   0  0  0  0  0  0  0  0  0  0  0  0
  -30.9565  -13.8579  148.9490 C   0  0  0  0  0  0  0  0  0  0  0  0
  -30.2120  -15.0657  149.0684 C   0  0  0  0  0  0  0  0  0  0  0  0
  -29.0687  -15.3160  148.3069 C   0  0  0  0  0  0  0  0  0  0  0  0
  -28.6290  -14.3539  147.4386 C   0  0  0  0  0  0  0  0  0  0  0  0
  -29.5111  -11.2642  145.6832 C   0  0  0  0  0  0  0  0  0  0  0  0
  -29.1336  -10.6998  144.5024 C   0  0  0  0  0  0  0  0  0  0  0  0
  -30.0036   -9.8149  143.7982 C   0  0  0  0  0  0  0  0  0  0  0  0
  -29.7331   -9.5065  142.5015 C   0  0  0  0  0  0  0  0  0  0  0  0
  -28.7919  -10.2062  141.7847 C   0  0  0  0  0  0  0  0  0  0  0  0
  -28.5335  -10.0513  140.4223 C   0  0  0  0  0  0  0  0  0  0  0  0
  -28.8789   -8.8297  139.8262 C   0  0  0  0  0  0  0  0  0  0  0  0
  -29.8363   -7.9898  140.5729 C   0  0  0  0  0  0  0  0  0  0  0  0
  -30.1256   -8.3057  141.9177 C   0  0  0  0  0  0  0  0  0  0  0  0
  -27.6014  -10.6073  144.2877 C   0  0  0  0  0  0  0  0  0  0  0  0
  -28.5639   -8.4444  138.4923 C   0  0  0  0  0  0  0  0  0  0  0  0
  -28.8326   -9.1216  137.5313 O   0  0  0  0  0  0  0  0  0  0  0  0
  -27.8162   -7.3015  138.3318 O   0  0  0  0  0  0  0  0  0  0  0  0
  -31.0282   -9.4038  144.3969 O   0  0  0  0  0  0  0  0  0  0  0  0
  1  2  1  0
  1  8  1  0
  8  9  1  0
  9 10  1  0
 10 11  2  3
 11 12  1  0
 12 13  1  0
 15 16  1  0
 23 24  1  0
 24 25  1  0
 28 32  1  0
 32 33  2  0
 32 34  1  0
 24 35  2  0
  2  3  2  0
  3  4  1  0
  4  5  2  0
  5  6  1  0
  6  7  2  0
  7  2  1  0
 25 26  2  0
 26 27  1  0
 27 28  2  0
 28 29  1  0
 29 30  2  0
 30 25  1  0
 13 14  2  0
 14 15  1  0
 15 22  2  0
 22 23  1  0
 23 31  2  0
 31 13  1  0
 16 17  2  0
 17 18  1  0
 18 19  2  0
 19 20  1  0
 20 21  2  0
 21 16  1  0
M  END

$$$$
No_12-/dssg/home/sw_qyf/PocketFlow/Model-Generation-Results/5HT2A_7WC7_rec_A_10.pdb/2024-01-01-03-54-21/
     RDKit          3D

 26 25  0  0  0  0  0  0  0  0999 V2000
  -24.1553  -17.8465  145.7021 C   0  0  0  0  0  0  0  0  0  0  0  0
  -23.9795  -18.4462  146.7426 C   0  0  0  0  0  0  0  0  0  0  0  0
  -25.1593  -16.8262  145.6925 C   0  0  0  0  0  0  0  0  0  0  0  0
  -25.9346  -16.5763  146.8154 C   0  0  0  0  0  0  0  0  0  0  0  0
  -27.0180  -15.6510  146.7805 C   0  0  0  0  0  0  0  0  0  0  0  0
  -26.9026  -14.6404  145.8447 C   0  0  0  0  0  0  0  0  0  0  0  0
  -27.8553  -13.5504  145.7671 C   0  0  0  0  0  0  0  0  0  0  0  0
  -27.6105  -12.3765  144.9820 C   0  0  0  0  0  0  0  0  0  0  0  0
  -27.7871  -11.1023  145.5709 C   0  0  0  0  0  0  0  0  0  0  0  0
  -22.7872  -19.2404  146.8114 C   0  0  0  0  0  0  0  0  0  0  0  0
  -27.6484   -9.9771  144.6382 C   0  0  0  0  0  0  0  0  0  0  0  0
  -28.4940   -9.3315  144.2461 C   0  0  0  0  0  0  0  0  0  0  0  0
  -29.8468   -9.6308  144.4315 C   0  0  0  0  0  0  0  0  0  0  0  0
  -30.9490   -8.8526  143.8164 C   0  0  0  0  0  0  0  0  0  0  0  0
  -30.7770   -8.5561  142.4088 C   0  0  0  0  0  0  0  0  0  0  0  0
  -30.8163   -8.9713  141.4640 C   0  0  0  0  0  0  0  0  0  0  0  0
  -29.9548  -10.2048  141.6141 C   0  0  0  0  0  0  0  0  0  0  0  0
  -28.7928  -10.3596  140.8142 C   0  0  0  0  0  0  0  0  0  0  0  0
  -28.2048  -11.6438  140.6119 C   0  0  0  0  0  0  0  0  0  0  0  0
  -27.3232  -11.8359  139.5568 C   0  0  0  0  0  0  0  0  0  0  0  0
  -27.0471  -11.0779  138.7359 O   0  0  0  0  0  0  0  0  0  0  0  0
  -25.8798  -14.6748  144.8343 C   0  0  0  0  0  0  0  0  0  0  0  0
  -25.6973  -13.6528  143.9152 C   0  0  0  0  0  0  0  0  0  0  0  0
  -25.0999  -15.6942  144.7123 C   0  0  0  0  0  0  0  0  0  0  0  0
  -26.1902  -14.7314  143.8676 O   0  0  0  0  0  0  0  0  0  0  0  0
  -24.0570  -16.0093  143.8203 O   0  0  0  0  0  0  0  0  0  0  0  0
  1  2  1  0
  1  3  2  3
  3  4  1  0
  4  5  1  0
  5  6  1  0
  6  7  1  0
  7  8  1  0
  8  9  1  0
  2 10  1  0
  9 11  1  0
 11 12  1  0
 12 13  1  0
 13 14  1  0
 14 15  1  0
 15 16  1  0
 16 17  1  0
 17 18  2  3
 18 19  1  0
 19 20  1  0
 20 21  2  0
  6 22  1  0
 22 23  2  3
  3 24  1  0
 23 25  1  0
 24 26  2  0
M  END

$$$$
No_13-/dssg/home/sw_qyf/PocketFlow/Model-Generation-Results/5HT2A_7WC7_rec_A_10.pdb/2024-01-01-03-54-21/
     RDKit          3D

 29 31  0  0  0  0  0  0  0  0999 V2000
  -24.1553  -17.8465  145.7021 C   0  0  0  0  0  0  0  0  0  0  0  0
  -24.2855  -16.6364  145.3494 C   0  0  0  0  0  0  0  0  0  0  0  0
  -23.7824  -15.9602  144.3553 C   0  0  0  0  0  0  0  0  0  0  0  0
  -23.9871  -14.5276  144.1537 C   0  0  0  0  0  0  0  0  0  0  0  0
  -24.7875  -13.8357  145.1352 C   0  0  0  0  0  0  0  0  0  0  0  0
  -25.3944  -14.5459  146.1755 C   0  0  0  0  0  0  0  0  0  0  0  0
  -25.0741  -15.8908  146.3327 C   0  0  0  0  0  0  0  0  0  0  0  0
  -23.4600  -18.3671  146.6957 C   0  0  0  0  0  0  0  0  0  0  0  0
  -23.4810  -17.4611  147.9489 C   0  0  0  0  0  0  0  0  0  0  0  0
  -24.3745  -16.2551  147.8341 C   0  0  0  0  0  0  0  0  0  0  0  0
  -25.1092  -12.4192  144.8955 C   0  0  0  0  0  0  0  0  0  0  0  0
  -25.4319  -11.5578  144.4873 O   0  0  0  0  0  0  0  0  0  0  0  0
  -23.0763  -17.7143  149.2785 C   0  0  0  0  0  0  0  0  0  0  0  0
  -23.7574  -17.1076  150.3944 C   0  0  0  0  0  0  0  0  0  0  0  0
  -23.0384  -16.7416  151.4158 O   0  0  0  0  0  0  0  0  0  0  0  0
  -25.0736  -17.2574  150.4653 N   0  0  0  0  0  0  0  0  0  0  0  0
  -25.9683  -17.6742  149.5111 C   0  0  0  0  0  0  0  0  0  0  0  0
  -27.2871  -16.8769  149.6667 C   0  0  0  0  0  0  0  0  0  0  0  0
  -27.9981  -16.6793  148.4381 C   0  0  0  0  0  0  0  0  0  0  0  0
  -29.1772  -15.9301  148.5775 C   0  0  0  0  0  0  0  0  0  0  0  0
  -29.6326  -15.0743  147.5573 C   0  0  0  0  0  0  0  0  0  0  0  0
  -30.5202  -13.9493  147.8930 C   0  0  0  0  0  0  0  0  0  0  0  0
  -30.5738  -12.8515  146.9871 C   0  0  0  0  0  0  0  0  0  0  0  0
  -29.3661  -12.5950  146.1584 C   0  0  0  0  0  0  0  0  0  0  0  0
  -28.3844  -13.5896  146.0731 C   0  0  0  0  0  0  0  0  0  0  0  0
  -28.4759  -14.7114  146.7279 C   0  0  0  0  0  0  0  0  0  0  0  0
  -29.3241  -11.3461  145.3770 C   0  0  0  0  0  0  0  0  0  0  0  0
  -29.9552  -10.2467  145.8362 N   0  0  0  0  0  0  0  0  0  0  0  0
  -28.3975  -11.1990  144.5027 O   0  0  0  0  0  0  0  0  0  0  0  0
  5 11  1  0
 11 12  2  0
  9 13  1  0
 13 14  1  0
 14 15  2  0
 14 16  1  0
 16 17  1  0
 17 18  1  0
 18 19  2  3
 19 20  1  0
 20 21  1  0
 24 27  1  0
 27 28  1  0
 27 29  2  0
  2  3  1  0
  3  4  2  0
  4  5  1  0
  5  6  2  0
  6  7  1  0
  1  2  2  0
  2  7  1  0
  7 10  2  0
 10  9  1  0
  9  8  2  0
  8  1  1  0
 21 22  2  0
 22 23  1  0
 23 24  2  0
 24 25  1  0
 25 26  2  0
 26 21  1  0
M  END

$$$$
No_14-/dssg/home/sw_qyf/PocketFlow/Model-Generation-Results/5HT2A_7WC7_rec_A_10.pdb/2024-01-01-03-54-21/
     RDKit          3D

 35 37  0  0  0  0  0  0  0  0999 V2000
  -24.1553  -17.8465  145.7021 C   0  0  0  0  0  0  0  0  0  0  0  0
  -24.2855  -16.6364  145.3494 C   0  0  0  0  0  0  0  0  0  0  0  0
  -23.7824  -15.9602  144.3553 C   0  0  0  0  0  0  0  0  0  0  0  0
  -23.9871  -14.5276  144.1537 C   0  0  0  0  0  0  0  0  0  0  0  0
  -24.7875  -13.8357  145.1352 C   0  0  0  0  0  0  0  0  0  0  0  0
  -24.9984  -12.3993  145.0246 C   0  0  0  0  0  0  0  0  0  0  0  0
  -25.7677  -11.6818  145.8123 C   0  0  0  0  0  0  0  0  0  0  0  0
  -25.1260  -15.8069  146.3364 C   0  0  0  0  0  0  0  0  0  0  0  0
  -25.3104  -14.4357  146.2005 C   0  0  0  0  0  0  0  0  0  0  0  0
  -23.4448  -18.4262  146.5979 C   0  0  0  0  0  0  0  0  0  0  0  0
  -26.1822  -10.3519  145.6521 C   0  0  0  0  0  0  0  0  0  0  0  0
  -26.3226   -9.8673  144.2956 C   0  0  0  0  0  0  0  0  0  0  0  0
  -22.9642  -17.4632  147.6471 C   0  0  0  0  0  0  0  0  0  0  0  0
  -27.5549  -10.0128  143.6670 C   0  0  0  0  0  0  0  0  0  0  0  0
  -27.7610  -10.3921  142.3690 C   0  0  0  0  0  0  0  0  0  0  0  0
  -28.9911  -10.3083  141.6742 C   0  0  0  0  0  0  0  0  0  0  0  0
  -30.1483   -9.9112  142.4796 C   0  0  0  0  0  0  0  0  0  0  0  0
  -29.9216   -9.5451  143.8322 C   0  0  0  0  0  0  0  0  0  0  0  0
  -28.6575   -9.6070  144.4451 C   0  0  0  0  0  0  0  0  0  0  0  0
  -31.4022   -9.9020  142.0681 O   0  0  0  0  0  0  0  0  0  0  0  0
  -30.9843   -9.1861  144.6204 O   0  0  0  0  0  0  0  0  0  0  0  0
  -23.5564  -16.9712  148.7898 N   0  0  0  0  0  0  0  0  0  0  0  0
  -23.8052  -17.8288  149.8252 C   0  0  0  0  0  0  0  0  0  0  0  0
  -24.4722  -17.0661  150.9660 C   0  0  0  0  0  0  0  0  0  0  0  0
  -29.1692  -10.7457  140.4856 O   0  0  0  0  0  0  0  0  0  0  0  0
  -28.0236  -11.2510  139.9086 C   0  0  0  0  0  0  0  0  0  0  0  0
  -27.0420  -10.5713  139.6196 C   0  0  0  0  0  0  0  0  0  0  0  0
  -27.8211  -12.7525  140.0006 C   0  0  0  0  0  0  0  0  0  0  0  0
  -26.5255  -13.1908  139.7906 C   0  0  0  0  0  0  0  0  0  0  0  0
  -25.7877  -11.0869  139.2379 N   0  0  0  0  0  0  0  0  0  0  0  0
  -25.5851  -12.3460  139.2451 C   0  0  0  0  0  0  0  0  0  0  0  0
  -27.1672   -9.1856  139.4355 N   0  0  0  0  0  0  0  0  0  0  0  0
  -28.2128   -8.6589  138.6108 C   0  0  0  0  0  0  0  0  0  0  0  0
  -28.4198   -8.3238  137.3953 C   0  0  0  0  0  0  0  0  0  0  0  0
  -29.2710   -7.8767  139.5651 C   0  0  0  0  0  0  0  0  0  0  0  0
  1  2  1  0
  5  6  1  0
  6  7  2  3
  1 10  2  3
  7 11  1  0
 11 12  2  3
 10 13  1  0
 12 14  1  0
 17 20  1  0
 18 21  1  0
 13 22  1  0
 22 23  1  0
 23 24  1  0
 16 25  1  0
 25 26  1  0
 27 32  1  0
 32 33  1  0
 33 34  2  0
 33 35  1  0
 26 27  2  0
 27 30  1  0
 30 31  2  0
 31 29  1  0
 29 28  2  0
 28 26  1  0
 14 15  2  0
 15 16  1  0
 16 17  2  0
 17 18  1  0
 18 19  2  0
 19 14  1  0
  2  3  2  0
  3  4  1  0
  4  5  2  0
  5  9  1  0
  9  8  2  0
  8  2  1  0
M  END

$$$$
No_15-/dssg/home/sw_qyf/PocketFlow/Model-Generation-Results/5HT2A_7WC7_rec_A_10.pdb/2024-01-01-03-54-21/
     RDKit          3D

 35 39  0  0  0  0  0  0  0  0999 V2000
  -24.1553  -17.8465  145.7021 C   0  0  0  0  0  0  0  0  0  0  0  0
  -23.9795  -18.4462  146.7426 C   0  0  0  0  0  0  0  0  0  0  0  0
  -25.1593  -16.8262  145.6925 C   0  0  0  0  0  0  0  0  0  0  0  0
  -24.9465  -15.5961  144.9952 C   0  0  0  0  0  0  0  0  0  0  0  0
  -25.8339  -14.4742  145.0599 C   0  0  0  0  0  0  0  0  0  0  0  0
  -27.0182  -14.6297  145.8322 C   0  0  0  0  0  0  0  0  0  0  0  0
  -27.9676  -13.5626  145.8660 C   0  0  0  0  0  0  0  0  0  0  0  0
  -27.6751  -12.3728  145.1069 C   0  0  0  0  0  0  0  0  0  0  0  0
  -28.5558  -11.2241  145.1891 C   0  0  0  0  0  0  0  0  0  0  0  0
  -28.2691  -10.1525  144.2929 C   0  0  0  0  0  0  0  0  0  0  0  0
  -27.0264  -10.2896  143.6085 C   0  0  0  0  0  0  0  0  0  0  0  0
  -26.1614  -11.3234  143.7657 C   0  0  0  0  0  0  0  0  0  0  0  0
  -26.4966  -12.3932  144.4909 C   0  0  0  0  0  0  0  0  0  0  0  0
  -25.6520  -13.3697  144.3062 C   0  0  0  0  0  0  0  0  0  0  0  0
  -24.6706  -18.1332  147.9751 C   0  0  0  0  0  0  0  0  0  0  0  0
  -25.5126  -17.0338  148.0485 C   0  0  0  0  0  0  0  0  0  0  0  0
  -25.6704  -16.2317  146.9608 C   0  0  0  0  0  0  0  0  0  0  0  0
  -26.6252  -15.1940  147.0634 C   0  0  0  0  0  0  0  0  0  0  0  0
  -30.0575  -11.2136  146.0199 Cl  0  0  0  0  0  0  0  0  0  0  0  0
  -23.6885  -15.3071  144.6832 O   0  0  0  0  0  0  0  0  0  0  0  0
  -26.0553  -16.7733  149.2680 O   0  0  0  0  0  0  0  0  0  0  0  0
  -23.6222  -18.1585  144.5887 O   0  0  0  0  0  0  0  0  0  0  0  0
  -29.0828   -9.0947  144.2395 O   0  0  0  0  0  0  0  0  0  0  0  0
  -29.3431   -8.5150  143.0289 C   0  0  0  0  0  0  0  0  0  0  0  0
  -30.1465   -7.3555  143.1630 C   0  0  0  0  0  0  0  0  0  0  0  0
  -30.9263   -7.2076  142.0274 C   0  0  0  0  0  0  0  0  0  0  0  0
  -30.3984   -8.0300  140.9210 C   0  0  0  0  0  0  0  0  0  0  0  0
  -29.7277   -9.1448  141.8884 C   0  0  0  0  0  0  0  0  0  0  0  0
  -30.0983  -10.4081  141.8305 O   0  0  0  0  0  0  0  0  0  0  0  0
  -29.3908   -7.5439  140.0383 C   0  0  0  0  0  0  0  0  0  0  0  0
  -29.1248   -8.2297  138.7896 C   0  0  0  0  0  0  0  0  0  0  0  0
  -29.4229   -9.2935  138.4245 C   0  0  0  0  0  0  0  0  0  0  0  0
  -28.9917   -9.8552  137.2103 C   0  0  0  0  0  0  0  0  0  0  0  0
  -29.1668  -11.1745  136.8972 C   0  0  0  0  0  0  0  0  0  0  0  0
  -27.9490  -11.8514  136.3248 C   0  0  0  0  0  0  0  0  0  0  0  0
  9 19  1  0
  4 20  1  0
 16 21  1  0
  1 22  1  0
 10 23  1  0
 23 24  1  0
 24 25  1  0
 25 26  2  0
 26 27  1  0
 24 28  1  0
 27 28  1  0
 28 29  1  0
 27 30  1  0
 30 31  1  0
 31 32  1  0
 32 33  2  3
 33 34  1  0
 34 35  1  0
  1  2  2  0
  2 15  1  0
 15 16  2  0
 16 17  1  0
  3  1  1  0
  3  4  2  0
  4  5  1  0
  6 18  1  0
 18 17  2  0
 17  3  1  0
  8  9  1  0
  9 10  2  0
 10 11  1  0
 11 12  2  0
 12 13  1  0
  5  6  2  0
  6  7  1  0
  7  8  2  0
  8 13  1  0
 13 14  2  0
 14  5  1  0
M  END

$$$$
No_16-/dssg/home/sw_qyf/PocketFlow/Model-Generation-Results/5HT2A_7WC7_rec_A_10.pdb/2024-01-01-03-54-21/
     RDKit          3D

  7  6  0  0  0  0  0  0  0  0999 V2000
  -24.1553  -17.8465  145.7021 C   0  0  0  0  0  0  0  0  0  0  0  0
  -23.9795  -18.4462  146.7426 C   0  0  0  0  0  0  0  0  0  0  0  0
  -24.3577  -16.4380  145.7329 C   0  0  0  0  0  0  0  0  0  0  0  0
  -24.4745  -15.6012  144.5587 C   0  0  0  0  0  0  0  0  0  0  0  0
  -23.9533  -17.8714  148.0765 C   0  0  0  0  0  0  0  0  0  0  0  0
  -24.2086  -16.4614  148.1618 C   0  0  0  0  0  0  0  0  0  0  0  0
  -24.3666  -15.7232  147.0011 C   0  0  0  0  0  0  0  0  0  0  0  0
  1  2  2  3
  1  3  1  0
  3  4  3  0
  2  5  1  0
  5  6  2  3
  6  7  1  0
M  END

$$$$
No_17-/dssg/home/sw_qyf/PocketFlow/Model-Generation-Results/5HT2A_7WC7_rec_A_10.pdb/2024-01-01-03-54-21/
     RDKit          3D

 29 31  0  0  0  0  0  0  0  0999 V2000
  -23.1746  -16.6014  144.8668 C   0  0  0  0  0  0  0  0  0  0  0  0
  -23.7011  -17.0158  145.9774 C   0  0  0  0  0  0  0  0  0  0  0  0
  -24.2134  -16.0722  146.8877 C   0  0  0  0  0  0  0  0  0  0  0  0
  -23.3742  -15.2706  144.3922 C   0  0  0  0  0  0  0  0  0  0  0  0
  -24.0445  -14.2973  145.2608 C   0  0  0  0  0  0  0  0  0  0  0  0
  -24.4773  -14.7066  146.5258 C   0  0  0  0  0  0  0  0  0  0  0  0
  -24.1826  -12.9655  144.8997 N   0  0  0  0  0  0  0  0  0  0  0  0
  -25.1336  -12.1843  145.2689 C   0  0  0  0  0  0  0  0  0  0  0  0
  -25.7735  -12.3653  146.4286 C   0  0  0  0  0  0  0  0  0  0  0  0
  -25.5843  -13.7561  147.0763 C   0  0  0  0  0  0  0  0  0  0  0  0
  -25.2337  -10.9855  144.7705 O   0  0  0  0  0  0  0  0  0  0  0  0
  -23.4540  -18.3974  146.4811 C   0  0  0  0  0  0  0  0  0  0  0  0
  -22.6296  -18.8162  146.9092 O   0  0  0  0  0  0  0  0  0  0  0  0
  -24.6383  -19.1513  146.3485 O   0  0  0  0  0  0  0  0  0  0  0  0
  -26.7154  -11.6456  147.0145 O   0  0  0  0  0  0  0  0  0  0  0  0
  -28.0265  -11.7287  146.4102 C   0  0  0  0  0  0  0  0  0  0  0  0
  -29.0291  -12.1597  147.3079 C   0  0  0  0  0  0  0  0  0  0  0  0
  -30.3751  -12.1623  146.9171 C   0  0  0  0  0  0  0  0  0  0  0  0
  -31.1975  -12.5208  147.8586 N   0  0  0  0  0  0  0  0  0  0  0  0
  -30.6430  -13.2694  148.8722 C   0  0  0  0  0  0  0  0  0  0  0  0
  -29.4242  -13.6194  148.8931 N   0  0  0  0  0  0  0  0  0  0  0  0
  -28.5408  -13.0558  148.1130 C   0  0  0  0  0  0  0  0  0  0  0  0
  -31.6145  -13.8200  149.7758 N   0  0  0  0  0  0  0  0  0  0  0  0
  -32.7474  -13.2025  150.0702 C   0  0  0  0  0  0  0  0  0  0  0  0
  -32.6816  -12.1093  151.0128 C   0  0  0  0  0  0  0  0  0  0  0  0
  -32.2581  -10.8260  150.6323 C   0  0  0  0  0  0  0  0  0  0  0  0
  -31.2301  -14.8976  150.6296 C   0  0  0  0  0  0  0  0  0  0  0  0
  -32.8664  -12.4680  152.4362 C   0  0  0  0  0  0  0  0  0  0  0  0
  -33.7283  -13.7245  152.7905 Cl  0  0  0  0  0  0  0  0  0  0  0  0
  5  7  1  0
  7  8  1  0
  8  9  1  0
  6 10  1  0
  8 11  2  0
  2 12  1  0
 12 13  2  0
 12 14  1  0
  9 15  1  0
 15 16  1  0
 20 23  1  0
 23 24  1  0
 24 25  1  0
 25 26  1  0
 23 27  1  0
 25 28  1  0
 28 29  1  0
 16 17  1  0
 10  9  1  0
 17 18  2  0
 18 19  1  0
 19 20  2  0
 20 21  1  0
 21 22  2  0
 22 17  1  0
  1  2  2  0
  2  3  1  0
  3  6  2  0
  6  5  1  0
  5  4  2  0
  4  1  1  0
M  END

$$$$
No_18-/dssg/home/sw_qyf/PocketFlow/Model-Generation-Results/5HT2A_7WC7_rec_A_10.pdb/2024-01-01-03-54-21/
     RDKit          3D

 35 38  0  0  0  0  0  0  0  0999 V2000
  -24.1553  -17.8465  145.7021 C   0  0  0  0  0  0  0  0  0  0  0  0
  -23.9795  -18.4462  146.7426 C   0  0  0  0  0  0  0  0  0  0  0  0
  -25.1593  -16.8262  145.6925 C   0  0  0  0  0  0  0  0  0  0  0  0
  -25.3302  -15.8818  144.5925 C   0  0  0  0  0  0  0  0  0  0  0  0
  -24.4570  -18.1009  148.0274 C   0  0  0  0  0  0  0  0  0  0  0  0
  -25.3496  -17.0286  148.1023 C   0  0  0  0  0  0  0  0  0  0  0  0
  -25.5669  -16.2449  146.9641 C   0  0  0  0  0  0  0  0  0  0  0  0
  -24.1805  -15.0528  144.1688 C   0  0  0  0  0  0  0  0  0  0  0  0
  -24.2103  -13.6534  144.9108 C   0  0  0  0  0  0  0  0  0  0  0  0
  -23.0100  -12.7957  144.7618 C   0  0  0  0  0  0  0  0  0  0  0  0
  -21.9819  -13.0310  144.0466 C   0  0  0  0  0  0  0  0  0  0  0  0
  -21.0626  -12.1236  144.0018 F   0  0  0  0  0  0  0  0  0  0  0  0
  -26.4886  -15.1395  147.0144 C   0  0  0  0  0  0  0  0  0  0  0  0
  -26.2982  -13.8959  146.7621 C   0  0  0  0  0  0  0  0  0  0  0  0
  -25.3081  -13.2771  145.6846 C   0  0  0  0  0  0  0  0  0  0  0  0
  -25.7747  -11.8345  145.3568 C   0  0  0  0  0  0  0  0  0  0  0  0
  -27.2162  -11.6339  145.2584 C   0  0  0  0  0  0  0  0  0  0  0  0
  -27.7460  -10.5990  144.5553 C   0  0  0  0  0  0  0  0  0  0  0  0
  -29.1994  -10.4126  144.6237 C   0  0  0  0  0  0  0  0  0  0  0  0
  -29.8503   -9.5018  143.9714 N   0  0  0  0  0  0  0  0  0  0  0  0
  -29.8237   -9.3813  142.6953 C   0  0  0  0  0  0  0  0  0  0  0  0
  -30.0081   -8.1458  142.2912 C   0  0  0  0  0  0  0  0  0  0  0  0
  -30.4231   -7.1322  143.0870 C   0  0  0  0  0  0  0  0  0  0  0  0
  -29.3010   -7.6281  141.0627 C   0  0  0  0  0  0  0  0  0  0  0  0
  -29.1985   -8.5826  139.9929 C   0  0  0  0  0  0  0  0  0  0  0  0
  -28.5179   -9.7541  140.3047 C   0  0  0  0  0  0  0  0  0  0  0  0
  -27.8946  -10.6200  139.4267 C   0  0  0  0  0  0  0  0  0  0  0  0
  -27.4256  -11.9297  139.8080 C   0  0  0  0  0  0  0  0  0  0  0  0
  -28.9888  -10.1915  141.7623 C   0  0  0  0  0  0  0  0  0  0  0  0
  -29.7632  -11.5436  145.0440 F   0  0  0  0  0  0  0  0  0  0  0  0
  -26.6276  -12.6440  138.8759 C   0  0  0  0  0  0  0  0  0  0  0  0
  -29.0937   -8.2489  138.6981 C   0  0  0  0  0  0  0  0  0  0  0  0
  -28.3033   -8.8949  137.7742 C   0  0  0  0  0  0  0  0  0  0  0  0
  -27.9062  -10.1883  138.1423 C   0  0  0  0  0  0  0  0  0  0  0  0
  -27.7336  -12.5829  141.0372 C   0  0  0  0  0  0  0  0  0  0  0  0
  3  4  1  0
  4  8  1  0
  8  9  1  0
  9 10  2  3
 10 11  1  0
 11 12  1  0
  7 13  1  0
 13 14  2  3
  9 15  1  0
 14 15  1  0
 15 16  1  0
 16 17  1  0
 17 18  2  3
 18 19  1  0
 19 20  1  0
 20 21  1  0
 21 22  1  0
 22 23  2  0
 22 24  1  0
 24 25  1  0
 21 29  1  0
 26 29  1  0
 19 30  1  0
 28 31  1  0
 28 35  1  0
 28 27  1  0
 25 26  2  0
 26 27  1  0
 27 34  2  0
 34 33  1  0
 33 32  2  0
 32 25  1  0
  1  2  2  0
  2  5  1  0
  5  6  2  0
  6  7  1  0
  7  3  2  0
  3  1  1  0
M  END

$$$$
No_19-/dssg/home/sw_qyf/PocketFlow/Model-Generation-Results/5HT2A_7WC7_rec_A_10.pdb/2024-01-01-03-54-21/
     RDKit          3D

 23 24  0  0  0  0  0  0  0  0999 V2000
  -23.1746  -16.6014  144.8668 C   0  0  0  0  0  0  0  0  0  0  0  0
  -23.8963  -15.5346  144.7885 C   0  0  0  0  0  0  0  0  0  0  0  0
  -23.4976  -14.2961  145.1226 C   0  0  0  0  0  0  0  0  0  0  0  0
  -23.9189  -13.0599  144.7480 C   0  0  0  0  0  0  0  0  0  0  0  0
  -22.9866  -12.0510  145.4019 C   0  0  0  0  0  0  0  0  0  0  0  0
  -23.6302  -17.7206  145.4141 C   0  0  0  0  0  0  0  0  0  0  0  0
  -24.7685  -17.6527  146.3627 C   0  0  0  0  0  0  0  0  0  0  0  0
  -25.6780  -16.6244  146.2887 C   0  0  0  0  0  0  0  0  0  0  0  0
  -25.2108  -15.4500  145.6515 C   0  0  0  0  0  0  0  0  0  0  0  0
  -26.8985  -16.6223  147.0670 C   0  0  0  0  0  0  0  0  0  0  0  0
  -27.0194  -16.5204  148.3381 C   0  0  0  0  0  0  0  0  0  0  0  0
  -28.1443  -16.8645  146.3159 C   0  0  0  0  0  0  0  0  0  0  0  0
  -27.9689  -16.9499  148.8630 C   0  0  0  0  0  0  0  0  0  0  0  0
  -28.9837  -16.3473  146.6402 N   0  0  0  0  0  0  0  0  0  0  0  0
  -29.2043  -15.7944  147.9901 C   0  0  0  0  0  0  0  0  0  0  0  0
  -25.9987  -14.4325  145.5869 O   0  0  0  0  0  0  0  0  0  0  0  0
  -26.7995  -14.0458  144.6514 C   0  0  0  0  0  0  0  0  0  0  0  0
  -26.7046  -12.5516  144.3436 C   0  0  0  0  0  0  0  0  0  0  0  0
  -28.0569  -12.2427  143.7351 C   0  0  0  0  0  0  0  0  0  0  0  0
  -28.4056  -10.8778  144.2054 C   0  0  0  0  0  0  0  0  0  0  0  0
  -27.5457   -9.8811  144.1193 C   0  0  0  0  0  0  0  0  0  0  0  0
  -29.7930  -10.5808  144.6221 C   0  0  0  0  0  0  0  0  0  0  0  0
  -30.0975  -10.9641  145.8102 O   0  0  0  0  0  0  0  0  0  0  0  0
  2  3  1  0
  3  4  1  0
  4  5  1  0
  8 10  1  0
  9 16  1  0
 16 17  1  0
 17 18  1  0
 18 19  1  0
 19 20  1  0
 20 21  1  0
 20 22  1  0
 22 23  1  0
 10 11  2  0
 11 13  1  0
 13 15  2  0
 15 14  1  0
 14 12  2  0
 12 10  1  0
  1  2  2  0
  2  9  1  0
  9  8  2  0
  8  7  1  0
  7  6  2  0
  6  1  1  0
M  END

$$$$
No_20-/dssg/home/sw_qyf/PocketFlow/Model-Generation-Results/5HT2A_7WC7_rec_A_10.pdb/2024-01-01-03-54-21/
     RDKit          3D

 19 21  0  0  0  0  0  0  0  0999 V2000
  -24.1553  -17.8465  145.7021 C   0  0  0  0  0  0  0  0  0  0  0  0
  -24.2855  -16.6364  145.3494 C   0  0  0  0  0  0  0  0  0  0  0  0
  -23.7824  -15.9602  144.3553 C   0  0  0  0  0  0  0  0  0  0  0  0
  -23.9871  -14.5276  144.1537 C   0  0  0  0  0  0  0  0  0  0  0  0
  -24.7875  -13.8357  145.1352 C   0  0  0  0  0  0  0  0  0  0  0  0
  -24.9984  -12.3993  145.0246 C   0  0  0  0  0  0  0  0  0  0  0  0
  -26.0490  -11.8136  145.9721 C   0  0  0  0  0  0  0  0  0  0  0  0
  -24.7999  -18.4945  146.8163 C   0  0  0  0  0  0  0  0  0  0  0  0
  -26.6616  -10.7554  145.6147 C   0  0  0  0  0  0  0  0  0  0  0  0
  -25.2015  -14.8688  146.0910 C   0  0  0  0  0  0  0  0  0  0  0  0
  -24.9865  -16.0291  146.3745 C   0  0  0  0  0  0  0  0  0  0  0  0
  -25.4173  -17.7849  147.6999 C   0  0  0  0  0  0  0  0  0  0  0  0
  -25.5806  -16.6049  147.5480 C   0  0  0  0  0  0  0  0  0  0  0  0
  -27.3717  -10.7323  144.3864 C   0  0  0  0  0  0  0  0  0  0  0  0
  -27.7005  -11.5681  143.7950 C   0  0  0  0  0  0  0  0  0  0  0  0
  -28.4598  -11.4633  142.5150 C   0  0  0  0  0  0  0  0  0  0  0  0
  -28.5855  -10.4002  142.0985 C   0  0  0  0  0  0  0  0  0  0  0  0
  -28.4705   -9.1706  142.8338 C   0  0  0  0  0  0  0  0  0  0  0  0
  -27.6868   -9.3757  144.0566 C   0  0  0  0  0  0  0  0  0  0  0  0
  5  6  1  0
  6  7  1  0
  7  9  1  0
  9 14  1  0
  1  2  2  0
 11 13  2  0
 13 12  1  0
 12  8  2  0
  8  1  1  0
  2  3  1  0
  3  4  2  0
  4  5  1  0
  5 10  2  0
 10 11  1  0
 11  2  1  0
 14 15  2  0
 15 16  1  0
 16 17  2  0
 17 18  1  0
 18 19  2  0
 19 14  1  0
M  END

$$$$
No_21-/dssg/home/sw_qyf/PocketFlow/Model-Generation-Results/5HT2A_7WC7_rec_A_10.pdb/2024-01-01-03-54-21/
     RDKit          3D

 34 36  0  0  0  0  0  0  0  0999 V2000
  -23.1746  -16.6014  144.8668 C   0  0  0  0  0  0  0  0  0  0  0  0
  -24.0189  -16.0564  145.8445 C   0  0  0  0  0  0  0  0  0  0  0  0
  -24.4850  -14.7380  145.6359 C   0  0  0  0  0  0  0  0  0  0  0  0
  -25.3334  -14.0797  146.6105 C   0  0  0  0  0  0  0  0  0  0  0  0
  -25.9005  -14.9798  147.6128 C   0  0  0  0  0  0  0  0  0  0  0  0
  -25.5154  -16.3127  147.7250 C   0  0  0  0  0  0  0  0  0  0  0  0
  -24.6132  -16.7624  146.8178 C   0  0  0  0  0  0  0  0  0  0  0  0
  -23.8828  -13.8005  144.6819 C   0  0  0  0  0  0  0  0  0  0  0  0
  -24.5778  -13.2083  144.0785 O   0  0  0  0  0  0  0  0  0  0  0  0
  -22.5532  -13.6563  144.5921 O   0  0  0  0  0  0  0  0  0  0  0  0
  -24.2750  -18.2543  146.9382 C   0  0  0  0  0  0  0  0  0  0  0  0
  -23.7897  -18.8624  147.8541 O   0  0  0  0  0  0  0  0  0  0  0  0
  -24.9432  -19.0136  146.1264 O   0  0  0  0  0  0  0  0  0  0  0  0
  -25.7256  -12.7262  146.5681 C   0  0  0  0  0  0  0  0  0  0  0  0
  -27.0561  -12.3471  146.2457 C   0  0  0  0  0  0  0  0  0  0  0  0
  -27.3914  -12.1524  144.9736 C   0  0  0  0  0  0  0  0  0  0  0  0
  -28.3369  -11.1268  144.5888 C   0  0  0  0  0  0  0  0  0  0  0  0
  -29.5167  -10.9599  145.4479 C   0  0  0  0  0  0  0  0  0  0  0  0
  -29.3822  -11.4945  146.8030 C   0  0  0  0  0  0  0  0  0  0  0  0
  -28.2150  -12.1806  147.2000 C   0  0  0  0  0  0  0  0  0  0  0  0
  -28.3944  -10.3621  143.3479 C   0  0  0  0  0  0  0  0  0  0  0  0
  -29.3767   -9.6919  142.9511 C   0  0  0  0  0  0  0  0  0  0  0  0
  -30.6292   -9.6975  143.3269 C   0  0  0  0  0  0  0  0  0  0  0  0
  -31.2143   -8.6035  143.3210 C   0  0  0  0  0  0  0  0  0  0  0  0
  -31.0049   -7.4733  142.5138 C   0  0  0  0  0  0  0  0  0  0  0  0
  -29.6869   -7.4467  141.9549 C   0  0  0  0  0  0  0  0  0  0  0  0
  -28.8420   -8.6004  142.1803 C   0  0  0  0  0  0  0  0  0  0  0  0
  -29.2594   -6.3683  141.2118 N   0  0  0  0  0  0  0  0  0  0  0  0
  -27.5614  -11.0545  142.4628 O   0  0  0  0  0  0  0  0  0  0  0  0
  -29.1690   -6.4810  139.8623 C   0  0  0  0  0  0  0  0  0  0  0  0
  -29.4200   -7.6219  139.3208 N   0  0  0  0  0  0  0  0  0  0  0  0
  -28.9154   -7.9760  138.1005 C   0  0  0  0  0  0  0  0  0  0  0  0
  -27.5659   -7.6950  137.8968 C   0  0  0  0  0  0  0  0  0  0  0  0
  -28.9484   -9.5340  137.9234 C   0  0  0  0  0  0  0  0  0  0  0  0
  1  2  1  0
  3  8  1  0
  8  9  2  0
  8 10  1  0
  7 11  1  0
 11 12  2  0
 11 13  1  0
  4 14  1  0
 14 15  1  0
 17 21  1  0
 21 22  1  0
 26 28  1  0
 21 29  2  0
 28 30  1  0
 30 31  1  0
 31 32  1  0
 32 33  1  0
 32 34  1  0
 15 16  2  0
 16 17  1  0
 17 18  2  0
 18 19  1  0
 19 20  2  0
 20 15  1  0
  2  3  2  0
  3  4  1  0
  4  5  2  0
  5  6  1  0
  6  7  2  0
  7  2  1  0
 22 23  2  0
 23 24  1  0
 24 25  2  0
 25 26  1  0
 26 27  2  0
 27 22  1  0
M  END

$$$$
No_22-/dssg/home/sw_qyf/PocketFlow/Model-Generation-Results/5HT2A_7WC7_rec_A_10.pdb/2024-01-01-03-54-21/
     RDKit          3D

 35 38  0  0  0  0  0  0  0  0999 V2000
  -24.1553  -17.8465  145.7021 C   0  0  0  0  0  0  0  0  0  0  0  0
  -23.9795  -18.4462  146.7426 C   0  0  0  0  0  0  0  0  0  0  0  0
  -23.2486  -17.2339  144.9771 C   0  0  0  0  0  0  0  0  0  0  0  0
  -24.9812  -19.0362  147.5824 C   0  0  0  0  0  0  0  0  0  0  0  0
  -23.7180  -16.2391  144.0023 C   0  0  0  0  0  0  0  0  0  0  0  0
  -24.8147  -15.3438  144.5775 C   0  0  0  0  0  0  0  0  0  0  0  0
  -24.9020  -14.0282  144.0916 C   0  0  0  0  0  0  0  0  0  0  0  0
  -26.0030  -13.2897  144.5244 C   0  0  0  0  0  0  0  0  0  0  0  0
  -26.7701  -13.7076  145.6342 C   0  0  0  0  0  0  0  0  0  0  0  0
  -26.5860  -14.9716  146.1981 C   0  0  0  0  0  0  0  0  0  0  0  0
  -25.4985  -15.7705  145.7116 C   0  0  0  0  0  0  0  0  0  0  0  0
  -25.4754  -17.0969  145.7999 C   0  0  0  0  0  0  0  0  0  0  0  0
  -27.8685  -12.8158  146.1342 C   0  0  0  0  0  0  0  0  0  0  0  0
  -28.8580  -13.1992  147.0261 C   0  0  0  0  0  0  0  0  0  0  0  0
  -29.7965  -12.2412  147.4988 C   0  0  0  0  0  0  0  0  0  0  0  0
  -30.8447  -12.5840  148.3564 C   0  0  0  0  0  0  0  0  0  0  0  0
  -30.7145  -13.9476  148.8729 C   0  0  0  0  0  0  0  0  0  0  0  0
  -29.7884  -14.8723  148.4223 C   0  0  0  0  0  0  0  0  0  0  0  0
  -28.8853  -14.4891  147.5012 C   0  0  0  0  0  0  0  0  0  0  0  0
  -28.0092  -11.6766  145.4590 O   0  0  0  0  0  0  0  0  0  0  0  0
  -27.0886  -11.1041  144.7686 C   0  0  0  0  0  0  0  0  0  0  0  0
  -26.4047  -11.6194  144.1573 C   0  0  0  0  0  0  0  0  0  0  0  0
  -27.4064   -9.5987  144.4360 C   0  0  0  0  0  0  0  0  0  0  0  0
  -31.7565  -11.7711  148.8214 O   0  0  0  0  0  0  0  0  0  0  0  0
  -32.9530  -12.2250  149.2075 C   0  0  0  0  0  0  0  0  0  0  0  0
  -32.8707  -12.4798  150.6658 C   0  0  0  0  0  0  0  0  0  0  0  0
  -33.4779  -11.3240  151.6174 Cl  0  0  0  0  0  0  0  0  0  0  0  0
  -33.4204  -13.7856  151.0530 O   0  0  0  0  0  0  0  0  0  0  0  0
  -22.7383  -18.9190  147.1668 O   0  0  0  0  0  0  0  0  0  0  0  0
  -33.9158  -11.2303  149.0012 O   0  0  0  0  0  0  0  0  0  0  0  0
  -28.0966   -9.1759  143.2098 C   0  0  0  0  0  0  0  0  0  0  0  0
  -29.0928   -8.2524  143.2446 C   0  0  0  0  0  0  0  0  0  0  0  0
  -29.6313   -7.7320  141.9811 C   0  0  0  0  0  0  0  0  0  0  0  0
  -29.1305   -8.2968  140.7612 C   0  0  0  0  0  0  0  0  0  0  0  0
  -28.3201   -9.3983  140.8588 C   0  0  0  0  0  0  0  0  0  0  0  0
  1  2  1  0
  2  4  1  0
  9 13  1  0
 13 20  1  0
 20 21  1  0
  8 22  1  0
 21 22  1  0
 21 23  1  0
 16 24  1  0
 24 25  1  0
 25 26  1  0
 26 27  1  0
 26 28  1  0
  2 29  2  0
 25 30  1  0
 23 31  1  0
 31 32  2  3
 32 33  1  0
 33 34  2  3
 34 35  1  0
 13 14  1  0
 14 15  2  0
 15 16  1  0
 16 17  2  0
 17 18  1  0
 18 19  2  0
 19 14  1  0
  1  3  2  0
  3  5  1  0
  5  6  2  0
 11 12  2  0
 12  1  1  0
  6  7  1  0
  7  8  2  0
  8  9  1  0
  9 10  2  0
 10 11  1  0
 11  6  1  0
M  END

$$$$
No_23-/dssg/home/sw_qyf/PocketFlow/Model-Generation-Results/5HT2A_7WC7_rec_A_10.pdb/2024-01-01-03-54-21/
     RDKit          3D

 35 37  0  0  0  0  0  0  0  0999 V2000
  -23.1746  -16.6014  144.8668 C   0  0  0  0  0  0  0  0  0  0  0  0
  -23.7011  -17.0158  145.9774 C   0  0  0  0  0  0  0  0  0  0  0  0
  -23.7336  -18.2775  146.3737 C   0  0  0  0  0  0  0  0  0  0  0  0
  -24.1960  -18.6445  147.6858 C   0  0  0  0  0  0  0  0  0  0  0  0
  -24.7100  -17.6145  148.5486 C   0  0  0  0  0  0  0  0  0  0  0  0
  -24.7929  -16.2635  148.0870 C   0  0  0  0  0  0  0  0  0  0  0  0
  -24.2508  -15.9434  146.8891 C   0  0  0  0  0  0  0  0  0  0  0  0
  -23.4075  -17.2535  143.7899 O   0  0  0  0  0  0  0  0  0  0  0  0
  -22.7213  -15.3365  144.5860 O   0  0  0  0  0  0  0  0  0  0  0  0
  -25.2266  -17.9475  149.7635 O   0  0  0  0  0  0  0  0  0  0  0  0
  -25.3653  -16.8456  150.7078 C   0  0  0  0  0  0  0  0  0  0  0  0
  -23.4217  -14.2420  144.1042 C   0  0  0  0  0  0  0  0  0  0  0  0
  -23.7196  -13.2297  145.2625 C   0  0  0  0  0  0  0  0  0  0  0  0
  -25.1027  -12.8730  145.4565 C   0  0  0  0  0  0  0  0  0  0  0  0
  -25.9595  -13.6364  145.8446 C   0  0  0  0  0  0  0  0  0  0  0  0
  -27.3487  -13.1673  146.1760 C   0  0  0  0  0  0  0  0  0  0  0  0
  -27.5762  -11.7458  145.8435 C   0  0  0  0  0  0  0  0  0  0  0  0
  -26.5000  -10.9768  145.3216 C   0  0  0  0  0  0  0  0  0  0  0  0
  -25.2526  -11.5126  145.2058 C   0  0  0  0  0  0  0  0  0  0  0  0
  -28.4403  -13.9322  146.6612 C   0  0  0  0  0  0  0  0  0  0  0  0
  -29.6018  -13.3830  147.1719 C   0  0  0  0  0  0  0  0  0  0  0  0
  -30.1987  -13.4625  147.9937 C   0  0  0  0  0  0  0  0  0  0  0  0
  -31.3219  -12.6576  148.6281 C   0  0  0  0  0  0  0  0  0  0  0  0
  -31.8498  -12.9957  149.8304 N   0  0  0  0  0  0  0  0  0  0  0  0
  -31.4230  -14.2230  150.2224 C   0  0  0  0  0  0  0  0  0  0  0  0
  -30.5856  -15.0578  149.8022 C   0  0  0  0  0  0  0  0  0  0  0  0
  -29.9596  -14.7178  148.7509 C   0  0  0  0  0  0  0  0  0  0  0  0
  -31.5912  -11.5384  148.1026 O   0  0  0  0  0  0  0  0  0  0  0  0
  -28.3230  -15.3206  146.4952 C   0  0  0  0  0  0  0  0  0  0  0  0
  -27.8865  -15.9189  147.3152 F   0  0  0  0  0  0  0  0  0  0  0  0
  -27.8317  -15.6177  145.4121 F   0  0  0  0  0  0  0  0  0  0  0  0
  -29.6328  -15.9153  146.3342 F   0  0  0  0  0  0  0  0  0  0  0  0
  -23.2866  -19.2560  145.7023 O   0  0  0  0  0  0  0  0  0  0  0  0
  -26.7229   -9.6362  145.1282 O   0  0  0  0  0  0  0  0  0  0  0  0
  -27.5378   -9.3797  144.0491 C   0  0  0  0  0  0  0  0  0  0  0  0
  1  2  1  0
  1  8  2  0
  1  9  1  0
  5 10  1  0
 10 11  1  0
  9 12  1  0
 12 13  1  0
 13 14  1  0
 16 20  1  0
 20 21  2  3
 21 22  1  0
 23 28  1  0
 20 29  1  0
 29 30  1  0
 29 31  1  0
 29 32  1  0
  3 33  1  0
 18 34  1  0
 34 35  1  0
  2  3  2  0
  3  4  1  0
  4  5  2  0
  5  6  1  0
  6  7  2  0
  7  2  1  0
 22 23  2  0
 23 24  1  0
 24 25  2  0
 25 26  1  0
 26 27  2  0
 27 22  1  0
 14 15  2  0
 15 16  1  0
 16 17  2  0
 17 18  1  0
 18 19  2  0
 19 14  1  0
M  END

$$$$
No_24-/dssg/home/sw_qyf/PocketFlow/Model-Generation-Results/5HT2A_7WC7_rec_A_10.pdb/2024-01-01-03-54-21/
     RDKit          3D

 35 37  0  0  0  0  0  0  0  0999 V2000
  -23.1746  -16.6014  144.8668 C   0  0  0  0  0  0  0  0  0  0  0  0
  -23.8963  -15.5346  144.7885 C   0  0  0  0  0  0  0  0  0  0  0  0
  -23.6398  -14.5115  145.3281 C   0  0  0  0  0  0  0  0  0  0  0  0
  -24.6397  -13.8424  146.2286 C   0  0  0  0  0  0  0  0  0  0  0  0
  -25.6315  -14.4099  146.7658 C   0  0  0  0  0  0  0  0  0  0  0  0
  -23.6740  -17.9135  144.5400 C   0  0  0  0  0  0  0  0  0  0  0  0
  -26.6488  -14.5575  146.2558 C   0  0  0  0  0  0  0  0  0  0  0  0
  -27.3684  -15.8431  146.2963 C   0  0  0  0  0  0  0  0  0  0  0  0
  -27.7581  -16.3979  147.4985 C   0  0  0  0  0  0  0  0  0  0  0  0
  -27.4393  -13.4369  145.7172 C   0  0  0  0  0  0  0  0  0  0  0  0
  -28.0535  -12.5157  146.4571 C   0  0  0  0  0  0  0  0  0  0  0  0
  -28.6881  -11.3699  145.8947 C   0  0  0  0  0  0  0  0  0  0  0  0
  -28.5341  -10.9963  144.5586 C   0  0  0  0  0  0  0  0  0  0  0  0
  -27.7048  -11.9484  143.8450 C   0  0  0  0  0  0  0  0  0  0  0  0
  -27.1448  -13.0988  144.3866 C   0  0  0  0  0  0  0  0  0  0  0  0
  -29.1350   -9.8542  143.9783 C   0  0  0  0  0  0  0  0  0  0  0  0
  -29.9454   -9.0930  144.4223 C   0  0  0  0  0  0  0  0  0  0  0  0
  -30.6680   -8.0507  143.6747 C   0  0  0  0  0  0  0  0  0  0  0  0
  -30.3357   -7.8802  142.3782 C   0  0  0  0  0  0  0  0  0  0  0  0
  -30.8440   -6.8836  141.5638 C   0  0  0  0  0  0  0  0  0  0  0  0
  -29.1539   -8.6495  141.9178 C   0  0  0  0  0  0  0  0  0  0  0  0
  -28.6975   -9.5699  142.5586 C   0  0  0  0  0  0  0  0  0  0  0  0
  -28.5492  -16.5997  148.2169 C   0  0  0  0  0  0  0  0  0  0  0  0
  -29.3115  -16.6688  149.4506 C   0  0  0  0  0  0  0  0  0  0  0  0
  -29.0948  -17.8552  150.0143 N   0  0  0  0  0  0  0  0  0  0  0  0
  -30.2380  -15.8138  149.8296 N   0  0  0  0  0  0  0  0  0  0  0  0
  -24.2835  -12.3974  146.7259 C   0  0  0  0  0  0  0  0  0  0  0  0
  -30.4171  -14.6309  149.2207 C   0  0  0  0  0  0  0  0  0  0  0  0
  -31.4476  -13.7423  149.7515 C   0  0  0  0  0  0  0  0  0  0  0  0
  -32.2576  -14.0538  150.7557 C   0  0  0  0  0  0  0  0  0  0  0  0
  -33.1688  -13.1349  151.2635 C   0  0  0  0  0  0  0  0  0  0  0  0
  -33.3461  -11.9090  150.5734 C   0  0  0  0  0  0  0  0  0  0  0  0
  -32.5340  -11.6099  149.4373 C   0  0  0  0  0  0  0  0  0  0  0  0
  -31.5729  -12.4880  149.0213 C   0  0  0  0  0  0  0  0  0  0  0  0
  -23.8940  -18.6912  145.8110 C   0  0  0  0  0  0  0  0  0  0  0  0
  1  2  1  0
  2  3  1  0
  3  4  1  0
  4  5  2  3
  1  6  1  0
  5  7  1  0
  7  8  2  3
  8  9  1  0
  7 10  1  0
 13 16  1  0
 19 20  1  0
  9 23  3  0
 23 24  1  0
 24 25  2  0
 24 26  1  0
  4 27  1  0
 26 28  1  0
  6 35  1  0
 28 29  1  0
 29 30  2  0
 30 31  1  0
 31 32  2  0
 32 33  1  0
 33 34  2  0
 34 29  1  0
 16 17  2  0
 17 18  1  0
 18 19  2  0
 19 21  1  0
 21 22  2  0
 22 16  1  0
 10 11  2  0
 11 12  1  0
 12 13  2  0
 13 14  1  0
 14 15  2  0
 15 10  1  0
M  END

$$$$
No_25-/dssg/home/sw_qyf/PocketFlow/Model-Generation-Results/5HT2A_7WC7_rec_A_10.pdb/2024-01-01-03-54-21/
     RDKit          3D

 31 34  0  0  0  0  0  0  0  0999 V2000
  -24.1553  -17.8465  145.7021 C   0  0  0  0  0  0  0  0  0  0  0  0
  -24.2856  -16.6364  145.3494 C   0  0  0  0  0  0  0  0  0  0  0  0
  -25.0033  -15.6772  146.0737 C   0  0  0  0  0  0  0  0  0  0  0  0
  -25.1197  -14.2835  145.7299 C   0  0  0  0  0  0  0  0  0  0  0  0
  -24.2707  -13.8793  144.6500 C   0  0  0  0  0  0  0  0  0  0  0  0
  -24.8686  -18.3355  146.8179 C   0  0  0  0  0  0  0  0  0  0  0  0
  -25.6154  -17.5363  147.5807 C   0  0  0  0  0  0  0  0  0  0  0  0
  -25.7525  -16.1597  147.2668 C   0  0  0  0  0  0  0  0  0  0  0  0
  -23.3153  -13.1259  144.9221 C   0  0  0  0  0  0  0  0  0  0  0  0
  -22.3257  -12.6143  143.9015 C   0  0  0  0  0  0  0  0  0  0  0  0
  -26.0451  -13.4129  146.3312 C   0  0  0  0  0  0  0  0  0  0  0  0
  -27.3578  -13.2229  146.0291 C   0  0  0  0  0  0  0  0  0  0  0  0
  -27.9278  -11.9785  146.1947 C   0  0  0  0  0  0  0  0  0  0  0  0
  -28.4782  -11.3589  145.1347 C   0  0  0  0  0  0  0  0  0  0  0  0
  -27.7984  -11.0664  143.9034 C   0  0  0  0  0  0  0  0  0  0  0  0
  -28.3966  -10.4535  142.8459 C   0  0  0  0  0  0  0  0  0  0  0  0
  -28.0119  -10.5778  141.5294 C   0  0  0  0  0  0  0  0  0  0  0  0
  -27.6802  -11.8627  141.0326 C   0  0  0  0  0  0  0  0  0  0  0  0
  -27.4359  -12.0315  139.6836 C   0  0  0  0  0  0  0  0  0  0  0  0
  -26.7608  -13.1609  139.1498 C   0  0  0  0  0  0  0  0  0  0  0  0
  -26.0800  -13.8224  140.1679 C   0  0  0  0  0  0  0  0  0  0  0  0
  -26.3937  -13.7769  141.5182 C   0  0  0  0  0  0  0  0  0  0  0  0
  -27.1147  -12.6878  142.0030 C   0  0  0  0  0  0  0  0  0  0  0  0
  -28.3962   -9.5352  140.6039 C   0  0  0  0  0  0  0  0  0  0  0  0
  -27.7952   -9.1802  139.4522 C   0  0  0  0  0  0  0  0  0  0  0  0
  -28.5239   -8.2804  138.5894 C   0  0  0  0  0  0  0  0  0  0  0  0
  -29.6181   -7.6084  139.1785 C   0  0  0  0  0  0  0  0  0  0  0  0
  -29.6395   -8.6134  140.6813 C   0  0  0  0  0  0  0  0  0  0  0  0
  -29.7967  -10.7136  145.3084 C   0  0  0  0  0  0  0  0  0  0  0  0
  -30.3119   -9.8591  144.3585 N   0  0  0  0  0  0  0  0  0  0  0  0
  -29.7038   -9.8192  143.1352 C   0  0  0  0  0  0  0  0  0  0  0  0
  3  4  1  0
  4  5  2  3
  5  9  1  0
  9 10  1  0
  4 11  1  0
 11 12  1  0
 12 13  2  3
 13 14  1  0
 16 17  1  0
 17 24  1  0
 24 25  2  0
 25 26  1  0
 26 27  2  0
 24 28  1  0
 27 28  1  0
 17 18  1  0
 18 19  2  0
 19 20  1  0
 20 21  2  0
 21 22  1  0
 22 23  2  0
 23 18  1  0
  1  2  2  0
  2  3  1  0
  3  8  2  0
  8  7  1  0
  7  6  2  0
  6  1  1  0
 14 15  2  0
 15 16  1  0
 16 31  2  0
 31 30  1  0
 30 29  2  0
 29 14  1  0
M  END

$$$$
No_26-/dssg/home/sw_qyf/PocketFlow/Model-Generation-Results/5HT2A_7WC7_rec_A_10.pdb/2024-01-01-03-54-21/
     RDKit          3D

 18 19  0  0  0  0  0  0  0  0999 V2000
  -23.1746  -16.6014  144.8668 C   0  0  0  0  0  0  0  0  0  0  0  0
  -24.0189  -16.0564  145.8445 C   0  0  0  0  0  0  0  0  0  0  0  0
  -24.4850  -14.7380  145.6359 C   0  0  0  0  0  0  0  0  0  0  0  0
  -25.2717  -14.0560  146.5949 C   0  0  0  0  0  0  0  0  0  0  0  0
  -25.5669  -12.6700  146.4456 C   0  0  0  0  0  0  0  0  0  0  0  0
  -25.1774  -11.9727  145.2644 C   0  0  0  0  0  0  0  0  0  0  0  0
  -24.2583  -12.6444  144.4323 C   0  0  0  0  0  0  0  0  0  0  0  0
  -23.9746  -14.0153  144.6649 C   0  0  0  0  0  0  0  0  0  0  0  0
  -24.4407  -16.8601  146.9515 C   0  0  0  0  0  0  0  0  0  0  0  0
  -25.1111  -16.6229  147.9710 C   0  0  0  0  0  0  0  0  0  0  0  0
  -24.9821  -17.2513  149.2422 C   0  0  0  0  0  0  0  0  0  0  0  0
  -25.7749  -17.0271  150.4135 C   0  0  0  0  0  0  0  0  0  0  0  0
  -23.8284  -18.2253  146.9779 C   0  0  0  0  0  0  0  0  0  0  0  0
  -22.9995  -18.5469  146.2205 O   0  0  0  0  0  0  0  0  0  0  0  0
  -22.9556  -15.9430  143.8426 O   0  0  0  0  0  0  0  0  0  0  0  0
  -22.8008  -18.1151  145.1639 C   0  0  0  0  0  0  0  0  0  0  0  0
  -25.9781  -11.3290  144.7060 F   0  0  0  0  0  0  0  0  0  0  0  0
  -25.4829  -17.9340  151.5191 C   0  0  0  0  0  0  0  0  0  0  0  0
  1  2  1  0
  2  3  1  0
  2  9  1  0
  9 10  1  0
 10 11  2  3
 11 12  1  0
  9 13  1  0
 13 14  1  0
  1 15  1  0
  1 16  1  0
 14 16  1  0
  6 17  1  0
 12 18  2  0
  3  4  2  0
  4  5  1  0
  5  6  2  0
  6  7  1  0
  7  8  2  0
  8  3  1  0
M  END

$$$$
No_27-/dssg/home/sw_qyf/PocketFlow/Model-Generation-Results/5HT2A_7WC7_rec_A_10.pdb/2024-01-01-03-54-21/
     RDKit          3D

 35 37  0  0  0  0  0  0  0  0999 V2000
  -24.1553  -17.8465  145.7021 C   0  0  0  0  0  0  0  0  0  0  0  0
  -24.6364  -17.2931  146.7091 C   0  0  0  0  0  0  0  0  0  0  0  0
  -24.0780  -17.2921  147.9389 C   0  0  0  0  0  0  0  0  0  0  0  0
  -24.6761  -16.7363  149.1478 C   0  0  0  0  0  0  0  0  0  0  0  0
  -25.9985  -16.2638  148.9932 C   0  0  0  0  0  0  0  0  0  0  0  0
  -26.6270  -16.3412  147.7728 C   0  0  0  0  0  0  0  0  0  0  0  0
  -27.9899  -15.9394  147.5329 C   0  0  0  0  0  0  0  0  0  0  0  0
  -26.0201  -16.8885  146.6761 C   0  0  0  0  0  0  0  0  0  0  0  0
  -28.4000  -14.5801  147.5558 C   0  0  0  0  0  0  0  0  0  0  0  0
  -27.6097  -13.5931  147.0378 C   0  0  0  0  0  0  0  0  0  0  0  0
  -28.1159  -12.2665  146.8717 C   0  0  0  0  0  0  0  0  0  0  0  0
  -29.4454  -11.9845  147.2860 C   0  0  0  0  0  0  0  0  0  0  0  0
  -29.7833  -14.2001  147.8593 C   0  0  0  0  0  0  0  0  0  0  0  0
  -30.2286  -12.9666  147.8384 C   0  0  0  0  0  0  0  0  0  0  0  0
  -24.0403  -16.9913  144.5593 N   0  0  0  0  0  0  0  0  0  0  0  0
  -23.9868  -19.1222  145.4444 O   0  0  0  0  0  0  0  0  0  0  0  0
  -27.3391  -11.3192  146.4211 F   0  0  0  0  0  0  0  0  0  0  0  0
  -31.4500  -12.6477  148.2315 F   0  0  0  0  0  0  0  0  0  0  0  0
  -24.0238  -15.6093  144.6358 C   0  0  0  0  0  0  0  0  0  0  0  0
  -24.7281  -14.7190  144.3981 C   0  0  0  0  0  0  0  0  0  0  0  0
  -24.3479  -13.2951  144.4569 C   0  0  0  0  0  0  0  0  0  0  0  0
  -23.0023  -13.0140  144.7748 C   0  0  0  0  0  0  0  0  0  0  0  0
  -22.6291  -11.6599  144.9980 C   0  0  0  0  0  0  0  0  0  0  0  0
  -23.6789  -10.8289  144.9638 N   0  0  0  0  0  0  0  0  0  0  0  0
  -25.0259  -11.1414  144.8470 C   0  0  0  0  0  0  0  0  0  0  0  0
  -25.2871  -12.4194  144.6107 N   0  0  0  0  0  0  0  0  0  0  0  0
  -22.7895  -17.6729  148.0872 O   0  0  0  0  0  0  0  0  0  0  0  0
  -28.8768  -16.8420  147.5682 O   0  0  0  0  0  0  0  0  0  0  0  0
  -26.0594  -14.9767  145.0410 O   0  0  0  0  0  0  0  0  0  0  0  0
  -27.1414  -14.9159  144.0917 C   0  0  0  0  0  0  0  0  0  0  0  0
  -21.4888  -11.2976  145.1304 O   0  0  0  0  0  0  0  0  0  0  0  0
  -24.0509  -16.8085  150.4843 C   0  0  0  0  0  0  0  0  0  0  0  0
  -22.7400  -16.8274  150.6123 N   0  0  0  0  0  0  0  0  0  0  0  0
  -24.8257  -17.1461  151.4556 O   0  0  0  0  0  0  0  0  0  0  0  0
  -25.9398  -10.3222  144.9913 N   0  0  0  0  0  0  0  0  0  0  0  0
  1  2  1  0
  6  7  1  0
  7  9  1  0
  1 15  1  0
  1 16  2  0
 11 17  1  0
 14 18  1  0
 15 19  1  0
 19 20  2  3
 20 21  1  0
 22 23  1  0
 23 24  1  0
 21 26  1  0
 25 26  1  0
  3 27  1  0
  7 28  2  0
 20 29  1  0
 29 30  1  0
 23 31  2  0
  4 32  1  0
 32 33  1  0
 32 34  2  0
 25 35  1  0
 22 21  1  0
 25 24  1  0
  2  3  2  0
  3  4  1  0
  4  5  2  0
  5  6  1  0
  6  8  2  0
  8  2  1  0
  9 10  2  0
 10 11  1  0
 11 12  2  0
 12 14  1  0
 14 13  2  0
 13  9  1  0
M  END

$$$$
No_28-/dssg/home/sw_qyf/PocketFlow/Model-Generation-Results/5HT2A_7WC7_rec_A_10.pdb/2024-01-01-03-54-21/
     RDKit          3D

 30 33  0  0  0  0  0  0  0  0999 V2000
  -24.1553  -17.8465  145.7021 C   0  0  0  0  0  0  0  0  0  0  0  0
  -24.2856  -16.6364  145.3494 C   0  0  0  0  0  0  0  0  0  0  0  0
  -24.7837  -15.7223  145.8474 C   0  0  0  0  0  0  0  0  0  0  0  0
  -25.6062  -15.9757  147.0426 C   0  0  0  0  0  0  0  0  0  0  0  0
  -24.8560  -18.2319  146.8941 C   0  0  0  0  0  0  0  0  0  0  0  0
  -25.5370  -17.2345  147.6143 C   0  0  0  0  0  0  0  0  0  0  0  0
  -24.9097  -14.2250  145.6079 C   0  0  0  0  0  0  0  0  0  0  0  0
  -23.6473  -13.5831  145.7850 C   0  0  0  0  0  0  0  0  0  0  0  0
  -25.9994  -13.5956  145.1257 C   0  0  0  0  0  0  0  0  0  0  0  0
  -26.4478  -12.4270  145.6405 C   0  0  0  0  0  0  0  0  0  0  0  0
  -27.6982  -11.7644  145.3686 C   0  0  0  0  0  0  0  0  0  0  0  0
  -28.8236  -12.0386  146.1936 C   0  0  0  0  0  0  0  0  0  0  0  0
  -30.0249  -11.3889  145.8855 C   0  0  0  0  0  0  0  0  0  0  0  0
  -29.9872  -10.3313  144.9257 C   0  0  0  0  0  0  0  0  0  0  0  0
  -28.8645  -10.0676  144.1945 C   0  0  0  0  0  0  0  0  0  0  0  0
  -27.6491  -10.8078  144.4599 C   0  0  0  0  0  0  0  0  0  0  0  0
  -23.4121  -12.3588  145.1813 C   0  0  0  0  0  0  0  0  0  0  0  0
  -28.9221   -9.0449  143.1370 C   0  0  0  0  0  0  0  0  0  0  0  0
  -29.0192   -7.7226  143.4348 C   0  0  0  0  0  0  0  0  0  0  0  0
  -29.2351   -6.7278  142.3854 C   0  0  0  0  0  0  0  0  0  0  0  0
  -29.5152   -5.3811  142.6104 C   0  0  0  0  0  0  0  0  0  0  0  0
  -29.3530   -7.3601  141.1199 C   0  0  0  0  0  0  0  0  0  0  0  0
  -29.2314   -8.7289  140.8978 C   0  0  0  0  0  0  0  0  0  0  0  0
  -29.0105   -9.5146  141.9229 C   0  0  0  0  0  0  0  0  0  0  0  0
  -28.7847  -12.9648  147.1049 F   0  0  0  0  0  0  0  0  0  0  0  0
  -28.9288   -4.5183  141.8040 O   0  0  0  0  0  0  0  0  0  0  0  0
  -23.3612  -16.2517  143.8156 Cl  0  0  0  0  0  0  0  0  0  0  0  0
  -22.1153  -12.0284  145.2345 F   0  0  0  0  0  0  0  0  0  0  0  0
  -24.3374  -11.4660  144.7655 C   0  0  0  0  0  0  0  0  0  0  0  0
  -25.6162  -11.4570  145.3258 C   0  0  0  0  0  0  0  0  0  0  0  0
  3  7  1  0
  7  8  2  0
  7  9  1  0
  9 10  1  0
 10 11  1  0
  8 17  1  0
 15 18  1  0
 20 21  1  0
 12 25  1  0
 21 26  1  0
  2 27  1  0
 17 28  1  0
 17 29  1  0
 10 30  1  0
 29 30  2  0
 11 12  2  0
 12 13  1  0
 13 14  2  0
 14 15  1  0
 15 16  2  0
 16 11  1  0
  1  2  2  0
  2  3  1  0
  3  4  2  0
  4  6  1  0
  6  5  2  0
  5  1  1  0
 18 19  2  0
 19 20  1  0
 20 22  2  0
 22 23  1  0
 23 24  2  0
 24 18  1  0
M  END

$$$$
No_29-/dssg/home/sw_qyf/PocketFlow/Model-Generation-Results/5HT2A_7WC7_rec_A_10.pdb/2024-01-01-03-54-21/
     RDKit          3D

 24 25  0  0  0  0  0  0  0  0999 V2000
  -24.1553  -17.8465  145.7021 C   0  0  0  0  0  0  0  0  0  0  0  0
  -24.6364  -17.2931  146.7091 C   0  0  0  0  0  0  0  0  0  0  0  0
  -25.8608  -16.5592  146.5934 C   0  0  0  0  0  0  0  0  0  0  0  0
  -26.9933  -16.9082  147.1889 C   0  0  0  0  0  0  0  0  0  0  0  0
  -28.2114  -16.1477  146.9896 C   0  0  0  0  0  0  0  0  0  0  0  0
  -28.1869  -14.8900  146.3591 C   0  0  0  0  0  0  0  0  0  0  0  0
  -26.9306  -14.4696  145.8021 C   0  0  0  0  0  0  0  0  0  0  0  0
  -25.7608  -15.2964  145.9443 C   0  0  0  0  0  0  0  0  0  0  0  0
  -26.6951  -13.3009  144.9472 C   0  0  0  0  0  0  0  0  0  0  0  0
  -26.6788  -12.0766  145.6130 C   0  0  0  0  0  0  0  0  0  0  0  0
  -26.8666  -10.8802  145.0701 C   0  0  0  0  0  0  0  0  0  0  0  0
  -27.9508  -10.5736  144.3078 C   0  0  0  0  0  0  0  0  0  0  0  0
  -29.1418  -11.1031  144.5735 C   0  0  0  0  0  0  0  0  0  0  0  0
  -30.0391  -10.1819  145.1172 C   0  0  0  0  0  0  0  0  0  0  0  0
  -30.8240  -10.5327  146.1059 O   0  0  0  0  0  0  0  0  0  0  0  0
  -30.3826   -9.1554  144.4154 O   0  0  0  0  0  0  0  0  0  0  0  0
  -24.0126  -17.4780  148.0570 C   0  0  0  0  0  0  0  0  0  0  0  0
  -24.5674  -17.2370  149.2555 C   0  0  0  0  0  0  0  0  0  0  0  0
  -23.8991  -17.2119  150.4846 C   0  0  0  0  0  0  0  0  0  0  0  0
  -22.4767  -17.2923  150.4420 C   0  0  0  0  0  0  0  0  0  0  0  0
  -21.9121  -17.1742  149.2476 N   0  0  0  0  0  0  0  0  0  0  0  0
  -22.6511  -17.2929  148.1195 C   0  0  0  0  0  0  0  0  0  0  0  0
  -26.6397  -13.3950  143.5896 C   0  0  0  0  0  0  0  0  0  0  0  0
  -27.6132  -13.1462  142.7887 O   0  0  0  0  0  0  0  0  0  0  0  0
  1  2  1  0
  2  3  1  0
  7  9  1  0
  9 10  1  0
 10 11  2  3
 11 12  1  0
 12 13  3  0
 13 14  1  0
 14 15  1  0
 14 16  2  0
  2 17  1  0
  9 23  1  0
 23 24  1  0
 17 18  2  0
 18 19  1  0
 19 20  2  0
 20 21  1  0
 21 22  2  0
 22 17  1  0
  3  4  2  0
  4  5  1  0
  5  6  2  0
  6  7  1  0
  7  8  2  0
  8  3  1  0
M  END

$$$$
No_30-/dssg/home/sw_qyf/PocketFlow/Model-Generation-Results/5HT2A_7WC7_rec_A_10.pdb/2024-01-01-03-54-21/
     RDKit          3D

 30 32  0  0  0  0  0  0  0  0999 V2000
  -24.1553  -17.8465  145.7021 C   0  0  0  0  0  0  0  0  0  0  0  0
  -23.9795  -18.4462  146.7426 C   0  0  0  0  0  0  0  0  0  0  0  0
  -24.2723  -16.4220  145.8037 C   0  0  0  0  0  0  0  0  0  0  0  0
  -24.0151  -15.5895  144.6874 C   0  0  0  0  0  0  0  0  0  0  0  0
  -24.7969  -14.3928  144.4905 C   0  0  0  0  0  0  0  0  0  0  0  0
  -26.1516  -14.5745  144.2520 C   0  0  0  0  0  0  0  0  0  0  0  0
  -26.7974  -13.4251  143.6081 C   0  0  0  0  0  0  0  0  0  0  0  0
  -27.4211  -12.4715  144.4226 C   0  0  0  0  0  0  0  0  0  0  0  0
  -28.0238  -11.3144  143.8198 C   0  0  0  0  0  0  0  0  0  0  0  0
  -29.2900  -10.9844  144.0871 C   0  0  0  0  0  0  0  0  0  0  0  0
  -29.5655   -9.5428  144.3239 C   0  0  0  0  0  0  0  0  0  0  0  0
  -30.3566   -9.0431  143.1830 C   0  0  0  0  0  0  0  0  0  0  0  0
  -30.1792   -7.6974  142.9361 C   0  0  0  0  0  0  0  0  0  0  0  0
  -23.8491  -17.5555  147.9733 C   0  0  0  0  0  0  0  0  0  0  0  0
  -24.2157  -16.4553  147.9919 C   0  0  0  0  0  0  0  0  0  0  0  0
  -24.3427  -15.6609  146.9785 C   0  0  0  0  0  0  0  0  0  0  0  0
  -29.9095   -7.2062  141.6273 C   0  0  0  0  0  0  0  0  0  0  0  0
  -30.1232   -8.1456  140.5179 C   0  0  0  0  0  0  0  0  0  0  0  0
  -29.4694   -7.6173  139.3484 C   0  0  0  0  0  0  0  0  0  0  0  0
  -29.1014   -8.5910  138.3750 C   0  0  0  0  0  0  0  0  0  0  0  0
  -28.2673   -9.5949  138.8388 C   0  0  0  0  0  0  0  0  0  0  0  0
  -27.7570  -10.6506  138.1147 C   0  0  0  0  0  0  0  0  0  0  0  0
  -27.1087  -11.7215  138.8539 C   0  0  0  0  0  0  0  0  0  0  0  0
  -27.8205  -12.5345  139.5746 C   0  0  0  0  0  0  0  0  0  0  0  0
  -27.1781  -13.0292  140.9273 C   0  0  0  0  0  0  0  0  0  0  0  0
  -26.8775  -13.4433  142.1634 C   0  0  0  0  0  0  0  0  0  0  0  0
  -24.5827  -14.3505  146.9418 N   0  0  0  0  0  0  0  0  0  0  0  0
  -24.4953  -13.3785  145.7469 C   0  0  0  0  0  0  0  0  0  0  0  0
  -24.0500  -12.1817  145.7511 C   0  0  0  0  0  0  0  0  0  0  0  0
  -31.8134   -9.2634  143.3865 O   0  0  0  0  0  0  0  0  0  0  0  0
  3  4  1  0
  4  5  1  0
  5  6  1  0
  6  7  1  0
  7  8  1  0
  8  9  2  3
  9 10  1  0
 10 11  1  0
 11 12  1  0
 12 13  2  3
 13 17  1  0
 17 18  2  3
 18 19  1  0
 19 20  1  0
 20 21  2  3
 21 22  1  0
 22 23  2  3
 23 24  1  0
 24 25  2  3
  7 26  1  0
 25 26  1  0
 16 27  1  0
  5 28  1  0
 27 28  1  0
 28 29  1  0
 12 30  1  0
  1  2  2  0
  2 14  1  0
 14 15  2  0
 15 16  1  0
 16  3  2  0
  3  1  1  0
M  END

$$$$
No_31-/dssg/home/sw_qyf/PocketFlow/Model-Generation-Results/5HT2A_7WC7_rec_A_10.pdb/2024-01-01-03-54-21/
     RDKit          3D

 35 37  0  0  0  0  0  0  0  0999 V2000
  -23.8931  -18.2534  145.3804 F   0  0  0  0  0  0  0  0  0  0  0  0
  -24.1483  -17.4442  146.3400 C   0  0  0  0  0  0  0  0  0  0  0  0
  -24.4181  -16.0969  145.9075 C   0  0  0  0  0  0  0  0  0  0  0  0
  -25.0570  -15.1238  146.6692 C   0  0  0  0  0  0  0  0  0  0  0  0
  -25.2787  -13.8343  146.1875 C   0  0  0  0  0  0  0  0  0  0  0  0
  -24.7403  -13.4315  144.9917 C   0  0  0  0  0  0  0  0  0  0  0  0
  -24.0607  -14.4456  144.2274 C   0  0  0  0  0  0  0  0  0  0  0  0
  -23.8645  -15.7179  144.6470 C   0  0  0  0  0  0  0  0  0  0  0  0
  -25.3071  -17.8792  147.0532 F   0  0  0  0  0  0  0  0  0  0  0  0
  -23.0779  -17.4954  147.2010 F   0  0  0  0  0  0  0  0  0  0  0  0
  -24.8885  -12.1992  144.5840 O   0  0  0  0  0  0  0  0  0  0  0  0
  -25.4129  -11.2184  145.5771 C   0  0  0  0  0  0  0  0  0  0  0  0
  -26.9559  -11.2010  145.5678 C   0  0  0  0  0  0  0  0  0  0  0  0
  -27.5581  -10.4702  144.4512 C   0  0  0  0  0  0  0  0  0  0  0  0
  -28.9819  -10.4631  144.4153 C   0  0  0  0  0  0  0  0  0  0  0  0
  -29.6584  -11.0115  145.5947 C   0  0  0  0  0  0  0  0  0  0  0  0
  -29.0534  -11.7501  146.5964 C   0  0  0  0  0  0  0  0  0  0  0  0
  -27.6342  -11.8008  146.6094 C   0  0  0  0  0  0  0  0  0  0  0  0
  -29.6940   -9.7536  143.4324 C   0  0  0  0  0  0  0  0  0  0  0  0
  -30.5456   -8.7394  143.7272 C   0  0  0  0  0  0  0  0  0  0  0  0
  -31.3103   -8.0439  142.7517 C   0  0  0  0  0  0  0  0  0  0  0  0
  -29.5317  -10.1288  142.0663 C   0  0  0  0  0  0  0  0  0  0  0  0
  -31.1308   -8.4588  141.3902 C   0  0  0  0  0  0  0  0  0  0  0  0
  -28.6540  -11.1188  141.5918 C   0  0  0  0  0  0  0  0  0  0  0  0
  -30.1747   -9.3380  141.1169 C   0  0  0  0  0  0  0  0  0  0  0  0
  -28.2663  -11.3048  140.2677 C   0  0  0  0  0  0  0  0  0  0  0  0
  -27.4467  -12.4402  139.9291 C   0  0  0  0  0  0  0  0  0  0  0  0
  -26.8327  -12.3220  138.6403 C   0  0  0  0  0  0  0  0  0  0  0  0
  -29.8276  -12.3946  147.6871 C   0  0  0  0  0  0  0  0  0  0  0  0
  -29.6424  -13.5686  147.9530 O   0  0  0  0  0  0  0  0  0  0  0  0
  -30.5049  -14.4660  148.4311 C   0  0  0  0  0  0  0  0  0  0  0  0
  -27.5865  -11.7122  137.7622 N   0  0  0  0  0  0  0  0  0  0  0  0
  -25.4556  -12.2669  138.5925 N   0  0  0  0  0  0  0  0  0  0  0  0
  -29.9104  -15.8072  148.5130 C   0  0  0  0  0  0  0  0  0  0  0  0
  -28.7661  -16.0631  147.7645 C   0  0  0  0  0  0  0  0  0  0  0  0
  1  2  1  0
  2  3  1  0
  2  9  1  0
  2 10  1  0
  6 11  1  0
 11 12  1  0
 12 13  1  0
 15 19  1  0
 22 24  1  0
 24 26  2  3
 26 27  1  0
 27 28  1  0
 17 29  1  0
 29 30  1  0
 30 31  1  0
 28 32  1  0
 28 33  2  0
 31 34  1  0
 34 35  2  0
 13 14  2  0
 14 15  1  0
 15 16  2  0
 16 17  1  0
 17 18  2  0
 18 13  1  0
  3  4  2  0
  4  5  1  0
  5  6  2  0
  6  7  1  0
  7  8  2  0
  8  3  1  0
 19 20  2  0
 20 21  1  0
 21 23  2  0
 23 25  1  0
 25 22  2  0
 22 19  1  0
M  END

$$$$
No_32-/dssg/home/sw_qyf/PocketFlow/Model-Generation-Results/5HT2A_7WC7_rec_A_10.pdb/2024-01-01-03-54-21/
     RDKit          3D

 30 30  0  0  0  0  0  0  0  0999 V2000
  -23.1746  -16.6014  144.8668 C   0  0  0  0  0  0  0  0  0  0  0  0
  -23.8963  -15.5346  144.7885 C   0  0  0  0  0  0  0  0  0  0  0  0
  -23.6398  -14.5115  145.3282 C   0  0  0  0  0  0  0  0  0  0  0  0
  -24.3867  -13.2477  145.3907 C   0  0  0  0  0  0  0  0  0  0  0  0
  -23.7392  -12.0982  145.9892 C   0  0  0  0  0  0  0  0  0  0  0  0
  -25.7153  -13.1103  144.9365 C   0  0  0  0  0  0  0  0  0  0  0  0
  -26.7491  -13.0470  146.0471 C   0  0  0  0  0  0  0  0  0  0  0  0
  -27.7095  -12.0284  145.9335 C   0  0  0  0  0  0  0  0  0  0  0  0
  -27.7028  -11.0502  144.9785 C   0  0  0  0  0  0  0  0  0  0  0  0
  -28.5057  -11.1363  143.9809 C   0  0  0  0  0  0  0  0  0  0  0  0
  -28.5585  -10.2592  142.7874 C   0  0  0  0  0  0  0  0  0  0  0  0
  -28.3192  -10.6316  141.5591 C   0  0  0  0  0  0  0  0  0  0  0  0
  -28.3517   -9.6699  140.4982 C   0  0  0  0  0  0  0  0  0  0  0  0
  -27.6922   -9.8991  139.2325 C   0  0  0  0  0  0  0  0  0  0  0  0
  -27.2623  -11.2148  139.0008 C   0  0  0  0  0  0  0  0  0  0  0  0
  -27.3917  -12.2452  140.0386 C   0  0  0  0  0  0  0  0  0  0  0  0
  -27.8723  -11.9091  141.2848 C   0  0  0  0  0  0  0  0  0  0  0  0
  -23.6357  -17.6861  145.5068 C   0  0  0  0  0  0  0  0  0  0  0  0
  -24.6101  -17.4022  146.5662 C   0  0  0  0  0  0  0  0  0  0  0  0
  -25.9593  -17.2685  146.4274 C   0  0  0  0  0  0  0  0  0  0  0  0
  -26.6680  -16.0286  146.7186 C   0  0  0  0  0  0  0  0  0  0  0  0
  -28.0461  -15.8683  146.2477 C   0  0  0  0  0  0  0  0  0  0  0  0
  -28.9963   -8.9126  143.2005 C   0  0  0  0  0  0  0  0  0  0  0  0
  -30.3596   -8.5140  142.9525 C   0  0  0  0  0  0  0  0  0  0  0  0
  -30.7325   -7.1748  142.8608 C   0  0  0  0  0  0  0  0  0  0  0  0
  -31.4394   -9.4855  142.8014 C   0  0  0  0  0  0  0  0  0  0  0  0
  -28.9935  -15.5940  147.4205 C   0  0  0  0  0  0  0  0  0  0  0  0
  -28.6998  -15.9866  148.7036 C   0  0  0  0  0  0  0  0  0  0  0  0
  -28.7042  -11.9742  146.8835 O   0  0  0  0  0  0  0  0  0  0  0  0
  -29.8645  -16.2985  149.4836 C   0  0  0  0  0  0  0  0  0  0  0  0
  1  2  1  0
  2  3  2  3
  3  4  1  0
  4  5  1  0
  4  6  1  0
  6  7  1  0
  7  8  1  0
  8  9  2  3
  9 10  1  0
 10 11  2  3
 11 12  1  0
  1 18  1  0
 18 19  1  0
 19 20  1  0
 20 21  1  0
 21 22  1  0
 11 23  1  0
 23 24  1  0
 24 25  1  0
 24 26  1  0
 22 27  1  0
 27 28  1  0
  8 29  1  0
 28 30  2  0
 12 13  2  0
 13 14  1  0
 14 15  2  0
 15 16  1  0
 16 17  2  0
 17 12  1  0
M  END

$$$$
No_33-/dssg/home/sw_qyf/PocketFlow/Model-Generation-Results/5HT2A_7WC7_rec_A_10.pdb/2024-01-01-03-54-21/
     RDKit          3D

 35 37  0  0  0  0  0  0  0  0999 V2000
  -24.1553  -17.8465  145.7021 C   0  0  0  0  0  0  0  0  0  0  0  0
  -24.2856  -16.6364  145.3494 C   0  0  0  0  0  0  0  0  0  0  0  0
  -24.7837  -15.7223  145.8474 C   0  0  0  0  0  0  0  0  0  0  0  0
  -25.6062  -15.9757  147.0426 C   0  0  0  0  0  0  0  0  0  0  0  0
  -24.8437  -18.2127  146.8988 C   0  0  0  0  0  0  0  0  0  0  0  0
  -25.5337  -17.2397  147.5874 C   0  0  0  0  0  0  0  0  0  0  0  0
  -24.9566  -14.2288  145.5862 C   0  0  0  0  0  0  0  0  0  0  0  0
  -23.8636  -13.5190  145.7469 C   0  0  0  0  0  0  0  0  0  0  0  0
  -23.7556  -12.0814  145.4117 C   0  0  0  0  0  0  0  0  0  0  0  0
  -26.0384  -13.7003  144.9966 C   0  0  0  0  0  0  0  0  0  0  0  0
  -26.6573  -14.1187  144.0040 C   0  0  0  0  0  0  0  0  0  0  0  0
  -25.0523  -11.4776  145.1783 C   0  0  0  0  0  0  0  0  0  0  0  0
  -26.0809  -12.2480  144.6919 C   0  0  0  0  0  0  0  0  0  0  0  0
  -27.2553  -11.6508  144.1778 C   0  0  0  0  0  0  0  0  0  0  0  0
  -28.1061  -11.0612  145.1394 C   0  0  0  0  0  0  0  0  0  0  0  0
  -29.4280  -10.5842  144.7143 C   0  0  0  0  0  0  0  0  0  0  0  0
  -29.6804  -10.2838  143.3986 C   0  0  0  0  0  0  0  0  0  0  0  0
  -28.7468  -10.7965  142.4528 C   0  0  0  0  0  0  0  0  0  0  0  0
  -27.7072  -11.4119  142.8521 C   0  0  0  0  0  0  0  0  0  0  0  0
  -30.9067   -9.6310  142.9867 C   0  0  0  0  0  0  0  0  0  0  0  0
  -30.9757   -8.4059  143.4327 O   0  0  0  0  0  0  0  0  0  0  0  0
  -29.0860  -10.6066  141.0489 C   0  0  0  0  0  0  0  0  0  0  0  0
  -28.0027   -9.9502  140.2782 C   0  0  0  0  0  0  0  0  0  0  0  0
  -28.3086   -8.9399  139.3696 C   0  0  0  0  0  0  0  0  0  0  0  0
  -29.1636   -7.8849  139.7189 C   0  0  0  0  0  0  0  0  0  0  0  0
  -30.0925   -8.1092  140.6614 C   0  0  0  0  0  0  0  0  0  0  0  0
  -23.4786  -16.3311  143.9941 C   0  0  0  0  0  0  0  0  0  0  0  0
  -31.4830   -9.9420  142.0466 O   0  0  0  0  0  0  0  0  0  0  0  0
  -26.7332  -10.5942  140.1663 C   0  0  0  0  0  0  0  0  0  0  0  0
  -26.8558  -11.7262  139.4670 O   0  0  0  0  0  0  0  0  0  0  0  0
  -27.9904  -12.3667  139.1554 C   0  0  0  0  0  0  0  0  0  0  0  0
  -30.2259  -10.1124  145.7054 O   0  0  0  0  0  0  0  0  0  0  0  0
  -28.0656   -8.9506  137.9883 C   0  0  0  0  0  0  0  0  0  0  0  0
  -28.3162   -7.7918  137.1753 C   0  0  0  0  0  0  0  0  0  0  0  0
  -23.4015  -15.1792  143.7107 O   0  0  0  0  0  0  0  0  0  0  0  0
  3  7  1  0
 13 14  1  0
 17 20  1  0
 20 21  1  0
 18 22  1  0
 22 23  1  0
 23 24  1  0
 24 25  1  0
 25 26  1  0
  2 27  1  0
 20 28  2  0
 23 29  1  0
 29 30  1  0
 30 31  1  0
 16 32  1  0
 24 33  1  0
 33 34  1  0
 27 35  1  0
 11 10  1  0
  7  8  2  0
  8  9  1  0
  9 12  2  0
 12 13  1  0
 13 10  2  0
 10  7  1  0
  1  2  2  0
  2  3  1  0
  3  4  2  0
  4  6  1  0
  6  5  2  0
  5  1  1  0
 14 15  2  0
 15 16  1  0
 16 17  2  0
 17 18  1  0
 18 19  2  0
 19 14  1  0
M  END

$$$$
No_34-/dssg/home/sw_qyf/PocketFlow/Model-Generation-Results/5HT2A_7WC7_rec_A_10.pdb/2024-01-01-03-54-21/
     RDKit          3D

 15 17  0  0  0  0  0  0  0  0999 V2000
  -23.1746  -16.6014  144.8668 C   0  0  0  0  0  0  0  0  0  0  0  0
  -23.7011  -17.0158  145.9774 C   0  0  0  0  0  0  0  0  0  0  0  0
  -24.2134  -16.0722  146.8877 C   0  0  0  0  0  0  0  0  0  0  0  0
  -25.2064  -15.3422  146.4171 C   0  0  0  0  0  0  0  0  0  0  0  0
  -25.4255  -14.3488  146.5050 C   0  0  0  0  0  0  0  0  0  0  0  0
  -26.4240  -13.5726  145.8025 C   0  0  0  0  0  0  0  0  0  0  0  0
  -27.0181  -14.1908  144.8130 C   0  0  0  0  0  0  0  0  0  0  0  0
  -23.9616  -15.6095  144.1952 N   0  0  0  0  0  0  0  0  0  0  0  0
  -24.7689  -14.7816  145.0455 C   0  0  0  0  0  0  0  0  0  0  0  0
  -25.2110  -13.7329  144.3355 C   0  0  0  0  0  0  0  0  0  0  0  0
  -25.7967  -12.2845  145.1853 C   0  0  0  0  0  0  0  0  0  0  0  0
  -26.8781  -11.2194  143.9548 Br  0  0  0  0  0  0  0  0  0  0  0  0
  -23.2012  -18.3518  146.5473 C   0  0  0  0  0  0  0  0  0  0  0  0
  -23.1099  -18.5208  147.7514 O   0  0  0  0  0  0  0  0  0  0  0  0
  -23.1084  -19.3234  145.7499 O   0  0  0  0  0  0  0  0  0  0  0  0
  1  2  1  0
  2  3  1  0
  3  4  1  0
  4  5  2  0
  5  6  1  0
  6  7  2  0
  1  8  1  0
  4  9  1  0
  8  9  1  0
  7 10  1  0
  9 10  1  0
  6 11  1  0
 10 11  1  0
 11 12  1  0
  2 13  1  0
 13 14  2  0
 13 15  1  0
M  END

$$$$
No_35-/dssg/home/sw_qyf/PocketFlow/Model-Generation-Results/5HT2A_7WC7_rec_A_10.pdb/2024-01-01-03-54-21/
     RDKit          3D

 19 20  0  0  0  0  0  0  0  0999 V2000
  -24.1553  -17.8465  145.7021 C   0  0  0  0  0  0  0  0  0  0  0  0
  -23.9795  -18.4462  146.7426 C   0  0  0  0  0  0  0  0  0  0  0  0
  -25.1593  -16.8262  145.6925 C   0  0  0  0  0  0  0  0  0  0  0  0
  -24.9465  -15.5961  144.9952 C   0  0  0  0  0  0  0  0  0  0  0  0
  -24.7630  -14.4365  145.6428 C   0  0  0  0  0  0  0  0  0  0  0  0
  -24.0153  -13.3183  145.1471 C   0  0  0  0  0  0  0  0  0  0  0  0
  -23.1135  -13.6074  144.0658 C   0  0  0  0  0  0  0  0  0  0  0  0
  -24.6584  -18.1981  147.9521 C   0  0  0  0  0  0  0  0  0  0  0  0
  -25.5579  -17.1258  148.0390 C   0  0  0  0  0  0  0  0  0  0  0  0
  -25.7930  -16.3684  146.9087 C   0  0  0  0  0  0  0  0  0  0  0  0
  -27.1347  -16.0934  146.5995 C   0  0  0  0  0  0  0  0  0  0  0  0
  -27.7345  -14.8630  146.6674 C   0  0  0  0  0  0  0  0  0  0  0  0
  -29.0696  -14.6543  147.0654 C   0  0  0  0  0  0  0  0  0  0  0  0
  -29.6670  -13.4549  147.3301 C   0  0  0  0  0  0  0  0  0  0  0  0
  -28.9450  -12.2405  147.0656 C   0  0  0  0  0  0  0  0  0  0  0  0
  -27.5965  -12.3670  146.6181 C   0  0  0  0  0  0  0  0  0  0  0  0
  -27.0243  -13.5898  146.4425 C   0  0  0  0  0  0  0  0  0  0  0  0
  -26.2551  -16.8529  149.3465 C   0  0  0  0  0  0  0  0  0  0  0  0
  -30.9744  -13.2952  147.7364 O   0  0  0  0  0  0  0  0  0  0  0  0
  1  2  1  0
  1  3  1  0
  3  4  1  0
  4  5  2  3
  5  6  1  0
  6  7  2  0
  2  8  1  0
  8  9  1  0
  3 10  1  0
  9 10  1  0
 10 11  1  0
 11 12  1  0
  9 18  1  0
 14 19  1  0
 12 13  2  0
 13 14  1  0
 14 15  2  0
 15 16  1  0
 16 17  2  0
 17 12  1  0
M  END

$$$$
No_36-/dssg/home/sw_qyf/PocketFlow/Model-Generation-Results/5HT2A_7WC7_rec_A_10.pdb/2024-01-01-03-54-21/
     RDKit          3D

 11 11  0  0  0  0  0  0  0  0999 V2000
  -23.1746  -16.6014  144.8668 C   0  0  0  0  0  0  0  0  0  0  0  0
  -23.8963  -15.5346  144.7885 C   0  0  0  0  0  0  0  0  0  0  0  0
  -24.5755  -15.0383  145.9043 C   0  0  0  0  0  0  0  0  0  0  0  0
  -25.0618  -13.6819  146.0347 C   0  0  0  0  0  0  0  0  0  0  0  0
  -25.4099  -13.0255  144.9749 C   0  0  0  0  0  0  0  0  0  0  0  0
  -25.2396  -13.6946  143.7675 C   0  0  0  0  0  0  0  0  0  0  0  0
  -24.5079  -14.9162  143.6723 C   0  0  0  0  0  0  0  0  0  0  0  0
  -26.0172  -11.7372  145.0288 C   0  0  0  0  0  0  0  0  0  0  0  0
  -25.4964  -11.1217  145.7879 F   0  0  0  0  0  0  0  0  0  0  0  0
  -27.3496  -11.9338  145.3526 F   0  0  0  0  0  0  0  0  0  0  0  0
  -26.0830  -11.0098  143.9205 F   0  0  0  0  0  0  0  0  0  0  0  0
  1  2  1  0
  5  8  1  0
  8  9  1  0
  8 10  1  0
  8 11  1  0
  2  3  2  0
  3  4  1  0
  4  5  2  0
  5  6  1  0
  6  7  2  0
  7  2  1  0
M  END

$$$$
No_37-/dssg/home/sw_qyf/PocketFlow/Model-Generation-Results/5HT2A_7WC7_rec_A_10.pdb/2024-01-01-03-54-21/
     RDKit          3D

 22 24  0  0  0  0  0  0  0  0999 V2000
  -24.1553  -17.8465  145.7021 C   0  0  0  0  0  0  0  0  0  0  0  0
  -24.6364  -17.2931  146.7091 C   0  0  0  0  0  0  0  0  0  0  0  0
  -25.8608  -16.5592  146.5934 C   0  0  0  0  0  0  0  0  0  0  0  0
  -25.9533  -15.5604  145.6681 C   0  0  0  0  0  0  0  0  0  0  0  0
  -24.9254  -15.5665  144.6652 C   0  0  0  0  0  0  0  0  0  0  0  0
  -23.9892  -16.6610  144.6462 C   0  0  0  0  0  0  0  0  0  0  0  0
  -26.9169  -14.5096  145.6510 C   0  0  0  0  0  0  0  0  0  0  0  0
  -27.9544  -14.4477  146.5518 C   0  0  0  0  0  0  0  0  0  0  0  0
  -28.7602  -13.3554  146.6773 C   0  0  0  0  0  0  0  0  0  0  0  0
  -28.5729  -12.2295  145.7813 C   0  0  0  0  0  0  0  0  0  0  0  0
  -29.4420  -11.0840  145.8020 C   0  0  0  0  0  0  0  0  0  0  0  0
  -27.4533  -12.1793  144.9354 C   0  0  0  0  0  0  0  0  0  0  0  0
  -26.6489  -13.3414  144.8225 C   0  0  0  0  0  0  0  0  0  0  0  0
  -29.4565  -10.1503  144.8737 N   0  0  0  0  0  0  0  0  0  0  0  0
  -28.5742  -10.1367  143.9593 C   0  0  0  0  0  0  0  0  0  0  0  0
  -28.6128   -9.1843  142.9195 C   0  0  0  0  0  0  0  0  0  0  0  0
  -27.4536  -11.1607  143.9237 C   0  0  0  0  0  0  0  0  0  0  0  0
  -29.7242   -8.8813  142.2886 C   0  0  0  0  0  0  0  0  0  0  0  0
  -29.7935   -7.8868  141.2954 C   0  0  0  0  0  0  0  0  0  0  0  0
  -29.4095   -8.1569  139.9420 C   0  0  0  0  0  0  0  0  0  0  0  0
  -28.4941   -7.7679  139.2789 C   0  0  0  0  0  0  0  0  0  0  0  0
  -28.3035   -8.1920  137.8721 C   0  0  0  0  0  0  0  0  0  0  0  0
  4  7  1  0
 16 18  1  0
 18 19  1  0
 19 20  2  3
 20 21  1  0
 21 22  2  0
 16 15  1  0
  1  2  2  0
  2  3  1  0
  3  4  2  0
  4  5  1  0
  5  6  2  0
  6  1  1  0
  7  8  2  0
  8  9  1  0
  9 10  2  0
 12 13  2  0
 13  7  1  0
 10 11  1  0
 11 14  2  0
 14 15  1  0
 15 17  2  0
 17 12  1  0
 12 10  1  0
M  END

$$$$
No_38-/dssg/home/sw_qyf/PocketFlow/Model-Generation-Results/5HT2A_7WC7_rec_A_10.pdb/2024-01-01-03-54-21/
     RDKit          3D

 35 38  0  0  0  0  0  0  0  0999 V2000
  -24.1553  -17.8465  145.7021 C   0  0  0  0  0  0  0  0  0  0  0  0
  -24.6364  -17.2931  146.7091 C   0  0  0  0  0  0  0  0  0  0  0  0
  -24.5709  -15.9334  146.8074 C   0  0  0  0  0  0  0  0  0  0  0  0
  -24.3883  -15.1807  145.6115 C   0  0  0  0  0  0  0  0  0  0  0  0
  -23.6710  -15.8133  144.5990 C   0  0  0  0  0  0  0  0  0  0  0  0
  -23.8165  -17.1787  144.6008 N   0  0  0  0  0  0  0  0  0  0  0  0
  -23.9891  -19.3375  145.6143 C   0  0  0  0  0  0  0  0  0  0  0  0
  -24.6100  -13.7159  145.6140 C   0  0  0  0  0  0  0  0  0  0  0  0
  -25.7016  -13.2321  145.0405 C   0  0  0  0  0  0  0  0  0  0  0  0
  -26.3802  -13.7207  144.0155 C   0  0  0  0  0  0  0  0  0  0  0  0
  -26.7792  -12.8174  142.9887 C   0  0  0  0  0  0  0  0  0  0  0  0
  -27.4351  -11.6443  143.3885 C   0  0  0  0  0  0  0  0  0  0  0  0
  -28.1899  -10.8099  142.5488 C   0  0  0  0  0  0  0  0  0  0  0  0
  -29.0424   -9.7846  142.9554 C   0  0  0  0  0  0  0  0  0  0  0  0
  -29.5894   -8.8346  142.1737 C   0  0  0  0  0  0  0  0  0  0  0  0
  -30.6224   -7.8825  142.5592 C   0  0  0  0  0  0  0  0  0  0  0  0
  -31.5028   -8.4250  143.6095 C   0  0  0  0  0  0  0  0  0  0  0  0
  -30.8497   -9.2758  144.5858 C   0  0  0  0  0  0  0  0  0  0  0  0
  -29.7939  -10.1783  144.1842 C   0  0  0  0  0  0  0  0  0  0  0  0
  -29.3491   -8.9146  140.7491 C   0  0  0  0  0  0  0  0  0  0  0  0
  -29.6483   -7.8068  139.8880 C   0  0  0  0  0  0  0  0  0  0  0  0
  -28.4015   -9.8126  140.1937 C   0  0  0  0  0  0  0  0  0  0  0  0
  -27.7446  -10.7462  141.1461 C   0  0  0  0  0  0  0  0  0  0  0  0
  -30.3660   -6.9173  140.4297 F   0  0  0  0  0  0  0  0  0  0  0  0
  -29.2042   -7.8486  138.6159 C   0  0  0  0  0  0  0  0  0  0  0  0
  -28.2176   -7.9139  137.9866 C   0  0  0  0  0  0  0  0  0  0  0  0
  -26.6604  -12.5809  146.0648 C   0  0  0  0  0  0  0  0  0  0  0  0
  -28.1377   -7.6773  136.7153 N   0  0  0  0  0  0  0  0  0  0  0  0
  -27.0663  -11.1887  145.7871 C   0  0  0  0  0  0  0  0  0  0  0  0
  -26.9938  -10.8660  144.4484 C   0  0  0  0  0  0  0  0  0  0  0  0
  -23.5050  -12.8148  146.0090 C   0  0  0  0  0  0  0  0  0  0  0  0
  -22.7068  -12.3036  144.9572 C   0  0  0  0  0  0  0  0  0  0  0  0
  -22.1920  -11.1001  145.0997 O   0  0  0  0  0  0  0  0  0  0  0  0
  -22.4188  -13.0939  144.0324 O   0  0  0  0  0  0  0  0  0  0  0  0
  -24.9469  -18.0530  147.9817 C   0  0  0  0  0  0  0  0  0  0  0  0
  1  2  1  0
  2  3  1  0
  3  4  1  0
  4  5  1  0
  1  6  1  0
  5  6  1  0
  1  7  1  0
  4  8  1  0
  8  9  1  0
  9 10  1  0
 10 11  1  0
 11 12  1  0
 12 13  1  0
 20 21  1  0
 21 24  1  0
 21 25  1  0
 25 26  2  3
  9 27  1  0
 26 28  1  0
 27 29  1  0
 12 30  1  0
 29 30  2  0
  8 31  1  0
 31 32  1  0
 32 33  1  0
 32 34  2  0
  2 35  1  0
 13 14  1  0
 15 20  1  0
 20 22  2  0
 22 23  1  0
 23 13  2  0
 14 15  1  0
 15 16  2  0
 16 17  1  0
 17 18  2  0
 18 19  1  0
 19 14  2  0
M  END

$$$$
No_39-/dssg/home/sw_qyf/PocketFlow/Model-Generation-Results/5HT2A_7WC7_rec_A_10.pdb/2024-01-01-03-54-21/
     RDKit          3D

 35 37  0  0  0  0  0  0  0  0999 V2000
  -24.1553  -17.8465  145.7021 C   0  0  0  0  0  0  0  0  0  0  0  0
  -24.2856  -16.6364  145.3494 C   0  0  0  0  0  0  0  0  0  0  0  0
  -25.0033  -15.6772  146.0737 C   0  0  0  0  0  0  0  0  0  0  0  0
  -25.6964  -16.1810  147.2049 C   0  0  0  0  0  0  0  0  0  0  0  0
  -24.8143  -18.3454  146.8324 C   0  0  0  0  0  0  0  0  0  0  0  0
  -25.5292  -17.4614  147.6373 C   0  0  0  0  0  0  0  0  0  0  0  0
  -23.4900  -15.9703  143.9272 Cl  0  0  0  0  0  0  0  0  0  0  0  0
  -25.1910  -14.2305  145.6849 C   0  0  0  0  0  0  0  0  0  0  0  0
  -25.2391  -13.6847  144.5541 C   0  0  0  0  0  0  0  0  0  0  0  0
  -25.4319  -12.3374  144.3553 C   0  0  0  0  0  0  0  0  0  0  0  0
  -25.7176  -11.5699  145.5587 C   0  0  0  0  0  0  0  0  0  0  0  0
  -25.6939  -12.1264  146.8526 C   0  0  0  0  0  0  0  0  0  0  0  0
  -25.4637  -13.4729  146.9566 C   0  0  0  0  0  0  0  0  0  0  0  0
  -25.9487  -10.1999  145.4040 O   0  0  0  0  0  0  0  0  0  0  0  0
  -27.0427   -9.8662  144.5255 C   0  0  0  0  0  0  0  0  0  0  0  0
  -28.2418  -10.4911  144.8306 C   0  0  0  0  0  0  0  0  0  0  0  0
  -29.3803   -9.9723  144.1564 C   0  0  0  0  0  0  0  0  0  0  0  0
  -29.3571   -8.9533  143.2928 C   0  0  0  0  0  0  0  0  0  0  0  0
  -30.4685   -8.5896  142.5464 C   0  0  0  0  0  0  0  0  0  0  0  0
  -30.3674   -7.6667  141.5645 N   0  0  0  0  0  0  0  0  0  0  0  0
  -31.6948   -8.9059  142.8697 O   0  0  0  0  0  0  0  0  0  0  0  0
  -29.1266   -7.6053  140.9037 C   0  0  0  0  0  0  0  0  0  0  0  0
  -28.8662   -8.8531  140.1203 C   0  0  0  0  0  0  0  0  0  0  0  0
  -28.1594   -8.7255  138.9365 C   0  0  0  0  0  0  0  0  0  0  0  0
  -27.8778   -9.8674  138.2726 C   0  0  0  0  0  0  0  0  0  0  0  0
  -27.7419  -11.1287  138.9335 C   0  0  0  0  0  0  0  0  0  0  0  0
  -28.2197  -11.2096  140.3216 C   0  0  0  0  0  0  0  0  0  0  0  0
  -28.7281  -10.0451  140.9418 C   0  0  0  0  0  0  0  0  0  0  0  0
  -27.3303  -12.2230  138.3412 O   0  0  0  0  0  0  0  0  0  0  0  0
  -28.2681   -7.5327  138.1731 C   0  0  0  0  0  0  0  0  0  0  0  0
  -28.1838  -12.3880  140.9492 O   0  0  0  0  0  0  0  0  0  0  0  0
  -26.9236  -12.9279  141.3489 C   0  0  0  0  0  0  0  0  0  0  0  0
  -26.6003  -14.1038  140.4671 C   0  0  0  0  0  0  0  0  0  0  0  0
  -26.7933  -12.2040  137.1784 C   0  0  0  0  0  0  0  0  0  0  0  0
  -26.3541  -12.0809  141.6673 F   0  0  0  0  0  0  0  0  0  0  0  0
  2  7  1  0
  3  8  1  0
 11 14  1  0
 14 15  1  0
 15 16  1  0
 16 17  2  3
 17 18  1  0
 18 19  1  0
 19 20  1  0
 19 21  2  0
 20 22  1  0
 22 23  1  0
 26 29  1  0
 24 30  1  0
 27 31  1  0
 31 32  1  0
 32 33  1  0
 29 34  1  0
 32 35  1  0
 23 24  2  0
 24 25  1  0
 25 26  2  0
 26 27  1  0
 27 28  2  0
 28 23  1  0
  1  2  2  0
  2  3  1  0
  3  4  2  0
  4  6  1  0
  6  5  2  0
  5  1  1  0
  8  9  2  0
  9 10  1  0
 10 11  2  0
 11 12  1  0
 12 13  2  0
 13  8  1  0
M  END

$$$$
No_40-/dssg/home/sw_qyf/PocketFlow/Model-Generation-Results/5HT2A_7WC7_rec_A_10.pdb/2024-01-01-03-54-21/
     RDKit          3D

 19 20  0  0  0  0  0  0  0  0999 V2000
  -24.1553  -17.8465  145.7021 C   0  0  0  0  0  0  0  0  0  0  0  0
  -24.2855  -16.6364  145.3494 C   0  0  0  0  0  0  0  0  0  0  0  0
  -25.0033  -15.6772  146.0737 C   0  0  0  0  0  0  0  0  0  0  0  0
  -25.6964  -16.1809  147.2049 C   0  0  0  0  0  0  0  0  0  0  0  0
  -24.8143  -18.3454  146.8324 C   0  0  0  0  0  0  0  0  0  0  0  0
  -25.5291  -17.4614  147.6374 C   0  0  0  0  0  0  0  0  0  0  0  0
  -23.5978  -16.0422  144.1195 C   0  0  0  0  0  0  0  0  0  0  0  0
  -23.9776  -14.8492  143.7310 N   0  0  0  0  0  0  0  0  0  0  0  0
  -25.1825  -14.3093  145.6833 C   0  0  0  0  0  0  0  0  0  0  0  0
  -25.8657  -13.2999  146.5103 C   0  0  0  0  0  0  0  0  0  0  0  0
  -24.5332  -13.8816  144.4529 C   0  0  0  0  0  0  0  0  0  0  0  0
  -25.2803  -11.9852  146.5950 C   0  0  0  0  0  0  0  0  0  0  0  0
  -26.2906  -10.9314  146.4744 C   0  0  0  0  0  0  0  0  0  0  0  0
  -26.8345  -10.7968  145.0662 C   0  0  0  0  0  0  0  0  0  0  0  0
  -28.1708  -11.1077  144.8189 C   0  0  0  0  0  0  0  0  0  0  0  0
  -28.8089  -10.1974  144.2051 C   0  0  0  0  0  0  0  0  0  0  0  0
  -29.2942  -10.1017  143.2150 C   0  0  0  0  0  0  0  0  0  0  0  0
  -30.1136   -8.9720  142.6549 C   0  0  0  0  0  0  0  0  0  0  0  0
  -29.6924   -8.0981  141.7035 C   0  0  0  0  0  0  0  0  0  0  0  0
  9 10  1  0
 10 12  1  0
 12 13  1  0
 13 14  1  0
 14 15  1  0
 15 16  1  0
 16 17  2  3
 17 18  1  0
 18 19  2  0
  3  9  1  0
  9 11  2  0
 11  8  1  0
  8  7  2  0
  7  2  1  0
  1  2  2  0
  2  3  1  0
  3  4  2  0
  4  6  1  0
  6  5  2  0
  5  1  1  0
M  END

$$$$
No_41-/dssg/home/sw_qyf/PocketFlow/Model-Generation-Results/5HT2A_7WC7_rec_A_10.pdb/2024-01-01-03-54-21/
     RDKit          3D

 27 32  0  0  0  0  0  0  0  0999 V2000
  -24.1553  -17.8465  145.7021 C   0  0  0  0  0  0  0  0  0  0  0  0
  -23.9795  -18.4462  146.7426 C   0  0  0  0  0  0  0  0  0  0  0  0
  -25.1196  -16.8106  145.6409 C   0  0  0  0  0  0  0  0  0  0  0  0
  -25.2440  -15.8776  144.5240 C   0  0  0  0  0  0  0  0  0  0  0  0
  -26.0733  -14.7284  144.7061 C   0  0  0  0  0  0  0  0  0  0  0  0
  -26.0749  -13.6607  143.7626 C   0  0  0  0  0  0  0  0  0  0  0  0
  -23.9559  -17.6833  147.9078 C   0  0  0  0  0  0  0  0  0  0  0  0
  -24.8264  -16.5643  148.1415 C   0  0  0  0  0  0  0  0  0  0  0  0
  -25.0858  -15.8246  146.9166 C   0  0  0  0  0  0  0  0  0  0  0  0
  -26.9920  -12.6417  143.9273 C   0  0  0  0  0  0  0  0  0  0  0  0
  -27.3399  -11.7928  142.8673 C   0  0  0  0  0  0  0  0  0  0  0  0
  -27.4670  -12.3899  141.5839 C   0  0  0  0  0  0  0  0  0  0  0  0
  -27.6319  -11.5855  140.4848 C   0  0  0  0  0  0  0  0  0  0  0  0
  -27.4985  -11.9350  139.1858 C   0  0  0  0  0  0  0  0  0  0  0  0
  -27.7631  -10.9920  138.1428 C   0  0  0  0  0  0  0  0  0  0  0  0
  -28.1864   -9.7051  138.4571 C   0  0  0  0  0  0  0  0  0  0  0  0
  -28.3194   -9.3191  139.8243 C   0  0  0  0  0  0  0  0  0  0  0  0
  -28.0016  -10.2201  140.8413 C   0  0  0  0  0  0  0  0  0  0  0  0
  -28.5036   -8.7650  137.4147 C   0  0  0  0  0  0  0  0  0  0  0  0
  -26.2130  -14.8492  146.8799 C   0  0  0  0  0  0  0  0  0  0  0  0
  -26.1276  -13.8105  145.9622 C   0  0  0  0  0  0  0  0  0  0  0  0
  -27.4870  -12.4917  145.3427 C   0  0  0  0  0  0  0  0  0  0  0  0
  -27.2662  -13.1985  146.3962 C   0  0  0  0  0  0  0  0  0  0  0  0
  -28.6543  -11.4378  145.3702 C   0  0  0  0  0  0  0  0  0  0  0  0
  -28.8885  -10.5142  144.5299 N   0  0  0  0  0  0  0  0  0  0  0  0
  -28.3538  -10.7801  143.1765 C   0  0  0  0  0  0  0  0  0  0  0  0
  -28.6286   -9.8624  142.0906 C   0  0  0  0  0  0  0  0  0  0  0  0
  3  4  1  0
  4  5  1  0
 11 12  1  0
 12 13  1  0
 16 19  1  0
  9 20  1  0
 20 21  1  0
 18 27  1  0
 26 27  1  0
 10 11  2  0
 11 26  1  0
 26 25  2  0
 25 24  1  0
 24 22  2  0
  1  2  2  0
  2  7  1  0
  7  8  2  0
  8  9  1  0
  9  3  2  0
  3  1  1  0
  5  6  2  0
  6 10  1  0
 10 22  1  0
 22 23  1  0
 23 21  2  0
 21  5  1  0
 13 14  2  0
 14 15  1  0
 15 16  2  0
 16 17  1  0
 17 18  2  0
 18 13  1  0
M  END

$$$$
No_42-/dssg/home/sw_qyf/PocketFlow/Model-Generation-Results/5HT2A_7WC7_rec_A_10.pdb/2024-01-01-03-54-21/
     RDKit          3D

 17 19  0  0  0  0  0  0  0  0999 V2000
  -24.1553  -17.8465  145.7021 C   0  0  0  0  0  0  0  0  0  0  0  0
  -23.9795  -18.4462  146.7426 C   0  0  0  0  0  0  0  0  0  0  0  0
  -25.1593  -16.8262  145.6925 C   0  0  0  0  0  0  0  0  0  0  0  0
  -24.9465  -15.5961  144.9952 C   0  0  0  0  0  0  0  0  0  0  0  0
  -25.8339  -14.4742  145.0599 C   0  0  0  0  0  0  0  0  0  0  0  0
  -25.6290  -13.3152  144.3271 C   0  0  0  0  0  0  0  0  0  0  0  0
  -26.8608  -12.6144  144.2262 C   0  0  0  0  0  0  0  0  0  0  0  0
  -27.5431  -12.2996  145.4552 C   0  0  0  0  0  0  0  0  0  0  0  0
  -27.8974  -13.5708  146.2138 C   0  0  0  0  0  0  0  0  0  0  0  0
  -26.7693  -14.5147  146.2686 C   0  0  0  0  0  0  0  0  0  0  0  0
  -29.0783  -13.6567  146.9177 C   0  0  0  0  0  0  0  0  0  0  0  0
  -29.4909  -14.7264  147.5721 N   0  0  0  0  0  0  0  0  0  0  0  0
  -29.8414  -12.5686  147.0950 O   0  0  0  0  0  0  0  0  0  0  0  0
  -24.5595  -17.9674  148.0031 C   0  0  0  0  0  0  0  0  0  0  0  0
  -25.5170  -17.0171  148.0499 C   0  0  0  0  0  0  0  0  0  0  0  0
  -25.7207  -16.1901  146.9454 C   0  0  0  0  0  0  0  0  0  0  0  0
  -26.6281  -15.3342  146.8188 O   0  0  0  0  0  0  0  0  0  0  0  0
  1  2  1  0
  1  3  1  0
  3  4  2  0
  4  5  1  0
  5  6  1  0
  6  7  1  0
  7  8  1  0
  8  9  1  0
  5 10  1  0
  9 10  1  0
  9 11  1  0
 11 12  1  0
 11 13  2  0
  2 14  2  0
 14 15  1  0
  3 16  1  0
 15 16  1  0
 10 17  1  0
 16 17  1  0
M  END

$$$$
No_43-/dssg/home/sw_qyf/PocketFlow/Model-Generation-Results/5HT2A_7WC7_rec_A_10.pdb/2024-01-01-03-54-21/
     RDKit          3D

 15 15  0  0  0  0  0  0  0  0999 V2000
  -24.1553  -17.8465  145.7021 C   0  0  0  0  0  0  0  0  0  0  0  0
  -23.9795  -18.4462  146.7426 C   0  0  0  0  0  0  0  0  0  0  0  0
  -24.2723  -16.4220  145.8037 C   0  0  0  0  0  0  0  0  0  0  0  0
  -24.9934  -15.8373  146.8363 C   0  0  0  0  0  0  0  0  0  0  0  0
  -24.4240  -17.9698  148.0343 C   0  0  0  0  0  0  0  0  0  0  0  0
  -24.7712  -16.6380  148.1358 C   0  0  0  0  0  0  0  0  0  0  0  0
  -24.1704  -15.5702  144.5991 C   0  0  0  0  0  0  0  0  0  0  0  0
  -23.2697  -14.4562  144.8322 C   0  0  0  0  0  0  0  0  0  0  0  0
  -23.9924  -13.2340  145.2631 C   0  0  0  0  0  0  0  0  0  0  0  0
  -23.3110  -11.9759  145.1012 C   0  0  0  0  0  0  0  0  0  0  0  0
  -25.2659  -13.2602  145.8597 C   0  0  0  0  0  0  0  0  0  0  0  0
  -25.9229  -12.0029  146.0276 C   0  0  0  0  0  0  0  0  0  0  0  0
  -27.2896  -11.9933  146.3494 C   0  0  0  0  0  0  0  0  0  0  0  0
  -27.9773  -13.1257  146.1535 C   0  0  0  0  0  0  0  0  0  0  0  0
  -27.3341  -14.3871  146.0191 C   0  0  0  0  0  0  0  0  0  0  0  0
  3  7  1  0
  7  8  1  0
  8  9  1  0
  9 10  1  0
  9 11  1  0
 11 12  2  3
 12 13  1  0
 13 14  2  3
 14 15  1  0
  1  2  2  0
  2  5  1  0
  5  6  2  0
  6  4  1  0
  4  3  2  0
  3  1  1  0
M  END

$$$$
No_44-/dssg/home/sw_qyf/PocketFlow/Model-Generation-Results/5HT2A_7WC7_rec_A_10.pdb/2024-01-01-03-54-21/
     RDKit          3D

 35 40  0  0  0  0  0  0  0  0999 V2000
  -23.1746  -16.6014  144.8668 C   0  0  0  0  0  0  0  0  0  0  0  0
  -23.7011  -17.0158  145.9774 C   0  0  0  0  0  0  0  0  0  0  0  0
  -24.7095  -16.6222  146.3578 C   0  0  0  0  0  0  0  0  0  0  0  0
  -25.4819  -15.5594  145.8227 C   0  0  0  0  0  0  0  0  0  0  0  0
  -24.9840  -15.0029  144.6879 C   0  0  0  0  0  0  0  0  0  0  0  0
  -25.5866  -13.9088  143.9853 C   0  0  0  0  0  0  0  0  0  0  0  0
  -23.7718  -15.5127  144.2079 C   0  0  0  0  0  0  0  0  0  0  0  0
  -26.4842  -13.1517  144.6340 N   0  0  0  0  0  0  0  0  0  0  0  0
  -27.1846  -12.1077  144.0954 C   0  0  0  0  0  0  0  0  0  0  0  0
  -28.0881  -11.3973  145.0017 C   0  0  0  0  0  0  0  0  0  0  0  0
  -28.7749  -10.2227  144.6371 C   0  0  0  0  0  0  0  0  0  0  0  0
  -28.4802   -9.7294  143.3773 C   0  0  0  0  0  0  0  0  0  0  0  0
  -29.2563   -8.6406  142.9029 C   0  0  0  0  0  0  0  0  0  0  0  0
  -29.3628   -8.3221  141.5611 C   0  0  0  0  0  0  0  0  0  0  0  0
  -30.0683   -7.2007  141.0439 C   0  0  0  0  0  0  0  0  0  0  0  0
  -28.6999   -9.2571  140.6688 C   0  0  0  0  0  0  0  0  0  0  0  0
  -28.1120  -10.4632  141.1038 C   0  0  0  0  0  0  0  0  0  0  0  0
  -28.0366  -10.6990  142.5337 C   0  0  0  0  0  0  0  0  0  0  0  0
  -27.2571  -11.7660  142.8236 C   0  0  0  0  0  0  0  0  0  0  0  0
  -28.0167  -11.9501  146.4600 C   0  0  0  0  0  0  0  0  0  0  0  0
  -27.6710  -11.3642  140.1232 C   0  0  0  0  0  0  0  0  0  0  0  0
  -27.9036  -11.4048  138.8197 C   0  0  0  0  0  0  0  0  0  0  0  0
  -28.8771  -10.7042  138.2910 C   0  0  0  0  0  0  0  0  0  0  0  0
  -28.5697   -9.3276  138.5109 C   0  0  0  0  0  0  0  0  0  0  0  0
  -28.9172   -8.6315  139.6412 C   0  0  0  0  0  0  0  0  0  0  0  0
  -27.0904  -12.6343  146.9319 F   0  0  0  0  0  0  0  0  0  0  0  0
  -29.3550  -12.6202  146.7565 O   0  0  0  0  0  0  0  0  0  0  0  0
  -29.5181  -13.5781  147.1186 C   0  0  0  0  0  0  0  0  0  0  0  0
  -30.1558  -13.9615  148.1404 C   0  0  0  0  0  0  0  0  0  0  0  0
  -30.0844  -15.3241  148.7736 C   0  0  0  0  0  0  0  0  0  0  0  0
  -29.2194  -16.2507  148.1019 C   0  0  0  0  0  0  0  0  0  0  0  0
  -28.5231  -15.8556  146.9684 C   0  0  0  0  0  0  0  0  0  0  0  0
  -28.5969  -14.5349  146.4916 C   0  0  0  0  0  0  0  0  0  0  0  0
  -29.9200   -7.5412  139.6177 C   0  0  0  0  0  0  0  0  0  0  0  0
  -22.9597  -18.2203  146.6575 C   0  0  0  0  0  0  0  0  0  0  0  0
  5  6  1  0
  6  8  1  0
  8  9  1  0
  9 10  1  0
 10 11  1  0
 11 12  1  0
 14 15  1  0
  9 19  1  0
 18 19  1  0
 10 20  1  0
 17 21  1  0
 21 22  2  0
 22 23  1  0
 23 24  1  0
 16 25  1  0
 24 25  1  0
 20 26  1  0
 20 27  1  0
 27 28  1  0
 15 34  1  0
 25 34  1  0
  2 35  1  0
 28 29  2  0
 29 30  1  0
 30 31  2  0
 31 32  1  0
 32 33  2  0
 33 28  1  0
  1  2  2  0
  2  3  1  0
  3  4  2  0
  4  5  1  0
  5  7  2  0
  7  1  1  0
 12 13  2  0
 13 14  1  0
 14 16  2  0
 16 17  1  0
 17 18  2  0
 18 12  1  0
M  END

$$$$
No_45-/dssg/home/sw_qyf/PocketFlow/Model-Generation-Results/5HT2A_7WC7_rec_A_10.pdb/2024-01-01-03-54-21/
     RDKit          3D

 17 17  0  0  0  0  0  0  0  0999 V2000
  -24.1553  -17.8465  145.7021 C   0  0  0  0  0  0  0  0  0  0  0  0
  -24.6364  -17.2931  146.7091 C   0  0  0  0  0  0  0  0  0  0  0  0
  -24.0780  -17.2921  147.9389 C   0  0  0  0  0  0  0  0  0  0  0  0
  -24.6761  -16.7363  149.1478 C   0  0  0  0  0  0  0  0  0  0  0  0
  -25.9460  -16.2771  148.9169 N   0  0  0  0  0  0  0  0  0  0  0  0
  -26.5624  -16.2643  147.7963 C   0  0  0  0  0  0  0  0  0  0  0  0
  -25.9372  -16.7985  146.6947 C   0  0  0  0  0  0  0  0  0  0  0  0
  -27.9836  -15.7731  147.7455 C   0  0  0  0  0  0  0  0  0  0  0  0
  -28.2531  -14.4507  147.6406 C   0  0  0  0  0  0  0  0  0  0  0  0
  -29.5836  -13.8948  147.6327 C   0  0  0  0  0  0  0  0  0  0  0  0
  -29.8752  -12.5351  147.5349 C   0  0  0  0  0  0  0  0  0  0  0  0
  -31.1174  -11.9533  147.6565 C   0  0  0  0  0  0  0  0  0  0  0  0
  -23.8942  -16.9360  144.6158 N   0  0  0  0  0  0  0  0  0  0  0  0
  -31.8318  -12.5365  148.8159 C   0  0  0  0  0  0  0  0  0  0  0  0
  -33.0446  -12.0436  149.0242 N   0  0  0  0  0  0  0  0  0  0  0  0
  -23.4396  -18.9358  145.6317 O   0  0  0  0  0  0  0  0  0  0  0  0
  -23.0144  -17.1884  143.4722 C   0  0  0  0  0  0  0  0  0  0  0  0
  1  2  1  0
  6  8  1  0
  8  9  2  3
  9 10  1  0
 10 11  1  0
 11 12  1  0
  1 13  1  0
 12 14  1  0
 14 15  1  0
  1 16  2  0
 13 17  1  0
  2  3  2  0
  3  4  1  0
  4  5  2  0
  5  6  1  0
  6  7  2  0
  7  2  1  0
M  END

$$$$
No_46-/dssg/home/sw_qyf/PocketFlow/Model-Generation-Results/5HT2A_7WC7_rec_A_10.pdb/2024-01-01-03-54-21/
     RDKit          3D

 19 21  0  0  0  0  0  0  0  0999 V2000
  -23.1746  -16.6014  144.8668 C   0  0  0  0  0  0  0  0  0  0  0  0
  -23.7011  -17.0158  145.9774 C   0  0  0  0  0  0  0  0  0  0  0  0
  -24.7096  -16.6222  146.3577 C   0  0  0  0  0  0  0  0  0  0  0  0
  -25.2589  -16.9410  147.8027 C   0  0  0  0  0  0  0  0  0  0  0  0
  -26.4623  -16.4173  148.3313 C   0  0  0  0  0  0  0  0  0  0  0  0
  -23.7737  -15.4555  144.2384 C   0  0  0  0  0  0  0  0  0  0  0  0
  -24.8786  -14.8392  144.8305 C   0  0  0  0  0  0  0  0  0  0  0  0
  -25.3633  -15.3911  146.0026 C   0  0  0  0  0  0  0  0  0  0  0  0
  -27.1855  -15.4410  147.6072 C   0  0  0  0  0  0  0  0  0  0  0  0
  -26.5865  -14.8558  146.4698 C   0  0  0  0  0  0  0  0  0  0  0  0
  -27.3049  -13.7591  145.8650 C   0  0  0  0  0  0  0  0  0  0  0  0
  -26.8575  -12.9875  144.8211 C   0  0  0  0  0  0  0  0  0  0  0  0
  -25.5952  -13.6911  144.1674 C   0  0  0  0  0  0  0  0  0  0  0  0
  -27.4324  -11.9982  144.1149 C   0  0  0  0  0  0  0  0  0  0  0  0
  -27.6179  -11.6901  142.8221 C   0  0  0  0  0  0  0  0  0  0  0  0
  -27.6867  -12.6733  141.9023 C   0  0  0  0  0  0  0  0  0  0  0  0
  -27.3942  -12.2822  140.5479 C   0  0  0  0  0  0  0  0  0  0  0  0
  -27.5438  -10.9637  140.1182 C   0  0  0  0  0  0  0  0  0  0  0  0
  -27.3900  -10.5780  138.7770 C   0  0  0  0  0  0  0  0  0  0  0  0
 10 11  1  0
 11 12  1  0
  7 13  1  0
 12 13  1  0
 12 14  1  0
 14 15  1  0
 15 16  1  0
 16 17  2  3
 17 18  1  0
 18 19  3  0
  1  2  2  0
  2  3  1  0
  8  7  1  0
  7  6  2  0
  6  1  1  0
  3  4  2  0
  4  5  1  0
  5  9  2  0
  9 10  1  0
 10  8  2  0
  8  3  1  0
M  END

$$$$
No_47-/dssg/home/sw_qyf/PocketFlow/Model-Generation-Results/5HT2A_7WC7_rec_A_10.pdb/2024-01-01-03-54-21/
     RDKit          3D

 18 20  0  0  0  0  0  0  0  0999 V2000
  -23.8931  -18.2534  145.3804 F   0  0  0  0  0  0  0  0  0  0  0  0
  -24.3394  -17.2619  146.1054 C   0  0  0  0  0  0  0  0  0  0  0  0
  -24.5544  -17.4430  147.4759 C   0  0  0  0  0  0  0  0  0  0  0  0
  -24.5412  -15.9711  145.4988 C   0  0  0  0  0  0  0  0  0  0  0  0
  -24.1989  -15.6549  144.1788 C   0  0  0  0  0  0  0  0  0  0  0  0
  -24.5055  -14.3055  143.7460 C   0  0  0  0  0  0  0  0  0  0  0  0
  -25.3402  -13.5316  144.6858 C   0  0  0  0  0  0  0  0  0  0  0  0
  -25.5469  -13.8797  146.0132 C   0  0  0  0  0  0  0  0  0  0  0  0
  -25.2350  -15.1968  146.4374 C   0  0  0  0  0  0  0  0  0  0  0  0
  -25.0960  -16.5936  148.3009 C   0  0  0  0  0  0  0  0  0  0  0  0
  -25.4258  -15.4554  147.8468 C   0  0  0  0  0  0  0  0  0  0  0  0
  -26.6377  -13.3123  144.0329 O   0  0  0  0  0  0  0  0  0  0  0  0
  -27.4522  -12.4202  144.6262 C   0  0  0  0  0  0  0  0  0  0  0  0
  -28.0779  -12.6194  145.7871 C   0  0  0  0  0  0  0  0  0  0  0  0
  -29.2997  -12.1162  146.0620 C   0  0  0  0  0  0  0  0  0  0  0  0
  -29.6872  -10.9578  145.3836 C   0  0  0  0  0  0  0  0  0  0  0  0
  -28.9588  -10.4975  144.2826 C   0  0  0  0  0  0  0  0  0  0  0  0
  -27.8972  -11.3542  143.7900 C   0  0  0  0  0  0  0  0  0  0  0  0
  1  2  1  0
  7 12  1  0
 12 13  1  0
 13 14  2  0
 14 15  1  0
 15 16  2  0
 16 17  1  0
 17 18  2  0
 18 13  1  0
  2  3  2  0
  3 10  1  0
 10 11  2  0
 11  9  1  0
  4  2  1  0
  4  5  2  0
  5  6  1  0
  6  7  2  0
  7  8  1  0
  8  9  2  0
  9  4  1  0
M  END

$$$$
No_48-/dssg/home/sw_qyf/PocketFlow/Model-Generation-Results/5HT2A_7WC7_rec_A_10.pdb/2024-01-01-03-54-21/
     RDKit          3D

 35 38  0  0  0  0  0  0  0  0999 V2000
  -23.1746  -16.6014  144.8668 C   0  0  0  0  0  0  0  0  0  0  0  0
  -23.7011  -17.0158  145.9774 C   0  0  0  0  0  0  0  0  0  0  0  0
  -23.7336  -18.2775  146.3737 C   0  0  0  0  0  0  0  0  0  0  0  0
  -24.1960  -18.6445  147.6858 C   0  0  0  0  0  0  0  0  0  0  0  0
  -24.7100  -17.6145  148.5486 C   0  0  0  0  0  0  0  0  0  0  0  0
  -24.7929  -16.2635  148.0870 C   0  0  0  0  0  0  0  0  0  0  0  0
  -24.2508  -15.9434  146.8891 C   0  0  0  0  0  0  0  0  0  0  0  0
  -22.9131  -15.3694  144.6484 O   0  0  0  0  0  0  0  0  0  0  0  0
  -23.8154  -14.4512  145.0167 C   0  0  0  0  0  0  0  0  0  0  0  0
  -23.7012  -13.0699  144.5112 C   0  0  0  0  0  0  0  0  0  0  0  0
  -24.6062  -14.6367  146.2247 C   0  0  0  0  0  0  0  0  0  0  0  0
  -24.7463  -12.6657  144.3208 F   0  0  0  0  0  0  0  0  0  0  0  0
  -22.9258  -12.3144  145.4404 F   0  0  0  0  0  0  0  0  0  0  0  0
  -23.2442  -19.2600  145.7113 O   0  0  0  0  0  0  0  0  0  0  0  0
  -25.1302  -17.9662  149.7874 O   0  0  0  0  0  0  0  0  0  0  0  0
  -26.2405  -17.5447  150.3543 C   0  0  0  0  0  0  0  0  0  0  0  0
  -26.8390  -18.4824  151.3043 C   0  0  0  0  0  0  0  0  0  0  0  0
  -28.1881  -18.5216  151.6413 C   0  0  0  0  0  0  0  0  0  0  0  0
  -29.0384  -17.7861  150.8866 C   0  0  0  0  0  0  0  0  0  0  0  0
  -28.6501  -17.0847  149.6448 C   0  0  0  0  0  0  0  0  0  0  0  0
  -27.3598  -17.4461  149.2726 C   0  0  0  0  0  0  0  0  0  0  0  0
  -29.5833  -16.5092  148.7963 C   0  0  0  0  0  0  0  0  0  0  0  0
  -29.2897  -15.1151  148.4442 C   0  0  0  0  0  0  0  0  0  0  0  0
  -29.3452  -14.4294  147.4871 C   0  0  0  0  0  0  0  0  0  0  0  0
  -29.1283  -13.1022  147.2790 C   0  0  0  0  0  0  0  0  0  0  0  0
  -28.5430  -12.6171  146.1397 C   0  0  0  0  0  0  0  0  0  0  0  0
  -27.5919  -13.3817  145.4282 C   0  0  0  0  0  0  0  0  0  0  0  0
  -27.6305  -14.7872  145.6854 C   0  0  0  0  0  0  0  0  0  0  0  0
  -28.4712  -15.2650  146.7231 C   0  0  0  0  0  0  0  0  0  0  0  0
  -29.0973  -11.6015  145.2569 C   0  0  0  0  0  0  0  0  0  0  0  0
  -28.4035  -10.9208  144.2680 C   0  0  0  0  0  0  0  0  0  0  0  0
  -28.8052   -9.6445  143.8098 C   0  0  0  0  0  0  0  0  0  0  0  0
  -29.7637   -9.5326  142.8533 C   0  0  0  0  0  0  0  0  0  0  0  0
  -30.2136   -8.2722  142.4203 C   0  0  0  0  0  0  0  0  0  0  0  0
  -31.3920   -8.1035  141.6901 C   0  0  0  0  0  0  0  0  0  0  0  0
  1  2  1  0
  1  8  1  0
  8  9  1  0
  9 10  2  3
  7 11  1  0
  9 11  1  0
 10 12  1  0
 10 13  1  0
  3 14  1  0
  5 15  1  0
 15 16  1  0
 20 22  1  0
 22 23  1  0
 26 30  1  0
 30 31  2  3
 31 32  1  0
 32 33  1  0
 33 34  1  0
 34 35  1  0
 23 24  1  0
  2  3  2  0
  3  4  1  0
  4  5  2  0
  5  6  1  0
  6  7  2  0
  7  2  1  0
 24 25  2  0
 25 26  1  0
 26 27  2  0
 27 28  1  0
 28 29  2  0
 29 24  1  0
 16 17  2  0
 17 18  1  0
 18 19  2  0
 19 20  1  0
 20 21  2  0
 21 16  1  0
M  END

$$$$
No_49-/dssg/home/sw_qyf/PocketFlow/Model-Generation-Results/5HT2A_7WC7_rec_A_10.pdb/2024-01-01-03-54-21/
     RDKit          3D

 15 16  0  0  0  0  0  0  0  0999 V2000
  -23.1746  -16.6014  144.8668 C   0  0  0  0  0  0  0  0  0  0  0  0
  -24.0189  -16.0564  145.8445 C   0  0  0  0  0  0  0  0  0  0  0  0
  -24.4850  -14.7380  145.6359 C   0  0  0  0  0  0  0  0  0  0  0  0
  -24.0244  -13.9858  144.5634 C   0  0  0  0  0  0  0  0  0  0  0  0
  -24.3842  -12.6749  144.5063 N   0  0  0  0  0  0  0  0  0  0  0  0
  -22.7426  -15.7801  143.9285 N   0  0  0  0  0  0  0  0  0  0  0  0
  -23.0395  -14.5149  143.8586 C   0  0  0  0  0  0  0  0  0  0  0  0
  -23.7688  -11.8732  145.4946 C   0  0  0  0  0  0  0  0  0  0  0  0
  -24.4256  -17.0667  146.8414 C   0  0  0  0  0  0  0  0  0  0  0  0
  -24.0195  -18.1100  147.1471 C   0  0  0  0  0  0  0  0  0  0  0  0
  -25.3790  -16.4032  147.8771 C   0  0  0  0  0  0  0  0  0  0  0  0
  -25.6147  -17.0198  149.1323 C   0  0  0  0  0  0  0  0  0  0  0  0
  -24.4607  -18.8788  148.3964 C   0  0  0  0  0  0  0  0  0  0  0  0
  -25.2366  -18.2256  149.3542 C   0  0  0  0  0  0  0  0  0  0  0  0
  -23.1976  -12.5048  146.6741 C   0  0  0  0  0  0  0  0  0  0  0  0
  4  5  1  0
  5  8  1  0
  2  9  1  0
  8 15  1  0
  9 10  2  0
 10 13  1  0
 13 14  2  0
 14 12  1  0
 12 11  2  0
 11  9  1  0
  1  2  2  0
  2  3  1  0
  3  4  2  0
  4  7  1  0
  7  6  2  0
  6  1  1  0
M  END

$$$$
No_50-/dssg/home/sw_qyf/PocketFlow/Model-Generation-Results/5HT2A_7WC7_rec_A_10.pdb/2024-01-01-03-54-21/
     RDKit          3D

 25 26  0  0  0  0  0  0  0  0999 V2000
  -23.1746  -16.6014  144.8668 C   0  0  0  0  0  0  0  0  0  0  0  0
  -23.8963  -15.5346  144.7885 C   0  0  0  0  0  0  0  0  0  0  0  0
  -24.5755  -15.0383  145.9043 C   0  0  0  0  0  0  0  0  0  0  0  0
  -25.3265  -13.7882  145.9354 C   0  0  0  0  0  0  0  0  0  0  0  0
  -23.3054  -17.4823  145.9484 C   0  0  0  0  0  0  0  0  0  0  0  0
  -23.9716  -17.0785  147.1156 C   0  0  0  0  0  0  0  0  0  0  0  0
  -24.6279  -15.8542  147.1153 C   0  0  0  0  0  0  0  0  0  0  0  0
  -24.5727  -12.6172  146.2214 C   0  0  0  0  0  0  0  0  0  0  0  0
  -26.6071  -13.6824  145.5088 C   0  0  0  0  0  0  0  0  0  0  0  0
  -27.2965  -12.4239  145.5229 C   0  0  0  0  0  0  0  0  0  0  0  0
  -28.6817  -12.3058  145.3997 C   0  0  0  0  0  0  0  0  0  0  0  0
  -23.1617  -12.6381  146.5625 C   0  0  0  0  0  0  0  0  0  0  0  0
  -29.2489  -11.2162  145.9374 C   0  0  0  0  0  0  0  0  0  0  0  0
  -30.6554  -11.1002  146.1169 C   0  0  0  0  0  0  0  0  0  0  0  0
  -26.4166  -11.3184  146.0751 C   0  0  0  0  0  0  0  0  0  0  0  0
  -25.2165  -11.3604  146.3009 C   0  0  0  0  0  0  0  0  0  0  0  0
  -23.9691  -17.9304  148.3473 C   0  0  0  0  0  0  0  0  0  0  0  0
  -24.2758  -17.1242  149.6256 C   0  0  0  0  0  0  0  0  0  0  0  0
  -23.1932  -16.9225  150.5037 C   0  0  0  0  0  0  0  0  0  0  0  0
  -25.5958  -17.4433  150.1765 C   0  0  0  0  0  0  0  0  0  0  0  0
  -23.8579  -14.7301  143.7363 O   0  0  0  0  0  0  0  0  0  0  0  0
  -25.6814  -17.9012  151.4213 O   0  0  0  0  0  0  0  0  0  0  0  0
  -26.7074  -16.9998  149.7411 O   0  0  0  0  0  0  0  0  0  0  0  0
  -31.2448  -11.7486  146.9926 O   0  0  0  0  0  0  0  0  0  0  0  0
  -31.1578   -9.8612  145.7136 O   0  0  0  0  0  0  0  0  0  0  0  0
  3  4  1  0
 10 11  1  0
  8 12  1  0
 11 13  2  3
 13 14  1  0
  6 17  1  0
 17 18  1  0
 18 19  2  0
 18 20  1  0
  2 21  1  0
 20 22  1  0
 20 23  2  0
 14 24  2  0
 14 25  1  0
  1  2  2  0
  2  3  1  0
  3  7  2  0
  7  6  1  0
  6  5  2  0
  5  1  1  0
  4  8  2  0
  8 16  1  0
 16 15  2  0
 15 10  1  0
 10  9  2  0
  9  4  1  0
M  END

$$$$
No_51-/dssg/home/sw_qyf/PocketFlow/Model-Generation-Results/5HT2A_7WC7_rec_A_10.pdb/2024-01-01-03-54-21/
     RDKit          3D

 10 10  0  0  0  0  0  0  0  0999 V2000
  -23.1746  -16.6014  144.8668 C   0  0  0  0  0  0  0  0  0  0  0  0
  -23.8963  -15.5346  144.7885 C   0  0  0  0  0  0  0  0  0  0  0  0
  -25.0304  -15.2549  144.5358 C   0  0  0  0  0  0  0  0  0  0  0  0
  -25.6045  -13.9524  144.2294 C   0  0  0  0  0  0  0  0  0  0  0  0
  -24.8624  -12.8904  144.6738 C   0  0  0  0  0  0  0  0  0  0  0  0
  -23.5278  -13.1645  145.1476 C   0  0  0  0  0  0  0  0  0  0  0  0
  -23.0148  -14.3796  145.1899 C   0  0  0  0  0  0  0  0  0  0  0  0
  -23.7986  -17.7724  146.0777 Cl  0  0  0  0  0  0  0  0  0  0  0  0
  -22.9469  -11.9182  145.5658 N   0  0  0  0  0  0  0  0  0  0  0  0
  -27.3578  -13.9161  144.1181 Cl  0  0  0  0  0  0  0  0  0  0  0  0
  1  2  1  0
  1  8  1  0
  6  9  1  0
  4 10  1  0
  2  3  2  0
  3  4  1  0
  4  5  2  0
  5  6  1  0
  6  7  2  0
  7  2  1  0
M  END

$$$$
No_52-/dssg/home/sw_qyf/PocketFlow/Model-Generation-Results/5HT2A_7WC7_rec_A_10.pdb/2024-01-01-03-54-21/
     RDKit          3D

 35 36  0  0  0  0  0  0  0  0999 V2000
  -23.1746  -16.6014  144.8668 C   0  0  0  0  0  0  0  0  0  0  0  0
  -24.0189  -16.0564  145.8445 C   0  0  0  0  0  0  0  0  0  0  0  0
  -24.4145  -16.8299  146.9062 C   0  0  0  0  0  0  0  0  0  0  0  0
  -25.2730  -16.2838  147.9150 C   0  0  0  0  0  0  0  0  0  0  0  0
  -25.7919  -14.9951  147.6737 C   0  0  0  0  0  0  0  0  0  0  0  0
  -24.5377  -14.6789  145.6474 C   0  0  0  0  0  0  0  0  0  0  0  0
  -25.4158  -14.1968  146.6885 C   0  0  0  0  0  0  0  0  0  0  0  0
  -24.1218  -13.8356  144.6156 C   0  0  0  0  0  0  0  0  0  0  0  0
  -22.8729  -13.7329  144.2927 N   0  0  0  0  0  0  0  0  0  0  0  0
  -25.0274  -13.4767  143.7494 O   0  0  0  0  0  0  0  0  0  0  0  0
  -23.9397  -18.1432  147.2814 C   0  0  0  0  0  0  0  0  0  0  0  0
  -23.4807  -18.5592  148.2938 O   0  0  0  0  0  0  0  0  0  0  0  0
  -24.3444  -19.0623  146.3666 O   0  0  0  0  0  0  0  0  0  0  0  0
  -25.9142  -12.8142  146.5507 C   0  0  0  0  0  0  0  0  0  0  0  0
  -27.2796  -12.5556  146.3349 C   0  0  0  0  0  0  0  0  0  0  0  0
  -27.6990  -12.2113  145.1493 C   0  0  0  0  0  0  0  0  0  0  0  0
  -27.1154  -12.0100  143.8916 C   0  0  0  0  0  0  0  0  0  0  0  0
  -27.7576  -11.4898  142.7710 C   0  0  0  0  0  0  0  0  0  0  0  0
  -27.5390  -11.9866  141.5101 C   0  0  0  0  0  0  0  0  0  0  0  0
  -27.1531  -11.3167  140.5410 C   0  0  0  0  0  0  0  0  0  0  0  0
  -27.5952   -9.8528  140.4804 C   0  0  0  0  0  0  0  0  0  0  0  0
  -28.1939   -9.3567  141.6761 C   0  0  0  0  0  0  0  0  0  0  0  0
  -28.1658  -10.1751  142.8251 C   0  0  0  0  0  0  0  0  0  0  0  0
  -27.5787   -9.0878  139.2442 C   0  0  0  0  0  0  0  0  0  0  0  0
  -28.1579   -8.0029  139.2881 F   0  0  0  0  0  0  0  0  0  0  0  0
  -28.1591   -9.9754  138.3164 F   0  0  0  0  0  0  0  0  0  0  0  0
  -26.7421  -11.8763  139.2424 C   0  0  0  0  0  0  0  0  0  0  0  0
  -27.4572  -11.7445  138.2527 O   0  0  0  0  0  0  0  0  0  0  0  0
  -27.4372  -11.8751  137.0001 C   0  0  0  0  0  0  0  0  0  0  0  0
  -29.1934  -11.7742  145.2082 C   0  0  0  0  0  0  0  0  0  0  0  0
  -29.9079  -12.5842  145.9124 F   0  0  0  0  0  0  0  0  0  0  0  0
  -29.3316  -10.4562  145.7815 F   0  0  0  0  0  0  0  0  0  0  0  0
  -29.8547  -11.4846  144.0966 F   0  0  0  0  0  0  0  0  0  0  0  0
  -26.3240   -8.9038  138.8352 F   0  0  0  0  0  0  0  0  0  0  0  0
  -22.3837  -12.5766  143.6538 C   0  0  0  0  0  0  0  0  0  0  0  0
  1  2  1  0
  6  8  1  0
  8  9  1  0
  8 10  2  0
  3 11  1  0
 11 12  1  0
 11 13  2  0
  7 14  1  0
 14 15  1  0
 15 16  2  3
 16 17  1  0
 17 18  1  0
 21 24  1  0
 24 25  1  0
 24 26  1  0
 20 27  1  0
 27 28  1  0
 28 29  1  0
 16 30  1  0
 30 31  1  0
 30 32  1  0
 30 33  1  0
 24 34  1  0
  9 35  1  0
 18 19  2  0
 19 20  1  0
 20 21  2  0
 21 22  1  0
 22 23  2  0
 23 18  1  0
  2  3  2  0
  3  4  1  0
  4  5  2  0
  5  7  1  0
  7  6  2  0
  6  2  1  0
M  END

$$$$
No_53-/dssg/home/sw_qyf/PocketFlow/Model-Generation-Results/5HT2A_7WC7_rec_A_10.pdb/2024-01-01-03-54-21/
     RDKit          3D

 35 39  0  0  0  0  0  0  0  0999 V2000
  -23.1746  -16.6014  144.8668 C   0  0  0  0  0  0  0  0  0  0  0  0
  -24.0189  -16.0564  145.8445 C   0  0  0  0  0  0  0  0  0  0  0  0
  -25.3176  -15.9168  145.6822 C   0  0  0  0  0  0  0  0  0  0  0  0
  -26.2875  -16.5451  146.4724 C   0  0  0  0  0  0  0  0  0  0  0  0
  -27.2328  -15.8914  147.0793 C   0  0  0  0  0  0  0  0  0  0  0  0
  -27.5801  -14.5752  146.6800 C   0  0  0  0  0  0  0  0  0  0  0  0
  -26.6134  -13.8469  145.9631 C   0  0  0  0  0  0  0  0  0  0  0  0
  -25.3930  -14.4782  145.5934 C   0  0  0  0  0  0  0  0  0  0  0  0
  -26.7802  -12.3952  145.7451 C   0  0  0  0  0  0  0  0  0  0  0  0
  -25.7499  -11.6066  145.3840 C   0  0  0  0  0  0  0  0  0  0  0  0
  -24.4965  -12.1841  145.2095 N   0  0  0  0  0  0  0  0  0  0  0  0
  -23.2808  -11.4125  145.0009 C   0  0  0  0  0  0  0  0  0  0  0  0
  -22.2694  -12.3464  144.8051 N   0  0  0  0  0  0  0  0  0  0  0  0
  -24.3322  -13.5769  145.0838 C   0  0  0  0  0  0  0  0  0  0  0  0
  -22.9770  -13.6372  144.6846 C   0  0  0  0  0  0  0  0  0  0  0  0
  -28.1162  -11.8292  146.0308 C   0  0  0  0  0  0  0  0  0  0  0  0
  -28.6080  -10.7606  145.3264 C   0  0  0  0  0  0  0  0  0  0  0  0
  -27.9583  -10.2742  144.1896 C   0  0  0  0  0  0  0  0  0  0  0  0
  -28.6914   -9.2572  143.4543 C   0  0  0  0  0  0  0  0  0  0  0  0
  -30.0581   -9.1163  143.4506 C   0  0  0  0  0  0  0  0  0  0  0  0
  -30.7131   -8.2256  142.6237 C   0  0  0  0  0  0  0  0  0  0  0  0
  -32.3480   -8.0528  142.6747 Cl  0  0  0  0  0  0  0  0  0  0  0  0
  -29.9201   -7.3819  141.7498 C   0  0  0  0  0  0  0  0  0  0  0  0
  -29.6369   -6.0566  141.9475 C   0  0  0  0  0  0  0  0  0  0  0  0
  -29.0479   -5.2544  140.9550 C   0  0  0  0  0  0  0  0  0  0  0  0
  -28.9319   -5.8923  139.7634 N   0  0  0  0  0  0  0  0  0  0  0  0
  -29.6350   -7.8531  140.4368 C   0  0  0  0  0  0  0  0  0  0  0  0
  -29.1581   -7.0771  139.5391 C   0  0  0  0  0  0  0  0  0  0  0  0
  -28.8647   -7.7241  138.3836 N   0  0  0  0  0  0  0  0  0  0  0  0
  -30.0420  -10.5006  145.4173 C   0  0  0  0  0  0  0  0  0  0  0  0
  -30.6105   -9.5812  144.6289 N   0  0  0  0  0  0  0  0  0  0  0  0
  -30.5922  -10.7260  146.6055 O   0  0  0  0  0  0  0  0  0  0  0  0
  -28.7540   -3.9611  141.2210 N   0  0  0  0  0  0  0  0  0  0  0  0
  -28.2991  -16.5747  147.9442 C   0  0  0  0  0  0  0  0  0  0  0  0
  -28.4869  -16.2374  149.1041 N   0  0  0  0  0  0  0  0  0  0  0  0
  1  2  1  0
  2  3  1  0
  7  9  1  0
  9 10  1  0
 10 11  1  0
 11 12  1  0
 12 13  1  0
  8 14  1  0
 11 14  1  0
 13 15  2  0
 14 15  1  0
  9 16  1  0
 16 17  1  0
 20 21  1  0
 21 22  1  0
 21 23  1  0
 28 29  1  0
 30 32  1  0
 25 33  1  0
  5 34  1  0
 34 35  1  0
 17 18  2  0
 18 19  1  0
 19 20  2  0
 20 31  1  0
 31 30  2  0
 30 17  1  0
  3  4  2  0
  4  5  1  0
  5  6  2  0
  6  7  1  0
  7  8  2  0
  8  3  1  0
 23 24  2  0
 24 25  1  0
 25 26  2  0
 26 28  1  0
 28 27  2  0
 27 23  1  0
M  END

$$$$
No_54-/dssg/home/sw_qyf/PocketFlow/Model-Generation-Results/5HT2A_7WC7_rec_A_10.pdb/2024-01-01-03-54-21/
     RDKit          3D

 13 12  0  0  0  0  0  0  0  0999 V2000
  -23.1746  -16.6014  144.8668 C   0  0  0  0  0  0  0  0  0  0  0  0
  -23.8963  -15.5346  144.7885 C   0  0  0  0  0  0  0  0  0  0  0  0
  -23.6398  -14.5115  145.3281 C   0  0  0  0  0  0  0  0  0  0  0  0
  -24.3240  -13.3648  145.1281 C   0  0  0  0  0  0  0  0  0  0  0  0
  -23.8303  -12.0965  145.7920 C   0  0  0  0  0  0  0  0  0  0  0  0
  -25.3378  -13.1857  144.2988 N   0  0  0  0  0  0  0  0  0  0  0  0
  -26.5976  -13.5134  144.8050 C   0  0  0  0  0  0  0  0  0  0  0  0
  -27.6003  -12.5818  144.4185 C   0  0  0  0  0  0  0  0  0  0  0  0
  -27.6619  -11.8882  143.2552 C   0  0  0  0  0  0  0  0  0  0  0  0
  -27.4417  -12.4532  142.1119 C   0  0  0  0  0  0  0  0  0  0  0  0
  -27.6646  -11.8511  140.8203 C   0  0  0  0  0  0  0  0  0  0  0  0
  -27.4522  -12.4393  139.5733 C   0  0  0  0  0  0  0  0  0  0  0  0
  -27.6619  -11.5632  138.4453 C   0  0  0  0  0  0  0  0  0  0  0  0
  1  2  1  0
  2  3  2  3
  3  4  1  0
  4  5  1  0
  4  6  1  0
  6  7  1  0
  7  8  1  0
  8  9  1  0
  9 10  2  3
 10 11  1  0
 11 12  2  3
 12 13  1  0
M  END

$$$$
No_55-/dssg/home/sw_qyf/PocketFlow/Model-Generation-Results/5HT2A_7WC7_rec_A_10.pdb/2024-01-01-03-54-21/
     RDKit          3D

 27 28  0  0  0  0  0  0  0  0999 V2000
  -23.1746  -16.6014  144.8668 C   0  0  0  0  0  0  0  0  0  0  0  0
  -23.8963  -15.5346  144.7885 C   0  0  0  0  0  0  0  0  0  0  0  0
  -25.0304  -15.2549  144.5358 C   0  0  0  0  0  0  0  0  0  0  0  0
  -25.6045  -13.9524  144.2294 C   0  0  0  0  0  0  0  0  0  0  0  0
  -24.8624  -12.8904  144.6738 C   0  0  0  0  0  0  0  0  0  0  0  0
  -23.5278  -13.1645  145.1476 C   0  0  0  0  0  0  0  0  0  0  0  0
  -22.7597  -11.9901  145.5529 C   0  0  0  0  0  0  0  0  0  0  0  0
  -23.0131  -14.3269  145.1208 C   0  0  0  0  0  0  0  0  0  0  0  0
  -23.4931  -17.4274  143.9938 F   0  0  0  0  0  0  0  0  0  0  0  0
  -23.4714  -17.2954  146.1360 F   0  0  0  0  0  0  0  0  0  0  0  0
  -27.0322  -13.7926  143.8729 C   0  0  0  0  0  0  0  0  0  0  0  0
  -27.3007  -12.3815  143.4937 C   0  0  0  0  0  0  0  0  0  0  0  0
  -27.5160  -12.0788  142.1456 C   0  0  0  0  0  0  0  0  0  0  0  0
  -28.0362  -10.8393  141.7374 C   0  0  0  0  0  0  0  0  0  0  0  0
  -28.2492  -10.5413  140.3762 C   0  0  0  0  0  0  0  0  0  0  0  0
  -28.5438   -9.2187  139.9183 C   0  0  0  0  0  0  0  0  0  0  0  0
  -29.0804   -8.2672  140.8492 C   0  0  0  0  0  0  0  0  0  0  0  0
  -29.1911   -8.6528  142.2468 C   0  0  0  0  0  0  0  0  0  0  0  0
  -28.7083   -9.9026  142.6535 C   0  0  0  0  0  0  0  0  0  0  0  0
  -28.3893   -8.8430  138.5550 C   0  0  0  0  0  0  0  0  0  0  0  0
  -27.2179  -12.9550  141.3191 F   0  0  0  0  0  0  0  0  0  0  0  0
  -28.3858   -8.3688  137.6317 N   0  0  0  0  0  0  0  0  0  0  0  0
  -28.7904  -10.2146  144.3680 Cl  0  0  0  0  0  0  0  0  0  0  0  0
  -29.4747   -7.1350  140.4982 F   0  0  0  0  0  0  0  0  0  0  0  0
  -22.4554  -11.1105  144.6949 O   0  0  0  0  0  0  0  0  0  0  0  0
  -22.8737  -11.5190  146.8298 O   0  0  0  0  0  0  0  0  0  0  0  0
  -29.6592   -7.8030  143.1485 F   0  0  0  0  0  0  0  0  0  0  0  0
  1  2  1  0
  6  7  1  0
  1  9  1  0
  1 10  1  0
  4 11  1  0
 11 12  1  0
 12 13  2  3
 13 14  1  0
 16 20  1  0
 13 21  1  0
 20 22  3  0
 19 23  1  0
 17 24  1  0
  7 25  1  0
  7 26  2  0
 18 27  1  0
 14 15  2  0
 15 16  1  0
 16 17  2  0
 17 18  1  0
 18 19  2  0
 19 14  1  0
  2  3  2  0
  3  4  1  0
  4  5  2  0
  5  6  1  0
  6  8  2  0
  8  2  1  0
M  END

$$$$
No_56-/dssg/home/sw_qyf/PocketFlow/Model-Generation-Results/5HT2A_7WC7_rec_A_10.pdb/2024-01-01-03-54-21/
     RDKit          3D

 22 24  0  0  0  0  0  0  0  0999 V2000
  -23.1746  -16.6014  144.8668 C   0  0  0  0  0  0  0  0  0  0  0  0
  -23.8963  -15.5346  144.7885 C   0  0  0  0  0  0  0  0  0  0  0  0
  -23.4976  -14.2961  145.1226 C   0  0  0  0  0  0  0  0  0  0  0  0
  -23.9189  -13.0599  144.7480 C   0  0  0  0  0  0  0  0  0  0  0  0
  -24.2390  -12.1465  145.9050 C   0  0  0  0  0  0  0  0  0  0  0  0
  -25.6872  -12.2365  146.1771 C   0  0  0  0  0  0  0  0  0  0  0  0
  -26.4903  -11.1030  145.6653 C   0  0  0  0  0  0  0  0  0  0  0  0
  -26.1172  -10.3384  144.6170 C   0  0  0  0  0  0  0  0  0  0  0  0
  -23.3501  -17.6560  145.8230 C   0  0  0  0  0  0  0  0  0  0  0  0
  -23.6223  -17.1484  147.1588 C   0  0  0  0  0  0  0  0  0  0  0  0
  -24.8972  -17.4830  147.6762 C   0  0  0  0  0  0  0  0  0  0  0  0
  -25.7764  -16.2741  147.8124 C   0  0  0  0  0  0  0  0  0  0  0  0
  -27.0406  -16.2244  147.1215 C   0  0  0  0  0  0  0  0  0  0  0  0
  -27.8785  -15.1289  147.0592 C   0  0  0  0  0  0  0  0  0  0  0  0
  -29.2074  -15.0854  147.0853 C   0  0  0  0  0  0  0  0  0  0  0  0
  -29.9337  -13.8818  147.3503 C   0  0  0  0  0  0  0  0  0  0  0  0
  -29.3286  -12.6675  147.0628 C   0  0  0  0  0  0  0  0  0  0  0  0
  -27.8961  -12.6298  146.8209 C   0  0  0  0  0  0  0  0  0  0  0  0
  -27.2507  -13.8531  146.8939 C   0  0  0  0  0  0  0  0  0  0  0  0
  -25.9669  -13.6261  146.4482 N   0  0  0  0  0  0  0  0  0  0  0  0
  -27.8341  -11.4545  146.1262 C   0  0  0  0  0  0  0  0  0  0  0  0
  -30.1168  -11.5953  147.1178 O   0  0  0  0  0  0  0  0  0  0  0  0
  1  2  2  3
  2  3  1  0
  3  4  1  0
  4  5  1  0
  5  6  1  0
  1  9  1  0
  9 10  1  0
 10 11  1  0
 11 12  1  0
 12 13  1  0
 17 22  1  0
  8  7  1  0
 13 14  1  0
 14 15  2  0
 15 16  1  0
 16 17  2  0
 17 18  1  0
 19 14  1  0
  6  7  1  0
  7 21  2  0
 21 18  1  0
 18 19  2  0
 19 20  1  0
 20  6  2  0
M  END

$$$$
No_57-/dssg/home/sw_qyf/PocketFlow/Model-Generation-Results/5HT2A_7WC7_rec_A_10.pdb/2024-01-01-03-54-21/
     RDKit          3D

 25 26  0  0  0  0  0  0  0  0999 V2000
  -24.1553  -17.8465  145.7021 C   0  0  0  0  0  0  0  0  0  0  0  0
  -23.9795  -18.4462  146.7426 C   0  0  0  0  0  0  0  0  0  0  0  0
  -24.3577  -16.4380  145.7329 C   0  0  0  0  0  0  0  0  0  0  0  0
  -24.6120  -15.7738  146.9649 C   0  0  0  0  0  0  0  0  0  0  0  0
  -24.4666  -16.5590  148.1483 C   0  0  0  0  0  0  0  0  0  0  0  0
  -24.1608  -17.8621  148.1048 C   0  0  0  0  0  0  0  0  0  0  0  0
  -24.4723  -15.5994  144.5525 C   0  0  0  0  0  0  0  0  0  0  0  0
  -23.7346  -14.3314  144.5525 C   0  0  0  0  0  0  0  0  0  0  0  0
  -24.4532  -13.1874  145.1102 C   0  0  0  0  0  0  0  0  0  0  0  0
  -23.5750  -12.0876  145.4031 C   0  0  0  0  0  0  0  0  0  0  0  0
  -25.5998  -12.7337  144.1920 C   0  0  0  0  0  0  0  0  0  0  0  0
  -26.4969  -11.8281  144.9691 C   0  0  0  0  0  0  0  0  0  0  0  0
  -27.0584  -12.3209  146.1547 C   0  0  0  0  0  0  0  0  0  0  0  0
  -28.4982  -12.0258  146.3159 C   0  0  0  0  0  0  0  0  0  0  0  0
  -29.2093  -12.4601  147.5076 C   0  0  0  0  0  0  0  0  0  0  0  0
  -29.2846  -13.7560  147.7816 C   0  0  0  0  0  0  0  0  0  0  0  0
  -28.4328  -14.6710  147.2352 C   0  0  0  0  0  0  0  0  0  0  0  0
  -28.4016  -16.0523  147.4189 C   0  0  0  0  0  0  0  0  0  0  0  0
  -27.6227  -16.9366  146.6710 C   0  0  0  0  0  0  0  0  0  0  0  0
  -29.1409  -11.2288  145.3653 C   0  0  0  0  0  0  0  0  0  0  0  0
  -28.6954  -10.7357  144.2014 C   0  0  0  0  0  0  0  0  0  0  0  0
  -29.3001   -9.9523  143.2577 C   0  0  0  0  0  0  0  0  0  0  0  0
  -30.3145   -9.0978  143.6543 C   0  0  0  0  0  0  0  0  0  0  0  0
  -31.1347   -8.4061  142.7331 C   0  0  0  0  0  0  0  0  0  0  0  0
  -27.5812  -11.2541  144.0072 C   0  0  0  0  0  0  0  0  0  0  0  0
  3  7  1  0
  7  8  1  0
  8  9  1  0
  9 10  1  0
  9 11  1  0
 11 12  1  0
 14 15  1  0
 15 16  1  0
 16 17  2  3
 17 18  1  0
 18 19  2  0
 21 22  1  0
 22 23  2  3
 23 24  1  0
 12 13  2  0
 13 14  1  0
 14 20  2  0
 20 21  1  0
 21 25  2  0
 25 12  1  0
  1  2  2  0
  2  6  1  0
  6  5  2  0
  5  4  1  0
  4  3  2  0
  3  1  1  0
M  END

$$$$
No_58-/dssg/home/sw_qyf/PocketFlow/Model-Generation-Results/5HT2A_7WC7_rec_A_10.pdb/2024-01-01-03-54-21/
     RDKit          3D

 35 38  0  0  0  0  0  0  0  0999 V2000
  -24.1553  -17.8465  145.7021 C   0  0  0  0  0  0  0  0  0  0  0  0
  -23.9795  -18.4462  146.7426 C   0  0  0  0  0  0  0  0  0  0  0  0
  -25.1593  -16.8262  145.6925 C   0  0  0  0  0  0  0  0  0  0  0  0
  -24.9465  -15.5961  144.9952 C   0  0  0  0  0  0  0  0  0  0  0  0
  -25.8339  -14.4742  145.0599 C   0  0  0  0  0  0  0  0  0  0  0  0
  -25.6289  -13.3152  144.3271 C   0  0  0  0  0  0  0  0  0  0  0  0
  -26.3061  -12.2999  144.8790 C   0  0  0  0  0  0  0  0  0  0  0  0
  -25.5962  -11.3211  145.3840 C   0  0  0  0  0  0  0  0  0  0  0  0
  -24.5844  -18.0904  147.9939 C   0  0  0  0  0  0  0  0  0  0  0  0
  -25.5128  -17.0524  148.0589 C   0  0  0  0  0  0  0  0  0  0  0  0
  -25.6376  -16.4378  147.1356 C   0  0  0  0  0  0  0  0  0  0  0  0
  -27.7093  -11.9853  144.5405 C   0  0  0  0  0  0  0  0  0  0  0  0
  -28.1153  -11.3654  143.6028 C   0  0  0  0  0  0  0  0  0  0  0  0
  -29.3593  -10.5615  143.6037 C   0  0  0  0  0  0  0  0  0  0  0  0
  -29.8486   -9.8528  142.5478 C   0  0  0  0  0  0  0  0  0  0  0  0
  -31.0278   -9.0434  142.6461 C   0  0  0  0  0  0  0  0  0  0  0  0
  -31.3734   -8.6392  143.8990 N   0  0  0  0  0  0  0  0  0  0  0  0
  -31.5504   -8.5682  141.6261 O   0  0  0  0  0  0  0  0  0  0  0  0
  -26.4410  -15.1493  147.1890 C   0  0  0  0  0  0  0  0  0  0  0  0
  -26.3123  -14.0983  146.3942 C   0  0  0  0  0  0  0  0  0  0  0  0
  -29.3422  -10.2084  141.2576 C   0  0  0  0  0  0  0  0  0  0  0  0
  -28.2931  -11.1845  141.1515 C   0  0  0  0  0  0  0  0  0  0  0  0
  -27.7218  -11.7367  142.3215 C   0  0  0  0  0  0  0  0  0  0  0  0
  -27.7514  -11.1935  139.8520 C   0  0  0  0  0  0  0  0  0  0  0  0
  -27.5452  -12.5736  139.4135 C   0  0  0  0  0  0  0  0  0  0  0  0
  -26.9275  -12.6107  138.0783 C   0  0  0  0  0  0  0  0  0  0  0  0
  -28.2132  -10.3014  138.8537 C   0  0  0  0  0  0  0  0  0  0  0  0
  -25.9396  -16.7852  149.3413 O   0  0  0  0  0  0  0  0  0  0  0  0
  -26.1861  -10.5303  146.2796 O   0  0  0  0  0  0  0  0  0  0  0  0
  -24.2941  -11.3677  145.4117 O   0  0  0  0  0  0  0  0  0  0  0  0
  -23.9818  -18.3947  144.5960 O   0  0  0  0  0  0  0  0  0  0  0  0
  -28.4225  -10.6174  137.5645 C   0  0  0  0  0  0  0  0  0  0  0  0
  -27.7349  -11.7894  137.1914 C   0  0  0  0  0  0  0  0  0  0  0  0
  -28.7460   -9.7393  136.6253 N   0  0  0  0  0  0  0  0  0  0  0  0
  -26.8444  -17.6798  149.8635 C   0  0  0  0  0  0  0  0  0  0  0  0
  1  2  1  0
  1  3  1  0
  5  6  1  0
  6  7  1  0
  7  8  2  3
  2  9  1  0
  9 10  1  0
 10 11  1  0
  7 12  1  0
 15 16  1  0
 16 17  1  0
 16 18  2  0
 22 24  1  0
 10 28  1  0
  8 29  1  0
  8 30  1  0
  1 31  1  0
 32 34  1  0
 28 35  1  0
 12 13  1  0
 24 25  2  0
 25 26  1  0
 26 33  2  0
 33 32  1  0
 32 27  2  0
 27 24  1  0
  3  4  2  0
  4  5  1  0
  5 20  2  0
 20 19  1  0
 19 11  2  0
 11  3  1  0
 13 14  2  0
 14 15  1  0
 15 21  2  0
 21 22  1  0
 22 23  2  0
 23 13  1  0
M  END

$$$$
No_59-/dssg/home/sw_qyf/PocketFlow/Model-Generation-Results/5HT2A_7WC7_rec_A_10.pdb/2024-01-01-03-54-21/
     RDKit          3D

 16 17  0  0  0  0  0  0  0  0999 V2000
  -23.1746  -16.6014  144.8668 C   0  0  0  0  0  0  0  0  0  0  0  0
  -23.8963  -15.5346  144.7885 C   0  0  0  0  0  0  0  0  0  0  0  0
  -24.5755  -15.0383  145.9043 C   0  0  0  0  0  0  0  0  0  0  0  0
  -25.0618  -13.6819  146.0347 C   0  0  0  0  0  0  0  0  0  0  0  0
  -24.0242  -12.8249  145.9593 C   0  0  0  0  0  0  0  0  0  0  0  0
  -23.4085  -17.5675  145.8907 C   0  0  0  0  0  0  0  0  0  0  0  0
  -24.1896  -17.1706  147.0047 C   0  0  0  0  0  0  0  0  0  0  0  0
  -24.7247  -15.8941  147.1004 C   0  0  0  0  0  0  0  0  0  0  0  0
  -26.3539  -13.2621  146.1677 C   0  0  0  0  0  0  0  0  0  0  0  0
  -26.7195  -11.8998  146.1990 C   0  0  0  0  0  0  0  0  0  0  0  0
  -24.3699  -11.3722  145.9377 C   0  0  0  0  0  0  0  0  0  0  0  0
  -25.6543  -10.9688  146.0210 C   0  0  0  0  0  0  0  0  0  0  0  0
  -24.1032  -14.6949  143.8423 O   0  0  0  0  0  0  0  0  0  0  0  0
  -24.2051  -18.0572  148.2106 C   0  0  0  0  0  0  0  0  0  0  0  0
  -23.5131  -17.4382  149.4433 C   0  0  0  0  0  0  0  0  0  0  0  0
  -24.1987  -16.4268  150.1917 C   0  0  0  0  0  0  0  0  0  0  0  0
  3  4  1  0
  2 13  1  0
  7 14  1  0
 14 15  1  0
 15 16  1  0
  1  2  2  0
  2  3  1  0
  3  8  2  0
  8  7  1  0
  7  6  2  0
  6  1  1  0
  4  5  2  0
  5 11  1  0
 11 12  2  0
 12 10  1  0
 10  9  2  0
  9  4  1  0
M  END

$$$$
No_60-/dssg/home/sw_qyf/PocketFlow/Model-Generation-Results/5HT2A_7WC7_rec_A_10.pdb/2024-01-01-03-54-21/
     RDKit          3D

 35 38  0  0  0  0  0  0  0  0999 V2000
  -23.1746  -16.6014  144.8668 C   0  0  0  0  0  0  0  0  0  0  0  0
  -23.6940  -15.6411  144.6033 N   0  0  0  0  0  0  0  0  0  0  0  0
  -24.4369  -14.8700  145.4473 C   0  0  0  0  0  0  0  0  0  0  0  0
  -24.7376  -13.4964  145.2251 C   0  0  0  0  0  0  0  0  0  0  0  0
  -26.0400  -13.0759  145.4039 C   0  0  0  0  0  0  0  0  0  0  0  0
  -26.4230  -11.7771  145.0558 C   0  0  0  0  0  0  0  0  0  0  0  0
  -23.8125  -17.3999  145.8113 N   0  0  0  0  0  0  0  0  0  0  0  0
  -24.5964  -16.8696  146.7525 C   0  0  0  0  0  0  0  0  0  0  0  0
  -24.8968  -15.5120  146.6273 C   0  0  0  0  0  0  0  0  0  0  0  0
  -27.7869  -11.3704  145.1311 C   0  0  0  0  0  0  0  0  0  0  0  0
  -28.7030  -12.0483  146.0006 C   0  0  0  0  0  0  0  0  0  0  0  0
  -28.2595  -13.3405  146.4672 C   0  0  0  0  0  0  0  0  0  0  0  0
  -29.1730  -14.0933  147.1784 C   0  0  0  0  0  0  0  0  0  0  0  0
  -26.9992  -13.7749  146.2549 C   0  0  0  0  0  0  0  0  0  0  0  0
  -28.8920  -15.3453  147.6002 N   0  0  0  0  0  0  0  0  0  0  0  0
  -30.2805  -13.5793  147.8219 N   0  0  0  0  0  0  0  0  0  0  0  0
  -24.9711  -17.6622  147.9427 C   0  0  0  0  0  0  0  0  0  0  0  0
  -25.6687  -16.6490  148.9635 C   0  0  0  0  0  0  0  0  0  0  0  0
  -30.6778  -12.3448  147.7661 C   0  0  0  0  0  0  0  0  0  0  0  0
  -29.9265  -11.5352  146.7083 N   0  0  0  0  0  0  0  0  0  0  0  0
  -31.5712  -11.7580  148.2661 O   0  0  0  0  0  0  0  0  0  0  0  0
  -23.8380  -12.7860  144.6562 O   0  0  0  0  0  0  0  0  0  0  0  0
  -28.1810  -10.0166  144.6602 C   0  0  0  0  0  0  0  0  0  0  0  0
  -27.7033   -9.7426  143.3132 C   0  0  0  0  0  0  0  0  0  0  0  0
  -28.6361   -9.1780  142.4091 C   0  0  0  0  0  0  0  0  0  0  0  0
  -28.4697   -9.2684  141.0196 C   0  0  0  0  0  0  0  0  0  0  0  0
  -29.2246   -8.6538  140.0612 C   0  0  0  0  0  0  0  0  0  0  0  0
  -30.2578   -7.8159  140.5819 C   0  0  0  0  0  0  0  0  0  0  0  0
  -30.5551   -7.7313  141.9334 C   0  0  0  0  0  0  0  0  0  0  0  0
  -29.7478   -8.3893  142.8723 C   0  0  0  0  0  0  0  0  0  0  0  0
  -28.9042   -8.4427  138.8053 N   0  0  0  0  0  0  0  0  0  0  0  0
  -28.6899   -7.8499  137.7882 C   0  0  0  0  0  0  0  0  0  0  0  0
  -28.2401   -9.9230  138.4361 C   0  0  0  0  0  0  0  0  0  0  0  0
  -27.4268  -10.5195  139.3840 C   0  0  0  0  0  0  0  0  0  0  0  0
  -26.6616  -11.7775  139.0859 C   0  0  0  0  0  0  0  0  0  0  0  0
  3  4  1  0
  4  5  1  0
 12 13  1  0
 13 15  1  0
  8 17  1  0
 17 18  1  0
 16 19  1  0
 11 20  1  0
 19 20  1  0
 19 21  2  0
  4 22  2  0
 10 23  1  0
 23 24  1  0
 24 25  1  0
 27 31  1  0
 31 32  1  0
 31 33  1  0
 33 34  1  0
 34 35  1  0
 16 13  1  0
  5  6  2  0
  6 10  1  0
 10 11  2  0
 11 12  1  0
 12 14  2  0
 14  5  1  0
 25 26  2  0
 26 27  1  0
 27 28  2  0
 28 29  1  0
 29 30  2  0
 30 25  1  0
  1  2  2  0
  2  3  1  0
  3  9  2  0
  9  8  1  0
  8  7  2  0
  7  1  1  0
M  END

$$$$
No_61-/dssg/home/sw_qyf/PocketFlow/Model-Generation-Results/5HT2A_7WC7_rec_A_10.pdb/2024-01-01-03-54-21/
     RDKit          3D

 17 18  0  0  0  0  0  0  0  0999 V2000
  -24.1553  -17.8465  145.7021 C   0  0  0  0  0  0  0  0  0  0  0  0
  -24.2856  -16.6364  145.3494 C   0  0  0  0  0  0  0  0  0  0  0  0
  -24.7211  -15.5955  146.2115 C   0  0  0  0  0  0  0  0  0  0  0  0
  -25.1322  -16.0374  147.5372 C   0  0  0  0  0  0  0  0  0  0  0  0
  -24.5163  -18.2968  146.9928 C   0  0  0  0  0  0  0  0  0  0  0  0
  -24.9534  -17.3074  147.9886 C   0  0  0  0  0  0  0  0  0  0  0  0
  -24.8795  -14.1918  145.8039 C   0  0  0  0  0  0  0  0  0  0  0  0
  -25.6511  -13.2777  146.3865 C   0  0  0  0  0  0  0  0  0  0  0  0
  -25.5507  -11.9400  146.0352 C   0  0  0  0  0  0  0  0  0  0  0  0
  -23.9857  -13.7410  144.7595 C   0  0  0  0  0  0  0  0  0  0  0  0
  -23.6759  -12.3001  144.6314 C   0  0  0  0  0  0  0  0  0  0  0  0
  -24.5577  -11.4176  145.2501 C   0  0  0  0  0  0  0  0  0  0  0  0
  -23.9731  -16.2532  144.1104 O   0  0  0  0  0  0  0  0  0  0  0  0
  -25.2061  -17.6960  149.3901 C   0  0  0  0  0  0  0  0  0  0  0  0
  -24.1510  -18.0447  150.1109 F   0  0  0  0  0  0  0  0  0  0  0  0
  -25.7842  -16.5860  150.0117 F   0  0  0  0  0  0  0  0  0  0  0  0
  -25.6811  -11.0491  147.1460 F   0  0  0  0  0  0  0  0  0  0  0  0
  3  7  1  0
  2 13  1  0
  6 14  1  0
 14 15  1  0
 14 16  1  0
  9 17  1  0
  1  2  2  0
  2  3  1  0
  3  4  2  0
  4  6  1  0
  6  5  2  0
  5  1  1  0
  7  8  2  0
  8  9  1  0
  9 12  2  0
 12 11  1  0
 11 10  2  0
 10  7  1  0
M  END

$$$$
No_62-/dssg/home/sw_qyf/PocketFlow/Model-Generation-Results/5HT2A_7WC7_rec_A_10.pdb/2024-01-01-03-54-21/
     RDKit          3D

 22 24  0  0  0  0  0  0  0  0999 V2000
  -23.1746  -16.6014  144.8668 C   0  0  0  0  0  0  0  0  0  0  0  0
  -23.7011  -17.0158  145.9774 C   0  0  0  0  0  0  0  0  0  0  0  0
  -23.7336  -18.2775  146.3737 C   0  0  0  0  0  0  0  0  0  0  0  0
  -23.5409  -19.2836  145.4567 C   0  0  0  0  0  0  0  0  0  0  0  0
  -23.2303  -15.1836  144.5024 C   0  0  0  0  0  0  0  0  0  0  0  0
  -23.9488  -14.2204  145.2760 C   0  0  0  0  0  0  0  0  0  0  0  0
  -23.9758  -12.8302  144.9386 C   0  0  0  0  0  0  0  0  0  0  0  0
  -24.5696  -14.6613  146.5373 C   0  0  0  0  0  0  0  0  0  0  0  0
  -24.4439  -16.0408  146.9335 C   0  0  0  0  0  0  0  0  0  0  0  0
  -23.9371  -11.8898  145.4211 C   0  0  0  0  0  0  0  0  0  0  0  0
  -24.0931  -12.0410  146.9299 C   0  0  0  0  0  0  0  0  0  0  0  0
  -24.5578  -13.4074  147.4371 C   0  0  0  0  0  0  0  0  0  0  0  0
  -23.5396  -20.5761  146.0557 N   0  0  0  0  0  0  0  0  0  0  0  0
  -23.3636  -19.1975  144.3465 O   0  0  0  0  0  0  0  0  0  0  0  0
  -24.9109  -16.3495  148.0941 O   0  0  0  0  0  0  0  0  0  0  0  0
  -26.2858  -16.5157  148.2000 C   0  0  0  0  0  0  0  0  0  0  0  0
  -27.2306  -15.8870  147.4807 C   0  0  0  0  0  0  0  0  0  0  0  0
  -28.5717  -15.9929  147.7620 C   0  0  0  0  0  0  0  0  0  0  0  0
  -29.5218  -15.2293  147.0423 C   0  0  0  0  0  0  0  0  0  0  0  0
  -29.0151  -14.2064  146.2135 C   0  0  0  0  0  0  0  0  0  0  0  0
  -27.7068  -13.9632  146.0000 C   0  0  0  0  0  0  0  0  0  0  0  0
  -26.7601  -14.8116  146.7044 C   0  0  0  0  0  0  0  0  0  0  0  0
  3  4  1  0
  4 13  1  0
  4 14  2  0
  9 15  1  0
 15 16  1  0
  3  2  1  0
 16 17  1  0
 17 18  2  0
 18 19  1  0
 19 20  2  0
 20 21  1  0
 21 22  2  0
 22 17  1  0
  6  7  1  0
  7 10  2  0
 10 11  1  0
 11 12  2  0
 12  8  1  0
  1  2  2  0
  2  9  1  0
  9  8  2  0
  8  6  1  0
  6  5  2  0
  5  1  1  0
M  END

$$$$
No_63-/dssg/home/sw_qyf/PocketFlow/Model-Generation-Results/5HT2A_7WC7_rec_A_10.pdb/2024-01-01-03-54-21/
     RDKit          3D

 32 35  0  0  0  0  0  0  0  0999 V2000
  -24.1553  -17.8465  145.7021 C   0  0  0  0  0  0  0  0  0  0  0  0
  -23.9795  -18.4462  146.7426 C   0  0  0  0  0  0  0  0  0  0  0  0
  -25.1196  -16.8106  145.6409 C   0  0  0  0  0  0  0  0  0  0  0  0
  -25.9236  -16.5070  146.7422 C   0  0  0  0  0  0  0  0  0  0  0  0
  -25.6627  -17.1841  147.9274 C   0  0  0  0  0  0  0  0  0  0  0  0
  -24.6813  -18.1540  148.0079 C   0  0  0  0  0  0  0  0  0  0  0  0
  -26.7113  -15.3273  146.8614 C   0  0  0  0  0  0  0  0  0  0  0  0
  -26.4225  -14.1517  146.2374 C   0  0  0  0  0  0  0  0  0  0  0  0
  -25.1674  -13.7907  145.6223 C   0  0  0  0  0  0  0  0  0  0  0  0
  -24.8548  -12.5632  145.2656 C   0  0  0  0  0  0  0  0  0  0  0  0
  -25.8560  -11.5964  145.0730 C   0  0  0  0  0  0  0  0  0  0  0  0
  -27.1682  -11.8409  145.5719 C   0  0  0  0  0  0  0  0  0  0  0  0
  -27.4144  -13.0790  146.1974 C   0  0  0  0  0  0  0  0  0  0  0  0
  -28.7489  -13.3613  146.7270 C   0  0  0  0  0  0  0  0  0  0  0  0
  -29.1503  -14.5299  147.3279 C   0  0  0  0  0  0  0  0  0  0  0  0
  -28.1348  -15.5935  147.3581 C   0  0  0  0  0  0  0  0  0  0  0  0
  -23.4500  -12.1760  144.9018 C   0  0  0  0  0  0  0  0  0  0  0  0
  -22.8446  -11.2166  145.4947 O   0  0  0  0  0  0  0  0  0  0  0  0
  -22.7825  -13.0666  144.1937 O   0  0  0  0  0  0  0  0  0  0  0  0
  -29.7463  -12.2531  146.7246 C   0  0  0  0  0  0  0  0  0  0  0  0
  -29.8466  -11.3706  145.7965 O   0  0  0  0  0  0  0  0  0  0  0  0
  -30.5102  -12.1009  147.7978 O   0  0  0  0  0  0  0  0  0  0  0  0
  -23.5063  -18.0543  144.5278 O   0  0  0  0  0  0  0  0  0  0  0  0
  -30.4030  -14.8119  147.8529 C   0  0  0  0  0  0  0  0  0  0  0  0
  -26.3167  -16.8913  149.0578 O   0  0  0  0  0  0  0  0  0  0  0  0
  -31.1211  -13.5029  147.8518 C   0  0  0  0  0  0  0  0  0  0  0  0
  -31.8202  -13.4144  149.4171 C   0  0  0  0  0  0  0  0  0  0  0  0
  -31.6777  -12.3832  150.0440 O   0  0  0  0  0  0  0  0  0  0  0  0
  -32.5159  -12.1767  151.1677 C   0  0  0  0  0  0  0  0  0  0  0  0
  -33.0037  -10.8392  151.2888 C   0  0  0  0  0  0  0  0  0  0  0  0
  -32.8307  -10.2564  152.3863 O   0  0  0  0  0  0  0  0  0  0  0  0
  -33.3883  -10.2265  150.2907 O   0  0  0  0  0  0  0  0  0  0  0  0
  4  7  1  0
 10 17  1  0
 17 18  2  0
 17 19  1  0
 14 20  1  0
 20 21  2  0
 20 22  1  0
  1 23  1  0
 15 24  1  0
  5 25  1  0
 22 26  1  0
 24 26  1  0
 26 27  1  0
 27 28  1  0
 28 29  1  0
 29 30  1  0
 30 31  1  0
 30 32  2  0
  1  2  2  0
  2  6  1  0
  6  5  2  0
  5  4  1  0
  4  3  2  0
  3  1  1  0
  8  9  2  0
  9 10  1  0
 10 11  2  0
 11 12  1  0
 12 13  2  0
  7  8  1  0
  8 13  1  0
 13 14  1  0
 14 15  2  0
 15 16  1  0
 16  7  2  0
M  END

$$$$
No_64-/dssg/home/sw_qyf/PocketFlow/Model-Generation-Results/5HT2A_7WC7_rec_A_10.pdb/2024-01-01-03-54-21/
     RDKit          3D

 21 21  0  0  0  0  0  0  0  0999 V2000
  -23.1746  -16.6014  144.8668 C   0  0  0  0  0  0  0  0  0  0  0  0
  -24.0189  -16.0564  145.8445 C   0  0  0  0  0  0  0  0  0  0  0  0
  -24.4145  -16.8299  146.9062 C   0  0  0  0  0  0  0  0  0  0  0  0
  -25.2730  -16.2838  147.9150 C   0  0  0  0  0  0  0  0  0  0  0  0
  -25.7919  -14.9951  147.6737 C   0  0  0  0  0  0  0  0  0  0  0  0
  -24.5377  -14.6789  145.6474 C   0  0  0  0  0  0  0  0  0  0  0  0
  -24.1196  -13.8271  144.6537 C   0  0  0  0  0  0  0  0  0  0  0  0
  -25.4048  -14.1729  146.7241 C   0  0  0  0  0  0  0  0  0  0  0  0
  -23.0213  -13.9022  144.1327 O   0  0  0  0  0  0  0  0  0  0  0  0
  -23.9580  -18.1948  147.0502 C   0  0  0  0  0  0  0  0  0  0  0  0
  -24.9479  -12.9356  144.2430 O   0  0  0  0  0  0  0  0  0  0  0  0
  -23.3741  -18.6937  147.9508 O   0  0  0  0  0  0  0  0  0  0  0  0
  -24.7871  -19.0930  146.4496 O   0  0  0  0  0  0  0  0  0  0  0  0
  -25.9907  -12.6043  146.6388 Cl  0  0  0  0  0  0  0  0  0  0  0  0
  -25.7004  -17.0916  149.0842 C   0  0  0  0  0  0  0  0  0  0  0  0
  -26.9482  -17.4151  149.2278 O   0  0  0  0  0  0  0  0  0  0  0  0
  -24.8630  -17.3540  150.0611 O   0  0  0  0  0  0  0  0  0  0  0  0
  -23.8194  -16.9011  143.7534 O   0  0  0  0  0  0  0  0  0  0  0  0
  -23.8678  -16.5471  150.5560 C   0  0  0  0  0  0  0  0  0  0  0  0
  -22.5068  -17.2332  150.7343 C   0  0  0  0  0  0  0  0  0  0  0  0
  -21.6828  -16.5760  151.4977 O   0  0  0  0  0  0  0  0  0  0  0  0
  1  2  1  0
  6  7  1  0
  7  9  1  0
  3 10  1  0
  7 11  2  0
 10 12  2  0
 10 13  1  0
  8 14  1  0
  4 15  1  0
 15 16  2  0
 15 17  1  0
  1 18  1  0
 17 19  1  0
 19 20  1  0
 20 21  1  0
  2  3  2  0
  3  4  1  0
  4  5  2  0
  5  8  1  0
  8  6  2  0
  6  2  1  0
M  END

$$$$
No_65-/dssg/home/sw_qyf/PocketFlow/Model-Generation-Results/5HT2A_7WC7_rec_A_10.pdb/2024-01-01-03-54-21/
     RDKit          3D

 18 19  0  0  0  0  0  0  0  0999 V2000
  -23.1746  -16.6014  144.8668 C   0  0  0  0  0  0  0  0  0  0  0  0
  -23.8963  -15.5346  144.7885 C   0  0  0  0  0  0  0  0  0  0  0  0
  -25.0304  -15.2549  144.5358 C   0  0  0  0  0  0  0  0  0  0  0  0
  -25.6045  -13.9524  144.2294 C   0  0  0  0  0  0  0  0  0  0  0  0
  -24.8624  -12.8904  144.6738 C   0  0  0  0  0  0  0  0  0  0  0  0
  -23.5278  -13.1645  145.1476 C   0  0  0  0  0  0  0  0  0  0  0  0
  -23.0148  -14.3796  145.1899 C   0  0  0  0  0  0  0  0  0  0  0  0
  -22.4430  -16.8557  145.6273 F   0  0  0  0  0  0  0  0  0  0  0  0
  -24.3123  -17.6477  144.7989 F   0  0  0  0  0  0  0  0  0  0  0  0
  -22.7414  -11.8762  145.4891 C   0  0  0  0  0  0  0  0  0  0  0  0
  -27.0125  -13.7709  143.8545 C   0  0  0  0  0  0  0  0  0  0  0  0
  -27.3108  -12.3792  143.5119 C   0  0  0  0  0  0  0  0  0  0  0  0
  -27.5367  -12.0252  142.1716 C   0  0  0  0  0  0  0  0  0  0  0  0
  -28.1019  -10.8529  141.7639 C   0  0  0  0  0  0  0  0  0  0  0  0
  -28.3010  -10.5408  140.4055 C   0  0  0  0  0  0  0  0  0  0  0  0
  -27.8157  -11.5133  139.4678 C   0  0  0  0  0  0  0  0  0  0  0  0
  -27.1811  -12.8584  141.0576 C   0  0  0  0  0  0  0  0  0  0  0  0
  -27.2628  -12.6155  139.8427 C   0  0  0  0  0  0  0  0  0  0  0  0
  1  2  1  0
  1  8  1  0
  1  9  1  0
  6 10  1  0
  4 11  1  0
 11 12  1  0
 12 13  1  0
  2  3  2  0
  3  4  1  0
  4  5  2  0
  5  6  1  0
  6  7  2  0
  7  2  1  0
 13 14  2  0
 14 15  1  0
 15 16  2  0
 16 18  1  0
 18 17  2  0
 17 13  1  0
M  END

$$$$
No_66-/dssg/home/sw_qyf/PocketFlow/Model-Generation-Results/5HT2A_7WC7_rec_A_10.pdb/2024-01-01-03-54-21/
     RDKit          3D

 21 22  0  0  0  0  0  0  0  0999 V2000
  -24.1553  -17.8465  145.7021 C   0  0  0  0  0  0  0  0  0  0  0  0
  -23.9795  -18.4462  146.7426 C   0  0  0  0  0  0  0  0  0  0  0  0
  -25.1196  -16.8106  145.6408 C   0  0  0  0  0  0  0  0  0  0  0  0
  -25.5716  -16.3544  146.4211 C   0  0  0  0  0  0  0  0  0  0  0  0
  -25.4257  -16.8469  147.8252 C   0  0  0  0  0  0  0  0  0  0  0  0
  -24.4913  -17.8322  148.0252 C   0  0  0  0  0  0  0  0  0  0  0  0
  -26.5754  -15.0828  146.4233 C   0  0  0  0  0  0  0  0  0  0  0  0
  -26.1513  -13.8716  146.0957 C   0  0  0  0  0  0  0  0  0  0  0  0
  -26.7151  -13.0249  145.6235 C   0  0  0  0  0  0  0  0  0  0  0  0
  -26.2989  -11.9929  144.6980 C   0  0  0  0  0  0  0  0  0  0  0  0
  -24.9217  -11.6915  145.0093 C   0  0  0  0  0  0  0  0  0  0  0  0
  -24.0248  -12.5904  145.5786 C   0  0  0  0  0  0  0  0  0  0  0  0
  -24.6346  -13.7622  146.1814 C   0  0  0  0  0  0  0  0  0  0  0  0
  -27.9234  -15.3757  146.7120 C   0  0  0  0  0  0  0  0  0  0  0  0
  -27.0844  -11.2740  143.8264 C   0  0  0  0  0  0  0  0  0  0  0  0
  -27.5250  -10.2384  143.6028 C   0  0  0  0  0  0  0  0  0  0  0  0
  -28.4982   -9.7154  142.6308 C   0  0  0  0  0  0  0  0  0  0  0  0
  -28.4304  -10.1625  141.3339 C   0  0  0  0  0  0  0  0  0  0  0  0
  -27.5242  -10.4617  140.7876 C   0  0  0  0  0  0  0  0  0  0  0  0
  -27.3004  -10.7893  139.3228 C   0  0  0  0  0  0  0  0  0  0  0  0
  -28.5380  -16.5819  146.6408 C   0  0  0  0  0  0  0  0  0  0  0  0
  4  7  1  0
  7  8  1  0
  7 14  1  0
 10 15  1  0
 15 16  2  3
 16 17  1  0
 17 18  1  0
 18 19  2  3
 19 20  1  0
 14 21  1  0
  1  2  2  0
  2  6  1  0
  6  5  2  0
  5  4  1  0
  4  3  2  0
  3  1  1  0
  8  9  2  0
  9 10  1  0
 10 11  2  0
 11 12  1  0
 12 13  2  0
 13  8  1  0
M  END

$$$$
No_67-/dssg/home/sw_qyf/PocketFlow/Model-Generation-Results/5HT2A_7WC7_rec_A_10.pdb/2024-01-01-03-54-21/
     RDKit          3D

 35 38  0  0  0  0  0  0  0  0999 V2000
  -24.1553  -17.8465  145.7021 C   0  0  0  0  0  0  0  0  0  0  0  0
  -24.6364  -17.2931  146.7091 C   0  0  0  0  0  0  0  0  0  0  0  0
  -24.0780  -17.2921  147.9389 C   0  0  0  0  0  0  0  0  0  0  0  0
  -22.7158  -17.6979  148.0096 C   0  0  0  0  0  0  0  0  0  0  0  0
  -22.1536  -18.1706  146.8775 N   0  0  0  0  0  0  0  0  0  0  0  0
  -22.8078  -18.2078  145.7630 C   0  0  0  0  0  0  0  0  0  0  0  0
  -26.1142  -16.8159  146.6805 C   0  0  0  0  0  0  0  0  0  0  0  0
  -27.0241  -17.1737  147.2349 C   0  0  0  0  0  0  0  0  0  0  0  0
  -28.3868  -16.6063  147.2987 C   0  0  0  0  0  0  0  0  0  0  0  0
  -28.5654  -15.3939  146.5750 C   0  0  0  0  0  0  0  0  0  0  0  0
  -27.4618  -14.8677  145.9180 C   0  0  0  0  0  0  0  0  0  0  0  0
  -27.5577  -13.6671  145.1607 C   0  0  0  0  0  0  0  0  0  0  0  0
  -26.2463  -15.4783  145.9250 C   0  0  0  0  0  0  0  0  0  0  0  0
  -28.0308  -12.4251  145.7612 C   0  0  0  0  0  0  0  0  0  0  0  0
  -28.1607  -11.2354  145.1059 C   0  0  0  0  0  0  0  0  0  0  0  0
  -27.7518  -11.0973  143.7663 C   0  0  0  0  0  0  0  0  0  0  0  0
  -27.3258  -12.3137  143.1660 C   0  0  0  0  0  0  0  0  0  0  0  0
  -27.1521  -13.4991  143.8133 C   0  0  0  0  0  0  0  0  0  0  0  0
  -28.0228   -9.9217  143.0374 C   0  0  0  0  0  0  0  0  0  0  0  0
  -28.7972   -8.9019  143.7053 C   0  0  0  0  0  0  0  0  0  0  0  0
  -29.8888   -8.3706  142.9370 C   0  0  0  0  0  0  0  0  0  0  0  0
  -30.5279   -8.8172  142.2785 C   0  0  0  0  0  0  0  0  0  0  0  0
  -29.9183   -9.5833  141.3143 N   0  0  0  0  0  0  0  0  0  0  0  0
  -28.9308  -10.4650  141.9689 C   0  0  0  0  0  0  0  0  0  0  0  0
  -31.6169   -8.1097  141.5038 N   0  0  0  0  0  0  0  0  0  0  0  0
  -28.3378  -11.1790  141.0374 O   0  0  0  0  0  0  0  0  0  0  0  0
  -27.4408  -10.8237  140.1523 C   0  0  0  0  0  0  0  0  0  0  0  0
  -27.6406  -11.2411  138.8014 C   0  0  0  0  0  0  0  0  0  0  0  0
  -27.0327  -12.5962  138.6706 C   0  0  0  0  0  0  0  0  0  0  0  0
  -25.6870  -12.4810  139.2810 C   0  0  0  0  0  0  0  0  0  0  0  0
  -25.1998  -13.7672  139.3642 O   0  0  0  0  0  0  0  0  0  0  0  0
  -28.4087  -12.4997  147.0724 F   0  0  0  0  0  0  0  0  0  0  0  0
  -27.2527  -10.2733  137.9044 O   0  0  0  0  0  0  0  0  0  0  0  0
  -28.3695   -9.1931  137.3062 P   0  0  0  0  0  0  0  0  0  0  0  0
  -27.9091   -7.8098  137.5600 O   0  0  0  0  0  0  0  0  0  0  0  0
  2  7  1  0
 11 12  1  0
 16 19  1  0
 19 20  1  0
 20 21  1  0
 21 22  1  0
 22 23  1  0
 19 24  1  0
 23 24  1  0
 22 25  1  0
 24 26  1  0
 26 27  1  0
 27 28  1  0
 28 29  1  0
 29 30  1  0
 30 31  1  0
 14 32  1  0
 28 33  1  0
 33 34  1  0
 34 35  1  0
  7  8  2  0
  8  9  1  0
  9 10  2  0
 10 11  1  0
 11 13  2  0
 13  7  1  0
  1  2  2  0
  2  3  1  0
  3  4  2  0
  4  5  1  0
  5  6  2  0
  6  1  1  0
 12 14  2  0
 14 15  1  0
 15 16  2  0
 16 17  1  0
 17 18  2  0
 18 12  1  0
M  END

$$$$
No_68-/dssg/home/sw_qyf/PocketFlow/Model-Generation-Results/5HT2A_7WC7_rec_A_10.pdb/2024-01-01-03-54-21/
     RDKit          3D

 25 26  0  0  0  0  0  0  0  0999 V2000
  -23.1746  -16.6014  144.8668 C   0  0  0  0  0  0  0  0  0  0  0  0
  -24.0189  -16.0564  145.8445 C   0  0  0  0  0  0  0  0  0  0  0  0
  -24.4145  -16.8299  146.9062 C   0  0  0  0  0  0  0  0  0  0  0  0
  -23.9612  -18.1384  147.0126 C   0  0  0  0  0  0  0  0  0  0  0  0
  -23.1429  -18.6221  146.0418 C   0  0  0  0  0  0  0  0  0  0  0  0
  -22.8095  -17.8231  145.0610 N   0  0  0  0  0  0  0  0  0  0  0  0
  -24.5671  -14.6439  145.6745 C   0  0  0  0  0  0  0  0  0  0  0  0
  -23.7199  -13.6057  145.4272 C   0  0  0  0  0  0  0  0  0  0  0  0
  -24.1875  -12.2632  145.3560 C   0  0  0  0  0  0  0  0  0  0  0  0
  -25.4861  -12.1422  145.7200 C   0  0  0  0  0  0  0  0  0  0  0  0
  -26.3956  -13.0569  146.1057 C   0  0  0  0  0  0  0  0  0  0  0  0
  -25.9078  -14.3927  146.1392 C   0  0  0  0  0  0  0  0  0  0  0  0
  -27.6926  -12.8315  146.5039 N   0  0  0  0  0  0  0  0  0  0  0  0
  -28.4877  -13.5861  147.1206 C   0  0  0  0  0  0  0  0  0  0  0  0
  -29.7950  -13.0474  147.4845 C   0  0  0  0  0  0  0  0  0  0  0  0
  -30.6429  -13.6084  148.3473 N   0  0  0  0  0  0  0  0  0  0  0  0
  -30.2374  -11.9759  146.7972 O   0  0  0  0  0  0  0  0  0  0  0  0
  -28.1502  -14.7249  147.5454 O   0  0  0  0  0  0  0  0  0  0  0  0
  -26.1370  -10.4213  145.7635 Cl  0  0  0  0  0  0  0  0  0  0  0  0
  -31.7934  -13.0422  148.9072 C   0  0  0  0  0  0  0  0  0  0  0  0
  -31.4424  -12.3795  150.3070 C   0  0  0  0  0  0  0  0  0  0  0  0
  -32.6033  -11.6918  150.9137 C   0  0  0  0  0  0  0  0  0  0  0  0
  -33.8037  -12.0472  150.7801 Cl  0  0  0  0  0  0  0  0  0  0  0  0
  -32.1646  -10.5672  151.4471 F   0  0  0  0  0  0  0  0  0  0  0  0
  -22.8443  -15.9064  143.8705 O   0  0  0  0  0  0  0  0  0  0  0  0
  1  2  1  0
  3  4  1  0
  1  6  1  0
  5  6  1  0
  2  7  1  0
 11 13  1  0
 13 14  1  0
 14 15  1  0
 15 16  1  0
 15 17  2  0
 14 18  2  0
 10 19  1  0
 16 20  1  0
 20 21  1  0
 21 22  1  0
 22 23  1  0
 22 24  1  0
  1 25  2  0
  2  3  1  0
  4  5  1  0
  7  8  2  0
  8  9  1  0
  9 10  2  0
 10 11  1  0
 11 12  2  0
 12  7  1  0
M  END

$$$$
No_69-/dssg/home/sw_qyf/PocketFlow/Model-Generation-Results/5HT2A_7WC7_rec_A_10.pdb/2024-01-01-03-54-21/
     RDKit          3D

 30 33  0  0  0  0  0  0  0  0999 V2000
  -23.1746  -16.6014  144.8668 C   0  0  0  0  0  0  0  0  0  0  0  0
  -23.8963  -15.5346  144.7885 C   0  0  0  0  0  0  0  0  0  0  0  0
  -25.0304  -15.2549  144.5358 C   0  0  0  0  0  0  0  0  0  0  0  0
  -25.6045  -13.9524  144.2294 C   0  0  0  0  0  0  0  0  0  0  0  0
  -26.9716  -13.7632  143.8495 C   0  0  0  0  0  0  0  0  0  0  0  0
  -27.2940  -12.4851  143.3751 C   0  0  0  0  0  0  0  0  0  0  0  0
  -27.3637  -11.4485  144.2830 C   0  0  0  0  0  0  0  0  0  0  0  0
  -28.2521  -10.3276  144.0746 C   0  0  0  0  0  0  0  0  0  0  0  0
  -27.8865   -9.3075  143.3964 C   0  0  0  0  0  0  0  0  0  0  0  0
  -24.0603  -17.7361  144.9954 C   0  0  0  0  0  0  0  0  0  0  0  0
  -24.6938  -17.8116  146.0598 C   0  0  0  0  0  0  0  0  0  0  0  0
  -26.0514  -17.0802  146.1242 C   0  0  0  0  0  0  0  0  0  0  0  0
  -26.0279  -15.7202  145.6858 C   0  0  0  0  0  0  0  0  0  0  0  0
  -28.7551   -8.2233  143.0658 C   0  0  0  0  0  0  0  0  0  0  0  0
  -28.4423   -7.0541  142.4770 C   0  0  0  0  0  0  0  0  0  0  0  0
  -29.2829   -6.3098  141.8580 C   0  0  0  0  0  0  0  0  0  0  0  0
  -30.5997   -6.8982  141.5685 C   0  0  0  0  0  0  0  0  0  0  0  0
  -30.9572   -8.1693  142.0688 C   0  0  0  0  0  0  0  0  0  0  0  0
  -29.9781   -8.8702  142.7473 C   0  0  0  0  0  0  0  0  0  0  0  0
  -30.3221  -10.1929  143.1313 C   0  0  0  0  0  0  0  0  0  0  0  0
  -29.4110  -10.9405  143.8121 N   0  0  0  0  0  0  0  0  0  0  0  0
  -29.1120   -5.0601  141.5198 O   0  0  0  0  0  0  0  0  0  0  0  0
  -27.0624  -14.9020  146.2121 C   0  0  0  0  0  0  0  0  0  0  0  0
  -27.4766  -13.8017  145.3680 C   0  0  0  0  0  0  0  0  0  0  0  0
  -27.7142  -15.2984  147.4012 C   0  0  0  0  0  0  0  0  0  0  0  0
  -28.8479  -15.9024  147.3596 C   0  0  0  0  0  0  0  0  0  0  0  0
  -24.4726  -18.7668  147.1697 C   0  0  0  0  0  0  0  0  0  0  0  0
  -29.8408  -15.1569  146.6568 C   0  0  0  0  0  0  0  0  0  0  0  0
  -23.6432  -18.0835  148.2099 C   0  0  0  0  0  0  0  0  0  0  0  0
  -24.1756  -16.8176  148.8107 C   0  0  0  0  0  0  0  0  0  0  0  0
  1  2  1  0
  2  3  2  0
  3  4  1  0
  4  5  1  0
  5  6  1  0
  6  7  1  0
  7  8  1  0
  1 10  2  0
 10 11  1  0
 11 12  1  0
  3 13  1  0
 12 13  1  0
 16 22  1  0
 13 23  1  0
  5 24  1  0
 23 24  1  0
 23 25  1  0
 25 26  1  0
 11 27  1  0
 26 28  1  0
 27 29  1  0
 29 30  1  0
 14 15  2  0
 15 16  1  0
 16 17  2  0
 17 18  1  0
 18 19  2  0
  8  9  2  0
  9 14  1  0
 14 19  1  0
 19 20  1  0
 20 21  2  0
 21  8  1  0
M  END

$$$$
No_70-/dssg/home/sw_qyf/PocketFlow/Model-Generation-Results/5HT2A_7WC7_rec_A_10.pdb/2024-01-01-03-54-21/
     RDKit          3D

 22 24  0  0  0  0  0  0  0  0999 V2000
  -23.1746  -16.6014  144.8668 C   0  0  0  0  0  0  0  0  0  0  0  0
  -23.7011  -17.0158  145.9774 C   0  0  0  0  0  0  0  0  0  0  0  0
  -23.7336  -18.2775  146.3737 C   0  0  0  0  0  0  0  0  0  0  0  0
  -24.1960  -18.6445  147.6858 C   0  0  0  0  0  0  0  0  0  0  0  0
  -24.7100  -17.6145  148.5486 C   0  0  0  0  0  0  0  0  0  0  0  0
  -24.7929  -16.2635  148.0870 C   0  0  0  0  0  0  0  0  0  0  0  0
  -24.2508  -15.9434  146.8891 C   0  0  0  0  0  0  0  0  0  0  0  0
  -23.4075  -17.2535  143.7899 O   0  0  0  0  0  0  0  0  0  0  0  0
  -22.9557  -15.1892  144.5620 O   0  0  0  0  0  0  0  0  0  0  0  0
  -25.2627  -17.9479  149.8871 C   0  0  0  0  0  0  0  0  0  0  0  0
  -26.4132  -18.0530  150.1531 O   0  0  0  0  0  0  0  0  0  0  0  0
  -24.3898  -17.4236  150.8705 O   0  0  0  0  0  0  0  0  0  0  0  0
  -23.7935  -14.1958  144.2964 C   0  0  0  0  0  0  0  0  0  0  0  0
  -23.3319  -12.9635  144.8595 C   0  0  0  0  0  0  0  0  0  0  0  0
  -24.0426  -12.3167  146.0055 C   0  0  0  0  0  0  0  0  0  0  0  0
  -24.7722  -12.9017  146.6706 C   0  0  0  0  0  0  0  0  0  0  0  0
  -25.3629  -14.0372  146.3576 C   0  0  0  0  0  0  0  0  0  0  0  0
  -24.6395  -14.8961  146.2231 C   0  0  0  0  0  0  0  0  0  0  0  0
  -23.9046  -14.5049  145.0036 C   0  0  0  0  0  0  0  0  0  0  0  0
  -24.5487  -15.1298  144.3352 F   0  0  0  0  0  0  0  0  0  0  0  0
  -22.6918  -14.4633  145.6612 F   0  0  0  0  0  0  0  0  0  0  0  0
  -23.4459  -11.8240  143.9555 O   0  0  0  0  0  0  0  0  0  0  0  0
  1  2  1  0
  1  8  2  0
  1  9  1  0
  5 10  1  0
 10 11  1  0
 10 12  2  0
  9 13  1  0
 13 14  1  0
 14 15  2  0
 15 16  1  0
 16 17  2  0
  7 18  1  0
 17 18  1  0
 13 19  1  0
 18 19  1  0
 13 20  1  0
 19 21  1  0
 14 22  1  0
  2  3  2  0
  3  4  1  0
  4  5  2  0
  5  6  1  0
  6  7  2  0
  7  2  1  0
M  END

$$$$
No_71-/dssg/home/sw_qyf/PocketFlow/Model-Generation-Results/5HT2A_7WC7_rec_A_10.pdb/2024-01-01-03-54-21/
     RDKit          3D

 12 12  0  0  0  0  0  0  0  0999 V2000
  -23.1746  -16.6014  144.8668 C   0  0  0  0  0  0  0  0  0  0  0  0
  -23.7011  -17.0158  145.9774 C   0  0  0  0  0  0  0  0  0  0  0  0
  -24.7095  -16.6222  146.3578 C   0  0  0  0  0  0  0  0  0  0  0  0
  -25.2873  -15.6092  146.1765 C   0  0  0  0  0  0  0  0  0  0  0  0
  -24.9028  -14.8826  144.9736 C   0  0  0  0  0  0  0  0  0  0  0  0
  -23.7674  -15.3980  144.3658 C   0  0  0  0  0  0  0  0  0  0  0  0
  -25.5003  -13.6318  144.4289 C   0  0  0  0  0  0  0  0  0  0  0  0
  -24.8979  -12.6179  144.5657 F   0  0  0  0  0  0  0  0  0  0  0  0
  -25.6595  -13.7875  143.0340 F   0  0  0  0  0  0  0  0  0  0  0  0
  -26.8282  -13.4806  144.8805 F   0  0  0  0  0  0  0  0  0  0  0  0
  -22.8864  -18.5712  146.5361 Cl  0  0  0  0  0  0  0  0  0  0  0  0
  -26.5404  -15.0296  146.8643 C   0  0  0  0  0  0  0  0  0  0  0  0
  5  7  1  0
  7  8  1  0
  7  9  1  0
  7 10  1  0
  2 11  1  0
  4 12  1  0
  1  2  2  0
  2  3  1  0
  3  4  2  0
  4  5  1  0
  5  6  2  0
  6  1  1  0
M  END

$$$$
No_72-/dssg/home/sw_qyf/PocketFlow/Model-Generation-Results/5HT2A_7WC7_rec_A_10.pdb/2024-01-01-03-54-21/
     RDKit          3D

 35 38  0  0  0  0  0  0  0  0999 V2000
  -24.1553  -17.8465  145.7021 C   0  0  0  0  0  0  0  0  0  0  0  0
  -24.6364  -17.2931  146.7091 C   0  0  0  0  0  0  0  0  0  0  0  0
  -24.5709  -15.9334  146.8074 C   0  0  0  0  0  0  0  0  0  0  0  0
  -24.2378  -15.1233  145.7159 C   0  0  0  0  0  0  0  0  0  0  0  0
  -23.7252  -15.7878  144.6028 C   0  0  0  0  0  0  0  0  0  0  0  0
  -23.7316  -17.0968  144.6427 N   0  0  0  0  0  0  0  0  0  0  0  0
  -24.0429  -19.2100  145.5626 N   0  0  0  0  0  0  0  0  0  0  0  0
  -24.2583  -13.6039  145.8467 C   0  0  0  0  0  0  0  0  0  0  0  0
  -23.3983  -12.8604  145.1617 C   0  0  0  0  0  0  0  0  0  0  0  0
  -25.2547  -13.0031  146.6622 C   0  0  0  0  0  0  0  0  0  0  0  0
  -25.5338  -11.6272  146.5172 C   0  0  0  0  0  0  0  0  0  0  0  0
  -26.2660  -11.2933  145.2780 C   0  0  0  0  0  0  0  0  0  0  0  0
  -26.9646  -10.0703  145.2256 C   0  0  0  0  0  0  0  0  0  0  0  0
  -27.7284   -9.7753  144.0414 C   0  0  0  0  0  0  0  0  0  0  0  0
  -27.9029  -10.7478  143.0503 C   0  0  0  0  0  0  0  0  0  0  0  0
  -27.2302  -12.0375  143.2607 C   0  0  0  0  0  0  0  0  0  0  0  0
  -26.4757  -12.2877  144.3569 C   0  0  0  0  0  0  0  0  0  0  0  0
  -28.7415  -10.4685  141.9506 C   0  0  0  0  0  0  0  0  0  0  0  0
  -28.4649  -11.1405  140.7370 C   0  0  0  0  0  0  0  0  0  0  0  0
  -28.3346  -12.4410  140.5931 C   0  0  0  0  0  0  0  0  0  0  0  0
  -27.9098  -12.9040  139.3031 C   0  0  0  0  0  0  0  0  0  0  0  0
  -27.7454  -11.8684  138.2946 C   0  0  0  0  0  0  0  0  0  0  0  0
  -28.1880  -10.3746  139.5216 C   0  0  0  0  0  0  0  0  0  0  0  0
  -22.9012  -11.6100  145.6901 C   0  0  0  0  0  0  0  0  0  0  0  0
  -22.7192  -13.2693  143.9189 C   0  0  0  0  0  0  0  0  0  0  0  0
  -29.8378   -9.5483  141.9928 C   0  0  0  0  0  0  0  0  0  0  0  0
  -30.9063  -10.0670  142.8186 C   0  0  0  0  0  0  0  0  0  0  0  0
  -32.0474   -9.1817  142.9196 C   0  0  0  0  0  0  0  0  0  0  0  0
  -31.7487   -7.9844  143.4415 O   0  0  0  0  0  0  0  0  0  0  0  0
  -28.2245   -8.9516  139.7098 N   0  0  0  0  0  0  0  0  0  0  0  0
  -28.1452   -8.1941  138.5638 C   0  0  0  0  0  0  0  0  0  0  0  0
  -28.5439   -8.8144  137.4350 C   0  0  0  0  0  0  0  0  0  0  0  0
  -28.9326   -8.0173  136.4469 N   0  0  0  0  0  0  0  0  0  0  0  0
  -28.7017  -10.0702  137.3108 N   0  0  0  0  0  0  0  0  0  0  0  0
  -28.4473  -10.8637  138.2698 C   0  0  0  0  0  0  0  0  0  0  0  0
  1  7  1  0
  4  8  1  0
  8  9  1  0
  8 10  1  0
 10 11  1  0
 11 12  1  0
 15 18  1  0
 18 19  2  3
 19 20  1  0
 20 21  2  0
 21 22  1  0
 19 23  1  0
 22 23  1  0
  9 24  2  0
  9 25  1  0
 18 26  1  0
 26 27  2  3
 27 28  1  0
 28 29  1  0
 23 30  1  0
 30 31  1  0
 31 32  1  0
 32 33  2  0
 32 34  1  0
 22 35  1  0
 34 35  1  0
 12 13  2  0
 13 14  1  0
 14 15  2  0
 15 16  1  0
 16 17  2  0
 17 12  1  0
  1  2  2  0
  2  3  1  0
  3  4  2  0
  4  5  1  0
  5  6  2  0
  6  1  1  0
M  END

$$$$
No_73-/dssg/home/sw_qyf/PocketFlow/Model-Generation-Results/5HT2A_7WC7_rec_A_10.pdb/2024-01-01-03-54-21/
     RDKit          3D

 13 14  0  0  0  0  0  0  0  0999 V2000
  -24.1553  -17.8465  145.7021 C   0  0  0  0  0  0  0  0  0  0  0  0
  -23.9795  -18.4462  146.7426 C   0  0  0  0  0  0  0  0  0  0  0  0
  -25.1196  -16.8106  145.6408 C   0  0  0  0  0  0  0  0  0  0  0  0
  -25.2440  -15.8776  144.5240 C   0  0  0  0  0  0  0  0  0  0  0  0
  -26.0733  -14.7284  144.7060 C   0  0  0  0  0  0  0  0  0  0  0  0
  -26.0749  -13.6607  143.7625 C   0  0  0  0  0  0  0  0  0  0  0  0
  -24.5491  -18.0521  147.9995 C   0  0  0  0  0  0  0  0  0  0  0  0
  -25.4112  -16.9742  148.0640 C   0  0  0  0  0  0  0  0  0  0  0  0
  -25.6107  -16.2038  146.8886 C   0  0  0  0  0  0  0  0  0  0  0  0
  -26.6571  -12.6114  144.1280 C   0  0  0  0  0  0  0  0  0  0  0  0
  -27.3335  -12.3990  145.4031 C   0  0  0  0  0  0  0  0  0  0  0  0
  -27.3446  -13.4658  146.3607 C   0  0  0  0  0  0  0  0  0  0  0  0
  -26.6150  -14.5563  146.0810 C   0  0  0  0  0  0  0  0  0  0  0  0
  3  4  1  0
  4  5  1  0
  1  2  2  0
  2  7  1  0
  7  8  2  0
  8  9  1  0
  9  3  2  0
  3  1  1  0
  5  6  2  0
  6 10  1  0
 10 11  2  0
 11 12  1  0
 12 13  2  0
 13  5  1  0
M  END

$$$$
No_74-/dssg/home/sw_qyf/PocketFlow/Model-Generation-Results/5HT2A_7WC7_rec_A_10.pdb/2024-01-01-03-54-21/
     RDKit          3D

 32 34  0  0  0  0  0  0  0  0999 V2000
  -23.1746  -16.6014  144.8668 C   0  0  0  0  0  0  0  0  0  0  0  0
  -23.7011  -17.0158  145.9774 C   0  0  0  0  0  0  0  0  0  0  0  0
  -24.7096  -16.6222  146.3577 C   0  0  0  0  0  0  0  0  0  0  0  0
  -25.4819  -15.5594  145.8226 C   0  0  0  0  0  0  0  0  0  0  0  0
  -24.9841  -15.0030  144.6879 C   0  0  0  0  0  0  0  0  0  0  0  0
  -23.7823  -15.5257  144.1978 C   0  0  0  0  0  0  0  0  0  0  0  0
  -25.6365  -13.8825  143.9609 C   0  0  0  0  0  0  0  0  0  0  0  0
  -25.7264  -13.8047  142.7620 O   0  0  0  0  0  0  0  0  0  0  0  0
  -26.7862  -13.3577  144.6623 O   0  0  0  0  0  0  0  0  0  0  0  0
  -22.9710  -18.1382  146.5896 N   0  0  0  0  0  0  0  0  0  0  0  0
  -27.1550  -12.1378  144.0912 C   0  0  0  0  0  0  0  0  0  0  0  0
  -27.9591  -12.1272  143.0077 C   0  0  0  0  0  0  0  0  0  0  0  0
  -28.5908  -10.9063  142.5850 C   0  0  0  0  0  0  0  0  0  0  0  0
  -28.9190   -9.9833  143.6145 C   0  0  0  0  0  0  0  0  0  0  0  0
  -29.7083   -8.8666  143.2608 C   0  0  0  0  0  0  0  0  0  0  0  0
  -30.9236   -8.6440  143.9014 C   0  0  0  0  0  0  0  0  0  0  0  0
  -31.8493   -8.4460  142.9185 C   0  0  0  0  0  0  0  0  0  0  0  0
  -31.1339   -7.9591  141.7140 C   0  0  0  0  0  0  0  0  0  0  0  0
  -29.8614   -8.6823  141.8167 C   0  0  0  0  0  0  0  0  0  0  0  0
  -28.3438  -10.2495  144.9268 C   0  0  0  0  0  0  0  0  0  0  0  0
  -27.9671  -11.4813  145.3681 C   0  0  0  0  0  0  0  0  0  0  0  0
  -28.7725   -7.7663  141.1936 C   0  0  0  0  0  0  0  0  0  0  0  0
  -29.1885   -7.4129  139.8311 C   0  0  0  0  0  0  0  0  0  0  0  0
  -28.4784   -8.0988  138.7711 C   0  0  0  0  0  0  0  0  0  0  0  0
  -27.7421   -9.2089  139.0951 C   0  0  0  0  0  0  0  0  0  0  0  0
  -28.2288  -10.5584  138.9285 C   0  0  0  0  0  0  0  0  0  0  0  0
  -27.3784  -11.6694  139.2471 C   0  0  0  0  0  0  0  0  0  0  0  0
  -26.8532  -12.2418  138.3781 C   0  0  0  0  0  0  0  0  0  0  0  0
  -25.3744  -12.8011  138.8543 C   0  0  0  0  0  0  0  0  0  0  0  0
  -24.4959  -12.7927  137.9839 O   0  0  0  0  0  0  0  0  0  0  0  0
  -28.5650   -7.7465  137.5522 O   0  0  0  0  0  0  0  0  0  0  0  0
  -32.5925   -9.7079  142.6232 O   0  0  0  0  0  0  0  0  0  0  0  0
  5  7  1  0
  7  8  1  0
  7  9  1  0
  2 10  1  0
  9 11  1  0
 14 15  1  0
 15 16  1  0
 16 17  1  0
 17 18  1  0
 15 19  1  0
 18 19  1  0
 19 22  1  0
 22 23  1  0
 23 24  1  0
 24 25  1  0
 25 26  1  0
 26 27  2  3
 27 28  1  0
 28 29  1  0
 29 30  1  0
 24 31  2  0
 17 32  1  0
  1  2  2  0
  2  3  1  0
  3  4  2  0
  4  5  1  0
  5  6  2  0
  6  1  1  0
 11 12  2  0
 12 13  1  0
 13 14  2  0
 14 20  1  0
 20 21  2  0
 21 11  1  0
M  END

$$$$
No_75-/dssg/home/sw_qyf/PocketFlow/Model-Generation-Results/5HT2A_7WC7_rec_A_10.pdb/2024-01-01-03-54-21/
     RDKit          3D

 22 24  0  0  0  0  0  0  0  0999 V2000
  -24.1553  -17.8465  145.7021 C   0  0  0  0  0  0  0  0  0  0  0  0
  -23.9795  -18.4462  146.7426 C   0  0  0  0  0  0  0  0  0  0  0  0
  -25.1196  -16.8106  145.6408 C   0  0  0  0  0  0  0  0  0  0  0  0
  -25.9237  -16.5070  146.7422 C   0  0  0  0  0  0  0  0  0  0  0  0
  -25.6627  -17.1841  147.9274 C   0  0  0  0  0  0  0  0  0  0  0  0
  -24.6813  -18.1540  148.0079 C   0  0  0  0  0  0  0  0  0  0  0  0
  -26.9717  -15.4553  146.6645 C   0  0  0  0  0  0  0  0  0  0  0  0
  -28.1968  -15.6101  147.2311 C   0  0  0  0  0  0  0  0  0  0  0  0
  -29.0712  -14.5647  147.2622 C   0  0  0  0  0  0  0  0  0  0  0  0
  -28.7677  -13.3272  146.7066 C   0  0  0  0  0  0  0  0  0  0  0  0
  -29.6392  -12.1364  146.7291 C   0  0  0  0  0  0  0  0  0  0  0  0
  -29.2130  -11.0602  145.9232 C   0  0  0  0  0  0  0  0  0  0  0  0
  -28.0858  -11.1258  145.0742 C   0  0  0  0  0  0  0  0  0  0  0  0
  -27.3070  -12.3168  145.1110 C   0  0  0  0  0  0  0  0  0  0  0  0
  -27.6719  -13.3999  145.8581 C   0  0  0  0  0  0  0  0  0  0  0  0
  -26.6604  -14.2797  145.9896 C   0  0  0  0  0  0  0  0  0  0  0  0
  -27.7864   -9.9942  144.1943 C   0  0  0  0  0  0  0  0  0  0  0  0
  -27.8637   -8.9941  144.7997 F   0  0  0  0  0  0  0  0  0  0  0  0
  -26.4672  -10.1957  143.8213 F   0  0  0  0  0  0  0  0  0  0  0  0
  -28.5356  -10.0014  143.1458 F   0  0  0  0  0  0  0  0  0  0  0  0
  -30.6835  -12.0797  147.5033 O   0  0  0  0  0  0  0  0  0  0  0  0
  -25.2339  -15.9131  144.1678 Cl  0  0  0  0  0  0  0  0  0  0  0  0
  4  7  1  0
 10 11  1  0
 11 12  1  0
 13 14  1  0
 13 17  1  0
 17 18  1  0
 17 19  1  0
 17 20  1  0
 11 21  2  0
  3 22  1  0
 15 14  1  0
 13 12  1  0
  7  8  2  0
  8  9  1  0
  9 10  2  0
 10 15  1  0
 15 16  2  0
 16  7  1  0
  1  2  2  0
  2  6  1  0
  6  5  2  0
  5  4  1  0
  4  3  2  0
  3  1  1  0
M  END

$$$$
No_76-/dssg/home/sw_qyf/PocketFlow/Model-Generation-Results/5HT2A_7WC7_rec_A_10.pdb/2024-01-01-03-54-21/
     RDKit          3D

 28 29  0  0  0  0  0  0  0  0999 V2000
  -23.1746  -16.6014  144.8668 C   0  0  0  0  0  0  0  0  0  0  0  0
  -23.8963  -15.5346  144.7885 C   0  0  0  0  0  0  0  0  0  0  0  0
  -24.5755  -15.0383  145.9043 C   0  0  0  0  0  0  0  0  0  0  0  0
  -25.0618  -13.6819  146.0347 C   0  0  0  0  0  0  0  0  0  0  0  0
  -25.4099  -13.0255  144.9749 C   0  0  0  0  0  0  0  0  0  0  0  0
  -25.8382  -11.6977  145.1929 C   0  0  0  0  0  0  0  0  0  0  0  0
  -23.3819  -17.5215  145.9574 C   0  0  0  0  0  0  0  0  0  0  0  0
  -23.9561  -17.0991  147.1508 C   0  0  0  0  0  0  0  0  0  0  0  0
  -24.5238  -15.8743  147.2183 C   0  0  0  0  0  0  0  0  0  0  0  0
  -26.4361  -10.8802  144.1981 C   0  0  0  0  0  0  0  0  0  0  0  0
  -27.1870   -9.7595  144.6953 C   0  0  0  0  0  0  0  0  0  0  0  0
  -23.9605  -17.8567  148.2380 F   0  0  0  0  0  0  0  0  0  0  0  0
  -26.5526  -13.7502  144.1724 C   0  0  0  0  0  0  0  0  0  0  0  0
  -26.5086  -13.5278  142.7577 C   0  0  0  0  0  0  0  0  0  0  0  0
  -27.6207  -12.6182  142.3373 C   0  0  0  0  0  0  0  0  0  0  0  0
  -27.5223  -12.1417  141.0606 C   0  0  0  0  0  0  0  0  0  0  0  0
  -27.2164  -12.8957  139.9520 C   0  0  0  0  0  0  0  0  0  0  0  0
  -27.1755  -12.2402  138.6842 C   0  0  0  0  0  0  0  0  0  0  0  0
  -28.3489  -10.9072  140.6868 C   0  0  0  0  0  0  0  0  0  0  0  0
  -27.8046   -9.9147  140.6508 C   0  0  0  0  0  0  0  0  0  0  0  0
  -28.6456   -8.6545  140.6604 C   0  0  0  0  0  0  0  0  0  0  0  0
  -28.8143   -7.6636  139.8263 C   0  0  0  0  0  0  0  0  0  0  0  0
  -29.8398   -6.7342  140.1318 C   0  0  0  0  0  0  0  0  0  0  0  0
  -29.3216   -8.3743  142.0308 C   0  0  0  0  0  0  0  0  0  0  0  0
  -29.5145   -9.2974  143.0350 C   0  0  0  0  0  0  0  0  0  0  0  0
  -30.5150   -8.9254  143.8958 C   0  0  0  0  0  0  0  0  0  0  0  0
  -30.0265   -7.2139  141.6267 C   0  0  0  0  0  0  0  0  0  0  0  0
  -31.3772   -8.1055  143.5589 O   0  0  0  0  0  0  0  0  0  0  0  0
  3  4  1  0
  4  5  1  0
  5  6  2  3
  6 10  1  0
 10 11  1  0
  8 12  1  0
  5 13  1  0
 13 14  1  0
 14 15  2  3
 15 16  1  0
 16 17  2  3
 17 18  1  0
 16 19  1  0
 19 20  1  0
 20 21  1  0
 21 22  1  0
 22 23  2  0
 21 24  1  0
 24 25  1  0
 25 26  2  0
 23 27  1  0
 24 27  1  0
 26 28  2  0
  1  2  2  0
  2  3  1  0
  3  9  2  0
  9  8  1  0
  8  7  2  0
  7  1  1  0
M  END

$$$$
No_77-/dssg/home/sw_qyf/PocketFlow/Model-Generation-Results/5HT2A_7WC7_rec_A_10.pdb/2024-01-01-03-54-21/
     RDKit          3D

 35 36  0  0  0  0  0  0  0  0999 V2000
  -23.1746  -16.6014  144.8668 C   0  0  0  0  0  0  0  0  0  0  0  0
  -23.8963  -15.5346  144.7885 C   0  0  0  0  0  0  0  0  0  0  0  0
  -24.5755  -15.0383  145.9043 C   0  0  0  0  0  0  0  0  0  0  0  0
  -24.8345  -15.9108  146.9141 C   0  0  0  0  0  0  0  0  0  0  0  0
  -24.2398  -17.1433  146.9649 C   0  0  0  0  0  0  0  0  0  0  0  0
  -23.4221  -17.5266  145.9093 C   0  0  0  0  0  0  0  0  0  0  0  0
  -25.2320  -13.6666  145.9013 C   0  0  0  0  0  0  0  0  0  0  0  0
  -26.4764  -13.3905  145.9288 C   0  0  0  0  0  0  0  0  0  0  0  0
  -27.0035  -12.0892  145.9127 C   0  0  0  0  0  0  0  0  0  0  0  0
  -28.3962  -11.8009  145.7645 C   0  0  0  0  0  0  0  0  0  0  0  0
  -29.2663  -12.7418  146.5246 C   0  0  0  0  0  0  0  0  0  0  0  0
  -28.7635  -13.9905  146.8110 C   0  0  0  0  0  0  0  0  0  0  0  0
  -27.3748  -14.2645  146.6574 C   0  0  0  0  0  0  0  0  0  0  0  0
  -29.6701  -14.9724  147.4286 C   0  0  0  0  0  0  0  0  0  0  0  0
  -28.8705  -11.2590  144.5591 C   0  0  0  0  0  0  0  0  0  0  0  0
  -29.7015  -10.0400  144.7487 C   0  0  0  0  0  0  0  0  0  0  0  0
  -30.2465   -9.3786  143.6150 C   0  0  0  0  0  0  0  0  0  0  0  0
  -29.5258   -8.5293  143.0362 C   0  0  0  0  0  0  0  0  0  0  0  0
  -30.0407   -7.5825  141.9527 C   0  0  0  0  0  0  0  0  0  0  0  0
  -29.9398   -8.0258  140.7859 C   0  0  0  0  0  0  0  0  0  0  0  0
  -28.8140   -7.5718  139.9730 C   0  0  0  0  0  0  0  0  0  0  0  0
  -28.4651   -8.4095  138.7939 C   0  0  0  0  0  0  0  0  0  0  0  0
  -28.7992   -7.9786  137.5396 C   0  0  0  0  0  0  0  0  0  0  0  0
  -24.3909  -12.8114  145.1932 O   0  0  0  0  0  0  0  0  0  0  0  0
  -24.3171  -18.0118  148.1763 C   0  0  0  0  0  0  0  0  0  0  0  0
  -23.5303  -17.4269  149.3657 C   0  0  0  0  0  0  0  0  0  0  0  0
  -24.2041  -17.1473  150.5827 C   0  0  0  0  0  0  0  0  0  0  0  0
  -27.7755   -9.6144  139.1061 C   0  0  0  0  0  0  0  0  0  0  0  0
  -26.6760   -9.6278  139.9892 C   0  0  0  0  0  0  0  0  0  0  0  0
  -23.0108  -12.9284  145.4538 C   0  0  0  0  0  0  0  0  0  0  0  0
  -22.3390  -11.8437  144.4730 C   0  0  0  0  0  0  0  0  0  0  0  0
  -30.7457  -14.5279  147.6064 F   0  0  0  0  0  0  0  0  0  0  0  0
  -29.6793  -16.0752  146.6190 F   0  0  0  0  0  0  0  0  0  0  0  0
  -29.2057  -15.3677  148.7135 F   0  0  0  0  0  0  0  0  0  0  0  0
  -26.1656  -11.0059  140.0321 N   0  0  0  0  0  0  0  0  0  0  0  0
  3  7  1  0
 12 14  1  0
 10 15  1  0
 15 16  1  0
 16 17  2  3
 17 18  1  0
 18 19  1  0
 19 20  1  0
 20 21  2  3
 21 22  1  0
 22 23  1  0
  7 24  1  0
  5 25  1  0
 25 26  1  0
 26 27  2  0
 22 28  1  0
 28 29  1  0
 24 30  1  0
 30 31  1  0
 14 32  1  0
 14 33  1  0
 14 34  1  0
 29 35  1  0
  7  8  1  0
  1  2  2  0
  2  3  1  0
  3  4  2  0
  4  5  1  0
  5  6  2  0
  6  1  1  0
  8  9  2  0
  9 10  1  0
 10 11  2  0
 11 12  1  0
 12 13  2  0
 13  8  1  0
M  END

$$$$
No_78-/dssg/home/sw_qyf/PocketFlow/Model-Generation-Results/5HT2A_7WC7_rec_A_10.pdb/2024-01-01-03-54-21/
     RDKit          3D

 35 38  0  0  0  0  0  0  0  0999 V2000
  -23.1746  -16.6014  144.8668 C   0  0  0  0  0  0  0  0  0  0  0  0
  -23.7011  -17.0158  145.9774 C   0  0  0  0  0  0  0  0  0  0  0  0
  -23.7336  -18.2775  146.3737 C   0  0  0  0  0  0  0  0  0  0  0  0
  -24.1960  -18.6445  147.6858 C   0  0  0  0  0  0  0  0  0  0  0  0
  -24.7100  -17.6145  148.5486 C   0  0  0  0  0  0  0  0  0  0  0  0
  -24.7929  -16.2635  148.0870 C   0  0  0  0  0  0  0  0  0  0  0  0
  -24.2508  -15.9434  146.8891 C   0  0  0  0  0  0  0  0  0  0  0  0
  -23.5534  -15.6011  144.1530 N   0  0  0  0  0  0  0  0  0  0  0  0
  -24.0433  -14.4967  144.9118 C   0  0  0  0  0  0  0  0  0  0  0  0
  -24.3364  -13.2150  144.2423 C   0  0  0  0  0  0  0  0  0  0  0  0
  -24.5123  -14.6750  146.3149 C   0  0  0  0  0  0  0  0  0  0  0  0
  -25.6850  -12.8413  144.5111 C   0  0  0  0  0  0  0  0  0  0  0  0
  -26.4262  -12.5240  143.4565 C   0  0  0  0  0  0  0  0  0  0  0  0
  -27.7805  -11.9657  143.7025 C   0  0  0  0  0  0  0  0  0  0  0  0
  -28.4775  -11.2134  142.7462 C   0  0  0  0  0  0  0  0  0  0  0  0
  -29.4887  -10.2321  143.1568 C   0  0  0  0  0  0  0  0  0  0  0  0
  -30.2006   -9.4112  142.2281 C   0  0  0  0  0  0  0  0  0  0  0  0
  -31.2478   -8.6143  142.7391 C   0  0  0  0  0  0  0  0  0  0  0  0
  -31.7869   -7.7653  142.1156 O   0  0  0  0  0  0  0  0  0  0  0  0
  -31.6946   -8.7488  144.0376 O   0  0  0  0  0  0  0  0  0  0  0  0
  -29.1265   -8.5579  141.5276 C   0  0  0  0  0  0  0  0  0  0  0  0
  -28.5897   -9.1290  140.2897 C   0  0  0  0  0  0  0  0  0  0  0  0
  -28.4108   -8.4443  139.1395 C   0  0  0  0  0  0  0  0  0  0  0  0
  -28.8955   -7.1509  138.9409 C   0  0  0  0  0  0  0  0  0  0  0  0
  -23.2460  -19.2620  145.7084 O   0  0  0  0  0  0  0  0  0  0  0  0
  -27.8471   -9.1560  138.0533 C   0  0  0  0  0  0  0  0  0  0  0  0
  -28.3564  -12.1647  145.0495 C   0  0  0  0  0  0  0  0  0  0  0  0
  -29.0833  -11.3702  145.7035 C   0  0  0  0  0  0  0  0  0  0  0  0
  -29.9006  -10.3596  144.7039 C   0  0  0  0  0  0  0  0  0  0  0  0
  -29.6966  -11.4068  146.9034 N   0  0  0  0  0  0  0  0  0  0  0  0
  -29.4079  -12.4086  147.8052 C   0  0  0  0  0  0  0  0  0  0  0  0
  -28.2527  -12.8792  147.7561 F   0  0  0  0  0  0  0  0  0  0  0  0
  -30.6667  -13.6300  148.0953 Cl  0  0  0  0  0  0  0  0  0  0  0  0
  -25.2160  -13.6387  146.9498 C   0  0  0  0  0  0  0  0  0  0  0  0
  -26.0822  -13.0303  145.9346 C   0  0  0  0  0  0  0  0  0  0  0  0
 13 14  1  0
 16 17  1  0
 17 18  1  0
 18 19  2  0
 18 20  1  0
 17 21  1  0
 21 22  1  0
 22 23  2  3
 23 24  1  0
  3 25  1  0
 23 26  1  0
 28 30  1  0
 30 31  2  3
 31 32  1  0
 31 33  1  0
 13 12  1  0
  2  3  1  0
  3  4  2  0
  4  5  1  0
  5  6  2  0
  6  7  1  0
  1  2  2  0
  2  7  1  0
  7 11  2  0
  9  8  2  0
  8  1  1  0
 14 15  2  0
 15 16  1  0
 16 29  2  0
 29 28  1  0
 28 27  2  0
 27 14  1  0
  9 10  1  0
 10 12  2  0
 12 35  1  0
 35 34  2  0
 34 11  1  0
 11  9  1  0
M  END

$$$$
No_79-/dssg/home/sw_qyf/PocketFlow/Model-Generation-Results/5HT2A_7WC7_rec_A_10.pdb/2024-01-01-03-54-21/
     RDKit          3D

 35 36  0  0  0  0  0  0  0  0999 V2000
  -23.1746  -16.6014  144.8668 C   0  0  0  0  0  0  0  0  0  0  0  0
  -24.0189  -16.0564  145.8445 C   0  0  0  0  0  0  0  0  0  0  0  0
  -24.4850  -14.7380  145.6359 C   0  0  0  0  0  0  0  0  0  0  0  0
  -25.2717  -14.0560  146.5949 C   0  0  0  0  0  0  0  0  0  0  0  0
  -25.6617  -12.7328  146.4162 C   0  0  0  0  0  0  0  0  0  0  0  0
  -25.2756  -11.9986  145.2553 C   0  0  0  0  0  0  0  0  0  0  0  0
  -24.3335  -12.6494  144.4294 C   0  0  0  0  0  0  0  0  0  0  0  0
  -23.8839  -13.9831  144.6056 C   0  0  0  0  0  0  0  0  0  0  0  0
  -24.4895  -16.8196  146.9335 C   0  0  0  0  0  0  0  0  0  0  0  0
  -24.0317  -18.0542  147.1803 C   0  0  0  0  0  0  0  0  0  0  0  0
  -23.2810  -18.6718  146.1993 C   0  0  0  0  0  0  0  0  0  0  0  0
  -22.8973  -17.9871  145.1061 N   0  0  0  0  0  0  0  0  0  0  0  0
  -25.5613  -10.7243  145.1086 O   0  0  0  0  0  0  0  0  0  0  0  0
  -26.3832  -10.4480  144.0535 C   0  0  0  0  0  0  0  0  0  0  0  0
  -27.7980  -10.6112  144.4115 C   0  0  0  0  0  0  0  0  0  0  0  0
  -28.8191   -9.9970  143.6942 C   0  0  0  0  0  0  0  0  0  0  0  0
  -28.7193   -9.7508  142.3988 C   0  0  0  0  0  0  0  0  0  0  0  0
  -29.5503   -8.8892  141.7377 C   0  0  0  0  0  0  0  0  0  0  0  0
  -29.4082   -8.2813  140.4347 C   0  0  0  0  0  0  0  0  0  0  0  0
  -30.2045   -7.2069  140.0003 C   0  0  0  0  0  0  0  0  0  0  0  0
  -28.3850   -8.8148  139.6035 C   0  0  0  0  0  0  0  0  0  0  0  0
  -28.1979   -8.3148  138.3208 C   0  0  0  0  0  0  0  0  0  0  0  0
  -30.8404   -8.6302  142.3663 C   0  0  0  0  0  0  0  0  0  0  0  0
  -31.8481   -9.0858  141.9897 O   0  0  0  0  0  0  0  0  0  0  0  0
  -30.9424   -7.5959  143.3895 N   0  0  0  0  0  0  0  0  0  0  0  0
  -28.7975   -8.7090  137.2578 C   0  0  0  0  0  0  0  0  0  0  0  0
  -29.0044  -10.0179  137.1898 O   0  0  0  0  0  0  0  0  0  0  0  0
  -28.9618  -10.5978  135.8707 C   0  0  0  0  0  0  0  0  0  0  0  0
  -29.7032  -10.0589  134.9183 C   0  0  0  0  0  0  0  0  0  0  0  0
  -28.7471  -12.0438  135.9618 C   0  0  0  0  0  0  0  0  0  0  0  0
  -28.1834  -11.9441  144.8878 C   0  0  0  0  0  0  0  0  0  0  0  0
  -29.2403  -11.8729  145.9408 C   0  0  0  0  0  0  0  0  0  0  0  0
  -29.4969  -12.9624  146.8418 C   0  0  0  0  0  0  0  0  0  0  0  0
  -30.2890  -12.7678  147.9862 C   0  0  0  0  0  0  0  0  0  0  0  0
  -30.3610  -13.8146  148.9258 C   0  0  0  0  0  0  0  0  0  0  0  0
  2  3  1  0
  6 13  1  0
 13 14  1  0
 14 15  1  0
 15 16  1  0
 16 17  2  3
 17 18  1  0
 18 19  2  3
 19 20  1  0
 19 21  1  0
 21 22  3  0
 18 23  1  0
 23 24  2  0
 23 25  1  0
 22 26  1  0
 26 27  1  0
 27 28  1  0
 28 29  1  0
 28 30  1  0
 15 31  1  0
 31 32  1  0
 32 33  2  3
 33 34  1  0
 34 35  1  0
  1  2  2  0
  2  9  1  0
  9 10  2  0
 10 11  1  0
 11 12  2  0
 12  1  1  0
  3  4  2  0
  4  5  1  0
  5  6  2  0
  6  7  1  0
  7  8  2  0
  8  3  1  0
M  END

$$$$
No_80-/dssg/home/sw_qyf/PocketFlow/Model-Generation-Results/5HT2A_7WC7_rec_A_10.pdb/2024-01-01-03-54-21/
     RDKit          3D

 35 37  0  0  0  0  0  0  0  0999 V2000
  -24.1553  -17.8465  145.7021 C   0  0  0  0  0  0  0  0  0  0  0  0
  -24.2856  -16.6364  145.3494 C   0  0  0  0  0  0  0  0  0  0  0  0
  -24.7211  -15.5955  146.2115 C   0  0  0  0  0  0  0  0  0  0  0  0
  -25.1322  -16.0374  147.5372 C   0  0  0  0  0  0  0  0  0  0  0  0
  -24.5141  -18.2630  147.0046 C   0  0  0  0  0  0  0  0  0  0  0  0
  -24.9573  -17.2963  147.9768 C   0  0  0  0  0  0  0  0  0  0  0  0
  -24.8720  -14.1818  145.7974 C   0  0  0  0  0  0  0  0  0  0  0  0
  -25.6103  -13.2835  146.3221 C   0  0  0  0  0  0  0  0  0  0  0  0
  -25.6053  -11.9244  145.9376 C   0  0  0  0  0  0  0  0  0  0  0  0
  -24.5902  -11.4450  145.1295 C   0  0  0  0  0  0  0  0  0  0  0  0
  -23.8209  -13.7154  144.8599 C   0  0  0  0  0  0  0  0  0  0  0  0
  -23.6945  -12.3404  144.6201 C   0  0  0  0  0  0  0  0  0  0  0  0
  -23.9708  -16.2358  144.1344 F   0  0  0  0  0  0  0  0  0  0  0  0
  -25.2743  -17.6706  149.1978 F   0  0  0  0  0  0  0  0  0  0  0  0
  -26.4740  -10.9869  146.5007 O   0  0  0  0  0  0  0  0  0  0  0  0
  -23.7915  -18.8414  144.8837 O   0  0  0  0  0  0  0  0  0  0  0  0
  -27.2421  -10.4276  145.5861 C   0  0  0  0  0  0  0  0  0  0  0  0
  -28.5443  -11.1518  145.3947 C   0  0  0  0  0  0  0  0  0  0  0  0
  -29.5336  -10.5281  144.6213 C   0  0  0  0  0  0  0  0  0  0  0  0
  -29.2844   -9.5225  143.7656 C   0  0  0  0  0  0  0  0  0  0  0  0
  -30.2913   -8.9532  142.9840 C   0  0  0  0  0  0  0  0  0  0  0  0
  -31.5954   -9.2320  143.0145 C   0  0  0  0  0  0  0  0  0  0  0  0
  -29.9394   -7.8205  141.9946 C   0  0  0  0  0  0  0  0  0  0  0  0
  -29.7667   -8.1853  140.6548 C   0  0  0  0  0  0  0  0  0  0  0  0
  -28.3874   -8.3792  140.1492 C   0  0  0  0  0  0  0  0  0  0  0  0
  -28.2595   -8.3561  138.7455 C   0  0  0  0  0  0  0  0  0  0  0  0
  -28.5079   -9.4997  137.9916 C   0  0  0  0  0  0  0  0  0  0  0  0
  -28.0258  -10.6941  138.4309 C   0  0  0  0  0  0  0  0  0  0  0  0
  -27.4049  -10.7773  139.7316 C   0  0  0  0  0  0  0  0  0  0  0  0
  -26.9636  -12.0730  140.2930 C   0  0  0  0  0  0  0  0  0  0  0  0
  -26.8196  -13.0577  139.4928 C   0  0  0  0  0  0  0  0  0  0  0  0
  -26.9929  -12.7730  138.1279 N   0  0  0  0  0  0  0  0  0  0  0  0
  -27.6896  -11.7509  137.6172 C   0  0  0  0  0  0  0  0  0  0  0  0
  -32.2929   -8.6836  144.0103 O   0  0  0  0  0  0  0  0  0  0  0  0
  -32.1971  -10.0107  142.2469 O   0  0  0  0  0  0  0  0  0  0  0  0
  3  7  1  0
  2 13  1  0
  6 14  1  0
  9 15  1  0
  1 16  1  0
 15 17  1  0
 17 18  1  0
 18 19  2  3
 19 20  1  0
 20 21  1  0
 21 22  1  0
 21 23  1  0
 23 24  1  0
 24 25  1  0
 25 26  1  0
 26 27  1  0
 22 34  2  0
 22 35  1  0
 27 28  1  0
  7  8  2  0
  8  9  1  0
  9 10  2  0
 10 12  1  0
 12 11  2  0
 11  7  1  0
 28 29  2  0
 29 30  1  0
 30 31  2  0
 31 32  1  0
 32 33  2  0
 33 28  1  0
  1  2  2  0
  2  3  1  0
  3  4  2  0
  4  6  1  0
  6  5  2  0
  5  1  1  0
M  END

$$$$
No_81-/dssg/home/sw_qyf/PocketFlow/Model-Generation-Results/5HT2A_7WC7_rec_A_10.pdb/2024-01-01-03-54-21/
     RDKit          3D

 33 35  0  0  0  0  0  0  0  0999 V2000
  -24.1553  -17.8465  145.7021 C   0  0  0  0  0  0  0  0  0  0  0  0
  -24.6364  -17.2931  146.7091 C   0  0  0  0  0  0  0  0  0  0  0  0
  -25.8608  -16.5591  146.5933 C   0  0  0  0  0  0  0  0  0  0  0  0
  -25.9533  -15.5604  145.6681 C   0  0  0  0  0  0  0  0  0  0  0  0
  -24.9253  -15.5665  144.6652 C   0  0  0  0  0  0  0  0  0  0  0  0
  -23.9892  -16.6610  144.6462 C   0  0  0  0  0  0  0  0  0  0  0  0
  -26.9168  -14.5096  145.6510 C   0  0  0  0  0  0  0  0  0  0  0  0
  -27.9544  -14.4477  146.5518 C   0  0  0  0  0  0  0  0  0  0  0  0
  -28.8800  -13.3760  146.6123 C   0  0  0  0  0  0  0  0  0  0  0  0
  -28.6756  -12.2420  145.7436 C   0  0  0  0  0  0  0  0  0  0  0  0
  -27.6292  -12.2834  144.8432 C   0  0  0  0  0  0  0  0  0  0  0  0
  -26.7211  -13.3317  144.8314 C   0  0  0  0  0  0  0  0  0  0  0  0
  -29.6601  -11.1076  145.6000 C   0  0  0  0  0  0  0  0  0  0  0  0
  -30.5023  -10.9277  146.5650 O   0  0  0  0  0  0  0  0  0  0  0  0
  -29.8492  -10.5110  144.5722 F   0  0  0  0  0  0  0  0  0  0  0  0
  -23.6533  -16.5651  147.7670 C   0  0  0  0  0  0  0  0  0  0  0  0
  -23.1032  -17.7733  148.5471 C   0  0  0  0  0  0  0  0  0  0  0  0
  -23.9402  -18.3993  148.9538 C   0  0  0  0  0  0  0  0  0  0  0  0
  -29.9473  -13.4091  147.4860 N   0  0  0  0  0  0  0  0  0  0  0  0
  -23.7810  -19.0875  145.5058 C   0  0  0  0  0  0  0  0  0  0  0  0
  -24.6364  -17.6542  150.2302 C   0  0  0  0  0  0  0  0  0  0  0  0
  -25.9784  -18.0330  150.5964 C   0  0  0  0  0  0  0  0  0  0  0  0
  -27.4345  -11.3236  143.9787 F   0  0  0  0  0  0  0  0  0  0  0  0
  -30.1318  -12.6708  148.5369 C   0  0  0  0  0  0  0  0  0  0  0  0
  -30.0242  -14.7482  147.9233 C   0  0  0  0  0  0  0  0  0  0  0  0
  -26.9297  -17.7100  149.8595 N   0  0  0  0  0  0  0  0  0  0  0  0
  -26.1958  -18.8430  151.5775 O   0  0  0  0  0  0  0  0  0  0  0  0
  -26.9821  -16.6020  149.0010 C   0  0  0  0  0  0  0  0  0  0  0  0
  -31.3474  -13.0033  149.4015 C   0  0  0  0  0  0  0  0  0  0  0  0
  -32.3599  -13.0254  149.5293 C   0  0  0  0  0  0  0  0  0  0  0  0
  -33.0441  -13.5718  150.5476 N   0  0  0  0  0  0  0  0  0  0  0  0
  -32.2646  -14.3955  151.2261 C   0  0  0  0  0  0  0  0  0  0  0  0
  -31.0527  -14.2970  150.5805 C   0  0  0  0  0  0  0  0  0  0  0  0
  4  7  1  0
 10 13  1  0
 13 14  2  0
 13 15  1  0
  2 16  1  0
 16 17  1  0
 17 18  1  0
  9 19  1  0
  1 20  1  0
 18 21  2  3
 21 22  1  0
 11 23  1  0
 19 24  1  0
 19 25  1  0
 22 26  1  0
 22 27  2  0
 26 28  1  0
 24 29  1  0
 29 30  2  0
 30 31  1  0
 31 32  2  0
 29 33  1  0
 32 33  1  0
  1  2  2  0
  2  3  1  0
  3  4  2  0
  4  5  1  0
  5  6  2  0
  6  1  1  0
  7  8  2  0
  8  9  1  0
  9 10  2  0
 10 11  1  0
 11 12  2  0
 12  7  1  0
M  END

$$$$
No_82-/dssg/home/sw_qyf/PocketFlow/Model-Generation-Results/5HT2A_7WC7_rec_A_10.pdb/2024-01-01-03-54-21/
     RDKit          3D

 16 17  0  0  0  0  0  0  0  0999 V2000
  -24.1553  -17.8465  145.7021 C   0  0  0  0  0  0  0  0  0  0  0  0
  -23.9795  -18.4462  146.7426 C   0  0  0  0  0  0  0  0  0  0  0  0
  -24.3577  -16.4380  145.7329 C   0  0  0  0  0  0  0  0  0  0  0  0
  -24.6120  -15.7738  146.9649 C   0  0  0  0  0  0  0  0  0  0  0  0
  -24.9231  -14.3801  146.9818 C   0  0  0  0  0  0  0  0  0  0  0  0
  -24.7000  -13.5386  145.9026 C   0  0  0  0  0  0  0  0  0  0  0  0
  -24.3040  -14.2591  144.6919 C   0  0  0  0  0  0  0  0  0  0  0  0
  -24.0544  -13.4972  143.6017 N   0  0  0  0  0  0  0  0  0  0  0  0
  -24.0333  -15.6528  144.7184 C   0  0  0  0  0  0  0  0  0  0  0  0
  -24.2488  -17.9025  148.0975 C   0  0  0  0  0  0  0  0  0  0  0  0
  -24.4821  -16.5055  148.2267 C   0  0  0  0  0  0  0  0  0  0  0  0
  -24.9379  -12.1199  145.9651 C   0  0  0  0  0  0  0  0  0  0  0  0
  -24.6193  -11.3266  145.1168 O   0  0  0  0  0  0  0  0  0  0  0  0
  -25.7722  -11.6611  146.9187 O   0  0  0  0  0  0  0  0  0  0  0  0
  -23.6067  -16.1685  143.6302 O   0  0  0  0  0  0  0  0  0  0  0  0
  -23.8655  -18.4860  144.6139 O   0  0  0  0  0  0  0  0  0  0  0  0
  4  5  1  0
  5  6  1  0
  6  7  1  0
  7  8  1  0
  3  9  1  0
  7  9  1  0
  6 12  1  0
 12 13  2  0
 12 14  1  0
  9 15  2  0
  1 16  1  0
  1  2  2  0
  2 10  1  0
 10 11  2  0
 11  4  1  0
  4  3  2  0
  3  1  1  0
M  END

$$$$
No_83-/dssg/home/sw_qyf/PocketFlow/Model-Generation-Results/5HT2A_7WC7_rec_A_10.pdb/2024-01-01-03-54-21/
     RDKit          3D

 15 15  0  0  0  0  0  0  0  0999 V2000
  -24.1553  -17.8465  145.7021 C   0  0  0  0  0  0  0  0  0  0  0  0
  -24.6364  -17.2931  146.7091 C   0  0  0  0  0  0  0  0  0  0  0  0
  -25.8608  -16.5592  146.5934 C   0  0  0  0  0  0  0  0  0  0  0  0
  -25.9534  -15.5604  145.6681 C   0  0  0  0  0  0  0  0  0  0  0  0
  -25.1031  -14.5122  145.9220 C   0  0  0  0  0  0  0  0  0  0  0  0
  -25.2786  -13.4799  146.7325 C   0  0  0  0  0  0  0  0  0  0  0  0
  -24.9081  -12.2613  146.2349 C   0  0  0  0  0  0  0  0  0  0  0  0
  -23.8764  -14.4310  145.0189 C   0  0  0  0  0  0  0  0  0  0  0  0
  -23.7207  -13.3356  144.5241 C   0  0  0  0  0  0  0  0  0  0  0  0
  -23.8967  -12.0940  145.3017 C   0  0  0  0  0  0  0  0  0  0  0  0
  -23.8895  -17.2658  147.9934 C   0  0  0  0  0  0  0  0  0  0  0  0
  -24.4405  -16.9868  149.2854 C   0  0  0  0  0  0  0  0  0  0  0  0
  -23.7026  -17.1686  150.4547 C   0  0  0  0  0  0  0  0  0  0  0  0
  -22.3512  -17.0691  150.3544 N   0  0  0  0  0  0  0  0  0  0  0  0
  -21.8012  -16.8123  149.1813 C   0  0  0  0  0  0  0  0  0  0  0  0
  1  2  1  0
  2  3  1  0
  3  4  1  0
  4  5  1  0
  2 11  1  0
 11 12  2  3
 12 13  1  0
 13 14  1  0
 14 15  2  0
  5  6  2  0
  6  7  1  0
  7 10  2  0
 10  9  1  0
  9  8  2  0
  8  5  1  0
M  END

$$$$
No_84-/dssg/home/sw_qyf/PocketFlow/Model-Generation-Results/5HT2A_7WC7_rec_A_10.pdb/2024-01-01-03-54-21/
     RDKit          3D

 35 40  0  0  0  0  0  0  0  0999 V2000
  -24.1553  -17.8465  145.7021 C   0  0  0  0  0  0  0  0  0  0  0  0
  -24.2856  -16.6364  145.3494 C   0  0  0  0  0  0  0  0  0  0  0  0
  -25.0033  -15.6772  146.0737 C   0  0  0  0  0  0  0  0  0  0  0  0
  -25.6964  -16.1810  147.2049 C   0  0  0  0  0  0  0  0  0  0  0  0
  -24.8143  -18.3454  146.8324 C   0  0  0  0  0  0  0  0  0  0  0  0
  -25.5292  -17.4614  147.6373 C   0  0  0  0  0  0  0  0  0  0  0  0
  -23.6541  -16.0768  144.2055 N   0  0  0  0  0  0  0  0  0  0  0  0
  -25.1820  -14.2638  145.6423 C   0  0  0  0  0  0  0  0  0  0  0  0
  -24.4786  -13.7943  144.6613 C   0  0  0  0  0  0  0  0  0  0  0  0
  -23.6711  -14.7638  143.9409 N   0  0  0  0  0  0  0  0  0  0  0  0
  -25.9460  -13.3461  146.4937 C   0  0  0  0  0  0  0  0  0  0  0  0
  -27.2515  -13.0792  146.1893 C   0  0  0  0  0  0  0  0  0  0  0  0
  -27.6994  -12.4224  145.3897 C   0  0  0  0  0  0  0  0  0  0  0  0
  -26.9540  -11.7053  144.3175 C   0  0  0  0  0  0  0  0  0  0  0  0
  -27.6367  -10.9006  143.2986 C   0  0  0  0  0  0  0  0  0  0  0  0
  -28.7995  -10.0564  143.7254 C   0  0  0  0  0  0  0  0  0  0  0  0
  -29.5094   -9.2739  142.8545 C   0  0  0  0  0  0  0  0  0  0  0  0
  -30.6570   -8.5790  143.1439 C   0  0  0  0  0  0  0  0  0  0  0  0
  -31.1896   -7.6875  142.1733 C   0  0  0  0  0  0  0  0  0  0  0  0
  -30.1139   -7.4916  141.1613 C   0  0  0  0  0  0  0  0  0  0  0  0
  -29.5225   -8.4396  140.6980 C   0  0  0  0  0  0  0  0  0  0  0  0
  -28.8417   -9.3001  141.6286 C   0  0  0  0  0  0  0  0  0  0  0  0
  -28.8775   -8.3918  139.3046 C   0  0  0  0  0  0  0  0  0  0  0  0
  -28.0290   -8.9458  138.7937 C   0  0  0  0  0  0  0  0  0  0  0  0
  -27.3698   -9.9572  139.5255 N   0  0  0  0  0  0  0  0  0  0  0  0
  -27.8529  -10.1451  140.9142 C   0  0  0  0  0  0  0  0  0  0  0  0
  -27.3099  -10.9162  141.9543 C   0  0  0  0  0  0  0  0  0  0  0  0
  -31.3080   -8.7940  144.3072 O   0  0  0  0  0  0  0  0  0  0  0  0
  -26.4604  -10.9089  139.1819 C   0  0  0  0  0  0  0  0  0  0  0  0
  -26.8916  -12.0615  138.7783 C   0  0  0  0  0  0  0  0  0  0  0  0
  -28.0545  -12.4746  139.0798 O   0  0  0  0  0  0  0  0  0  0  0  0
  -25.9487  -12.9991  138.7366 O   0  0  0  0  0  0  0  0  0  0  0  0
  -28.6939  -11.3289  145.9035 C   0  0  0  0  0  0  0  0  0  0  0  0
  -29.5134  -10.5435  144.9370 C   0  0  0  0  0  0  0  0  0  0  0  0
  -28.0520  -13.6170  147.2082 O   0  0  0  0  0  0  0  0  0  0  0  0
  2  7  1  0
  3  8  1  0
  8  9  1  0
  7 10  1  0
  9 10  1  0
  8 11  1  0
 11 12  1  0
 16 17  1  0
 17 18  1  0
 18 19  1  0
 19 20  1  0
 20 21  1  0
 17 22  1  0
 21 22  1  0
 21 23  1  0
 24 25  1  0
 22 26  1  0
 25 26  1  0
 15 27  1  0
 26 27  1  0
 18 28  2  0
 25 29  1  0
 29 30  1  0
 30 31  1  0
 30 32  2  0
 12 35  1  0
 12 13  1  0
 24 23  1  0
 13 14  2  0
 14 15  1  0
 15 16  2  0
 16 34  1  0
 34 33  2  0
 33 13  1  0
  1  2  2  0
  2  3  1  0
  3  4  2  0
  4  6  1  0
  6  5  2  0
  5  1  1  0
M  END

$$$$
No_85-/dssg/home/sw_qyf/PocketFlow/Model-Generation-Results/5HT2A_7WC7_rec_A_10.pdb/2024-01-01-03-54-21/
     RDKit          3D

 35 37  0  0  0  0  0  0  0  0999 V2000
  -23.1746  -16.6014  144.8668 C   0  0  0  0  0  0  0  0  0  0  0  0
  -23.8963  -15.5346  144.7885 C   0  0  0  0  0  0  0  0  0  0  0  0
  -23.6398  -14.5115  145.3281 C   0  0  0  0  0  0  0  0  0  0  0  0
  -24.3240  -13.3648  145.1280 C   0  0  0  0  0  0  0  0  0  0  0  0
  -25.5072  -13.2953  144.4353 C   0  0  0  0  0  0  0  0  0  0  0  0
  -25.9151  -14.5889  143.8605 C   0  0  0  0  0  0  0  0  0  0  0  0
  -25.1243  -15.6356  144.0574 C   0  0  0  0  0  0  0  0  0  0  0  0
  -23.5175  -17.6172  145.7856 N   0  0  0  0  0  0  0  0  0  0  0  0
  -24.3929  -17.4142  146.6280 C   0  0  0  0  0  0  0  0  0  0  0  0
  -23.8851  -17.4893  148.0497 C   0  0  0  0  0  0  0  0  0  0  0  0
  -24.6719  -17.2738  149.1884 C   0  0  0  0  0  0  0  0  0  0  0  0
  -26.0707  -16.9955  148.9125 C   0  0  0  0  0  0  0  0  0  0  0  0
  -26.5152  -16.7172  147.6359 C   0  0  0  0  0  0  0  0  0  0  0  0
  -25.6855  -16.9425  146.5323 C   0  0  0  0  0  0  0  0  0  0  0  0
  -27.9419  -16.3233  147.5310 C   0  0  0  0  0  0  0  0  0  0  0  0
  -28.7880  -16.0761  148.4958 C   0  0  0  0  0  0  0  0  0  0  0  0
  -30.0205  -15.4074  148.3855 C   0  0  0  0  0  0  0  0  0  0  0  0
  -30.1598  -14.6681  147.1326 C   0  0  0  0  0  0  0  0  0  0  0  0
  -29.0905  -14.6298  146.2446 C   0  0  0  0  0  0  0  0  0  0  0  0
  -28.0707  -15.4402  146.3490 C   0  0  0  0  0  0  0  0  0  0  0  0
  -23.8692  -11.9945  145.7824 C   0  0  0  0  0  0  0  0  0  0  0  0
  -24.2039  -17.4723  150.5811 C   0  0  0  0  0  0  0  0  0  0  0  0
  -22.9429  -17.4463  150.7568 O   0  0  0  0  0  0  0  0  0  0  0  0
  -25.0631  -17.7759  151.4785 O   0  0  0  0  0  0  0  0  0  0  0  0
  -22.9872  -12.1867  146.6887 N   0  0  0  0  0  0  0  0  0  0  0  0
  -24.3970  -10.9705  145.4127 O   0  0  0  0  0  0  0  0  0  0  0  0
  -30.8902  -15.1856  149.5554 C   0  0  0  0  0  0  0  0  0  0  0  0
  -31.0286  -16.0698  150.3772 F   0  0  0  0  0  0  0  0  0  0  0  0
  -32.0366  -14.6240  149.1941 F   0  0  0  0  0  0  0  0  0  0  0  0
  -30.3274  -14.0343  150.2818 F   0  0  0  0  0  0  0  0  0  0  0  0
  -27.5314  -14.5124  142.9176 Br  0  0  0  0  0  0  0  0  0  0  0  0
  -22.9203  -18.9552  145.8300 C   0  0  0  0  0  0  0  0  0  0  0  0
  -23.8221  -19.9530  145.1476 C   0  0  0  0  0  0  0  0  0  0  0  0
  -24.8193  -19.5978  144.8039 O   0  0  0  0  0  0  0  0  0  0  0  0
  -23.7178  -21.1082  145.8393 O   0  0  0  0  0  0  0  0  0  0  0  0
  1  2  1  0
  1  8  1  0
  8  9  1  0
 13 15  1  0
  4 21  1  0
 11 22  1  0
 22 23  2  0
 22 24  1  0
 21 25  1  0
 21 26  2  0
 17 27  1  0
 27 28  1  0
 27 29  1  0
 27 30  1  0
  6 31  1  0
  8 32  1  0
 32 33  1  0
 33 34  1  0
 33 35  2  0
 15 16  2  0
 16 17  1  0
 17 18  2  0
 18 19  1  0
 19 20  2  0
 20 15  1  0
  2  3  2  0
  3  4  1  0
  4  5  2  0
  5  6  1  0
  6  7  2  0
  7  2  1  0
  9 10  2  0
 10 11  1  0
 11 12  2  0
 12 13  1  0
 13 14  2  0
 14  9  1  0
M  END

$$$$
No_86-/dssg/home/sw_qyf/PocketFlow/Model-Generation-Results/5HT2A_7WC7_rec_A_10.pdb/2024-01-01-03-54-21/
     RDKit          3D

 33 34  0  0  0  0  0  0  0  0999 V2000
  -24.1553  -17.8465  145.7021 C   0  0  0  0  0  0  0  0  0  0  0  0
  -23.9795  -18.4462  146.7426 C   0  0  0  0  0  0  0  0  0  0  0  0
  -25.1593  -16.8262  145.6925 C   0  0  0  0  0  0  0  0  0  0  0  0
  -25.3302  -15.8818  144.5925 C   0  0  0  0  0  0  0  0  0  0  0  0
  -24.4570  -18.1009  148.0274 C   0  0  0  0  0  0  0  0  0  0  0  0
  -25.3496  -17.0286  148.1023 C   0  0  0  0  0  0  0  0  0  0  0  0
  -25.5669  -16.2449  146.9641 C   0  0  0  0  0  0  0  0  0  0  0  0
  -24.1805  -15.0528  144.1688 C   0  0  0  0  0  0  0  0  0  0  0  0
  -24.2104  -13.6534  144.9107 C   0  0  0  0  0  0  0  0  0  0  0  0
  -23.0100  -12.7958  144.7618 C   0  0  0  0  0  0  0  0  0  0  0  0
  -23.0999  -11.6105  145.3248 O   0  0  0  0  0  0  0  0  0  0  0  0
  -26.4828  -15.1433  147.0112 C   0  0  0  0  0  0  0  0  0  0  0  0
  -26.2588  -13.9334  146.6779 C   0  0  0  0  0  0  0  0  0  0  0  0
  -25.2689  -13.3042  145.6278 C   0  0  0  0  0  0  0  0  0  0  0  0
  -22.0793  -13.1580  144.0303 O   0  0  0  0  0  0  0  0  0  0  0  0
  -25.8378  -16.6390  149.4213 C   0  0  0  0  0  0  0  0  0  0  0  0
  -25.0269  -17.0652  150.5443 C   0  0  0  0  0  0  0  0  0  0  0  0
  -26.4285  -12.1392  144.7865 Cl  0  0  0  0  0  0  0  0  0  0  0  0
  -23.6721  -18.2204  144.5601 O   0  0  0  0  0  0  0  0  0  0  0  0
  -23.7179  -16.6215  150.6768 C   0  0  0  0  0  0  0  0  0  0  0  0
  -22.6668  -17.6653  150.8377 C   0  0  0  0  0  0  0  0  0  0  0  0
  -21.6042  -17.1075  151.4684 O   0  0  0  0  0  0  0  0  0  0  0  0
  -21.3523  -15.7861  151.3553 C   0  0  0  0  0  0  0  0  0  0  0  0
  -27.8578  -15.5426  146.7596 C   0  0  0  0  0  0  0  0  0  0  0  0
  -28.4555  -16.7377  146.8104 C   0  0  0  0  0  0  0  0  0  0  0  0
  -28.8562  -14.4167  146.7736 C   0  0  0  0  0  0  0  0  0  0  0  0
  -30.1788  -14.5980  147.2941 C   0  0  0  0  0  0  0  0  0  0  0  0
  -30.8522  -13.2884  147.3588 C   0  0  0  0  0  0  0  0  0  0  0  0
  -30.0723  -12.2974  148.1440 C   0  0  0  0  0  0  0  0  0  0  0  0
  -29.6155  -11.1270  147.3163 Cl  0  0  0  0  0  0  0  0  0  0  0  0
  -23.0708  -19.4893  146.7279 O   0  0  0  0  0  0  0  0  0  0  0  0
  -29.8729  -12.3730  149.3738 O   0  0  0  0  0  0  0  0  0  0  0  0
  -25.6152  -17.9383  151.3700 O   0  0  0  0  0  0  0  0  0  0  0  0
  3  4  1  0
  4  8  1  0
  8  9  1  0
  9 10  1  0
 10 11  1  0
  7 12  1  0
 12 13  2  3
  9 14  1  0
 13 14  1  0
 10 15  2  0
  6 16  1  0
 16 17  1  0
 14 18  1  0
  1 19  1  0
 17 20  1  0
 20 21  1  0
 21 22  1  0
 22 23  1  0
 12 24  1  0
 24 25  1  0
 24 26  1  0
 26 27  2  3
 27 28  1  0
 28 29  1  0
 29 30  1  0
  2 31  1  0
 29 32  1  0
 17 33  2  0
  1  2  2  0
  2  5  1  0
  5  6  2  0
  6  7  1  0
  7  3  2  0
  3  1  1  0
M  END

$$$$
No_87-/dssg/home/sw_qyf/PocketFlow/Model-Generation-Results/5HT2A_7WC7_rec_A_10.pdb/2024-01-01-03-54-21/
     RDKit          3D

 23 26  0  0  0  0  0  0  0  0999 V2000
  -24.1553  -17.8465  145.7021 C   0  0  0  0  0  0  0  0  0  0  0  0
  -23.9795  -18.4462  146.7426 C   0  0  0  0  0  0  0  0  0  0  0  0
  -25.1196  -16.8106  145.6409 C   0  0  0  0  0  0  0  0  0  0  0  0
  -25.2440  -15.8776  144.5240 C   0  0  0  0  0  0  0  0  0  0  0  0
  -26.0733  -14.7284  144.7061 C   0  0  0  0  0  0  0  0  0  0  0  0
  -26.0749  -13.6607  143.7626 C   0  0  0  0  0  0  0  0  0  0  0  0
  -24.5491  -18.0521  147.9995 C   0  0  0  0  0  0  0  0  0  0  0  0
  -25.4112  -16.9742  148.0640 C   0  0  0  0  0  0  0  0  0  0  0  0
  -25.6107  -16.2038  146.8886 C   0  0  0  0  0  0  0  0  0  0  0  0
  -27.0144  -12.6487  143.8916 C   0  0  0  0  0  0  0  0  0  0  0  0
  -27.7242  -12.4655  145.1149 C   0  0  0  0  0  0  0  0  0  0  0  0
  -27.7246  -13.4994  146.1221 C   0  0  0  0  0  0  0  0  0  0  0  0
  -26.8083  -14.5326  145.9856 C   0  0  0  0  0  0  0  0  0  0  0  0
  -26.4828  -15.1646  146.9912 C   0  0  0  0  0  0  0  0  0  0  0  0
  -28.7057  -11.3244  145.1749 C   0  0  0  0  0  0  0  0  0  0  0  0
  -29.4936  -10.6850  144.3577 C   0  0  0  0  0  0  0  0  0  0  0  0
  -30.2825   -9.5965  144.6864 C   0  0  0  0  0  0  0  0  0  0  0  0
  -30.9245   -8.9009  143.7106 C   0  0  0  0  0  0  0  0  0  0  0  0
  -30.8048   -9.1348  142.4086 C   0  0  0  0  0  0  0  0  0  0  0  0
  -29.9082  -10.1819  142.0672 C   0  0  0  0  0  0  0  0  0  0  0  0
  -29.2209  -10.8812  142.9817 C   0  0  0  0  0  0  0  0  0  0  0  0
  -31.4601   -8.4299  141.5070 O   0  0  0  0  0  0  0  0  0  0  0  0
  -25.8248  -14.0689  142.4554 O   0  0  0  0  0  0  0  0  0  0  0  0
  3  4  1  0
  4  5  1  0
  9 14  1  0
 13 14  1  0
 11 15  1  0
 19 22  1  0
  6 23  1  0
 15 16  1  0
 16 17  2  0
 17 18  1  0
 18 19  2  0
 19 20  1  0
 20 21  2  0
 21 16  1  0
  1  2  2  0
  2  7  1  0
  7  8  2  0
  8  9  1  0
  9  3  2  0
  3  1  1  0
  5  6  2  0
  6 10  1  0
 10 11  2  0
 11 12  1  0
 12 13  2  0
 13  5  1  0
M  END

$$$$
No_88-/dssg/home/sw_qyf/PocketFlow/Model-Generation-Results/5HT2A_7WC7_rec_A_10.pdb/2024-01-01-03-54-21/
     RDKit          3D

 12 12  0  0  0  0  0  0  0  0999 V2000
  -23.1746  -16.6014  144.8668 C   0  0  0  0  0  0  0  0  0  0  0  0
  -24.0189  -16.0564  145.8445 C   0  0  0  0  0  0  0  0  0  0  0  0
  -24.4850  -14.7380  145.6359 C   0  0  0  0  0  0  0  0  0  0  0  0
  -24.0244  -13.9858  144.5634 C   0  0  0  0  0  0  0  0  0  0  0  0
  -22.9814  -14.4736  143.8270 C   0  0  0  0  0  0  0  0  0  0  0  0
  -22.6517  -15.7450  143.9774 N   0  0  0  0  0  0  0  0  0  0  0  0
  -24.5684  -16.9417  146.8976 C   0  0  0  0  0  0  0  0  0  0  0  0
  -23.9356  -17.8893  147.3879 C   0  0  0  0  0  0  0  0  0  0  0  0
  -25.7656  -16.5308  147.5864 C   0  0  0  0  0  0  0  0  0  0  0  0
  -26.9762  -16.3288  146.9669 C   0  0  0  0  0  0  0  0  0  0  0  0
  -27.3978  -16.9793  145.9642 C   0  0  0  0  0  0  0  0  0  0  0  0
  -28.6846  -16.6994  145.4809 N   0  0  0  0  0  0  0  0  0  0  0  0
  2  7  1  0
  7  8  1  0
  7  9  1  0
  9 10  1  0
 10 11  2  3
 11 12  1  0
  1  2  2  0
  2  3  1  0
  3  4  2  0
  4  5  1  0
  5  6  2  0
  6  1  1  0
M  END

$$$$
No_89-/dssg/home/sw_qyf/PocketFlow/Model-Generation-Results/5HT2A_7WC7_rec_A_10.pdb/2024-01-01-03-54-21/
     RDKit          3D

 20 21  0  0  0  0  0  0  0  0999 V2000
  -23.1746  -16.6014  144.8668 C   0  0  0  0  0  0  0  0  0  0  0  0
  -23.8963  -15.5346  144.7885 C   0  0  0  0  0  0  0  0  0  0  0  0
  -24.6479  -15.0447  145.8164 C   0  0  0  0  0  0  0  0  0  0  0  0
  -25.3835  -13.7782  145.7887 C   0  0  0  0  0  0  0  0  0  0  0  0
  -25.5487  -13.1759  144.6122 C   0  0  0  0  0  0  0  0  0  0  0  0
  -24.9307  -13.8691  143.4709 C   0  0  0  0  0  0  0  0  0  0  0  0
  -24.2200  -15.0002  143.6265 N   0  0  0  0  0  0  0  0  0  0  0  0
  -23.6686  -17.6080  145.8530 C   0  0  0  0  0  0  0  0  0  0  0  0
  -23.1337  -18.8731  146.0060 C   0  0  0  0  0  0  0  0  0  0  0  0
  -24.8068  -17.1978  146.6901 C   0  0  0  0  0  0  0  0  0  0  0  0
  -25.3026  -15.9466  146.7635 C   0  0  0  0  0  0  0  0  0  0  0  0
  -26.3516  -12.0312  144.4766 C   0  0  0  0  0  0  0  0  0  0  0  0
  -27.4045  -12.2464  144.5132 F   0  0  0  0  0  0  0  0  0  0  0  0
  -26.0077  -11.2078  145.6300 F   0  0  0  0  0  0  0  0  0  0  0  0
  -26.0395  -11.2251  143.4802 F   0  0  0  0  0  0  0  0  0  0  0  0
  -26.2840  -15.6244  147.7905 C   0  0  0  0  0  0  0  0  0  0  0  0
  -27.5474  -15.4801  147.3882 C   0  0  0  0  0  0  0  0  0  0  0  0
  -28.5449  -16.3617  147.4649 C   0  0  0  0  0  0  0  0  0  0  0  0
  -28.3209  -17.5043  148.0833 N   0  0  0  0  0  0  0  0  0  0  0  0
  -29.4524  -16.3822  146.5105 O   0  0  0  0  0  0  0  0  0  0  0  0
  5 12  1  0
 12 13  1  0
 12 14  1  0
 12 15  1  0
 11 16  1  0
 16 17  1  0
 17 18  1  0
 18 19  1  0
 18 20  2  0
  9  8  1  0
  3  4  1  0
  4  5  2  0
  5  6  1  0
  6  7  2  0
  7  2  1  0
  1  2  2  0
  2  3  1  0
  3 11  2  0
 11 10  1  0
 10  8  2  0
  8  1  1  0
M  END

$$$$
No_90-/dssg/home/sw_qyf/PocketFlow/Model-Generation-Results/5HT2A_7WC7_rec_A_10.pdb/2024-01-01-03-54-21/
     RDKit          3D

 22 24  0  0  0  0  0  0  0  0999 V2000
  -24.1553  -17.8465  145.7021 C   0  0  0  0  0  0  0  0  0  0  0  0
  -24.2856  -16.6364  145.3494 C   0  0  0  0  0  0  0  0  0  0  0  0
  -24.7211  -15.5955  146.2115 C   0  0  0  0  0  0  0  0  0  0  0  0
  -25.1322  -16.0374  147.5372 C   0  0  0  0  0  0  0  0  0  0  0  0
  -24.5163  -18.2968  146.9928 C   0  0  0  0  0  0  0  0  0  0  0  0
  -24.9534  -17.3074  147.9886 C   0  0  0  0  0  0  0  0  0  0  0  0
  -24.8563  -14.2403  145.6218 C   0  0  0  0  0  0  0  0  0  0  0  0
  -25.5436  -13.2797  146.3322 C   0  0  0  0  0  0  0  0  0  0  0  0
  -25.5580  -11.9330  145.9033 C   0  0  0  0  0  0  0  0  0  0  0  0
  -24.1793  -13.9022  144.4982 C   0  0  0  0  0  0  0  0  0  0  0  0
  -23.5312  -14.7094  143.7614 N   0  0  0  0  0  0  0  0  0  0  0  0
  -24.8161  -11.5197  144.8215 C   0  0  0  0  0  0  0  0  0  0  0  0
  -24.0832  -12.4736  144.1322 C   0  0  0  0  0  0  0  0  0  0  0  0
  -23.6939  -16.1600  144.1235 N   0  0  0  0  0  0  0  0  0  0  0  0
  -25.2894  -17.6797  149.3893 C   0  0  0  0  0  0  0  0  0  0  0  0
  -24.3274  -17.5079  150.3639 N   0  0  0  0  0  0  0  0  0  0  0  0
  -23.4352  -16.5366  150.3198 C   0  0  0  0  0  0  0  0  0  0  0  0
  -22.1829  -16.8019  151.1820 C   0  0  0  0  0  0  0  0  0  0  0  0
  -26.3017  -10.9594  146.5902 O   0  0  0  0  0  0  0  0  0  0  0  0
  -23.5450  -18.8772  145.0594 O   0  0  0  0  0  0  0  0  0  0  0  0
  -21.3405  -17.5797  150.8004 O   0  0  0  0  0  0  0  0  0  0  0  0
  -21.8145  -15.9542  152.1313 O   0  0  0  0  0  0  0  0  0  0  0  0
  6 15  1  0
 15 16  1  0
 16 17  1  0
 17 18  1  0
  9 19  1  0
  1 20  1  0
 18 21  2  0
 18 22  1  0
  7  8  2  0
  8  9  1  0
  9 12  2  0
 12 13  1  0
 13 10  2  0
  1  2  2  0
  3  4  2  0
  4  6  1  0
  6  5  2  0
  5  1  1  0
  2  3  1  0
  3  7  1  0
  7 10  1  0
 10 11  1  0
 11 14  2  0
 14  2  1  0
M  END

$$$$
No_91-/dssg/home/sw_qyf/PocketFlow/Model-Generation-Results/5HT2A_7WC7_rec_A_10.pdb/2024-01-01-03-54-21/
     RDKit          3D

 22 24  0  0  0  0  0  0  0  0999 V2000
  -24.1553  -17.8465  145.7021 C   0  0  0  0  0  0  0  0  0  0  0  0
  -24.2856  -16.6364  145.3494 C   0  0  0  0  0  0  0  0  0  0  0  0
  -25.0033  -15.6772  146.0737 C   0  0  0  0  0  0  0  0  0  0  0  0
  -24.8869  -14.2981  145.8377 C   0  0  0  0  0  0  0  0  0  0  0  0
  -24.0151  -13.8866  144.8228 C   0  0  0  0  0  0  0  0  0  0  0  0
  -24.9248  -18.3616  146.7605 C   0  0  0  0  0  0  0  0  0  0  0  0
  -23.2541  -14.8094  144.1368 C   0  0  0  0  0  0  0  0  0  0  0  0
  -23.3492  -16.1053  144.3514 C   0  0  0  0  0  0  0  0  0  0  0  0
  -25.6838  -17.4848  147.5490 C   0  0  0  0  0  0  0  0  0  0  0  0
  -25.7062  -16.1601  147.2924 C   0  0  0  0  0  0  0  0  0  0  0  0
  -25.6274  -13.2758  146.6156 C   0  0  0  0  0  0  0  0  0  0  0  0
  -26.2193  -12.1214  145.8841 C   0  0  0  0  0  0  0  0  0  0  0  0
  -27.6032  -11.9536  145.8429 C   0  0  0  0  0  0  0  0  0  0  0  0
  -28.5050  -12.6249  146.6642 C   0  0  0  0  0  0  0  0  0  0  0  0
  -29.8608  -12.3360  146.6476 C   0  0  0  0  0  0  0  0  0  0  0  0
  -30.6078  -12.7178  147.7160 N   0  0  0  0  0  0  0  0  0  0  0  0
  -30.1947  -11.1740  146.0939 O   0  0  0  0  0  0  0  0  0  0  0  0
  -25.2798  -11.2184  145.3724 C   0  0  0  0  0  0  0  0  0  0  0  0
  -25.8127  -10.2578  144.4948 N   0  0  0  0  0  0  0  0  0  0  0  0
  -27.1850  -10.0513  144.5008 C   0  0  0  0  0  0  0  0  0  0  0  0
  -28.0643  -10.8890  145.1943 C   0  0  0  0  0  0  0  0  0  0  0  0
  -27.6032   -8.9953  143.7522 N   0  0  0  0  0  0  0  0  0  0  0  0
  4 11  1  0
 11 12  1  0
 14 15  1  0
 15 16  1  0
 15 17  2  0
 20 22  1  0
 14 13  1  0
  1  2  2  0
  3 10  2  0
 10  9  1  0
  9  6  2  0
  6  1  1  0
 12 13  2  0
 13 21  1  0
 21 20  2  0
 20 19  1  0
 19 18  2  0
 18 12  1  0
  2  3  1  0
  3  4  1  0
  4  5  2  0
  5  7  1  0
  7  8  2  0
  8  2  1  0
M  END

$$$$
No_92-/dssg/home/sw_qyf/PocketFlow/Model-Generation-Results/5HT2A_7WC7_rec_A_10.pdb/2024-01-01-03-54-21/
     RDKit          3D

 13 14  0  0  0  0  0  0  0  0999 V2000
  -24.1553  -17.8465  145.7021 C   0  0  0  0  0  0  0  0  0  0  0  0
  -24.6364  -17.2931  146.7091 C   0  0  0  0  0  0  0  0  0  0  0  0
  -24.5709  -15.9334  146.8074 C   0  0  0  0  0  0  0  0  0  0  0  0
  -24.3883  -15.1807  145.6115 C   0  0  0  0  0  0  0  0  0  0  0  0
  -24.5560  -13.7894  145.5018 C   0  0  0  0  0  0  0  0  0  0  0  0
  -25.5487  -13.2157  146.2574 C   0  0  0  0  0  0  0  0  0  0  0  0
  -23.7774  -17.2004  144.5275 C   0  0  0  0  0  0  0  0  0  0  0  0
  -23.9185  -15.7910  144.5630 C   0  0  0  0  0  0  0  0  0  0  0  0
  -25.8580  -11.8024  146.1274 C   0  0  0  0  0  0  0  0  0  0  0  0
  -25.2797  -11.1161  145.0583 C   0  0  0  0  0  0  0  0  0  0  0  0
  -23.8026  -12.9768  144.6082 C   0  0  0  0  0  0  0  0  0  0  0  0
  -24.0810  -11.6073  144.5676 N   0  0  0  0  0  0  0  0  0  0  0  0
  -24.0174  -19.3879  145.6722 C   0  0  0  0  0  0  0  0  0  0  0  0
  4  5  1  0
  1 13  1  0
  1  2  2  0
  2  3  1  0
  3  4  2  0
  4  8  1  0
  8  7  2  0
  7  1  1  0
  5  6  2  0
  6  9  1  0
  9 10  2  0
 10 12  1  0
 12 11  2  0
 11  5  1  0
M  END

$$$$
No_93-/dssg/home/sw_qyf/PocketFlow/Model-Generation-Results/5HT2A_7WC7_rec_A_10.pdb/2024-01-01-03-54-21/
     RDKit          3D

 31 33  0  0  0  0  0  0  0  0999 V2000
  -23.1746  -16.6014  144.8668 C   0  0  0  0  0  0  0  0  0  0  0  0
  -23.7011  -17.0158  145.9774 C   0  0  0  0  0  0  0  0  0  0  0  0
  -24.2134  -16.0722  146.8877 C   0  0  0  0  0  0  0  0  0  0  0  0
  -24.5407  -14.7704  146.3552 C   0  0  0  0  0  0  0  0  0  0  0  0
  -24.1477  -14.4045  145.0969 C   0  0  0  0  0  0  0  0  0  0  0  0
  -24.3969  -13.0787  144.6022 C   0  0  0  0  0  0  0  0  0  0  0  0
  -23.6460  -15.2585  144.5704 C   0  0  0  0  0  0  0  0  0  0  0  0
  -24.7061  -12.1145  145.7415 C   0  0  0  0  0  0  0  0  0  0  0  0
  -26.1729  -11.7947  145.7387 C   0  0  0  0  0  0  0  0  0  0  0  0
  -26.6806  -10.8646  144.8666 C   0  0  0  0  0  0  0  0  0  0  0  0
  -28.1236  -10.7540  144.6264 C   0  0  0  0  0  0  0  0  0  0  0  0
  -28.9984  -11.0619  145.6163 C   0  0  0  0  0  0  0  0  0  0  0  0
  -28.5319  -11.9927  146.6547 C   0  0  0  0  0  0  0  0  0  0  0  0
  -27.1531  -12.3740  146.6972 C   0  0  0  0  0  0  0  0  0  0  0  0
  -28.5898   -9.9984  143.4605 C   0  0  0  0  0  0  0  0  0  0  0  0
  -29.2939   -8.8888  143.5662 C   0  0  0  0  0  0  0  0  0  0  0  0
  -29.8621   -8.2040  142.4566 C   0  0  0  0  0  0  0  0  0  0  0  0
  -30.9542   -7.3516  142.4026 C   0  0  0  0  0  0  0  0  0  0  0  0
  -23.4655  -18.4182  146.5063 C   0  0  0  0  0  0  0  0  0  0  0  0
  -29.0780   -8.3294  141.1920 C   0  0  0  0  0  0  0  0  0  0  0  0
  -29.2167   -7.4405  140.1828 C   0  0  0  0  0  0  0  0  0  0  0  0
  -29.0056  -10.6728  142.2229 C   0  0  0  0  0  0  0  0  0  0  0  0
  -28.6852   -9.8306  141.0094 C   0  0  0  0  0  0  0  0  0  0  0  0
  -24.2505  -19.1916  146.3501 O   0  0  0  0  0  0  0  0  0  0  0  0
  -29.4674  -12.5759  147.6476 C   0  0  0  0  0  0  0  0  0  0  0  0
  -29.6798  -13.9555  147.6922 C   0  0  0  0  0  0  0  0  0  0  0  0
  -28.9346  -14.7236  147.3760 C   0  0  0  0  0  0  0  0  0  0  0  0
  -28.4065  -15.9188  147.5184 C   0  0  0  0  0  0  0  0  0  0  0  0
  -27.5034  -16.6837  146.7916 C   0  0  0  0  0  0  0  0  0  0  0  0
  -27.5347  -16.5388  145.5198 C   0  0  0  0  0  0  0  0  0  0  0  0
  -27.4542  -15.1316  145.0480 C   0  0  0  0  0  0  0  0  0  0  0  0
  1  2  1  0
  2  3  1  0
  3  4  1  0
  4  5  1  0
  5  6  1  0
  1  7  1  0
  5  7  1  0
  6  8  1  0
  8  9  1  0
 11 15  1  0
 17 18  1  0
  2 19  1  0
 20 21  1  0
 19 24  1  0
 13 25  1  0
 25 26  1  0
 26 27  2  3
 27 28  1  0
 28 29  2  3
 29 30  1  0
 30 31  1  0
 15 16  2  0
 16 17  1  0
 17 20  2  0
 20 23  1  0
 23 22  2  0
 22 15  1  0
  9 10  2  0
 10 11  1  0
 11 12  2  0
 12 13  1  0
 13 14  2  0
 14  9  1  0
M  END

$$$$
No_94-/dssg/home/sw_qyf/PocketFlow/Model-Generation-Results/5HT2A_7WC7_rec_A_10.pdb/2024-01-01-03-54-21/
     RDKit          3D

 35 38  0  0  0  0  0  0  0  0999 V2000
  -24.1553  -17.8465  145.7021 C   0  0  0  0  0  0  0  0  0  0  0  0
  -24.6364  -17.2931  146.7091 C   0  0  0  0  0  0  0  0  0  0  0  0
  -24.0780  -17.2921  147.9389 C   0  0  0  0  0  0  0  0  0  0  0  0
  -24.6761  -16.7363  149.1478 C   0  0  0  0  0  0  0  0  0  0  0  0
  -25.9986  -16.2638  148.9932 C   0  0  0  0  0  0  0  0  0  0  0  0
  -26.6270  -16.3412  147.7728 C   0  0  0  0  0  0  0  0  0  0  0  0
  -25.9735  -16.9165  146.6819 C   0  0  0  0  0  0  0  0  0  0  0  0
  -23.4968  -16.7261  144.4125 Br  0  0  0  0  0  0  0  0  0  0  0  0
  -28.0873  -15.9294  147.6891 C   0  0  0  0  0  0  0  0  0  0  0  0
  -28.4437  -15.1206  146.6232 C   0  0  0  0  0  0  0  0  0  0  0  0
  -27.5468  -14.3995  145.8455 C   0  0  0  0  0  0  0  0  0  0  0  0
  -27.6156  -13.0327  145.5662 C   0  0  0  0  0  0  0  0  0  0  0  0
  -28.2384  -12.2330  146.4285 C   0  0  0  0  0  0  0  0  0  0  0  0
  -28.6262  -10.8707  146.0203 C   0  0  0  0  0  0  0  0  0  0  0  0
  -28.2298  -10.3980  144.7569 C   0  0  0  0  0  0  0  0  0  0  0  0
  -27.4188  -11.2988  143.9659 C   0  0  0  0  0  0  0  0  0  0  0  0
  -27.2317  -12.5956  144.3109 C   0  0  0  0  0  0  0  0  0  0  0  0
  -26.4906  -13.4255  143.3911 C   0  0  0  0  0  0  0  0  0  0  0  0
  -25.6218  -13.1592  142.8800 O   0  0  0  0  0  0  0  0  0  0  0  0
  -27.4549  -14.2009  142.8071 O   0  0  0  0  0  0  0  0  0  0  0  0
  -23.8551  -19.0961  145.4582 O   0  0  0  0  0  0  0  0  0  0  0  0
  -28.9672  -16.3890  148.7107 C   0  0  0  0  0  0  0  0  0  0  0  0
  -28.5202   -9.0441  144.2990 C   0  0  0  0  0  0  0  0  0  0  0  0
  -29.0804   -8.8991  142.9856 C   0  0  0  0  0  0  0  0  0  0  0  0
  -29.0934   -9.8117  142.0895 C   0  0  0  0  0  0  0  0  0  0  0  0
  -29.3181   -9.5572  140.7175 C   0  0  0  0  0  0  0  0  0  0  0  0
  -29.5755   -8.1708  140.4219 C   0  0  0  0  0  0  0  0  0  0  0  0
  -29.6519   -7.1887  141.4917 C   0  0  0  0  0  0  0  0  0  0  0  0
  -29.2938   -7.5376  142.8009 C   0  0  0  0  0  0  0  0  0  0  0  0
  -29.9038   -7.6229  138.7108 Br  0  0  0  0  0  0  0  0  0  0  0  0
  -22.7918  -17.7003  148.1095 O   0  0  0  0  0  0  0  0  0  0  0  0
  -30.0735  -15.5120  148.8809 N   0  0  0  0  0  0  0  0  0  0  0  0
  -30.2877  -14.4321  148.1230 C   0  0  0  0  0  0  0  0  0  0  0  0
  -29.6141  -14.2584  146.9779 N   0  0  0  0  0  0  0  0  0  0  0  0
  -31.3565  -13.7699  148.5187 N   0  0  0  0  0  0  0  0  0  0  0  0
  1  2  1  0
  1  8  1  0
  6  9  1  0
 10 11  1  0
 11 12  1  0
 17 18  1  0
 18 19  1  0
 18 20  2  0
  1 21  2  0
 15 23  1  0
 23 24  1  0
 27 30  1  0
  3 31  1  0
 33 35  1  0
 12 13  2  0
 13 14  1  0
 14 15  2  0
 15 16  1  0
 16 17  2  0
 17 12  1  0
  2  3  2  0
  3  4  1  0
  4  5  2  0
  5  6  1  0
  6  7  2  0
  7  2  1  0
 24 25  2  0
 25 26  1  0
 26 27  2  0
 27 28  1  0
 28 29  2  0
 29 24  1  0
  9 10  2  0
 10 34  1  0
 34 33  2  0
 33 32  1  0
 32 22  2  0
 22  9  1  0
M  END

$$$$
No_95-/dssg/home/sw_qyf/PocketFlow/Model-Generation-Results/5HT2A_7WC7_rec_A_10.pdb/2024-01-01-03-54-21/
     RDKit          3D

 16 16  0  0  0  0  0  0  0  0999 V2000
  -23.1746  -16.6014  144.8668 C   0  0  0  0  0  0  0  0  0  0  0  0
  -23.7011  -17.0158  145.9774 C   0  0  0  0  0  0  0  0  0  0  0  0
  -24.2134  -16.0722  146.8877 C   0  0  0  0  0  0  0  0  0  0  0  0
  -23.3742  -15.2706  144.3922 C   0  0  0  0  0  0  0  0  0  0  0  0
  -22.9708  -14.7021  143.2069 C   0  0  0  0  0  0  0  0  0  0  0  0
  -24.5129  -14.7208  146.5242 C   0  0  0  0  0  0  0  0  0  0  0  0
  -23.9679  -14.3045  145.3433 C   0  0  0  0  0  0  0  0  0  0  0  0
  -23.6174  -18.4435  146.4450 C   0  0  0  0  0  0  0  0  0  0  0  0
  -22.6490  -18.8827  146.8118 O   0  0  0  0  0  0  0  0  0  0  0  0
  -24.7611  -19.1036  146.3319 O   0  0  0  0  0  0  0  0  0  0  0  0
  -22.9227  -13.4294  143.1033 O   0  0  0  0  0  0  0  0  0  0  0  0
  -24.8708  -16.6514  148.4543 Cl  0  0  0  0  0  0  0  0  0  0  0  0
  -21.9576  -15.3292  142.6863 O   0  0  0  0  0  0  0  0  0  0  0  0
  -24.1075  -13.0220  145.1117 F   0  0  0  0  0  0  0  0  0  0  0  0
  -25.0658  -13.9294  147.4453 O   0  0  0  0  0  0  0  0  0  0  0  0
  -25.8259  -12.8430  146.7751 C   0  0  0  0  0  0  0  0  0  0  0  0
  4  5  1  0
  2  8  1  0
  8  9  2  0
  8 10  1  0
  5 11  2  0
  3 12  1  0
  5 13  1  0
  7 14  1  0
  6 15  1  0
 15 16  1  0
  1  2  2  0
  2  3  1  0
  3  6  2  0
  6  7  1  0
  7  4  2  0
  4  1  1  0
M  END

$$$$
No_96-/dssg/home/sw_qyf/PocketFlow/Model-Generation-Results/5HT2A_7WC7_rec_A_10.pdb/2024-01-01-03-54-21/
     RDKit          3D

 22 24  0  0  0  0  0  0  0  0999 V2000
  -24.1553  -17.8465  145.7021 C   0  0  0  0  0  0  0  0  0  0  0  0
  -24.2855  -16.6364  145.3494 C   0  0  0  0  0  0  0  0  0  0  0  0
  -24.7210  -15.5955  146.2116 C   0  0  0  0  0  0  0  0  0  0  0  0
  -24.8538  -14.2010  145.8739 C   0  0  0  0  0  0  0  0  0  0  0  0
  -24.1440  -13.8321  144.7073 C   0  0  0  0  0  0  0  0  0  0  0  0
  -24.0490  -12.4549  144.4543 C   0  0  0  0  0  0  0  0  0  0  0  0
  -24.6156  -18.2742  146.9602 C   0  0  0  0  0  0  0  0  0  0  0  0
  -25.1245  -17.4081  147.9306 C   0  0  0  0  0  0  0  0  0  0  0  0
  -25.2092  -15.9946  147.5609 C   0  0  0  0  0  0  0  0  0  0  0  0
  -25.0903  -11.6975  145.1871 C   0  0  0  0  0  0  0  0  0  0  0  0
  -25.7598  -12.1540  146.3366 C   0  0  0  0  0  0  0  0  0  0  0  0
  -25.6586  -13.3999  146.6541 C   0  0  0  0  0  0  0  0  0  0  0  0
  -23.9209  -16.2405  144.1379 O   0  0  0  0  0  0  0  0  0  0  0  0
  -23.0866  -14.4479  144.3135 O   0  0  0  0  0  0  0  0  0  0  0  0
  -25.9349  -10.9831  144.2617 O   0  0  0  0  0  0  0  0  0  0  0  0
  -27.2071  -11.1770  144.2377 C   0  0  0  0  0  0  0  0  0  0  0  0
  -27.9884  -11.5623  145.0455 C   0  0  0  0  0  0  0  0  0  0  0  0
  -27.6607  -10.7784  142.8537 C   0  0  0  0  0  0  0  0  0  0  0  0
  -29.4939  -11.2984  144.9784 C   0  0  0  0  0  0  0  0  0  0  0  0
  -29.8775  -10.6933  143.8536 N   0  0  0  0  0  0  0  0  0  0  0  0
  -29.0214  -10.5063  142.8270 C   0  0  0  0  0  0  0  0  0  0  0  0
  -30.2206  -11.4789  146.0146 O   0  0  0  0  0  0  0  0  0  0  0  0
  3  4  1  0
  2 13  1  0
  5 14  1  0
 10 15  1  0
 15 16  1  0
 19 22  1  0
  4  5  2  0
  5  6  1  0
  6 10  2  0
 10 11  1  0
 11 12  2  0
 12  4  1  0
  1  2  2  0
  2  3  1  0
  3  9  2  0
  9  8  1  0
  8  7  2  0
  7  1  1  0
 16 17  2  0
 17 19  1  0
 19 20  2  0
 20 21  1  0
 21 18  2  0
 18 16  1  0
M  END

$$$$
No_97-/dssg/home/sw_qyf/PocketFlow/Model-Generation-Results/5HT2A_7WC7_rec_A_10.pdb/2024-01-01-03-54-21/
     RDKit          3D

 27 28  0  0  0  0  0  0  0  0999 V2000
  -24.1553  -17.8465  145.7021 C   0  0  0  0  0  0  0  0  0  0  0  0
  -23.9795  -18.4462  146.7426 C   0  0  0  0  0  0  0  0  0  0  0  0
  -24.2723  -16.4220  145.8037 C   0  0  0  0  0  0  0  0  0  0  0  0
  -24.0151  -15.5895  144.6874 C   0  0  0  0  0  0  0  0  0  0  0  0
  -24.2323  -14.1482  144.8444 C   0  0  0  0  0  0  0  0  0  0  0  0
  -23.4231  -13.3612  144.3121 C   0  0  0  0  0  0  0  0  0  0  0  0
  -24.0793  -17.9731  148.1027 C   0  0  0  0  0  0  0  0  0  0  0  0
  -24.2578  -16.5716  148.2262 C   0  0  0  0  0  0  0  0  0  0  0  0
  -24.2948  -15.7505  147.0841 C   0  0  0  0  0  0  0  0  0  0  0  0
  -23.3360  -11.9211  144.8327 C   0  0  0  0  0  0  0  0  0  0  0  0
  -24.5360  -11.4605  145.5499 C   0  0  0  0  0  0  0  0  0  0  0  0
  -25.5233  -12.3910  145.8726 C   0  0  0  0  0  0  0  0  0  0  0  0
  -25.3723  -13.7450  145.5537 C   0  0  0  0  0  0  0  0  0  0  0  0
  -26.9132  -11.8112  146.7517 Cl  0  0  0  0  0  0  0  0  0  0  0  0
  -22.2747  -13.6548  143.7495 O   0  0  0  0  0  0  0  0  0  0  0  0
  -23.8424  -19.8192  146.6168 O   0  0  0  0  0  0  0  0  0  0  0  0
  -23.6988  -16.0187  143.6177 O   0  0  0  0  0  0  0  0  0  0  0  0
  -23.9754  -20.3389  145.4074 C   0  0  0  0  0  0  0  0  0  0  0  0
  -24.3773  -16.0437  149.5050 O   0  0  0  0  0  0  0  0  0  0  0  0
  -23.6079  -16.6916  150.4442 C   0  0  0  0  0  0  0  0  0  0  0  0
  -22.1545  -16.7551  150.2920 C   0  0  0  0  0  0  0  0  0  0  0  0
  -21.5610  -17.0477  151.4187 F   0  0  0  0  0  0  0  0  0  0  0  0
  -21.8757  -15.3519  150.1077 F   0  0  0  0  0  0  0  0  0  0  0  0
  -21.8135  -17.3675  149.3106 F   0  0  0  0  0  0  0  0  0  0  0  0
  -24.2779  -17.2524  151.4507 O   0  0  0  0  0  0  0  0  0  0  0  0
  -26.3130  -14.5514  145.9530 O   0  0  0  0  0  0  0  0  0  0  0  0
  -27.5259  -13.9845  146.2335 C   0  0  0  0  0  0  0  0  0  0  0  0
  3  4  1  0
  4  5  1  0
 12 14  1  0
  6 15  1  0
  2 16  1  0
  4 17  2  0
 16 18  1  0
  8 19  1  0
 19 20  1  0
 20 21  1  0
 21 22  1  0
 21 23  1  0
 21 24  1  0
 20 25  2  0
 13 26  1  0
 26 27  1  0
  1  2  2  0
  2  7  1  0
  7  8  2  0
  8  9  1  0
  9  3  2  0
  3  1  1  0
  5  6  2  0
  6 10  1  0
 10 11  2  0
 11 12  1  0
 12 13  2  0
 13  5  1  0
M  END

$$$$
No_98-/dssg/home/sw_qyf/PocketFlow/Model-Generation-Results/5HT2A_7WC7_rec_A_10.pdb/2024-01-01-03-54-21/
     RDKit          3D

 31 34  0  0  0  0  0  0  0  0999 V2000
  -23.1746  -16.6014  144.8668 C   0  0  0  0  0  0  0  0  0  0  0  0
  -23.8963  -15.5346  144.7885 C   0  0  0  0  0  0  0  0  0  0  0  0
  -24.5755  -15.0383  145.9043 C   0  0  0  0  0  0  0  0  0  0  0  0
  -25.3266  -13.7882  145.9354 C   0  0  0  0  0  0  0  0  0  0  0  0
  -23.3054  -17.4825  145.9484 C   0  0  0  0  0  0  0  0  0  0  0  0
  -23.9716  -17.0786  147.1155 C   0  0  0  0  0  0  0  0  0  0  0  0
  -24.6279  -15.8542  147.1153 C   0  0  0  0  0  0  0  0  0  0  0  0
  -24.5727  -12.6172  146.2214 C   0  0  0  0  0  0  0  0  0  0  0  0
  -26.6071  -13.6824  145.5088 C   0  0  0  0  0  0  0  0  0  0  0  0
  -27.2965  -12.4239  145.5229 C   0  0  0  0  0  0  0  0  0  0  0  0
  -28.6817  -12.3058  145.3997 C   0  0  0  0  0  0  0  0  0  0  0  0
  -25.3005  -11.3601  146.2953 C   0  0  0  0  0  0  0  0  0  0  0  0
  -26.6316  -11.3029  145.9420 C   0  0  0  0  0  0  0  0  0  0  0  0
  -29.2258  -11.2935  144.6288 C   0  0  0  0  0  0  0  0  0  0  0  0
  -28.8401  -10.9659  143.3984 C   0  0  0  0  0  0  0  0  0  0  0  0
  -29.5891   -9.9660  142.6254 C   0  0  0  0  0  0  0  0  0  0  0  0
  -29.6550   -8.8341  142.8717 C   0  0  0  0  0  0  0  0  0  0  0  0
  -31.0461   -8.2741  143.2762 C   0  0  0  0  0  0  0  0  0  0  0  0
  -31.9108   -9.2508  143.4576 C   0  0  0  0  0  0  0  0  0  0  0  0
  -32.0314  -10.0758  142.4444 O   0  0  0  0  0  0  0  0  0  0  0  0
  -30.7636  -10.7863  142.3394 C   0  0  0  0  0  0  0  0  0  0  0  0
  -31.3553   -7.2786  142.2463 O   0  0  0  0  0  0  0  0  0  0  0  0
  -23.9589  -17.9964  148.5764 Cl  0  0  0  0  0  0  0  0  0  0  0  0
  -27.2828  -14.7242  145.1292 O   0  0  0  0  0  0  0  0  0  0  0  0
  -23.8852  -14.7608  143.7367 O   0  0  0  0  0  0  0  0  0  0  0  0
  -28.8228   -9.9582  141.1642 C   0  0  0  0  0  0  0  0  0  0  0  0
  -28.6528   -8.9249  140.3768 C   0  0  0  0  0  0  0  0  0  0  0  0
  -28.2799   -9.0317  139.0794 C   0  0  0  0  0  0  0  0  0  0  0  0
  -27.8098  -10.2420  138.6281 C   0  0  0  0  0  0  0  0  0  0  0  0
  -27.8341  -11.3598  139.4878 C   0  0  0  0  0  0  0  0  0  0  0  0
  -28.3623  -11.2687  140.7224 C   0  0  0  0  0  0  0  0  0  0  0  0
  3  4  1  0
 10 11  1  0
 11 14  2  3
 14 15  1  0
 15 16  1  0
 16 17  1  0
 17 18  1  0
 18 19  1  0
 19 20  1  0
 16 21  1  0
 20 21  1  0
 18 22  1  0
  6 23  1  0
  9 24  1  0
  2 25  1  0
 16 26  1  0
 26 27  2  0
 27 28  1  0
 28 29  2  0
 29 30  1  0
 30 31  2  0
 31 26  1  0
  1  2  2  0
  2  3  1  0
  3  7  2  0
  7  6  1  0
  6  5  2  0
  5  1  1  0
  4  8  2  0
  8 12  1  0
 12 13  2  0
 13 10  1  0
 10  9  2  0
  9  4  1  0
M  END

$$$$
No_99-/dssg/home/sw_qyf/PocketFlow/Model-Generation-Results/5HT2A_7WC7_rec_A_10.pdb/2024-01-01-03-54-21/
     RDKit          3D

 23 24  0  0  0  0  0  0  0  0999 V2000
  -23.1746  -16.6014  144.8668 C   0  0  0  0  0  0  0  0  0  0  0  0
  -23.7011  -17.0158  145.9774 C   0  0  0  0  0  0  0  0  0  0  0  0
  -24.2134  -16.0722  146.8877 C   0  0  0  0  0  0  0  0  0  0  0  0
  -24.5407  -14.7704  146.3552 C   0  0  0  0  0  0  0  0  0  0  0  0
  -24.1477  -14.4045  145.0969 C   0  0  0  0  0  0  0  0  0  0  0  0
  -23.3867  -15.3023  144.3541 C   0  0  0  0  0  0  0  0  0  0  0  0
  -23.4968  -18.3766  146.5658 C   0  0  0  0  0  0  0  0  0  0  0  0
  -23.9757  -18.7710  147.6073 O   0  0  0  0  0  0  0  0  0  0  0  0
  -22.9317  -19.2553  145.8303 O   0  0  0  0  0  0  0  0  0  0  0  0
  -24.3164  -13.0051  144.6653 C   0  0  0  0  0  0  0  0  0  0  0  0
  -24.2747  -12.0701  145.8320 C   0  0  0  0  0  0  0  0  0  0  0  0
  -24.9451  -11.3055  145.9271 C   0  0  0  0  0  0  0  0  0  0  0  0
  -26.1090  -10.9691  145.0550 C   0  0  0  0  0  0  0  0  0  0  0  0
  -26.5127   -9.7151  144.8744 C   0  0  0  0  0  0  0  0  0  0  0  0
  -27.5000   -9.4671  143.9598 C   0  0  0  0  0  0  0  0  0  0  0  0
  -28.0845  -10.4736  143.2337 C   0  0  0  0  0  0  0  0  0  0  0  0
  -27.5960  -11.7676  143.4211 C   0  0  0  0  0  0  0  0  0  0  0  0
  -26.6208  -12.0405  144.2975 C   0  0  0  0  0  0  0  0  0  0  0  0
  -29.1510  -10.1571  142.2868 C   0  0  0  0  0  0  0  0  0  0  0  0
  -30.3367  -10.2266  142.8245 F   0  0  0  0  0  0  0  0  0  0  0  0
  -29.0907  -11.0685  141.2636 F   0  0  0  0  0  0  0  0  0  0  0  0
  -28.9897   -9.0015  141.6604 F   0  0  0  0  0  0  0  0  0  0  0  0
  -24.5636  -12.8669  143.5824 O   0  0  0  0  0  0  0  0  0  0  0  0
  2  7  1  0
  7  8  2  0
  7  9  1  0
  5 10  1  0
 10 11  1  0
 11 12  2  3
 12 13  1  0
 16 19  1  0
 19 20  1  0
 19 21  1  0
 19 22  1  0
 10 23  2  0
  1  2  2  0
  2  3  1  0
  3  4  2  0
  4  5  1  0
  5  6  2  0
  6  1  1  0
 13 14  2  0
 14 15  1  0
 15 16  2  0
 16 17  1  0
 17 18  2  0
 18 13  1  0
M  END

$$$$
No_100-/dssg/home/sw_qyf/PocketFlow/Model-Generation-Results/5HT2A_7WC7_rec_A_10.pdb/2024-01-01-03-54-21/
     RDKit          3D

 29 32  0  0  0  0  0  0  0  0999 V2000
  -24.1553  -17.8465  145.7021 C   0  0  0  0  0  0  0  0  0  0  0  0
  -23.9795  -18.4462  146.7426 C   0  0  0  0  0  0  0  0  0  0  0  0
  -25.1196  -16.8106  145.6409 C   0  0  0  0  0  0  0  0  0  0  0  0
  -25.9236  -16.5070  146.7422 C   0  0  0  0  0  0  0  0  0  0  0  0
  -25.6627  -17.1841  147.9274 C   0  0  0  0  0  0  0  0  0  0  0  0
  -24.6813  -18.1540  148.0079 C   0  0  0  0  0  0  0  0  0  0  0  0
  -26.9716  -15.4553  146.6645 C   0  0  0  0  0  0  0  0  0  0  0  0
  -28.1968  -15.6101  147.2311 C   0  0  0  0  0  0  0  0  0  0  0  0
  -29.1733  -14.6256  147.1740 C   0  0  0  0  0  0  0  0  0  0  0  0
  -28.9088  -13.3960  146.5951 C   0  0  0  0  0  0  0  0  0  0  0  0
  -27.6037  -13.1378  146.0240 C   0  0  0  0  0  0  0  0  0  0  0  0
  -26.6539  -14.1411  146.0868 C   0  0  0  0  0  0  0  0  0  0  0  0
  -27.1895  -11.9329  145.2842 C   0  0  0  0  0  0  0  0  0  0  0  0
  -28.0162  -11.1284  144.5611 C   0  0  0  0  0  0  0  0  0  0  0  0
  -29.2629  -10.7831  144.8925 C   0  0  0  0  0  0  0  0  0  0  0  0
  -30.0717   -9.8726  144.1847 C   0  0  0  0  0  0  0  0  0  0  0  0
  -29.6219   -9.2748  143.0664 C   0  0  0  0  0  0  0  0  0  0  0  0
  -28.3295   -9.7405  142.5921 C   0  0  0  0  0  0  0  0  0  0  0  0
  -27.5918  -10.6152  143.3342 C   0  0  0  0  0  0  0  0  0  0  0  0
  -30.4823   -8.3790  142.3012 C   0  0  0  0  0  0  0  0  0  0  0  0
  -30.3207   -7.3666  142.3127 O   0  0  0  0  0  0  0  0  0  0  0  0
  -31.7487   -8.8318  142.0975 O   0  0  0  0  0  0  0  0  0  0  0  0
  -25.9599  -11.4720  145.5168 O   0  0  0  0  0  0  0  0  0  0  0  0
  -25.2399  -16.0680  144.5008 O   0  0  0  0  0  0  0  0  0  0  0  0
  -24.9793  -14.6666  144.5608 C   0  0  0  0  0  0  0  0  0  0  0  0
  -26.1104  -13.8407  144.9394 C   0  0  0  0  0  0  0  0  0  0  0  0
  -23.6452  -14.2169  144.2342 C   0  0  0  0  0  0  0  0  0  0  0  0
  -23.0633  -13.8009  145.0932 O   0  0  0  0  0  0  0  0  0  0  0  0
  -23.1653  -12.2746  145.2400 C   0  0  0  0  0  0  0  0  0  0  0  0
  4  7  1  0
 11 13  1  0
 13 14  1  0
 17 20  1  0
 20 21  1  0
 20 22  2  0
 13 23  2  0
  3 24  1  0
 24 25  1  0
 12 26  1  0
 25 26  1  0
 25 27  1  0
 27 28  1  0
 28 29  1  0
 14 15  2  0
 15 16  1  0
 16 17  2  0
 17 18  1  0
 18 19  2  0
 19 14  1  0
  1  2  2  0
  2  6  1  0
  6  5  2  0
  5  4  1  0
  4  3  2  0
  3  1  1  0
  7  8  2  0
  8  9  1  0
  9 10  2  0
 10 11  1  0
 11 12  2  0
 12  7  1  0
M  END

$$$$
No_101-/dssg/home/sw_qyf/PocketFlow/Model-Generation-Results/5HT2A_7WC7_rec_A_10.pdb/2024-01-01-03-54-21/
     RDKit          3D

 18 20  0  0  0  0  0  0  0  0999 V2000
  -24.1553  -17.8465  145.7021 C   0  0  0  0  0  0  0  0  0  0  0  0
  -23.9795  -18.4462  146.7426 C   0  0  0  0  0  0  0  0  0  0  0  0
  -25.1196  -16.8105  145.6408 C   0  0  0  0  0  0  0  0  0  0  0  0
  -25.5716  -16.3544  146.4211 C   0  0  0  0  0  0  0  0  0  0  0  0
  -24.4819  -17.8608  147.9561 C   0  0  0  0  0  0  0  0  0  0  0  0
  -25.3389  -16.7786  147.9052 C   0  0  0  0  0  0  0  0  0  0  0  0
  -26.5317  -15.0832  146.2576 C   0  0  0  0  0  0  0  0  0  0  0  0
  -27.7838  -15.1394  146.8082 C   0  0  0  0  0  0  0  0  0  0  0  0
  -28.6470  -14.0540  146.7138 C   0  0  0  0  0  0  0  0  0  0  0  0
  -29.8963  -13.9015  147.4625 C   0  0  0  0  0  0  0  0  0  0  0  0
  -30.6212  -12.7043  147.4240 C   0  0  0  0  0  0  0  0  0  0  0  0
  -31.3441  -12.3009  148.4961 C   0  0  0  0  0  0  0  0  0  0  0  0
  -26.0701  -13.8056  145.9852 C   0  0  0  0  0  0  0  0  0  0  0  0
  -26.8776  -12.6372  145.8957 C   0  0  0  0  0  0  0  0  0  0  0  0
  -28.1795  -12.7597  146.4005 C   0  0  0  0  0  0  0  0  0  0  0  0
  -31.4871  -12.8663  149.4379 C   0  0  0  0  0  0  0  0  0  0  0  0
  -30.8611  -14.2471  149.6458 C   0  0  0  0  0  0  0  0  0  0  0  0
  -29.9771  -14.6516  148.6363 C   0  0  0  0  0  0  0  0  0  0  0  0
  4  7  1  0
  9 10  1  0
  7  8  2  0
  8  9  1  0
  9 15  2  0
 15 14  1  0
 14 13  2  0
 13  7  1  0
 10 11  2  0
 11 12  1  0
 12 16  2  0
 16 17  1  0
 17 18  2  0
 18 10  1  0
  1  2  2  0
  2  5  1  0
  5  6  2  0
  6  4  1  0
  4  3  2  0
  3  1  1  0
M  END

$$$$
No_102-/dssg/home/sw_qyf/PocketFlow/Model-Generation-Results/5HT2A_7WC7_rec_A_10.pdb/2024-01-01-03-54-21/
     RDKit          3D

 28 30  0  0  0  0  0  0  0  0999 V2000
  -23.1746  -16.6014  144.8668 C   0  0  0  0  0  0  0  0  0  0  0  0
  -24.0189  -16.0564  145.8445 C   0  0  0  0  0  0  0  0  0  0  0  0
  -24.4145  -16.8299  146.9062 C   0  0  0  0  0  0  0  0  0  0  0  0
  -23.9612  -18.1384  147.0126 C   0  0  0  0  0  0  0  0  0  0  0  0
  -23.1429  -18.6221  146.0418 C   0  0  0  0  0  0  0  0  0  0  0  0
  -22.8095  -17.8231  145.0610 N   0  0  0  0  0  0  0  0  0  0  0  0
  -24.5719  -14.6427  145.6756 C   0  0  0  0  0  0  0  0  0  0  0  0
  -23.9650  -13.6847  144.9294 C   0  0  0  0  0  0  0  0  0  0  0  0
  -24.3722  -12.3435  144.9907 C   0  0  0  0  0  0  0  0  0  0  0  0
  -25.4768  -11.9472  145.7880 C   0  0  0  0  0  0  0  0  0  0  0  0
  -26.1460  -12.9367  146.5354 C   0  0  0  0  0  0  0  0  0  0  0  0
  -25.6796  -14.2631  146.5617 C   0  0  0  0  0  0  0  0  0  0  0  0
  -25.9673  -10.6615  145.8052 N   0  0  0  0  0  0  0  0  0  0  0  0
  -26.7588  -10.2143  144.7433 C   0  0  0  0  0  0  0  0  0  0  0  0
  -27.9412  -10.8311  144.5628 C   0  0  0  0  0  0  0  0  0  0  0  0
  -28.8801  -10.2096  143.6572 C   0  0  0  0  0  0  0  0  0  0  0  0
  -28.6869   -9.0577  143.1198 C   0  0  0  0  0  0  0  0  0  0  0  0
  -29.6252   -8.4787  142.2447 C   0  0  0  0  0  0  0  0  0  0  0  0
  -29.2795   -7.9214  140.9817 C   0  0  0  0  0  0  0  0  0  0  0  0
  -29.7028   -6.9300  140.3315 C   0  0  0  0  0  0  0  0  0  0  0  0
  -28.6239   -9.0132  140.0908 C   0  0  0  0  0  0  0  0  0  0  0  0
  -28.0667  -10.2162  140.6019 C   0  0  0  0  0  0  0  0  0  0  0  0
  -27.3918  -11.0763  139.7754 C   0  0  0  0  0  0  0  0  0  0  0  0
  -27.7188  -12.1820  139.4869 C   0  0  0  0  0  0  0  0  0  0  0  0
  -28.1825   -8.6647  138.8367 C   0  0  0  0  0  0  0  0  0  0  0  0
  -26.8743  -12.7806  138.4760 N   0  0  0  0  0  0  0  0  0  0  0  0
  -28.6618   -7.4964  138.2112 C   0  0  0  0  0  0  0  0  0  0  0  0
  -29.3545   -6.6100  139.0835 N   0  0  0  0  0  0  0  0  0  0  0  0
  2  7  1  0
 10 13  1  0
 13 14  1  0
 14 15  1  0
 15 16  2  3
 16 17  1  0
 17 18  1  0
 18 19  1  0
 21 22  1  0
 22 23  2  3
 23 24  1  0
 24 26  1  0
  1  2  2  0
  2  3  1  0
  3  4  2  0
  4  5  1  0
  5  6  2  0
  6  1  1  0
 19 20  2  0
 20 28  1  0
 28 27  2  0
 27 25  1  0
 25 21  2  0
 21 19  1  0
  7  8  2  0
  8  9  1  0
  9 10  2  0
 10 11  1  0
 11 12  2  0
 12  7  1  0
M  END

$$$$
No_103-/dssg/home/sw_qyf/PocketFlow/Model-Generation-Results/5HT2A_7WC7_rec_A_10.pdb/2024-01-01-03-54-21/
     RDKit          3D

 25 26  0  0  0  0  0  0  0  0999 V2000
  -23.1746  -16.6014  144.8668 C   0  0  0  0  0  0  0  0  0  0  0  0
  -23.8963  -15.5346  144.7885 C   0  0  0  0  0  0  0  0  0  0  0  0
  -24.5755  -15.0383  145.9043 C   0  0  0  0  0  0  0  0  0  0  0  0
  -24.8345  -15.9108  146.9141 C   0  0  0  0  0  0  0  0  0  0  0  0
  -24.2398  -17.1433  146.9649 C   0  0  0  0  0  0  0  0  0  0  0  0
  -23.4221  -17.5266  145.9093 C   0  0  0  0  0  0  0  0  0  0  0  0
  -25.2512  -13.6667  145.8878 C   0  0  0  0  0  0  0  0  0  0  0  0
  -24.5224  -12.6898  145.5986 C   0  0  0  0  0  0  0  0  0  0  0  0
  -25.0626  -11.3470  145.4897 C   0  0  0  0  0  0  0  0  0  0  0  0
  -26.4799  -11.2147  145.6493 C   0  0  0  0  0  0  0  0  0  0  0  0
  -27.2366  -12.3135  146.0972 C   0  0  0  0  0  0  0  0  0  0  0  0
  -26.5893  -13.5965  146.1359 C   0  0  0  0  0  0  0  0  0  0  0  0
  -28.5787  -12.1181  146.2807 N   0  0  0  0  0  0  0  0  0  0  0  0
  -29.2216  -12.6362  147.4232 C   0  0  0  0  0  0  0  0  0  0  0  0
  -29.3970  -11.3000  145.5147 C   0  0  0  0  0  0  0  0  0  0  0  0
  -30.5735  -12.4695  147.7143 C   0  0  0  0  0  0  0  0  0  0  0  0
  -31.0675  -13.1881  148.8826 C   0  0  0  0  0  0  0  0  0  0  0  0
  -29.9890  -10.3032  146.0393 O   0  0  0  0  0  0  0  0  0  0  0  0
  -29.0718  -11.1933  144.2445 N   0  0  0  0  0  0  0  0  0  0  0  0
  -29.7911  -10.3953  143.3174 C   0  0  0  0  0  0  0  0  0  0  0  0
  -29.2563  -10.2684  142.0227 C   0  0  0  0  0  0  0  0  0  0  0  0
  -29.2464   -8.9757  141.3930 C   0  0  0  0  0  0  0  0  0  0  0  0
  -28.7086   -8.6134  140.1872 C   0  0  0  0  0  0  0  0  0  0  0  0
  -27.9892   -9.7087  139.5158 C   0  0  0  0  0  0  0  0  0  0  0  0
  -27.7811  -10.9120  140.2255 C   0  0  0  0  0  0  0  0  0  0  0  0
  3  7  1  0
 11 13  1  0
 13 14  1  0
 13 15  1  0
 14 16  1  0
 16 17  1  0
 15 18  1  0
 15 19  1  0
 19 20  1  0
 20 21  2  3
 21 22  1  0
 22 23  2  3
 23 24  1  0
 24 25  2  0
  1  2  2  0
  2  3  1  0
  3  4  2  0
  4  5  1  0
  5  6  2  0
  6  1  1  0
  7  8  2  0
  8  9  1  0
  9 10  2  0
 10 11  1  0
 11 12  2  0
 12  7  1  0
M  END

$$$$
No_104-/dssg/home/sw_qyf/PocketFlow/Model-Generation-Results/5HT2A_7WC7_rec_A_10.pdb/2024-01-01-03-54-21/
     RDKit          3D

 21 22  0  0  0  0  0  0  0  0999 V2000
  -23.1746  -16.6014  144.8668 C   0  0  0  0  0  0  0  0  0  0  0  0
  -24.0189  -16.0564  145.8445 C   0  0  0  0  0  0  0  0  0  0  0  0
  -24.4145  -16.8299  146.9062 C   0  0  0  0  0  0  0  0  0  0  0  0
  -25.2730  -16.2838  147.9150 C   0  0  0  0  0  0  0  0  0  0  0  0
  -26.0161  -15.1622  147.5289 C   0  0  0  0  0  0  0  0  0  0  0  0
  -24.4730  -14.6437  145.8015 C   0  0  0  0  0  0  0  0  0  0  0  0
  -24.0227  -13.7493  144.7878 C   0  0  0  0  0  0  0  0  0  0  0  0
  -25.5072  -14.2183  146.7482 C   0  0  0  0  0  0  0  0  0  0  0  0
  -23.1074  -13.9986  143.9907 O   0  0  0  0  0  0  0  0  0  0  0  0
  -24.7080  -12.5293  144.6853 N   0  0  0  0  0  0  0  0  0  0  0  0
  -23.9618  -18.1961  147.0776 C   0  0  0  0  0  0  0  0  0  0  0  0
  -23.3851  -18.6967  147.9864 O   0  0  0  0  0  0  0  0  0  0  0  0
  -24.4419  -19.0718  146.1107 N   0  0  0  0  0  0  0  0  0  0  0  0
  -25.8453  -12.1111  145.3488 C   0  0  0  0  0  0  0  0  0  0  0  0
  -26.1939  -12.9573  146.5301 C   0  0  0  0  0  0  0  0  0  0  0  0
  -26.4673  -10.9020  145.0896 C   0  0  0  0  0  0  0  0  0  0  0  0
  -27.9351  -10.8540  144.9657 C   0  0  0  0  0  0  0  0  0  0  0  0
  -28.5646   -9.9104  144.1369 C   0  0  0  0  0  0  0  0  0  0  0  0
  -29.9388   -9.8475  144.0741 C   0  0  0  0  0  0  0  0  0  0  0  0
  -30.6040  -10.1998  145.1437 O   0  0  0  0  0  0  0  0  0  0  0  0
  -30.5704   -9.3518  143.0887 O   0  0  0  0  0  0  0  0  0  0  0  0
  1  2  1  0
  6  7  1  0
  7  9  2  0
  7 10  1  0
  3 11  1  0
 11 12  2  0
 11 13  1  0
 10 14  1  0
  8 15  1  0
 14 16  1  0
 16 17  1  0
 17 18  1  0
 18 19  1  0
 19 20  1  0
 19 21  2  0
 15 14  1  0
  2  3  2  0
  3  4  1  0
  4  5  2  0
  5  8  1  0
  8  6  2  0
  6  2  1  0
M  END

$$$$
No_105-/dssg/home/sw_qyf/PocketFlow/Model-Generation-Results/5HT2A_7WC7_rec_A_10.pdb/2024-01-01-03-54-21/
     RDKit          3D

 21 23  0  0  0  0  0  0  0  0999 V2000
  -24.1553  -17.8465  145.7021 C   0  0  0  0  0  0  0  0  0  0  0  0
  -24.6364  -17.2931  146.7091 C   0  0  0  0  0  0  0  0  0  0  0  0
  -24.0780  -17.2921  147.9389 C   0  0  0  0  0  0  0  0  0  0  0  0
  -24.6761  -16.7363  149.1478 C   0  0  0  0  0  0  0  0  0  0  0  0
  -25.9985  -16.2638  148.9932 C   0  0  0  0  0  0  0  0  0  0  0  0
  -26.6270  -16.3412  147.7728 C   0  0  0  0  0  0  0  0  0  0  0  0
  -25.9734  -16.9165  146.6819 C   0  0  0  0  0  0  0  0  0  0  0  0
  -23.8274  -16.9403  144.6508 N   0  0  0  0  0  0  0  0  0  0  0  0
  -28.0724  -15.9244  147.7069 C   0  0  0  0  0  0  0  0  0  0  0  0
  -29.0144  -15.9849  148.6659 C   0  0  0  0  0  0  0  0  0  0  0  0
  -30.2067  -15.3619  148.5755 C   0  0  0  0  0  0  0  0  0  0  0  0
  -30.3896  -14.4578  147.4681 C   0  0  0  0  0  0  0  0  0  0  0  0
  -29.3306  -14.2145  146.6051 C   0  0  0  0  0  0  0  0  0  0  0  0
  -28.1839  -14.8784  146.7039 C   0  0  0  0  0  0  0  0  0  0  0  0
  -23.7875  -19.0384  145.4900 O   0  0  0  0  0  0  0  0  0  0  0  0
  -23.9931  -15.5653  144.6358 C   0  0  0  0  0  0  0  0  0  0  0  0
  -22.9467  -14.6715  144.9106 C   0  0  0  0  0  0  0  0  0  0  0  0
  -23.2304  -13.2462  144.8004 C   0  0  0  0  0  0  0  0  0  0  0  0
  -25.2105  -15.0134  144.1499 C   0  0  0  0  0  0  0  0  0  0  0  0
  -25.4969  -13.6516  144.0351 C   0  0  0  0  0  0  0  0  0  0  0  0
  -24.4782  -12.7664  144.4717 C   0  0  0  0  0  0  0  0  0  0  0  0
  1  2  1  0
  1  8  1  0
  6  9  1  0
  1 15  2  0
  8 16  1  0
  2  3  2  0
  3  4  1  0
  4  5  2  0
  5  6  1  0
  6  7  2  0
  7  2  1  0
 16 17  2  0
 17 18  1  0
 18 21  2  0
 21 20  1  0
 20 19  2  0
 19 16  1  0
  9 10  2  0
 10 11  1  0
 11 12  2  0
 12 13  1  0
 13 14  2  0
 14  9  1  0
M  END

$$$$
No_106-/dssg/home/sw_qyf/PocketFlow/Model-Generation-Results/5HT2A_7WC7_rec_A_10.pdb/2024-01-01-03-54-21/
     RDKit          3D

 18 19  0  0  0  0  0  0  0  0999 V2000
  -24.1553  -17.8465  145.7021 C   0  0  0  0  0  0  0  0  0  0  0  0
  -23.9795  -18.4462  146.7426 C   0  0  0  0  0  0  0  0  0  0  0  0
  -25.1196  -16.8106  145.6409 C   0  0  0  0  0  0  0  0  0  0  0  0
  -25.9236  -16.5070  146.7422 C   0  0  0  0  0  0  0  0  0  0  0  0
  -26.9588  -15.5563  146.6458 C   0  0  0  0  0  0  0  0  0  0  0  0
  -28.0525  -15.5152  147.4931 C   0  0  0  0  0  0  0  0  0  0  0  0
  -24.6778  -18.1822  147.9448 C   0  0  0  0  0  0  0  0  0  0  0  0
  -25.6764  -17.1706  147.9456 C   0  0  0  0  0  0  0  0  0  0  0  0
  -29.0399  -14.5186  147.4031 C   0  0  0  0  0  0  0  0  0  0  0  0
  -28.9104  -13.4356  146.5842 C   0  0  0  0  0  0  0  0  0  0  0  0
  -27.7926  -13.3954  145.6920 C   0  0  0  0  0  0  0  0  0  0  0  0
  -26.8304  -14.3576  145.7555 C   0  0  0  0  0  0  0  0  0  0  0  0
  -27.5772  -12.2365  144.7908 C   0  0  0  0  0  0  0  0  0  0  0  0
  -27.4609  -12.4906  143.4673 C   0  0  0  0  0  0  0  0  0  0  0  0
  -27.0562  -13.7276  142.8915 C   0  0  0  0  0  0  0  0  0  0  0  0
  -26.7658  -13.8620  141.5399 C   0  0  0  0  0  0  0  0  0  0  0  0
  -27.2035  -12.8319  140.6731 C   0  0  0  0  0  0  0  0  0  0  0  0
  -27.7963  -11.6067  141.1804 C   0  0  0  0  0  0  0  0  0  0  0  0
  4  5  1  0
 11 13  1  0
 13 14  2  3
 14 15  1  0
 15 16  2  3
 16 17  1  0
 17 18  2  0
  5  6  2  0
  6  9  1  0
  9 10  2  0
 10 11  1  0
 11 12  2  0
 12  5  1  0
  1  2  2  0
  2  7  1  0
  7  8  2  0
  8  4  1  0
  4  3  2  0
  3  1  1  0
M  END

$$$$
No_107-/dssg/home/sw_qyf/PocketFlow/Model-Generation-Results/5HT2A_7WC7_rec_A_10.pdb/2024-01-01-03-54-21/
     RDKit          3D

 34 37  0  0  0  0  0  0  0  0999 V2000
  -24.1553  -17.8465  145.7021 C   0  0  0  0  0  0  0  0  0  0  0  0
  -24.2856  -16.6364  145.3494 C   0  0  0  0  0  0  0  0  0  0  0  0
  -25.0033  -15.6772  146.0737 C   0  0  0  0  0  0  0  0  0  0  0  0
  -25.1197  -14.2835  145.7299 C   0  0  0  0  0  0  0  0  0  0  0  0
  -24.2707  -13.8793  144.6500 C   0  0  0  0  0  0  0  0  0  0  0  0
  -24.8686  -18.3355  146.8179 C   0  0  0  0  0  0  0  0  0  0  0  0
  -23.4213  -14.7686  144.0334 C   0  0  0  0  0  0  0  0  0  0  0  0
  -23.3932  -16.0844  144.3175 C   0  0  0  0  0  0  0  0  0  0  0  0
  -25.6450  -17.4591  147.5909 C   0  0  0  0  0  0  0  0  0  0  0  0
  -25.7561  -16.1038  147.2695 C   0  0  0  0  0  0  0  0  0  0  0  0
  -25.9186  -13.3230  146.4658 C   0  0  0  0  0  0  0  0  0  0  0  0
  -26.5074  -12.1930  145.7407 C   0  0  0  0  0  0  0  0  0  0  0  0
  -27.8948  -12.0734  145.6932 C   0  0  0  0  0  0  0  0  0  0  0  0
  -28.5281  -11.0658  145.0172 C   0  0  0  0  0  0  0  0  0  0  0  0
  -27.7276  -10.0784  144.3464 C   0  0  0  0  0  0  0  0  0  0  0  0
  -26.3044  -10.1956  144.5599 C   0  0  0  0  0  0  0  0  0  0  0  0
  -25.7168  -11.1975  145.1863 C   0  0  0  0  0  0  0  0  0  0  0  0
  -28.3490   -8.9942  143.6749 C   0  0  0  0  0  0  0  0  0  0  0  0
  -29.1626   -9.1759  142.5015 C   0  0  0  0  0  0  0  0  0  0  0  0
  -29.6510  -10.3842  142.1175 C   0  0  0  0  0  0  0  0  0  0  0  0
  -28.9944   -8.1046  141.4485 C   0  0  0  0  0  0  0  0  0  0  0  0
  -28.8738   -8.2600  140.1306 C   0  0  0  0  0  0  0  0  0  0  0  0
  -29.5249   -7.3772  139.2139 C   0  0  0  0  0  0  0  0  0  0  0  0
  -27.9914   -9.2379  139.6097 C   0  0  0  0  0  0  0  0  0  0  0  0
  -27.8633   -9.4004  138.2398 C   0  0  0  0  0  0  0  0  0  0  0  0
  -28.5736   -8.5561  137.3841 C   0  0  0  0  0  0  0  0  0  0  0  0
  -29.4108   -7.6040  137.8843 C   0  0  0  0  0  0  0  0  0  0  0  0
  -31.0042  -10.4498  142.3292 O   0  0  0  0  0  0  0  0  0  0  0  0
  -29.0898  -11.3627  141.6000 O   0  0  0  0  0  0  0  0  0  0  0  0
  -28.8478  -12.9801  146.4221 C   0  0  0  0  0  0  0  0  0  0  0  0
  -28.8004  -14.2146  146.4903 N   0  0  0  0  0  0  0  0  0  0  0  0
  -29.6755  -14.9833  147.1494 C   0  0  0  0  0  0  0  0  0  0  0  0
  -29.6391  -12.1726  147.6938 Cl  0  0  0  0  0  0  0  0  0  0  0  0
  -30.4125  -14.2687  148.1761 C   0  0  0  0  0  0  0  0  0  0  0  0
  4 11  1  0
 11 12  1  0
 15 18  1  0
 18 19  1  0
 19 20  2  3
 19 21  1  0
 21 22  1  0
 20 28  1  0
 20 29  1  0
 13 30  1  0
 30 31  1  0
 31 32  2  3
 30 33  1  0
 32 34  1  0
 12 13  2  0
 13 14  1  0
 14 15  2  0
 15 16  1  0
 16 17  2  0
 17 12  1  0
  1  2  2  0
  3 10  2  0
 10  9  1  0
  9  6  2  0
  6  1  1  0
 22 23  2  0
 23 27  1  0
 27 26  2  0
 26 25  1  0
 25 24  2  0
 24 22  1  0
  2  3  1  0
  3  4  1  0
  4  5  2  0
  5  7  1  0
  7  8  2  0
  8  2  1  0
M  END

$$$$
No_108-/dssg/home/sw_qyf/PocketFlow/Model-Generation-Results/5HT2A_7WC7_rec_A_10.pdb/2024-01-01-03-54-21/
     RDKit          3D

 22 22  0  0  0  0  0  0  0  0999 V2000
  -24.1553  -17.8465  145.7021 C   0  0  0  0  0  0  0  0  0  0  0  0
  -24.2855  -16.6364  145.3494 C   0  0  0  0  0  0  0  0  0  0  0  0
  -25.0033  -15.6772  146.0737 C   0  0  0  0  0  0  0  0  0  0  0  0
  -26.0408  -15.2581  145.8303 C   0  0  0  0  0  0  0  0  0  0  0  0
  -26.4206  -13.9026  145.8490 C   0  0  0  0  0  0  0  0  0  0  0  0
  -25.4508  -12.9924  146.2932 C   0  0  0  0  0  0  0  0  0  0  0  0
  -24.1529  -13.4853  146.7330 C   0  0  0  0  0  0  0  0  0  0  0  0
  -23.8542  -14.8187  146.4465 C   0  0  0  0  0  0  0  0  0  0  0  0
  -23.9807  -17.9435  147.1415 C   0  0  0  0  0  0  0  0  0  0  0  0
  -22.8013  -17.9914  147.5561 O   0  0  0  0  0  0  0  0  0  0  0  0
  -25.8715  -11.3244  146.6447 Cl  0  0  0  0  0  0  0  0  0  0  0  0
  -24.9972  -17.9644  147.9169 O   0  0  0  0  0  0  0  0  0  0  0  0
  -23.7804  -16.4143  144.1262 F   0  0  0  0  0  0  0  0  0  0  0  0
  -27.7981  -13.3787  145.6371 C   0  0  0  0  0  0  0  0  0  0  0  0
  -27.8295  -12.1715  144.7416 C   0  0  0  0  0  0  0  0  0  0  0  0
  -28.9111  -11.2910  144.8564 C   0  0  0  0  0  0  0  0  0  0  0  0
  -29.8584  -11.1644  145.9504 C   0  0  0  0  0  0  0  0  0  0  0  0
  -29.4111  -10.5725  143.6779 C   0  0  0  0  0  0  0  0  0  0  0  0
  -28.7347  -10.7681  142.5399 C   0  0  0  0  0  0  0  0  0  0  0  0
  -29.0279  -10.0097  141.3857 C   0  0  0  0  0  0  0  0  0  0  0  0
  -29.9179   -8.9215  141.5410 C   0  0  0  0  0  0  0  0  0  0  0  0
  -30.6364   -8.7392  142.7877 C   0  0  0  0  0  0  0  0  0  0  0  0
  1  2  1  0
  2  3  1  0
  1  9  1  0
  9 10  2  0
  6 11  1  0
  9 12  1  0
  2 13  1  0
  5 14  1  0
 14 15  1  0
 15 16  1  0
 16 17  1  0
 16 18  1  0
 18 19  2  3
 19 20  1  0
 20 21  2  3
 21 22  1  0
  3  4  2  0
  4  5  1  0
  5  6  2  0
  6  7  1  0
  7  8  2  0
  8  3  1  0
M  END

$$$$
No_109-/dssg/home/sw_qyf/PocketFlow/Model-Generation-Results/5HT2A_7WC7_rec_A_10.pdb/2024-01-01-03-54-21/
     RDKit          3D

 17 17  0  0  0  0  0  0  0  0999 V2000
  -24.1553  -17.8465  145.7021 C   0  0  0  0  0  0  0  0  0  0  0  0
  -24.2856  -16.6364  145.3494 C   0  0  0  0  0  0  0  0  0  0  0  0
  -24.7211  -15.5955  146.2115 C   0  0  0  0  0  0  0  0  0  0  0  0
  -25.1322  -16.0374  147.5372 C   0  0  0  0  0  0  0  0  0  0  0  0
  -24.5163  -18.2968  146.9928 C   0  0  0  0  0  0  0  0  0  0  0  0
  -24.9534  -17.3074  147.9886 C   0  0  0  0  0  0  0  0  0  0  0  0
  -24.8651  -14.1840  145.8143 C   0  0  0  0  0  0  0  0  0  0  0  0
  -25.2643  -13.4220  146.7044 F   0  0  0  0  0  0  0  0  0  0  0  0
  -23.5983  -13.7958  145.4594 F   0  0  0  0  0  0  0  0  0  0  0  0
  -25.6545  -14.0825  144.7532 F   0  0  0  0  0  0  0  0  0  0  0  0
  -23.9815  -16.2311  144.0673 N   0  0  0  0  0  0  0  0  0  0  0  0
  -25.2555  -17.6703  149.2483 O   0  0  0  0  0  0  0  0  0  0  0  0
  -24.5100  -17.1353  150.2914 C   0  0  0  0  0  0  0  0  0  0  0  0
  -23.7801  -18.8461  144.8780 O   0  0  0  0  0  0  0  0  0  0  0  0
  -23.1420  -17.6917  150.5957 C   0  0  0  0  0  0  0  0  0  0  0  0
  -22.2629  -16.5055  151.0379 C   0  0  0  0  0  0  0  0  0  0  0  0
  -21.1159  -16.5721  150.7358 O   0  0  0  0  0  0  0  0  0  0  0  0
  3  7  1  0
  7  8  1  0
  7  9  1  0
  7 10  1  0
  2 11  1  0
  6 12  1  0
 12 13  1  0
  1 14  1  0
 13 15  1  0
 15 16  1  0
 16 17  1  0
  1  2  2  0
  2  3  1  0
  3  4  2  0
  4  6  1  0
  6  5  2  0
  5  1  1  0
M  END

$$$$
No_110-/dssg/home/sw_qyf/PocketFlow/Model-Generation-Results/5HT2A_7WC7_rec_A_10.pdb/2024-01-01-03-54-21/
     RDKit          3D

 35 37  0  0  0  0  0  0  0  0999 V2000
  -24.1553  -17.8465  145.7021 C   0  0  0  0  0  0  0  0  0  0  0  0
  -24.2856  -16.6364  145.3494 C   0  0  0  0  0  0  0  0  0  0  0  0
  -24.7838  -15.7223  145.8474 C   0  0  0  0  0  0  0  0  0  0  0  0
  -25.6062  -15.9757  147.0425 C   0  0  0  0  0  0  0  0  0  0  0  0
  -24.8560  -18.2319  146.8940 C   0  0  0  0  0  0  0  0  0  0  0  0
  -25.5370  -17.2345  147.6143 C   0  0  0  0  0  0  0  0  0  0  0  0
  -24.9277  -14.2280  145.4103 C   0  0  0  0  0  0  0  0  0  0  0  0
  -23.8150  -13.7936  144.7820 C   0  0  0  0  0  0  0  0  0  0  0  0
  -23.3265  -12.4048  145.1460 C   0  0  0  0  0  0  0  0  0  0  0  0
  -24.2848  -11.5041  145.6957 C   0  0  0  0  0  0  0  0  0  0  0  0
  -25.5367  -12.0158  146.2291 C   0  0  0  0  0  0  0  0  0  0  0  0
  -25.7707  -13.3556  146.1608 C   0  0  0  0  0  0  0  0  0  0  0  0
  -23.5664  -16.3610  144.1368 F   0  0  0  0  0  0  0  0  0  0  0  0
  -22.2080  -11.9490  144.7101 O   0  0  0  0  0  0  0  0  0  0  0  0
  -26.4672  -11.1739  146.7650 N   0  0  0  0  0  0  0  0  0  0  0  0
  -23.5435  -18.8996  145.0743 O   0  0  0  0  0  0  0  0  0  0  0  0
  -27.6496  -11.0233  146.0625 C   0  0  0  0  0  0  0  0  0  0  0  0
  -27.7161  -10.4609  144.8238 C   0  0  0  0  0  0  0  0  0  0  0  0
  -28.9511  -10.1353  144.1920 C   0  0  0  0  0  0  0  0  0  0  0  0
  -30.0847  -10.3889  145.0145 C   0  0  0  0  0  0  0  0  0  0  0  0
  -29.9884  -10.9836  146.2261 N   0  0  0  0  0  0  0  0  0  0  0  0
  -28.7918  -11.1999  146.7964 C   0  0  0  0  0  0  0  0  0  0  0  0
  -29.0496   -9.6015  142.8747 C   0  0  0  0  0  0  0  0  0  0  0  0
  -29.7815   -9.8609  141.9748 C   0  0  0  0  0  0  0  0  0  0  0  0
  -29.5965   -9.2945  140.7572 N   0  0  0  0  0  0  0  0  0  0  0  0
  -29.6486   -8.2627  140.3638 C   0  0  0  0  0  0  0  0  0  0  0  0
  -29.2630   -7.7710  139.0837 C   0  0  0  0  0  0  0  0  0  0  0  0
  -29.6169   -7.1515  141.2896 O   0  0  0  0  0  0  0  0  0  0  0  0
  -28.2646   -8.4337  138.3282 C   0  0  0  0  0  0  0  0  0  0  0  0
  -28.4529   -8.4647  137.0525 N   0  0  0  0  0  0  0  0  0  0  0  0
  -30.7859  -10.6865  142.1281 O   0  0  0  0  0  0  0  0  0  0  0  0
  -27.3159   -9.0267  138.9043 O   0  0  0  0  0  0  0  0  0  0  0  0
  -26.2152  -17.5090  148.7281 F   0  0  0  0  0  0  0  0  0  0  0  0
  -26.6017  -10.1717  144.1702 F   0  0  0  0  0  0  0  0  0  0  0  0
  -28.7306  -11.9749  147.9296 O   0  0  0  0  0  0  0  0  0  0  0  0
  3  7  1  0
  2 13  1  0
  9 14  1  0
 11 15  1  0
  1 16  1  0
 15 17  1  0
 17 18  1  0
 19 20  1  0
 17 22  1  0
 21 22  1  0
 19 23  1  0
 23 24  1  0
 24 25  1  0
 25 26  1  0
 26 27  1  0
 26 28  2  0
 27 29  1  0
 29 30  1  0
 24 31  2  0
 29 32  2  0
  6 33  1  0
 18 34  1  0
 22 35  2  0
 18 19  1  0
 20 21  1  0
  1  2  2  0
  2  3  1  0
  3  4  2  0
  4  6  1  0
  6  5  2  0
  5  1  1  0
  7  8  2  0
  8  9  1  0
  9 10  2  0
 10 11  1  0
 11 12  2  0
 12  7  1  0
M  END

$$$$
No_111-/dssg/home/sw_qyf/PocketFlow/Model-Generation-Results/5HT2A_7WC7_rec_A_10.pdb/2024-01-01-03-54-21/
     RDKit          3D

 27 28  0  0  0  0  0  0  0  0999 V2000
  -24.1553  -17.8465  145.7021 C   0  0  0  0  0  0  0  0  0  0  0  0
  -23.9795  -18.4462  146.7426 C   0  0  0  0  0  0  0  0  0  0  0  0
  -23.2486  -17.2339  144.9771 C   0  0  0  0  0  0  0  0  0  0  0  0
  -24.9812  -19.0362  147.5824 C   0  0  0  0  0  0  0  0  0  0  0  0
  -23.7180  -16.2391  144.0023 C   0  0  0  0  0  0  0  0  0  0  0  0
  -24.1690  -14.9523  144.6878 C   0  0  0  0  0  0  0  0  0  0  0  0
  -24.1546  -13.8262  144.0736 C   0  0  0  0  0  0  0  0  0  0  0  0
  -24.4492  -12.5835  144.8018 C   0  0  0  0  0  0  0  0  0  0  0  0
  -25.0115  -12.6883  146.1519 C   0  0  0  0  0  0  0  0  0  0  0  0
  -25.0777  -13.9743  146.7882 C   0  0  0  0  0  0  0  0  0  0  0  0
  -24.6739  -15.1076  146.0796 C   0  0  0  0  0  0  0  0  0  0  0  0
  -25.9314  -18.0638  147.6144 C   0  0  0  0  0  0  0  0  0  0  0  0
  -26.5372  -17.4801  148.6884 C   0  0  0  0  0  0  0  0  0  0  0  0
  -25.7660  -17.4758  149.9206 C   0  0  0  0  0  0  0  0  0  0  0  0
  -26.8668  -18.2528  146.4266 N   0  0  0  0  0  0  0  0  0  0  0  0
  -27.7329  -16.6811  148.6550 C   0  0  0  0  0  0  0  0  0  0  0  0
  -25.2610  -11.6455  146.8845 F   0  0  0  0  0  0  0  0  0  0  0  0
  -28.8637  -16.9931  149.3676 C   0  0  0  0  0  0  0  0  0  0  0  0
  -29.8513  -15.9559  149.4272 C   0  0  0  0  0  0  0  0  0  0  0  0
  -29.8531  -14.8704  148.5376 C   0  0  0  0  0  0  0  0  0  0  0  0
  -28.7496  -14.7525  147.6273 C   0  0  0  0  0  0  0  0  0  0  0  0
  -27.6647  -15.5465  147.7315 C   0  0  0  0  0  0  0  0  0  0  0  0
  -30.9913  -13.9690  148.5136 C   0  0  0  0  0  0  0  0  0  0  0  0
  -31.9844  -14.3053  149.1144 F   0  0  0  0  0  0  0  0  0  0  0  0
  -30.4941  -12.7474  149.1615 F   0  0  0  0  0  0  0  0  0  0  0  0
  -31.1259  -13.5245  147.2612 F   0  0  0  0  0  0  0  0  0  0  0  0
  -26.2770  -18.1236  150.9693 O   0  0  0  0  0  0  0  0  0  0  0  0
  1  2  1  0
  1  3  2  3
  2  4  1  0
  3  5  1  0
  5  6  1  0
  4 12  1  0
 12 13  1  0
 13 14  2  0
 12 15  1  0
 13 16  1  0
  9 17  1  0
 20 23  1  0
 23 24  1  0
 23 25  1  0
 23 26  1  0
 14 27  2  0
 16 18  2  0
 18 19  1  0
 19 20  2  0
 20 21  1  0
 21 22  2  0
 22 16  1  0
  6  7  2  0
  7  8  1  0
  8  9  2  0
  9 10  1  0
 10 11  2  0
 11  6  1  0
M  END

$$$$
No_112-/dssg/home/sw_qyf/PocketFlow/Model-Generation-Results/5HT2A_7WC7_rec_A_10.pdb/2024-01-01-03-54-21/
     RDKit          3D

 34 37  0  0  0  0  0  0  0  0999 V2000
  -24.1553  -17.8465  145.7021 C   0  0  0  0  0  0  0  0  0  0  0  0
  -24.6364  -17.2931  146.7091 C   0  0  0  0  0  0  0  0  0  0  0  0
  -24.0780  -17.2921  147.9389 C   0  0  0  0  0  0  0  0  0  0  0  0
  -24.6761  -16.7363  149.1478 C   0  0  0  0  0  0  0  0  0  0  0  0
  -24.1428  -16.9673  150.4142 C   0  0  0  0  0  0  0  0  0  0  0  0
  -24.4938  -17.3927  144.4210 C   0  0  0  0  0  0  0  0  0  0  0  0
  -25.1217  -16.0963  144.4457 C   0  0  0  0  0  0  0  0  0  0  0  0
  -25.2177  -15.2076  143.3970 C   0  0  0  0  0  0  0  0  0  0  0  0
  -25.9583  -16.8744  146.6797 C   0  0  0  0  0  0  0  0  0  0  0  0
  -26.1244  -15.9073  145.5168 C   0  0  0  0  0  0  0  0  0  0  0  0
  -26.2473  -14.2446  143.2672 C   0  0  0  0  0  0  0  0  0  0  0  0
  -26.7746  -13.6278  144.5392 C   0  0  0  0  0  0  0  0  0  0  0  0
  -26.9618  -14.6775  145.6114 C   0  0  0  0  0  0  0  0  0  0  0  0
  -27.7897  -14.5203  146.5317 F   0  0  0  0  0  0  0  0  0  0  0  0
  -22.3211  -16.7123  150.3334 S   0  0  0  0  0  0  0  0  0  0  0  0
  -22.1046  -17.1098  152.0220 C   0  0  0  0  0  0  0  0  0  0  0  0
  -27.4589  -12.3660  144.6689 C   0  0  0  0  0  0  0  0  0  0  0  0
  -27.8913  -11.9041  145.9034 C   0  0  0  0  0  0  0  0  0  0  0  0
  -28.8020  -10.7852  145.9485 C   0  0  0  0  0  0  0  0  0  0  0  0
  -29.1700  -10.2081  144.7282 C   0  0  0  0  0  0  0  0  0  0  0  0
  -28.6582  -10.6852  143.5598 C   0  0  0  0  0  0  0  0  0  0  0  0
  -27.8745  -11.7992  143.5375 C   0  0  0  0  0  0  0  0  0  0  0  0
  -28.9499   -9.8343  142.4829 C   0  0  0  0  0  0  0  0  0  0  0  0
  -29.8897   -8.8789  142.3755 C   0  0  0  0  0  0  0  0  0  0  0  0
  -31.0823   -8.9038  143.0765 C   0  0  0  0  0  0  0  0  0  0  0  0
  -31.2261   -9.1478  144.3698 O   0  0  0  0  0  0  0  0  0  0  0  0
  -28.2252  -10.1267  141.1786 C   0  0  0  0  0  0  0  0  0  0  0  0
  -28.2479   -9.2241  140.1327 C   0  0  0  0  0  0  0  0  0  0  0  0
  -29.1994   -8.1655  140.1596 C   0  0  0  0  0  0  0  0  0  0  0  0
  -30.0000   -7.9786  141.3211 C   0  0  0  0  0  0  0  0  0  0  0  0
  -32.2281   -9.0170  142.3932 O   0  0  0  0  0  0  0  0  0  0  0  0
  -27.4362   -9.3980  138.9885 C   0  0  0  0  0  0  0  0  0  0  0  0
  -27.4176   -8.6679  138.1783 O   0  0  0  0  0  0  0  0  0  0  0  0
  -26.4585  -10.2987  139.1482 O   0  0  0  0  0  0  0  0  0  0  0  0
  3  4  1  0
  4  5  1  0
 13 14  1  0
  5 15  1  0
 15 16  1  0
 12 17  1  0
 21 23  1  0
 24 25  1  0
 25 26  1  0
 25 31  2  0
 28 32  1  0
 32 33  2  0
 32 34  1  0
  3  2  1  0
 17 18  2  0
 18 19  1  0
 19 20  2  0
 20 21  1  0
 21 22  2  0
 22 17  1  0
 23 24  2  0
 24 30  1  0
 30 29  2  0
 29 28  1  0
 28 27  2  0
 27 23  1  0
  1  2  2  0
  2  9  1  0
  9 10  2  0
  7  6  2  0
  6  1  1  0
  7  8  1  0
  8 11  2  0
 11 12  1  0
 12 13  2  0
 13 10  1  0
 10  7  1  0
M  END

$$$$
No_113-/dssg/home/sw_qyf/PocketFlow/Model-Generation-Results/5HT2A_7WC7_rec_A_10.pdb/2024-01-01-03-54-21/
     RDKit          3D

 11 11  0  0  0  0  0  0  0  0999 V2000
  -23.1746  -16.6014  144.8668 C   0  0  0  0  0  0  0  0  0  0  0  0
  -23.8963  -15.5346  144.7885 C   0  0  0  0  0  0  0  0  0  0  0  0
  -23.4976  -14.2961  145.1226 C   0  0  0  0  0  0  0  0  0  0  0  0
  -24.3175  -13.3088  145.7775 C   0  0  0  0  0  0  0  0  0  0  0  0
  -23.7843  -12.0647  146.2451 C   0  0  0  0  0  0  0  0  0  0  0  0
  -23.7450  -17.8171  145.1307 C   0  0  0  0  0  0  0  0  0  0  0  0
  -24.0862  -18.1153  146.5103 C   0  0  0  0  0  0  0  0  0  0  0  0
  -25.3174  -18.1105  146.9128 N   0  0  0  0  0  0  0  0  0  0  0  0
  -25.6786  -13.6827  146.0672 C   0  0  0  0  0  0  0  0  0  0  0  0
  -26.0593  -14.8522  146.2583 C   0  0  0  0  0  0  0  0  0  0  0  0
  -25.3090  -15.8515  145.3213 C   0  0  0  0  0  0  0  0  0  0  0  0
  4  5  1  0
  1  6  1  0
  6  7  1  0
  7  8  1  0
  1  2  1  0
  2  3  2  0
  3  4  1  0
  4  9  2  0
  9 10  1  0
 10 11  2  0
 11  2  1  0
M  END

$$$$
No_114-/dssg/home/sw_qyf/PocketFlow/Model-Generation-Results/5HT2A_7WC7_rec_A_10.pdb/2024-01-01-03-54-21/
     RDKit          3D

 35 36  0  0  0  0  0  0  0  0999 V2000
  -24.1553  -17.8465  145.7021 C   0  0  0  0  0  0  0  0  0  0  0  0
  -24.2856  -16.6364  145.3494 C   0  0  0  0  0  0  0  0  0  0  0  0
  -24.5733  -15.7651  145.9979 C   0  0  0  0  0  0  0  0  0  0  0  0
  -25.1773  -15.7608  146.8967 C   0  0  0  0  0  0  0  0  0  0  0  0
  -24.7492  -18.1486  146.9814 C   0  0  0  0  0  0  0  0  0  0  0  0
  -25.2478  -17.0667  147.7031 C   0  0  0  0  0  0  0  0  0  0  0  0
  -24.5904  -14.2034  145.3938 C   0  0  0  0  0  0  0  0  0  0  0  0
  -25.6171  -13.4530  145.1431 C   0  0  0  0  0  0  0  0  0  0  0  0
  -25.5922  -12.1544  145.6634 C   0  0  0  0  0  0  0  0  0  0  0  0
  -26.7947  -11.3051  145.6891 C   0  0  0  0  0  0  0  0  0  0  0  0
  -27.7125  -11.5492  144.8820 C   0  0  0  0  0  0  0  0  0  0  0  0
  -28.9669  -10.7690  144.8904 C   0  0  0  0  0  0  0  0  0  0  0  0
  -29.5685  -10.0928  143.7940 C   0  0  0  0  0  0  0  0  0  0  0  0
  -30.4948   -9.0833  143.9525 C   0  0  0  0  0  0  0  0  0  0  0  0
  -31.0472   -8.5601  142.8109 C   0  0  0  0  0  0  0  0  0  0  0  0
  -32.2000   -8.2815  142.6461 O   0  0  0  0  0  0  0  0  0  0  0  0
  -30.1818   -8.0666  141.9419 O   0  0  0  0  0  0  0  0  0  0  0  0
  -26.8272  -13.9450  144.5896 C   0  0  0  0  0  0  0  0  0  0  0  0
  -27.6523  -12.8509  144.3122 C   0  0  0  0  0  0  0  0  0  0  0  0
  -23.3231  -13.8194  144.9430 F   0  0  0  0  0  0  0  0  0  0  0  0
  -30.3159   -8.1897  140.5854 C   0  0  0  0  0  0  0  0  0  0  0  0
  -29.5762   -7.0216  139.9378 C   0  0  0  0  0  0  0  0  0  0  0  0
  -28.6838   -7.6430  138.9046 C   0  0  0  0  0  0  0  0  0  0  0  0
  -28.8727   -9.0189  138.6171 C   0  0  0  0  0  0  0  0  0  0  0  0
  -27.9513   -9.4604  137.6944 C   0  0  0  0  0  0  0  0  0  0  0  0
  -25.4319  -17.2378  149.1544 C   0  0  0  0  0  0  0  0  0  0  0  0
  -24.5085  -17.1562  150.0853 N   0  0  0  0  0  0  0  0  0  0  0  0
  -26.7015  -17.2525  149.5498 O   0  0  0  0  0  0  0  0  0  0  0  0
  -28.0072  -10.8770  137.7380 C   0  0  0  0  0  0  0  0  0  0  0  0
  -28.2168  -11.6674  136.7247 C   0  0  0  0  0  0  0  0  0  0  0  0
  -29.2919  -10.5350  142.6489 O   0  0  0  0  0  0  0  0  0  0  0  0
  -27.5487  -11.5103  139.0290 C   0  0  0  0  0  0  0  0  0  0  0  0
  -26.1710  -11.7600  139.2183 C   0  0  0  0  0  0  0  0  0  0  0  0
  -25.9704  -12.9993  139.8025 O   0  0  0  0  0  0  0  0  0  0  0  0
  -28.6510  -11.2601  135.4624 C   0  0  0  0  0  0  0  0  0  0  0  0
  3  7  1  0
  7  8  1  0
 11 12  1  0
 12 13  1  0
 13 14  1  0
 14 15  1  0
 15 16  2  0
 15 17  1  0
  7 20  1  0
 17 21  1  0
 21 22  1  0
 22 23  1  0
 23 24  1  0
 24 25  1  0
  6 26  1  0
 26 27  1  0
 26 28  2  0
 25 29  1  0
 29 30  2  3
 13 31  2  0
 29 32  1  0
 32 33  1  0
 33 34  1  0
 30 35  1  0
  8  9  2  0
  9 10  1  0
 10 11  2  0
 11 19  1  0
 19 18  2  0
 18  8  1  0
  1  2  2  0
  2  3  1  0
  3  4  2  0
  4  6  1  0
  6  5  2  0
  5  1  1  0
M  END

$$$$
No_115-/dssg/home/sw_qyf/PocketFlow/Model-Generation-Results/5HT2A_7WC7_rec_A_10.pdb/2024-01-01-03-54-21/
     RDKit          3D

 33 35  0  0  0  0  0  0  0  0999 V2000
  -24.1553  -17.8465  145.7021 C   0  0  0  0  0  0  0  0  0  0  0  0
  -24.6364  -17.2931  146.7091 C   0  0  0  0  0  0  0  0  0  0  0  0
  -24.0780  -17.2921  147.9389 C   0  0  0  0  0  0  0  0  0  0  0  0
  -24.6761  -16.7363  149.1478 C   0  0  0  0  0  0  0  0  0  0  0  0
  -25.9985  -16.2638  148.9932 C   0  0  0  0  0  0  0  0  0  0  0  0
  -26.6270  -16.3412  147.7728 C   0  0  0  0  0  0  0  0  0  0  0  0
  -25.9734  -16.9165  146.6819 C   0  0  0  0  0  0  0  0  0  0  0  0
  -23.7938  -16.8806  144.5756 C   0  0  0  0  0  0  0  0  0  0  0  0
  -24.1383  -15.5368  145.0393 C   0  0  0  0  0  0  0  0  0  0  0  0
  -25.3132  -14.9782  144.9854 C   0  0  0  0  0  0  0  0  0  0  0  0
  -25.4987  -13.8195  144.1618 C   0  0  0  0  0  0  0  0  0  0  0  0
  -26.4420  -12.7769  144.6822 C   0  0  0  0  0  0  0  0  0  0  0  0
  -26.9018  -11.7977  143.8347 C   0  0  0  0  0  0  0  0  0  0  0  0
  -28.2705  -11.3562  143.9654 C   0  0  0  0  0  0  0  0  0  0  0  0
  -28.9000  -10.3967  143.1099 C   0  0  0  0  0  0  0  0  0  0  0  0
  -28.9107  -10.4922  141.8321 C   0  0  0  0  0  0  0  0  0  0  0  0
  -28.3755  -11.5903  141.0985 C   0  0  0  0  0  0  0  0  0  0  0  0
  -27.7457  -11.4147  139.8548 C   0  0  0  0  0  0  0  0  0  0  0  0
  -27.0194  -12.4806  139.2352 C   0  0  0  0  0  0  0  0  0  0  0  0
  -26.6542  -12.1081  137.9633 N   0  0  0  0  0  0  0  0  0  0  0  0
  -28.0291  -15.7843  147.6887 C   0  0  0  0  0  0  0  0  0  0  0  0
  -28.9296  -15.8338  148.6587 C   0  0  0  0  0  0  0  0  0  0  0  0
  -30.1664  -15.1988  148.6057 C   0  0  0  0  0  0  0  0  0  0  0  0
  -30.2862  -14.2392  147.5032 C   0  0  0  0  0  0  0  0  0  0  0  0
  -29.2834  -14.0655  146.5997 C   0  0  0  0  0  0  0  0  0  0  0  0
  -28.1119  -14.7637  146.6991 C   0  0  0  0  0  0  0  0  0  0  0  0
  -27.7968  -10.0865  139.3119 C   0  0  0  0  0  0  0  0  0  0  0  0
  -27.0956   -9.0229  139.8834 C   0  0  0  0  0  0  0  0  0  0  0  0
  -28.1739   -8.2062  139.9746 C   0  0  0  0  0  0  0  0  0  0  0  0
  -29.2099   -8.1249  140.0887 C   0  0  0  0  0  0  0  0  0  0  0  0
  -30.0389   -8.5001  141.3087 C   0  0  0  0  0  0  0  0  0  0  0  0
  -29.7997   -9.7206  141.8538 C   0  0  0  0  0  0  0  0  0  0  0  0
  -31.2155  -10.3471  142.1665 C   0  0  0  0  0  0  0  0  0  0  0  0
  1  2  1  0
  1  8  1  0
  8  9  1  0
  9 10  1  0
 10 11  1  0
 11 12  1  0
 12 13  2  3
 13 14  1  0
 14 15  1  0
 15 16  2  3
 16 17  1  0
 17 18  1  0
 18 19  1  0
 19 20  1  0
  6 21  1  0
 18 27  1  0
 27 28  2  3
 28 29  1  0
 29 30  2  3
 30 31  1  0
 16 32  1  0
 31 32  1  0
 32 33  1  0
  2  3  2  0
  3  4  1  0
  4  5  2  0
  5  6  1  0
  6  7  2  0
  7  2  1  0
 21 22  2  0
 22 23  1  0
 23 24  2  0
 24 25  1  0
 25 26  2  0
 26 21  1  0
M  END

$$$$
No_116-/dssg/home/sw_qyf/PocketFlow/Model-Generation-Results/5HT2A_7WC7_rec_A_10.pdb/2024-01-01-03-54-21/
     RDKit          3D

 30 30  0  0  0  0  0  0  0  0999 V2000
  -24.1553  -17.8465  145.7021 C   0  0  0  0  0  0  0  0  0  0  0  0
  -24.2856  -16.6364  145.3494 C   0  0  0  0  0  0  0  0  0  0  0  0
  -25.0033  -15.6772  146.0737 C   0  0  0  0  0  0  0  0  0  0  0  0
  -25.1197  -14.2835  145.7299 C   0  0  0  0  0  0  0  0  0  0  0  0
  -24.2707  -13.8793  144.6500 C   0  0  0  0  0  0  0  0  0  0  0  0
  -24.8686  -18.3355  146.8179 C   0  0  0  0  0  0  0  0  0  0  0  0
  -25.6154  -17.5363  147.5807 C   0  0  0  0  0  0  0  0  0  0  0  0
  -26.2457  -17.9460  148.8059 C   0  0  0  0  0  0  0  0  0  0  0  0
  -25.6648  -16.2280  147.2614 C   0  0  0  0  0  0  0  0  0  0  0  0
  -23.2031  -12.9096  145.0853 C   0  0  0  0  0  0  0  0  0  0  0  0
  -22.3328  -12.3120  144.0829 C   0  0  0  0  0  0  0  0  0  0  0  0
  -25.2730  -17.5300  149.9779 C   0  0  0  0  0  0  0  0  0  0  0  0
  -26.1300  -13.4286  146.2135 C   0  0  0  0  0  0  0  0  0  0  0  0
  -27.4678  -13.5132  145.9540 C   0  0  0  0  0  0  0  0  0  0  0  0
  -28.3126  -12.4164  146.3855 C   0  0  0  0  0  0  0  0  0  0  0  0
  -29.6964  -12.5009  146.2883 C   0  0  0  0  0  0  0  0  0  0  0  0
  -30.0657  -13.6490  146.4217 F   0  0  0  0  0  0  0  0  0  0  0  0
  -30.2444  -11.6755  147.3848 F   0  0  0  0  0  0  0  0  0  0  0  0
  -30.0380  -11.8723  145.1931 F   0  0  0  0  0  0  0  0  0  0  0  0
  -25.7388  -17.8077  151.2014 O   0  0  0  0  0  0  0  0  0  0  0  0
  -24.2188  -16.9510  149.8411 O   0  0  0  0  0  0  0  0  0  0  0  0
  -23.4168  -16.2917  144.3479 O   0  0  0  0  0  0  0  0  0  0  0  0
  -21.5926  -11.3162  144.5053 O   0  0  0  0  0  0  0  0  0  0  0  0
  -21.6937  -13.2793  143.4021 O   0  0  0  0  0  0  0  0  0  0  0  0
  -23.4789  -18.7854  145.0274 O   0  0  0  0  0  0  0  0  0  0  0  0
  -23.2350  -17.1568  150.8256 C   0  0  0  0  0  0  0  0  0  0  0  0
  -21.9849  -16.2542  150.6677 C   0  0  0  0  0  0  0  0  0  0  0  0
  -21.8461  -15.8962  149.4540 O   0  0  0  0  0  0  0  0  0  0  0  0
  -21.1649  -16.1315  151.5965 O   0  0  0  0  0  0  0  0  0  0  0  0
  -25.6030  -12.4663  147.0301 O   0  0  0  0  0  0  0  0  0  0  0  0
  3  4  1  0
  4  5  2  3
  7  8  1  0
  5 10  1  0
 10 11  1  0
  8 12  1  0
  4 13  1  0
 13 14  1  0
 14 15  2  3
 15 16  1  0
 16 17  1  0
 16 18  1  0
 16 19  1  0
 12 20  2  0
 12 21  1  0
  2 22  1  0
 11 23  1  0
 11 24  2  0
  1 25  1  0
 21 26  1  0
 26 27  1  0
 27 28  1  0
 27 29  2  0
 13 30  2  0
  1  2  2  0
  2  3  1  0
  3  9  2  0
  9  7  1  0
  7  6  2  0
  6  1  1  0
M  END

$$$$
No_117-/dssg/home/sw_qyf/PocketFlow/Model-Generation-Results/5HT2A_7WC7_rec_A_10.pdb/2024-01-01-03-54-21/
     RDKit          3D

 35 37  0  0  0  0  0  0  0  0999 V2000
  -23.1746  -16.6014  144.8668 C   0  0  0  0  0  0  0  0  0  0  0  0
  -23.8963  -15.5346  144.7885 C   0  0  0  0  0  0  0  0  0  0  0  0
  -25.3063  -15.4625  144.8521 C   0  0  0  0  0  0  0  0  0  0  0  0
  -25.9937  -16.4907  145.5509 C   0  0  0  0  0  0  0  0  0  0  0  0
  -23.8954  -17.6910  145.6328 C   0  0  0  0  0  0  0  0  0  0  0  0
  -23.1714  -18.8718  146.0269 C   0  0  0  0  0  0  0  0  0  0  0  0
  -25.2616  -17.6397  145.8758 C   0  0  0  0  0  0  0  0  0  0  0  0
  -26.0236  -14.1616  144.5751 C   0  0  0  0  0  0  0  0  0  0  0  0
  -26.8357  -13.5755  145.5161 C   0  0  0  0  0  0  0  0  0  0  0  0
  -27.5465  -12.3683  145.2159 C   0  0  0  0  0  0  0  0  0  0  0  0
  -27.5216  -11.7375  144.0026 C   0  0  0  0  0  0  0  0  0  0  0  0
  -26.9515  -12.5854  142.9718 C   0  0  0  0  0  0  0  0  0  0  0  0
  -26.1468  -13.7300  143.2415 C   0  0  0  0  0  0  0  0  0  0  0  0
  -28.3605  -10.6751  143.6967 C   0  0  0  0  0  0  0  0  0  0  0  0
  -29.0738  -10.3309  142.7680 C   0  0  0  0  0  0  0  0  0  0  0  0
  -29.8700   -9.1547  142.5697 C   0  0  0  0  0  0  0  0  0  0  0  0
  -29.5024   -8.2009  141.6840 C   0  0  0  0  0  0  0  0  0  0  0  0
  -28.7977   -8.5728  140.4750 C   0  0  0  0  0  0  0  0  0  0  0  0
  -28.1108   -9.7972  140.5103 C   0  0  0  0  0  0  0  0  0  0  0  0
  -28.1131  -10.5552  141.6236 C   0  0  0  0  0  0  0  0  0  0  0  0
  -27.2508  -10.0144  139.3409 C   0  0  0  0  0  0  0  0  0  0  0  0
  -27.4853  -11.3629  138.8720 C   0  0  0  0  0  0  0  0  0  0  0  0
  -26.5303  -12.4010  139.3838 C   0  0  0  0  0  0  0  0  0  0  0  0
  -28.8240   -7.6565  139.3543 C   0  0  0  0  0  0  0  0  0  0  0  0
  -28.3265  -11.7782  137.8516 C   0  0  0  0  0  0  0  0  0  0  0  0
  -30.8611   -8.8858  143.6591 C   0  0  0  0  0  0  0  0  0  0  0  0
  -31.0106   -9.5460  144.6316 O   0  0  0  0  0  0  0  0  0  0  0  0
  -31.9089   -8.0275  143.3172 O   0  0  0  0  0  0  0  0  0  0  0  0
  -23.5176  -19.9558  145.6990 O   0  0  0  0  0  0  0  0  0  0  0  0
  -22.1079  -18.6246  146.7861 O   0  0  0  0  0  0  0  0  0  0  0  0
  -29.2531   -6.6198  139.5159 O   0  0  0  0  0  0  0  0  0  0  0  0
  -28.3419   -8.0160  138.2351 O   0  0  0  0  0  0  0  0  0  0  0  0
  -27.6487  -16.4394  145.9265 Cl  0  0  0  0  0  0  0  0  0  0  0  0
  -28.1774  -11.8370  146.2956 F   0  0  0  0  0  0  0  0  0  0  0  0
  -23.2607  -14.4736  144.1583 O   0  0  0  0  0  0  0  0  0  0  0  0
  5  6  1  0
  3  8  1  0
 11 14  1  0
 19 21  1  0
 21 22  1  0
 22 23  2  0
 18 24  1  0
 22 25  1  0
 16 26  1  0
 26 27  1  0
 26 28  2  0
  6 29  2  0
  6 30  1  0
 24 31  2  0
 24 32  1  0
  4 33  1  0
 10 34  1  0
  2 35  1  0
 14 15  1  0
 15 16  2  0
 16 17  1  0
 17 18  2  0
 18 19  1  0
 19 20  2  0
 20 15  1  0
  8  9  2  0
  9 10  1  0
 10 11  2  0
 11 12  1  0
 12 13  2  0
 13  8  1  0
  1  2  2  0
  2  3  1  0
  3  4  2  0
  4  7  1  0
  7  5  2  0
  5  1  1  0
M  END

$$$$
No_118-/dssg/home/sw_qyf/PocketFlow/Model-Generation-Results/5HT2A_7WC7_rec_A_10.pdb/2024-01-01-03-54-21/
     RDKit          3D

 27 30  0  0  0  0  0  0  0  0999 V2000
  -23.1746  -16.6014  144.8668 C   0  0  0  0  0  0  0  0  0  0  0  0
  -23.7011  -17.0158  145.9774 C   0  0  0  0  0  0  0  0  0  0  0  0
  -23.7336  -18.2775  146.3737 C   0  0  0  0  0  0  0  0  0  0  0  0
  -24.1960  -18.6445  147.6858 C   0  0  0  0  0  0  0  0  0  0  0  0
  -24.7100  -17.6145  148.5486 C   0  0  0  0  0  0  0  0  0  0  0  0
  -24.7929  -16.2635  148.0870 C   0  0  0  0  0  0  0  0  0  0  0  0
  -24.2508  -15.9434  146.8891 C   0  0  0  0  0  0  0  0  0  0  0  0
  -22.9131  -15.3694  144.6484 O   0  0  0  0  0  0  0  0  0  0  0  0
  -23.8154  -14.4512  145.0167 C   0  0  0  0  0  0  0  0  0  0  0  0
  -24.2690  -14.5467  146.4234 C   0  0  0  0  0  0  0  0  0  0  0  0
  -23.1264  -13.0068  144.9059 C   0  0  0  0  0  0  0  0  0  0  0  0
  -23.7205  -11.8728  145.5708 C   0  0  0  0  0  0  0  0  0  0  0  0
  -24.8772  -12.2599  146.4338 C   0  0  0  0  0  0  0  0  0  0  0  0
  -25.4534  -13.4297  146.2210 C   0  0  0  0  0  0  0  0  0  0  0  0
  -25.9940  -11.0904  146.2816 C   0  0  0  0  0  0  0  0  0  0  0  0
  -26.7779  -11.1827  145.0252 C   0  0  0  0  0  0  0  0  0  0  0  0
  -27.7615  -12.0580  144.8936 C   0  0  0  0  0  0  0  0  0  0  0  0
  -28.7364  -11.7992  143.8900 C   0  0  0  0  0  0  0  0  0  0  0  0
  -29.3370  -10.4716  144.1710 C   0  0  0  0  0  0  0  0  0  0  0  0
  -28.9619   -9.4957  143.1270 C   0  0  0  0  0  0  0  0  0  0  0  0
  -29.7700   -8.3350  142.8976 C   0  0  0  0  0  0  0  0  0  0  0  0
  -29.4935   -7.4118  141.9115 C   0  0  0  0  0  0  0  0  0  0  0  0
  -29.2665   -8.0029  140.5690 C   0  0  0  0  0  0  0  0  0  0  0  0
  -28.4493   -9.1231  140.5436 C   0  0  0  0  0  0  0  0  0  0  0  0
  -28.5032  -10.0606  141.7394 C   0  0  0  0  0  0  0  0  0  0  0  0
  -27.6775   -9.5147  139.4619 C   0  0  0  0  0  0  0  0  0  0  0  0
  -26.9999  -10.5982  139.5315 O   0  0  0  0  0  0  0  0  0  0  0  0
  1  2  1  0
  1  8  1  0
  8  9  1  0
  7 10  1  0
  9 10  1  0
  9 11  1  0
 11 12  1  0
 12 13  1  0
 10 14  1  0
 13 14  1  0
 13 15  1  0
 15 16  1  0
 16 17  2  3
 17 18  1  0
 18 19  1  0
 19 20  1  0
 20 21  1  0
 21 22  1  0
 22 23  1  0
 23 24  1  0
 20 25  1  0
 24 25  1  0
 24 26  1  0
 26 27  1  0
  2  3  2  0
  3  4  1  0
  4  5  2  0
  5  6  1  0
  6  7  2  0
  7  2  1  0
M  END

$$$$
No_119-/dssg/home/sw_qyf/PocketFlow/Model-Generation-Results/5HT2A_7WC7_rec_A_10.pdb/2024-01-01-03-54-21/
     RDKit          3D

 24 25  0  0  0  0  0  0  0  0999 V2000
  -24.1553  -17.8465  145.7021 C   0  0  0  0  0  0  0  0  0  0  0  0
  -23.9795  -18.4462  146.7426 C   0  0  0  0  0  0  0  0  0  0  0  0
  -25.1593  -16.8262  145.6925 C   0  0  0  0  0  0  0  0  0  0  0  0
  -24.9465  -15.5961  144.9952 C   0  0  0  0  0  0  0  0  0  0  0  0
  -24.7630  -14.4365  145.6428 C   0  0  0  0  0  0  0  0  0  0  0  0
  -25.2475  -13.3016  145.1758 C   0  0  0  0  0  0  0  0  0  0  0  0
  -24.5948  -12.1136  145.6196 C   0  0  0  0  0  0  0  0  0  0  0  0
  -24.6119  -17.9315  147.9544 C   0  0  0  0  0  0  0  0  0  0  0  0
  -25.5668  -17.0399  148.0185 C   0  0  0  0  0  0  0  0  0  0  0  0
  -25.7499  -16.2302  146.8691 C   0  0  0  0  0  0  0  0  0  0  0  0
  -26.7753  -13.1815  145.4047 C   0  0  0  0  0  0  0  0  0  0  0  0
  -27.1891  -12.1214  146.1091 C   0  0  0  0  0  0  0  0  0  0  0  0
  -28.6561  -11.8188  146.0401 C   0  0  0  0  0  0  0  0  0  0  0  0
  -29.0803  -10.7118  145.3888 C   0  0  0  0  0  0  0  0  0  0  0  0
  -28.5120  -10.3872  144.1461 C   0  0  0  0  0  0  0  0  0  0  0  0
  -29.0434   -9.3461  143.3329 C   0  0  0  0  0  0  0  0  0  0  0  0
  -29.1653   -9.6416  141.9027 C   0  0  0  0  0  0  0  0  0  0  0  0
  -29.9980   -8.8645  141.1130 C   0  0  0  0  0  0  0  0  0  0  0  0
  -29.8222   -7.7050  141.0947 N   0  0  0  0  0  0  0  0  0  0  0  0
  -29.8050   -6.9798  142.3845 C   0  0  0  0  0  0  0  0  0  0  0  0
  -29.0124   -7.8003  143.4659 C   0  0  0  0  0  0  0  0  0  0  0  0
  -23.1336  -12.1042  145.3913 C   0  0  0  0  0  0  0  0  0  0  0  0
  -29.5231  -12.7040  146.7572 C   0  0  0  0  0  0  0  0  0  0  0  0
  -30.2057  -12.1821  147.8526 N   0  0  0  0  0  0  0  0  0  0  0  0
  3  4  1  0
  4  5  1  0
  5  6  1  0
  6  7  1  0
  6 11  1  0
 11 12  1  0
 12 13  1  0
 13 14  1  0
 14 15  1  0
 15 16  2  3
 16 17  1  0
 17 18  1  0
 18 19  1  0
 19 20  1  0
 16 21  1  0
 20 21  1  0
  7 22  1  0
 13 23  1  0
 23 24  1  0
  1  2  2  0
  2  8  1  0
  8  9  2  0
  9 10  1  0
 10  3  2  0
  3  1  1  0
M  END

$$$$
No_120-/dssg/home/sw_qyf/PocketFlow/Model-Generation-Results/5HT2A_7WC7_rec_A_10.pdb/2024-01-01-03-54-21/
     RDKit          3D

 16 17  0  0  0  0  0  0  0  0999 V2000
  -24.1553  -17.8465  145.7021 C   0  0  0  0  0  0  0  0  0  0  0  0
  -24.2856  -16.6364  145.3494 C   0  0  0  0  0  0  0  0  0  0  0  0
  -24.7211  -15.5955  146.2115 C   0  0  0  0  0  0  0  0  0  0  0  0
  -25.1322  -16.0374  147.5372 C   0  0  0  0  0  0  0  0  0  0  0  0
  -24.5163  -18.2968  146.9928 C   0  0  0  0  0  0  0  0  0  0  0  0
  -24.9534  -17.3074  147.9886 C   0  0  0  0  0  0  0  0  0  0  0  0
  -24.8795  -14.1918  145.8039 C   0  0  0  0  0  0  0  0  0  0  0  0
  -24.0624  -13.7230  144.8076 C   0  0  0  0  0  0  0  0  0  0  0  0
  -23.5136  -12.3738  145.0939 C   0  0  0  0  0  0  0  0  0  0  0  0
  -24.3662  -11.5838  145.9517 C   0  0  0  0  0  0  0  0  0  0  0  0
  -25.3974  -13.0768  146.6352 C   0  0  0  0  0  0  0  0  0  0  0  0
  -23.8017  -16.0922  143.5511 Br  0  0  0  0  0  0  0  0  0  0  0  0
  -25.2475  -17.6887  149.3808 C   0  0  0  0  0  0  0  0  0  0  0  0
  -24.2784  -17.1530  150.3739 C   0  0  0  0  0  0  0  0  0  0  0  0
  -24.6173  -16.7717  151.4268 O   0  0  0  0  0  0  0  0  0  0  0  0
  -22.9983  -17.3564  150.1015 O   0  0  0  0  0  0  0  0  0  0  0  0
  3  7  1  0
  7  8  1  0
  8  9  2  0
  9 10  1  0
  7 11  1  0
 10 11  1  0
  2 12  1  0
  6 13  1  0
 13 14  1  0
 14 15  2  0
 14 16  1  0
  1  2  2  0
  2  3  1  0
  3  4  2  0
  4  6  1  0
  6  5  2  0
  5  1  1  0
M  END

$$$$
No_121-/dssg/home/sw_qyf/PocketFlow/Model-Generation-Results/5HT2A_7WC7_rec_A_10.pdb/2024-01-01-03-54-21/
     RDKit          3D

 18 19  0  0  0  0  0  0  0  0999 V2000
  -23.1746  -16.6014  144.8668 C   0  0  0  0  0  0  0  0  0  0  0  0
  -23.8963  -15.5346  144.7885 C   0  0  0  0  0  0  0  0  0  0  0  0
  -24.6479  -15.0447  145.8164 C   0  0  0  0  0  0  0  0  0  0  0  0
  -25.3835  -13.7782  145.7887 C   0  0  0  0  0  0  0  0  0  0  0  0
  -25.5840  -12.9393  146.6927 C   0  0  0  0  0  0  0  0  0  0  0  0
  -23.3085  -17.4101  146.0508 C   0  0  0  0  0  0  0  0  0  0  0  0
  -24.0546  -16.9979  147.1513 C   0  0  0  0  0  0  0  0  0  0  0  0
  -24.7507  -15.7834  147.0928 C   0  0  0  0  0  0  0  0  0  0  0  0
  -26.1984  -11.6559  146.5045 C   0  0  0  0  0  0  0  0  0  0  0  0
  -26.6110  -11.2825  145.1874 C   0  0  0  0  0  0  0  0  0  0  0  0
  -26.3190  -12.2245  144.1993 C   0  0  0  0  0  0  0  0  0  0  0  0
  -25.6900  -13.4701  144.3996 C   0  0  0  0  0  0  0  0  0  0  0  0
  -27.1526  -10.0029  144.8610 C   0  0  0  0  0  0  0  0  0  0  0  0
  -27.7497   -9.7569  143.6304 C   0  0  0  0  0  0  0  0  0  0  0  0
  -28.8077   -8.8920  143.4725 C   0  0  0  0  0  0  0  0  0  0  0  0
  -29.9456   -9.2811  142.9889 C   0  0  0  0  0  0  0  0  0  0  0  0
  -30.9658   -8.3302  142.6103 C   0  0  0  0  0  0  0  0  0  0  0  0
  -32.1211   -8.6771  142.1939 N   0  0  0  0  0  0  0  0  0  0  0  0
  3  4  1  0
 10 13  1  0
 13 14  1  0
 14 15  2  3
 15 16  1  0
 16 17  2  3
 17 18  1  0
  1  2  2  0
  2  3  1  0
  3  8  2  0
  8  7  1  0
  7  6  2  0
  6  1  1  0
  4  5  2  0
  5  9  1  0
  9 10  2  0
 10 11  1  0
 11 12  2  0
 12  4  1  0
M  END

$$$$
No_122-/dssg/home/sw_qyf/PocketFlow/Model-Generation-Results/5HT2A_7WC7_rec_A_10.pdb/2024-01-01-03-54-21/
     RDKit          3D

 20 22  0  0  0  0  0  0  0  0999 V2000
  -24.1553  -17.8465  145.7021 C   0  0  0  0  0  0  0  0  0  0  0  0
  -23.9795  -18.4462  146.7426 C   0  0  0  0  0  0  0  0  0  0  0  0
  -25.1196  -16.8106  145.6409 C   0  0  0  0  0  0  0  0  0  0  0  0
  -25.9236  -16.5070  146.7422 C   0  0  0  0  0  0  0  0  0  0  0  0
  -26.9588  -15.5563  146.6458 C   0  0  0  0  0  0  0  0  0  0  0  0
  -28.0525  -15.5152  147.4931 C   0  0  0  0  0  0  0  0  0  0  0  0
  -24.6778  -18.1822  147.9448 C   0  0  0  0  0  0  0  0  0  0  0  0
  -25.6764  -17.1706  147.9456 C   0  0  0  0  0  0  0  0  0  0  0  0
  -29.0391  -14.5145  147.4097 C   0  0  0  0  0  0  0  0  0  0  0  0
  -28.9088  -13.4428  146.5728 C   0  0  0  0  0  0  0  0  0  0  0  0
  -27.7866  -13.4078  145.6830 C   0  0  0  0  0  0  0  0  0  0  0  0
  -26.8328  -14.4000  145.7338 C   0  0  0  0  0  0  0  0  0  0  0  0
  -27.5517  -12.2994  144.7295 C   0  0  0  0  0  0  0  0  0  0  0  0
  -27.3402  -11.0018  145.1578 C   0  0  0  0  0  0  0  0  0  0  0  0
  -27.3916   -9.9241  144.1857 C   0  0  0  0  0  0  0  0  0  0  0  0
  -27.9002  -10.1868  142.9069 C   0  0  0  0  0  0  0  0  0  0  0  0
  -27.6767  -11.4382  142.4756 C   0  0  0  0  0  0  0  0  0  0  0  0
  -27.8530  -12.5241  143.4224 C   0  0  0  0  0  0  0  0  0  0  0  0
  -29.8405  -12.4299  146.5127 N   0  0  0  0  0  0  0  0  0  0  0  0
  -30.1510  -11.7573  147.8098 C   0  0  0  0  0  0  0  0  0  0  0  0
  4  5  1  0
 11 13  1  0
 10 19  1  0
 19 20  1  0
  5  6  2  0
  6  9  1  0
  9 10  2  0
 10 11  1  0
 11 12  2  0
 12  5  1  0
 13 14  2  0
 14 15  1  0
 15 16  2  0
 16 17  1  0
 17 18  2  0
 18 13  1  0
  1  2  2  0
  2  7  1  0
  7  8  2  0
  8  4  1  0
  4  3  2  0
  3  1  1  0
M  END

$$$$
No_123-/dssg/home/sw_qyf/PocketFlow/Model-Generation-Results/5HT2A_7WC7_rec_A_10.pdb/2024-01-01-03-54-21/
     RDKit          3D

 16 17  0  0  0  0  0  0  0  0999 V2000
  -24.1553  -17.8465  145.7021 C   0  0  0  0  0  0  0  0  0  0  0  0
  -24.6364  -17.2931  146.7091 C   0  0  0  0  0  0  0  0  0  0  0  0
  -24.5709  -15.9334  146.8074 C   0  0  0  0  0  0  0  0  0  0  0  0
  -25.1834  -15.1616  147.9419 C   0  0  0  0  0  0  0  0  0  0  0  0
  -23.6361  -17.1348  144.5597 C   0  0  0  0  0  0  0  0  0  0  0  0
  -23.7332  -15.7649  144.6149 C   0  0  0  0  0  0  0  0  0  0  0  0
  -24.1973  -15.1293  145.7929 C   0  0  0  0  0  0  0  0  0  0  0  0
  -24.2398  -13.6108  145.7747 C   0  0  0  0  0  0  0  0  0  0  0  0
  -25.4016  -12.9799  145.9933 C   0  0  0  0  0  0  0  0  0  0  0  0
  -23.1294  -12.8852  145.2251 C   0  0  0  0  0  0  0  0  0  0  0  0
  -25.3066  -11.5605  146.2888 C   0  0  0  0  0  0  0  0  0  0  0  0
  -26.6938  -10.9985  146.2671 C   0  0  0  0  0  0  0  0  0  0  0  0
  -27.7852  -11.8332  146.0096 C   0  0  0  0  0  0  0  0  0  0  0  0
  -27.7017  -13.2010  145.9669 C   0  0  0  0  0  0  0  0  0  0  0  0
  -26.5412  -13.7163  145.8241 C   0  0  0  0  0  0  0  0  0  0  0  0
  -24.0381  -19.3720  145.6219 C   0  0  0  0  0  0  0  0  0  0  0  0
  3  4  1  0
  7  8  1  0
  8  9  1  0
  8 10  1  0
  1 16  1  0
  1  2  2  0
  2  3  1  0
  3  7  2  0
  7  6  1  0
  6  5  2  0
  5  1  1  0
  9 11  2  0
 11 12  1  0
 12 13  2  0
 13 14  1  0
 14 15  2  0
 15  9  1  0
M  END

$$$$
No_124-/dssg/home/sw_qyf/PocketFlow/Model-Generation-Results/5HT2A_7WC7_rec_A_10.pdb/2024-01-01-03-54-21/
     RDKit          3D

 17 18  0  0  0  0  0  0  0  0999 V2000
  -24.1553  -17.8465  145.7021 C   0  0  0  0  0  0  0  0  0  0  0  0
  -24.6364  -17.2931  146.7091 C   0  0  0  0  0  0  0  0  0  0  0  0
  -24.5709  -15.9334  146.8074 C   0  0  0  0  0  0  0  0  0  0  0  0
  -24.6729  -15.2066  145.7786 C   0  0  0  0  0  0  0  0  0  0  0  0
  -24.1309  -15.7292  144.5748 C   0  0  0  0  0  0  0  0  0  0  0  0
  -23.9620  -17.0370  144.5533 C   0  0  0  0  0  0  0  0  0  0  0  0
  -24.8936  -13.6657  145.8573 C   0  0  0  0  0  0  0  0  0  0  0  0
  -23.7865  -12.9282  145.9102 C   0  0  0  0  0  0  0  0  0  0  0  0
  -26.1137  -13.2591  146.3767 C   0  0  0  0  0  0  0  0  0  0  0  0
  -26.3275  -11.8320  146.3387 C   0  0  0  0  0  0  0  0  0  0  0  0
  -23.9799  -11.5028  145.8133 C   0  0  0  0  0  0  0  0  0  0  0  0
  -25.2121  -11.0014  146.0729 C   0  0  0  0  0  0  0  0  0  0  0  0
  -23.9336  -19.3211  145.5962 C   0  0  0  0  0  0  0  0  0  0  0  0
  -27.4284  -14.2704  146.5635 Cl  0  0  0  0  0  0  0  0  0  0  0  0
  -22.8152  -19.8494  145.8803 O   0  0  0  0  0  0  0  0  0  0  0  0
  -24.9979  -20.0583  145.8812 O   0  0  0  0  0  0  0  0  0  0  0  0
  -23.9484  -14.9309  143.5600 O   0  0  0  0  0  0  0  0  0  0  0  0
  4  7  1  0
  1 13  1  0
  9 14  1  0
 13 15  2  0
 13 16  1  0
  5 17  1  0
  1  2  2  0
  2  3  1  0
  3  4  2  0
  4  5  1  0
  5  6  2  0
  6  1  1  0
  7  8  2  0
  8 11  1  0
 11 12  2  0
 12 10  1  0
 10  9  2  0
  9  7  1  0
M  END

$$$$
No_125-/dssg/home/sw_qyf/PocketFlow/Model-Generation-Results/5HT2A_7WC7_rec_A_10.pdb/2024-01-01-03-54-21/
     RDKit          3D

 35 39  0  0  0  0  0  0  0  0999 V2000
  -24.1553  -17.8465  145.7021 C   0  0  0  0  0  0  0  0  0  0  0  0
  -24.2856  -16.6364  145.3494 C   0  0  0  0  0  0  0  0  0  0  0  0
  -24.5733  -15.7651  145.9979 C   0  0  0  0  0  0  0  0  0  0  0  0
  -25.0272  -15.9886  147.3700 C   0  0  0  0  0  0  0  0  0  0  0  0
  -24.4993  -18.2276  147.0208 C   0  0  0  0  0  0  0  0  0  0  0  0
  -24.9009  -17.2232  147.9329 C   0  0  0  0  0  0  0  0  0  0  0  0
  -24.8152  -14.2212  145.7249 C   0  0  0  0  0  0  0  0  0  0  0  0
  -25.7939  -13.7160  145.3863 C   0  0  0  0  0  0  0  0  0  0  0  0
  -27.0831  -14.4258  145.1156 C   0  0  0  0  0  0  0  0  0  0  0  0
  -28.1655  -13.6293  144.7579 C   0  0  0  0  0  0  0  0  0  0  0  0
  -28.0309  -12.1659  144.7757 C   0  0  0  0  0  0  0  0  0  0  0  0
  -29.1981  -11.3367  144.4991 C   0  0  0  0  0  0  0  0  0  0  0  0
  -29.1617  -10.4742  143.4419 C   0  0  0  0  0  0  0  0  0  0  0  0
  -26.0538  -12.2075  145.3635 C   0  0  0  0  0  0  0  0  0  0  0  0
  -26.9936  -11.4392  145.1157 C   0  0  0  0  0  0  0  0  0  0  0  0
  -28.8585  -10.7504  142.2933 C   0  0  0  0  0  0  0  0  0  0  0  0
  -28.8244   -9.7720  141.2223 C   0  0  0  0  0  0  0  0  0  0  0  0
  -29.3280   -8.4695  141.4239 C   0  0  0  0  0  0  0  0  0  0  0  0
  -29.3549   -7.4045  140.4842 C   0  0  0  0  0  0  0  0  0  0  0  0
  -28.8919   -7.7143  139.2184 C   0  0  0  0  0  0  0  0  0  0  0  0
  -28.2610   -8.9585  138.9863 C   0  0  0  0  0  0  0  0  0  0  0  0
  -28.2725   -9.9789  139.9454 C   0  0  0  0  0  0  0  0  0  0  0  0
  -23.4214  -13.5545  145.4770 C   0  0  0  0  0  0  0  0  0  0  0  0
  -27.5453  -11.1708  139.8578 C   0  0  0  0  0  0  0  0  0  0  0  0
  -26.2562  -11.2257  139.3971 C   0  0  0  0  0  0  0  0  0  0  0  0
  -28.3322  -12.4332  139.6934 C   0  0  0  0  0  0  0  0  0  0  0  0
  -23.4787  -12.1497  145.7720 C   0  0  0  0  0  0  0  0  0  0  0  0
  -24.6120  -11.5412  145.5807 C   0  0  0  0  0  0  0  0  0  0  0  0
  -25.6607  -12.3938  139.0934 O   0  0  0  0  0  0  0  0  0  0  0  0
  -25.1790  -17.5429  149.3506 C   0  0  0  0  0  0  0  0  0  0  0  0
  -25.1736  -16.7256  150.3727 N   0  0  0  0  0  0  0  0  0  0  0  0
  -23.7804  -16.3430  143.6279 Cl  0  0  0  0  0  0  0  0  0  0  0  0
  -29.7179   -9.0547  143.8044 C   0  0  0  0  0  0  0  0  0  0  0  0
  -29.7332   -8.0877  142.8238 C   0  0  0  0  0  0  0  0  0  0  0  0
  -30.2616   -6.9215  143.0947 O   0  0  0  0  0  0  0  0  0  0  0  0
  3  7  1  0
 11 12  1  0
 22 24  1  0
 24 25  2  3
 24 26  1  0
 25 29  1  0
  6 30  1  0
 30 31  1  0
  2 32  1  0
 34 35  1  0
 12 13  1  0
 13 16  2  0
 16 17  1  0
 18 34  1  0
 34 33  2  0
 33 13  1  0
  7  8  1  0
 14 28  1  0
 28 27  2  0
 27 23  1  0
 23  7  2  0
  1  2  2  0
  2  3  1  0
  3  4  2  0
  4  6  1  0
  6  5  2  0
  5  1  1  0
 17 18  2  0
 18 19  1  0
 19 20  2  0
 20 21  1  0
 21 22  2  0
 22 17  1  0
  8  9  2  0
  9 10  1  0
 10 11  2  0
 11 15  1  0
 15 14  2  0
 14  8  1  0
M  END

$$$$
No_126-/dssg/home/sw_qyf/PocketFlow/Model-Generation-Results/5HT2A_7WC7_rec_A_10.pdb/2024-01-01-03-54-21/
     RDKit          3D

 13 14  0  0  0  0  0  0  0  0999 V2000
  -24.1553  -17.8465  145.7021 C   0  0  0  0  0  0  0  0  0  0  0  0
  -24.6364  -17.2931  146.7091 C   0  0  0  0  0  0  0  0  0  0  0  0
  -24.5709  -15.9334  146.8074 C   0  0  0  0  0  0  0  0  0  0  0  0
  -24.6729  -15.2066  145.7786 C   0  0  0  0  0  0  0  0  0  0  0  0
  -24.1309  -15.7293  144.5748 C   0  0  0  0  0  0  0  0  0  0  0  0
  -23.9825  -17.0240  144.5869 N   0  0  0  0  0  0  0  0  0  0  0  0
  -23.8787  -19.1674  145.5462 N   0  0  0  0  0  0  0  0  0  0  0  0
  -24.8997  -13.6858  145.8654 C   0  0  0  0  0  0  0  0  0  0  0  0
  -23.8276  -12.8629  145.8424 C   0  0  0  0  0  0  0  0  0  0  0  0
  -26.2162  -13.1912  145.9095 C   0  0  0  0  0  0  0  0  0  0  0  0
  -26.4807  -11.7950  145.9360 C   0  0  0  0  0  0  0  0  0  0  0  0
  -24.0298  -11.4110  145.7312 C   0  0  0  0  0  0  0  0  0  0  0  0
  -25.3393  -10.9414  145.8142 C   0  0  0  0  0  0  0  0  0  0  0  0
  1  7  1  0
  4  8  1  0
  1  2  2  0
  2  3  1  0
  3  4  2  0
  4  5  1  0
  5  6  2  0
  6  1  1  0
  8  9  2  0
  9 12  1  0
 12 13  2  0
 13 11  1  0
 11 10  2  0
 10  8  1  0
M  END

$$$$
No_127-/dssg/home/sw_qyf/PocketFlow/Model-Generation-Results/5HT2A_7WC7_rec_A_10.pdb/2024-01-01-03-54-21/
     RDKit          3D

 35 37  0  0  0  0  0  0  0  0999 V2000
  -24.1553  -17.8465  145.7021 C   0  0  0  0  0  0  0  0  0  0  0  0
  -24.6364  -17.2931  146.7091 C   0  0  0  0  0  0  0  0  0  0  0  0
  -25.8608  -16.5592  146.5934 C   0  0  0  0  0  0  0  0  0  0  0  0
  -25.9088  -15.1597  146.9911 C   0  0  0  0  0  0  0  0  0  0  0  0
  -25.5121  -14.2230  145.9989 C   0  0  0  0  0  0  0  0  0  0  0  0
  -24.6520  -14.3002  145.3590 C   0  0  0  0  0  0  0  0  0  0  0  0
  -23.9816  -13.3641  144.5420 C   0  0  0  0  0  0  0  0  0  0  0  0
  -22.6624  -13.6002  144.1881 N   0  0  0  0  0  0  0  0  0  0  0  0
  -23.8824  -17.3048  147.9954 C   0  0  0  0  0  0  0  0  0  0  0  0
  -26.7162  -13.4268  145.5188 C   0  0  0  0  0  0  0  0  0  0  0  0
  -26.3129  -12.0963  145.0588 C   0  0  0  0  0  0  0  0  0  0  0  0
  -24.9472  -12.0775  144.4793 C   0  0  0  0  0  0  0  0  0  0  0  0
  -27.2602  -11.2990  144.2337 C   0  0  0  0  0  0  0  0  0  0  0  0
  -27.6264  -10.1329  144.8416 C   0  0  0  0  0  0  0  0  0  0  0  0
  -28.6635   -9.2838  144.1934 C   0  0  0  0  0  0  0  0  0  0  0  0
  -29.2565   -9.6410  143.0420 C   0  0  0  0  0  0  0  0  0  0  0  0
  -28.7250  -10.8664  142.4467 C   0  0  0  0  0  0  0  0  0  0  0  0
  -27.8263  -11.6772  143.0777 C   0  0  0  0  0  0  0  0  0  0  0  0
  -30.2015   -8.8276  142.4185 C   0  0  0  0  0  0  0  0  0  0  0  0
  -31.5627   -8.7547  142.9098 C   0  0  0  0  0  0  0  0  0  0  0  0
  -29.9412   -8.1592  141.1569 C   0  0  0  0  0  0  0  0  0  0  0  0
  -29.4718   -6.8528  141.2407 C   0  0  0  0  0  0  0  0  0  0  0  0
  -29.3631   -6.1576  142.4247 N   0  0  0  0  0  0  0  0  0  0  0  0
  -29.0865   -4.7883  142.3603 C   0  0  0  0  0  0  0  0  0  0  0  0
  -28.7848   -4.1821  143.6928 C   0  0  0  0  0  0  0  0  0  0  0  0
  -22.5522  -17.5122  147.9353 N   0  0  0  0  0  0  0  0  0  0  0  0
  -22.8360  -18.5106  145.7671 C   0  0  0  0  0  0  0  0  0  0  0  0
  -22.1366  -18.2624  146.9574 C   0  0  0  0  0  0  0  0  0  0  0  0
  -32.4641   -9.5244  142.4287 O   0  0  0  0  0  0  0  0  0  0  0  0
  -27.0162  -17.1635  146.1532 C   0  0  0  0  0  0  0  0  0  0  0  0
  -28.9286   -4.1647  141.3549 O   0  0  0  0  0  0  0  0  0  0  0  0
  -28.3791  -16.6418  146.7847 C   0  0  0  0  0  0  0  0  0  0  0  0
  -28.2925  -16.3803  148.2110 C   0  0  0  0  0  0  0  0  0  0  0  0
  -29.3549  -15.7235  148.7842 C   0  0  0  0  0  0  0  0  0  0  0  0
  -29.8380  -14.5082  148.2631 C   0  0  0  0  0  0  0  0  0  0  0  0
  2  3  1  0
  3  4  1  0
  4  5  1  0
  7  8  1  0
 11 13  1  0
 16 19  1  0
 19 20  1  0
 19 21  1  0
 21 22  2  3
 22 23  1  0
 23 24  1  0
 24 25  1  0
 20 29  1  0
  3 30  1  0
 24 31  2  0
 30 32  1  0
 32 33  1  0
 33 34  2  3
 34 35  1  0
 13 14  2  0
 14 15  1  0
 15 16  2  0
 16 17  1  0
 17 18  2  0
 18 13  1  0
  5  6  2  0
  6  7  1  0
  7 12  2  0
 12 11  1  0
 11 10  2  0
 10  5  1  0
  1  2  2  0
  2  9  1  0
  9 26  2  0
 26 28  1  0
 28 27  2  0
 27  1  1  0
M  END

$$$$
No_128-/dssg/home/sw_qyf/PocketFlow/Model-Generation-Results/5HT2A_7WC7_rec_A_10.pdb/2024-01-01-03-54-21/
     RDKit          3D

 10  9  0  0  0  0  0  0  0  0999 V2000
  -24.1553  -17.8465  145.7021 C   0  0  0  0  0  0  0  0  0  0  0  0
  -24.6364  -17.2931  146.7091 C   0  0  0  0  0  0  0  0  0  0  0  0
  -25.8608  -16.5591  146.5933 C   0  0  0  0  0  0  0  0  0  0  0  0
  -25.9533  -15.5604  145.6681 C   0  0  0  0  0  0  0  0  0  0  0  0
  -25.1030  -14.5122  145.9220 C   0  0  0  0  0  0  0  0  0  0  0  0
  -25.4082  -13.2051  145.7345 C   0  0  0  0  0  0  0  0  0  0  0  0
  -24.3921  -12.2120  145.8732 C   0  0  0  0  0  0  0  0  0  0  0  0
  -23.7319  -11.8794  144.7802 C   0  0  0  0  0  0  0  0  0  0  0  0
  -24.0568  -17.5398  148.1041 C   0  0  0  0  0  0  0  0  0  0  0  0
  -22.6540  -17.2045  148.2901 C   0  0  0  0  0  0  0  0  0  0  0  0
  1  2  1  0
  2  3  1  0
  3  4  1  0
  4  5  2  3
  5  6  1  0
  6  7  2  3
  7  8  1  0
  2  9  1  0
  9 10  1  0
M  END

$$$$
No_129-/dssg/home/sw_qyf/PocketFlow/Model-Generation-Results/5HT2A_7WC7_rec_A_10.pdb/2024-01-01-03-54-21/
     RDKit          3D

 15 15  0  0  0  0  0  0  0  0999 V2000
  -24.1553  -17.8465  145.7021 C   0  0  0  0  0  0  0  0  0  0  0  0
  -23.9795  -18.4462  146.7426 C   0  0  0  0  0  0  0  0  0  0  0  0
  -24.3577  -16.4380  145.7329 C   0  0  0  0  0  0  0  0  0  0  0  0
  -24.4745  -15.6012  144.5587 C   0  0  0  0  0  0  0  0  0  0  0  0
  -24.5845  -14.1656  144.8311 C   0  0  0  0  0  0  0  0  0  0  0  0
  -25.4952  -13.5661  145.3467 C   0  0  0  0  0  0  0  0  0  0  0  0
  -25.2937  -12.1750  145.6659 C   0  0  0  0  0  0  0  0  0  0  0  0
  -23.9582  -17.8783  148.0929 C   0  0  0  0  0  0  0  0  0  0  0  0
  -24.1916  -16.4546  148.1676 C   0  0  0  0  0  0  0  0  0  0  0  0
  -24.3810  -15.7412  147.0691 C   0  0  0  0  0  0  0  0  0  0  0  0
  -26.0406  -11.3726  145.1596 C   0  0  0  0  0  0  0  0  0  0  0  0
  -25.9207  -10.1939  144.6792 C   0  0  0  0  0  0  0  0  0  0  0  0
  -27.1316   -9.4249  144.1687 C   0  0  0  0  0  0  0  0  0  0  0  0
  -28.3855  -10.0982  144.2780 C   0  0  0  0  0  0  0  0  0  0  0  0
  -29.5230   -9.4339  143.8591 C   0  0  0  0  0  0  0  0  0  0  0  0
  3  4  1  0
  4  5  1  0
  5  6  1  0
  6  7  1  0
  7 11  1  0
 11 12  2  3
 12 13  1  0
 13 14  2  3
 14 15  1  0
  1  2  2  0
  2  8  1  0
  8  9  2  0
  9 10  1  0
 10  3  2  0
  3  1  1  0
M  END

$$$$
No_130-/dssg/home/sw_qyf/PocketFlow/Model-Generation-Results/5HT2A_7WC7_rec_A_10.pdb/2024-01-01-03-54-21/
     RDKit          3D

 26 28  0  0  0  0  0  0  0  0999 V2000
  -23.1746  -16.6014  144.8668 C   0  0  0  0  0  0  0  0  0  0  0  0
  -23.7011  -17.0158  145.9774 C   0  0  0  0  0  0  0  0  0  0  0  0
  -24.2134  -16.0722  146.8877 C   0  0  0  0  0  0  0  0  0  0  0  0
  -23.6191  -15.3702  144.4058 C   0  0  0  0  0  0  0  0  0  0  0  0
  -24.2693  -14.3706  145.2007 C   0  0  0  0  0  0  0  0  0  0  0  0
  -24.6150  -14.7690  146.5067 C   0  0  0  0  0  0  0  0  0  0  0  0
  -24.4972  -12.9876  144.8193 C   0  0  0  0  0  0  0  0  0  0  0  0
  -23.5442  -12.1044  145.4796 C   0  0  0  0  0  0  0  0  0  0  0  0
  -23.4305  -18.3171  146.4838 N   0  0  0  0  0  0  0  0  0  0  0  0
  -25.9079  -12.5902  145.0439 C   0  0  0  0  0  0  0  0  0  0  0  0
  -26.1229  -11.2296  145.2472 C   0  0  0  0  0  0  0  0  0  0  0  0
  -25.9470  -10.3169  144.3335 C   0  0  0  0  0  0  0  0  0  0  0  0
  -27.0299  -13.3890  144.7192 C   0  0  0  0  0  0  0  0  0  0  0  0
  -28.0707  -13.4581  145.8179 C   0  0  0  0  0  0  0  0  0  0  0  0
  -28.7538  -12.3006  146.1488 C   0  0  0  0  0  0  0  0  0  0  0  0
  -29.5384  -12.2446  147.3808 C   0  0  0  0  0  0  0  0  0  0  0  0
  -30.6686  -13.0253  147.3856 C   0  0  0  0  0  0  0  0  0  0  0  0
  -30.0896  -14.4569  147.4835 C   0  0  0  0  0  0  0  0  0  0  0  0
  -29.0992  -14.6598  146.2964 C   0  0  0  0  0  0  0  0  0  0  0  0
  -31.4305  -12.8317  148.7651 C   0  0  0  0  0  0  0  0  0  0  0  0
  -32.4927  -11.9963  148.8516 C   0  0  0  0  0  0  0  0  0  0  0  0
  -33.1141  -11.7210  150.1311 C   0  0  0  0  0  0  0  0  0  0  0  0
  -32.6656  -12.3745  151.2818 C   0  0  0  0  0  0  0  0  0  0  0  0
  -31.7223  -13.4464  151.0762 C   0  0  0  0  0  0  0  0  0  0  0  0
  -31.0834  -13.6095  149.8924 C   0  0  0  0  0  0  0  0  0  0  0  0
  -22.5973  -18.8600  146.6754 O   0  0  0  0  0  0  0  0  0  0  0  0
  5  7  1  0
  7  8  1  0
  2  9  1  0
  7 10  1  0
 10 11  1  0
 11 12  1  0
 10 13  1  0
 13 14  1  0
 17 20  1  0
  9 26  2  0
 14 15  2  0
 15 16  1  0
 16 17  2  0
 17 18  1  0
 18 19  2  0
 19 14  1  0
  1  2  2  0
  2  3  1  0
  3  6  2  0
  6  5  1  0
  5  4  2  0
  4  1  1  0
 20 21  2  0
 21 22  1  0
 22 23  2  0
 23 24  1  0
 24 25  2  0
 25 20  1  0
M  END

$$$$
No_131-/dssg/home/sw_qyf/PocketFlow/Model-Generation-Results/5HT2A_7WC7_rec_A_10.pdb/2024-01-01-03-54-21/
     RDKit          3D

 35 37  0  0  0  0  0  0  0  0999 V2000
  -24.1553  -17.8465  145.7021 C   0  0  0  0  0  0  0  0  0  0  0  0
  -24.6364  -17.2931  146.7091 C   0  0  0  0  0  0  0  0  0  0  0  0
  -24.0780  -17.2921  147.9389 C   0  0  0  0  0  0  0  0  0  0  0  0
  -24.6761  -16.7363  149.1478 C   0  0  0  0  0  0  0  0  0  0  0  0
  -24.1428  -16.9673  150.4142 C   0  0  0  0  0  0  0  0  0  0  0  0
  -24.5489  -17.4499  144.5046 N   0  0  0  0  0  0  0  0  0  0  0  0
  -24.6876  -16.1070  144.4695 C   0  0  0  0  0  0  0  0  0  0  0  0
  -25.2937  -15.4163  145.0372 C   0  0  0  0  0  0  0  0  0  0  0  0
  -25.3223  -15.9633  146.5120 C   0  0  0  0  0  0  0  0  0  0  0  0
  -23.6783  -19.1155  145.8081 O   0  0  0  0  0  0  0  0  0  0  0  0
  -25.7697  -14.0578  144.8268 C   0  0  0  0  0  0  0  0  0  0  0  0
  -25.3217  -13.0071  145.4193 C   0  0  0  0  0  0  0  0  0  0  0  0
  -25.8553  -11.7408  145.4533 C   0  0  0  0  0  0  0  0  0  0  0  0
  -26.9939  -11.4197  144.7196 C   0  0  0  0  0  0  0  0  0  0  0  0
  -27.4126  -12.4708  143.8389 C   0  0  0  0  0  0  0  0  0  0  0  0
  -26.9379  -13.8193  143.9969 C   0  0  0  0  0  0  0  0  0  0  0  0
  -27.5861  -10.1308  144.5464 C   0  0  0  0  0  0  0  0  0  0  0  0
  -29.0858  -10.2421  144.3969 C   0  0  0  0  0  0  0  0  0  0  0  0
  -29.7540   -9.2323  143.6676 C   0  0  0  0  0  0  0  0  0  0  0  0
  -29.3196   -8.7060  142.6072 C   0  0  0  0  0  0  0  0  0  0  0  0
  -30.0164   -7.5173  142.1230 C   0  0  0  0  0  0  0  0  0  0  0  0
  -29.5068   -6.8512  140.9644 C   0  0  0  0  0  0  0  0  0  0  0  0
  -29.1011   -7.8048  139.9168 C   0  0  0  0  0  0  0  0  0  0  0  0
  -28.3610   -8.9421  140.2293 C   0  0  0  0  0  0  0  0  0  0  0  0
  -28.6942   -9.5435  141.5794 C   0  0  0  0  0  0  0  0  0  0  0  0
  -27.7942   -9.7821  139.2443 C   0  0  0  0  0  0  0  0  0  0  0  0
  -27.0453  -10.9877  139.6885 C   0  0  0  0  0  0  0  0  0  0  0  0
  -26.9486  -12.1222  138.8189 C   0  0  0  0  0  0  0  0  0  0  0  0
  -30.7856   -8.7485  144.4522 O   0  0  0  0  0  0  0  0  0  0  0  0
  -22.7130  -17.0302  150.5964 C   0  0  0  0  0  0  0  0  0  0  0  0
  -21.9636  -16.1959  150.4195 N   0  0  0  0  0  0  0  0  0  0  0  0
  -25.9832  -12.9288  139.0514 O   0  0  0  0  0  0  0  0  0  0  0  0
  -27.5476  -12.0635  137.7344 O   0  0  0  0  0  0  0  0  0  0  0  0
  -29.6722  -10.8128  145.4767 O   0  0  0  0  0  0  0  0  0  0  0  0
  -29.3990  -12.0278  146.0388 C   0  0  0  0  0  0  0  0  0  0  0  0
  1  2  1  0
  3  4  1  0
  4  5  1  0
  1  6  1  0
  7  8  1  0
  2  9  1  0
  8  9  1  0
  1 10  2  0
  8 11  1  0
 14 17  1  0
 17 18  1  0
 18 19  1  0
 19 20  1  0
 24 26  1  0
 26 27  1  0
 27 28  1  0
 19 29  1  0
  5 30  1  0
 30 31  1  0
 28 32  1  0
 28 33  2  0
 18 34  1  0
 34 35  1  0
  3  2  1  0
  7  6  1  0
 11 12  2  0
 12 13  1  0
 13 14  2  0
 14 15  1  0
 15 16  2  0
 16 11  1  0
 20 21  2  0
 21 22  1  0
 22 23  2  0
 23 24  1  0
 24 25  2  0
 25 20  1  0
M  END

$$$$
No_132-/dssg/home/sw_qyf/PocketFlow/Model-Generation-Results/5HT2A_7WC7_rec_A_10.pdb/2024-01-01-03-54-21/
     RDKit          3D

 17 18  0  0  0  0  0  0  0  0999 V2000
  -23.1746  -16.6014  144.8668 C   0  0  0  0  0  0  0  0  0  0  0  0
  -24.0189  -16.0564  145.8445 C   0  0  0  0  0  0  0  0  0  0  0  0
  -25.3176  -15.9168  145.6822 C   0  0  0  0  0  0  0  0  0  0  0  0
  -25.8933  -14.7450  145.0633 C   0  0  0  0  0  0  0  0  0  0  0  0
  -25.2602  -14.1168  144.0897 C   0  0  0  0  0  0  0  0  0  0  0  0
  -26.0640  -13.2036  143.2811 C   0  0  0  0  0  0  0  0  0  0  0  0
  -26.1489  -16.5988  146.7291 C   0  0  0  0  0  0  0  0  0  0  0  0
  -27.0858  -16.0557  147.3571 C   0  0  0  0  0  0  0  0  0  0  0  0
  -27.8825  -14.9610  146.7476 C   0  0  0  0  0  0  0  0  0  0  0  0
  -28.9973  -14.3865  147.4299 C   0  0  0  0  0  0  0  0  0  0  0  0
  -29.5102  -13.2006  146.9063 C   0  0  0  0  0  0  0  0  0  0  0  0
  -27.2810  -14.2477  145.7060 C   0  0  0  0  0  0  0  0  0  0  0  0
  -30.2997  -12.3123  147.8147 C   0  0  0  0  0  0  0  0  0  0  0  0
  -26.7551  -12.3063  143.9791 N   0  0  0  0  0  0  0  0  0  0  0  0
  -31.2781  -12.3665  148.1750 N   0  0  0  0  0  0  0  0  0  0  0  0
  -27.5944  -12.9903  145.0629 C   0  0  0  0  0  0  0  0  0  0  0  0
  -28.6738  -12.2777  145.5333 O   0  0  0  0  0  0  0  0  0  0  0  0
  1  2  1  0
  2  3  1  0
  3  4  1  0
  5  6  1  0
  3  7  1  0
  7  8  1  0
  8  9  1  0
  9 10  1  0
 10 11  2  3
  4 12  1  0
  9 12  1  0
 11 13  1  0
  6 14  1  0
 13 15  1  0
 12 16  1  0
 14 16  1  0
 16 17  2  0
  4  5  1  0
M  END

$$$$
No_133-/dssg/home/sw_qyf/PocketFlow/Model-Generation-Results/5HT2A_7WC7_rec_A_10.pdb/2024-01-01-03-54-21/
     RDKit          3D

 18 20  0  0  0  0  0  0  0  0999 V2000
  -24.1553  -17.8465  145.7021 C   0  0  0  0  0  0  0  0  0  0  0  0
  -23.9795  -18.4462  146.7426 C   0  0  0  0  0  0  0  0  0  0  0  0
  -25.1593  -16.8262  145.6925 C   0  0  0  0  0  0  0  0  0  0  0  0
  -24.9465  -15.5961  144.9952 C   0  0  0  0  0  0  0  0  0  0  0  0
  -25.8339  -14.4742  145.0599 C   0  0  0  0  0  0  0  0  0  0  0  0
  -27.0182  -14.6297  145.8322 C   0  0  0  0  0  0  0  0  0  0  0  0
  -27.9676  -13.5626  145.8660 C   0  0  0  0  0  0  0  0  0  0  0  0
  -27.6751  -12.3728  145.1069 C   0  0  0  0  0  0  0  0  0  0  0  0
  -26.5334  -12.2875  144.3607 C   0  0  0  0  0  0  0  0  0  0  0  0
  -25.6383  -13.3917  144.3416 C   0  0  0  0  0  0  0  0  0  0  0  0
  -23.5788  -17.7641  147.8505 C   0  0  0  0  0  0  0  0  0  0  0  0
  -24.5945  -16.8163  148.4511 C   0  0  0  0  0  0  0  0  0  0  0  0
  -29.1618  -13.6013  146.7739 C   0  0  0  0  0  0  0  0  0  0  0  0
  -29.2357  -12.7250  147.7847 C   0  0  0  0  0  0  0  0  0  0  0  0
  -30.4078  -12.7141  148.6656 C   0  0  0  0  0  0  0  0  0  0  0  0
  -25.8889  -17.0716  148.0484 C   0  0  0  0  0  0  0  0  0  0  0  0
  -26.1375  -16.5582  146.7008 C   0  0  0  0  0  0  0  0  0  0  0  0
  -26.7262  -15.1488  146.7942 C   0  0  0  0  0  0  0  0  0  0  0  0
  1  2  1  0
  1  3  1  0
  2 11  1  0
 11 12  1  0
  7 13  1  0
 13 14  2  3
 14 15  1  0
 12 16  1  0
 16 17  1  0
  3  4  2  0
  4  5  1  0
  6 18  1  0
 18 17  2  0
 17  3  1  0
  5  6  2  0
  6  7  1  0
  7  8  2  0
  8  9  1  0
  9 10  2  0
 10  5  1  0
M  END

$$$$
No_134-/dssg/home/sw_qyf/PocketFlow/Model-Generation-Results/5HT2A_7WC7_rec_A_10.pdb/2024-01-01-03-54-21/
     RDKit          3D

 13 14  0  0  0  0  0  0  0  0999 V2000
  -24.1553  -17.8465  145.7021 C   0  0  0  0  0  0  0  0  0  0  0  0
  -23.9795  -18.4462  146.7426 C   0  0  0  0  0  0  0  0  0  0  0  0
  -23.3558  -17.2450  144.9339 C   0  0  0  0  0  0  0  0  0  0  0  0
  -22.6601  -18.2018  147.3440 C   0  0  0  0  0  0  0  0  0  0  0  0
  -22.2260  -17.0972  147.4082 C   0  0  0  0  0  0  0  0  0  0  0  0
  -24.0160  -16.2055  143.9864 C   0  0  0  0  0  0  0  0  0  0  0  0
  -24.3664  -14.9274  144.6987 C   0  0  0  0  0  0  0  0  0  0  0  0
  -23.8215  -14.4547  145.7723 C   0  0  0  0  0  0  0  0  0  0  0  0
  -24.1456  -13.1040  146.2447 C   0  0  0  0  0  0  0  0  0  0  0  0
  -25.1495  -12.3886  145.6423 C   0  0  0  0  0  0  0  0  0  0  0  0
  -25.7673  -12.9088  144.5228 C   0  0  0  0  0  0  0  0  0  0  0  0
  -25.4146  -14.1862  144.0025 C   0  0  0  0  0  0  0  0  0  0  0  0
  -22.3639  -16.2847  146.1383 C   0  0  0  0  0  0  0  0  0  0  0  0
  3  6  1  0
  6  7  1  0
  7  8  2  0
  8  9  1  0
  9 10  2  0
 10 11  1  0
 11 12  2  0
 12  7  1  0
  1  2  2  0
  2  4  1  0
  4  5  2  0
  5 13  1  0
 13  3  2  0
  3  1  1  0
M  END

$$$$
No_135-/dssg/home/sw_qyf/PocketFlow/Model-Generation-Results/5HT2A_7WC7_rec_A_10.pdb/2024-01-01-03-54-21/
     RDKit          3D

 35 38  0  0  0  0  0  0  0  0999 V2000
  -24.1553  -17.8465  145.7021 C   0  0  0  0  0  0  0  0  0  0  0  0
  -24.2856  -16.6364  145.3494 C   0  0  0  0  0  0  0  0  0  0  0  0
  -25.0033  -15.6772  146.0737 C   0  0  0  0  0  0  0  0  0  0  0  0
  -25.7224  -16.0756  147.0214 C   0  0  0  0  0  0  0  0  0  0  0  0
  -24.8891  -18.3427  146.7818 C   0  0  0  0  0  0  0  0  0  0  0  0
  -25.6059  -17.4168  147.5658 C   0  0  0  0  0  0  0  0  0  0  0  0
  -23.5571  -16.0856  144.2249 N   0  0  0  0  0  0  0  0  0  0  0  0
  -25.0591  -14.2315  145.5723 C   0  0  0  0  0  0  0  0  0  0  0  0
  -24.2932  -13.7593  144.6739 C   0  0  0  0  0  0  0  0  0  0  0  0
  -23.4706  -14.7735  143.9566 C   0  0  0  0  0  0  0  0  0  0  0  0
  -25.7868  -13.2649  146.4597 C   0  0  0  0  0  0  0  0  0  0  0  0
  -25.3645  -11.9043  146.4180 C   0  0  0  0  0  0  0  0  0  0  0  0
  -25.0024  -11.4725  145.0988 C   0  0  0  0  0  0  0  0  0  0  0  0
  -24.0049  -12.3208  144.4985 C   0  0  0  0  0  0  0  0  0  0  0  0
  -23.2367  -18.7370  145.2993 O   0  0  0  0  0  0  0  0  0  0  0  0
  -26.0676  -11.0057  144.3806 O   0  0  0  0  0  0  0  0  0  0  0  0
  -27.2699  -11.3514  144.5374 C   0  0  0  0  0  0  0  0  0  0  0  0
  -28.1441  -10.6522  143.6784 C   0  0  0  0  0  0  0  0  0  0  0  0
  -29.4464  -10.2191  144.1112 C   0  0  0  0  0  0  0  0  0  0  0  0
  -30.3190   -9.5860  143.2655 C   0  0  0  0  0  0  0  0  0  0  0  0
  -29.8768   -9.3127  141.9226 C   0  0  0  0  0  0  0  0  0  0  0  0
  -28.6773   -9.7644  141.4905 C   0  0  0  0  0  0  0  0  0  0  0  0
  -28.2488   -9.6210  140.1632 C   0  0  0  0  0  0  0  0  0  0  0  0
  -27.7594  -10.4581  142.4102 C   0  0  0  0  0  0  0  0  0  0  0  0
  -28.5604   -8.4826  139.4016 C   0  0  0  0  0  0  0  0  0  0  0  0
  -28.2542   -8.3608  138.0657 C   0  0  0  0  0  0  0  0  0  0  0  0
  -27.3645  -10.5157  139.5345 C   0  0  0  0  0  0  0  0  0  0  0  0
  -29.8596  -10.5011  145.4202 O   0  0  0  0  0  0  0  0  0  0  0  0
  -27.6952  -11.8784  139.4157 C   0  0  0  0  0  0  0  0  0  0  0  0
  -26.8551  -12.5909  138.6306 N   0  0  0  0  0  0  0  0  0  0  0  0
  -28.6461  -12.4305  139.9395 O   0  0  0  0  0  0  0  0  0  0  0  0
  -29.2609   -7.3113  140.0591 C   0  0  0  0  0  0  0  0  0  0  0  0
  -31.5073   -9.1577  143.6936 O   0  0  0  0  0  0  0  0  0  0  0  0
  -29.6210  -11.6531  146.2016 C   0  0  0  0  0  0  0  0  0  0  0  0
  -29.8206  -11.3967  147.6276 C   0  0  0  0  0  0  0  0  0  0  0  0
  2  7  1  0
  3  8  1  0
  7 10  1  0
  9 10  1  0
  1 15  1  0
 13 16  1  0
 16 17  1  0
 22 23  1  0
 23 25  1  0
 25 26  2  0
 23 27  1  0
 19 28  1  0
 27 29  1  0
 29 30  1  0
 29 31  2  0
 25 32  1  0
 20 33  1  0
 28 34  1  0
 34 35  1  0
 17 18  1  0
  8  9  2  0
  9 14  1  0
 14 13  2  0
 13 12  1  0
 12 11  2  0
 11  8  1  0
  1  2  2  0
  2  3  1  0
  3  4  2  0
  4  6  1  0
  6  5  2  0
  5  1  1  0
 18 19  2  0
 19 20  1  0
 20 21  2  0
 21 22  1  0
 22 24  2  0
 24 18  1  0
M  END

$$$$
No_136-/dssg/home/sw_qyf/PocketFlow/Model-Generation-Results/5HT2A_7WC7_rec_A_10.pdb/2024-01-01-03-54-21/
     RDKit          3D

 35 38  0  0  0  0  0  0  0  0999 V2000
  -24.1553  -17.8465  145.7021 C   0  0  0  0  0  0  0  0  0  0  0  0
  -24.2856  -16.6364  145.3494 C   0  0  0  0  0  0  0  0  0  0  0  0
  -25.0033  -15.6772  146.0737 C   0  0  0  0  0  0  0  0  0  0  0  0
  -24.8869  -14.2981  145.8377 C   0  0  0  0  0  0  0  0  0  0  0  0
  -25.3793  -13.2111  146.5918 C   0  0  0  0  0  0  0  0  0  0  0  0
  -26.7414  -12.9191  146.2877 C   0  0  0  0  0  0  0  0  0  0  0  0
  -27.1225  -12.5923  144.9493 C   0  0  0  0  0  0  0  0  0  0  0  0
  -28.0214  -11.5980  144.6608 C   0  0  0  0  0  0  0  0  0  0  0  0
  -28.1953  -10.9736  143.3958 C   0  0  0  0  0  0  0  0  0  0  0  0
  -29.1592  -10.0209  143.1758 C   0  0  0  0  0  0  0  0  0  0  0  0
  -29.3579   -9.4289  141.9452 C   0  0  0  0  0  0  0  0  0  0  0  0
  -28.5540   -9.9322  140.8667 C   0  0  0  0  0  0  0  0  0  0  0  0
  -27.6410  -10.9602  141.1165 C   0  0  0  0  0  0  0  0  0  0  0  0
  -26.9178  -11.4664  140.0545 C   0  0  0  0  0  0  0  0  0  0  0  0
  -27.5282  -11.5389  142.3797 C   0  0  0  0  0  0  0  0  0  0  0  0
  -26.0937  -10.7592  139.5654 O   0  0  0  0  0  0  0  0  0  0  0  0
  -23.7665  -18.1030  146.9086 C   0  0  0  0  0  0  0  0  0  0  0  0
  -24.3982  -17.4029  148.0527 C   0  0  0  0  0  0  0  0  0  0  0  0
  -24.6520  -15.9290  147.7188 C   0  0  0  0  0  0  0  0  0  0  0  0
  -30.3380   -8.3600  141.7861 C   0  0  0  0  0  0  0  0  0  0  0  0
  -31.5764   -8.6930  142.0356 O   0  0  0  0  0  0  0  0  0  0  0  0
  -23.7958  -16.0660  144.0733 C   0  0  0  0  0  0  0  0  0  0  0  0
  -24.0893  -13.8144  144.6699 C   0  0  0  0  0  0  0  0  0  0  0  0
  -23.5287  -14.7409  143.9988 O   0  0  0  0  0  0  0  0  0  0  0  0
  -27.2056  -12.6074  139.4404 O   0  0  0  0  0  0  0  0  0  0  0  0
  -30.0335   -7.2227  141.3033 O   0  0  0  0  0  0  0  0  0  0  0  0
  -23.6851  -17.4340  149.2854 O   0  0  0  0  0  0  0  0  0  0  0  0
  -29.3586  -11.9158  145.4853 C   0  0  0  0  0  0  0  0  0  0  0  0
  -29.2310  -11.9100  146.6585 C   0  0  0  0  0  0  0  0  0  0  0  0
  -30.4327  -12.0276  147.5494 C   0  0  0  0  0  0  0  0  0  0  0  0
  -28.0013  -12.5701  147.3030 C   0  0  0  0  0  0  0  0  0  0  0  0
  -31.0875  -10.9671  147.5014 F   0  0  0  0  0  0  0  0  0  0  0  0
  -29.9105  -11.9537  148.9460 F   0  0  0  0  0  0  0  0  0  0  0  0
  -30.9249  -13.1911  147.5888 F   0  0  0  0  0  0  0  0  0  0  0  0
  -24.1953  -17.0974  150.5006 C   0  0  0  0  0  0  0  0  0  0  0  0
  1  2  1  0
  2  3  1  0
  3  4  1  0
  4  5  1  0
  5  6  1  0
  8  9  1  0
 13 14  1  0
 14 16  1  0
  1 17  1  0
 17 18  1  0
  3 19  1  0
 18 19  1  0
 11 20  1  0
 20 21  1  0
  2 22  1  0
  4 23  1  0
 22 24  1  0
 23 24  1  0
 14 25  2  0
 20 26  2  0
 18 27  1  0
 29 30  1  0
 30 32  1  0
 30 33  1  0
 30 34  1  0
 27 35  1  0
  6  7  2  0
  7  8  1  0
  8 28  2  0
 28 29  1  0
 29 31  2  0
 31  6  1  0
  9 10  2  0
 10 11  1  0
 11 12  2  0
 12 13  1  0
 13 15  2  0
 15  9  1  0
M  END

$$$$
No_137-/dssg/home/sw_qyf/PocketFlow/Model-Generation-Results/5HT2A_7WC7_rec_A_10.pdb/2024-01-01-03-54-21/
     RDKit          3D

 25 26  0  0  0  0  0  0  0  0999 V2000
  -24.1553  -17.8465  145.7021 C   0  0  0  0  0  0  0  0  0  0  0  0
  -23.9795  -18.4462  146.7426 C   0  0  0  0  0  0  0  0  0  0  0  0
  -25.1196  -16.8106  145.6408 C   0  0  0  0  0  0  0  0  0  0  0  0
  -25.9236  -16.5070  146.7422 C   0  0  0  0  0  0  0  0  0  0  0  0
  -25.6627  -17.1841  147.9274 C   0  0  0  0  0  0  0  0  0  0  0  0
  -24.6813  -18.1540  148.0079 C   0  0  0  0  0  0  0  0  0  0  0  0
  -26.9780  -15.4746  146.6756 C   0  0  0  0  0  0  0  0  0  0  0  0
  -26.9254  -14.3820  146.6158 C   0  0  0  0  0  0  0  0  0  0  0  0
  -28.0625  -13.4534  146.5460 C   0  0  0  0  0  0  0  0  0  0  0  0
  -29.3025  -13.9078  146.9684 C   0  0  0  0  0  0  0  0  0  0  0  0
  -29.3956  -15.2925  147.1792 C   0  0  0  0  0  0  0  0  0  0  0  0
  -28.3178  -16.1242  147.0800 C   0  0  0  0  0  0  0  0  0  0  0  0
  -28.0911  -11.9390  146.5167 C   0  0  0  0  0  0  0  0  0  0  0  0
  -29.2564  -11.3669  145.9496 C   0  0  0  0  0  0  0  0  0  0  0  0
  -30.2669  -11.3585  146.8643 F   0  0  0  0  0  0  0  0  0  0  0  0
  -29.6649  -11.8136  144.8084 F   0  0  0  0  0  0  0  0  0  0  0  0
  -24.8522  -15.6832  144.8828 O   0  0  0  0  0  0  0  0  0  0  0  0
  -23.7241  -14.9052  144.8975 C   0  0  0  0  0  0  0  0  0  0  0  0
  -23.7660  -13.7609  144.0375 C   0  0  0  0  0  0  0  0  0  0  0  0
  -22.5672  -13.3631  143.7903 O   0  0  0  0  0  0  0  0  0  0  0  0
  -29.0147  -10.0764  145.5543 F   0  0  0  0  0  0  0  0  0  0  0  0
  -26.3757  -16.9050  149.0316 O   0  0  0  0  0  0  0  0  0  0  0  0
  -24.7705  -13.2723  143.7391 O   0  0  0  0  0  0  0  0  0  0  0  0
  -23.4451  -18.0448  144.6069 O   0  0  0  0  0  0  0  0  0  0  0  0
  -26.9062  -11.3289  146.6904 O   0  0  0  0  0  0  0  0  0  0  0  0
  1  3  1  0
  3  4  1  0
  4  5  1  0
  2  6  1  0
  5  6  1  0
  4  7  1  0
  9 13  1  0
 13 14  1  0
 14 15  1  0
 14 16  1  0
  3 17  1  0
 17 18  1  0
 18 19  1  0
 19 20  1  0
 14 21  1  0
  5 22  2  0
 19 23  2  0
  1 24  1  0
 13 25  2  0
  1  2  1  0
  7  8  2  0
  8  9  1  0
  9 10  2  0
 10 11  1  0
 11 12  2  0
 12  7  1  0
M  END

$$$$
No_138-/dssg/home/sw_qyf/PocketFlow/Model-Generation-Results/5HT2A_7WC7_rec_A_10.pdb/2024-01-01-03-54-21/
     RDKit          3D

 12 13  0  0  0  0  0  0  0  0999 V2000
  -24.1553  -17.8465  145.7021 C   0  0  0  0  0  0  0  0  0  0  0  0
  -24.2856  -16.6364  145.3494 C   0  0  0  0  0  0  0  0  0  0  0  0
  -25.0033  -15.6772  146.0737 C   0  0  0  0  0  0  0  0  0  0  0  0
  -25.1197  -14.2835  145.7299 C   0  0  0  0  0  0  0  0  0  0  0  0
  -25.8358  -13.3153  146.4318 C   0  0  0  0  0  0  0  0  0  0  0  0
  -24.7888  -18.3277  146.8665 C   0  0  0  0  0  0  0  0  0  0  0  0
  -25.5122  -17.4898  147.6544 C   0  0  0  0  0  0  0  0  0  0  0  0
  -25.6629  -16.1113  147.2980 C   0  0  0  0  0  0  0  0  0  0  0  0
  -25.7516  -11.9698  146.1143 C   0  0  0  0  0  0  0  0  0  0  0  0
  -24.9390  -11.5123  145.0695 C   0  0  0  0  0  0  0  0  0  0  0  0
  -24.2364  -13.7834  144.6404 C   0  0  0  0  0  0  0  0  0  0  0  0
  -24.0902  -12.4021  144.4892 N   0  0  0  0  0  0  0  0  0  0  0  0
  3  4  1  0
  1  2  2  0
  2  3  1  0
  3  8  2  0
  8  7  1  0
  7  6  2  0
  6  1  1  0
  4  5  2  0
  5  9  1  0
  9 10  2  0
 10 12  1  0
 12 11  2  0
 11  4  1  0
M  END

$$$$
No_139-/dssg/home/sw_qyf/PocketFlow/Model-Generation-Results/5HT2A_7WC7_rec_A_10.pdb/2024-01-01-03-54-21/
     RDKit          3D

 35 38  0  0  0  0  0  0  0  0999 V2000
  -24.1553  -17.8465  145.7021 C   0  0  0  0  0  0  0  0  0  0  0  0
  -24.6364  -17.2931  146.7091 C   0  0  0  0  0  0  0  0  0  0  0  0
  -24.0780  -17.2921  147.9389 C   0  0  0  0  0  0  0  0  0  0  0  0
  -24.6761  -16.7363  149.1478 C   0  0  0  0  0  0  0  0  0  0  0  0
  -25.9985  -16.2638  148.9932 C   0  0  0  0  0  0  0  0  0  0  0  0
  -26.6270  -16.3412  147.7728 C   0  0  0  0  0  0  0  0  0  0  0  0
  -27.9899  -15.9394  147.5329 C   0  0  0  0  0  0  0  0  0  0  0  0
  -26.0201  -16.8885  146.6761 C   0  0  0  0  0  0  0  0  0  0  0  0
  -28.2880  -14.9175  146.6535 C   0  0  0  0  0  0  0  0  0  0  0  0
  -27.3470  -14.2553  145.8523 C   0  0  0  0  0  0  0  0  0  0  0  0
  -27.5214  -12.9391  145.4160 C   0  0  0  0  0  0  0  0  0  0  0  0
  -26.6831  -12.3164  144.4949 C   0  0  0  0  0  0  0  0  0  0  0  0
  -25.7719  -13.2493  144.0100 C   0  0  0  0  0  0  0  0  0  0  0  0
  -25.3628  -14.1789  144.6221 C   0  0  0  0  0  0  0  0  0  0  0  0
  -26.1754  -14.8950  145.4308 C   0  0  0  0  0  0  0  0  0  0  0  0
  -28.7662  -12.1667  145.9536 C   0  0  0  0  0  0  0  0  0  0  0  0
  -29.3707  -12.3934  147.1427 C   0  0  0  0  0  0  0  0  0  0  0  0
  -29.3618  -13.9080  147.4869 C   0  0  0  0  0  0  0  0  0  0  0  0
  -29.2355  -10.9983  145.1645 C   0  0  0  0  0  0  0  0  0  0  0  0
  -29.9153  -11.0737  144.3100 F   0  0  0  0  0  0  0  0  0  0  0  0
  -28.0589  -10.2214  144.7820 F   0  0  0  0  0  0  0  0  0  0  0  0
  -24.1790  -17.0931  144.6266 F   0  0  0  0  0  0  0  0  0  0  0  0
  -22.7333  -18.0765  145.8530 F   0  0  0  0  0  0  0  0  0  0  0  0
  -24.5711  -19.0875  145.3952 F   0  0  0  0  0  0  0  0  0  0  0  0
  -30.1519  -11.6721  147.7711 O   0  0  0  0  0  0  0  0  0  0  0  0
  -28.8358  -17.0052  147.4331 F   0  0  0  0  0  0  0  0  0  0  0  0
  -29.8644  -10.0883  146.0703 F   0  0  0  0  0  0  0  0  0  0  0  0
  -30.7240  -12.2632  148.9718 C   0  0  0  0  0  0  0  0  0  0  0  0
  -32.0256  -11.7711  149.3609 C   0  0  0  0  0  0  0  0  0  0  0  0
  -32.7066  -11.0194  148.7619 C   0  0  0  0  0  0  0  0  0  0  0  0
  -34.1231  -10.7727  149.1913 C   0  0  0  0  0  0  0  0  0  0  0  0
  -34.1801  -11.3425  150.4286 C   0  0  0  0  0  0  0  0  0  0  0  0
  -32.7907  -12.2115  150.6000 C   0  0  0  0  0  0  0  0  0  0  0  0
  -32.4324  -13.0210  151.6486 C   0  0  0  0  0  0  0  0  0  0  0  0
  -32.6322  -14.3771  151.3338 C   0  0  0  0  0  0  0  0  0  0  0  0
  1  2  1  0
  6  7  1  0
 16 19  1  0
 19 20  1  0
 19 21  1  0
  1 22  1  0
  1 23  1  0
  1 24  1  0
 17 25  1  0
  7 26  1  0
 19 27  1  0
 25 28  1  0
 28 29  2  3
 29 30  1  0
 30 31  2  0
 31 32  1  0
 29 33  1  0
 32 33  2  0
 33 34  1  0
 34 35  1  0
  7  9  1  0
  2  3  2  0
  3  4  1  0
  4  5  2  0
  5  6  1  0
  6  8  2  0
  8  2  1  0
 11 12  2  0
 12 13  1  0
 13 14  2  0
 14 15  1  0
 15 10  2  0
  9 10  1  0
 10 11  1  0
 11 16  1  0
 16 17  2  0
 17 18  1  0
 18  9  2  0
M  END

$$$$
No_140-/dssg/home/sw_qyf/PocketFlow/Model-Generation-Results/5HT2A_7WC7_rec_A_10.pdb/2024-01-01-03-54-21/
     RDKit          3D

 35 36  0  0  0  0  0  0  0  0999 V2000
  -23.1746  -16.6014  144.8668 C   0  0  0  0  0  0  0  0  0  0  0  0
  -23.7011  -17.0158  145.9774 C   0  0  0  0  0  0  0  0  0  0  0  0
  -24.2134  -16.0722  146.8877 C   0  0  0  0  0  0  0  0  0  0  0  0
  -24.7882  -16.3410  148.2078 C   0  0  0  0  0  0  0  0  0  0  0  0
  -23.5800  -15.2232  144.4665 C   0  0  0  0  0  0  0  0  0  0  0  0
  -24.2035  -14.2633  145.2990 C   0  0  0  0  0  0  0  0  0  0  0  0
  -24.3140  -14.6270  146.7008 C   0  0  0  0  0  0  0  0  0  0  0  0
  -24.0089  -16.5223  149.1724 F   0  0  0  0  0  0  0  0  0  0  0  0
  -25.7416  -15.4253  148.6348 F   0  0  0  0  0  0  0  0  0  0  0  0
  -23.5094  -18.3019  146.4249 N   0  0  0  0  0  0  0  0  0  0  0  0
  -24.2405  -12.9111  144.8949 C   0  0  0  0  0  0  0  0  0  0  0  0
  -24.5873  -11.9651  145.9518 C   0  0  0  0  0  0  0  0  0  0  0  0
  -25.6512  -10.9856  145.5121 C   0  0  0  0  0  0  0  0  0  0  0  0
  -26.7391  -11.5132  144.7664 C   0  0  0  0  0  0  0  0  0  0  0  0
  -27.4809  -10.5030  144.0952 C   0  0  0  0  0  0  0  0  0  0  0  0
  -28.3497  -10.4468  143.5780 C   0  0  0  0  0  0  0  0  0  0  0  0
  -29.0518   -9.2595  142.9929 C   0  0  0  0  0  0  0  0  0  0  0  0
  -29.5105   -9.2223  141.7498 C   0  0  0  0  0  0  0  0  0  0  0  0
  -30.2481   -8.0282  141.3575 C   0  0  0  0  0  0  0  0  0  0  0  0
  -30.5629   -7.2657  142.4560 N   0  0  0  0  0  0  0  0  0  0  0  0
  -29.0238  -10.1316  140.8275 C   0  0  0  0  0  0  0  0  0  0  0  0
  -28.2994  -11.3392  141.2643 C   0  0  0  0  0  0  0  0  0  0  0  0
  -27.8955  -12.3126  140.3053 C   0  0  0  0  0  0  0  0  0  0  0  0
  -27.9775  -11.4796  142.6482 C   0  0  0  0  0  0  0  0  0  0  0  0
  -27.4469  -11.8952  138.9976 C   0  0  0  0  0  0  0  0  0  0  0  0
  -30.4691   -7.7660  140.2389 O   0  0  0  0  0  0  0  0  0  0  0  0
  -28.1636  -11.4939  137.9521 C   0  0  0  0  0  0  0  0  0  0  0  0
  -25.4690  -17.5825  148.0281 F   0  0  0  0  0  0  0  0  0  0  0  0
  -25.9470  -12.0325  138.9251 C   0  0  0  0  0  0  0  0  0  0  0  0
  -26.9800  -12.8887  143.1431 Br  0  0  0  0  0  0  0  0  0  0  0  0
  -27.3854  -12.4691  145.8077 O   0  0  0  0  0  0  0  0  0  0  0  0
  -28.5977  -12.2198  146.1637 C   0  0  0  0  0  0  0  0  0  0  0  0
  -29.2395  -13.1661  147.1297 C   0  0  0  0  0  0  0  0  0  0  0  0
  -30.0931  -12.8363  148.1133 C   0  0  0  0  0  0  0  0  0  0  0  0
  -30.4365  -11.4591  148.2219 C   0  0  0  0  0  0  0  0  0  0  0  0
  3  4  1  0
  4  8  1  0
  4  9  1  0
  2 10  1  0
  6 11  1  0
 11 12  1  0
 12 13  1  0
 13 14  1  0
 14 15  2  3
 15 16  1  0
 16 17  1  0
 17 18  1  0
 18 19  1  0
 19 20  1  0
 18 21  1  0
 21 22  1  0
 22 23  1  0
 16 24  1  0
 22 24  1  0
 23 25  1  0
 19 26  2  0
 25 27  2  0
  4 28  1  0
 25 29  1  0
 24 30  1  0
 14 31  1  0
 31 32  1  0
 32 33  1  0
 33 34  2  3
 34 35  1  0
  1  2  2  0
  2  3  1  0
  3  7  2  0
  7  6  1  0
  6  5  2  0
  5  1  1  0
M  END

$$$$
No_141-/dssg/home/sw_qyf/PocketFlow/Model-Generation-Results/5HT2A_7WC7_rec_A_10.pdb/2024-01-01-03-54-21/
     RDKit          3D

 35 39  0  0  0  0  0  0  0  0999 V2000
  -24.1553  -17.8465  145.7021 C   0  0  0  0  0  0  0  0  0  0  0  0
  -23.9795  -18.4462  146.7426 C   0  0  0  0  0  0  0  0  0  0  0  0
  -25.1196  -16.8106  145.6409 C   0  0  0  0  0  0  0  0  0  0  0  0
  -25.9236  -16.5070  146.7422 C   0  0  0  0  0  0  0  0  0  0  0  0
  -25.6627  -17.1841  147.9274 C   0  0  0  0  0  0  0  0  0  0  0  0
  -24.6813  -18.1540  148.0079 C   0  0  0  0  0  0  0  0  0  0  0  0
  -26.9717  -15.4553  146.6645 C   0  0  0  0  0  0  0  0  0  0  0  0
  -26.7557  -14.3988  145.8960 C   0  0  0  0  0  0  0  0  0  0  0  0
  -27.7005  -13.3322  145.7682 C   0  0  0  0  0  0  0  0  0  0  0  0
  -27.4589  -12.1000  145.0446 C   0  0  0  0  0  0  0  0  0  0  0  0
  -26.5128  -12.1586  144.1079 C   0  0  0  0  0  0  0  0  0  0  0  0
  -25.6918  -13.3350  143.9612 C   0  0  0  0  0  0  0  0  0  0  0  0
  -25.8942  -14.4312  144.8164 C   0  0  0  0  0  0  0  0  0  0  0  0
  -25.1365  -15.6559  144.6090 C   0  0  0  0  0  0  0  0  0  0  0  0
  -28.4318  -11.0063  145.1765 C   0  0  0  0  0  0  0  0  0  0  0  0
  -28.3449   -9.8743  144.3315 C   0  0  0  0  0  0  0  0  0  0  0  0
  -29.5019   -9.3073  143.7472 C   0  0  0  0  0  0  0  0  0  0  0  0
  -29.4718   -8.4748  142.6547 C   0  0  0  0  0  0  0  0  0  0  0  0
  -29.7696   -7.1151  142.8576 C   0  0  0  0  0  0  0  0  0  0  0  0
  -29.7367   -6.1535  141.7642 C   0  0  0  0  0  0  0  0  0  0  0  0
  -29.3606   -6.7070  140.4903 C   0  0  0  0  0  0  0  0  0  0  0  0
  -29.0879   -8.0590  140.3154 C   0  0  0  0  0  0  0  0  0  0  0  0
  -29.1305   -8.9468  141.3975 C   0  0  0  0  0  0  0  0  0  0  0  0
  -28.7106   -8.5308  138.9989 C   0  0  0  0  0  0  0  0  0  0  0  0
  -27.7146   -8.9378  138.6452 C   0  0  0  0  0  0  0  0  0  0  0  0
  -29.6262   -8.0324  137.9536 C   0  0  0  0  0  0  0  0  0  0  0  0
  -30.6074  -10.1288  143.9113 O   0  0  0  0  0  0  0  0  0  0  0  0
  -28.8101  -13.2439  146.8421 C   0  0  0  0  0  0  0  0  0  0  0  0
  -29.3599  -14.2987  147.4101 C   0  0  0  0  0  0  0  0  0  0  0  0
  -28.1766  -15.3813  147.5306 C   0  0  0  0  0  0  0  0  0  0  0  0
  -24.7842  -13.4658  143.0560 O   0  0  0  0  0  0  0  0  0  0  0  0
  -23.5482  -18.0895  144.5878 O   0  0  0  0  0  0  0  0  0  0  0  0
  -29.4535   -8.6318  136.7983 N   0  0  0  0  0  0  0  0  0  0  0  0
  -26.8494   -9.6679  139.7826 C   0  0  0  0  0  0  0  0  0  0  0  0
  -26.8407  -11.1342  139.6731 C   0  0  0  0  0  0  0  0  0  0  0  0
  4  7  1  0
  9 10  1  0
 11 12  1  0
  8 13  1  0
 12 13  1  0
  3 14  1  0
 13 14  1  0
 10 15  1  0
 15 16  1  0
 16 17  2  3
 17 18  1  0
 22 24  1  0
 24 25  1  0
 24 26  1  0
 17 27  1  0
 12 31  2  0
  1 32  1  0
 26 33  1  0
 25 34  2  3
 34 35  1  0
 11 10  1  0
 18 19  2  0
 19 20  1  0
 20 21  2  0
 21 22  1  0
 22 23  2  0
 23 18  1  0
  7  8  2  0
  8  9  1  0
  9 28  2  0
 28 29  1  0
 29 30  2  0
 30  7  1  0
  1  2  2  0
  2  6  1  0
  6  5  2  0
  5  4  1  0
  4  3  2  0
  3  1  1  0
M  END

$$$$
No_142-/dssg/home/sw_qyf/PocketFlow/Model-Generation-Results/5HT2A_7WC7_rec_A_10.pdb/2024-01-01-03-54-21/
     RDKit          3D

 15 14  0  0  0  0  0  0  0  0999 V2000
  -23.8042  -18.1535  145.4053 O   0  0  0  0  0  0  0  0  0  0  0  0
  -23.9974  -18.3151  146.4113 C   0  0  0  0  0  0  0  0  0  0  0  0
  -24.7032  -17.3763  147.2783 C   0  0  0  0  0  0  0  0  0  0  0  0
  -25.3564  -16.3655  146.7417 C   0  0  0  0  0  0  0  0  0  0  0  0
  -24.6620  -15.5458  145.8513 C   0  0  0  0  0  0  0  0  0  0  0  0
  -24.6390  -14.5506  145.6562 C   0  0  0  0  0  0  0  0  0  0  0  0
  -25.3908  -13.5128  146.5345 C   0  0  0  0  0  0  0  0  0  0  0  0
  -26.0863  -12.7216  145.9605 C   0  0  0  0  0  0  0  0  0  0  0  0
  -26.0066  -12.2031  144.7318 C   0  0  0  0  0  0  0  0  0  0  0  0
  -26.9358  -11.1746  144.3034 C   0  0  0  0  0  0  0  0  0  0  0  0
  -28.3472  -11.4339  144.4437 C   0  0  0  0  0  0  0  0  0  0  0  0
  -29.3384  -10.5156  144.0158 C   0  0  0  0  0  0  0  0  0  0  0  0
  -29.0494   -9.7600  142.8969 C   0  0  0  0  0  0  0  0  0  0  0  0
  -29.7463   -8.5630  142.6668 C   0  0  0  0  0  0  0  0  0  0  0  0
  -30.9847   -8.3379  143.2345 C   0  0  0  0  0  0  0  0  0  0  0  0
  1  2  2  0
  2  3  1  0
  3  4  1  0
  4  5  1  0
  5  6  1  0
  6  7  1  0
  7  8  2  3
  8  9  1  0
  9 10  1  0
 10 11  1  0
 11 12  1  0
 12 13  1  0
 13 14  2  3
 14 15  1  0
M  END

$$$$
No_143-/dssg/home/sw_qyf/PocketFlow/Model-Generation-Results/5HT2A_7WC7_rec_A_10.pdb/2024-01-01-03-54-21/
     RDKit          3D

  9  8  0  0  0  0  0  0  0  0999 V2000
  -23.1746  -16.6014  144.8668 C   0  0  0  0  0  0  0  0  0  0  0  0
  -23.7011  -17.0158  145.9774 C   0  0  0  0  0  0  0  0  0  0  0  0
  -23.7336  -18.2775  146.3737 C   0  0  0  0  0  0  0  0  0  0  0  0
  -23.5409  -19.2836  145.4567 C   0  0  0  0  0  0  0  0  0  0  0  0
  -23.2303  -15.1836  144.5024 C   0  0  0  0  0  0  0  0  0  0  0  0
  -23.9488  -14.2204  145.2760 C   0  0  0  0  0  0  0  0  0  0  0  0
  -24.5620  -14.6805  146.4785 C   0  0  0  0  0  0  0  0  0  0  0  0
  -24.4148  -16.0451  146.8638 C   0  0  0  0  0  0  0  0  0  0  0  0
  -25.1123  -13.8272  147.3474 F   0  0  0  0  0  0  0  0  0  0  0  0
  1  2  1  0
  2  3  2  3
  3  4  1  0
  1  5  1  0
  5  6  2  3
  6  7  1  0
  2  8  1  0
  7  9  1  0
M  END

$$$$
No_144-/dssg/home/sw_qyf/PocketFlow/Model-Generation-Results/5HT2A_7WC7_rec_A_10.pdb/2024-01-01-03-54-21/
     RDKit          3D

 35 38  0  0  0  0  0  0  0  0999 V2000
  -24.1553  -17.8465  145.7021 C   0  0  0  0  0  0  0  0  0  0  0  0
  -24.6364  -17.2931  146.7091 C   0  0  0  0  0  0  0  0  0  0  0  0
  -25.8131  -16.4503  146.6208 C   0  0  0  0  0  0  0  0  0  0  0  0
  -26.8109  -16.4921  147.5662 C   0  0  0  0  0  0  0  0  0  0  0  0
  -28.0733  -15.8263  147.3782 C   0  0  0  0  0  0  0  0  0  0  0  0
  -28.1263  -14.8024  146.4257 C   0  0  0  0  0  0  0  0  0  0  0  0
  -27.0799  -14.6754  145.5300 C   0  0  0  0  0  0  0  0  0  0  0  0
  -25.9074  -15.5151  145.6452 C   0  0  0  0  0  0  0  0  0  0  0  0
  -23.9770  -17.4761  148.0429 C   0  0  0  0  0  0  0  0  0  0  0  0
  -24.4269  -16.9769  149.1703 N   0  0  0  0  0  0  0  0  0  0  0  0
  -23.7459  -17.1829  150.3346 C   0  0  0  0  0  0  0  0  0  0  0  0
  -22.9825  -18.1869  148.0929 O   0  0  0  0  0  0  0  0  0  0  0  0
  -27.1955  -13.7270  144.4077 C   0  0  0  0  0  0  0  0  0  0  0  0
  -26.6067  -14.0188  143.1998 C   0  0  0  0  0  0  0  0  0  0  0  0
  -26.8616  -13.1607  142.0815 C   0  0  0  0  0  0  0  0  0  0  0  0
  -27.5282  -11.9460  142.1734 C   0  0  0  0  0  0  0  0  0  0  0  0
  -28.0458  -11.3115  141.0767 C   0  0  0  0  0  0  0  0  0  0  0  0
  -28.7481  -10.0603  141.1370 C   0  0  0  0  0  0  0  0  0  0  0  0
  -29.1529   -9.6039  142.4758 C   0  0  0  0  0  0  0  0  0  0  0  0
  -28.6194  -10.2731  143.6020 C   0  0  0  0  0  0  0  0  0  0  0  0
  -27.8616  -11.4280  143.5288 C   0  0  0  0  0  0  0  0  0  0  0  0
  -27.7668  -12.4220  144.6402 C   0  0  0  0  0  0  0  0  0  0  0  0
  -27.7244  -11.7412  139.7533 C   0  0  0  0  0  0  0  0  0  0  0  0
  -27.2807  -10.8747  138.7149 C   0  0  0  0  0  0  0  0  0  0  0  0
  -29.8935   -8.3621  142.5313 C   0  0  0  0  0  0  0  0  0  0  0  0
  -31.3268   -8.4713  142.3817 C   0  0  0  0  0  0  0  0  0  0  0  0
  -29.3319   -7.0214  142.6397 C   0  0  0  0  0  0  0  0  0  0  0  0
  -32.0315   -8.0404  143.0701 O   0  0  0  0  0  0  0  0  0  0  0  0
  -31.7916   -8.7056  141.1430 O   0  0  0  0  0  0  0  0  0  0  0  0
  -26.6307  -13.6553  140.9294 O   0  0  0  0  0  0  0  0  0  0  0  0
  -26.5369  -12.6721  139.8967 C   0  0  0  0  0  0  0  0  0  0  0  0
  -29.0913  -15.8716  148.4547 C   0  0  0  0  0  0  0  0  0  0  0  0
  -29.1789  -16.8061  149.3392 N   0  0  0  0  0  0  0  0  0  0  0  0
  -30.1129  -14.8893  148.3971 N   0  0  0  0  0  0  0  0  0  0  0  0
  -30.2282  -13.8705  147.6265 C   0  0  0  0  0  0  0  0  0  0  0  0
  1  2  2  0
  2  3  1  0
  2  9  1  0
  9 10  1  0
 10 11  1  0
  9 12  2  0
  7 13  1  0
 17 23  1  0
 23 24  1  0
 19 25  1  0
 25 26  1  0
 25 27  1  0
 26 28  2  0
 26 29  1  0
 15 30  1  0
 23 31  1  0
 30 31  1  0
  5 32  1  0
 32 33  1  0
 32 34  2  3
 34 35  1  0
  3  4  2  0
  4  5  1  0
  5  6  2  0
  6  7  1  0
  7  8  2  0
  8  3  1  0
 13 14  2  0
 14 15  1  0
 15 16  2  0
 21 22  2  0
 22 13  1  0
 16 17  1  0
 17 18  2  0
 18 19  1  0
 19 20  2  0
 20 21  1  0
 21 16  1  0
M  END

$$$$
No_145-/dssg/home/sw_qyf/PocketFlow/Model-Generation-Results/5HT2A_7WC7_rec_A_10.pdb/2024-01-01-03-54-21/
     RDKit          3D

 35 37  0  0  0  0  0  0  0  0999 V2000
  -24.1553  -17.8465  145.7021 C   0  0  0  0  0  0  0  0  0  0  0  0
  -23.9795  -18.4462  146.7426 C   0  0  0  0  0  0  0  0  0  0  0  0
  -24.3577  -16.4380  145.7329 C   0  0  0  0  0  0  0  0  0  0  0  0
  -24.4745  -15.6012  144.5587 C   0  0  0  0  0  0  0  0  0  0  0  0
  -24.5845  -14.1656  144.8311 C   0  0  0  0  0  0  0  0  0  0  0  0
  -24.6908  -13.6330  146.1427 C   0  0  0  0  0  0  0  0  0  0  0  0
  -24.6854  -14.5896  147.2980 C   0  0  0  0  0  0  0  0  0  0  0  0
  -24.5188  -15.8933  147.1052 C   0  0  0  0  0  0  0  0  0  0  0  0
  -24.0589  -18.0012  148.0781 C   0  0  0  0  0  0  0  0  0  0  0  0
  -24.3315  -16.7118  148.2982 C   0  0  0  0  0  0  0  0  0  0  0  0
  -24.8468  -12.2031  146.3121 C   0  0  0  0  0  0  0  0  0  0  0  0
  -25.0321  -11.3581  145.1967 C   0  0  0  0  0  0  0  0  0  0  0  0
  -26.4556  -10.7867  145.0349 C   0  0  0  0  0  0  0  0  0  0  0  0
  -27.5195  -11.3483  145.6809 C   0  0  0  0  0  0  0  0  0  0  0  0
  -28.8482  -11.0151  145.2892 C   0  0  0  0  0  0  0  0  0  0  0  0
  -29.0699  -10.1056  144.2589 C   0  0  0  0  0  0  0  0  0  0  0  0
  -30.3385   -9.6746  143.8625 C   0  0  0  0  0  0  0  0  0  0  0  0
  -30.4971   -8.5787  143.0258 C   0  0  0  0  0  0  0  0  0  0  0  0
  -30.6376   -8.7777  141.7110 C   0  0  0  0  0  0  0  0  0  0  0  0
  -29.4300   -8.5154  140.8871 C   0  0  0  0  0  0  0  0  0  0  0  0
  -28.4415   -9.4106  140.6563 C   0  0  0  0  0  0  0  0  0  0  0  0
  -28.0511  -10.3570  141.6158 C   0  0  0  0  0  0  0  0  0  0  0  0
  -27.1723  -11.3172  141.2212 C   0  0  0  0  0  0  0  0  0  0  0  0
  -26.8909  -11.5310  139.9283 C   0  0  0  0  0  0  0  0  0  0  0  0
  -27.3884  -10.6488  138.9530 C   0  0  0  0  0  0  0  0  0  0  0  0
  -28.1152   -9.6159  139.3052 C   0  0  0  0  0  0  0  0  0  0  0  0
  -26.1545  -12.6298  139.5212 O   0  0  0  0  0  0  0  0  0  0  0  0
  -29.3030   -7.1032  140.3673 C   0  0  0  0  0  0  0  0  0  0  0  0
  -29.9278  -11.5998  146.0088 C   0  0  0  0  0  0  0  0  0  0  0  0
  -29.8277  -11.1606  147.5205 C   0  0  0  0  0  0  0  0  0  0  0  0
  -30.0921  -12.4307  148.3877 C   0  0  0  0  0  0  0  0  0  0  0  0
  -30.8588  -13.4696  147.8597 C   0  0  0  0  0  0  0  0  0  0  0  0
  -29.9562  -14.2938  147.0065 C   0  0  0  0  0  0  0  0  0  0  0  0
  -28.8886  -14.8559  147.8037 C   0  0  0  0  0  0  0  0  0  0  0  0
  -29.0508  -15.8957  148.6531 C   0  0  0  0  0  0  0  0  0  0  0  0
  3  4  1  0
  4  5  1  0
  5  6  1  0
  6  7  1  0
  7  8  1  0
  6 11  1  0
 11 12  1  0
 12 13  1  0
 13 14  1  0
 14 15  2  3
 15 16  1  0
 16 17  2  3
 17 18  1  0
 18 19  1  0
 19 20  1  0
 20 21  1  0
 24 27  1  0
 20 28  1  0
 15 29  1  0
 29 30  1  0
 30 31  1  0
 31 32  1  0
 32 33  1  0
 33 34  1  0
 34 35  2  0
  1  2  2  0
  2  9  1  0
  9 10  2  0
 10  8  1  0
  8  3  2  0
  3  1  1  0
 21 22  2  0
 22 23  1  0
 23 24  2  0
 24 25  1  0
 25 26  2  0
 26 21  1  0
M  END

$$$$
No_146-/dssg/home/sw_qyf/PocketFlow/Model-Generation-Results/5HT2A_7WC7_rec_A_10.pdb/2024-01-01-03-54-21/
     RDKit          3D

 11 11  0  0  0  0  0  0  0  0999 V2000
  -23.1746  -16.6014  144.8668 C   0  0  0  0  0  0  0  0  0  0  0  0
  -23.7011  -17.0158  145.9774 C   0  0  0  0  0  0  0  0  0  0  0  0
  -24.2134  -16.0722  146.8877 C   0  0  0  0  0  0  0  0  0  0  0  0
  -24.5407  -14.7704  146.3553 C   0  0  0  0  0  0  0  0  0  0  0  0
  -24.1477  -14.4045  145.0969 C   0  0  0  0  0  0  0  0  0  0  0  0
  -23.4211  -15.3299  144.3881 C   0  0  0  0  0  0  0  0  0  0  0  0
  -23.4890  -18.3920  146.5737 C   0  0  0  0  0  0  0  0  0  0  0  0
  -24.1625  -19.1648  146.4983 O   0  0  0  0  0  0  0  0  0  0  0  0
  -22.5378  -18.3905  147.5394 O   0  0  0  0  0  0  0  0  0  0  0  0
  -24.3829  -12.8140  144.5858 Cl  0  0  0  0  0  0  0  0  0  0  0  0
  -24.8436  -16.5068  148.4549 Cl  0  0  0  0  0  0  0  0  0  0  0  0
  2  7  1  0
  7  8  2  0
  7  9  1  0
  5 10  1  0
  3 11  1  0
  1  2  2  0
  2  3  1  0
  3  4  2  0
  4  5  1  0
  5  6  2  0
  6  1  1  0
M  END

$$$$
No_147-/dssg/home/sw_qyf/PocketFlow/Model-Generation-Results/5HT2A_7WC7_rec_A_10.pdb/2024-01-01-03-54-21/
     RDKit          3D

 30 33  0  0  0  0  0  0  0  0999 V2000
  -24.1553  -17.8465  145.7021 C   0  0  0  0  0  0  0  0  0  0  0  0
  -24.2856  -16.6364  145.3494 C   0  0  0  0  0  0  0  0  0  0  0  0
  -24.7211  -15.5955  146.2115 C   0  0  0  0  0  0  0  0  0  0  0  0
  -24.8539  -14.2010  145.8739 C   0  0  0  0  0  0  0  0  0  0  0  0
  -24.1440  -13.8321  144.7074 C   0  0  0  0  0  0  0  0  0  0  0  0
  -23.5078  -14.7946  143.9923 N   0  0  0  0  0  0  0  0  0  0  0  0
  -23.5385  -16.0602  144.3598 C   0  0  0  0  0  0  0  0  0  0  0  0
  -23.5433  -18.3899  146.7414 C   0  0  0  0  0  0  0  0  0  0  0  0
  -23.0387  -17.4158  147.5909 N   0  0  0  0  0  0  0  0  0  0  0  0
  -23.8085  -16.1965  147.6354 C   0  0  0  0  0  0  0  0  0  0  0  0
  -22.9626  -12.5283  145.2470 Cl  0  0  0  0  0  0  0  0  0  0  0  0
  -26.3195  -13.9367  145.9962 C   0  0  0  0  0  0  0  0  0  0  0  0
  -26.7244  -12.5807  145.9789 C   0  0  0  0  0  0  0  0  0  0  0  0
  -28.0882  -12.1480  146.0056 C   0  0  0  0  0  0  0  0  0  0  0  0
  -28.5284  -10.9331  145.5085 C   0  0  0  0  0  0  0  0  0  0  0  0
  -29.9561  -10.5962  145.4638 C   0  0  0  0  0  0  0  0  0  0  0  0
  -30.2144   -9.4813  144.8891 N   0  0  0  0  0  0  0  0  0  0  0  0
  -29.6094   -9.0377  143.7899 C   0  0  0  0  0  0  0  0  0  0  0  0
  -30.1879   -7.9099  143.1172 C   0  0  0  0  0  0  0  0  0  0  0  0
  -29.6920   -7.4704  141.9005 C   0  0  0  0  0  0  0  0  0  0  0  0
  -29.3436   -8.5079  140.9691 C   0  0  0  0  0  0  0  0  0  0  0  0
  -28.6246   -9.6172  141.4235 C   0  0  0  0  0  0  0  0  0  0  0  0
  -28.0347  -10.5934  140.6606 C   0  0  0  0  0  0  0  0  0  0  0  0
  -27.8817  -11.9249  141.1338 C   0  0  0  0  0  0  0  0  0  0  0  0
  -28.9496   -9.9766  142.9409 C   0  0  0  0  0  0  0  0  0  0  0  0
  -27.2072  -12.8453  140.2484 C   0  0  0  0  0  0  0  0  0  0  0  0
  -26.7052  -12.3600  139.0507 C   0  0  0  0  0  0  0  0  0  0  0  0
  -27.5704  -10.2923  139.4079 C   0  0  0  0  0  0  0  0  0  0  0  0
  -26.9426  -11.1669  138.6608 N   0  0  0  0  0  0  0  0  0  0  0  0
  -27.7013   -9.0954  138.9129 O   0  0  0  0  0  0  0  0  0  0  0  0
  3  4  1  0
  4  5  1  0
  5  6  1  0
  2  7  1  0
  6  7  1  0
  5 11  1  0
  4 12  1  0
 12 13  2  3
 13 14  1  0
 14 15  2  3
 15 16  1  0
 16 17  1  0
 17 18  1  0
 18 19  1  0
 19 20  1  0
 20 21  1  0
 21 22  1  0
 22 23  1  0
 18 25  1  0
 22 25  1  0
 24 26  1  0
 23 28  1  0
 27 29  1  0
 28 29  1  0
 28 30  2  0
 23 24  1  0
 26 27  1  0
  1  2  2  0
  2  3  1  0
  3 10  2  0
 10  9  1  0
  9  8  2  0
  8  1  1  0
M  END

$$$$
No_148-/dssg/home/sw_qyf/PocketFlow/Model-Generation-Results/5HT2A_7WC7_rec_A_10.pdb/2024-01-01-03-54-21/
     RDKit          3D

 27 28  0  0  0  0  0  0  0  0999 V2000
  -23.1746  -16.6014  144.8668 C   0  0  0  0  0  0  0  0  0  0  0  0
  -24.0189  -16.0564  145.8445 C   0  0  0  0  0  0  0  0  0  0  0  0
  -24.4850  -14.7380  145.6359 C   0  0  0  0  0  0  0  0  0  0  0  0
  -25.2717  -14.0560  146.5949 C   0  0  0  0  0  0  0  0  0  0  0  0
  -25.6617  -12.7328  146.4162 C   0  0  0  0  0  0  0  0  0  0  0  0
  -25.2756  -11.9986  145.2553 C   0  0  0  0  0  0  0  0  0  0  0  0
  -24.3335  -12.6494  144.4294 C   0  0  0  0  0  0  0  0  0  0  0  0
  -23.8839  -13.9831  144.6056 C   0  0  0  0  0  0  0  0  0  0  0  0
  -24.4811  -16.8149  146.9457 C   0  0  0  0  0  0  0  0  0  0  0  0
  -25.2187  -16.6857  147.7827 C   0  0  0  0  0  0  0  0  0  0  0  0
  -25.3114  -17.4185  149.1012 C   0  0  0  0  0  0  0  0  0  0  0  0
  -26.0931  -17.0603  150.2365 C   0  0  0  0  0  0  0  0  0  0  0  0
  -25.5319  -10.7194  145.1163 O   0  0  0  0  0  0  0  0  0  0  0  0
  -26.3202  -10.4279  144.0333 C   0  0  0  0  0  0  0  0  0  0  0  0
  -27.5773   -9.8544  144.5169 C   0  0  0  0  0  0  0  0  0  0  0  0
  -28.5258   -9.4290  143.5396 C   0  0  0  0  0  0  0  0  0  0  0  0
  -28.5870  -10.2351  142.4277 C   0  0  0  0  0  0  0  0  0  0  0  0
  -27.5860  -11.1162  142.0472 C   0  0  0  0  0  0  0  0  0  0  0  0
  -26.7131  -11.5823  143.2074 C   0  0  0  0  0  0  0  0  0  0  0  0
  -29.6436   -9.8622  141.4660 C   0  0  0  0  0  0  0  0  0  0  0  0
  -29.3779   -8.6474  140.8379 C   0  0  0  0  0  0  0  0  0  0  0  0
  -28.7415   -8.4872  139.6576 C   0  0  0  0  0  0  0  0  0  0  0  0
  -28.0310   -9.4396  138.9467 C   0  0  0  0  0  0  0  0  0  0  0  0
  -27.6862   -9.2446  137.6580 C   0  0  0  0  0  0  0  0  0  0  0  0
  -28.2245   -8.0623  137.0076 C   0  0  0  0  0  0  0  0  0  0  0  0
  -30.1044   -7.4146  141.3392 C   0  0  0  0  0  0  0  0  0  0  0  0
  -29.9789   -6.9920  142.3421 N   0  0  0  0  0  0  0  0  0  0  0  0
  1  2  1  0
  2  3  1  0
  2  9  1  0
  9 10  2  3
 10 11  1  0
 11 12  1  0
  6 13  1  0
 13 14  1  0
 17 20  1  0
 20 21  1  0
 21 22  2  3
 22 23  1  0
 23 24  2  3
 24 25  1  0
 21 26  1  0
 26 27  1  0
 14 15  2  0
 15 16  1  0
 16 17  2  0
 17 18  1  0
 18 19  2  0
 19 14  1  0
  3  4  2  0
  4  5  1  0
  5  6  2  0
  6  7  1  0
  7  8  2  0
  8  3  1  0
M  END

$$$$
No_149-/dssg/home/sw_qyf/PocketFlow/Model-Generation-Results/5HT2A_7WC7_rec_A_10.pdb/2024-01-01-03-54-21/
     RDKit          3D

 27 28  0  0  0  0  0  0  0  0999 V2000
  -24.1553  -17.8465  145.7021 C   0  0  0  0  0  0  0  0  0  0  0  0
  -24.6364  -17.2931  146.7091 C   0  0  0  0  0  0  0  0  0  0  0  0
  -24.5709  -15.9334  146.8074 C   0  0  0  0  0  0  0  0  0  0  0  0
  -24.2378  -15.1233  145.7159 C   0  0  0  0  0  0  0  0  0  0  0  0
  -23.7252  -15.7878  144.6028 C   0  0  0  0  0  0  0  0  0  0  0  0
  -23.7316  -17.0968  144.6427 N   0  0  0  0  0  0  0  0  0  0  0  0
  -24.0429  -19.2100  145.5626 N   0  0  0  0  0  0  0  0  0  0  0  0
  -24.2583  -13.6039  145.8467 C   0  0  0  0  0  0  0  0  0  0  0  0
  -23.3983  -12.8604  145.1617 C   0  0  0  0  0  0  0  0  0  0  0  0
  -25.2547  -13.0031  146.6622 C   0  0  0  0  0  0  0  0  0  0  0  0
  -25.5337  -11.6272  146.5172 C   0  0  0  0  0  0  0  0  0  0  0  0
  -23.5755  -11.3800  145.1484 C   0  0  0  0  0  0  0  0  0  0  0  0
  -25.0771  -11.0840  145.4480 C   0  0  0  0  0  0  0  0  0  0  0  0
  -22.3745  -13.2540  144.5248 F   0  0  0  0  0  0  0  0  0  0  0  0
  -24.9421  -18.0531  147.8431 N   0  0  0  0  0  0  0  0  0  0  0  0
  -25.2230  -17.3665  149.1373 C   0  0  0  0  0  0  0  0  0  0  0  0
  -24.0949  -17.3248  149.9412 C   0  0  0  0  0  0  0  0  0  0  0  0
  -22.7592  -17.2625  149.5916 C   0  0  0  0  0  0  0  0  0  0  0  0
  -22.5093  -16.8582  148.5498 O   0  0  0  0  0  0  0  0  0  0  0  0
  -21.8796  -17.1431  150.5790 O   0  0  0  0  0  0  0  0  0  0  0  0
  -26.0668  -10.9861  144.2372 C   0  0  0  0  0  0  0  0  0  0  0  0
  -27.0567   -9.9861  144.7452 C   0  0  0  0  0  0  0  0  0  0  0  0
  -28.1689   -9.7230  143.7731 C   0  0  0  0  0  0  0  0  0  0  0  0
  -29.0283   -8.9465  143.8573 C   0  0  0  0  0  0  0  0  0  0  0  0
  -30.0868   -8.5528  143.1145 C   0  0  0  0  0  0  0  0  0  0  0  0
  -30.1905   -9.3888  141.9238 C   0  0  0  0  0  0  0  0  0  0  0  0
  -29.2724  -10.3516  141.7320 C   0  0  0  0  0  0  0  0  0  0  0  0
  1  7  1  0
  4  8  1  0
  9 14  1  0
  2 15  1  0
 15 16  2  3
 16 17  1  0
 17 18  1  0
 18 19  1  0
 18 20  2  0
 13 21  1  0
 21 22  1  0
 22 23  2  3
 23 24  1  0
 24 25  2  3
 25 26  1  0
 26 27  2  0
  1  2  2  0
  2  3  1  0
  3  4  2  0
  4  5  1  0
  5  6  2  0
  6  1  1  0
  8  9  2  0
  9 12  1  0
 12 13  2  0
 13 11  1  0
 11 10  2  0
 10  8  1  0
M  END

$$$$
No_150-/dssg/home/sw_qyf/PocketFlow/Model-Generation-Results/5HT2A_7WC7_rec_A_10.pdb/2024-01-01-03-54-21/
     RDKit          3D

 35 39  0  0  0  0  0  0  0  0999 V2000
  -24.1553  -17.8465  145.7021 C   0  0  0  0  0  0  0  0  0  0  0  0
  -23.9795  -18.4462  146.7426 C   0  0  0  0  0  0  0  0  0  0  0  0
  -24.3577  -16.4380  145.7329 C   0  0  0  0  0  0  0  0  0  0  0  0
  -24.4745  -15.6012  144.5587 C   0  0  0  0  0  0  0  0  0  0  0  0
  -24.5845  -14.1656  144.8311 C   0  0  0  0  0  0  0  0  0  0  0  0
  -23.7823  -13.3256  144.1226 C   0  0  0  0  0  0  0  0  0  0  0  0
  -23.9809  -17.8869  148.0803 C   0  0  0  0  0  0  0  0  0  0  0  0
  -24.1884  -16.4815  148.1726 C   0  0  0  0  0  0  0  0  0  0  0  0
  -24.3680  -15.7501  147.0545 C   0  0  0  0  0  0  0  0  0  0  0  0
  -23.5252  -12.0303  144.7310 C   0  0  0  0  0  0  0  0  0  0  0  0
  -24.5461  -11.5065  145.6836 C   0  0  0  0  0  0  0  0  0  0  0  0
  -25.5152  -12.3743  146.1380 C   0  0  0  0  0  0  0  0  0  0  0  0
  -25.4481  -13.7400  145.8355 C   0  0  0  0  0  0  0  0  0  0  0  0
  -24.7913  -14.4181  147.0554 N   0  0  0  0  0  0  0  0  0  0  0  0
  -26.9642  -11.8246  145.8313 C   0  0  0  0  0  0  0  0  0  0  0  0
  -27.8550  -12.2827  146.6257 O   0  0  0  0  0  0  0  0  0  0  0  0
  -27.1479  -10.6952  145.2191 N   0  0  0  0  0  0  0  0  0  0  0  0
  -28.4549  -10.1759  144.8790 C   0  0  0  0  0  0  0  0  0  0  0  0
  -29.5781  -10.6762  145.3064 C   0  0  0  0  0  0  0  0  0  0  0  0
  -28.4510   -9.1678  143.8043 C   0  0  0  0  0  0  0  0  0  0  0  0
  -29.6229   -8.7109  143.2714 C   0  0  0  0  0  0  0  0  0  0  0  0
  -29.7284   -7.7770  142.3304 C   0  0  0  0  0  0  0  0  0  0  0  0
  -30.3203   -7.6658  141.1196 C   0  0  0  0  0  0  0  0  0  0  0  0
  -29.5636   -8.2991  140.0572 C   0  0  0  0  0  0  0  0  0  0  0  0
  -28.8262   -9.4154  140.2168 C   0  0  0  0  0  0  0  0  0  0  0  0
  -27.8760   -9.8939  139.2781 C   0  0  0  0  0  0  0  0  0  0  0  0
  -29.6250  -11.6009  146.2744 N   0  0  0  0  0  0  0  0  0  0  0  0
  -28.8972  -12.4509  146.8623 C   0  0  0  0  0  0  0  0  0  0  0  0
  -29.4634  -13.3371  147.8600 C   0  0  0  0  0  0  0  0  0  0  0  0
  -27.0382  -10.9840  139.6642 C   0  0  0  0  0  0  0  0  0  0  0  0
  -27.5633  -12.2918  139.3297 C   0  0  0  0  0  0  0  0  0  0  0  0
  -30.3682  -14.3795  147.5047 C   0  0  0  0  0  0  0  0  0  0  0  0
  -29.6547   -7.7527  138.7289 C   0  0  0  0  0  0  0  0  0  0  0  0
  -28.8369   -8.2716  137.7224 C   0  0  0  0  0  0  0  0  0  0  0  0
  -28.0096   -9.3915  138.0235 C   0  0  0  0  0  0  0  0  0  0  0  0
  3  4  1  0
  4  5  1  0
  9 14  1  0
 13 14  1  0
 12 15  1  0
 15 16  1  0
 15 17  2  0
 17 18  1  0
 18 19  1  0
 18 20  1  0
 20 21  1  0
 21 22  2  3
 22 23  1  0
 23 24  1  0
 19 27  1  0
 16 28  1  0
 27 28  1  0
 28 29  1  0
 26 30  1  0
 30 31  1  0
 29 32  1  0
 24 25  2  0
 25 26  1  0
 26 35  2  0
 35 34  1  0
 34 33  2  0
 33 24  1  0
  1  2  2  0
  2  7  1  0
  7  8  2  0
  8  9  1  0
  9  3  2  0
  3  1  1  0
  5  6  2  0
  6 10  1  0
 10 11  2  0
 11 12  1  0
 12 13  2  0
 13  5  1  0
M  END

$$$$
No_151-/dssg/home/sw_qyf/PocketFlow/Model-Generation-Results/5HT2A_7WC7_rec_A_10.pdb/2024-01-01-03-54-21/
     RDKit          3D

 12 12  0  0  0  0  0  0  0  0999 V2000
  -23.1746  -16.6014  144.8668 C   0  0  0  0  0  0  0  0  0  0  0  0
  -23.8963  -15.5346  144.7885 C   0  0  0  0  0  0  0  0  0  0  0  0
  -23.6398  -14.5115  145.3281 C   0  0  0  0  0  0  0  0  0  0  0  0
  -24.3241  -13.3648  145.1281 C   0  0  0  0  0  0  0  0  0  0  0  0
  -25.5072  -13.2953  144.4353 C   0  0  0  0  0  0  0  0  0  0  0  0
  -25.9151  -14.5889  143.8605 C   0  0  0  0  0  0  0  0  0  0  0  0
  -25.1243  -15.6356  144.0574 C   0  0  0  0  0  0  0  0  0  0  0  0
  -23.5846  -17.5172  145.7718 O   0  0  0  0  0  0  0  0  0  0  0  0
  -23.8375  -18.7463  145.7164 C   0  0  0  0  0  0  0  0  0  0  0  0
  -23.9411  -12.0560  145.6946 N   0  0  0  0  0  0  0  0  0  0  0  0
  -24.6700  -19.1345  146.8985 C   0  0  0  0  0  0  0  0  0  0  0  0
  -24.4721  -18.1054  147.9593 C   0  0  0  0  0  0  0  0  0  0  0  0
  1  2  1  0
  1  8  1  0
  8  9  1  0
  4 10  1  0
  9 11  1  0
 11 12  1  0
  2  3  2  0
  3  4  1  0
  4  5  2  0
  5  6  1  0
  6  7  2  0
  7  2  1  0
M  END

$$$$
No_152-/dssg/home/sw_qyf/PocketFlow/Model-Generation-Results/5HT2A_7WC7_rec_A_10.pdb/2024-01-01-03-54-21/
     RDKit          3D

 12 12  0  0  0  0  0  0  0  0999 V2000
  -23.1746  -16.6014  144.8668 C   0  0  0  0  0  0  0  0  0  0  0  0
  -23.7011  -17.0158  145.9774 C   0  0  0  0  0  0  0  0  0  0  0  0
  -23.7336  -18.2775  146.3737 C   0  0  0  0  0  0  0  0  0  0  0  0
  -23.2769  -15.1496  144.5841 C   0  0  0  0  0  0  0  0  0  0  0  0
  -24.0283  -14.2099  145.3704 C   0  0  0  0  0  0  0  0  0  0  0  0
  -24.6472  -14.7123  146.5451 C   0  0  0  0  0  0  0  0  0  0  0  0
  -24.4752  -16.0939  146.8993 C   0  0  0  0  0  0  0  0  0  0  0  0
  -24.0004  -12.7754  145.0807 C   0  0  0  0  0  0  0  0  0  0  0  0
  -24.9663  -12.1012  145.1902 O   0  0  0  0  0  0  0  0  0  0  0  0
  -22.8201  -12.2963  144.6699 O   0  0  0  0  0  0  0  0  0  0  0  0
  -24.2432  -18.8645  147.3115 O   0  0  0  0  0  0  0  0  0  0  0  0
  -22.8798  -19.1337  145.7591 O   0  0  0  0  0  0  0  0  0  0  0  0
  2  3  1  0
  5  8  1  0
  8  9  2  0
  8 10  1  0
  3 11  2  0
  3 12  1  0
  1  2  2  0
  2  7  1  0
  7  6  2  0
  6  5  1  0
  5  4  2  0
  4  1  1  0
M  END

$$$$
No_153-/dssg/home/sw_qyf/PocketFlow/Model-Generation-Results/5HT2A_7WC7_rec_A_10.pdb/2024-01-01-03-54-21/
     RDKit          3D

 35 38  0  0  0  0  0  0  0  0999 V2000
  -24.1553  -17.8465  145.7021 C   0  0  0  0  0  0  0  0  0  0  0  0
  -24.2856  -16.6364  145.3494 C   0  0  0  0  0  0  0  0  0  0  0  0
  -25.0033  -15.6772  146.0737 C   0  0  0  0  0  0  0  0  0  0  0  0
  -25.6964  -16.1810  147.2049 C   0  0  0  0  0  0  0  0  0  0  0  0
  -24.8143  -18.3454  146.8324 C   0  0  0  0  0  0  0  0  0  0  0  0
  -25.5291  -17.4614  147.6374 C   0  0  0  0  0  0  0  0  0  0  0  0
  -23.6447  -16.0678  144.2141 N   0  0  0  0  0  0  0  0  0  0  0  0
  -25.1743  -14.2616  145.6420 C   0  0  0  0  0  0  0  0  0  0  0  0
  -25.3118  -13.3836  146.2478 C   0  0  0  0  0  0  0  0  0  0  0  0
  -25.4430  -11.9806  145.8345 C   0  0  0  0  0  0  0  0  0  0  0  0
  -26.5077  -11.3093  145.6586 C   0  0  0  0  0  0  0  0  0  0  0  0
  -27.8267  -11.7275  145.9326 C   0  0  0  0  0  0  0  0  0  0  0  0
  -28.9931  -11.0338  145.5249 C   0  0  0  0  0  0  0  0  0  0  0  0
  -28.8798  -10.0814  144.4593 C   0  0  0  0  0  0  0  0  0  0  0  0
  -28.2398  -10.2372  143.6329 C   0  0  0  0  0  0  0  0  0  0  0  0
  -23.9800  -14.0842  144.5782 C   0  0  0  0  0  0  0  0  0  0  0  0
  -23.9923  -12.7727  144.1526 O   0  0  0  0  0  0  0  0  0  0  0  0
  -23.4858  -15.0231  143.7294 C   0  0  0  0  0  0  0  0  0  0  0  0
  -26.7409  -10.6552  144.1206 C   0  0  0  0  0  0  0  0  0  0  0  0
  -30.2453   -9.3513  144.2828 C   0  0  0  0  0  0  0  0  0  0  0  0
  -30.2504   -8.5477  143.1697 C   0  0  0  0  0  0  0  0  0  0  0  0
  -30.0760   -7.3591  143.0619 C   0  0  0  0  0  0  0  0  0  0  0  0
  -30.0850   -6.5251  141.8024 C   0  0  0  0  0  0  0  0  0  0  0  0
  -29.9577   -7.3627  140.6400 C   0  0  0  0  0  0  0  0  0  0  0  0
  -29.8833   -8.7308  140.7823 C   0  0  0  0  0  0  0  0  0  0  0  0
  -30.0835   -9.3796  142.0029 C   0  0  0  0  0  0  0  0  0  0  0  0
  -24.3726  -11.0970  146.5413 O   0  0  0  0  0  0  0  0  0  0  0  0
  -30.0356  -11.2727  146.2848 F   0  0  0  0  0  0  0  0  0  0  0  0
  -29.6904   -6.7913  139.5154 O   0  0  0  0  0  0  0  0  0  0  0  0
  -23.4910  -18.7823  145.0118 O   0  0  0  0  0  0  0  0  0  0  0  0
  -30.1830  -10.6923  141.8930 O   0  0  0  0  0  0  0  0  0  0  0  0
  -28.8376   -7.4796  138.6530 C   0  0  0  0  0  0  0  0  0  0  0  0
  -27.7297   -8.1186  139.2713 C   0  0  0  0  0  0  0  0  0  0  0  0
  -27.3760   -9.2861  138.5377 C   0  0  0  0  0  0  0  0  0  0  0  0
  -28.3202  -10.3679  138.5162 C   0  0  0  0  0  0  0  0  0  0  0  0
  2  7  1  0
  3  8  1  0
  8  9  1  0
  9 10  2  3
 10 11  1  0
  8 16  1  0
 16 17  1  0
  7 18  1  0
 16 18  1  0
 14 20  1  0
 20 21  1  0
 10 27  1  0
 13 28  1  0
 24 29  1  0
  1 30  1  0
 26 31  1  0
 29 32  1  0
 32 33  1  0
 33 34  1  0
 34 35  1  0
  1  2  2  0
  2  3  1  0
  3  4  2  0
  4  6  1  0
  6  5  2  0
  5  1  1  0
 11 12  2  0
 12 13  1  0
 13 14  2  0
 14 15  1  0
 15 19  2  0
 19 11  1  0
 21 22  2  0
 22 23  1  0
 23 24  2  0
 24 25  1  0
 25 26  2  0
 26 21  1  0
M  END

$$$$
No_154-/dssg/home/sw_qyf/PocketFlow/Model-Generation-Results/5HT2A_7WC7_rec_A_10.pdb/2024-01-01-03-54-21/
     RDKit          3D

 10 10  0  0  0  0  0  0  0  0999 V2000
  -24.1553  -17.8465  145.7021 C   0  0  0  0  0  0  0  0  0  0  0  0
  -23.9795  -18.4462  146.7426 C   0  0  0  0  0  0  0  0  0  0  0  0
  -23.3558  -17.2450  144.9339 C   0  0  0  0  0  0  0  0  0  0  0  0
  -24.9341  -19.0253  147.6214 C   0  0  0  0  0  0  0  0  0  0  0  0
  -22.2177  -17.5750  144.9370 F   0  0  0  0  0  0  0  0  0  0  0  0
  -23.7053  -16.4878  143.8421 F   0  0  0  0  0  0  0  0  0  0  0  0
  -26.1720  -18.3904  147.3109 C   0  0  0  0  0  0  0  0  0  0  0  0
  -25.7989  -17.5210  146.1404 C   0  0  0  0  0  0  0  0  0  0  0  0
  -26.8952  -16.6102  145.2663 Cl  0  0  0  0  0  0  0  0  0  0  0  0
  -22.6575  -18.9833  146.9830 O   0  0  0  0  0  0  0  0  0  0  0  0
  1  2  2  0
  1  3  1  0
  2  4  1  0
  3  5  1  0
  3  6  1  0
  4  7  2  0
  1  8  1  0
  7  8  1  0
  8  9  1  0
  2 10  1  0
M  END

$$$$
No_155-/dssg/home/sw_qyf/PocketFlow/Model-Generation-Results/5HT2A_7WC7_rec_A_10.pdb/2024-01-01-03-54-21/
     RDKit          3D

  9  9  0  0  0  0  0  0  0  0999 V2000
  -23.1746  -16.6014  144.8668 C   0  0  0  0  0  0  0  0  0  0  0  0
  -23.7011  -17.0158  145.9774 C   0  0  0  0  0  0  0  0  0  0  0  0
  -24.2134  -16.0722  146.8877 C   0  0  0  0  0  0  0  0  0  0  0  0
  -24.5407  -14.7704  146.3552 C   0  0  0  0  0  0  0  0  0  0  0  0
  -24.9626  -13.7061  147.1333 C   0  0  0  0  0  0  0  0  0  0  0  0
  -24.0995  -14.5614  145.0046 C   0  0  0  0  0  0  0  0  0  0  0  0
  -23.4166  -15.4695  144.2822 C   0  0  0  0  0  0  0  0  0  0  0  0
  -24.3703  -12.4474  146.8915 C   0  0  0  0  0  0  0  0  0  0  0  0
  -24.5229  -11.8824  145.5878 C   0  0  0  0  0  0  0  0  0  0  0  0
  4  5  1  0
  5  8  1  0
  8  9  1  0
  1  2  2  0
  2  3  1  0
  3  4  2  0
  4  6  1  0
  6  7  2  0
  7  1  1  0
M  END

$$$$
No_156-/dssg/home/sw_qyf/PocketFlow/Model-Generation-Results/5HT2A_7WC7_rec_A_10.pdb/2024-01-01-03-54-21/
     RDKit          3D

 29 32  0  0  0  0  0  0  0  0999 V2000
  -23.1746  -16.6014  144.8668 C   0  0  0  0  0  0  0  0  0  0  0  0
  -23.8963  -15.5346  144.7885 C   0  0  0  0  0  0  0  0  0  0  0  0
  -24.5755  -15.0383  145.9043 C   0  0  0  0  0  0  0  0  0  0  0  0
  -24.8345  -15.9108  146.9141 C   0  0  0  0  0  0  0  0  0  0  0  0
  -24.2398  -17.1433  146.9649 C   0  0  0  0  0  0  0  0  0  0  0  0
  -23.4221  -17.5266  145.9093 C   0  0  0  0  0  0  0  0  0  0  0  0
  -25.2380  -13.6642  145.8941 C   0  0  0  0  0  0  0  0  0  0  0  0
  -24.4019  -12.6412  146.0739 C   0  0  0  0  0  0  0  0  0  0  0  0
  -26.5592  -13.4850  145.6641 C   0  0  0  0  0  0  0  0  0  0  0  0
  -27.1594  -12.2091  145.6864 C   0  0  0  0  0  0  0  0  0  0  0  0
  -28.5025  -11.9859  145.4376 C   0  0  0  0  0  0  0  0  0  0  0  0
  -24.9571  -11.3173  146.1648 C   0  0  0  0  0  0  0  0  0  0  0  0
  -26.3061  -11.1199  145.9228 C   0  0  0  0  0  0  0  0  0  0  0  0
  -29.0203  -10.9719  144.6189 C   0  0  0  0  0  0  0  0  0  0  0  0
  -29.8658   -9.9343  145.1455 C   0  0  0  0  0  0  0  0  0  0  0  0
  -30.3819   -8.9347  144.3060 C   0  0  0  0  0  0  0  0  0  0  0  0
  -30.0257   -8.7986  142.9818 C   0  0  0  0  0  0  0  0  0  0  0  0
  -29.0857   -9.8068  142.5099 C   0  0  0  0  0  0  0  0  0  0  0  0
  -28.5899  -10.8242  143.3237 C   0  0  0  0  0  0  0  0  0  0  0  0
  -30.5765   -7.7994  142.0992 C   0  0  0  0  0  0  0  0  0  0  0  0
  -29.5319   -7.0216  141.3486 C   0  0  0  0  0  0  0  0  0  0  0  0
  -29.2339   -5.7569  141.8549 C   0  0  0  0  0  0  0  0  0  0  0  0
  -29.1229   -7.4382  140.1042 C   0  0  0  0  0  0  0  0  0  0  0  0
  -29.0905   -6.6754  139.0280 C   0  0  0  0  0  0  0  0  0  0  0  0
  -28.4382   -7.3708  138.1643 C   0  0  0  0  0  0  0  0  0  0  0  0
  -28.5804   -8.6673  139.7285 C   0  0  0  0  0  0  0  0  0  0  0  0
  -28.0023   -9.0248  138.7568 C   0  0  0  0  0  0  0  0  0  0  0  0
  -29.4022  -12.7299  146.0540 O   0  0  0  0  0  0  0  0  0  0  0  0
  -23.7023  -14.6007  143.8112 O   0  0  0  0  0  0  0  0  0  0  0  0
  3  7  1  0
 10 11  1  0
 11 14  1  0
 17 20  1  0
 20 21  1  0
 21 22  2  0
 21 23  1  0
 23 24  1  0
 24 25  2  0
 23 26  1  0
 25 27  1  0
 26 27  1  0
 11 28  2  0
  2 29  1  0
  1  2  2  0
  2  3  1  0
  3  4  2  0
  4  5  1  0
  5  6  2  0
  6  1  1  0
  7  8  2  0
  8 12  1  0
 12 13  2  0
 13 10  1  0
 10  9  2  0
  9  7  1  0
 14 15  2  0
 15 16  1  0
 16 17  2  0
 17 18  1  0
 18 19  2  0
 19 14  1  0
M  END

$$$$
No_157-/dssg/home/sw_qyf/PocketFlow/Model-Generation-Results/5HT2A_7WC7_rec_A_10.pdb/2024-01-01-03-54-21/
     RDKit          3D

 16 17  0  0  0  0  0  0  0  0999 V2000
  -23.1746  -16.6014  144.8668 C   0  0  0  0  0  0  0  0  0  0  0  0
  -24.0189  -16.0564  145.8445 C   0  0  0  0  0  0  0  0  0  0  0  0
  -24.4145  -16.8299  146.9062 C   0  0  0  0  0  0  0  0  0  0  0  0
  -25.2273  -16.2787  147.9854 C   0  0  0  0  0  0  0  0  0  0  0  0
  -25.7358  -15.0095  147.7773 C   0  0  0  0  0  0  0  0  0  0  0  0
  -25.5660  -14.4042  146.5961 C   0  0  0  0  0  0  0  0  0  0  0  0
  -24.6706  -14.7782  145.6523 C   0  0  0  0  0  0  0  0  0  0  0  0
  -22.6453  -17.5147  145.2784 N   0  0  0  0  0  0  0  0  0  0  0  0
  -23.3075  -17.9430  146.5450 C   0  0  0  0  0  0  0  0  0  0  0  0
  -24.4961  -13.9083  144.5198 C   0  0  0  0  0  0  0  0  0  0  0  0
  -23.4476  -13.0883  144.6800 F   0  0  0  0  0  0  0  0  0  0  0  0
  -24.1606  -14.6427  143.4203 F   0  0  0  0  0  0  0  0  0  0  0  0
  -25.5257  -13.1111  144.2967 F   0  0  0  0  0  0  0  0  0  0  0  0
  -25.4761  -17.1259  149.2227 C   0  0  0  0  0  0  0  0  0  0  0  0
  -26.6119  -17.5280  149.4247 O   0  0  0  0  0  0  0  0  0  0  0  0
  -24.5157  -17.1573  150.1336 O   0  0  0  0  0  0  0  0  0  0  0  0
  1  2  1  0
  1  8  1  0
  3  9  1  0
  8  9  2  0
  7 10  1  0
 10 11  1  0
 10 12  1  0
 10 13  1  0
  4 14  1  0
 14 15  1  0
 14 16  2  0
  2  3  2  0
  3  4  1  0
  4  5  2  0
  5  6  1  0
  6  7  2  0
  7  2  1  0
M  END

$$$$
No_158-/dssg/home/sw_qyf/PocketFlow/Model-Generation-Results/5HT2A_7WC7_rec_A_10.pdb/2024-01-01-03-54-21/
     RDKit          3D

 17 19  0  0  0  0  0  0  0  0999 V2000
  -23.1746  -16.6014  144.8668 C   0  0  0  0  0  0  0  0  0  0  0  0
  -24.0189  -16.0564  145.8445 C   0  0  0  0  0  0  0  0  0  0  0  0
  -24.4850  -14.7380  145.6359 C   0  0  0  0  0  0  0  0  0  0  0  0
  -24.0244  -13.9858  144.5634 C   0  0  0  0  0  0  0  0  0  0  0  0
  -24.3992  -12.5948  144.5046 C   0  0  0  0  0  0  0  0  0  0  0  0
  -25.4334  -12.1513  145.4172 C   0  0  0  0  0  0  0  0  0  0  0  0
  -25.9695  -12.9496  146.4484 C   0  0  0  0  0  0  0  0  0  0  0  0
  -25.4949  -14.2751  146.5477 C   0  0  0  0  0  0  0  0  0  0  0  0
  -24.3764  -16.8128  146.9819 C   0  0  0  0  0  0  0  0  0  0  0  0
  -24.9752  -16.5992  147.9708 C   0  0  0  0  0  0  0  0  0  0  0  0
  -25.7868  -15.1776  147.8763 C   0  0  0  0  0  0  0  0  0  0  0  0
  -25.9797  -10.8082  145.2171 C   0  0  0  0  0  0  0  0  0  0  0  0
  -27.4671  -10.7545  145.1832 C   0  0  0  0  0  0  0  0  0  0  0  0
  -28.2556  -11.5497  145.8938 C   0  0  0  0  0  0  0  0  0  0  0  0
  -27.5475  -12.6323  146.6067 C   0  0  0  0  0  0  0  0  0  0  0  0
  -29.5001  -11.3226  146.1949 N   0  0  0  0  0  0  0  0  0  0  0  0
  -30.2005  -10.5174  145.4970 O   0  0  0  0  0  0  0  0  0  0  0  0
  1  2  1  0
  6 12  1  0
 12 13  1  0
 13 14  1  0
  7 15  1  0
 14 15  1  0
 14 16  1  0
 16 17  2  0
  2  3  2  0
  8 11  2  0
 11 10  1  0
 10  9  2  0
  9  2  1  0
  3  4  1  0
  4  5  2  0
  5  6  1  0
  6  7  2  0
  7  8  1  0
  8  3  1  0
M  END

$$$$
No_159-/dssg/home/sw_qyf/PocketFlow/Model-Generation-Results/5HT2A_7WC7_rec_A_10.pdb/2024-01-01-03-54-21/
     RDKit          3D

 35 36  0  0  0  0  0  0  0  0999 V2000
  -24.1553  -17.8465  145.7021 C   0  0  0  0  0  0  0  0  0  0  0  0
  -24.6364  -17.2931  146.7091 C   0  0  0  0  0  0  0  0  0  0  0  0
  -25.8608  -16.5592  146.5934 C   0  0  0  0  0  0  0  0  0  0  0  0
  -25.9088  -15.1597  146.9911 C   0  0  0  0  0  0  0  0  0  0  0  0
  -25.5121  -14.2230  145.9989 C   0  0  0  0  0  0  0  0  0  0  0  0
  -25.3887  -12.9478  146.3771 C   0  0  0  0  0  0  0  0  0  0  0  0
  -25.2160  -11.8726  145.3903 C   0  0  0  0  0  0  0  0  0  0  0  0
  -26.5309  -11.4965  144.7847 C   0  0  0  0  0  0  0  0  0  0  0  0
  -26.6981  -10.2031  144.4688 C   0  0  0  0  0  0  0  0  0  0  0  0
  -27.8593   -9.7907  143.6404 C   0  0  0  0  0  0  0  0  0  0  0  0
  -27.8796  -10.2935  142.3723 C   0  0  0  0  0  0  0  0  0  0  0  0
  -28.5918   -9.6559  141.3836 C   0  0  0  0  0  0  0  0  0  0  0  0
  -28.1292   -9.7374  140.0135 C   0  0  0  0  0  0  0  0  0  0  0  0
  -28.3295   -8.6779  139.0609 C   0  0  0  0  0  0  0  0  0  0  0  0
  -28.9885   -7.5645  139.6400 C   0  0  0  0  0  0  0  0  0  0  0  0
  -29.5776   -7.5102  140.8991 C   0  0  0  0  0  0  0  0  0  0  0  0
  -29.2378   -8.5035  141.7948 C   0  0  0  0  0  0  0  0  0  0  0  0
  -27.4239  -10.9220  139.5765 C   0  0  0  0  0  0  0  0  0  0  0  0
  -28.0190  -12.1240  139.0860 C   0  0  0  0  0  0  0  0  0  0  0  0
  -23.9903  -16.8892  144.5432 C   0  0  0  0  0  0  0  0  0  0  0  0
  -24.2617  -15.5557  145.0216 C   0  0  0  0  0  0  0  0  0  0  0  0
  -23.6788  -14.6468  144.0686 C   0  0  0  0  0  0  0  0  0  0  0  0
  -24.3673  -14.6649  145.1364 O   0  0  0  0  0  0  0  0  0  0  0  0
  -27.0831  -17.2812  147.2574 C   0  0  0  0  0  0  0  0  0  0  0  0
  -28.3977  -16.7113  146.8157 C   0  0  0  0  0  0  0  0  0  0  0  0
  -22.7363  -13.6645  144.0940 C   0  0  0  0  0  0  0  0  0  0  0  0
  -28.9093  -15.7063  147.8041 C   0  0  0  0  0  0  0  0  0  0  0  0
  -29.7403  -14.6189  147.3836 C   0  0  0  0  0  0  0  0  0  0  0  0
  -30.2340  -13.6766  148.3085 C   0  0  0  0  0  0  0  0  0  0  0  0
  -30.3794  -12.3059  147.9380 C   0  0  0  0  0  0  0  0  0  0  0  0
  -29.3550  -11.7577  147.3621 O   0  0  0  0  0  0  0  0  0  0  0  0
  -31.3627  -11.5929  148.2511 O   0  0  0  0  0  0  0  0  0  0  0  0
  -22.8640  -18.4700  145.9698 F   0  0  0  0  0  0  0  0  0  0  0  0
  -24.8016  -19.0786  145.3065 O   0  0  0  0  0  0  0  0  0  0  0  0
  -26.3213  -10.5827  138.7233 F   0  0  0  0  0  0  0  0  0  0  0  0
  1  2  1  0
  2  3  1  0
  3  4  1  0
  4  5  1  0
  5  6  1  0
  6  7  1  0
  7  8  1  0
  8  9  1  0
  9 10  1  0
 10 11  1  0
 11 12  1  0
 13 18  1  0
 18 19  1  0
  1 20  1  0
 20 21  1  0
 21 22  1  0
  5 23  1  0
 21 23  1  0
  3 24  1  0
 24 25  1  0
 22 26  1  0
 25 27  1  0
 27 28  2  3
 28 29  1  0
 29 30  1  0
 30 31  2  0
 30 32  1  0
  1 33  1  0
  1 34  1  0
 18 35  1  0
 12 13  2  0
 13 14  1  0
 14 15  2  0
 15 16  1  0
 16 17  2  0
 17 12  1  0
M  END

$$$$
No_160-/dssg/home/sw_qyf/PocketFlow/Model-Generation-Results/5HT2A_7WC7_rec_A_10.pdb/2024-01-01-03-54-21/
     RDKit          3D

 13 13  0  0  0  0  0  0  0  0999 V2000
  -23.1746  -16.6014  144.8668 C   0  0  0  0  0  0  0  0  0  0  0  0
  -24.0189  -16.0564  145.8445 C   0  0  0  0  0  0  0  0  0  0  0  0
  -24.4145  -16.8299  146.9062 C   0  0  0  0  0  0  0  0  0  0  0  0
  -25.2730  -16.2838  147.9150 C   0  0  0  0  0  0  0  0  0  0  0  0
  -25.7919  -14.9951  147.6737 C   0  0  0  0  0  0  0  0  0  0  0  0
  -24.5377  -14.6789  145.6474 C   0  0  0  0  0  0  0  0  0  0  0  0
  -24.1196  -13.8271  144.6537 C   0  0  0  0  0  0  0  0  0  0  0  0
  -25.4048  -14.1729  146.7241 C   0  0  0  0  0  0  0  0  0  0  0  0
  -23.4056  -12.8320  145.0063 O   0  0  0  0  0  0  0  0  0  0  0  0
  -23.9645  -18.2050  147.0518 C   0  0  0  0  0  0  0  0  0  0  0  0
  -24.9489  -18.6432  147.3158 F   0  0  0  0  0  0  0  0  0  0  0  0
  -23.4649  -18.6101  145.9030 F   0  0  0  0  0  0  0  0  0  0  0  0
  -23.0642  -18.0461  148.0361 F   0  0  0  0  0  0  0  0  0  0  0  0
  1  2  1  0
  6  7  1  0
  7  9  1  0
  3 10  1  0
 10 11  1  0
 10 12  1  0
 10 13  1  0
  2  3  2  0
  3  4  1  0
  4  5  2  0
  5  8  1  0
  8  6  2  0
  6  2  1  0
M  END

$$$$
No_161-/dssg/home/sw_qyf/PocketFlow/Model-Generation-Results/5HT2A_7WC7_rec_A_10.pdb/2024-01-01-03-54-21/
     RDKit          3D

 17 17  0  0  0  0  0  0  0  0999 V2000
  -24.1553  -17.8465  145.7021 C   0  0  0  0  0  0  0  0  0  0  0  0
  -23.9795  -18.4462  146.7426 C   0  0  0  0  0  0  0  0  0  0  0  0
  -23.2486  -17.2339  144.9771 C   0  0  0  0  0  0  0  0  0  0  0  0
  -22.6834  -18.2906  147.4267 C   0  0  0  0  0  0  0  0  0  0  0  0
  -22.3109  -17.1214  147.6732 C   0  0  0  0  0  0  0  0  0  0  0  0
  -23.9372  -16.0701  144.1938 C   0  0  0  0  0  0  0  0  0  0  0  0
  -24.2969  -14.8471  144.9762 C   0  0  0  0  0  0  0  0  0  0  0  0
  -25.2605  -14.5600  145.4569 C   0  0  0  0  0  0  0  0  0  0  0  0
  -26.4962  -15.2605  145.6686 C   0  0  0  0  0  0  0  0  0  0  0  0
  -27.6554  -14.7800  146.3030 C   0  0  0  0  0  0  0  0  0  0  0  0
  -27.7727  -13.3899  146.4523 C   0  0  0  0  0  0  0  0  0  0  0  0
  -26.6543  -12.5111  146.2186 C   0  0  0  0  0  0  0  0  0  0  0  0
  -25.4404  -13.0712  145.7249 C   0  0  0  0  0  0  0  0  0  0  0  0
  -29.0062  -12.7740  147.0173 C   0  0  0  0  0  0  0  0  0  0  0  0
  -29.0030  -11.5680  146.9088 F   0  0  0  0  0  0  0  0  0  0  0  0
  -29.1208  -13.1077  148.4148 F   0  0  0  0  0  0  0  0  0  0  0  0
  -30.0483  -13.3435  146.4005 F   0  0  0  0  0  0  0  0  0  0  0  0
  1  2  1  0
  1  3  2  3
  2  4  1  0
  4  5  1  0
  3  6  1  0
  6  7  1  0
 11 14  1  0
 14 15  1  0
 14 16  1  0
 14 17  1  0
  7  8  1  0
  8  9  2  0
  9 10  1  0
 10 11  2  0
 11 12  1  0
 12 13  2  0
 13  8  1  0
M  END

$$$$
No_162-/dssg/home/sw_qyf/PocketFlow/Model-Generation-Results/5HT2A_7WC7_rec_A_10.pdb/2024-01-01-03-54-21/
     RDKit          3D

 16 16  0  0  0  0  0  0  0  0999 V2000
  -24.1553  -17.8465  145.7021 C   0  0  0  0  0  0  0  0  0  0  0  0
  -23.9795  -18.4462  146.7426 C   0  0  0  0  0  0  0  0  0  0  0  0
  -23.3558  -17.2451  144.9339 C   0  0  0  0  0  0  0  0  0  0  0  0
  -23.8124  -18.0051  147.7479 C   0  0  0  0  0  0  0  0  0  0  0  0
  -23.4069  -16.4918  147.7987 C   0  0  0  0  0  0  0  0  0  0  0  0
  -23.4734  -15.9014  144.6608 C   0  0  0  0  0  0  0  0  0  0  0  0
  -24.2725  -14.9013  144.9442 C   0  0  0  0  0  0  0  0  0  0  0  0
  -24.1341  -13.5601  144.4761 C   0  0  0  0  0  0  0  0  0  0  0  0
  -22.8024  -13.2720  144.0283 C   0  0  0  0  0  0  0  0  0  0  0  0
  -22.2302  -15.2858  144.1535 N   0  0  0  0  0  0  0  0  0  0  0  0
  -21.9584  -14.1049  143.7966 C   0  0  0  0  0  0  0  0  0  0  0  0
  -24.3734  -15.9429  148.0031 C   0  0  0  0  0  0  0  0  0  0  0  0
  -25.6762  -16.3637  148.3040 C   0  0  0  0  0  0  0  0  0  0  0  0
  -25.8322  -17.3117  149.2947 C   0  0  0  0  0  0  0  0  0  0  0  0
  -27.0477  -17.4818  149.9235 N   0  0  0  0  0  0  0  0  0  0  0  0
  -24.9921  -18.1424  149.7123 O   0  0  0  0  0  0  0  0  0  0  0  0
  1  2  2  3
  1  3  1  0
  2  4  1  0
  4  5  2  3
  3  6  1  0
  5 12  1  0
 12 13  2  3
 13 14  1  0
 14 15  1  0
 14 16  2  0
  6  7  2  0
  7  8  1  0
  8  9  2  0
  9 11  1  0
 11 10  2  0
 10  6  1  0
M  END

$$$$
No_163-/dssg/home/sw_qyf/PocketFlow/Model-Generation-Results/5HT2A_7WC7_rec_A_10.pdb/2024-01-01-03-54-21/
     RDKit          3D

 18 18  0  0  0  0  0  0  0  0999 V2000
  -23.1746  -16.6014  144.8668 C   0  0  0  0  0  0  0  0  0  0  0  0
  -23.8963  -15.5346  144.7885 C   0  0  0  0  0  0  0  0  0  0  0  0
  -23.6398  -14.5115  145.3281 C   0  0  0  0  0  0  0  0  0  0  0  0
  -23.4462  -13.2703  144.4419 C   0  0  0  0  0  0  0  0  0  0  0  0
  -23.7505  -17.9413  144.6353 C   0  0  0  0  0  0  0  0  0  0  0  0
  -22.9954  -12.1086  145.1406 C   0  0  0  0  0  0  0  0  0  0  0  0
  -22.2927  -11.2929  144.4351 N   0  0  0  0  0  0  0  0  0  0  0  0
  -23.9363  -18.6709  145.9050 C   0  0  0  0  0  0  0  0  0  0  0  0
  -24.7058  -18.3673  146.5626 F   0  0  0  0  0  0  0  0  0  0  0  0
  -22.6280  -18.4667  146.6192 F   0  0  0  0  0  0  0  0  0  0  0  0
  -23.8047  -20.0318  145.6434 F   0  0  0  0  0  0  0  0  0  0  0  0
  -24.1042  -14.1210  146.6836 C   0  0  0  0  0  0  0  0  0  0  0  0
  -23.9538  -12.8330  147.2617 C   0  0  0  0  0  0  0  0  0  0  0  0
  -23.3717  -11.8757  146.5156 C   0  0  0  0  0  0  0  0  0  0  0  0
  -25.0838  -15.7144  144.1519 O   0  0  0  0  0  0  0  0  0  0  0  0
  -24.7319  -15.1955  147.5049 C   0  0  0  0  0  0  0  0  0  0  0  0
  -25.9817  -15.2819  147.4598 O   0  0  0  0  0  0  0  0  0  0  0  0
  -24.0355  -15.7454  148.4031 O   0  0  0  0  0  0  0  0  0  0  0  0
  1  2  1  0
  2  3  1  0
  1  5  1  0
  6  7  1  0
  5  8  1  0
  8  9  1  0
  8 10  1  0
  8 11  1  0
  2 15  2  0
 12 16  1  0
 16 17  2  0
 16 18  1  0
  3  4  2  0
  4  6  1  0
  6 14  2  0
 14 13  1  0
 13 12  2  0
 12  3  1  0
M  END

$$$$
No_164-/dssg/home/sw_qyf/PocketFlow/Model-Generation-Results/5HT2A_7WC7_rec_A_10.pdb/2024-01-01-03-54-21/
     RDKit          3D

 32 35  0  0  0  0  0  0  0  0999 V2000
  -23.8042  -18.1535  145.4053 O   0  0  0  0  0  0  0  0  0  0  0  0
  -24.1154  -17.4458  146.3749 C   0  0  0  0  0  0  0  0  0  0  0  0
  -24.0359  -17.8147  147.6916 C   0  0  0  0  0  0  0  0  0  0  0  0
  -24.7788  -16.1362  146.1131 C   0  0  0  0  0  0  0  0  0  0  0  0
  -25.9545  -15.8092  146.7177 C   0  0  0  0  0  0  0  0  0  0  0  0
  -23.9893  -17.0778  148.6155 C   0  0  0  0  0  0  0  0  0  0  0  0
  -26.5103  -14.5650  146.2214 C   0  0  0  0  0  0  0  0  0  0  0  0
  -27.7556  -14.0417  146.7019 C   0  0  0  0  0  0  0  0  0  0  0  0
  -28.3097  -12.8257  146.3312 C   0  0  0  0  0  0  0  0  0  0  0  0
  -27.6930  -12.1065  145.2764 C   0  0  0  0  0  0  0  0  0  0  0  0
  -26.5052  -12.6278  144.7688 C   0  0  0  0  0  0  0  0  0  0  0  0
  -25.9861  -13.7912  145.1947 C   0  0  0  0  0  0  0  0  0  0  0  0
  -28.3609  -10.8245  144.8719 C   0  0  0  0  0  0  0  0  0  0  0  0
  -29.6734  -10.4929  145.0510 C   0  0  0  0  0  0  0  0  0  0  0  0
  -30.2507   -9.4240  144.4304 C   0  0  0  0  0  0  0  0  0  0  0  0
  -29.5948   -8.7286  143.4252 C   0  0  0  0  0  0  0  0  0  0  0  0
  -30.2115   -7.6305  142.7853 C   0  0  0  0  0  0  0  0  0  0  0  0
  -31.4680   -7.5995  142.5343 C   0  0  0  0  0  0  0  0  0  0  0  0
  -27.5562   -9.9159  144.0384 C   0  0  0  0  0  0  0  0  0  0  0  0
  -28.1889   -8.8409  143.4198 C   0  0  0  0  0  0  0  0  0  0  0  0
  -23.3462  -17.5288  149.9426 C   0  0  0  0  0  0  0  0  0  0  0  0
  -29.4099   -6.5709  142.1767 C   0  0  0  0  0  0  0  0  0  0  0  0
  -23.9415  -15.2897  145.2898 C   0  0  0  0  0  0  0  0  0  0  0  0
  -24.6040  -14.3458  144.8108 C   0  0  0  0  0  0  0  0  0  0  0  0
  -24.0406  -13.5558  143.8044 O   0  0  0  0  0  0  0  0  0  0  0  0
  -22.9163  -16.4477  150.8733 C   0  0  0  0  0  0  0  0  0  0  0  0
  -29.2568   -5.4083  142.9767 C   0  0  0  0  0  0  0  0  0  0  0  0
  -29.1370   -6.6271  140.8162 C   0  0  0  0  0  0  0  0  0  0  0  0
  -32.2645   -8.3243  143.2803 O   0  0  0  0  0  0  0  0  0  0  0  0
  -28.8384   -4.2005  142.3540 C   0  0  0  0  0  0  0  0  0  0  0  0
  -28.8516   -4.1205  140.9239 C   0  0  0  0  0  0  0  0  0  0  0  0
  -28.9399   -5.3116  140.2723 N   0  0  0  0  0  0  0  0  0  0  0  0
  1  2  1  0
  2  3  2  3
  2  4  1  0
  4  5  1  0
  3  6  1  0
  5  7  1  0
 10 13  1  0
 16 17  1  0
 17 18  2  3
  6 21  1  0
 17 22  1  0
  4 23  1  0
 12 24  1  0
 23 24  1  0
 24 25  2  0
 21 26  1  0
 18 29  1  0
 22 27  2  0
 27 30  1  0
 30 31  2  0
 31 32  1  0
 32 28  2  0
 28 22  1  0
 13 14  2  0
 14 15  1  0
 15 16  2  0
 16 20  1  0
 20 19  2  0
 19 13  1  0
  7  8  2  0
  8  9  1  0
  9 10  2  0
 10 11  1  0
 11 12  2  0
 12  7  1  0
M  END

$$$$
No_165-/dssg/home/sw_qyf/PocketFlow/Model-Generation-Results/5HT2A_7WC7_rec_A_10.pdb/2024-01-01-03-54-21/
     RDKit          3D

 14 15  0  0  0  0  0  0  0  0999 V2000
  -24.1553  -17.8465  145.7021 C   0  0  0  0  0  0  0  0  0  0  0  0
  -24.2856  -16.6364  145.3494 C   0  0  0  0  0  0  0  0  0  0  0  0
  -24.1962  -15.9414  144.2650 C   0  0  0  0  0  0  0  0  0  0  0  0
  -24.3870  -14.5486  144.1162 C   0  0  0  0  0  0  0  0  0  0  0  0
  -24.7523  -13.8439  145.3544 C   0  0  0  0  0  0  0  0  0  0  0  0
  -24.8596  -14.5458  146.5907 C   0  0  0  0  0  0  0  0  0  0  0  0
  -24.5647  -15.8706  146.6408 C   0  0  0  0  0  0  0  0  0  0  0  0
  -24.5616  -18.0263  147.0185 C   0  0  0  0  0  0  0  0  0  0  0  0
  -24.7880  -16.8821  147.6461 C   0  0  0  0  0  0  0  0  0  0  0  0
  -24.9378  -12.3523  145.3781 C   0  0  0  0  0  0  0  0  0  0  0  0
  -24.6593  -11.9952  146.3005 F   0  0  0  0  0  0  0  0  0  0  0  0
  -26.3013  -12.1923  145.0651 F   0  0  0  0  0  0  0  0  0  0  0  0
  -24.2182  -11.7574  144.4238 F   0  0  0  0  0  0  0  0  0  0  0  0
  -25.9947  -16.7519  148.5246 C   0  0  0  0  0  0  0  0  0  0  0  0
  1  2  2  0
  2  3  1  0
  3  4  1  0
  4  5  1  0
  5  6  1  0
  2  7  1  0
  6  7  1  0
  1  8  1  0
  7  9  1  0
  8  9  2  0
  5 10  1  0
 10 11  1  0
 10 12  1  0
 10 13  1  0
  9 14  1  0
M  END

$$$$
No_166-/dssg/home/sw_qyf/PocketFlow/Model-Generation-Results/5HT2A_7WC7_rec_A_10.pdb/2024-01-01-03-54-21/
     RDKit          3D

 35 37  0  0  0  0  0  0  0  0999 V2000
  -23.1746  -16.6014  144.8668 C   0  0  0  0  0  0  0  0  0  0  0  0
  -23.7011  -17.0158  145.9774 C   0  0  0  0  0  0  0  0  0  0  0  0
  -24.2134  -16.0722  146.8877 C   0  0  0  0  0  0  0  0  0  0  0  0
  -23.3742  -15.2706  144.3922 C   0  0  0  0  0  0  0  0  0  0  0  0
  -24.0445  -14.2973  145.2608 C   0  0  0  0  0  0  0  0  0  0  0  0
  -24.4773  -14.7066  146.5258 C   0  0  0  0  0  0  0  0  0  0  0  0
  -24.2317  -12.9652  145.0636 N   0  0  0  0  0  0  0  0  0  0  0  0
  -25.3361  -12.3586  145.1542 C   0  0  0  0  0  0  0  0  0  0  0  0
  -25.9135  -12.2293  146.0901 C   0  0  0  0  0  0  0  0  0  0  0  0
  -27.0550  -11.2326  146.2022 C   0  0  0  0  0  0  0  0  0  0  0  0
  -27.4694  -10.7006  145.0053 C   0  0  0  0  0  0  0  0  0  0  0  0
  -28.6394   -9.8554  144.9511 C   0  0  0  0  0  0  0  0  0  0  0  0
  -29.7719  -10.2927  145.5763 C   0  0  0  0  0  0  0  0  0  0  0  0
  -22.9249  -12.2663  145.1266 C   0  0  0  0  0  0  0  0  0  0  0  0
  -29.5813  -10.8940  146.6901 F   0  0  0  0  0  0  0  0  0  0  0  0
  -30.7177   -9.2724  145.7674 F   0  0  0  0  0  0  0  0  0  0  0  0
  -23.5090  -18.4280  146.4360 C   0  0  0  0  0  0  0  0  0  0  0  0
  -24.2926  -18.8925  147.2935 O   0  0  0  0  0  0  0  0  0  0  0  0
  -22.5725  -19.1181  146.0750 O   0  0  0  0  0  0  0  0  0  0  0  0
  -30.3377  -11.1697  144.7674 F   0  0  0  0  0  0  0  0  0  0  0  0
  -26.6543  -10.9570  143.8949 C   0  0  0  0  0  0  0  0  0  0  0  0
  -27.0124  -10.3250  142.8809 O   0  0  0  0  0  0  0  0  0  0  0  0
  -25.5900  -11.7883  144.0049 C   0  0  0  0  0  0  0  0  0  0  0  0
  -27.5389  -11.0284  141.7926 C   0  0  0  0  0  0  0  0  0  0  0  0
  -27.6773  -10.3818  140.6157 C   0  0  0  0  0  0  0  0  0  0  0  0
  -28.2770   -9.0887  140.4879 C   0  0  0  0  0  0  0  0  0  0  0  0
  -28.4123   -8.4600  139.1996 C   0  0  0  0  0  0  0  0  0  0  0  0
  -28.1800   -9.2225  138.0549 C   0  0  0  0  0  0  0  0  0  0  0  0
  -27.8996  -10.6240  138.2129 C   0  0  0  0  0  0  0  0  0  0  0  0
  -27.6110  -11.1379  139.4996 C   0  0  0  0  0  0  0  0  0  0  0  0
  -27.2420  -12.4400  139.4895 N   0  0  0  0  0  0  0  0  0  0  0  0
  -28.4919   -8.6687  136.8837 N   0  0  0  0  0  0  0  0  0  0  0  0
  -26.1989  -13.0072  139.9655 N   0  0  0  0  0  0  0  0  0  0  0  0
  -28.9980   -6.8555  139.2188 Cl  0  0  0  0  0  0  0  0  0  0  0  0
  -21.8723  -12.7483  144.2552 C   0  0  0  0  0  0  0  0  0  0  0  0
  5  7  1  0
  7  8  1  0
 11 12  1  0
 12 13  1  0
  7 14  1  0
 13 15  1  0
 13 16  1  0
  2 17  1  0
 17 18  2  0
 17 19  1  0
 13 20  1  0
 21 22  1  0
 22 24  1  0
 30 31  1  0
 28 32  1  0
 31 33  1  0
 27 34  1  0
 14 35  1  0
 24 25  1  0
 25 26  2  0
 26 27  1  0
 27 28  2  0
 28 29  1  0
 29 30  2  0
 30 25  1  0
  1  2  2  0
  2  3  1  0
  3  6  2  0
  6  5  1  0
  5  4  2  0
  4  1  1  0
  8  9  2  0
  9 10  1  0
 10 11  2  0
 11 21  1  0
 21 23  2  0
 23  8  1  0
M  END

$$$$
No_167-/dssg/home/sw_qyf/PocketFlow/Model-Generation-Results/5HT2A_7WC7_rec_A_10.pdb/2024-01-01-03-54-21/
     RDKit          3D

 25 26  0  0  0  0  0  0  0  0999 V2000
  -23.1746  -16.6014  144.8668 C   0  0  0  0  0  0  0  0  0  0  0  0
  -24.0189  -16.0564  145.8445 C   0  0  0  0  0  0  0  0  0  0  0  0
  -24.4145  -16.8299  146.9062 C   0  0  0  0  0  0  0  0  0  0  0  0
  -25.2730  -16.2838  147.9150 C   0  0  0  0  0  0  0  0  0  0  0  0
  -25.7557  -17.0717  149.0071 C   0  0  0  0  0  0  0  0  0  0  0  0
  -24.4328  -14.6402  145.6929 C   0  0  0  0  0  0  0  0  0  0  0  0
  -25.1201  -14.2093  144.8877 C   0  0  0  0  0  0  0  0  0  0  0  0
  -26.8260  -16.5387  149.7389 C   0  0  0  0  0  0  0  0  0  0  0  0
  -25.7035  -12.9273  144.8569 C   0  0  0  0  0  0  0  0  0  0  0  0
  -25.2360  -11.9643  145.7808 C   0  0  0  0  0  0  0  0  0  0  0  0
  -26.0484  -10.7446  145.9104 C   0  0  0  0  0  0  0  0  0  0  0  0
  -27.0215  -10.4900  144.9272 C   0  0  0  0  0  0  0  0  0  0  0  0
  -27.4141  -11.3992  143.9801 C   0  0  0  0  0  0  0  0  0  0  0  0
  -26.7318  -12.6384  143.9284 C   0  0  0  0  0  0  0  0  0  0  0  0
  -28.5209  -11.0623  143.0927 C   0  0  0  0  0  0  0  0  0  0  0  0
  -28.3214  -11.1170  141.6996 C   0  0  0  0  0  0  0  0  0  0  0  0
  -27.9843  -12.2592  140.9747 C   0  0  0  0  0  0  0  0  0  0  0  0
  -27.7199  -12.1770  139.5920 C   0  0  0  0  0  0  0  0  0  0  0  0
  -27.7340  -10.9146  138.9445 C   0  0  0  0  0  0  0  0  0  0  0  0
  -28.0097   -9.7617  139.6666 C   0  0  0  0  0  0  0  0  0  0  0  0
  -28.3051   -9.8623  141.0856 C   0  0  0  0  0  0  0  0  0  0  0  0
  -24.7804  -18.2545  146.6250 C   0  0  0  0  0  0  0  0  0  0  0  0
  -28.0897   -8.4893  138.9875 C   0  0  0  0  0  0  0  0  0  0  0  0
  -27.8669   -8.3803  137.6528 C   0  0  0  0  0  0  0  0  0  0  0  0
  -29.3512   -7.7030  139.5475 C   0  0  0  0  0  0  0  0  0  0  0  0
  1  2  1  0
  2  3  1  0
  3  4  1  0
  4  5  2  3
  2  6  1  0
  6  7  2  3
  5  8  1  0
  7  9  1  0
 13 15  1  0
  3 22  1  0
 20 23  1  0
 23 24  1  0
 23 25  1  0
 15 16  1  0
  9 10  2  0
 10 11  1  0
 11 12  2  0
 12 13  1  0
 13 14  2  0
 14  9  1  0
 16 17  2  0
 17 18  1  0
 18 19  2  0
 19 20  1  0
 20 21  2  0
 21 16  1  0
M  END

$$$$
No_168-/dssg/home/sw_qyf/PocketFlow/Model-Generation-Results/5HT2A_7WC7_rec_A_10.pdb/2024-01-01-03-54-21/
     RDKit          3D

 34 36  0  0  0  0  0  0  0  0999 V2000
  -24.1553  -17.8465  145.7021 C   0  0  0  0  0  0  0  0  0  0  0  0
  -24.2855  -16.6364  145.3494 C   0  0  0  0  0  0  0  0  0  0  0  0
  -25.0033  -15.6772  146.0737 C   0  0  0  0  0  0  0  0  0  0  0  0
  -24.8869  -14.2981  145.8377 C   0  0  0  0  0  0  0  0  0  0  0  0
  -24.0151  -13.8866  144.8228 C   0  0  0  0  0  0  0  0  0  0  0  0
  -24.9248  -18.3616  146.7606 C   0  0  0  0  0  0  0  0  0  0  0  0
  -23.2541  -14.8094  144.1367 C   0  0  0  0  0  0  0  0  0  0  0  0
  -23.3492  -16.1053  144.3514 C   0  0  0  0  0  0  0  0  0  0  0  0
  -25.6838  -17.4848  147.5491 C   0  0  0  0  0  0  0  0  0  0  0  0
  -25.7061  -16.1601  147.2925 C   0  0  0  0  0  0  0  0  0  0  0  0
  -25.6274  -13.2758  146.6156 C   0  0  0  0  0  0  0  0  0  0  0  0
  -26.9698  -13.0390  146.2100 C   0  0  0  0  0  0  0  0  0  0  0  0
  -27.1414  -12.3055  145.2227 C   0  0  0  0  0  0  0  0  0  0  0  0
  -26.6557  -12.4692  143.9694 C   0  0  0  0  0  0  0  0  0  0  0  0
  -27.3221  -12.0024  142.7756 C   0  0  0  0  0  0  0  0  0  0  0  0
  -27.2610  -12.5950  141.5219 C   0  0  0  0  0  0  0  0  0  0  0  0
  -27.9668  -12.0659  140.4563 C   0  0  0  0  0  0  0  0  0  0  0  0
  -27.4943  -12.3147  139.1118 C   0  0  0  0  0  0  0  0  0  0  0  0
  -28.1823  -11.1880  145.2353 C   0  0  0  0  0  0  0  0  0  0  0  0
  -28.6674  -10.5116  144.1057 C   0  0  0  0  0  0  0  0  0  0  0  0
  -28.2017  -10.9638  142.8708 C   0  0  0  0  0  0  0  0  0  0  0  0
  -26.0625  -12.3531  138.9632 C   0  0  0  0  0  0  0  0  0  0  0  0
  -29.6662   -9.4321  144.2001 C   0  0  0  0  0  0  0  0  0  0  0  0
  -29.8149   -8.6393  143.1497 N   0  0  0  0  0  0  0  0  0  0  0  0
  -30.9718   -7.9890  142.8675 C   0  0  0  0  0  0  0  0  0  0  0  0
  -31.6234   -8.4359  141.5900 C   0  0  0  0  0  0  0  0  0  0  0  0
  -30.6845   -9.6278  145.0362 O   0  0  0  0  0  0  0  0  0  0  0  0
  -25.4232  -11.7216  138.2520 O   0  0  0  0  0  0  0  0  0  0  0  0
  -25.5131  -13.5818  139.3661 O   0  0  0  0  0  0  0  0  0  0  0  0
  -27.8569  -13.9418  146.6767 O   0  0  0  0  0  0  0  0  0  0  0  0
  -28.7778  -13.5067  147.5880 C   0  0  0  0  0  0  0  0  0  0  0  0
  -29.6213  -14.5543  148.1929 C   0  0  0  0  0  0  0  0  0  0  0  0
  -29.4406  -15.8516  147.7163 C   0  0  0  0  0  0  0  0  0  0  0  0
  -28.6590  -16.1376  146.6039 C   0  0  0  0  0  0  0  0  0  0  0  0
  4 11  1  0
 11 12  1  0
 12 13  1  0
 15 16  1  0
 16 17  1  0
 17 18  1  0
 18 22  1  0
 20 23  1  0
 23 24  1  0
 24 25  1  0
 25 26  1  0
 23 27  2  0
 22 28  2  0
 22 29  1  0
 12 30  1  0
 30 31  1  0
 31 32  2  3
 32 33  1  0
 33 34  1  0
  1  2  2  0
  3 10  2  0
 10  9  1  0
  9  6  2  0
  6  1  1  0
  2  3  1  0
  3  4  1  0
  4  5  2  0
  5  7  1  0
  7  8  2  0
  8  2  1  0
 13 14  2  0
 14 15  1  0
 15 21  2  0
 21 20  1  0
 20 19  2  0
 19 13  1  0
M  END

$$$$
No_169-/dssg/home/sw_qyf/PocketFlow/Model-Generation-Results/5HT2A_7WC7_rec_A_10.pdb/2024-01-01-03-54-21/
     RDKit          3D

 35 39  0  0  0  0  0  0  0  0999 V2000
  -23.1746  -16.6014  144.8668 C   0  0  0  0  0  0  0  0  0  0  0  0
  -24.0189  -16.0564  145.8445 C   0  0  0  0  0  0  0  0  0  0  0  0
  -24.4850  -14.7380  145.6359 C   0  0  0  0  0  0  0  0  0  0  0  0
  -25.3334  -14.0797  146.6105 C   0  0  0  0  0  0  0  0  0  0  0  0
  -25.7120  -12.7595  146.4431 C   0  0  0  0  0  0  0  0  0  0  0  0
  -25.3190  -11.9841  145.3047 C   0  0  0  0  0  0  0  0  0  0  0  0
  -24.3451  -12.6067  144.4930 C   0  0  0  0  0  0  0  0  0  0  0  0
  -23.9468  -13.9401  144.7201 C   0  0  0  0  0  0  0  0  0  0  0  0
  -24.4836  -16.8193  146.9469 C   0  0  0  0  0  0  0  0  0  0  0  0
  -24.0177  -18.0902  147.1454 C   0  0  0  0  0  0  0  0  0  0  0  0
  -23.3950  -18.7491  146.1530 C   0  0  0  0  0  0  0  0  0  0  0  0
  -22.9628  -18.0872  145.0523 C   0  0  0  0  0  0  0  0  0  0  0  0
  -25.7438  -10.6384  145.1148 C   0  0  0  0  0  0  0  0  0  0  0  0
  -27.0644  -10.5531  144.4179 C   0  0  0  0  0  0  0  0  0  0  0  0
  -27.4043   -9.6725  143.5102 C   0  0  0  0  0  0  0  0  0  0  0  0
  -28.6523   -9.4869  142.9260 C   0  0  0  0  0  0  0  0  0  0  0  0
  -29.7472   -9.9608  143.7132 C   0  0  0  0  0  0  0  0  0  0  0  0
  -31.0470   -9.7893  143.2363 C   0  0  0  0  0  0  0  0  0  0  0  0
  -31.3339   -8.4325  142.8549 C   0  0  0  0  0  0  0  0  0  0  0  0
  -30.4340   -7.9018  141.8355 C   0  0  0  0  0  0  0  0  0  0  0  0
  -29.5230   -8.5338  141.5583 C   0  0  0  0  0  0  0  0  0  0  0  0
  -29.3913  -10.8568  144.7860 C   0  0  0  0  0  0  0  0  0  0  0  0
  -28.1159  -11.0683  145.1981 C   0  0  0  0  0  0  0  0  0  0  0  0
  -28.6420   -8.6888  140.4645 C   0  0  0  0  0  0  0  0  0  0  0  0
  -27.8177   -9.6575  140.1623 N   0  0  0  0  0  0  0  0  0  0  0  0
  -28.9362   -7.7818  139.3292 C   0  0  0  0  0  0  0  0  0  0  0  0
  -28.2867   -8.0564  138.1343 C   0  0  0  0  0  0  0  0  0  0  0  0
  -27.1354   -9.8820  139.0682 C   0  0  0  0  0  0  0  0  0  0  0  0
  -27.4626   -9.0425  138.0779 N   0  0  0  0  0  0  0  0  0  0  0  0
  -26.3830  -10.8725  138.9828 F   0  0  0  0  0  0  0  0  0  0  0  0
  -23.0273  -14.3603  143.8620 O   0  0  0  0  0  0  0  0  0  0  0  0
  -25.1175  -16.2223  148.0091 O   0  0  0  0  0  0  0  0  0  0  0  0
  -25.1516  -16.9045  149.2075 C   0  0  0  0  0  0  0  0  0  0  0  0
  -26.4816  -17.4364  149.5630 C   0  0  0  0  0  0  0  0  0  0  0  0
  -26.5223  -18.2902  151.0092 Cl  0  0  0  0  0  0  0  0  0  0  0  0
  6 13  1  0
 13 14  1  0
 21 24  1  0
 28 30  1  0
  8 31  1  0
  9 32  1  0
 32 33  1  0
 33 34  1  0
 34 35  1  0
  2  3  1  0
 14 15  2  0
 15 16  1  0
 17 22  1  0
 22 23  2  0
 23 14  1  0
  3  4  2  0
  4  5  1  0
  5  6  2  0
  6  7  1  0
  7  8  2  0
  8  3  1  0
  1  2  2  0
  2  9  1  0
  9 10  2  0
 10 11  1  0
 11 12  2  0
 12  1  1  0
 24 25  2  0
 25 28  1  0
 28 29  2  0
 29 27  1  0
 27 26  2  0
 26 24  1  0
 16 17  2  0
 17 18  1  0
 18 19  2  0
 19 20  1  0
 20 21  2  0
 21 16  1  0
M  END

$$$$
No_170-/dssg/home/sw_qyf/PocketFlow/Model-Generation-Results/5HT2A_7WC7_rec_A_10.pdb/2024-01-01-03-54-21/
     RDKit          3D

 32 37  0  0  0  0  0  0  0  0999 V2000
  -23.1746  -16.6014  144.8668 C   0  0  0  0  0  0  0  0  0  0  0  0
  -23.7011  -17.0158  145.9774 C   0  0  0  0  0  0  0  0  0  0  0  0
  -24.7095  -16.6222  146.3578 C   0  0  0  0  0  0  0  0  0  0  0  0
  -25.2589  -16.9410  147.8028 C   0  0  0  0  0  0  0  0  0  0  0  0
  -26.4622  -16.4173  148.3314 C   0  0  0  0  0  0  0  0  0  0  0  0
  -23.7737  -15.4555  144.2384 C   0  0  0  0  0  0  0  0  0  0  0  0
  -24.8785  -14.8392  144.8305 C   0  0  0  0  0  0  0  0  0  0  0  0
  -25.3633  -15.3910  146.0026 C   0  0  0  0  0  0  0  0  0  0  0  0
  -27.1855  -15.4410  147.6073 C   0  0  0  0  0  0  0  0  0  0  0  0
  -26.5865  -14.8558  146.4698 C   0  0  0  0  0  0  0  0  0  0  0  0
  -27.3049  -13.7591  145.8651 C   0  0  0  0  0  0  0  0  0  0  0  0
  -26.8575  -12.9875  144.8212 C   0  0  0  0  0  0  0  0  0  0  0  0
  -25.5952  -13.6911  144.1674 C   0  0  0  0  0  0  0  0  0  0  0  0
  -27.4324  -11.9982  144.1149 C   0  0  0  0  0  0  0  0  0  0  0  0
  -27.6179  -11.6901  142.8222 C   0  0  0  0  0  0  0  0  0  0  0  0
  -28.4114  -10.6285  142.3587 C   0  0  0  0  0  0  0  0  0  0  0  0
  -28.6907  -10.3234  141.0194 C   0  0  0  0  0  0  0  0  0  0  0  0
  -28.1264  -11.1427  140.1247 C   0  0  0  0  0  0  0  0  0  0  0  0
  -27.3351  -12.3125  140.4840 C   0  0  0  0  0  0  0  0  0  0  0  0
  -27.1406  -12.5788  141.8282 C   0  0  0  0  0  0  0  0  0  0  0  0
  -24.6739  -17.9592  148.4706 O   0  0  0  0  0  0  0  0  0  0  0  0
  -29.1824   -9.6608  143.2616 C   0  0  0  0  0  0  0  0  0  0  0  0
  -29.3752   -8.4090  142.9541 C   0  0  0  0  0  0  0  0  0  0  0  0
  -28.8014   -7.8453  141.8338 C   0  0  0  0  0  0  0  0  0  0  0  0
  -29.2394   -6.5400  141.3759 C   0  0  0  0  0  0  0  0  0  0  0  0
  -29.0659   -6.1384  140.0710 C   0  0  0  0  0  0  0  0  0  0  0  0
  -28.6228   -7.1475  139.1756 C   0  0  0  0  0  0  0  0  0  0  0  0
  -28.5236   -6.9586  137.8411 C   0  0  0  0  0  0  0  0  0  0  0  0
  -28.0466   -8.1196  137.0780 C   0  0  0  0  0  0  0  0  0  0  0  0
  -28.5767   -8.3679  140.0361 C   0  0  0  0  0  0  0  0  0  0  0  0
  -28.7007   -8.9361  140.8437 O   0  0  0  0  0  0  0  0  0  0  0  0
  -28.5408   -9.4139  137.7039 C   0  0  0  0  0  0  0  0  0  0  0  0
 10 11  1  0
 11 12  1  0
  7 13  1  0
 12 13  1  0
 12 14  1  0
  4 21  1  0
 16 22  1  0
 22 23  2  0
 23 24  1  0
 24 25  1  0
 25 26  1  0
 26 27  2  0
 27 28  1  0
 28 29  1  0
 24 30  1  0
 27 30  1  0
 17 31  1  0
 30 31  1  0
 29 32  1  0
 14 15  1  0
 15 16  2  0
 16 17  1  0
 17 18  2  0
 18 19  1  0
 19 20  2  0
 20 15  1  0
  1  2  2  0
  2  3  1  0
  8  7  1  0
  7  6  2  0
  6  1  1  0
  3  4  2  0
  4  5  1  0
  5  9  2  0
  9 10  1  0
 10  8  2  0
  8  3  1  0
M  END

$$$$
No_171-/dssg/home/sw_qyf/PocketFlow/Model-Generation-Results/5HT2A_7WC7_rec_A_10.pdb/2024-01-01-03-54-21/
     RDKit          3D

 31 32  0  0  0  0  0  0  0  0999 V2000
  -23.1746  -16.6014  144.8668 C   0  0  0  0  0  0  0  0  0  0  0  0
  -23.8963  -15.5346  144.7885 C   0  0  0  0  0  0  0  0  0  0  0  0
  -24.5755  -15.0383  145.9043 C   0  0  0  0  0  0  0  0  0  0  0  0
  -25.6726  -15.0536  146.1073 C   0  0  0  0  0  0  0  0  0  0  0  0
  -23.3810  -17.3233  146.1036 C   0  0  0  0  0  0  0  0  0  0  0  0
  -26.1028  -15.6735  147.4434 C   0  0  0  0  0  0  0  0  0  0  0  0
  -27.4566  -15.8194  147.8023 C   0  0  0  0  0  0  0  0  0  0  0  0
  -28.4150  -15.2500  146.9861 C   0  0  0  0  0  0  0  0  0  0  0  0
  -28.0256  -14.5907  145.8578 C   0  0  0  0  0  0  0  0  0  0  0  0
  -26.7762  -14.5547  145.4002 C   0  0  0  0  0  0  0  0  0  0  0  0
  -24.4660  -17.7247  146.4953 C   0  0  0  0  0  0  0  0  0  0  0  0
  -24.4930  -18.6309  147.7183 C   0  0  0  0  0  0  0  0  0  0  0  0
  -26.4526  -13.8585  144.1860 C   0  0  0  0  0  0  0  0  0  0  0  0
  -27.6952  -13.3395  143.4540 C   0  0  0  0  0  0  0  0  0  0  0  0
  -27.3798  -12.6845  142.1634 C   0  0  0  0  0  0  0  0  0  0  0  0
  -28.3080  -12.6191  141.3631 C   0  0  0  0  0  0  0  0  0  0  0  0
  -27.9153  -12.3405  139.9085 C   0  0  0  0  0  0  0  0  0  0  0  0
  -26.5120  -12.2062  139.6327 C   0  0  0  0  0  0  0  0  0  0  0  0
  -26.2629  -12.4963  138.2432 C   0  0  0  0  0  0  0  0  0  0  0  0
  -25.0006  -12.7478  138.0875 O   0  0  0  0  0  0  0  0  0  0  0  0
  -29.8151  -15.2541  147.5451 C   0  0  0  0  0  0  0  0  0  0  0  0
  -30.4710  -13.9321  147.4310 C   0  0  0  0  0  0  0  0  0  0  0  0
  -30.6468  -13.2258  148.7749 C   0  0  0  0  0  0  0  0  0  0  0  0
  -31.0220  -11.8400  148.5546 C   0  0  0  0  0  0  0  0  0  0  0  0
  -31.0165  -11.5754  147.1312 C   0  0  0  0  0  0  0  0  0  0  0  0
  -30.2056  -12.7354  146.5929 C   0  0  0  0  0  0  0  0  0  0  0  0
  -30.0444  -10.3852  147.0223 O   0  0  0  0  0  0  0  0  0  0  0  0
  -30.1734   -9.9296  145.6730 C   0  0  0  0  0  0  0  0  0  0  0  0
  -29.1930  -10.2862  144.7334 C   0  0  0  0  0  0  0  0  0  0  0  0
  -29.1889   -9.7468  143.4285 C   0  0  0  0  0  0  0  0  0  0  0  0
  -28.2346   -9.6674  142.7415 C   0  0  0  0  0  0  0  0  0  0  0  0
  1  2  1  0
  2  3  1  0
  1  5  1  0
  5 11  2  3
 11 12  1  0
 10 13  1  0
 13 14  1  0
 14 15  1  0
 15 16  1  0
 16 17  1  0
 17 18  1  0
 18 19  1  0
 19 20  1  0
  8 21  1  0
 21 22  1  0
 22 23  1  0
 23 24  1  0
 24 25  1  0
 22 26  1  0
 25 26  1  0
 25 27  1  0
 27 28  1  0
 28 29  1  0
 29 30  2  3
 30 31  1  0
  3  4  1  0
  4  6  2  0
  6  7  1  0
  7  8  2  0
  8  9  1  0
  9 10  2  0
 10  4  1  0
M  END

$$$$
No_172-/dssg/home/sw_qyf/PocketFlow/Model-Generation-Results/5HT2A_7WC7_rec_A_10.pdb/2024-01-01-03-54-21/
     RDKit          3D

 35 38  0  0  0  0  0  0  0  0999 V2000
  -24.1553  -17.8465  145.7021 C   0  0  0  0  0  0  0  0  0  0  0  0
  -24.2856  -16.6364  145.3494 C   0  0  0  0  0  0  0  0  0  0  0  0
  -25.0033  -15.6772  146.0737 C   0  0  0  0  0  0  0  0  0  0  0  0
  -24.8869  -14.2981  145.8377 C   0  0  0  0  0  0  0  0  0  0  0  0
  -24.0230  -13.8996  144.7516 C   0  0  0  0  0  0  0  0  0  0  0  0
  -24.9285  -18.3589  146.7591 C   0  0  0  0  0  0  0  0  0  0  0  0
  -23.2387  -14.8170  144.0919 C   0  0  0  0  0  0  0  0  0  0  0  0
  -23.3448  -16.1149  144.3263 C   0  0  0  0  0  0  0  0  0  0  0  0
  -25.6758  -17.4655  147.5535 C   0  0  0  0  0  0  0  0  0  0  0  0
  -25.7289  -16.1202  147.2873 C   0  0  0  0  0  0  0  0  0  0  0  0
  -25.6013  -13.2601  146.5870 C   0  0  0  0  0  0  0  0  0  0  0  0
  -25.0904  -11.9185  146.5364 C   0  0  0  0  0  0  0  0  0  0  0  0
  -24.9433  -11.4782  145.1872 C   0  0  0  0  0  0  0  0  0  0  0  0
  -25.0918  -10.1316  144.9622 C   0  0  0  0  0  0  0  0  0  0  0  0
  -24.3240  -12.4693  144.3169 C   0  0  0  0  0  0  0  0  0  0  0  0
  -26.6528   -9.8781  144.9188 C   0  0  0  0  0  0  0  0  0  0  0  0
  -27.4797  -10.2711  143.8874 C   0  0  0  0  0  0  0  0  0  0  0  0
  -27.7121  -11.5558  143.7117 C   0  0  0  0  0  0  0  0  0  0  0  0
  -28.5133  -11.9641  142.5682 C   0  0  0  0  0  0  0  0  0  0  0  0
  -28.1797  -11.1759  141.3786 C   0  0  0  0  0  0  0  0  0  0  0  0
  -28.6129  -11.2089  140.3037 C   0  0  0  0  0  0  0  0  0  0  0  0
  -28.1002  -10.3764  139.2179 C   0  0  0  0  0  0  0  0  0  0  0  0
  -28.3071   -9.1705  139.1049 C   0  0  0  0  0  0  0  0  0  0  0  0
  -27.7252   -8.3422  138.0907 C   0  0  0  0  0  0  0  0  0  0  0  0
  -29.2026   -8.3957  140.0775 C   0  0  0  0  0  0  0  0  0  0  0  0
  -30.4384   -8.7280  140.4113 C   0  0  0  0  0  0  0  0  0  0  0  0
  -30.8757   -8.1970  141.7876 C   0  0  0  0  0  0  0  0  0  0  0  0
  -30.1839   -8.6353  142.8528 C   0  0  0  0  0  0  0  0  0  0  0  0
  -31.0205   -8.7372  144.1299 C   0  0  0  0  0  0  0  0  0  0  0  0
  -30.4476   -9.1872  145.1966 O   0  0  0  0  0  0  0  0  0  0  0  0
  -23.5860  -18.7993  144.9718 O   0  0  0  0  0  0  0  0  0  0  0  0
  -32.1853   -8.5154  143.9951 O   0  0  0  0  0  0  0  0  0  0  0  0
  -27.1912   -8.7134  137.2421 O   0  0  0  0  0  0  0  0  0  0  0  0
  -27.2974   -9.9691  141.8228 C   0  0  0  0  0  0  0  0  0  0  0  0
  -26.8193   -9.6495  142.7846 O   0  0  0  0  0  0  0  0  0  0  0  0
  4 11  1  0
 11 12  1  0
 12 13  1  0
 13 14  1  0
  5 15  1  0
 13 15  1  0
 14 16  1  0
 16 17  1  0
 17 18  2  0
 18 19  1  0
 19 20  1  0
 20 21  1  0
 21 22  1  0
 22 23  2  3
 23 24  1  0
 23 25  1  0
 25 26  1  0
 26 27  1  0
 27 28  1  0
 28 29  1  0
 29 30  1  0
  1 31  1  0
 29 32  2  0
 24 33  1  0
 20 34  1  0
 17 35  1  0
 34 35  1  0
  1  2  2  0
  3 10  2  0
 10  9  1  0
  9  6  2  0
  6  1  1  0
  2  3  1  0
  3  4  1  0
  4  5  2  0
  5  7  1  0
  7  8  2  0
  8  2  1  0
M  END

$$$$
No_173-/dssg/home/sw_qyf/PocketFlow/Model-Generation-Results/5HT2A_7WC7_rec_A_10.pdb/2024-01-01-03-54-21/
     RDKit          3D

 12 13  0  0  0  0  0  0  0  0999 V2000
  -23.1746  -16.6014  144.8668 C   0  0  0  0  0  0  0  0  0  0  0  0
  -23.7011  -17.0158  145.9774 C   0  0  0  0  0  0  0  0  0  0  0  0
  -23.7336  -18.2775  146.3737 C   0  0  0  0  0  0  0  0  0  0  0  0
  -24.1960  -18.6445  147.6858 C   0  0  0  0  0  0  0  0  0  0  0  0
  -24.7100  -17.6145  148.5486 C   0  0  0  0  0  0  0  0  0  0  0  0
  -24.7929  -16.2635  148.0870 C   0  0  0  0  0  0  0  0  0  0  0  0
  -24.2508  -15.9434  146.8891 C   0  0  0  0  0  0  0  0  0  0  0  0
  -23.2387  -15.3709  144.4144 O   0  0  0  0  0  0  0  0  0  0  0  0
  -24.1583  -14.6263  145.0214 C   0  0  0  0  0  0  0  0  0  0  0  0
  -24.4075  -14.6351  146.4295 C   0  0  0  0  0  0  0  0  0  0  0  0
  -24.5995  -13.3558  144.2876 C   0  0  0  0  0  0  0  0  0  0  0  0
  -24.4015  -12.3067  144.8048 O   0  0  0  0  0  0  0  0  0  0  0  0
  1  2  1  0
  1  8  1  0
  8  9  1  0
  7 10  1  0
  9 10  1  0
  9 11  1  0
 11 12  1  0
  2  3  2  0
  3  4  1  0
  4  5  2  0
  5  6  1  0
  6  7  2  0
  7  2  1  0
M  END

$$$$
No_174-/dssg/home/sw_qyf/PocketFlow/Model-Generation-Results/5HT2A_7WC7_rec_A_10.pdb/2024-01-01-03-54-21/
     RDKit          3D

  8  8  0  0  0  0  0  0  0  0999 V2000
  -23.1746  -16.6014  144.8668 C   0  0  0  0  0  0  0  0  0  0  0  0
  -24.0189  -16.0564  145.8445 C   0  0  0  0  0  0  0  0  0  0  0  0
  -25.3176  -15.9168  145.6822 C   0  0  0  0  0  0  0  0  0  0  0  0
  -26.1692  -16.6799  146.4632 C   0  0  0  0  0  0  0  0  0  0  0  0
  -27.6295  -16.5109  146.3615 C   0  0  0  0  0  0  0  0  0  0  0  0
  -28.0110  -15.3282  145.7069 C   0  0  0  0  0  0  0  0  0  0  0  0
  -27.0922  -14.4405  145.1851 C   0  0  0  0  0  0  0  0  0  0  0  0
  -25.7066  -14.7589  145.1469 C   0  0  0  0  0  0  0  0  0  0  0  0
  1  2  1  0
  2  3  1  0
  3  4  2  0
  4  5  1  0
  5  6  2  0
  6  7  1  0
  7  8  2  0
  8  3  1  0
M  END

$$$$
No_175-/dssg/home/sw_qyf/PocketFlow/Model-Generation-Results/5HT2A_7WC7_rec_A_10.pdb/2024-01-01-03-54-21/
     RDKit          3D

 35 38  0  0  0  0  0  0  0  0999 V2000
  -24.1553  -17.8465  145.7021 C   0  0  0  0  0  0  0  0  0  0  0  0
  -24.2856  -16.6364  145.3494 C   0  0  0  0  0  0  0  0  0  0  0  0
  -24.7211  -15.5955  146.2115 C   0  0  0  0  0  0  0  0  0  0  0  0
  -25.1322  -16.0374  147.5372 C   0  0  0  0  0  0  0  0  0  0  0  0
  -24.5163  -18.2968  146.9928 C   0  0  0  0  0  0  0  0  0  0  0  0
  -24.9666  -17.1397  147.7409 C   0  0  0  0  0  0  0  0  0  0  0  0
  -24.8886  -14.1567  145.9534 C   0  0  0  0  0  0  0  0  0  0  0  0
  -25.8451  -13.5147  145.8168 C   0  0  0  0  0  0  0  0  0  0  0  0
  -25.8941  -12.0805  145.5806 C   0  0  0  0  0  0  0  0  0  0  0  0
  -24.6636  -11.4151  145.3786 C   0  0  0  0  0  0  0  0  0  0  0  0
  -23.6162  -13.2464  145.6705 C   0  0  0  0  0  0  0  0  0  0  0  0
  -23.6129  -12.0276  145.4377 C   0  0  0  0  0  0  0  0  0  0  0  0
  -27.2522  -11.3710  145.5739 C   0  0  0  0  0  0  0  0  0  0  0  0
  -28.3288  -11.9039  146.1870 C   0  0  0  0  0  0  0  0  0  0  0  0
  -29.6018  -11.2614  146.1504 C   0  0  0  0  0  0  0  0  0  0  0  0
  -30.5740  -11.6154  146.9545 N   0  0  0  0  0  0  0  0  0  0  0  0
  -29.7900  -10.3663  145.1764 N   0  0  0  0  0  0  0  0  0  0  0  0
  -23.9167  -16.1686  144.0739 N   0  0  0  0  0  0  0  0  0  0  0  0
  -28.9231  -10.1480  144.2029 C   0  0  0  0  0  0  0  0  0  0  0  0
  -27.4879  -10.5734  144.4172 C   0  0  0  0  0  0  0  0  0  0  0  0
  -29.1460   -9.2096  143.1338 C   0  0  0  0  0  0  0  0  0  0  0  0
  -29.5068   -7.9417  143.2533 C   0  0  0  0  0  0  0  0  0  0  0  0
  -29.8206   -7.1578  142.1026 C   0  0  0  0  0  0  0  0  0  0  0  0
  -29.6371   -7.7081  140.8527 C   0  0  0  0  0  0  0  0  0  0  0  0
  -29.1842   -9.6196  141.6978 C   0  0  0  0  0  0  0  0  0  0  0  0
  -29.3095   -8.9185  140.6991 C   0  0  0  0  0  0  0  0  0  0  0  0
  -28.7219  -11.1084  141.7278 C   0  0  0  0  0  0  0  0  0  0  0  0
  -27.5133  -11.3744  140.8686 C   0  0  0  0  0  0  0  0  0  0  0  0
  -27.7704  -12.1492  139.7159 C   0  0  0  0  0  0  0  0  0  0  0  0
  -26.5981  -12.1442  138.8150 C   0  0  0  0  0  0  0  0  0  0  0  0
  -29.9009   -6.6484  139.5004 Cl  0  0  0  0  0  0  0  0  0  0  0  0
  -25.5604  -12.2365  139.3642 O   0  0  0  0  0  0  0  0  0  0  0  0
  -26.9080  -12.3393  137.5691 O   0  0  0  0  0  0  0  0  0  0  0  0
  -30.4082  -12.5434  148.0462 C   0  0  0  0  0  0  0  0  0  0  0  0
  -29.8043  -13.7517  147.7150 C   0  0  0  0  0  0  0  0  0  0  0  0
  3  7  1  0
  9 13  1  0
 15 16  1  0
  2 18  1  0
 19 21  1  0
 25 27  1  0
 27 28  1  0
 28 29  1  0
 29 30  1  0
 24 31  1  0
 30 32  1  0
 30 33  2  0
 16 34  2  3
 34 35  1  0
  7  8  2  0
  8  9  1  0
  9 10  2  0
 10 12  1  0
 12 11  2  0
 11  7  1  0
 21 22  2  0
 22 23  1  0
 23 24  2  0
 24 26  1  0
 26 25  2  0
 25 21  1  0
 13 14  2  0
 14 15  1  0
 15 17  2  0
 17 19  1  0
 19 20  2  0
 20 13  1  0
  1  2  2  0
  2  3  1  0
  3  4  2  0
  4  6  1  0
  6  5  2  0
  5  1  1  0
M  END

$$$$
No_176-/dssg/home/sw_qyf/PocketFlow/Model-Generation-Results/5HT2A_7WC7_rec_A_10.pdb/2024-01-01-03-54-21/
     RDKit          3D

 15 16  0  0  0  0  0  0  0  0999 V2000
  -23.1746  -16.6014  144.8668 C   0  0  0  0  0  0  0  0  0  0  0  0
  -23.7011  -17.0158  145.9774 C   0  0  0  0  0  0  0  0  0  0  0  0
  -24.2593  -16.1244  146.9100 C   0  0  0  0  0  0  0  0  0  0  0  0
  -24.5135  -14.7390  146.5020 C   0  0  0  0  0  0  0  0  0  0  0  0
  -24.4304  -14.5343  145.3801 C   0  0  0  0  0  0  0  0  0  0  0  0
  -23.5471  -15.2883  144.4748 C   0  0  0  0  0  0  0  0  0  0  0  0
  -24.6130  -13.0230  144.8991 C   0  0  0  0  0  0  0  0  0  0  0  0
  -24.8659  -12.0724  145.9760 C   0  0  0  0  0  0  0  0  0  0  0  0
  -26.0605  -11.2708  145.6550 C   0  0  0  0  0  0  0  0  0  0  0  0
  -26.7462  -11.5515  144.4949 C   0  0  0  0  0  0  0  0  0  0  0  0
  -26.8513  -12.8783  144.1817 C   0  0  0  0  0  0  0  0  0  0  0  0
  -25.7556  -13.0493  144.0270 O   0  0  0  0  0  0  0  0  0  0  0  0
  -28.2628  -10.9527  144.6790 C   0  0  0  0  0  0  0  0  0  0  0  0
  -28.6321   -9.8717  143.8571 C   0  0  0  0  0  0  0  0  0  0  0  0
  -27.8694   -9.3731  142.8046 C   0  0  0  0  0  0  0  0  0  0  0  0
  5  7  1  0
  7  8  1  0
  8  9  1  0
  9 10  1  0
 10 11  1  0
  7 12  1  0
 11 12  1  0
 10 13  1  0
 13 14  2  3
 14 15  1  0
  1  2  2  0
  2  3  1  0
  3  4  2  0
  4  5  1  0
  5  6  2  0
  6  1  1  0
M  END

$$$$
No_177-/dssg/home/sw_qyf/PocketFlow/Model-Generation-Results/5HT2A_7WC7_rec_A_10.pdb/2024-01-01-03-54-21/
     RDKit          3D

 33 35  0  0  0  0  0  0  0  0999 V2000
  -23.1746  -16.6014  144.8668 C   0  0  0  0  0  0  0  0  0  0  0  0
  -23.7011  -17.0158  145.9774 C   0  0  0  0  0  0  0  0  0  0  0  0
  -24.7096  -16.6222  146.3577 C   0  0  0  0  0  0  0  0  0  0  0  0
  -25.2589  -16.9410  147.8027 C   0  0  0  0  0  0  0  0  0  0  0  0
  -26.4623  -16.4173  148.3314 C   0  0  0  0  0  0  0  0  0  0  0  0
  -23.7746  -15.4747  144.2302 C   0  0  0  0  0  0  0  0  0  0  0  0
  -24.8824  -14.8618  144.8182 C   0  0  0  0  0  0  0  0  0  0  0  0
  -25.3598  -15.4040  145.9867 C   0  0  0  0  0  0  0  0  0  0  0  0
  -27.0316  -16.9543  149.4434 C   0  0  0  0  0  0  0  0  0  0  0  0
  -25.4520  -13.7794  144.1619 N   0  0  0  0  0  0  0  0  0  0  0  0
  -25.8049  -12.7023  144.8969 C   0  0  0  0  0  0  0  0  0  0  0  0
  -25.0149  -12.2009  145.6266 O   0  0  0  0  0  0  0  0  0  0  0  0
  -27.2060  -12.1919  144.7057 C   0  0  0  0  0  0  0  0  0  0  0  0
  -27.7252  -11.5327  143.6809 C   0  0  0  0  0  0  0  0  0  0  0  0
  -29.0118  -10.8959  143.7485 C   0  0  0  0  0  0  0  0  0  0  0  0
  -29.6917  -10.9143  145.0588 C   0  0  0  0  0  0  0  0  0  0  0  0
  -29.0507  -11.5229  146.1793 C   0  0  0  0  0  0  0  0  0  0  0  0
  -27.7984  -12.1456  146.0656 C   0  0  0  0  0  0  0  0  0  0  0  0
  -29.6762  -10.2766  142.6678 C   0  0  0  0  0  0  0  0  0  0  0  0
  -30.8892  -10.3320  142.7458 F   0  0  0  0  0  0  0  0  0  0  0  0
  -29.1254  -10.8291  141.5261 F   0  0  0  0  0  0  0  0  0  0  0  0
  -28.9971   -8.9867  142.5414 F   0  0  0  0  0  0  0  0  0  0  0  0
  -26.2229  -17.6674  150.3932 C   0  0  0  0  0  0  0  0  0  0  0  0
  -24.8704  -17.9676  150.0456 C   0  0  0  0  0  0  0  0  0  0  0  0
  -24.4607  -17.7213  148.7832 C   0  0  0  0  0  0  0  0  0  0  0  0
  -29.8251  -11.5884  147.4917 C   0  0  0  0  0  0  0  0  0  0  0  0
  -30.3095  -12.9478  147.8525 C   0  0  0  0  0  0  0  0  0  0  0  0
  -29.6018  -14.0801  147.3904 C   0  0  0  0  0  0  0  0  0  0  0  0
  -29.3408  -14.4524  146.2280 C   0  0  0  0  0  0  0  0  0  0  0  0
  -28.7948  -15.7459  146.0110 C   0  0  0  0  0  0  0  0  0  0  0  0
  -31.3209  -12.9629  148.9117 C   0  0  0  0  0  0  0  0  0  0  0  0
  -32.1991  -12.1315  148.9521 O   0  0  0  0  0  0  0  0  0  0  0  0
  -31.2328  -13.8829  149.8061 O   0  0  0  0  0  0  0  0  0  0  0  0
  3  4  1  0
  7 10  1  0
 10 11  1  0
 11 12  2  0
 11 13  1  0
 15 19  1  0
 19 20  1  0
 19 21  1  0
 19 22  1  0
 17 26  1  0
 26 27  1  0
 27 28  2  3
 28 29  1  0
 29 30  1  0
 27 31  1  0
 31 32  2  0
 31 33  1  0
  4  5  2  0
  5  9  1  0
  9 23  2  0
 23 24  1  0
 24 25  2  0
 25  4  1  0
 13 14  2  0
 14 15  1  0
 15 16  2  0
 16 17  1  0
 17 18  2  0
 18 13  1  0
  1  2  2  0
  2  3  1  0
  3  8  2  0
  8  7  1  0
  7  6  2  0
  6  1  1  0
M  END

$$$$
No_178-/dssg/home/sw_qyf/PocketFlow/Model-Generation-Results/5HT2A_7WC7_rec_A_10.pdb/2024-01-01-03-54-21/
     RDKit          3D

 19 21  0  0  0  0  0  0  0  0999 V2000
  -24.1553  -17.8465  145.7021 C   0  0  0  0  0  0  0  0  0  0  0  0
  -24.6364  -17.2931  146.7091 C   0  0  0  0  0  0  0  0  0  0  0  0
  -24.5709  -15.9334  146.8074 C   0  0  0  0  0  0  0  0  0  0  0  0
  -24.3883  -15.1807  145.6115 C   0  0  0  0  0  0  0  0  0  0  0  0
  -24.5560  -13.7894  145.5018 C   0  0  0  0  0  0  0  0  0  0  0  0
  -23.4836  -12.9897  145.0641 C   0  0  0  0  0  0  0  0  0  0  0  0
  -23.7527  -17.2171  144.5471 C   0  0  0  0  0  0  0  0  0  0  0  0
  -23.8713  -15.8194  144.5541 C   0  0  0  0  0  0  0  0  0  0  0  0
  -25.8866  -13.2539  145.2810 C   0  0  0  0  0  0  0  0  0  0  0  0
  -26.1910  -12.0044  145.7630 C   0  0  0  0  0  0  0  0  0  0  0  0
  -23.6311  -11.5323  145.5132 C   0  0  0  0  0  0  0  0  0  0  0  0
  -25.0880  -10.9662  145.4844 C   0  0  0  0  0  0  0  0  0  0  0  0
  -24.0134  -19.3910  145.6897 C   0  0  0  0  0  0  0  0  0  0  0  0
  -27.5808  -11.4134  145.5426 C   0  0  0  0  0  0  0  0  0  0  0  0
  -28.6099  -11.8631  146.3355 C   0  0  0  0  0  0  0  0  0  0  0  0
  -29.8992  -11.3623  146.2383 C   0  0  0  0  0  0  0  0  0  0  0  0
  -30.0839  -10.4853  145.3852 N   0  0  0  0  0  0  0  0  0  0  0  0
  -29.1939  -10.0110  144.4603 C   0  0  0  0  0  0  0  0  0  0  0  0
  -27.8499  -10.5388  144.5538 C   0  0  0  0  0  0  0  0  0  0  0  0
  1  2  1  0
  2  3  1  0
  3  4  1  0
  4  5  1  0
  1  7  1  0
  4  8  1  0
  7  8  1  0
  1 13  1  0
 10 14  1  0
 14 15  2  0
 15 16  1  0
 16 17  2  0
 17 18  1  0
 18 19  2  0
 19 14  1  0
  5  6  2  0
  6 11  1  0
 11 12  2  0
 12 10  1  0
 10  9  2  0
  9  5  1  0
M  END

$$$$
No_179-/dssg/home/sw_qyf/PocketFlow/Model-Generation-Results/5HT2A_7WC7_rec_A_10.pdb/2024-01-01-03-54-21/
     RDKit          3D

  9  9  0  0  0  0  0  0  0  0999 V2000
  -24.1553  -17.8465  145.7021 C   0  0  0  0  0  0  0  0  0  0  0  0
  -23.9795  -18.4462  146.7426 C   0  0  0  0  0  0  0  0  0  0  0  0
  -25.1196  -16.8106  145.6409 C   0  0  0  0  0  0  0  0  0  0  0  0
  -25.9236  -16.5070  146.7422 C   0  0  0  0  0  0  0  0  0  0  0  0
  -26.9588  -15.5563  146.6458 C   0  0  0  0  0  0  0  0  0  0  0  0
  -28.0525  -15.5152  147.4931 C   0  0  0  0  0  0  0  0  0  0  0  0
  -28.1134  -16.4791  148.5451 C   0  0  0  0  0  0  0  0  0  0  0  0
  -24.6719  -18.1419  147.9917 C   0  0  0  0  0  0  0  0  0  0  0  0
  -25.7205  -17.1765  147.9619 C   0  0  0  0  0  0  0  0  0  0  0  0
  4  5  1  0
  5  6  1  0
  6  7  1  0
  1  2  2  0
  2  8  1  0
  8  9  2  0
  9  4  1  0
  4  3  2  0
  3  1  1  0
M  END

$$$$
No_180-/dssg/home/sw_qyf/PocketFlow/Model-Generation-Results/5HT2A_7WC7_rec_A_10.pdb/2024-01-01-03-54-21/
     RDKit          3D

 10 10  0  0  0  0  0  0  0  0999 V2000
  -24.1553  -17.8465  145.7021 C   0  0  0  0  0  0  0  0  0  0  0  0
  -24.2856  -16.6364  145.3494 C   0  0  0  0  0  0  0  0  0  0  0  0
  -24.7837  -15.7223  145.8474 C   0  0  0  0  0  0  0  0  0  0  0  0
  -24.8736  -14.2869  145.3929 C   0  0  0  0  0  0  0  0  0  0  0  0
  -23.9241  -14.0298  144.3752 C   0  0  0  0  0  0  0  0  0  0  0  0
  -24.4984  -18.1953  146.7446 C   0  0  0  0  0  0  0  0  0  0  0  0
  -25.2864  -17.3552  147.6223 C   0  0  0  0  0  0  0  0  0  0  0  0
  -25.3445  -15.9785  147.2365 C   0  0  0  0  0  0  0  0  0  0  0  0
  -22.9424  -12.9552  144.7534 C   0  0  0  0  0  0  0  0  0  0  0  0
  -22.1541  -12.2879  143.8740 C   0  0  0  0  0  0  0  0  0  0  0  0
  3  4  1  0
  4  5  3  0
  5  9  1  0
  9 10  2  0
  1  2  2  0
  2  3  1  0
  3  8  2  0
  8  7  1  0
  7  6  2  0
  6  1  1  0
M  END

$$$$
No_181-/dssg/home/sw_qyf/PocketFlow/Model-Generation-Results/5HT2A_7WC7_rec_A_10.pdb/2024-01-01-03-54-21/
     RDKit          3D

 26 28  0  0  0  0  0  0  0  0999 V2000
  -24.1553  -17.8465  145.7021 C   0  0  0  0  0  0  0  0  0  0  0  0
  -24.2856  -16.6364  145.3494 C   0  0  0  0  0  0  0  0  0  0  0  0
  -23.7824  -15.9602  144.3553 C   0  0  0  0  0  0  0  0  0  0  0  0
  -23.9871  -14.5276  144.1537 C   0  0  0  0  0  0  0  0  0  0  0  0
  -24.7876  -13.8357  145.1352 C   0  0  0  0  0  0  0  0  0  0  0  0
  -25.3945  -14.5459  146.1755 C   0  0  0  0  0  0  0  0  0  0  0  0
  -25.0741  -15.8908  146.3327 C   0  0  0  0  0  0  0  0  0  0  0  0
  -24.8307  -18.4158  146.7539 C   0  0  0  0  0  0  0  0  0  0  0  0
  -25.5167  -17.7424  147.6562 C   0  0  0  0  0  0  0  0  0  0  0  0
  -25.6721  -16.5338  147.5222 C   0  0  0  0  0  0  0  0  0  0  0  0
  -24.9986  -12.3967  144.9549 C   0  0  0  0  0  0  0  0  0  0  0  0
  -24.4733  -11.6266  146.1696 C   0  0  0  0  0  0  0  0  0  0  0  0
  -26.3918  -12.0325  144.7201 C   0  0  0  0  0  0  0  0  0  0  0  0
  -26.6145  -10.8476  144.0056 C   0  0  0  0  0  0  0  0  0  0  0  0
  -28.1010  -10.4028  143.9275 C   0  0  0  0  0  0  0  0  0  0  0  0
  -28.6554   -9.7910  142.8539 C   0  0  0  0  0  0  0  0  0  0  0  0
  -30.0076   -9.2911  143.0462 C   0  0  0  0  0  0  0  0  0  0  0  0
  -30.6110   -9.4282  144.3490 C   0  0  0  0  0  0  0  0  0  0  0  0
  -30.0029  -10.0528  145.3937 C   0  0  0  0  0  0  0  0  0  0  0  0
  -28.6893  -10.5174  145.2640 C   0  0  0  0  0  0  0  0  0  0  0  0
  -30.6993   -8.6973  141.9490 C   0  0  0  0  0  0  0  0  0  0  0  0
  -31.9239   -8.4521  142.0092 N   0  0  0  0  0  0  0  0  0  0  0  0
  -30.1029   -8.5500  140.8706 F   0  0  0  0  0  0  0  0  0  0  0  0
  -22.9017  -13.8130  143.7686 O   0  0  0  0  0  0  0  0  0  0  0  0
  -28.1239   -9.7685  141.7920 F   0  0  0  0  0  0  0  0  0  0  0  0
  -23.3400  -18.9585  144.5954 Cl  0  0  0  0  0  0  0  0  0  0  0  0
  5 11  1  0
 11 12  1  0
 11 13  1  0
 13 14  1  0
 14 15  1  0
 17 21  1  0
 21 22  1  0
 21 23  1  0
  4 24  1  0
 16 25  1  0
  1 26  1  0
 15 16  2  0
 16 17  1  0
 17 18  2  0
 18 19  1  0
 19 20  2  0
 20 15  1  0
  2  3  1  0
  3  4  2  0
  4  5  1  0
  5  6  2  0
  6  7  1  0
  1  2  2  0
  2  7  1  0
  7 10  2  0
 10  9  1  0
  9  8  2  0
  8  1  1  0
M  END

$$$$
No_182-/dssg/home/sw_qyf/PocketFlow/Model-Generation-Results/5HT2A_7WC7_rec_A_10.pdb/2024-01-01-03-54-21/
     RDKit          3D

 34 35  0  0  0  0  0  0  0  0999 V2000
  -23.1746  -16.6014  144.8668 C   0  0  0  0  0  0  0  0  0  0  0  0
  -23.8963  -15.5346  144.7885 C   0  0  0  0  0  0  0  0  0  0  0  0
  -25.0304  -15.2549  144.5358 C   0  0  0  0  0  0  0  0  0  0  0  0
  -25.6045  -13.9524  144.2294 C   0  0  0  0  0  0  0  0  0  0  0  0
  -24.8624  -12.8904  144.6738 C   0  0  0  0  0  0  0  0  0  0  0  0
  -23.5278  -13.1645  145.1476 C   0  0  0  0  0  0  0  0  0  0  0  0
  -23.0148  -14.3796  145.1899 C   0  0  0  0  0  0  0  0  0  0  0  0
  -22.5831  -16.9027  145.7988 F   0  0  0  0  0  0  0  0  0  0  0  0
  -24.2717  -17.6016  144.6106 F   0  0  0  0  0  0  0  0  0  0  0  0
  -27.0166  -13.7684  143.8422 C   0  0  0  0  0  0  0  0  0  0  0  0
  -27.0419  -13.1543  142.4928 C   0  0  0  0  0  0  0  0  0  0  0  0
  -27.4969  -11.8366  142.3634 C   0  0  0  0  0  0  0  0  0  0  0  0
  -28.0713  -11.0834  143.4270 C   0  0  0  0  0  0  0  0  0  0  0  0
  -28.7669   -9.8556  143.1503 C   0  0  0  0  0  0  0  0  0  0  0  0
  -28.8894   -9.3873  141.8696 C   0  0  0  0  0  0  0  0  0  0  0  0
  -28.3293  -10.1814  140.8481 C   0  0  0  0  0  0  0  0  0  0  0  0
  -27.7281  -11.3571  141.0532 C   0  0  0  0  0  0  0  0  0  0  0  0
  -29.5230   -8.1103  141.6620 C   0  0  0  0  0  0  0  0  0  0  0  0
  -29.5394   -7.5507  140.4691 N   0  0  0  0  0  0  0  0  0  0  0  0
  -29.7771   -7.2723  142.6808 O   0  0  0  0  0  0  0  0  0  0  0  0
  -27.2112  -12.1310  139.9160 C   0  0  0  0  0  0  0  0  0  0  0  0
  -26.0537  -12.5364  139.9021 O   0  0  0  0  0  0  0  0  0  0  0  0
  -28.0151  -12.1967  138.8127 N   0  0  0  0  0  0  0  0  0  0  0  0
  -22.7048  -11.9143  145.4941 C   0  0  0  0  0  0  0  0  0  0  0  0
  -29.4018   -8.1583  139.2703 C   0  0  0  0  0  0  0  0  0  0  0  0
  -28.0891   -7.9463  138.6831 C   0  0  0  0  0  0  0  0  0  0  0  0
  -27.9888   -8.2808  137.2417 C   0  0  0  0  0  0  0  0  0  0  0  0
  -29.0475   -9.2194  137.0031 F   0  0  0  0  0  0  0  0  0  0  0  0
  -28.4583   -7.1541  136.6264 F   0  0  0  0  0  0  0  0  0  0  0  0
  -22.4385  -16.7388  143.7548 F   0  0  0  0  0  0  0  0  0  0  0  0
  -21.9451  -11.4785  144.6078 O   0  0  0  0  0  0  0  0  0  0  0  0
  -27.0180   -8.8637  139.1530 O   0  0  0  0  0  0  0  0  0  0  0  0
  -22.3881  -11.8878  146.7804 O   0  0  0  0  0  0  0  0  0  0  0  0
  -29.2379   -9.1402  144.1782 O   0  0  0  0  0  0  0  0  0  0  0  0
  1  2  1  0
  1  8  1  0
  1  9  1  0
  4 10  1  0
 10 11  1  0
 15 18  1  0
 18 19  1  0
 18 20  2  0
 17 21  1  0
 21 22  2  0
 21 23  1  0
  6 24  1  0
 19 25  1  0
 25 26  1  0
 26 27  1  0
 27 28  1  0
 27 29  1  0
  1 30  1  0
 24 31  1  0
 26 32  1  0
 24 33  2  0
 14 34  1  0
 11 12  1  0
 12 13  2  0
 13 14  1  0
 14 15  2  0
 15 16  1  0
 16 17  2  0
 17 12  1  0
  2  3  2  0
  3  4  1  0
  4  5  2  0
  5  6  1  0
  6  7  2  0
  7  2  1  0
M  END

$$$$
No_183-/dssg/home/sw_qyf/PocketFlow/Model-Generation-Results/5HT2A_7WC7_rec_A_10.pdb/2024-01-01-03-54-21/
     RDKit          3D

 20 21  0  0  0  0  0  0  0  0999 V2000
  -23.1746  -16.6014  144.8668 C   0  0  0  0  0  0  0  0  0  0  0  0
  -23.7011  -17.0158  145.9774 C   0  0  0  0  0  0  0  0  0  0  0  0
  -24.2134  -16.0722  146.8877 C   0  0  0  0  0  0  0  0  0  0  0  0
  -24.5407  -14.7704  146.3552 C   0  0  0  0  0  0  0  0  0  0  0  0
  -24.9626  -13.7061  147.1333 C   0  0  0  0  0  0  0  0  0  0  0  0
  -23.3779  -15.3434  144.3588 C   0  0  0  0  0  0  0  0  0  0  0  0
  -23.9101  -14.3616  145.1708 C   0  0  0  0  0  0  0  0  0  0  0  0
  -25.5686  -12.6236  146.3289 C   0  0  0  0  0  0  0  0  0  0  0  0
  -25.0917  -12.2193  145.1591 C   0  0  0  0  0  0  0  0  0  0  0  0
  -24.3640  -13.2201  144.4504 C   0  0  0  0  0  0  0  0  0  0  0  0
  -23.4728  -18.2492  146.4784 F   0  0  0  0  0  0  0  0  0  0  0  0
  -26.0689  -11.5320  144.3637 O   0  0  0  0  0  0  0  0  0  0  0  0
  -27.2630  -11.9206  144.3937 C   0  0  0  0  0  0  0  0  0  0  0  0
  -28.0937  -11.1693  143.4696 C   0  0  0  0  0  0  0  0  0  0  0  0
  -27.9819  -11.1867  142.1336 C   0  0  0  0  0  0  0  0  0  0  0  0
  -28.7997  -10.4384  141.2976 C   0  0  0  0  0  0  0  0  0  0  0  0
  -29.8116   -9.5907  141.9113 C   0  0  0  0  0  0  0  0  0  0  0  0
  -29.9848   -9.6116  143.3166 C   0  0  0  0  0  0  0  0  0  0  0  0
  -29.0805  -10.3942  144.1131 C   0  0  0  0  0  0  0  0  0  0  0  0
  -30.9654   -8.6261  143.8120 C   0  0  0  0  0  0  0  0  0  0  0  0
  1  2  1  0
  2  3  1  0
  3  4  1  0
  1  6  1  0
  6  7  1  0
  2 11  1  0
  9 12  1  0
 12 13  1  0
 13 14  2  3
 14 15  1  0
 15 16  2  3
 16 17  1  0
 17 18  2  3
 14 19  1  0
 18 20  1  0
  4  5  2  0
  5  8  1  0
  8  9  2  0
  9 10  1  0
 10  7  2  0
  7  4  1  0
M  END

$$$$
No_184-/dssg/home/sw_qyf/PocketFlow/Model-Generation-Results/5HT2A_7WC7_rec_A_10.pdb/2024-01-01-03-54-21/
     RDKit          3D

 21 21  0  0  0  0  0  0  0  0999 V2000
  -23.1746  -16.6014  144.8668 C   0  0  0  0  0  0  0  0  0  0  0  0
  -23.8963  -15.5346  144.7885 C   0  0  0  0  0  0  0  0  0  0  0  0
  -24.5755  -15.0383  145.9043 C   0  0  0  0  0  0  0  0  0  0  0  0
  -25.0618  -13.6819  146.0347 C   0  0  0  0  0  0  0  0  0  0  0  0
  -26.1211  -13.2239  146.2655 C   0  0  0  0  0  0  0  0  0  0  0  0
  -23.3988  -17.5289  145.9572 C   0  0  0  0  0  0  0  0  0  0  0  0
  -24.0509  -17.0603  147.1196 C   0  0  0  0  0  0  0  0  0  0  0  0
  -24.6392  -15.7936  147.1455 C   0  0  0  0  0  0  0  0  0  0  0  0
  -26.5137  -11.8030  146.2495 C   0  0  0  0  0  0  0  0  0  0  0  0
  -23.9309  -12.5789  146.2076 C   0  0  0  0  0  0  0  0  0  0  0  0
  -26.9769  -11.3763  144.9704 C   0  0  0  0  0  0  0  0  0  0  0  0
  -27.7488  -10.1746  144.9235 C   0  0  0  0  0  0  0  0  0  0  0  0
  -28.3258   -9.7300  143.6615 C   0  0  0  0  0  0  0  0  0  0  0  0
  -29.0376  -10.2956  143.0364 C   0  0  0  0  0  0  0  0  0  0  0  0
  -30.0235  -11.1211  143.4501 C   0  0  0  0  0  0  0  0  0  0  0  0
  -28.9012  -10.3108  141.5242 C   0  0  0  0  0  0  0  0  0  0  0  0
  -29.0643   -9.1112  140.8050 C   0  0  0  0  0  0  0  0  0  0  0  0
  -29.6967   -7.9785  141.2981 C   0  0  0  0  0  0  0  0  0  0  0  0
  -30.4980   -7.8817  142.4885 C   0  0  0  0  0  0  0  0  0  0  0  0
  -30.3304   -6.9220  143.4886 C   0  0  0  0  0  0  0  0  0  0  0  0
  -32.0127   -8.0456  142.1303 C   0  0  0  0  0  0  0  0  0  0  0  0
  3  4  1  0
  4  5  2  3
  5  9  1  0
  4 10  1  0
  9 11  1  0
 11 12  1  0
 12 13  2  3
 13 14  1  0
 14 15  1  0
 14 16  1  0
 16 17  2  3
 17 18  1  0
 18 19  1  0
 19 20  1  0
 19 21  1  0
  1  2  2  0
  2  3  1  0
  3  8  2  0
  8  7  1  0
  7  6  2  0
  6  1  1  0
M  END

$$$$
No_185-/dssg/home/sw_qyf/PocketFlow/Model-Generation-Results/5HT2A_7WC7_rec_A_10.pdb/2024-01-01-03-54-21/
     RDKit          3D

 35 38  0  0  0  0  0  0  0  0999 V2000
  -23.1746  -16.6014  144.8668 C   0  0  0  0  0  0  0  0  0  0  0  0
  -23.8963  -15.5346  144.7885 C   0  0  0  0  0  0  0  0  0  0  0  0
  -25.3063  -15.4625  144.8521 C   0  0  0  0  0  0  0  0  0  0  0  0
  -26.0192  -14.2249  144.6050 C   0  0  0  0  0  0  0  0  0  0  0  0
  -26.6274  -13.6680  145.2524 C   0  0  0  0  0  0  0  0  0  0  0  0
  -27.2443  -12.3229  145.0049 C   0  0  0  0  0  0  0  0  0  0  0  0
  -27.4770  -11.3995  146.0869 C   0  0  0  0  0  0  0  0  0  0  0  0
  -27.4731  -11.9202  143.6986 C   0  0  0  0  0  0  0  0  0  0  0  0
  -28.3982  -11.0121  143.5428 C   0  0  0  0  0  0  0  0  0  0  0  0
  -28.1411   -9.9098  142.7672 C   0  0  0  0  0  0  0  0  0  0  0  0
  -28.9789   -8.7140  142.9160 C   0  0  0  0  0  0  0  0  0  0  0  0
  -30.0017   -8.5413  142.0894 C   0  0  0  0  0  0  0  0  0  0  0  0
  -29.6142   -8.4339  140.6865 C   0  0  0  0  0  0  0  0  0  0  0  0
  -30.2708   -7.6801  139.7368 C   0  0  0  0  0  0  0  0  0  0  0  0
  -23.9694  -17.7900  145.3561 C   0  0  0  0  0  0  0  0  0  0  0  0
  -25.2537  -17.6286  145.8282 C   0  0  0  0  0  0  0  0  0  0  0  0
  -25.9422  -16.4706  145.5239 C   0  0  0  0  0  0  0  0  0  0  0  0
  -28.3713   -9.0778  140.2718 C   0  0  0  0  0  0  0  0  0  0  0  0
  -27.7959   -9.9680  141.3589 C   0  0  0  0  0  0  0  0  0  0  0  0
  -31.3202   -8.0529  142.4326 C   0  0  0  0  0  0  0  0  0  0  0  0
  -31.4865   -7.3400  143.4334 O   0  0  0  0  0  0  0  0  0  0  0  0
  -27.3524  -16.1844  145.7137 C   0  0  0  0  0  0  0  0  0  0  0  0
  -27.6981  -14.7571  145.9360 C   0  0  0  0  0  0  0  0  0  0  0  0
  -27.9744   -9.1811  139.0033 C   0  0  0  0  0  0  0  0  0  0  0  0
  -28.5293   -8.2801  138.0772 C   0  0  0  0  0  0  0  0  0  0  0  0
  -28.1301   -8.2625  136.8329 N   0  0  0  0  0  0  0  0  0  0  0  0
  -29.7945   -7.5921  138.5585 C   0  0  0  0  0  0  0  0  0  0  0  0
  -23.1739  -14.3764  144.9978 O   0  0  0  0  0  0  0  0  0  0  0  0
  -22.8475  -13.6386  143.8570 C   0  0  0  0  0  0  0  0  0  0  0  0
  -32.2513   -8.5658  141.7492 O   0  0  0  0  0  0  0  0  0  0  0  0
  -28.8985  -14.3236  146.6497 C   0  0  0  0  0  0  0  0  0  0  0  0
  -29.5311  -15.2196  147.4883 C   0  0  0  0  0  0  0  0  0  0  0  0
  -30.3645  -14.5758  148.5357 C   0  0  0  0  0  0  0  0  0  0  0  0
  -30.6340  -13.1909  148.4948 C   0  0  0  0  0  0  0  0  0  0  0  0
  -29.8326  -12.3129  147.6846 C   0  0  0  0  0  0  0  0  0  0  0  0
  5  6  1  0
  6  7  1  0
  6  8  1  0
  8  9  1  0
 12 20  1  0
 20 21  1  0
 25 26  1  0
  2 28  1  0
 28 29  1  0
 20 30  2  0
 23 31  1  0
 31 32  1  0
 32 33  2  3
 33 34  1  0
 34 35  2  0
  9 10  1  0
  1  2  2  0
  2  3  1  0
 17 16  1  0
 16 15  2  0
 15  1  1  0
  3  4  2  0
  4  5  1  0
  5 23  2  0
 23 22  1  0
 22 17  2  0
 17  3  1  0
 10 11  2  0
 11 12  1  0
 12 13  2  0
 18 19  2  0
 19 10  1  0
 13 14  1  0
 14 27  2  0
 27 25  1  0
 25 24  2  0
 24 18  1  0
 18 13  1  0
M  END

$$$$
No_186-/dssg/home/sw_qyf/PocketFlow/Model-Generation-Results/5HT2A_7WC7_rec_A_10.pdb/2024-01-01-03-54-21/
     RDKit          3D

 13 14  0  0  0  0  0  0  0  0999 V2000
  -23.1746  -16.6014  144.8668 C   0  0  0  0  0  0  0  0  0  0  0  0
  -23.8963  -15.5346  144.7885 C   0  0  0  0  0  0  0  0  0  0  0  0
  -23.6398  -14.5115  145.3281 C   0  0  0  0  0  0  0  0  0  0  0  0
  -24.3240  -13.3648  145.1281 C   0  0  0  0  0  0  0  0  0  0  0  0
  -25.5072  -13.2953  144.4353 C   0  0  0  0  0  0  0  0  0  0  0  0
  -25.9151  -14.5889  143.8605 C   0  0  0  0  0  0  0  0  0  0  0  0
  -25.1243  -15.6356  144.0574 C   0  0  0  0  0  0  0  0  0  0  0  0
  -22.1163  -16.5787  145.2940 F   0  0  0  0  0  0  0  0  0  0  0  0
  -23.9026  -17.6730  145.6153 F   0  0  0  0  0  0  0  0  0  0  0  0
  -23.9308  -11.9453  145.7413 C   0  0  0  0  0  0  0  0  0  0  0  0
  -24.6299  -10.8973  145.4000 N   0  0  0  0  0  0  0  0  0  0  0  0
  -25.7768  -10.8518  144.6601 C   0  0  0  0  0  0  0  0  0  0  0  0
  -26.2460  -12.1322  144.1973 C   0  0  0  0  0  0  0  0  0  0  0  0
  1  2  1  0
  1  8  1  0
  1  9  1  0
  2  3  2  0
  3  4  1  0
  5  6  1  0
  6  7  2  0
  7  2  1  0
  4  5  2  0
  5 13  1  0
 13 12  2  0
 12 11  1  0
 11 10  2  0
 10  4  1  0
M  END

$$$$
No_187-/dssg/home/sw_qyf/PocketFlow/Model-Generation-Results/5HT2A_7WC7_rec_A_10.pdb/2024-01-01-03-54-21/
     RDKit          3D

 35 38  0  0  0  0  0  0  0  0999 V2000
  -24.1553  -17.8465  145.7021 C   0  0  0  0  0  0  0  0  0  0  0  0
  -24.6364  -17.2931  146.7091 C   0  0  0  0  0  0  0  0  0  0  0  0
  -25.8608  -16.5592  146.5934 C   0  0  0  0  0  0  0  0  0  0  0  0
  -26.9933  -16.9082  147.1889 C   0  0  0  0  0  0  0  0  0  0  0  0
  -28.2114  -16.1477  146.9896 C   0  0  0  0  0  0  0  0  0  0  0  0
  -28.1869  -14.8900  146.3591 C   0  0  0  0  0  0  0  0  0  0  0  0
  -26.9306  -14.4696  145.8021 C   0  0  0  0  0  0  0  0  0  0  0  0
  -25.7608  -15.2964  145.9443 C   0  0  0  0  0  0  0  0  0  0  0  0
  -26.8039  -13.1572  145.1459 C   0  0  0  0  0  0  0  0  0  0  0  0
  -26.7401  -13.1612  143.8598 C   0  0  0  0  0  0  0  0  0  0  0  0
  -25.8768  -14.0777  143.1464 C   0  0  0  0  0  0  0  0  0  0  0  0
  -24.0012  -17.5252  148.0355 C   0  0  0  0  0  0  0  0  0  0  0  0
  -23.3680  -16.4758  148.7039 C   0  0  0  0  0  0  0  0  0  0  0  0
  -27.5139  -12.3000  142.9957 C   0  0  0  0  0  0  0  0  0  0  0  0
  -27.5306  -12.2847  141.6031 C   0  0  0  0  0  0  0  0  0  0  0  0
  -28.3950  -11.5226  140.8431 C   0  0  0  0  0  0  0  0  0  0  0  0
  -27.9566  -11.1944  139.5101 C   0  0  0  0  0  0  0  0  0  0  0  0
  -27.1845  -12.2070  138.8645 C   0  0  0  0  0  0  0  0  0  0  0  0
  -26.2311  -12.8538  139.7179 C   0  0  0  0  0  0  0  0  0  0  0  0
  -26.5215  -13.0676  141.0241 C   0  0  0  0  0  0  0  0  0  0  0  0
  -25.7131  -13.8800  141.7854 N   0  0  0  0  0  0  0  0  0  0  0  0
  -23.7330  -17.1802  144.6782 O   0  0  0  0  0  0  0  0  0  0  0  0
  -24.1192  -19.1917  145.5401 N   0  0  0  0  0  0  0  0  0  0  0  0
  -22.6999  -16.9075  149.9612 C   0  0  0  0  0  0  0  0  0  0  0  0
  -29.4316  -10.6472  141.4620 C   0  0  0  0  0  0  0  0  0  0  0  0
  -29.3562   -9.2424  141.6056 C   0  0  0  0  0  0  0  0  0  0  0  0
  -30.3758   -8.4550  142.0867 C   0  0  0  0  0  0  0  0  0  0  0  0
  -31.5722   -8.9593  142.4965 C   0  0  0  0  0  0  0  0  0  0  0  0
  -30.1337   -6.9814  142.2002 C   0  0  0  0  0  0  0  0  0  0  0  0
  -29.5530   -6.5695  143.4776 C   0  0  0  0  0  0  0  0  0  0  0  0
  -32.1381   -9.9593  142.0188 O   0  0  0  0  0  0  0  0  0  0  0  0
  -28.6596   -5.4840  143.2204 C   0  0  0  0  0  0  0  0  0  0  0  0
  -29.0491   -4.5676  142.1851 C   0  0  0  0  0  0  0  0  0  0  0  0
  -29.3288   -5.1080  140.9802 C   0  0  0  0  0  0  0  0  0  0  0  0
  -29.8902   -6.3562  141.0647 C   0  0  0  0  0  0  0  0  0  0  0  0
  1  2  1  0
  2  3  1  0
  7  9  1  0
  9 10  1  0
  2 12  1  0
 12 13  1  0
  1 22  2  0
  1 23  1  0
 13 24  1  0
 16 25  1  0
 25 26  1  0
 26 27  1  0
 27 28  1  0
 27 29  1  0
 28 31  2  0
 15 16  1  0
 16 17  2  0
 17 18  1  0
 18 19  2  0
 19 20  1  0
 10 11  2  0
 11 21  1  0
 21 20  2  0
 20 15  1  0
 15 14  2  0
 14 10  1  0
  3  4  2  0
  4  5  1  0
  5  6  2  0
  6  7  1  0
  7  8  2  0
  8  3  1  0
 29 30  2  0
 30 32  1  0
 32 33  2  0
 33 34  1  0
 34 35  2  0
 35 29  1  0
M  END

$$$$
No_188-/dssg/home/sw_qyf/PocketFlow/Model-Generation-Results/5HT2A_7WC7_rec_A_10.pdb/2024-01-01-03-54-21/
     RDKit          3D

 18 19  0  0  0  0  0  0  0  0999 V2000
  -23.1746  -16.6014  144.8668 C   0  0  0  0  0  0  0  0  0  0  0  0
  -23.8963  -15.5346  144.7885 C   0  0  0  0  0  0  0  0  0  0  0  0
  -24.5755  -15.0383  145.9043 C   0  0  0  0  0  0  0  0  0  0  0  0
  -25.0618  -13.6819  146.0347 C   0  0  0  0  0  0  0  0  0  0  0  0
  -26.1212  -13.2239  146.2655 C   0  0  0  0  0  0  0  0  0  0  0  0
  -26.4709  -11.8231  146.0587 C   0  0  0  0  0  0  0  0  0  0  0  0
  -23.4391  -17.5341  145.9737 C   0  0  0  0  0  0  0  0  0  0  0  0
  -24.0908  -17.0613  147.1477 C   0  0  0  0  0  0  0  0  0  0  0  0
  -24.6564  -15.7836  147.1600 C   0  0  0  0  0  0  0  0  0  0  0  0
  -26.3239  -11.3377  144.9489 C   0  0  0  0  0  0  0  0  0  0  0  0
  -26.7387   -9.9518  144.8042 C   0  0  0  0  0  0  0  0  0  0  0  0
  -23.9623  -12.6293  145.6594 C   0  0  0  0  0  0  0  0  0  0  0  0
  -28.0298   -9.7698  144.0728 C   0  0  0  0  0  0  0  0  0  0  0  0
  -29.0519  -10.5353  144.6019 C   0  0  0  0  0  0  0  0  0  0  0  0
  -30.3145  -10.2010  144.0767 N   0  0  0  0  0  0  0  0  0  0  0  0
  -30.3087   -9.1838  143.2081 C   0  0  0  0  0  0  0  0  0  0  0  0
  -29.3301   -8.4778  142.7303 C   0  0  0  0  0  0  0  0  0  0  0  0
  -28.1862   -8.7230  143.2396 C   0  0  0  0  0  0  0  0  0  0  0  0
  3  4  1  0
  4  5  1  0
  5  6  2  3
  6 10  1  0
 10 11  1  0
  4 12  1  0
 11 13  1  0
 13 14  2  0
 14 15  1  0
 15 16  2  0
 16 17  1  0
 17 18  2  0
 18 13  1  0
  1  2  2  0
  2  3  1  0
  3  9  2  0
  9  8  1  0
  8  7  2  0
  7  1  1  0
M  END

$$$$
No_189-/dssg/home/sw_qyf/PocketFlow/Model-Generation-Results/5HT2A_7WC7_rec_A_10.pdb/2024-01-01-03-54-21/
     RDKit          3D

 15 16  0  0  0  0  0  0  0  0999 V2000
  -24.1553  -17.8465  145.7021 C   0  0  0  0  0  0  0  0  0  0  0  0
  -24.2856  -16.6364  145.3494 C   0  0  0  0  0  0  0  0  0  0  0  0
  -24.5733  -15.7651  145.9979 C   0  0  0  0  0  0  0  0  0  0  0  0
  -24.7088  -14.2765  145.5906 C   0  0  0  0  0  0  0  0  0  0  0  0
  -25.2269  -13.1991  146.2986 C   0  0  0  0  0  0  0  0  0  0  0  0
  -24.2801  -18.0885  146.9068 C   0  0  0  0  0  0  0  0  0  0  0  0
  -24.5749  -17.2049  147.9007 C   0  0  0  0  0  0  0  0  0  0  0  0
  -24.7181  -15.8028  147.4667 C   0  0  0  0  0  0  0  0  0  0  0  0
  -25.2562  -11.9125  145.8870 C   0  0  0  0  0  0  0  0  0  0  0  0
  -24.2346  -13.8683  144.2840 C   0  0  0  0  0  0  0  0  0  0  0  0
  -23.8041  -14.7339  143.5221 O   0  0  0  0  0  0  0  0  0  0  0  0
  -24.7625  -11.4858  144.7206 C   0  0  0  0  0  0  0  0  0  0  0  0
  -24.3041  -12.4358  143.9853 C   0  0  0  0  0  0  0  0  0  0  0  0
  -24.7507  -17.4907  149.3841 C   0  0  0  0  0  0  0  0  0  0  0  0
  -23.6208  -17.0660  150.6355 Br  0  0  0  0  0  0  0  0  0  0  0  0
  3  4  1  0
 10 11  1  0
  7 14  1  0
 14 15  1  0
  4  5  2  0
  5  9  1  0
  9 12  2  0
 12 13  1  0
 13 10  2  0
 10  4  1  0
  1  2  2  0
  2  3  1  0
  3  8  2  0
  8  7  1  0
  7  6  2  0
  6  1  1  0
M  END

$$$$
No_190-/dssg/home/sw_qyf/PocketFlow/Model-Generation-Results/5HT2A_7WC7_rec_A_10.pdb/2024-01-01-03-54-21/
     RDKit          3D

 35 35  0  0  0  0  0  0  0  0999 V2000
  -23.1746  -16.6014  144.8668 C   0  0  0  0  0  0  0  0  0  0  0  0
  -23.8963  -15.5346  144.7885 C   0  0  0  0  0  0  0  0  0  0  0  0
  -23.6398  -14.5115  145.3281 C   0  0  0  0  0  0  0  0  0  0  0  0
  -24.3866  -13.2477  145.3906 C   0  0  0  0  0  0  0  0  0  0  0  0
  -23.7392  -12.0982  145.9891 C   0  0  0  0  0  0  0  0  0  0  0  0
  -25.7153  -13.1102  144.9365 C   0  0  0  0  0  0  0  0  0  0  0  0
  -26.3727  -11.9055  145.3022 C   0  0  0  0  0  0  0  0  0  0  0  0
  -26.1346  -10.7324  144.8883 C   0  0  0  0  0  0  0  0  0  0  0  0
  -27.1086   -9.6532  145.1233 C   0  0  0  0  0  0  0  0  0  0  0  0
  -23.5334  -17.7537  145.5203 C   0  0  0  0  0  0  0  0  0  0  0  0
  -24.4273  -17.5019  146.6342 C   0  0  0  0  0  0  0  0  0  0  0  0
  -23.8425  -17.6453  147.8703 C   0  0  0  0  0  0  0  0  0  0  0  0
  -24.4475  -17.0457  149.0224 C   0  0  0  0  0  0  0  0  0  0  0  0
  -25.8309  -16.7405  148.9012 C   0  0  0  0  0  0  0  0  0  0  0  0
  -26.3784  -16.5653  147.6455 C   0  0  0  0  0  0  0  0  0  0  0  0
  -25.6511  -16.9627  146.5237 C   0  0  0  0  0  0  0  0  0  0  0  0
  -27.7816  -16.0405  147.6046 C   0  0  0  0  0  0  0  0  0  0  0  0
  -28.0245  -14.8937  146.8136 C   0  0  0  0  0  0  0  0  0  0  0  0
  -29.2306  -14.1470  147.0392 C   0  0  0  0  0  0  0  0  0  0  0  0
  -29.6046  -12.9455  146.4617 C   0  0  0  0  0  0  0  0  0  0  0  0
  -29.9045  -11.8159  147.4917 C   0  0  0  0  0  0  0  0  0  0  0  0
  -30.7883  -12.1375  148.4543 O   0  0  0  0  0  0  0  0  0  0  0  0
  -32.0257  -12.0712  148.5120 C   0  0  0  0  0  0  0  0  0  0  0  0
  -32.5838  -10.9804  149.1375 C   0  0  0  0  0  0  0  0  0  0  0  0
  -33.9466  -11.1474  149.8454 C   0  0  0  0  0  0  0  0  0  0  0  0
  -23.8193  -17.2553  150.3659 C   0  0  0  0  0  0  0  0  0  0  0  0
  -22.5497  -17.4098  150.4676 O   0  0  0  0  0  0  0  0  0  0  0  0
  -24.5964  -17.2026  151.4177 O   0  0  0  0  0  0  0  0  0  0  0  0
  -34.0826  -10.4545  150.8265 O   0  0  0  0  0  0  0  0  0  0  0  0
  -26.9991   -8.6964  144.0651 C   0  0  0  0  0  0  0  0  0  0  0  0
  -28.2233   -8.4070  143.3982 C   0  0  0  0  0  0  0  0  0  0  0  0
  -28.9591   -9.3386  142.8170 C   0  0  0  0  0  0  0  0  0  0  0  0
  -30.0715   -8.9848  142.0595 C   0  0  0  0  0  0  0  0  0  0  0  0
  -30.0722   -7.7329  141.4237 C   0  0  0  0  0  0  0  0  0  0  0  0
  -29.2966   -6.6748  142.0471 C   0  0  0  0  0  0  0  0  0  0  0  0
  1  2  1  0
  2  3  2  3
  3  4  1  0
  4  5  1  0
  4  6  1  0
  6  7  1  0
  7  8  2  3
  8  9  1  0
  1 10  1  0
 10 11  1  0
 15 17  1  0
 17 18  2  3
 18 19  1  0
 19 20  1  0
 20 21  1  0
 21 22  1  0
 22 23  1  0
 23 24  1  0
 24 25  1  0
 13 26  1  0
 26 27  2  0
 26 28  1  0
 25 29  1  0
  9 30  1  0
 30 31  1  0
 31 32  2  3
 32 33  1  0
 33 34  2  3
 34 35  1  0
 11 12  2  0
 12 13  1  0
 13 14  2  0
 14 15  1  0
 15 16  2  0
 16 11  1  0
M  END

$$$$
No_191-/dssg/home/sw_qyf/PocketFlow/Model-Generation-Results/5HT2A_7WC7_rec_A_10.pdb/2024-01-01-03-54-21/
     RDKit          3D

 14 14  0  0  0  0  0  0  0  0999 V2000
  -24.1553  -17.8465  145.7021 C   0  0  0  0  0  0  0  0  0  0  0  0
  -24.2856  -16.6364  145.3494 C   0  0  0  0  0  0  0  0  0  0  0  0
  -24.7211  -15.5955  146.2115 C   0  0  0  0  0  0  0  0  0  0  0  0
  -24.8539  -14.2010  145.8739 C   0  0  0  0  0  0  0  0  0  0  0  0
  -24.1440  -13.8321  144.7074 C   0  0  0  0  0  0  0  0  0  0  0  0
  -23.4275  -14.8130  143.9942 C   0  0  0  0  0  0  0  0  0  0  0  0
  -23.5366  -16.0900  144.3641 N   0  0  0  0  0  0  0  0  0  0  0  0
  -23.4871  -18.3821  146.7583 C   0  0  0  0  0  0  0  0  0  0  0  0
  -22.9826  -17.3528  147.5847 N   0  0  0  0  0  0  0  0  0  0  0  0
  -22.5788  -17.4839  148.8774 C   0  0  0  0  0  0  0  0  0  0  0  0
  -22.2311  -18.3686  149.1934 F   0  0  0  0  0  0  0  0  0  0  0  0
  -25.5533  -13.1015  146.9197 Cl  0  0  0  0  0  0  0  0  0  0  0  0
  -22.8229  -16.3592  149.5949 O   0  0  0  0  0  0  0  0  0  0  0  0
  -24.1074  -12.5113  144.4740 O   0  0  0  0  0  0  0  0  0  0  0  0
  1  2  2  3
  2  3  1  0
  3  4  1  0
  4  5  1  0
  5  6  1  0
  2  7  1  0
  6  7  1  0
  1  8  1  0
  8  9  1  0
  9 10  1  0
 10 11  1  0
  4 12  1  0
 10 13  1  0
  5 14  2  0
M  END

$$$$
No_192-/dssg/home/sw_qyf/PocketFlow/Model-Generation-Results/5HT2A_7WC7_rec_A_10.pdb/2024-01-01-03-54-21/
     RDKit          3D

 23 24  0  0  0  0  0  0  0  0999 V2000
  -24.1553  -17.8465  145.7021 C   0  0  0  0  0  0  0  0  0  0  0  0
  -24.2856  -16.6364  145.3494 C   0  0  0  0  0  0  0  0  0  0  0  0
  -23.7824  -15.9602  144.3554 C   0  0  0  0  0  0  0  0  0  0  0  0
  -23.9871  -14.5276  144.1537 C   0  0  0  0  0  0  0  0  0  0  0  0
  -24.7876  -13.8357  145.1351 C   0  0  0  0  0  0  0  0  0  0  0  0
  -25.3945  -14.5459  146.1755 C   0  0  0  0  0  0  0  0  0  0  0  0
  -25.0741  -15.8908  146.3327 C   0  0  0  0  0  0  0  0  0  0  0  0
  -23.4600  -18.3671  146.6957 C   0  0  0  0  0  0  0  0  0  0  0  0
  -23.4812  -17.4613  147.9491 C   0  0  0  0  0  0  0  0  0  0  0  0
  -24.2183  -16.3883  147.9914 C   0  0  0  0  0  0  0  0  0  0  0  0
  -25.1329  -12.4197  144.9084 C   0  0  0  0  0  0  0  0  0  0  0  0
  -25.9284  -11.7751  146.0806 C   0  0  0  0  0  0  0  0  0  0  0  0
  -25.4128  -10.8399  146.6299 F   0  0  0  0  0  0  0  0  0  0  0  0
  -27.2496  -11.5015  145.7643 F   0  0  0  0  0  0  0  0  0  0  0  0
  -25.8076  -12.2569  143.7810 F   0  0  0  0  0  0  0  0  0  0  0  0
  -24.0199  -11.6312  144.7530 F   0  0  0  0  0  0  0  0  0  0  0  0
  -23.0848  -17.7839  149.1425 O   0  0  0  0  0  0  0  0  0  0  0  0
  -23.5153  -17.2544  150.3755 C   0  0  0  0  0  0  0  0  0  0  0  0
  -22.5169  -17.2434  151.1962 F   0  0  0  0  0  0  0  0  0  0  0  0
  -24.4429  -18.1998  150.9029 F   0  0  0  0  0  0  0  0  0  0  0  0
  -23.9547  -16.0690  150.4073 F   0  0  0  0  0  0  0  0  0  0  0  0
  -23.0501  -16.5652  143.5115 O   0  0  0  0  0  0  0  0  0  0  0  0
  -25.8524  -12.5940  147.1890 F   0  0  0  0  0  0  0  0  0  0  0  0
  5 11  1  0
 11 12  1  0
 12 13  1  0
 12 14  1  0
 11 15  1  0
 11 16  1  0
  9 17  1  0
 17 18  1  0
 18 19  1  0
 18 20  1  0
 18 21  1  0
  3 22  1  0
 12 23  1  0
  2  3  1  0
  3  4  2  0
  4  5  1  0
  5  6  2  0
  6  7  1  0
  1  2  2  0
  2  7  1  0
  7 10  2  0
 10  9  1  0
  9  8  2  0
  8  1  1  0
M  END

$$$$
No_193-/dssg/home/sw_qyf/PocketFlow/Model-Generation-Results/5HT2A_7WC7_rec_A_10.pdb/2024-01-01-03-54-21/
     RDKit          3D

 20 20  0  0  0  0  0  0  0  0999 V2000
  -23.1746  -16.6014  144.8668 C   0  0  0  0  0  0  0  0  0  0  0  0
  -23.8963  -15.5346  144.7885 C   0  0  0  0  0  0  0  0  0  0  0  0
  -23.6398  -14.5115  145.3281 C   0  0  0  0  0  0  0  0  0  0  0  0
  -24.3240  -13.3648  145.1281 C   0  0  0  0  0  0  0  0  0  0  0  0
  -23.8303  -12.0965  145.7921 C   0  0  0  0  0  0  0  0  0  0  0  0
  -24.2591  -12.9720  143.7434 F   0  0  0  0  0  0  0  0  0  0  0  0
  -25.6467  -13.3693  145.3826 F   0  0  0  0  0  0  0  0  0  0  0  0
  -23.6272  -17.5884  145.8108 C   0  0  0  0  0  0  0  0  0  0  0  0
  -24.7315  -17.2964  146.5711 C   0  0  0  0  0  0  0  0  0  0  0  0
  -24.7334  -17.7238  147.9477 C   0  0  0  0  0  0  0  0  0  0  0  0
  -25.6400  -17.1017  148.9381 C   0  0  0  0  0  0  0  0  0  0  0  0
  -26.7395  -16.3875  148.3671 C   0  0  0  0  0  0  0  0  0  0  0  0
  -26.7121  -15.9588  147.0287 C   0  0  0  0  0  0  0  0  0  0  0  0
  -25.7132  -16.3566  146.2407 C   0  0  0  0  0  0  0  0  0  0  0  0
  -27.8361  -15.0574  146.6726 C   0  0  0  0  0  0  0  0  0  0  0  0
  -28.9821  -14.8931  147.3305 C   0  0  0  0  0  0  0  0  0  0  0  0
  -29.4344  -15.3239  148.5704 C   0  0  0  0  0  0  0  0  0  0  0  0
  -30.5360  -14.8319  149.2895 C   0  0  0  0  0  0  0  0  0  0  0  0
  -31.1310  -13.6732  148.6877 C   0  0  0  0  0  0  0  0  0  0  0  0
  -30.6255  -13.0700  147.5675 C   0  0  0  0  0  0  0  0  0  0  0  0
  1  2  1  0
  2  3  2  3
  3  4  1  0
  4  5  1  0
  4  6  1  0
  4  7  1  0
  1  8  1  0
  8  9  1  0
 13 15  1  0
 15 16  2  3
 16 17  1  0
 17 18  2  3
 18 19  1  0
 19 20  2  0
  9 10  2  0
 10 11  1  0
 11 12  2  0
 12 13  1  0
 13 14  2  0
 14  9  1  0
M  END

$$$$
No_194-/dssg/home/sw_qyf/PocketFlow/Model-Generation-Results/5HT2A_7WC7_rec_A_10.pdb/2024-01-01-03-54-21/
     RDKit          3D

 28 30  0  0  0  0  0  0  0  0999 V2000
  -23.1746  -16.6014  144.8668 C   0  0  0  0  0  0  0  0  0  0  0  0
  -23.8963  -15.5346  144.7885 C   0  0  0  0  0  0  0  0  0  0  0  0
  -24.5755  -15.0383  145.9043 C   0  0  0  0  0  0  0  0  0  0  0  0
  -25.3266  -13.7882  145.9354 C   0  0  0  0  0  0  0  0  0  0  0  0
  -23.3054  -17.4824  145.9484 C   0  0  0  0  0  0  0  0  0  0  0  0
  -23.9716  -17.0785  147.1156 C   0  0  0  0  0  0  0  0  0  0  0  0
  -24.6279  -15.8542  147.1153 C   0  0  0  0  0  0  0  0  0  0  0  0
  -26.3311  -13.4629  146.0853 C   0  0  0  0  0  0  0  0  0  0  0  0
  -27.5192  -14.3791  146.3459 C   0  0  0  0  0  0  0  0  0  0  0  0
  -28.7908  -13.8513  146.5590 C   0  0  0  0  0  0  0  0  0  0  0  0
  -28.9871  -12.4423  146.5112 C   0  0  0  0  0  0  0  0  0  0  0  0
  -27.9424  -11.5544  146.2146 C   0  0  0  0  0  0  0  0  0  0  0  0
  -26.7098  -11.9900  146.1046 C   0  0  0  0  0  0  0  0  0  0  0  0
  -24.2586  -12.6462  145.6224 C   0  0  0  0  0  0  0  0  0  0  0  0
  -23.0435  -12.7538  146.1297 O   0  0  0  0  0  0  0  0  0  0  0  0
  -24.4288  -11.7175  144.7398 N   0  0  0  0  0  0  0  0  0  0  0  0
  -30.7789  -11.7822  146.8022 Br  0  0  0  0  0  0  0  0  0  0  0  0
  -23.9430  -17.9178  148.3610 C   0  0  0  0  0  0  0  0  0  0  0  0
  -24.3022  -17.0234  149.2596 F   0  0  0  0  0  0  0  0  0  0  0  0
  -22.6755  -18.2428  148.6345 F   0  0  0  0  0  0  0  0  0  0  0  0
  -24.7627  -18.8738  148.2453 F   0  0  0  0  0  0  0  0  0  0  0  0
  -29.8805  -14.7735  146.8621 C   0  0  0  0  0  0  0  0  0  0  0  0
  -23.8465  -14.7298  143.7318 O   0  0  0  0  0  0  0  0  0  0  0  0
  -29.9239  -14.9700  148.2237 F   0  0  0  0  0  0  0  0  0  0  0  0
  -29.6797  -15.8909  146.3221 F   0  0  0  0  0  0  0  0  0  0  0  0
  -31.0657  -14.3273  146.5252 F   0  0  0  0  0  0  0  0  0  0  0  0
  -25.2854  -10.8628  144.8441 N   0  0  0  0  0  0  0  0  0  0  0  0
  -26.5308  -11.1063  145.2494 C   0  0  0  0  0  0  0  0  0  0  0  0
  3  4  1  0
  4 14  1  0
 14 15  2  0
 14 16  1  0
 11 17  1  0
  6 18  1  0
 18 19  1  0
 18 20  1  0
 18 21  1  0
 10 22  1  0
  2 23  1  0
 22 24  1  0
 22 25  1  0
 22 26  1  0
 16 27  1  0
 13 28  1  0
 27 28  1  0
  4  8  1  0
  1  2  2  0
  2  3  1  0
  3  7  2  0
  7  6  1  0
  6  5  2  0
  5  1  1  0
  8  9  2  0
  9 10  1  0
 10 11  2  0
 11 12  1  0
 12 13  2  0
 13  8  1  0
M  END

$$$$
No_195-/dssg/home/sw_qyf/PocketFlow/Model-Generation-Results/5HT2A_7WC7_rec_A_10.pdb/2024-01-01-03-54-21/
     RDKit          3D

 17 18  0  0  0  0  0  0  0  0999 V2000
  -23.1746  -16.6014  144.8668 C   0  0  0  0  0  0  0  0  0  0  0  0
  -24.0189  -16.0564  145.8445 C   0  0  0  0  0  0  0  0  0  0  0  0
  -24.4850  -14.7380  145.6359 C   0  0  0  0  0  0  0  0  0  0  0  0
  -24.0208  -14.0081  144.6269 C   0  0  0  0  0  0  0  0  0  0  0  0
  -24.6332  -12.7598  144.3256 C   0  0  0  0  0  0  0  0  0  0  0  0
  -25.8653  -12.5062  145.0571 C   0  0  0  0  0  0  0  0  0  0  0  0
  -26.3162  -13.2842  146.1219 C   0  0  0  0  0  0  0  0  0  0  0  0
  -25.6825  -14.5026  146.3736 C   0  0  0  0  0  0  0  0  0  0  0  0
  -24.2051  -16.8255  147.0332 C   0  0  0  0  0  0  0  0  0  0  0  0
  -23.7472  -18.1011  147.1805 C   0  0  0  0  0  0  0  0  0  0  0  0
  -22.8575  -17.9959  145.0545 N   0  0  0  0  0  0  0  0  0  0  0  0
  -23.1071  -18.6354  146.1565 C   0  0  0  0  0  0  0  0  0  0  0  0
  -26.5413  -11.2085  144.7839 C   0  0  0  0  0  0  0  0  0  0  0  0
  -27.9951  -11.2022  144.8037 C   0  0  0  0  0  0  0  0  0  0  0  0
  -28.7843  -11.9147  145.6305 C   0  0  0  0  0  0  0  0  0  0  0  0
  -30.1661  -11.5442  145.7947 C   0  0  0  0  0  0  0  0  0  0  0  0
  -30.4978  -10.4225  145.1804 N   0  0  0  0  0  0  0  0  0  0  0  0
  2  3  1  0
  6 13  1  0
 13 14  1  0
 14 15  2  3
 15 16  1  0
 16 17  1  0
  1  2  2  0
  2  9  1  0
  9 10  2  0
 10 12  1  0
 12 11  2  0
 11  1  1  0
  3  4  2  0
  4  5  1  0
  5  6  2  0
  6  7  1  0
  7  8  2  0
  8  3  1  0
M  END

$$$$
No_196-/dssg/home/sw_qyf/PocketFlow/Model-Generation-Results/5HT2A_7WC7_rec_A_10.pdb/2024-01-01-03-54-21/
     RDKit          3D

 35 37  0  0  0  0  0  0  0  0999 V2000
  -23.1746  -16.6014  144.8668 C   0  0  0  0  0  0  0  0  0  0  0  0
  -23.7011  -17.0158  145.9774 C   0  0  0  0  0  0  0  0  0  0  0  0
  -24.2134  -16.0722  146.8877 C   0  0  0  0  0  0  0  0  0  0  0  0
  -24.7882  -16.3410  148.2078 C   0  0  0  0  0  0  0  0  0  0  0  0
  -23.4231  -15.2781  144.3679 C   0  0  0  0  0  0  0  0  0  0  0  0
  -24.0726  -14.2968  145.2170 C   0  0  0  0  0  0  0  0  0  0  0  0
  -24.4910  -14.7123  146.5041 C   0  0  0  0  0  0  0  0  0  0  0  0
  -24.0851  -17.1531  149.1341 C   0  0  0  0  0  0  0  0  0  0  0  0
  -24.6108  -17.4339  150.4269 C   0  0  0  0  0  0  0  0  0  0  0  0
  -24.1990  -12.9095  144.8055 C   0  0  0  0  0  0  0  0  0  0  0  0
  -23.1223  -12.1836  145.1267 N   0  0  0  0  0  0  0  0  0  0  0  0
  -25.2127  -12.4740  144.4219 O   0  0  0  0  0  0  0  0  0  0  0  0
  -23.4989  -18.3085  146.4541 N   0  0  0  0  0  0  0  0  0  0  0  0
  -26.0404  -17.6869  150.4749 C   0  0  0  0  0  0  0  0  0  0  0  0
  -26.8237  -17.0400  149.4720 C   0  0  0  0  0  0  0  0  0  0  0  0
  -26.1990  -16.5569  148.2964 C   0  0  0  0  0  0  0  0  0  0  0  0
  -26.9107  -16.0603  147.2754 O   0  0  0  0  0  0  0  0  0  0  0  0
  -28.1973  -16.4500  146.9064 C   0  0  0  0  0  0  0  0  0  0  0  0
  -29.0865  -15.1457  146.7264 C   0  0  0  0  0  0  0  0  0  0  0  0
  -28.7379  -14.1407  147.7395 C   0  0  0  0  0  0  0  0  0  0  0  0
  -29.4103  -12.8333  147.5775 C   0  0  0  0  0  0  0  0  0  0  0  0
  -29.9875  -12.4602  146.3462 C   0  0  0  0  0  0  0  0  0  0  0  0
  -29.1460  -11.2928  145.7329 C   0  0  0  0  0  0  0  0  0  0  0  0
  -29.7766  -10.4868  144.7492 C   0  0  0  0  0  0  0  0  0  0  0  0
  -28.9546   -9.8751  143.7635 C   0  0  0  0  0  0  0  0  0  0  0  0
  -29.5724   -9.1397  142.7634 C   0  0  0  0  0  0  0  0  0  0  0  0
  -29.9140   -7.9022  142.9991 C   0  0  0  0  0  0  0  0  0  0  0  0
  -30.5143   -7.1022  141.8975 C   0  0  0  0  0  0  0  0  0  0  0  0
  -29.6456   -7.2842  140.7137 C   0  0  0  0  0  0  0  0  0  0  0  0
  -28.6387   -8.0574  140.7123 C   0  0  0  0  0  0  0  0  0  0  0  0
  -28.1103   -8.3490  139.3997 C   0  0  0  0  0  0  0  0  0  0  0  0
  -28.8521   -9.3694  141.4519 C   0  0  0  0  0  0  0  0  0  0  0  0
  -28.6310   -7.7615  138.1864 C   0  0  0  0  0  0  0  0  0  0  0  0
  -28.0963  -10.4903  141.1884 C   0  0  0  0  0  0  0  0  0  0  0  0
  -28.1060  -11.6455  141.9376 C   0  0  0  0  0  0  0  0  0  0  0  0
  6 10  1  0
 10 11  1  0
 10 12  2  0
  2 13  1  0
 16 17  1  0
 17 18  1  0
 18 19  1  0
 19 20  1  0
 20 21  1  0
 21 22  1  0
 22 23  1  0
 23 24  1  0
 24 25  1  0
 25 26  1  0
 30 31  1  0
 31 33  1  0
 32 34  1  0
 34 35  1  0
  4  3  1  0
  1  2  2  0
  2  3  1  0
  3  7  2  0
  7  6  1  0
  6  5  2  0
  5  1  1  0
  4  8  2  0
  8  9  1  0
  9 14  2  0
 14 15  1  0
 15 16  2  0
 16  4  1  0
 26 27  2  0
 27 28  1  0
 28 29  2  0
 29 30  1  0
 30 32  2  0
 32 26  1  0
M  END

$$$$
No_197-/dssg/home/sw_qyf/PocketFlow/Model-Generation-Results/5HT2A_7WC7_rec_A_10.pdb/2024-01-01-03-54-21/
     RDKit          3D

 12 13  0  0  0  0  0  0  0  0999 V2000
  -24.1553  -17.8465  145.7021 C   0  0  0  0  0  0  0  0  0  0  0  0
  -24.2855  -16.6364  145.3494 C   0  0  0  0  0  0  0  0  0  0  0  0
  -25.0033  -15.6772  146.0737 C   0  0  0  0  0  0  0  0  0  0  0  0
  -25.1197  -14.2835  145.7299 C   0  0  0  0  0  0  0  0  0  0  0  0
  -25.8358  -13.3153  146.4318 C   0  0  0  0  0  0  0  0  0  0  0  0
  -24.7887  -18.3277  146.8665 C   0  0  0  0  0  0  0  0  0  0  0  0
  -25.5121  -17.4898  147.6545 C   0  0  0  0  0  0  0  0  0  0  0  0
  -25.6629  -16.1113  147.2981 C   0  0  0  0  0  0  0  0  0  0  0  0
  -25.7516  -11.9698  146.1143 C   0  0  0  0  0  0  0  0  0  0  0  0
  -24.9389  -11.5123  145.0695 C   0  0  0  0  0  0  0  0  0  0  0  0
  -24.2364  -13.7834  144.6404 C   0  0  0  0  0  0  0  0  0  0  0  0
  -24.0392  -12.7323  144.4874 N   0  0  0  0  0  0  0  0  0  0  0  0
  3  4  1  0
  1  2  2  0
  2  3  1  0
  3  8  2  0
  8  7  1  0
  7  6  2  0
  6  1  1  0
  4  5  2  0
  5  9  1  0
  9 10  2  0
 10 12  1  0
 12 11  2  0
 11  4  1  0
M  END

$$$$
No_198-/dssg/home/sw_qyf/PocketFlow/Model-Generation-Results/5HT2A_7WC7_rec_A_10.pdb/2024-01-01-03-54-21/
     RDKit          3D

 35 36  0  0  0  0  0  0  0  0999 V2000
  -24.1553  -17.8465  145.7021 C   0  0  0  0  0  0  0  0  0  0  0  0
  -24.6364  -17.2931  146.7091 C   0  0  0  0  0  0  0  0  0  0  0  0
  -25.8608  -16.5592  146.5934 C   0  0  0  0  0  0  0  0  0  0  0  0
  -25.9088  -15.1597  146.9911 C   0  0  0  0  0  0  0  0  0  0  0  0
  -25.5121  -14.2230  145.9989 C   0  0  0  0  0  0  0  0  0  0  0  0
  -25.3887  -12.9478  146.3771 C   0  0  0  0  0  0  0  0  0  0  0  0
  -25.2160  -11.8726  145.3903 C   0  0  0  0  0  0  0  0  0  0  0  0
  -26.5309  -11.4965  144.7847 C   0  0  0  0  0  0  0  0  0  0  0  0
  -26.6981  -10.2031  144.4688 C   0  0  0  0  0  0  0  0  0  0  0  0
  -27.8593   -9.7907  143.6404 C   0  0  0  0  0  0  0  0  0  0  0  0
  -27.8796  -10.2935  142.3723 C   0  0  0  0  0  0  0  0  0  0  0  0
  -27.8576  -11.6174  141.9957 C   0  0  0  0  0  0  0  0  0  0  0  0
  -28.1151  -12.0386  140.6943 C   0  0  0  0  0  0  0  0  0  0  0  0
  -27.0625  -11.7686  139.7683 C   0  0  0  0  0  0  0  0  0  0  0  0
  -27.5789  -11.3754  138.4104 C   0  0  0  0  0  0  0  0  0  0  0  0
  -23.9740  -16.8913  144.5502 C   0  0  0  0  0  0  0  0  0  0  0  0
  -23.4786  -15.5895  145.1304 C   0  0  0  0  0  0  0  0  0  0  0  0
  -24.5592  -14.4677  144.9838 C   0  0  0  0  0  0  0  0  0  0  0  0
  -24.5519  -13.9375  143.8284 O   0  0  0  0  0  0  0  0  0  0  0  0
  -26.9977  -17.1265  146.1530 C   0  0  0  0  0  0  0  0  0  0  0  0
  -28.2065  -16.3212  145.9149 C   0  0  0  0  0  0  0  0  0  0  0  0
  -22.8874  -18.7001  145.9837 C   0  0  0  0  0  0  0  0  0  0  0  0
  -27.6654  -12.5658  137.5540 C   0  0  0  0  0  0  0  0  0  0  0  0
  -28.2769  -12.1439  136.3105 C   0  0  0  0  0  0  0  0  0  0  0  0
  -28.9048  -10.9065  135.9616 C   0  0  0  0  0  0  0  0  0  0  0  0
  -28.7065   -9.8472  136.9653 C   0  0  0  0  0  0  0  0  0  0  0  0
  -28.0909  -10.1200  138.2090 C   0  0  0  0  0  0  0  0  0  0  0  0
  -27.7525  -11.9024  145.7134 C   0  0  0  0  0  0  0  0  0  0  0  0
  -27.6477  -12.7808  146.4717 C   0  0  0  0  0  0  0  0  0  0  0  0
  -29.0147  -13.1970  147.0899 C   0  0  0  0  0  0  0  0  0  0  0  0
  -29.5284  -12.6311  148.0501 C   0  0  0  0  0  0  0  0  0  0  0  0
  -30.8070  -12.9768  148.6792 C   0  0  0  0  0  0  0  0  0  0  0  0
  -31.6037  -12.1130  149.4001 C   0  0  0  0  0  0  0  0  0  0  0  0
  -32.8744  -12.3008  149.8492 C   0  0  0  0  0  0  0  0  0  0  0  0
  -33.4802  -11.2718  150.6219 C   0  0  0  0  0  0  0  0  0  0  0  0
  1  2  1  0
  2  3  1  0
  3  4  1  0
  4  5  1  0
  5  6  1  0
  6  7  1  0
  7  8  1  0
  8  9  1  0
  9 10  1  0
 10 11  1  0
 11 12  2  3
 12 13  1  0
 13 14  1  0
 14 15  1  0
  1 16  1  0
 16 17  1  0
  5 18  1  0
 17 18  1  0
 18 19  2  0
  3 20  1  0
 20 21  1  0
  1 22  1  0
  8 28  1  0
 28 29  1  0
 29 30  2  3
 30 31  1  0
 31 32  2  3
 32 33  1  0
 33 34  1  0
 34 35  1  0
 15 23  2  0
 23 24  1  0
 24 25  2  0
 25 26  1  0
 26 27  2  0
 27 15  1  0
M  END

$$$$
No_199-/dssg/home/sw_qyf/PocketFlow/Model-Generation-Results/5HT2A_7WC7_rec_A_10.pdb/2024-01-01-03-54-21/
     RDKit          3D

 16 16  0  0  0  0  0  0  0  0999 V2000
  -24.1553  -17.8465  145.7021 C   0  0  0  0  0  0  0  0  0  0  0  0
  -23.9795  -18.4462  146.7426 C   0  0  0  0  0  0  0  0  0  0  0  0
  -25.1593  -16.8262  145.6925 C   0  0  0  0  0  0  0  0  0  0  0  0
  -25.3302  -15.8818  144.5925 C   0  0  0  0  0  0  0  0  0  0  0  0
  -24.4570  -18.1009  148.0274 C   0  0  0  0  0  0  0  0  0  0  0  0
  -25.3496  -17.0286  148.1023 C   0  0  0  0  0  0  0  0  0  0  0  0
  -25.5669  -16.2449  146.9641 C   0  0  0  0  0  0  0  0  0  0  0  0
  -24.1805  -15.0528  144.1688 C   0  0  0  0  0  0  0  0  0  0  0  0
  -24.4998  -13.5323  144.1945 C   0  0  0  0  0  0  0  0  0  0  0  0
  -24.4221  -13.1058  145.6496 C   0  0  0  0  0  0  0  0  0  0  0  0
  -25.2630  -11.9223  145.9620 C   0  0  0  0  0  0  0  0  0  0  0  0
  -26.5291  -11.9776  145.3497 C   0  0  0  0  0  0  0  0  0  0  0  0
  -27.5655  -12.5879  146.0530 C   0  0  0  0  0  0  0  0  0  0  0  0
  -27.5641  -13.7465  146.7798 C   0  0  0  0  0  0  0  0  0  0  0  0
  -28.6443  -14.2891  147.4359 C   0  0  0  0  0  0  0  0  0  0  0  0
  -28.7079  -15.5637  148.0293 C   0  0  0  0  0  0  0  0  0  0  0  0
  3  4  1  0
  4  8  1  0
  8  9  1  0
  9 10  1  0
 10 11  1  0
 11 12  1  0
 12 13  2  3
 13 14  1  0
 14 15  2  3
 15 16  1  0
  1  2  2  0
  2  5  1  0
  5  6  2  0
  6  7  1  0
  7  3  2  0
  3  1  1  0
M  END

$$$$
No_200-/dssg/home/sw_qyf/PocketFlow/Model-Generation-Results/5HT2A_7WC7_rec_A_10.pdb/2024-01-01-03-54-21/
     RDKit          3D

  7  7  0  0  0  0  0  0  0  0999 V2000
  -23.1746  -16.6014  144.8668 C   0  0  0  0  0  0  0  0  0  0  0  0
  -24.0189  -16.0564  145.8445 C   0  0  0  0  0  0  0  0  0  0  0  0
  -24.4145  -16.8299  146.9062 C   0  0  0  0  0  0  0  0  0  0  0  0
  -25.2730  -16.2838  147.9150 C   0  0  0  0  0  0  0  0  0  0  0  0
  -25.7919  -14.9951  147.6737 C   0  0  0  0  0  0  0  0  0  0  0  0
  -24.5377  -14.6789  145.6474 C   0  0  0  0  0  0  0  0  0  0  0  0
  -25.4158  -14.1968  146.6885 C   0  0  0  0  0  0  0  0  0  0  0  0
  1  2  1  0
  2  3  2  0
  3  4  1  0
  4  5  2  0
  5  7  1  0
  7  6  2  0
  6  2  1  0
M  END

$$$$
No_201-/dssg/home/sw_qyf/PocketFlow/Model-Generation-Results/5HT2A_7WC7_rec_A_10.pdb/2024-01-01-03-54-21/
     RDKit          3D

 19 20  0  0  0  0  0  0  0  0999 V2000
  -24.1553  -17.8465  145.7021 C   0  0  0  0  0  0  0  0  0  0  0  0
  -24.2856  -16.6364  145.3494 C   0  0  0  0  0  0  0  0  0  0  0  0
  -25.0033  -15.6772  146.0737 C   0  0  0  0  0  0  0  0  0  0  0  0
  -25.6964  -16.1810  147.2049 C   0  0  0  0  0  0  0  0  0  0  0  0
  -24.8143  -18.3454  146.8324 C   0  0  0  0  0  0  0  0  0  0  0  0
  -25.5291  -17.4614  147.6373 C   0  0  0  0  0  0  0  0  0  0  0  0
  -23.6446  -16.0678  144.2141 N   0  0  0  0  0  0  0  0  0  0  0  0
  -25.1743  -14.2616  145.6419 C   0  0  0  0  0  0  0  0  0  0  0  0
  -25.3119  -13.3836  146.2478 C   0  0  0  0  0  0  0  0  0  0  0  0
  -25.4430  -11.9806  145.8345 C   0  0  0  0  0  0  0  0  0  0  0  0
  -26.3584  -11.6287  144.9788 C   0  0  0  0  0  0  0  0  0  0  0  0
  -26.6396  -12.7410  144.0691 C   0  0  0  0  0  0  0  0  0  0  0  0
  -26.0197  -14.0841  144.3671 C   0  0  0  0  0  0  0  0  0  0  0  0
  -26.8609  -10.3428  144.6678 C   0  0  0  0  0  0  0  0  0  0  0  0
  -28.1287  -10.1667  143.9693 C   0  0  0  0  0  0  0  0  0  0  0  0
  -28.5379   -9.1179  143.3202 C   0  0  0  0  0  0  0  0  0  0  0  0
  -29.9199   -8.9857  142.8876 C   0  0  0  0  0  0  0  0  0  0  0  0
  -30.6060   -7.9187  142.9651 C   0  0  0  0  0  0  0  0  0  0  0  0
  -32.0329   -7.9244  142.5832 C   0  0  0  0  0  0  0  0  0  0  0  0
  2  7  1  0
  3  8  1  0
 11 14  1  0
 14 15  1  0
 15 16  1  0
 16 17  1  0
 17 18  2  3
 18 19  1  0
  1  2  2  0
  2  3  1  0
  3  4  2  0
  4  6  1  0
  6  5  2  0
  5  1  1  0
  8  9  2  0
  9 10  1  0
 10 11  2  0
 11 12  1  0
 12 13  2  0
 13  8  1  0
M  END

$$$$
No_202-/dssg/home/sw_qyf/PocketFlow/Model-Generation-Results/5HT2A_7WC7_rec_A_10.pdb/2024-01-01-03-54-21/
     RDKit          3D

 35 37  0  0  0  0  0  0  0  0999 V2000
  -24.1553  -17.8465  145.7021 C   0  0  0  0  0  0  0  0  0  0  0  0
  -23.9795  -18.4462  146.7426 C   0  0  0  0  0  0  0  0  0  0  0  0
  -24.3577  -16.4380  145.7329 C   0  0  0  0  0  0  0  0  0  0  0  0
  -24.6120  -15.7738  146.9649 C   0  0  0  0  0  0  0  0  0  0  0  0
  -24.9231  -14.3801  146.9818 C   0  0  0  0  0  0  0  0  0  0  0  0
  -24.7000  -13.5386  145.9026 C   0  0  0  0  0  0  0  0  0  0  0  0
  -24.2953  -14.2686  144.6893 C   0  0  0  0  0  0  0  0  0  0  0  0
  -24.1181  -15.5980  144.6219 C   0  0  0  0  0  0  0  0  0  0  0  0
  -24.2298  -17.8946  148.0912 C   0  0  0  0  0  0  0  0  0  0  0  0
  -24.4834  -16.5166  148.2440 C   0  0  0  0  0  0  0  0  0  0  0  0
  -24.9045  -12.1251  145.9456 C   0  0  0  0  0  0  0  0  0  0  0  0
  -26.1440  -11.6309  145.3025 C   0  0  0  0  0  0  0  0  0  0  0  0
  -27.3216  -11.8707  145.9706 C   0  0  0  0  0  0  0  0  0  0  0  0
  -28.5001  -11.3395  145.4481 C   0  0  0  0  0  0  0  0  0  0  0  0
  -28.5525  -10.7308  144.3492 C   0  0  0  0  0  0  0  0  0  0  0  0
  -27.3120  -10.4136  143.6665 C   0  0  0  0  0  0  0  0  0  0  0  0
  -26.1625  -10.9134  144.2116 C   0  0  0  0  0  0  0  0  0  0  0  0
  -29.8295  -10.1776  143.7495 C   0  0  0  0  0  0  0  0  0  0  0  0
  -30.0260   -9.8357  142.1825 S   0  0  0  0  0  0  0  0  0  0  0  0
  -29.4043   -8.3379  141.9818 C   0  0  0  0  0  0  0  0  0  0  0  0
  -29.1309   -7.9817  140.5874 C   0  0  0  0  0  0  0  0  0  0  0  0
  -28.5739   -8.8195  139.7546 C   0  0  0  0  0  0  0  0  0  0  0  0
  -27.8200   -9.9373  140.0823 C   0  0  0  0  0  0  0  0  0  0  0  0
  -27.3009  -10.8939  139.2421 C   0  0  0  0  0  0  0  0  0  0  0  0
  -26.4787  -11.9571  139.8229 C   0  0  0  0  0  0  0  0  0  0  0  0
  -26.0393  -12.8969  138.8766 C   0  0  0  0  0  0  0  0  0  0  0  0
  -28.5034   -8.4331  138.3552 C   0  0  0  0  0  0  0  0  0  0  0  0
  -29.2858   -8.9714  137.5192 O   0  0  0  0  0  0  0  0  0  0  0  0
  -30.5548   -9.5611  144.6097 O   0  0  0  0  0  0  0  0  0  0  0  0
  -26.2725  -12.7638  137.6619 F   0  0  0  0  0  0  0  0  0  0  0  0
  -27.6213   -7.5043  137.9830 O   0  0  0  0  0  0  0  0  0  0  0  0
  -24.6086  -12.9063  139.0164 F   0  0  0  0  0  0  0  0  0  0  0  0
  -29.5586   -6.7996  140.2093 O   0  0  0  0  0  0  0  0  0  0  0  0
  -29.6232  -11.7553  146.2573 O   0  0  0  0  0  0  0  0  0  0  0  0
  -29.5735  -12.7889  147.0902 C   0  0  0  0  0  0  0  0  0  0  0  0
  6 11  1  0
 11 12  1  0
 15 18  1  0
 18 19  1  0
 19 20  1  0
 20 21  1  0
 21 22  1  0
 22 23  2  3
 23 24  1  0
 24 25  1  0
 25 26  1  0
 22 27  1  0
 27 28  2  0
 18 29  1  0
 26 30  1  0
 27 31  1  0
 26 32  1  0
 21 33  2  0
 14 34  1  0
 34 35  1  0
 12 13  2  0
 13 14  1  0
 14 15  2  0
 15 16  1  0
 16 17  2  0
 17 12  1  0
  4  5  2  0
  5  6  1  0
  6  7  2  0
  7  8  1  0
  8  3  2  0
  1  2  2  0
  2  9  1  0
  9 10  2  0
 10  4  1  0
  4  3  1  0
  3  1  1  0
M  END

$$$$
No_203-/dssg/home/sw_qyf/PocketFlow/Model-Generation-Results/5HT2A_7WC7_rec_A_10.pdb/2024-01-01-03-54-21/
     RDKit          3D

 35 37  0  0  0  0  0  0  0  0999 V2000
  -23.1746  -16.6014  144.8668 C   0  0  0  0  0  0  0  0  0  0  0  0
  -24.0189  -16.0564  145.8445 C   0  0  0  0  0  0  0  0  0  0  0  0
  -24.4850  -14.7380  145.6359 C   0  0  0  0  0  0  0  0  0  0  0  0
  -25.2717  -14.0560  146.5949 C   0  0  0  0  0  0  0  0  0  0  0  0
  -25.8718  -14.9514  147.6177 C   0  0  0  0  0  0  0  0  0  0  0  0
  -24.2785  -16.8121  147.0700 C   0  0  0  0  0  0  0  0  0  0  0  0
  -25.3488  -16.2167  147.9117 C   0  0  0  0  0  0  0  0  0  0  0  0
  -23.9843  -13.9354  144.5534 C   0  0  0  0  0  0  0  0  0  0  0  0
  -24.7691  -13.6460  143.7333 O   0  0  0  0  0  0  0  0  0  0  0  0
  -25.8064  -12.7375  146.4998 C   0  0  0  0  0  0  0  0  0  0  0  0
  -24.8581  -11.6589  146.3636 C   0  0  0  0  0  0  0  0  0  0  0  0
  -27.1737  -12.5317  146.5154 C   0  0  0  0  0  0  0  0  0  0  0  0
  -28.0655  -12.9957  147.2636 C   0  0  0  0  0  0  0  0  0  0  0  0
  -29.4654  -12.5750  147.2852 C   0  0  0  0  0  0  0  0  0  0  0  0
  -29.7760  -11.5363  146.3443 C   0  0  0  0  0  0  0  0  0  0  0  0
  -28.8610  -11.0272  145.4760 C   0  0  0  0  0  0  0  0  0  0  0  0
  -27.5254  -11.4676  145.5562 C   0  0  0  0  0  0  0  0  0  0  0  0
  -30.4771  -13.1169  148.1673 C   0  0  0  0  0  0  0  0  0  0  0  0
  -29.2011   -9.9652  144.5340 C   0  0  0  0  0  0  0  0  0  0  0  0
  -30.3989   -9.4116  144.3768 C   0  0  0  0  0  0  0  0  0  0  0  0
  -30.7831   -8.4987  143.4154 C   0  0  0  0  0  0  0  0  0  0  0  0
  -29.8531   -8.1023  142.4487 C   0  0  0  0  0  0  0  0  0  0  0  0
  -28.6556   -8.9162  142.3865 C   0  0  0  0  0  0  0  0  0  0  0  0
  -28.3259   -9.7903  143.3560 C   0  0  0  0  0  0  0  0  0  0  0  0
  -30.1556   -7.2262  141.3238 C   0  0  0  0  0  0  0  0  0  0  0  0
  -29.7645   -7.1799  140.3411 N   0  0  0  0  0  0  0  0  0  0  0  0
  -28.7173   -7.3419  139.7709 C   0  0  0  0  0  0  0  0  0  0  0  0
  -28.6663   -8.5169  138.7203 C   0  0  0  0  0  0  0  0  0  0  0  0
  -30.5011  -14.3138  148.4148 O   0  0  0  0  0  0  0  0  0  0  0  0
  -31.2932  -12.3298  148.7953 O   0  0  0  0  0  0  0  0  0  0  0  0
  -23.8163  -18.1173  147.2604 C   0  0  0  0  0  0  0  0  0  0  0  0
  -28.2212   -9.6976  139.2586 C   0  0  0  0  0  0  0  0  0  0  0  0
  -27.9855  -10.7938  138.4323 C   0  0  0  0  0  0  0  0  0  0  0  0
  -27.4579  -12.0531  138.9497 C   0  0  0  0  0  0  0  0  0  0  0  0
  -27.4333  -12.2362  140.0881 C   0  0  0  0  0  0  0  0  0  0  0  0
  1  2  1  0
  3  8  1  0
  8  9  2  0
  4 10  1  0
 10 11  1  0
 10 12  1  0
 14 18  1  0
 16 19  1  0
 22 25  1  0
 25 26  1  0
 26 27  1  0
 27 28  1  0
 18 29  1  0
 18 30  2  0
  6 31  1  0
 28 32  2  3
 32 33  1  0
 33 34  1  0
 34 35  2  0
 12 13  2  0
 13 14  1  0
 14 15  2  0
 15 16  1  0
 16 17  2  0
 17 12  1  0
  2  3  2  0
  3  4  1  0
  4  5  2  0
  5  7  1  0
  7  6  2  0
  6  2  1  0
 19 20  2  0
 20 21  1  0
 21 22  2  0
 22 23  1  0
 23 24  2  0
 24 19  1  0
M  END

$$$$
No_204-/dssg/home/sw_qyf/PocketFlow/Model-Generation-Results/5HT2A_7WC7_rec_A_10.pdb/2024-01-01-03-54-21/
     RDKit          3D

 14 15  0  0  0  0  0  0  0  0999 V2000
  -23.1746  -16.6014  144.8668 C   0  0  0  0  0  0  0  0  0  0  0  0
  -23.7011  -17.0158  145.9774 C   0  0  0  0  0  0  0  0  0  0  0  0
  -24.2134  -16.0722  146.8877 C   0  0  0  0  0  0  0  0  0  0  0  0
  -24.5407  -14.7704  146.3552 C   0  0  0  0  0  0  0  0  0  0  0  0
  -24.9626  -13.7061  147.1333 C   0  0  0  0  0  0  0  0  0  0  0  0
  -23.3779  -15.3434  144.3588 C   0  0  0  0  0  0  0  0  0  0  0  0
  -23.9101  -14.3616  145.1708 C   0  0  0  0  0  0  0  0  0  0  0  0
  -25.0686  -12.3938  146.5604 C   0  0  0  0  0  0  0  0  0  0  0  0
  -24.6021  -12.1160  145.2546 C   0  0  0  0  0  0  0  0  0  0  0  0
  -23.9663  -13.1377  144.5827 C   0  0  0  0  0  0  0  0  0  0  0  0
  -23.5428  -18.4337  146.5092 C   0  0  0  0  0  0  0  0  0  0  0  0
  -22.4948  -18.6645  147.1177 F   0  0  0  0  0  0  0  0  0  0  0  0
  -24.6067  -18.6386  147.4240 F   0  0  0  0  0  0  0  0  0  0  0  0
  -23.6305  -19.3482  145.5365 F   0  0  0  0  0  0  0  0  0  0  0  0
  2 11  1  0
 11 12  1  0
 11 13  1  0
 11 14  1  0
  4  5  1  0
  5  8  2  0
  8  9  1  0
  9 10  2  0
 10  7  1  0
  1  2  2  0
  2  3  1  0
  3  4  2  0
  4  7  1  0
  7  6  2  0
  6  1  1  0
M  END

$$$$
No_205-/dssg/home/sw_qyf/PocketFlow/Model-Generation-Results/5HT2A_7WC7_rec_A_10.pdb/2024-01-01-03-54-21/
     RDKit          3D

 25 28  0  0  0  0  0  0  0  0999 V2000
  -24.1553  -17.8465  145.7021 C   0  0  0  0  0  0  0  0  0  0  0  0
  -24.2856  -16.6364  145.3494 C   0  0  0  0  0  0  0  0  0  0  0  0
  -25.0033  -15.6772  146.0737 C   0  0  0  0  0  0  0  0  0  0  0  0
  -25.1197  -14.2835  145.7299 C   0  0  0  0  0  0  0  0  0  0  0  0
  -24.2707  -13.8793  144.6500 C   0  0  0  0  0  0  0  0  0  0  0  0
  -24.8686  -18.3355  146.8179 C   0  0  0  0  0  0  0  0  0  0  0  0
  -23.4213  -14.7686  144.0334 C   0  0  0  0  0  0  0  0  0  0  0  0
  -23.3932  -16.0844  144.3175 C   0  0  0  0  0  0  0  0  0  0  0  0
  -25.6441  -17.4724  147.5881 C   0  0  0  0  0  0  0  0  0  0  0  0
  -25.7767  -16.1272  147.2748 C   0  0  0  0  0  0  0  0  0  0  0  0
  -25.9337  -13.3425  146.4506 C   0  0  0  0  0  0  0  0  0  0  0  0
  -26.4510  -12.1809  145.7227 C   0  0  0  0  0  0  0  0  0  0  0  0
  -27.8457  -12.0199  145.6572 C   0  0  0  0  0  0  0  0  0  0  0  0
  -28.7809  -12.7746  146.3913 C   0  0  0  0  0  0  0  0  0  0  0  0
  -30.1555  -12.3847  146.3103 C   0  0  0  0  0  0  0  0  0  0  0  0
  -30.3269  -11.1075  145.6818 C   0  0  0  0  0  0  0  0  0  0  0  0
  -29.3982  -10.3631  145.0125 C   0  0  0  0  0  0  0  0  0  0  0  0
  -28.0874  -10.8210  145.1106 C   0  0  0  0  0  0  0  0  0  0  0  0
  -27.0440  -10.0561  144.4830 C   0  0  0  0  0  0  0  0  0  0  0  0
  -25.6419  -11.2054  145.1091 C   0  0  0  0  0  0  0  0  0  0  0  0
  -29.8188   -9.3045  144.3636 O   0  0  0  0  0  0  0  0  0  0  0  0
  -30.4062   -9.3339  143.1281 C   0  0  0  0  0  0  0  0  0  0  0  0
  -31.2194   -8.1312  142.9663 C   0  0  0  0  0  0  0  0  0  0  0  0
  -31.3097   -7.3447  143.7166 O   0  0  0  0  0  0  0  0  0  0  0  0
  -31.7682   -7.9970  141.7309 O   0  0  0  0  0  0  0  0  0  0  0  0
  4 11  1  0
 11 12  1  0
 12 13  1  0
 18 19  1  0
 12 20  1  0
 19 20  1  0
 17 21  1  0
 21 22  1  0
 22 23  1  0
 23 24  2  0
 23 25  1  0
  1  2  2  0
  3 10  2  0
 10  9  1  0
  9  6  2  0
  6  1  1  0
 13 14  2  0
 14 15  1  0
 15 16  2  0
 16 17  1  0
 17 18  2  0
 18 13  1  0
  2  3  1  0
  3  4  1  0
  4  5  2  0
  5  7  1  0
  7  8  2  0
  8  2  1  0
M  END

$$$$
No_206-/dssg/home/sw_qyf/PocketFlow/Model-Generation-Results/5HT2A_7WC7_rec_A_10.pdb/2024-01-01-03-54-21/
     RDKit          3D

 33 35  0  0  0  0  0  0  0  0999 V2000
  -23.1746  -16.6014  144.8668 C   0  0  0  0  0  0  0  0  0  0  0  0
  -23.8963  -15.5346  144.7885 C   0  0  0  0  0  0  0  0  0  0  0  0
  -24.5755  -15.0383  145.9043 C   0  0  0  0  0  0  0  0  0  0  0  0
  -24.8345  -15.9108  146.9141 C   0  0  0  0  0  0  0  0  0  0  0  0
  -25.4270  -16.8004  146.7887 C   0  0  0  0  0  0  0  0  0  0  0  0
  -23.7439  -17.8819  145.3821 C   0  0  0  0  0  0  0  0  0  0  0  0
  -24.4530  -17.9549  146.5267 C   0  0  0  0  0  0  0  0  0  0  0  0
  -24.7246  -13.5238  146.0399 C   0  0  0  0  0  0  0  0  0  0  0  0
  -24.6663  -12.8711  145.1560 C   0  0  0  0  0  0  0  0  0  0  0  0
  -24.8681  -11.4113  145.2430 C   0  0  0  0  0  0  0  0  0  0  0  0
  -26.2546  -11.1490  145.5675 C   0  0  0  0  0  0  0  0  0  0  0  0
  -27.2487  -11.7450  144.9632 C   0  0  0  0  0  0  0  0  0  0  0  0
  -28.5691  -11.2898  145.1519 C   0  0  0  0  0  0  0  0  0  0  0  0
  -29.3407  -10.5016  144.2304 C   0  0  0  0  0  0  0  0  0  0  0  0
  -30.0379   -9.3980  144.5460 C   0  0  0  0  0  0  0  0  0  0  0  0
  -30.6383   -8.6927  143.5101 C   0  0  0  0  0  0  0  0  0  0  0  0
  -30.1289   -8.6329  142.4521 C   0  0  0  0  0  0  0  0  0  0  0  0
  -30.5420   -7.7667  141.2877 C   0  0  0  0  0  0  0  0  0  0  0  0
  -28.8931  -10.5132  142.8887 C   0  0  0  0  0  0  0  0  0  0  0  0
  -29.3513   -9.6548  141.9315 C   0  0  0  0  0  0  0  0  0  0  0  0
  -29.8040   -7.7162  139.7754 Cl  0  0  0  0  0  0  0  0  0  0  0  0
  -29.3719  -12.3065  146.0162 C   0  0  0  0  0  0  0  0  0  0  0  0
  -28.7041  -13.2943  146.8076 C   0  0  0  0  0  0  0  0  0  0  0  0
  -29.2733  -14.4082  146.9290 C   0  0  0  0  0  0  0  0  0  0  0  0
  -30.6435  -14.4792  147.0995 C   0  0  0  0  0  0  0  0  0  0  0  0
  -24.6948  -19.1481  147.0045 O   0  0  0  0  0  0  0  0  0  0  0  0
  -28.5839  -15.5115  147.6666 C   0  0  0  0  0  0  0  0  0  0  0  0
  -27.8574  -16.4314  146.8943 C   0  0  0  0  0  0  0  0  0  0  0  0
  -26.4711  -16.8433  146.7072 C   0  0  0  0  0  0  0  0  0  0  0  0
  -26.7265  -17.7835  145.7869 F   0  0  0  0  0  0  0  0  0  0  0  0
  -27.0384  -12.6346  144.0484 O   0  0  0  0  0  0  0  0  0  0  0  0
  -28.8038  -17.0402  146.1898 O   0  0  0  0  0  0  0  0  0  0  0  0
  -23.7751  -14.7547  143.7935 O   0  0  0  0  0  0  0  0  0  0  0  0
  1  2  1  0
  2  3  1  0
  3  4  1  0
  4  5  2  0
  1  6  1  0
  5  7  1  0
  6  7  1  0
  3  8  1  0
  8  9  2  3
  9 10  1  0
 10 11  1  0
 11 12  1  0
 12 13  1  0
 13 14  1  0
 18 21  1  0
 13 22  1  0
 22 23  1  0
 23 24  2  3
 24 25  1  0
  7 26  1  0
 24 27  1  0
 27 28  1  0
  5 29  1  0
 28 29  1  0
 29 30  1  0
 12 31  2  0
 28 32  2  0
  2 33  2  0
 18 17  1  0
 14 15  2  0
 15 16  1  0
 16 17  2  0
 17 20  1  0
 20 19  2  0
 19 14  1  0
M  END

$$$$
No_207-/dssg/home/sw_qyf/PocketFlow/Model-Generation-Results/5HT2A_7WC7_rec_A_10.pdb/2024-01-01-03-54-21/
     RDKit          3D

 35 39  0  0  0  0  0  0  0  0999 V2000
  -24.1553  -17.8465  145.7021 C   0  0  0  0  0  0  0  0  0  0  0  0
  -24.6364  -17.2931  146.7091 C   0  0  0  0  0  0  0  0  0  0  0  0
  -24.0780  -17.2921  147.9389 C   0  0  0  0  0  0  0  0  0  0  0  0
  -24.6869  -16.7004  149.1440 C   0  0  0  0  0  0  0  0  0  0  0  0
  -24.2301  -16.9781  150.4264 C   0  0  0  0  0  0  0  0  0  0  0  0
  -25.9017  -16.5979  146.5402 C   0  0  0  0  0  0  0  0  0  0  0  0
  -26.0817  -15.5312  145.7200 C   0  0  0  0  0  0  0  0  0  0  0  0
  -27.3142  -14.9123  145.5580 C   0  0  0  0  0  0  0  0  0  0  0  0
  -27.3628  -13.5934  145.0517 C   0  0  0  0  0  0  0  0  0  0  0  0
  -28.3818  -12.6731  145.3295 C   0  0  0  0  0  0  0  0  0  0  0  0
  -28.5070  -11.4358  144.5965 C   0  0  0  0  0  0  0  0  0  0  0  0
  -27.6485  -11.1525  143.5627 C   0  0  0  0  0  0  0  0  0  0  0  0
  -27.8933   -9.9839  142.8619 C   0  0  0  0  0  0  0  0  0  0  0  0
  -28.0069  -10.0307  141.5072 C   0  0  0  0  0  0  0  0  0  0  0  0
  -28.7620   -9.1099  140.7748 C   0  0  0  0  0  0  0  0  0  0  0  0
  -28.8982   -9.1325  139.3633 C   0  0  0  0  0  0  0  0  0  0  0  0
  -28.0008   -9.9882  138.7258 C   0  0  0  0  0  0  0  0  0  0  0  0
  -27.1556  -10.8423  139.4090 C   0  0  0  0  0  0  0  0  0  0  0  0
  -27.1841  -10.8673  140.8397 C   0  0  0  0  0  0  0  0  0  0  0  0
  -26.8686  -13.2689  143.6375 C   0  0  0  0  0  0  0  0  0  0  0  0
  -26.9117  -12.1317  143.0344 C   0  0  0  0  0  0  0  0  0  0  0  0
  -29.0816  -12.8701  146.6803 C   0  0  0  0  0  0  0  0  0  0  0  0
  -29.6142  -14.0305  147.0832 C   0  0  0  0  0  0  0  0  0  0  0  0
  -28.9217  -15.2582  147.2053 C   0  0  0  0  0  0  0  0  0  0  0  0
  -28.0930  -15.4338  146.5248 C   0  0  0  0  0  0  0  0  0  0  0  0
  -27.2845  -16.5834  147.1050 N   0  0  0  0  0  0  0  0  0  0  0  0
  -23.0720  -16.8740  150.7452 C   0  0  0  0  0  0  0  0  0  0  0  0
  -21.9762  -16.9186  149.6415 C   0  0  0  0  0  0  0  0  0  0  0  0
  -22.6255  -17.3053  148.2423 C   0  0  0  0  0  0  0  0  0  0  0  0
  -29.5488   -8.0358  138.7027 C   0  0  0  0  0  0  0  0  0  0  0  0
  -26.3811  -11.9206  138.7595 C   0  0  0  0  0  0  0  0  0  0  0  0
  -25.5119  -11.9228  138.1616 O   0  0  0  0  0  0  0  0  0  0  0  0
  -26.8598  -13.1392  139.2270 O   0  0  0  0  0  0  0  0  0  0  0  0
  -24.0537  -19.2579  145.8683 O   0  0  0  0  0  0  0  0  0  0  0  0
  -23.3683  -17.3144  144.8780 O   0  0  0  0  0  0  0  0  0  0  0  0
  1  2  1  0
  2  3  1  0
  2  6  1  0
  6  7  1  0
  7  8  1  0
 12 13  1  0
 13 14  1  0
 10 22  1  0
 22 23  2  0
 23 24  1  0
  8 25  1  0
 24 25  2  0
  6 26  1  0
 25 26  1  0
 16 30  1  0
 18 31  1  0
 31 32  2  0
 31 33  1  0
  1 34  1  0
  1 35  2  0
  8  9  1  0
 14 15  2  0
 15 16  1  0
 16 17  2  0
 17 18  1  0
 18 19  2  0
 19 14  1  0
  3  4  2  0
  4  5  1  0
  5 27  2  0
 27 28  1  0
 28 29  2  0
 29  3  1  0
  9 10  2  0
 10 11  1  0
 11 12  2  0
 12 21  1  0
 21 20  2  0
 20  9  1  0
M  END

$$$$
No_208-/dssg/home/sw_qyf/PocketFlow/Model-Generation-Results/5HT2A_7WC7_rec_A_10.pdb/2024-01-01-03-54-21/
     RDKit          3D

 35 36  0  0  0  0  0  0  0  0999 V2000
  -24.1553  -17.8465  145.7021 C   0  0  0  0  0  0  0  0  0  0  0  0
  -24.6364  -17.2931  146.7091 C   0  0  0  0  0  0  0  0  0  0  0  0
  -24.5709  -15.9334  146.8074 C   0  0  0  0  0  0  0  0  0  0  0  0
  -24.2378  -15.1233  145.7159 C   0  0  0  0  0  0  0  0  0  0  0  0
  -23.7252  -15.7878  144.6028 C   0  0  0  0  0  0  0  0  0  0  0  0
  -23.7157  -17.1120  144.6123 C   0  0  0  0  0  0  0  0  0  0  0  0
  -24.2776  -13.6066  145.8348 C   0  0  0  0  0  0  0  0  0  0  0  0
  -24.9701  -13.0084  144.8620 C   0  0  0  0  0  0  0  0  0  0  0  0
  -25.0438  -11.7328  145.0522 N   0  0  0  0  0  0  0  0  0  0  0  0
  -25.6550  -13.6112  144.0587 O   0  0  0  0  0  0  0  0  0  0  0  0
  -24.0838  -19.3532  145.6159 C   0  0  0  0  0  0  0  0  0  0  0  0
  -26.0478  -10.8294  144.4223 C   0  0  0  0  0  0  0  0  0  0  0  0
  -27.1052  -10.7754  145.4792 C   0  0  0  0  0  0  0  0  0  0  0  0
  -28.1968  -11.6715  145.2638 C   0  0  0  0  0  0  0  0  0  0  0  0
  -28.8536  -11.6351  144.2690 C   0  0  0  0  0  0  0  0  0  0  0  0
  -29.0646  -10.2755  143.6610 C   0  0  0  0  0  0  0  0  0  0  0  0
  -29.6260  -10.0212  142.4364 C   0  0  0  0  0  0  0  0  0  0  0  0
  -30.2986   -9.2159  142.2605 C   0  0  0  0  0  0  0  0  0  0  0  0
  -31.5354   -8.9203  142.0868 C   0  0  0  0  0  0  0  0  0  0  0  0
  -29.5000   -8.0120  141.4657 C   0  0  0  0  0  0  0  0  0  0  0  0
  -29.3118   -7.8872  140.1045 C   0  0  0  0  0  0  0  0  0  0  0  0
  -28.6886   -8.8639  139.4101 C   0  0  0  0  0  0  0  0  0  0  0  0
  -27.8757   -9.9106  139.9760 C   0  0  0  0  0  0  0  0  0  0  0  0
  -27.2338  -10.8084  139.1884 C   0  0  0  0  0  0  0  0  0  0  0  0
  -27.9688  -11.4000  138.1495 C   0  0  0  0  0  0  0  0  0  0  0  0
  -27.5177  -12.6802  137.7401 C   0  0  0  0  0  0  0  0  0  0  0  0
  -28.4166  -12.6329  146.3875 C   0  0  0  0  0  0  0  0  0  0  0  0
  -29.4009  -12.4338  147.3760 C   0  0  0  0  0  0  0  0  0  0  0  0
  -30.0612  -13.4592  148.1182 C   0  0  0  0  0  0  0  0  0  0  0  0
  -29.4210  -14.7448  148.0168 C   0  0  0  0  0  0  0  0  0  0  0  0
  -28.3662  -14.9858  147.1148 C   0  0  0  0  0  0  0  0  0  0  0  0
  -27.9454  -13.9224  146.2471 C   0  0  0  0  0  0  0  0  0  0  0  0
  -31.0681  -13.2247  149.1312 C   0  0  0  0  0  0  0  0  0  0  0  0
  -31.3490  -13.9548  150.1739 C   0  0  0  0  0  0  0  0  0  0  0  0
  -32.4023  -13.7563  151.0919 C   0  0  0  0  0  0  0  0  0  0  0  0
  4  7  1  0
  7  8  1  0
  8  9  1  0
  8 10  2  0
  1 11  1  0
  9 12  1  0
 12 13  1  0
 13 14  1  0
 14 15  1  0
 15 16  1  0
 16 17  1  0
 17 18  1  0
 18 19  2  0
 18 20  1  0
 20 21  2  3
 21 22  1  0
 22 23  1  0
 23 24  2  3
 24 25  1  0
 25 26  1  0
 14 27  1  0
 29 33  1  0
 33 34  2  3
 34 35  1  0
  1  2  2  0
  2  3  1  0
  3  4  2  0
  4  5  1  0
  5  6  2  0
  6  1  1  0
 27 28  2  0
 28 29  1  0
 29 30  2  0
 30 31  1  0
 31 32  2  0
 32 27  1  0
M  END

$$$$
No_209-/dssg/home/sw_qyf/PocketFlow/Model-Generation-Results/5HT2A_7WC7_rec_A_10.pdb/2024-01-01-03-54-21/
     RDKit          3D

 35 40  0  0  0  0  0  0  0  0999 V2000
  -24.1553  -17.8465  145.7021 C   0  0  0  0  0  0  0  0  0  0  0  0
  -23.9795  -18.4462  146.7426 C   0  0  0  0  0  0  0  0  0  0  0  0
  -25.1196  -16.8106  145.6408 C   0  0  0  0  0  0  0  0  0  0  0  0
  -25.2440  -15.8776  144.5240 C   0  0  0  0  0  0  0  0  0  0  0  0
  -26.0733  -14.7284  144.7060 C   0  0  0  0  0  0  0  0  0  0  0  0
  -26.0749  -13.6607  143.7625 C   0  0  0  0  0  0  0  0  0  0  0  0
  -24.5491  -18.0521  147.9995 C   0  0  0  0  0  0  0  0  0  0  0  0
  -25.4112  -16.9742  148.0640 C   0  0  0  0  0  0  0  0  0  0  0  0
  -25.6107  -16.2038  146.8886 C   0  0  0  0  0  0  0  0  0  0  0  0
  -26.0858  -13.9691  142.5803 C   0  0  0  0  0  0  0  0  0  0  0  0
  -26.4199  -15.0383  146.7721 C   0  0  0  0  0  0  0  0  0  0  0  0
  -26.6492  -14.1845  145.9044 C   0  0  0  0  0  0  0  0  0  0  0  0
  -26.9797  -13.3216  141.5278 C   0  0  0  0  0  0  0  0  0  0  0  0
  -28.0607  -12.5897  142.0437 C   0  0  0  0  0  0  0  0  0  0  0  0
  -27.8431  -11.8749  143.2977 C   0  0  0  0  0  0  0  0  0  0  0  0
  -26.9708  -12.6221  144.2763 C   0  0  0  0  0  0  0  0  0  0  0  0
  -26.7845  -11.8929  145.3864 N   0  0  0  0  0  0  0  0  0  0  0  0
  -26.7539  -12.8952  146.4945 C   0  0  0  0  0  0  0  0  0  0  0  0
  -28.7721  -10.8841  143.6767 C   0  0  0  0  0  0  0  0  0  0  0  0
  -29.4340  -10.0771  142.7552 C   0  0  0  0  0  0  0  0  0  0  0  0
  -30.3042   -9.0140  143.0712 C   0  0  0  0  0  0  0  0  0  0  0  0
  -30.7532   -8.0975  142.1543 C   0  0  0  0  0  0  0  0  0  0  0  0
  -30.1486   -8.0361  140.8826 C   0  0  0  0  0  0  0  0  0  0  0  0
  -29.1091   -8.9256  140.5881 C   0  0  0  0  0  0  0  0  0  0  0  0
  -28.4474   -8.8852  139.3568 C   0  0  0  0  0  0  0  0  0  0  0  0
  -28.7376   -9.8588  141.4984 C   0  0  0  0  0  0  0  0  0  0  0  0
  -28.5772   -7.8485  138.5353 N   0  0  0  0  0  0  0  0  0  0  0  0
  -27.3290   -9.6424  139.1180 N   0  0  0  0  0  0  0  0  0  0  0  0
  -26.9430  -13.7063  140.3229 O   0  0  0  0  0  0  0  0  0  0  0  0
  -31.0453   -9.1705  144.3051 N   0  0  0  0  0  0  0  0  0  0  0  0
  -27.7977   -8.1083  137.4184 C   0  0  0  0  0  0  0  0  0  0  0  0
  -27.0268  -10.7503  139.8289 C   0  0  0  0  0  0  0  0  0  0  0  0
  -27.6907  -10.7954  141.1029 C   0  0  0  0  0  0  0  0  0  0  0  0
  -26.4282  -10.3065  141.7405 O   0  0  0  0  0  0  0  0  0  0  0  0
  -23.7143  -18.2446  144.5545 O   0  0  0  0  0  0  0  0  0  0  0  0
  5  6  1  0
 16 17  1  0
 12 18  1  0
 17 18  1  0
 15 19  1  0
 25 27  1  0
 13 29  1  0
 21 30  1  0
 27 31  1  0
 33 34  1  0
  1 35  1  0
 19 20  1  0
 24 25  2  0
 25 28  1  0
 28 32  2  0
 32 33  1  0
 33 26  2  0
  1  2  2  0
  2  7  1  0
  7  8  2  0
  8  9  1  0
  3  1  1  0
 20 21  2  0
 21 22  1  0
 22 23  2  0
 23 24  1  0
 24 26  1  0
 26 20  1  0
  6 10  2  0
 10 13  1  0
 13 14  2  0
 14 15  1  0
 15 16  2  0
 16  6  1  0
  3  4  2  0
  4  5  1  0
  5 12  2  0
 12 11  1  0
 11  9  2  0
  9  3  1  0
M  END

$$$$
No_210-/dssg/home/sw_qyf/PocketFlow/Model-Generation-Results/5HT2A_7WC7_rec_A_10.pdb/2024-01-01-03-54-21/
     RDKit          3D

 24 25  0  0  0  0  0  0  0  0999 V2000
  -24.1553  -17.8465  145.7021 C   0  0  0  0  0  0  0  0  0  0  0  0
  -24.6364  -17.2931  146.7091 C   0  0  0  0  0  0  0  0  0  0  0  0
  -24.0780  -17.2921  147.9389 C   0  0  0  0  0  0  0  0  0  0  0  0
  -24.6761  -16.7363  149.1478 C   0  0  0  0  0  0  0  0  0  0  0  0
  -25.9460  -16.2771  148.9169 N   0  0  0  0  0  0  0  0  0  0  0  0
  -26.5624  -16.2643  147.7963 C   0  0  0  0  0  0  0  0  0  0  0  0
  -25.9372  -16.7985  146.6947 C   0  0  0  0  0  0  0  0  0  0  0  0
  -27.9836  -15.7731  147.7455 C   0  0  0  0  0  0  0  0  0  0  0  0
  -28.2902  -14.7271  146.8910 C   0  0  0  0  0  0  0  0  0  0  0  0
  -29.5606  -14.0621  147.1367 C   0  0  0  0  0  0  0  0  0  0  0  0
  -29.9139  -12.9334  146.3806 C   0  0  0  0  0  0  0  0  0  0  0  0
  -28.8271  -12.0161  146.3136 C   0  0  0  0  0  0  0  0  0  0  0  0
  -29.0301  -10.7803  145.6413 C   0  0  0  0  0  0  0  0  0  0  0  0
  -28.1454  -10.3992  144.5691 C   0  0  0  0  0  0  0  0  0  0  0  0
  -28.0034  -11.2862  143.6330 C   0  0  0  0  0  0  0  0  0  0  0  0
  -28.8588  -11.4170  142.6292 C   0  0  0  0  0  0  0  0  0  0  0  0
  -28.4319  -12.0094  141.3916 C   0  0  0  0  0  0  0  0  0  0  0  0
  -27.4386  -12.9715  141.3934 C   0  0  0  0  0  0  0  0  0  0  0  0
  -26.8175  -13.2240  142.6980 C   0  0  0  0  0  0  0  0  0  0  0  0
  -25.8375  -14.2089  142.9212 C   0  0  0  0  0  0  0  0  0  0  0  0
  -26.9455  -12.3213  143.6959 C   0  0  0  0  0  0  0  0  0  0  0  0
  -23.8264  -16.9919  144.6439 O   0  0  0  0  0  0  0  0  0  0  0  0
  -23.4488  -18.9551  145.6588 O   0  0  0  0  0  0  0  0  0  0  0  0
  -28.1909  -11.7772  147.7130 C   0  0  0  0  0  0  0  0  0  0  0  0
  1  2  1  0
  6  8  1  0
  8  9  1  0
  9 10  2  3
 10 11  1  0
 11 12  2  3
 12 13  1  0
 13 14  1  0
 14 15  1  0
 19 20  1  0
  1 22  1  0
  1 23  2  0
 12 24  1  0
 15 16  2  0
 16 17  1  0
 17 18  2  0
 18 19  1  0
 19 21  2  0
 21 15  1  0
  2  3  2  0
  3  4  1  0
  4  5  2  0
  5  6  1  0
  6  7  2  0
  7  2  1  0
M  END

$$$$
No_211-/dssg/home/sw_qyf/PocketFlow/Model-Generation-Results/5HT2A_7WC7_rec_A_10.pdb/2024-01-01-03-54-21/
     RDKit          3D

 11 12  0  0  0  0  0  0  0  0999 V2000
  -23.1746  -16.6014  144.8668 C   0  0  0  0  0  0  0  0  0  0  0  0
  -23.7011  -17.0158  145.9774 C   0  0  0  0  0  0  0  0  0  0  0  0
  -24.2134  -16.0722  146.8877 C   0  0  0  0  0  0  0  0  0  0  0  0
  -23.6191  -15.3702  144.4057 C   0  0  0  0  0  0  0  0  0  0  0  0
  -24.2909  -14.3938  145.2254 C   0  0  0  0  0  0  0  0  0  0  0  0
  -24.6051  -14.7662  146.4983 C   0  0  0  0  0  0  0  0  0  0  0  0
  -24.5090  -12.8057  144.7194 Cl  0  0  0  0  0  0  0  0  0  0  0  0
  -23.5267  -18.2541  146.6631 N   0  0  0  0  0  0  0  0  0  0  0  0
  -24.0905  -18.3017  147.8404 C   0  0  0  0  0  0  0  0  0  0  0  0
  -24.5691  -16.9385  148.1087 C   0  0  0  0  0  0  0  0  0  0  0  0
  -25.1425  -16.4841  149.1944 O   0  0  0  0  0  0  0  0  0  0  0  0
  5  7  1  0
  2  8  1  0
  8  9  2  0
  3 10  1  0
  9 10  1  0
 10 11  2  0
  1  2  2  0
  2  3  1  0
  3  6  2  0
  6  5  1  0
  5  4  2  0
  4  1  1  0
M  END

$$$$
No_212-/dssg/home/sw_qyf/PocketFlow/Model-Generation-Results/5HT2A_7WC7_rec_A_10.pdb/2024-01-01-03-54-21/
     RDKit          3D

 32 36  0  0  0  0  0  0  0  0999 V2000
  -24.1553  -17.8465  145.7021 C   0  0  0  0  0  0  0  0  0  0  0  0
  -24.2856  -16.6364  145.3494 C   0  0  0  0  0  0  0  0  0  0  0  0
  -25.0033  -15.6772  146.0737 C   0  0  0  0  0  0  0  0  0  0  0  0
  -25.7224  -16.0756  147.0213 C   0  0  0  0  0  0  0  0  0  0  0  0
  -24.8891  -18.3427  146.7818 C   0  0  0  0  0  0  0  0  0  0  0  0
  -25.6060  -17.4168  147.5658 C   0  0  0  0  0  0  0  0  0  0  0  0
  -23.5635  -16.0962  144.2194 N   0  0  0  0  0  0  0  0  0  0  0  0
  -25.1010  -14.2012  145.7945 C   0  0  0  0  0  0  0  0  0  0  0  0
  -24.4660  -13.6688  144.7366 C   0  0  0  0  0  0  0  0  0  0  0  0
  -24.3538  -12.3032  144.4395 C   0  0  0  0  0  0  0  0  0  0  0  0
  -25.1186  -11.5553  145.2068 C   0  0  0  0  0  0  0  0  0  0  0  0
  -25.8910  -12.0148  146.3845 C   0  0  0  0  0  0  0  0  0  0  0  0
  -25.8088  -13.3267  146.6511 C   0  0  0  0  0  0  0  0  0  0  0  0
  -23.5565  -14.6621  144.0390 C   0  0  0  0  0  0  0  0  0  0  0  0
  -23.5094  -18.7593  144.9759 F   0  0  0  0  0  0  0  0  0  0  0  0
  -25.2102  -10.1660  144.9315 O   0  0  0  0  0  0  0  0  0  0  0  0
  -26.0019   -9.9391  143.8103 C   0  0  0  0  0  0  0  0  0  0  0  0
  -27.4746  -10.1089  144.1503 C   0  0  0  0  0  0  0  0  0  0  0  0
  -28.3849   -9.6118  143.2752 C   0  0  0  0  0  0  0  0  0  0  0  0
  -29.5365   -9.5633  143.5595 C   0  0  0  0  0  0  0  0  0  0  0  0
  -30.0874  -10.1263  144.8909 C   0  0  0  0  0  0  0  0  0  0  0  0
  -29.1566  -10.7859  145.6828 C   0  0  0  0  0  0  0  0  0  0  0  0
  -27.7848  -10.6781  145.3897 C   0  0  0  0  0  0  0  0  0  0  0  0
  -30.7252   -9.1398  142.7081 C   0  0  0  0  0  0  0  0  0  0  0  0
  -30.3545   -8.6729  141.6375 O   0  0  0  0  0  0  0  0  0  0  0  0
  -31.9363   -9.6402  142.8179 O   0  0  0  0  0  0  0  0  0  0  0  0
  -29.2600   -8.7117  140.9794 C   0  0  0  0  0  0  0  0  0  0  0  0
  -29.1990   -7.6161  139.8663 C   0  0  0  0  0  0  0  0  0  0  0  0
  -28.3242   -7.8474  138.8276 C   0  0  0  0  0  0  0  0  0  0  0  0
  -28.3302   -9.1272  138.3422 C   0  0  0  0  0  0  0  0  0  0  0  0
  -27.9113  -10.2030  139.2335 C   0  0  0  0  0  0  0  0  0  0  0  0
  -28.7861   -9.9992  140.5801 C   0  0  0  0  0  0  0  0  0  0  0  0
  1 15  1  0
 11 16  1  0
 16 17  1  0
 17 18  1  0
 20 24  1  0
 24 25  1  0
 24 26  2  0
 25 27  1  0
 18 19  2  0
 19 20  1  0
 20 21  2  0
 21 22  1  0
 22 23  2  0
 23 18  1  0
  1  2  2  0
  3  4  2  0
  4  6  1  0
  6  5  2  0
  5  1  1  0
 27 28  2  0
 28 29  1  0
 29 30  2  0
 30 31  1  0
 31 32  2  0
 32 27  1  0
  2  3  1  0
  3  8  1  0
  9 14  1  0
 14  7  2  0
  7  2  1  0
  8  9  2  0
  9 10  1  0
 10 11  2  0
 11 12  1  0
 12 13  2  0
 13  8  1  0
M  END

$$$$
No_213-/dssg/home/sw_qyf/PocketFlow/Model-Generation-Results/5HT2A_7WC7_rec_A_10.pdb/2024-01-01-03-54-21/
     RDKit          3D

 13 13  0  0  0  0  0  0  0  0999 V2000
  -24.1553  -17.8465  145.7021 C   0  0  0  0  0  0  0  0  0  0  0  0
  -24.6364  -17.2931  146.7091 C   0  0  0  0  0  0  0  0  0  0  0  0
  -25.8608  -16.5592  146.5934 C   0  0  0  0  0  0  0  0  0  0  0  0
  -25.9088  -15.1597  146.9911 C   0  0  0  0  0  0  0  0  0  0  0  0
  -26.8304  -14.2303  146.5024 C   0  0  0  0  0  0  0  0  0  0  0  0
  -28.1334  -14.3679  146.9858 C   0  0  0  0  0  0  0  0  0  0  0  0
  -29.0462  -13.3065  146.8635 C   0  0  0  0  0  0  0  0  0  0  0  0
  -28.6236  -12.1709  146.0898 C   0  0  0  0  0  0  0  0  0  0  0  0
  -29.5580  -11.0943  145.8188 C   0  0  0  0  0  0  0  0  0  0  0  0
  -29.2591  -10.1905  144.7454 C   0  0  0  0  0  0  0  0  0  0  0  0
  -28.0527  -10.3271  144.0574 C   0  0  0  0  0  0  0  0  0  0  0  0
  -27.4382  -11.2214  144.3080 C   0  0  0  0  0  0  0  0  0  0  0  0
  -27.5636  -12.2627  145.3541 C   0  0  0  0  0  0  0  0  0  0  0  0
  1  2  1  0
  2  3  1  0
  3  4  1  0
  4  5  1  0
  5  6  1  0
  6  7  2  3
  7  8  1  0
  8  9  2  0
  9 10  1  0
 10 11  2  0
 11 12  1  0
 12 13  2  0
 13  8  1  0
M  END

$$$$
No_214-/dssg/home/sw_qyf/PocketFlow/Model-Generation-Results/5HT2A_7WC7_rec_A_10.pdb/2024-01-01-03-54-21/
     RDKit          3D

 35 36  0  0  0  0  0  0  0  0999 V2000
  -23.1746  -16.6014  144.8668 C   0  0  0  0  0  0  0  0  0  0  0  0
  -23.8963  -15.5346  144.7885 C   0  0  0  0  0  0  0  0  0  0  0  0
  -23.6398  -14.5115  145.3282 C   0  0  0  0  0  0  0  0  0  0  0  0
  -24.3239  -13.3647  145.1279 C   0  0  0  0  0  0  0  0  0  0  0  0
  -23.8301  -12.0965  145.7919 C   0  0  0  0  0  0  0  0  0  0  0  0
  -25.5937  -13.3096  144.8491 O   0  0  0  0  0  0  0  0  0  0  0  0
  -26.5730  -12.9241  145.7947 C   0  0  0  0  0  0  0  0  0  0  0  0
  -26.9700  -11.4885  145.5656 C   0  0  0  0  0  0  0  0  0  0  0  0
  -26.4259  -10.7263  144.5787 C   0  0  0  0  0  0  0  0  0  0  0  0
  -27.2836   -9.6523  144.0814 C   0  0  0  0  0  0  0  0  0  0  0  0
  -28.3587  -10.0636  143.2043 C   0  0  0  0  0  0  0  0  0  0  0  0
  -29.1417   -9.0855  142.6571 C   0  0  0  0  0  0  0  0  0  0  0  0
  -29.9812   -9.4111  141.5673 C   0  0  0  0  0  0  0  0  0  0  0  0
  -23.6627  -17.8504  145.5012 C   0  0  0  0  0  0  0  0  0  0  0  0
  -23.6599  -17.7470  146.9687 C   0  0  0  0  0  0  0  0  0  0  0  0
  -24.9837  -17.6796  147.6344 C   0  0  0  0  0  0  0  0  0  0  0  0
  -25.4879  -16.3636  147.9611 C   0  0  0  0  0  0  0  0  0  0  0  0
  -26.7148  -16.0312  147.3724 C   0  0  0  0  0  0  0  0  0  0  0  0
  -27.1531  -16.4262  146.3074 C   0  0  0  0  0  0  0  0  0  0  0  0
  -28.4723  -16.0739  145.8186 C   0  0  0  0  0  0  0  0  0  0  0  0
  -29.2514  -15.2912  146.6690 C   0  0  0  0  0  0  0  0  0  0  0  0
  -28.8417  -14.8452  147.9505 C   0  0  0  0  0  0  0  0  0  0  0  0
  -27.5020  -15.2425  148.3339 C   0  0  0  0  0  0  0  0  0  0  0  0
  -30.8376   -8.3642  141.1379 C   0  0  0  0  0  0  0  0  0  0  0  0
  -30.5896   -7.1687  142.0031 C   0  0  0  0  0  0  0  0  0  0  0  0
  -29.5467   -7.6260  142.8948 C   0  0  0  0  0  0  0  0  0  0  0  0
  -28.5710  -11.2948  143.0251 O   0  0  0  0  0  0  0  0  0  0  0  0
  -23.9115  -18.9302  144.9796 O   0  0  0  0  0  0  0  0  0  0  0  0
  -24.6606  -15.4772  143.6068 O   0  0  0  0  0  0  0  0  0  0  0  0
  -29.7268  -13.9867  148.7560 C   0  0  0  0  0  0  0  0  0  0  0  0
  -31.1149  -13.9703  148.5949 C   0  0  0  0  0  0  0  0  0  0  0  0
  -31.8323  -12.9338  149.2209 C   0  0  0  0  0  0  0  0  0  0  0  0
  -32.5539  -12.2362  149.0123 C   0  0  0  0  0  0  0  0  0  0  0  0
  -33.2405  -11.2547  149.9539 C   0  0  0  0  0  0  0  0  0  0  0  0
  -32.7017  -11.1965  151.0684 C   0  0  0  0  0  0  0  0  0  0  0  0
  1  2  1  0
  2  3  2  3
  3  4  1  0
  4  5  1  0
  4  6  1  0
  6  7  1  0
  7  8  1  0
  8  9  1  0
  9 10  1  0
 10 11  1  0
 11 12  2  3
 12 13  1  0
  1 14  1  0
 14 15  1  0
 15 16  1  0
 16 17  1  0
 17 18  1  0
 13 24  1  0
 24 25  2  0
 12 26  1  0
 25 26  1  0
 11 27  1  0
 14 28  2  0
  2 29  1  0
 22 30  1  0
 30 31  1  0
 31 32  2  3
 32 33  1  0
 33 34  2  3
 34 35  1  0
 18 19  2  0
 19 20  1  0
 20 21  2  0
 21 22  1  0
 22 23  2  0
 23 18  1  0
M  END

$$$$
No_215-/dssg/home/sw_qyf/PocketFlow/Model-Generation-Results/5HT2A_7WC7_rec_A_10.pdb/2024-01-01-03-54-21/
     RDKit          3D

 16 16  0  0  0  0  0  0  0  0999 V2000
  -23.1746  -16.6014  144.8668 C   0  0  0  0  0  0  0  0  0  0  0  0
  -23.7011  -17.0158  145.9774 C   0  0  0  0  0  0  0  0  0  0  0  0
  -24.2134  -16.0722  146.8877 C   0  0  0  0  0  0  0  0  0  0  0  0
  -24.7882  -16.3410  148.2078 C   0  0  0  0  0  0  0  0  0  0  0  0
  -23.4231  -15.2781  144.3679 C   0  0  0  0  0  0  0  0  0  0  0  0
  -24.0726  -14.2968  145.2170 C   0  0  0  0  0  0  0  0  0  0  0  0
  -24.4910  -14.7123  146.5041 C   0  0  0  0  0  0  0  0  0  0  0  0
  -24.0851  -17.1531  149.1341 C   0  0  0  0  0  0  0  0  0  0  0  0
  -24.6108  -17.4339  150.4269 C   0  0  0  0  0  0  0  0  0  0  0  0
  -24.1991  -12.9095  144.8055 C   0  0  0  0  0  0  0  0  0  0  0  0
  -24.2807  -12.1820  145.8778 F   0  0  0  0  0  0  0  0  0  0  0  0
  -25.1739  -12.8008  144.0313 F   0  0  0  0  0  0  0  0  0  0  0  0
  -23.0386  -12.5665  144.1807 F   0  0  0  0  0  0  0  0  0  0  0  0
  -23.5151  -18.4055  146.4868 C   0  0  0  0  0  0  0  0  0  0  0  0
  -23.4386  -19.2251  145.7283 O   0  0  0  0  0  0  0  0  0  0  0  0
  -23.5298  -18.6465  147.8426 O   0  0  0  0  0  0  0  0  0  0  0  0
  4  8  1  0
  8  9  2  0
  6 10  1  0
 10 11  1  0
 10 12  1  0
 10 13  1  0
  2 14  1  0
 14 15  1  0
 14 16  1  0
  4  3  1  0
  1  2  2  0
  2  3  1  0
  3  7  2  0
  7  6  1  0
  6  5  2  0
  5  1  1  0
M  END

$$$$
No_216-/dssg/home/sw_qyf/PocketFlow/Model-Generation-Results/5HT2A_7WC7_rec_A_10.pdb/2024-01-01-03-54-21/
     RDKit          3D

 35 39  0  0  0  0  0  0  0  0999 V2000
  -24.1553  -17.8465  145.7021 C   0  0  0  0  0  0  0  0  0  0  0  0
  -23.9795  -18.4462  146.7426 C   0  0  0  0  0  0  0  0  0  0  0  0
  -25.1196  -16.8106  145.6409 C   0  0  0  0  0  0  0  0  0  0  0  0
  -25.9236  -16.5070  146.7422 C   0  0  0  0  0  0  0  0  0  0  0  0
  -25.6173  -17.2153  147.9099 C   0  0  0  0  0  0  0  0  0  0  0  0
  -24.6179  -18.1473  147.9620 C   0  0  0  0  0  0  0  0  0  0  0  0
  -26.9749  -15.4806  146.6971 C   0  0  0  0  0  0  0  0  0  0  0  0
  -27.0375  -14.6438  145.9133 C   0  0  0  0  0  0  0  0  0  0  0  0
  -26.1385  -14.4061  144.7708 C   0  0  0  0  0  0  0  0  0  0  0  0
  -25.1126  -15.5319  144.6835 C   0  0  0  0  0  0  0  0  0  0  0  0
  -26.1540  -13.5529  143.6876 C   0  0  0  0  0  0  0  0  0  0  0  0
  -26.9111  -12.3923  143.9928 C   0  0  0  0  0  0  0  0  0  0  0  0
  -27.6089  -11.7784  142.9547 C   0  0  0  0  0  0  0  0  0  0  0  0
  -28.5748  -10.7433  143.3197 C   0  0  0  0  0  0  0  0  0  0  0  0
  -29.2901   -9.9581  142.4408 C   0  0  0  0  0  0  0  0  0  0  0  0
  -30.3044   -9.0056  142.7388 C   0  0  0  0  0  0  0  0  0  0  0  0
  -30.8699   -9.0392  144.0315 C   0  0  0  0  0  0  0  0  0  0  0  0
  -30.1476   -9.7096  145.0784 C   0  0  0  0  0  0  0  0  0  0  0  0
  -29.1220  -10.6628  144.7521 C   0  0  0  0  0  0  0  0  0  0  0  0
  -30.8392   -8.2007  141.6718 C   0  0  0  0  0  0  0  0  0  0  0  0
  -30.1263   -7.8433  140.6702 O   0  0  0  0  0  0  0  0  0  0  0  0
  -27.4847  -12.0711  141.6289 C   0  0  0  0  0  0  0  0  0  0  0  0
  -27.5319  -11.1769  140.4237 Cl  0  0  0  0  0  0  0  0  0  0  0  0
  -28.5730  -11.4404  145.6972 N   0  0  0  0  0  0  0  0  0  0  0  0
  -27.4346  -12.2866  145.3766 C   0  0  0  0  0  0  0  0  0  0  0  0
  -27.8015  -13.3199  146.1510 C   0  0  0  0  0  0  0  0  0  0  0  0
  -27.2441  -13.3644  141.2945 O   0  0  0  0  0  0  0  0  0  0  0  0
  -29.1117   -8.2470  140.2946 C   0  0  0  0  0  0  0  0  0  0  0  0
  -28.5247   -7.5603  139.0804 C   0  0  0  0  0  0  0  0  0  0  0  0
  -27.6986   -8.4104  138.2587 C   0  0  0  0  0  0  0  0  0  0  0  0
  -28.5929   -8.7011  137.1044 C   0  0  0  0  0  0  0  0  0  0  0  0
  -28.7046   -9.9981  136.8564 O   0  0  0  0  0  0  0  0  0  0  0  0
  -28.6088  -10.3796  135.5647 C   0  0  0  0  0  0  0  0  0  0  0  0
  -28.5614  -11.8697  135.4773 C   0  0  0  0  0  0  0  0  0  0  0  0
  -28.6600  -13.3605  147.0708 O   0  0  0  0  0  0  0  0  0  0  0  0
  9 11  1  0
 11 12  1  0
 12 13  1  0
 13 14  1  0
 16 20  1  0
 20 21  1  0
 13 22  1  0
 22 23  1  0
 19 24  1  0
 12 25  1  0
 24 25  1  0
  8 26  1  0
 25 26  1  0
 22 27  1  0
 21 28  1  0
 28 29  1  0
 29 30  1  0
 30 31  1  0
 31 32  1  0
 32 33  1  0
 33 34  1  0
 26 35  2  0
  4  7  2  0
  7  8  1  0
  8  9  2  0
  9 10  1  0
 10  3  2  0
 14 15  2  0
 15 16  1  0
 16 17  2  0
 17 18  1  0
 18 19  2  0
 19 14  1  0
  1  2  2  0
  2  6  1  0
  6  5  2  0
  5  4  1  0
  4  3  1  0
  3  1  1  0
M  END

$$$$
No_217-/dssg/home/sw_qyf/PocketFlow/Model-Generation-Results/5HT2A_7WC7_rec_A_10.pdb/2024-01-01-03-54-21/
     RDKit          3D

 15 15  0  0  0  0  0  0  0  0999 V2000
  -23.1746  -16.6014  144.8668 C   0  0  0  0  0  0  0  0  0  0  0  0
  -23.7011  -17.0158  145.9774 C   0  0  0  0  0  0  0  0  0  0  0  0
  -24.2134  -16.0722  146.8877 C   0  0  0  0  0  0  0  0  0  0  0  0
  -23.3742  -15.2706  144.3922 C   0  0  0  0  0  0  0  0  0  0  0  0
  -24.0638  -14.3065  145.2723 C   0  0  0  0  0  0  0  0  0  0  0  0
  -24.4769  -14.7246  146.5384 C   0  0  0  0  0  0  0  0  0  0  0  0
  -24.2073  -12.8864  144.8852 C   0  0  0  0  0  0  0  0  0  0  0  0
  -23.1488  -12.0825  145.5253 C   0  0  0  0  0  0  0  0  0  0  0  0
  -23.5606  -18.4458  146.4427 C   0  0  0  0  0  0  0  0  0  0  0  0
  -22.5804  -18.6451  147.1684 F   0  0  0  0  0  0  0  0  0  0  0  0
  -24.7138  -18.7016  147.2603 F   0  0  0  0  0  0  0  0  0  0  0  0
  -23.5609  -19.2870  145.4708 F   0  0  0  0  0  0  0  0  0  0  0  0
  -23.9960  -12.7910  143.5374 F   0  0  0  0  0  0  0  0  0  0  0  0
  -25.4289  -12.4337  145.0986 F   0  0  0  0  0  0  0  0  0  0  0  0
  -22.2775  -11.4667  144.7887 O   0  0  0  0  0  0  0  0  0  0  0  0
  5  7  1  0
  7  8  1  0
  2  9  1  0
  9 10  1  0
  9 11  1  0
  9 12  1  0
  7 13  1  0
  7 14  1  0
  8 15  1  0
  1  2  2  0
  2  3  1  0
  3  6  2  0
  6  5  1  0
  5  4  2  0
  4  1  1  0
M  END

$$$$
No_218-/dssg/home/sw_qyf/PocketFlow/Model-Generation-Results/5HT2A_7WC7_rec_A_10.pdb/2024-01-01-03-54-21/
     RDKit          3D

 35 38  0  0  0  0  0  0  0  0999 V2000
  -24.1553  -17.8465  145.7021 C   0  0  0  0  0  0  0  0  0  0  0  0
  -24.6364  -17.2931  146.7091 C   0  0  0  0  0  0  0  0  0  0  0  0
  -24.0780  -17.2921  147.9389 C   0  0  0  0  0  0  0  0  0  0  0  0
  -24.6761  -16.7363  149.1478 C   0  0  0  0  0  0  0  0  0  0  0  0
  -25.9985  -16.2638  148.9932 C   0  0  0  0  0  0  0  0  0  0  0  0
  -26.6270  -16.3412  147.7728 C   0  0  0  0  0  0  0  0  0  0  0  0
  -25.9734  -16.9165  146.6819 C   0  0  0  0  0  0  0  0  0  0  0  0
  -23.8394  -16.9427  144.6493 N   0  0  0  0  0  0  0  0  0  0  0  0
  -23.7980  -19.0410  145.4510 O   0  0  0  0  0  0  0  0  0  0  0  0
  -28.0563  -15.9006  147.7419 C   0  0  0  0  0  0  0  0  0  0  0  0
  -28.4137  -14.7858  146.9983 C   0  0  0  0  0  0  0  0  0  0  0  0
  -29.7686  -14.2649  147.1946 C   0  0  0  0  0  0  0  0  0  0  0  0
  -30.1498  -13.0645  146.5487 C   0  0  0  0  0  0  0  0  0  0  0  0
  -29.0558  -12.0492  146.7489 C   0  0  0  0  0  0  0  0  0  0  0  0
  -27.7496  -12.3930  146.2907 C   0  0  0  0  0  0  0  0  0  0  0  0
  -27.3487  -13.7570  146.9108 C   0  0  0  0  0  0  0  0  0  0  0  0
  -26.8290  -11.5554  145.7742 C   0  0  0  0  0  0  0  0  0  0  0  0
  -25.4708  -11.9930  145.6507 C   0  0  0  0  0  0  0  0  0  0  0  0
  -24.8444  -12.8115  146.5369 C   0  0  0  0  0  0  0  0  0  0  0  0
  -25.8877  -14.0105  146.8750 C   0  0  0  0  0  0  0  0  0  0  0  0
  -27.2788  -10.3563  145.0817 C   0  0  0  0  0  0  0  0  0  0  0  0
  -27.7758  -10.3961  143.7025 C   0  0  0  0  0  0  0  0  0  0  0  0
  -27.3657  -11.3671  142.8912 C   0  0  0  0  0  0  0  0  0  0  0  0
  -27.9302  -11.5157  141.6351 C   0  0  0  0  0  0  0  0  0  0  0  0
  -28.8707  -10.5684  141.2065 C   0  0  0  0  0  0  0  0  0  0  0  0
  -29.3414   -9.5663  142.1458 C   0  0  0  0  0  0  0  0  0  0  0  0
  -28.7567   -9.5081  143.4413 C   0  0  0  0  0  0  0  0  0  0  0  0
  -30.3705   -8.6264  141.7282 C   0  0  0  0  0  0  0  0  0  0  0  0
  -31.6854   -8.7347  142.6717 C   0  0  0  0  0  0  0  0  0  0  0  0
  -27.4349  -12.5162  140.6964 C   0  0  0  0  0  0  0  0  0  0  0  0
  -26.6408  -13.0937  141.0706 O   0  0  0  0  0  0  0  0  0  0  0  0
  -27.7374  -12.2963  139.4569 O   0  0  0  0  0  0  0  0  0  0  0  0
  -31.3874   -9.2234  143.8491 O   0  0  0  0  0  0  0  0  0  0  0  0
  -30.3458   -7.7949  140.7735 N   0  0  0  0  0  0  0  0  0  0  0  0
  -24.5771  -11.1145  145.1551 O   0  0  0  0  0  0  0  0  0  0  0  0
  1  2  1  0
  1  8  1  0
  1  9  2  0
  6 10  1  0
 17 21  1  0
 21 22  1  0
 26 28  1  0
 28 29  1  0
 24 30  1  0
 30 31  1  0
 30 32  2  0
 29 33  1  0
 28 34  1  0
 18 35  1  0
 10 11  1  0
 11 12  2  0
 12 13  1  0
 13 14  2  0
 14 15  1  0
 16 11  1  0
  2  3  2  0
  3  4  1  0
  4  5  2  0
  5  6  1  0
  6  7  2  0
  7  2  1  0
 22 23  2  0
 23 24  1  0
 24 25  2  0
 25 26  1  0
 26 27  2  0
 27 22  1  0
 15 16  2  0
 16 20  1  0
 20 19  2  0
 19 18  1  0
 18 17  2  0
 17 15  1  0
M  END

$$$$
No_219-/dssg/home/sw_qyf/PocketFlow/Model-Generation-Results/5HT2A_7WC7_rec_A_10.pdb/2024-01-01-03-54-21/
     RDKit          3D

 18 18  0  0  0  0  0  0  0  0999 V2000
  -24.1553  -17.8465  145.7021 C   0  0  0  0  0  0  0  0  0  0  0  0
  -24.6364  -17.2931  146.7091 C   0  0  0  0  0  0  0  0  0  0  0  0
  -24.0780  -17.2921  147.9389 C   0  0  0  0  0  0  0  0  0  0  0  0
  -24.6761  -16.7363  149.1478 C   0  0  0  0  0  0  0  0  0  0  0  0
  -25.9985  -16.2638  148.9932 C   0  0  0  0  0  0  0  0  0  0  0  0
  -26.6270  -16.3412  147.7728 C   0  0  0  0  0  0  0  0  0  0  0  0
  -27.9899  -15.9394  147.5329 C   0  0  0  0  0  0  0  0  0  0  0  0
  -26.0201  -16.8885  146.6761 C   0  0  0  0  0  0  0  0  0  0  0  0
  -29.0925  -16.2047  148.2595 C   0  0  0  0  0  0  0  0  0  0  0  0
  -28.2537  -14.9937  146.5064 C   0  0  0  0  0  0  0  0  0  0  0  0
  -23.3580  -19.0359  145.6744 C   0  0  0  0  0  0  0  0  0  0  0  0
  -27.2188  -14.6721  145.5554 C   0  0  0  0  0  0  0  0  0  0  0  0
  -27.1880  -13.3998  144.9622 C   0  0  0  0  0  0  0  0  0  0  0  0
  -26.5945  -13.1889  143.7437 C   0  0  0  0  0  0  0  0  0  0  0  0
  -27.3950  -12.7745  142.6636 C   0  0  0  0  0  0  0  0  0  0  0  0
  -27.9144  -11.5389  142.5929 C   0  0  0  0  0  0  0  0  0  0  0  0
  -28.3039  -11.0028  143.9758 C   0  0  0  0  0  0  0  0  0  0  0  0
  -28.9966   -9.6623  144.0454 C   0  0  0  0  0  0  0  0  0  0  0  0
  1  2  1  0
  6  7  1  0
  7  9  1  0
  7 10  1  0
  1 11  1  0
 10 12  1  0
 12 13  2  3
 13 14  1  0
 14 15  1  0
 15 16  2  3
 16 17  1  0
 17 18  1  0
  2  3  2  0
  3  4  1  0
  4  5  2  0
  5  6  1  0
  6  8  2  0
  8  2  1  0
M  END

$$$$
No_220-/dssg/home/sw_qyf/PocketFlow/Model-Generation-Results/5HT2A_7WC7_rec_A_10.pdb/2024-01-01-03-54-21/
     RDKit          3D

 16 16  0  0  0  0  0  0  0  0999 V2000
  -24.1553  -17.8465  145.7021 C   0  0  0  0  0  0  0  0  0  0  0  0
  -23.9795  -18.4462  146.7426 C   0  0  0  0  0  0  0  0  0  0  0  0
  -25.1196  -16.8106  145.6409 C   0  0  0  0  0  0  0  0  0  0  0  0
  -25.2440  -15.8776  144.5240 C   0  0  0  0  0  0  0  0  0  0  0  0
  -26.0733  -14.7284  144.7061 C   0  0  0  0  0  0  0  0  0  0  0  0
  -27.0964  -14.7050  145.6625 C   0  0  0  0  0  0  0  0  0  0  0  0
  -27.9657  -13.5889  145.7632 C   0  0  0  0  0  0  0  0  0  0  0  0
  -27.7173  -12.4745  144.9173 C   0  0  0  0  0  0  0  0  0  0  0  0
  -26.8054  -12.5853  143.8535 C   0  0  0  0  0  0  0  0  0  0  0  0
  -25.8751  -13.6563  143.8468 C   0  0  0  0  0  0  0  0  0  0  0  0
  -23.8675  -17.6689  147.9334 C   0  0  0  0  0  0  0  0  0  0  0  0
  -23.4226  -18.0655  149.1988 C   0  0  0  0  0  0  0  0  0  0  0  0
  -29.0375  -13.5062  146.7866 C   0  0  0  0  0  0  0  0  0  0  0  0
  -29.6395  -12.2395  147.0527 C   0  0  0  0  0  0  0  0  0  0  0  0
  -30.6556  -12.2284  148.0853 C   0  0  0  0  0  0  0  0  0  0  0  0
  -23.2294  -16.9917  150.2074 C   0  0  0  0  0  0  0  0  0  0  0  0
  1  2  2  3
  1  3  1  0
  3  4  1  0
  4  5  1  0
  5  6  1  0
  6  7  1  0
  7  8  1  0
  8  9  1  0
  5 10  1  0
  9 10  1  0
  2 11  1  0
 11 12  1  0
  7 13  1  0
 13 14  2  3
 14 15  1  0
 12 16  2  0
M  END

$$$$
No_221-/dssg/home/sw_qyf/PocketFlow/Model-Generation-Results/5HT2A_7WC7_rec_A_10.pdb/2024-01-01-03-54-21/
     RDKit          3D

 35 37  0  0  0  0  0  0  0  0999 V2000
  -24.1553  -17.8465  145.7021 C   0  0  0  0  0  0  0  0  0  0  0  0
  -24.2856  -16.6364  145.3494 C   0  0  0  0  0  0  0  0  0  0  0  0
  -24.5733  -15.7651  145.9979 C   0  0  0  0  0  0  0  0  0  0  0  0
  -24.7088  -14.2765  145.5906 C   0  0  0  0  0  0  0  0  0  0  0  0
  -24.0081  -14.0223  144.3771 C   0  0  0  0  0  0  0  0  0  0  0  0
  -24.5461  -18.2167  147.0077 C   0  0  0  0  0  0  0  0  0  0  0  0
  -24.9798  -17.2136  147.8740 C   0  0  0  0  0  0  0  0  0  0  0  0
  -24.9933  -15.8410  147.4193 C   0  0  0  0  0  0  0  0  0  0  0  0
  -26.0591  -13.6712  145.7228 C   0  0  0  0  0  0  0  0  0  0  0  0
  -26.3308  -12.4800  145.3115 C   0  0  0  0  0  0  0  0  0  0  0  0
  -25.5438  -11.4830  145.5730 C   0  0  0  0  0  0  0  0  0  0  0  0
  -24.1157  -11.7561  145.7315 C   0  0  0  0  0  0  0  0  0  0  0  0
  -23.4324  -12.7757  144.9852 C   0  0  0  0  0  0  0  0  0  0  0  0
  -26.9649  -12.3986  143.9173 C   0  0  0  0  0  0  0  0  0  0  0  0
  -26.9748  -11.3320  143.1677 C   0  0  0  0  0  0  0  0  0  0  0  0
  -27.8331  -11.1626  142.0071 C   0  0  0  0  0  0  0  0  0  0  0  0
  -28.7546  -10.1226  141.8815 C   0  0  0  0  0  0  0  0  0  0  0  0
  -28.8149   -9.3466  140.6813 C   0  0  0  0  0  0  0  0  0  0  0  0
  -28.1106   -9.7650  139.5578 C   0  0  0  0  0  0  0  0  0  0  0  0
  -27.2528  -10.9048  139.6768 C   0  0  0  0  0  0  0  0  0  0  0  0
  -27.0043  -11.5001  140.9439 C   0  0  0  0  0  0  0  0  0  0  0  0
  -28.2518   -9.0326  138.3595 C   0  0  0  0  0  0  0  0  0  0  0  0
  -22.1449  -12.5464  144.7120 F   0  0  0  0  0  0  0  0  0  0  0  0
  -29.6167   -9.8092  143.0664 C   0  0  0  0  0  0  0  0  0  0  0  0
  -30.8569   -9.1776  142.7267 C   0  0  0  0  0  0  0  0  0  0  0  0
  -31.5129   -8.6678  143.7433 O   0  0  0  0  0  0  0  0  0  0  0  0
  -28.1732   -7.7871  138.3463 O   0  0  0  0  0  0  0  0  0  0  0  0
  -28.6255   -9.6072  137.2827 O   0  0  0  0  0  0  0  0  0  0  0  0
  -31.3826   -9.2006  141.6121 O   0  0  0  0  0  0  0  0  0  0  0  0
  -25.2650  -17.4893  149.3533 C   0  0  0  0  0  0  0  0  0  0  0  0
  -26.4780  -17.6202  149.7569 O   0  0  0  0  0  0  0  0  0  0  0  0
  -24.1981  -17.8248  150.2228 O   0  0  0  0  0  0  0  0  0  0  0  0
  -22.5192  -13.2653  145.3626 Cl  0  0  0  0  0  0  0  0  0  0  0  0
  -29.3013  -10.2002  144.2402 O   0  0  0  0  0  0  0  0  0  0  0  0
  -23.0758  -17.0386  150.0672 C   0  0  0  0  0  0  0  0  0  0  0  0
  3  4  1  0
  4  5  2  0
  4  9  1  0
  9 10  1  0
 10 11  1  0
 11 12  1  0
  5 13  1  0
 12 13  1  0
 10 14  1  0
 14 15  1  0
 19 22  1  0
 13 23  1  0
 17 24  1  0
 24 25  1  0
 25 26  1  0
 22 27  2  0
 22 28  1  0
 25 29  2  0
  7 30  1  0
 30 31  2  0
 30 32  1  0
 13 33  1  0
 24 34  1  0
 32 35  1  0
 15 16  1  0
  1  2  2  0
  2  3  1  0
  3  8  2  0
  8  7  1  0
  7  6  2  0
  6  1  1  0
 16 17  2  0
 17 18  1  0
 18 19  2  0
 19 20  1  0
 20 21  2  0
 21 16  1  0
M  END

$$$$
No_222-/dssg/home/sw_qyf/PocketFlow/Model-Generation-Results/5HT2A_7WC7_rec_A_10.pdb/2024-01-01-03-54-21/
     RDKit          3D

 35 38  0  0  0  0  0  0  0  0999 V2000
  -23.1746  -16.6014  144.8668 C   0  0  0  0  0  0  0  0  0  0  0  0
  -23.7011  -17.0158  145.9774 C   0  0  0  0  0  0  0  0  0  0  0  0
  -23.7336  -18.2775  146.3737 C   0  0  0  0  0  0  0  0  0  0  0  0
  -23.2769  -15.1496  144.5841 C   0  0  0  0  0  0  0  0  0  0  0  0
  -24.0283  -14.2099  145.3704 C   0  0  0  0  0  0  0  0  0  0  0  0
  -24.0856  -12.8276  145.0210 C   0  0  0  0  0  0  0  0  0  0  0  0
  -24.6348  -14.6565  146.6294 C   0  0  0  0  0  0  0  0  0  0  0  0
  -24.4985  -16.0604  146.9501 C   0  0  0  0  0  0  0  0  0  0  0  0
  -22.8914  -12.1322  145.1510 C   0  0  0  0  0  0  0  0  0  0  0  0
  -25.3213  -12.2362  144.8630 C   0  0  0  0  0  0  0  0  0  0  0  0
  -26.0763  -11.9765  146.0946 C   0  0  0  0  0  0  0  0  0  0  0  0
  -27.4565  -11.4151  145.8874 C   0  0  0  0  0  0  0  0  0  0  0  0
  -28.1906  -12.0652  144.9447 C   0  0  0  0  0  0  0  0  0  0  0  0
  -29.3545  -11.2078  144.6501 C   0  0  0  0  0  0  0  0  0  0  0  0
  -29.2094  -10.0735  143.7158 C   0  0  0  0  0  0  0  0  0  0  0  0
  -28.3032  -10.0436  142.9680 C   0  0  0  0  0  0  0  0  0  0  0  0
  -28.4610   -9.1054  141.8095 C   0  0  0  0  0  0  0  0  0  0  0  0
  -28.0484   -9.3942  140.4977 C   0  0  0  0  0  0  0  0  0  0  0  0
  -27.2532  -10.5088  140.1798 C   0  0  0  0  0  0  0  0  0  0  0  0
  -26.7824  -10.7562  138.9076 C   0  0  0  0  0  0  0  0  0  0  0  0
  -26.2786  -12.0949  138.8744 C   0  0  0  0  0  0  0  0  0  0  0  0
  -28.7224   -8.6124  139.4650 C   0  0  0  0  0  0  0  0  0  0  0  0
  -28.2844   -8.6360  138.1540 C   0  0  0  0  0  0  0  0  0  0  0  0
  -22.9375  -19.0377  146.4477 O   0  0  0  0  0  0  0  0  0  0  0  0
  -24.8602  -18.7139  147.1437 O   0  0  0  0  0  0  0  0  0  0  0  0
  -29.6045   -7.5581  139.9362 C   0  0  0  0  0  0  0  0  0  0  0  0
  -30.2583   -9.0759  143.8541 C   0  0  0  0  0  0  0  0  0  0  0  0
  -30.3569   -7.9826  143.0291 C   0  0  0  0  0  0  0  0  0  0  0  0
  -29.4419   -8.0400  141.8852 C   0  0  0  0  0  0  0  0  0  0  0  0
  -30.1607   -7.2148  140.7395 C   0  0  0  0  0  0  0  0  0  0  0  0
  -30.3736  -11.4464  145.4505 O   0  0  0  0  0  0  0  0  0  0  0  0
  -26.6401  -12.9434  139.7614 O   0  0  0  0  0  0  0  0  0  0  0  0
  -27.1100  -12.4549  140.9512 C   0  0  0  0  0  0  0  0  0  0  0  0
  -27.4659  -13.5278  141.8406 O   0  0  0  0  0  0  0  0  0  0  0  0
  -28.0127  -11.4326  141.1483 O   0  0  0  0  0  0  0  0  0  0  0  0
  2  3  1  0
  5  6  1  0
  6  9  1  0
  6 10  1  0
 10 11  1  0
 11 12  1  0
 12 13  2  3
 13 14  1  0
 14 15  1  0
 19 20  1  0
 20 21  1  0
 22 23  1  0
  3 24  2  0
  3 25  1  0
 14 31  2  0
 21 32  1  0
 32 33  1  0
 33 34  1  0
 19 35  1  0
 33 35  1  0
 19 18  1  0
 17 18  2  0
 18 22  1  0
 22 26  2  0
 26 30  1  0
 30 29  2  0
 15 16  2  0
 16 17  1  0
 17 29  1  0
 29 28  1  0
 28 27  2  0
 27 15  1  0
  1  2  2  0
  2  8  1  0
  8  7  2  0
  7  5  1  0
  5  4  2  0
  4  1  1  0
M  END

$$$$
No_223-/dssg/home/sw_qyf/PocketFlow/Model-Generation-Results/5HT2A_7WC7_rec_A_10.pdb/2024-01-01-03-54-21/
     RDKit          3D

 14 14  0  0  0  0  0  0  0  0999 V2000
  -23.1746  -16.6014  144.8668 C   0  0  0  0  0  0  0  0  0  0  0  0
  -23.7011  -17.0158  145.9774 C   0  0  0  0  0  0  0  0  0  0  0  0
  -23.7336  -18.2775  146.3737 C   0  0  0  0  0  0  0  0  0  0  0  0
  -24.1960  -18.6445  147.6858 C   0  0  0  0  0  0  0  0  0  0  0  0
  -24.7100  -17.6145  148.5486 C   0  0  0  0  0  0  0  0  0  0  0  0
  -24.7929  -16.2635  148.0870 C   0  0  0  0  0  0  0  0  0  0  0  0
  -24.2508  -15.9434  146.8891 C   0  0  0  0  0  0  0  0  0  0  0  0
  -22.4415  -15.6338  144.7979 F   0  0  0  0  0  0  0  0  0  0  0  0
  -24.3596  -16.3378  143.9919 F   0  0  0  0  0  0  0  0  0  0  0  0
  -24.2877  -14.2915  146.4388 Cl  0  0  0  0  0  0  0  0  0  0  0  0
  -23.2818  -19.2590  145.6738 O   0  0  0  0  0  0  0  0  0  0  0  0
  -25.2171  -17.9442  149.6909 F   0  0  0  0  0  0  0  0  0  0  0  0
  -22.6840  -17.5896  144.1201 F   0  0  0  0  0  0  0  0  0  0  0  0
  -23.0737  -20.4971  146.3989 C   0  0  0  0  0  0  0  0  0  0  0  0
  1  2  1  0
  1  8  1  0
  1  9  1  0
  7 10  1  0
  3 11  1  0
  5 12  1  0
  1 13  1  0
 11 14  1  0
  2  3  2  0
  3  4  1  0
  4  5  2  0
  5  6  1  0
  6  7  2  0
  7  2  1  0
M  END

$$$$
No_224-/dssg/home/sw_qyf/PocketFlow/Model-Generation-Results/5HT2A_7WC7_rec_A_10.pdb/2024-01-01-03-54-21/
     RDKit          3D

 19 20  0  0  0  0  0  0  0  0999 V2000
  -23.1746  -16.6014  144.8668 C   0  0  0  0  0  0  0  0  0  0  0  0
  -23.8963  -15.5346  144.7885 C   0  0  0  0  0  0  0  0  0  0  0  0
  -23.6398  -14.5115  145.3281 C   0  0  0  0  0  0  0  0  0  0  0  0
  -24.3241  -13.3648  145.1281 C   0  0  0  0  0  0  0  0  0  0  0  0
  -23.8303  -12.0965  145.7921 C   0  0  0  0  0  0  0  0  0  0  0  0
  -25.3060  -13.1626  144.3111 O   0  0  0  0  0  0  0  0  0  0  0  0
  -23.6153  -17.8026  145.6028 C   0  0  0  0  0  0  0  0  0  0  0  0
  -24.4474  -17.5906  146.6778 C   0  0  0  0  0  0  0  0  0  0  0  0
  -23.8491  -17.6155  148.0145 C   0  0  0  0  0  0  0  0  0  0  0  0
  -24.1225  -16.5102  148.9391 C   0  0  0  0  0  0  0  0  0  0  0  0
  -25.5778  -16.2433  148.8559 C   0  0  0  0  0  0  0  0  0  0  0  0
  -26.1964  -16.0340  147.5140 C   0  0  0  0  0  0  0  0  0  0  0  0
  -27.5340  -15.5812  147.4799 C   0  0  0  0  0  0  0  0  0  0  0  0
  -25.6646  -16.8884  146.5396 C   0  0  0  0  0  0  0  0  0  0  0  0
  -28.6599  -16.1548  147.8928 C   0  0  0  0  0  0  0  0  0  0  0  0
  -29.9031  -15.4946  147.8011 C   0  0  0  0  0  0  0  0  0  0  0  0
  -29.8517  -14.1219  147.3024 C   0  0  0  0  0  0  0  0  0  0  0  0
  -28.7477  -13.5079  146.8596 C   0  0  0  0  0  0  0  0  0  0  0  0
  -27.4678  -14.2362  146.9501 C   0  0  0  0  0  0  0  0  0  0  0  0
  1  2  1  0
  2  3  2  3
  3  4  1  0
  4  5  1  0
  4  6  1  0
  1  7  2  3
  7  8  1  0
  8  9  1  0
  9 10  1  0
 10 11  1  0
 11 12  1  0
 12 13  1  0
  8 14  1  0
 12 14  1  0
 13 15  2  0
 15 16  1  0
 16 17  2  0
 17 18  1  0
 18 19  2  0
 19 13  1  0
M  END

$$$$
No_225-/dssg/home/sw_qyf/PocketFlow/Model-Generation-Results/5HT2A_7WC7_rec_A_10.pdb/2024-01-01-03-54-21/
     RDKit          3D

 14 16  0  0  0  0  0  0  0  0999 V2000
  -24.1553  -17.8465  145.7021 C   0  0  0  0  0  0  0  0  0  0  0  0
  -24.2855  -16.6364  145.3494 C   0  0  0  0  0  0  0  0  0  0  0  0
  -24.7211  -15.5955  146.2116 C   0  0  0  0  0  0  0  0  0  0  0  0
  -25.1321  -16.0374  147.5372 C   0  0  0  0  0  0  0  0  0  0  0  0
  -24.5163  -18.2968  146.9928 C   0  0  0  0  0  0  0  0  0  0  0  0
  -24.9533  -17.3074  147.9886 C   0  0  0  0  0  0  0  0  0  0  0  0
  -24.8610  -14.1860  145.8125 C   0  0  0  0  0  0  0  0  0  0  0  0
  -25.5066  -13.2609  146.5301 C   0  0  0  0  0  0  0  0  0  0  0  0
  -25.5501  -11.9133  146.1989 C   0  0  0  0  0  0  0  0  0  0  0  0
  -24.9291  -11.4358  145.0542 C   0  0  0  0  0  0  0  0  0  0  0  0
  -24.1538  -13.7532  144.6295 C   0  0  0  0  0  0  0  0  0  0  0  0
  -23.4248  -14.5442  143.8875 N   0  0  0  0  0  0  0  0  0  0  0  0
  -24.1508  -12.3472  144.3473 C   0  0  0  0  0  0  0  0  0  0  0  0
  -23.4634  -15.9325  144.2559 C   0  0  0  0  0  0  0  0  0  0  0  0
  3  7  1  0
 11 12  1  0
 12 14  2  0
 14  2  1  0
  1  2  2  0
  2  3  1  0
  3  4  2  0
  4  6  1  0
  6  5  2  0
  5  1  1  0
  7  8  2  0
  8  9  1  0
  9 10  2  0
 10 13  1  0
 13 11  2  0
 11  7  1  0
M  END

$$$$
No_226-/dssg/home/sw_qyf/PocketFlow/Model-Generation-Results/5HT2A_7WC7_rec_A_10.pdb/2024-01-01-03-54-21/
     RDKit          3D

 19 20  0  0  0  0  0  0  0  0999 V2000
  -23.1746  -16.6014  144.8668 C   0  0  0  0  0  0  0  0  0  0  0  0
  -23.8963  -15.5346  144.7885 C   0  0  0  0  0  0  0  0  0  0  0  0
  -24.6479  -15.0447  145.8164 C   0  0  0  0  0  0  0  0  0  0  0  0
  -25.3835  -13.7782  145.7887 C   0  0  0  0  0  0  0  0  0  0  0  0
  -25.5840  -12.9393  146.6927 C   0  0  0  0  0  0  0  0  0  0  0  0
  -23.3085  -17.4101  146.0508 C   0  0  0  0  0  0  0  0  0  0  0  0
  -24.0546  -16.9979  147.1513 C   0  0  0  0  0  0  0  0  0  0  0  0
  -24.7507  -15.7834  147.0928 C   0  0  0  0  0  0  0  0  0  0  0  0
  -26.1971  -11.6516  146.5211 C   0  0  0  0  0  0  0  0  0  0  0  0
  -26.5956  -11.2830  145.2206 C   0  0  0  0  0  0  0  0  0  0  0  0
  -26.3103  -12.2073  144.2120 C   0  0  0  0  0  0  0  0  0  0  0  0
  -25.6889  -13.4404  144.3978 C   0  0  0  0  0  0  0  0  0  0  0  0
  -27.2820   -9.7717  144.8820 Cl  0  0  0  0  0  0  0  0  0  0  0  0
  -24.0350  -17.7754  148.3973 C   0  0  0  0  0  0  0  0  0  0  0  0
  -24.3279  -16.9869  149.2302 F   0  0  0  0  0  0  0  0  0  0  0  0
  -24.9745  -18.7212  148.3399 F   0  0  0  0  0  0  0  0  0  0  0  0
  -22.8507  -18.2869  148.6017 F   0  0  0  0  0  0  0  0  0  0  0  0
  -26.7339  -11.8476  142.9492 O   0  0  0  0  0  0  0  0  0  0  0  0
  -27.8895  -11.1462  142.8148 C   0  0  0  0  0  0  0  0  0  0  0  0
  3  4  1  0
 10 13  1  0
  7 14  1  0
 14 15  1  0
 14 16  1  0
 14 17  1  0
 11 18  1  0
 18 19  1  0
  1  2  2  0
  2  3  1  0
  3  8  2  0
  8  7  1  0
  7  6  2  0
  6  1  1  0
  4  5  2  0
  5  9  1  0
  9 10  2  0
 10 11  1  0
 11 12  2  0
 12  4  1  0
M  END

$$$$
No_227-/dssg/home/sw_qyf/PocketFlow/Model-Generation-Results/5HT2A_7WC7_rec_A_10.pdb/2024-01-01-03-54-21/
     RDKit          3D

 25 26  0  0  0  0  0  0  0  0999 V2000
  -23.1746  -16.6014  144.8668 C   0  0  0  0  0  0  0  0  0  0  0  0
  -23.7011  -17.0158  145.9774 C   0  0  0  0  0  0  0  0  0  0  0  0
  -24.7096  -16.6222  146.3577 C   0  0  0  0  0  0  0  0  0  0  0  0
  -25.2589  -16.9410  147.8027 C   0  0  0  0  0  0  0  0  0  0  0  0
  -24.3234  -17.5558  148.6398 C   0  0  0  0  0  0  0  0  0  0  0  0
  -23.7919  -15.5148  144.2100 C   0  0  0  0  0  0  0  0  0  0  0  0
  -24.8968  -14.8817  144.7775 C   0  0  0  0  0  0  0  0  0  0  0  0
  -25.3730  -15.4146  145.9639 C   0  0  0  0  0  0  0  0  0  0  0  0
  -24.7003  -17.7376  150.0497 C   0  0  0  0  0  0  0  0  0  0  0  0
  -25.5630  -13.7418  144.1105 C   0  0  0  0  0  0  0  0  0  0  0  0
  -25.7658  -13.8611  142.9108 O   0  0  0  0  0  0  0  0  0  0  0  0
  -25.9673  -12.6354  144.8086 N   0  0  0  0  0  0  0  0  0  0  0  0
  -26.7063  -11.6066  144.2513 C   0  0  0  0  0  0  0  0  0  0  0  0
  -28.0372  -11.4573  144.9325 C   0  0  0  0  0  0  0  0  0  0  0  0
  -29.0238  -10.5726  144.4359 C   0  0  0  0  0  0  0  0  0  0  0  0
  -28.8453   -9.8382  143.2726 C   0  0  0  0  0  0  0  0  0  0  0  0
  -29.6931   -8.8168  142.8958 C   0  0  0  0  0  0  0  0  0  0  0  0
  -29.4162   -7.8331  141.9961 C   0  0  0  0  0  0  0  0  0  0  0  0
  -29.1687   -8.3845  140.6184 C   0  0  0  0  0  0  0  0  0  0  0  0
  -28.2298   -9.4403  140.5585 C   0  0  0  0  0  0  0  0  0  0  0  0
  -27.9439  -10.1870  141.6829 C   0  0  0  0  0  0  0  0  0  0  0  0
  -27.5944   -9.8341  139.3812 C   0  0  0  0  0  0  0  0  0  0  0  0
  -26.8886  -10.8912  139.4587 O   0  0  0  0  0  0  0  0  0  0  0  0
  -29.2649   -7.4940  139.5165 C   0  0  0  0  0  0  0  0  0  0  0  0
  -27.7420   -9.2222  138.3274 O   0  0  0  0  0  0  0  0  0  0  0  0
  3  4  1  0
  4  5  2  3
  5  9  1  0
  7 10  1  0
 10 11  1  0
 10 12  1  0
 12 13  1  0
 13 14  1  0
 14 15  2  3
 15 16  1  0
 20 22  1  0
 22 23  1  0
 19 24  1  0
 22 25  2  0
  1  2  2  0
  2  3  1  0
  3  8  2  0
  8  7  1  0
  7  6  2  0
  6  1  1  0
 16 17  2  0
 17 18  1  0
 18 19  2  0
 19 20  1  0
 20 21  2  0
 21 16  1  0
M  END

$$$$
No_228-/dssg/home/sw_qyf/PocketFlow/Model-Generation-Results/5HT2A_7WC7_rec_A_10.pdb/2024-01-01-03-54-21/
     RDKit          3D

 26 28  0  0  0  0  0  0  0  0999 V2000
  -23.1746  -16.6014  144.8668 C   0  0  0  0  0  0  0  0  0  0  0  0
  -23.7011  -17.0158  145.9774 C   0  0  0  0  0  0  0  0  0  0  0  0
  -24.2134  -16.0722  146.8877 C   0  0  0  0  0  0  0  0  0  0  0  0
  -23.3742  -15.2706  144.3922 C   0  0  0  0  0  0  0  0  0  0  0  0
  -24.0638  -14.3065  145.2723 C   0  0  0  0  0  0  0  0  0  0  0  0
  -24.2651  -12.9175  144.8725 C   0  0  0  0  0  0  0  0  0  0  0  0
  -24.4347  -14.7166  146.5555 C   0  0  0  0  0  0  0  0  0  0  0  0
  -23.2275  -12.1400  145.5682 C   0  0  0  0  0  0  0  0  0  0  0  0
  -23.5378  -18.4288  146.4755 C   0  0  0  0  0  0  0  0  0  0  0  0
  -24.2408  -19.2719  146.1657 O   0  0  0  0  0  0  0  0  0  0  0  0
  -22.2726  -18.6770  146.9349 O   0  0  0  0  0  0  0  0  0  0  0  0
  -25.6119  -12.4484  145.2006 C   0  0  0  0  0  0  0  0  0  0  0  0
  -26.0091  -11.2603  144.6567 C   0  0  0  0  0  0  0  0  0  0  0  0
  -27.4144  -10.8077  144.7985 C   0  0  0  0  0  0  0  0  0  0  0  0
  -27.9961   -9.9635  143.8556 C   0  0  0  0  0  0  0  0  0  0  0  0
  -29.4185   -9.8638  143.7556 C   0  0  0  0  0  0  0  0  0  0  0  0
  -30.1061  -10.2761  144.9725 C   0  0  0  0  0  0  0  0  0  0  0  0
  -29.5587  -11.0473  145.9663 C   0  0  0  0  0  0  0  0  0  0  0  0
  -28.1363  -11.2658  145.9064 C   0  0  0  0  0  0  0  0  0  0  0  0
  -30.0885   -9.0811  142.8278 C   0  0  0  0  0  0  0  0  0  0  0  0
  -31.3965   -8.7367  142.9712 C   0  0  0  0  0  0  0  0  0  0  0  0
  -29.4745   -8.9374  141.5135 C   0  0  0  0  0  0  0  0  0  0  0  0
  -29.8194   -7.7343  140.8143 C   0  0  0  0  0  0  0  0  0  0  0  0
  -31.9174   -7.8020  142.0163 N   0  0  0  0  0  0  0  0  0  0  0  0
  -29.1269   -7.3281  139.6148 C   0  0  0  0  0  0  0  0  0  0  0  0
  -31.1488   -7.4449  140.9756 C   0  0  0  0  0  0  0  0  0  0  0  0
  5  6  1  0
  6  8  1  0
  2  9  1  0
  9 10  1  0
  9 11  2  0
  6 12  1  0
 12 13  1  0
 13 14  1  0
 16 20  1  0
 23 25  1  0
 20 21  2  0
 21 24  1  0
 24 26  2  0
 26 23  1  0
 23 22  2  0
 22 20  1  0
 14 15  2  0
 15 16  1  0
 16 17  2  0
 17 18  1  0
 18 19  2  0
 19 14  1  0
  1  2  2  0
  2  3  1  0
  3  7  2  0
  7  5  1  0
  5  4  2  0
  4  1  1  0
M  END

$$$$
No_229-/dssg/home/sw_qyf/PocketFlow/Model-Generation-Results/5HT2A_7WC7_rec_A_10.pdb/2024-01-01-03-54-21/
     RDKit          3D

 20 22  0  0  0  0  0  0  0  0999 V2000
  -24.1553  -17.8465  145.7021 C   0  0  0  0  0  0  0  0  0  0  0  0
  -23.9795  -18.4462  146.7426 C   0  0  0  0  0  0  0  0  0  0  0  0
  -24.3577  -16.4380  145.7329 C   0  0  0  0  0  0  0  0  0  0  0  0
  -24.6120  -15.7738  146.9649 C   0  0  0  0  0  0  0  0  0  0  0  0
  -24.9231  -14.3801  146.9818 C   0  0  0  0  0  0  0  0  0  0  0  0
  -24.7000  -13.5386  145.9026 C   0  0  0  0  0  0  0  0  0  0  0  0
  -24.3040  -14.2591  144.6919 C   0  0  0  0  0  0  0  0  0  0  0  0
  -24.0696  -15.5901  144.7411 N   0  0  0  0  0  0  0  0  0  0  0  0
  -23.8521  -17.8487  147.8539 C   0  0  0  0  0  0  0  0  0  0  0  0
  -24.2513  -16.5046  148.1764 C   0  0  0  0  0  0  0  0  0  0  0  0
  -25.4665  -12.3525  145.7578 C   0  0  0  0  0  0  0  0  0  0  0  0
  -26.6075  -12.1403  145.0662 C   0  0  0  0  0  0  0  0  0  0  0  0
  -27.7042  -12.5827  145.7595 C   0  0  0  0  0  0  0  0  0  0  0  0
  -28.9140  -11.7666  145.8402 C   0  0  0  0  0  0  0  0  0  0  0  0
  -29.1256  -10.8326  144.7987 C   0  0  0  0  0  0  0  0  0  0  0  0
  -28.0565  -10.3546  144.0815 C   0  0  0  0  0  0  0  0  0  0  0  0
  -26.7417  -10.9875  144.3345 C   0  0  0  0  0  0  0  0  0  0  0  0
  -30.0618  -12.2294  146.7110 C   0  0  0  0  0  0  0  0  0  0  0  0
  -29.7354  -12.1174  147.7142 Cl  0  0  0  0  0  0  0  0  0  0  0  0
  -24.1467  -13.5853  143.7085 O   0  0  0  0  0  0  0  0  0  0  0  0
  4  5  1  0
  5  6  1  0
  6  7  1  0
  3  8  1  0
  7  8  1  0
  6 11  1  0
 11 12  1  0
 14 18  1  0
 18 19  1  0
  7 20  2  0
 12 13  2  0
 13 14  1  0
 14 15  2  0
 15 16  1  0
 16 17  2  0
 17 12  1  0
  1  2  2  0
  2  9  1  0
  9 10  2  0
 10  4  1  0
  4  3  2  0
  3  1  1  0
M  END

$$$$
No_230-/dssg/home/sw_qyf/PocketFlow/Model-Generation-Results/5HT2A_7WC7_rec_A_10.pdb/2024-01-01-03-54-21/
     RDKit          3D

 35 39  0  0  0  0  0  0  0  0999 V2000
  -24.1553  -17.8465  145.7021 C   0  0  0  0  0  0  0  0  0  0  0  0
  -24.2856  -16.6364  145.3494 C   0  0  0  0  0  0  0  0  0  0  0  0
  -25.0033  -15.6772  146.0737 C   0  0  0  0  0  0  0  0  0  0  0  0
  -24.8869  -14.2981  145.8377 C   0  0  0  0  0  0  0  0  0  0  0  0
  -24.0229  -13.8996  144.7516 C   0  0  0  0  0  0  0  0  0  0  0  0
  -24.9285  -18.3589  146.7591 C   0  0  0  0  0  0  0  0  0  0  0  0
  -23.2387  -14.8170  144.0919 C   0  0  0  0  0  0  0  0  0  0  0  0
  -23.3448  -16.1149  144.3263 C   0  0  0  0  0  0  0  0  0  0  0  0
  -25.6758  -17.4655  147.5534 C   0  0  0  0  0  0  0  0  0  0  0  0
  -25.7289  -16.1202  147.2873 C   0  0  0  0  0  0  0  0  0  0  0  0
  -25.5924  -13.2569  146.5964 C   0  0  0  0  0  0  0  0  0  0  0  0
  -26.3270  -12.2652  145.8301 C   0  0  0  0  0  0  0  0  0  0  0  0
  -25.7049  -11.3460  145.1361 C   0  0  0  0  0  0  0  0  0  0  0  0
  -26.3818  -10.2359  144.4963 C   0  0  0  0  0  0  0  0  0  0  0  0
  -27.7173  -12.1596  145.9548 C   0  0  0  0  0  0  0  0  0  0  0  0
  -28.4644  -11.1603  145.3687 C   0  0  0  0  0  0  0  0  0  0  0  0
  -27.7580  -10.1780  144.6277 C   0  0  0  0  0  0  0  0  0  0  0  0
  -28.5732   -9.1258  143.9363 C   0  0  0  0  0  0  0  0  0  0  0  0
  -29.9510   -9.2506  143.7417 C   0  0  0  0  0  0  0  0  0  0  0  0
  -30.4751   -8.9812  142.5484 C   0  0  0  0  0  0  0  0  0  0  0  0
  -29.6409   -8.5423  141.4860 C   0  0  0  0  0  0  0  0  0  0  0  0
  -29.9149   -8.3436  140.1667 C   0  0  0  0  0  0  0  0  0  0  0  0
  -28.8836   -8.2600  139.1989 C   0  0  0  0  0  0  0  0  0  0  0  0
  -28.0188   -9.4091  139.0185 C   0  0  0  0  0  0  0  0  0  0  0  0
  -28.0877  -10.3512  140.0279 C   0  0  0  0  0  0  0  0  0  0  0  0
  -27.5080  -11.6531  139.9108 C   0  0  0  0  0  0  0  0  0  0  0  0
  -27.5542  -12.6229  140.9133 C   0  0  0  0  0  0  0  0  0  0  0  0
  -27.8320  -12.0930  142.2675 C   0  0  0  0  0  0  0  0  0  0  0  0
  -28.5758  -10.8361  142.3723 C   0  0  0  0  0  0  0  0  0  0  0  0
  -28.5820   -9.9234  141.2656 C   0  0  0  0  0  0  0  0  0  0  0  0
  -29.7396  -11.2263  142.8761 O   0  0  0  0  0  0  0  0  0  0  0  0
  -26.9067  -12.0411  138.6666 C   0  0  0  0  0  0  0  0  0  0  0  0
  -31.4725   -7.6715  142.7285 C   0  0  0  0  0  0  0  0  0  0  0  0
  -28.4678  -13.1891  146.7569 C   0  0  0  0  0  0  0  0  0  0  0  0
  -28.2935  -14.5232  146.6688 C   0  0  0  0  0  0  0  0  0  0  0  0
  4 11  1  0
 11 12  1  0
 17 18  1  0
 18 19  1  0
 19 20  1  0
 20 21  1  0
 29 31  1  0
 26 32  1  0
 20 33  1  0
 15 34  1  0
 34 35  2  0
 25 26  2  0
 26 27  1  0
 27 28  2  0
 28 29  1  0
 29 30  2  0
  3  4  1  0
  4  5  2  0
  5  7  1  0
  7  8  2  0
  8  2  1  0
 12 13  2  0
 13 14  1  0
 14 17  2  0
 17 16  1  0
 16 15  2  0
 15 12  1  0
 21 22  2  0
 22 23  1  0
 23 24  2  0
 24 25  1  0
 25 30  1  0
 30 21  1  0
  1  2  2  0
  2  3  1  0
  3 10  2  0
 10  9  1  0
  9  6  2  0
  6  1  1  0
M  END

$$$$
No_231-/dssg/home/sw_qyf/PocketFlow/Model-Generation-Results/5HT2A_7WC7_rec_A_10.pdb/2024-01-01-03-54-21/
     RDKit          3D

 33 34  0  0  0  0  0  0  0  0999 V2000
  -23.1746  -16.6014  144.8668 C   0  0  0  0  0  0  0  0  0  0  0  0
  -23.8963  -15.5346  144.7885 C   0  0  0  0  0  0  0  0  0  0  0  0
  -24.5755  -15.0383  145.9043 C   0  0  0  0  0  0  0  0  0  0  0  0
  -25.0618  -13.6819  146.0347 C   0  0  0  0  0  0  0  0  0  0  0  0
  -24.0242  -12.8249  145.9593 C   0  0  0  0  0  0  0  0  0  0  0  0
  -23.8786  -17.6652  145.6663 C   0  0  0  0  0  0  0  0  0  0  0  0
  -24.6984  -17.2858  146.7874 C   0  0  0  0  0  0  0  0  0  0  0  0
  -25.2546  -15.9953  146.8612 C   0  0  0  0  0  0  0  0  0  0  0  0
  -26.3476  -13.1988  146.2246 C   0  0  0  0  0  0  0  0  0  0  0  0
  -26.6938  -11.8637  146.1234 C   0  0  0  0  0  0  0  0  0  0  0  0
  -22.6526  -13.1310  145.7304 C   0  0  0  0  0  0  0  0  0  0  0  0
  -27.0466  -11.4722  144.8592 C   0  0  0  0  0  0  0  0  0  0  0  0
  -27.6019  -10.1347  144.6311 C   0  0  0  0  0  0  0  0  0  0  0  0
  -28.3687   -9.8941  143.3758 C   0  0  0  0  0  0  0  0  0  0  0  0
  -29.2914   -8.8643  143.3261 C   0  0  0  0  0  0  0  0  0  0  0  0
  -30.0670   -8.7072  142.2735 C   0  0  0  0  0  0  0  0  0  0  0  0
  -29.6477   -9.3228  141.0397 C   0  0  0  0  0  0  0  0  0  0  0  0
  -28.6630  -10.2167  141.0820 C   0  0  0  0  0  0  0  0  0  0  0  0
  -27.9808  -10.5217  142.2971 C   0  0  0  0  0  0  0  0  0  0  0  0
  -28.2975  -10.9812  139.8713 C   0  0  0  0  0  0  0  0  0  0  0  0
  -28.0946  -12.4236  139.9666 C   0  0  0  0  0  0  0  0  0  0  0  0
  -31.2843   -7.4476  142.2298 Cl  0  0  0  0  0  0  0  0  0  0  0  0
  -26.9857  -12.9532  139.2857 C   0  0  0  0  0  0  0  0  0  0  0  0
  -22.2579  -12.2000  144.5606 C   0  0  0  0  0  0  0  0  0  0  0  0
  -23.8065  -17.5579  148.0813 C   0  0  0  0  0  0  0  0  0  0  0  0
  -24.5026  -17.3030  149.4174 C   0  0  0  0  0  0  0  0  0  0  0  0
  -23.8025  -17.1553  150.5818 C   0  0  0  0  0  0  0  0  0  0  0  0
  -25.9204  -17.4181  149.3996 C   0  0  0  0  0  0  0  0  0  0  0  0
  -25.7293  -13.1456  140.1604 C   0  0  0  0  0  0  0  0  0  0  0  0
  -23.7034  -18.9281  145.3698 O   0  0  0  0  0  0  0  0  0  0  0  0
  -26.1229  -13.4380  141.3130 O   0  0  0  0  0  0  0  0  0  0  0  0
  -24.8069  -13.6284  139.5264 O   0  0  0  0  0  0  0  0  0  0  0  0
  -27.9672  -10.2620  138.7439 C   0  0  0  0  0  0  0  0  0  0  0  0
  1  2  1  0
  2  3  1  0
  3  4  1  0
  4  5  1  0
  1  6  1  0
  6  7  1  0
  3  8  1  0
  7  8  1  0
  4  9  1  0
  9 10  2  3
  5 11  1  0
 10 12  1  0
 12 13  1  0
 13 14  1  0
 18 20  1  0
 20 21  1  0
 16 22  1  0
 21 23  1  0
 11 24  1  0
  7 25  1  0
 25 26  1  0
 26 27  2  0
 26 28  1  0
 23 29  1  0
  6 30  2  0
 29 31  2  0
 29 32  1  0
 20 33  1  0
 14 15  2  0
 15 16  1  0
 16 17  2  0
 17 18  1  0
 18 19  2  0
 19 14  1  0
M  END

$$$$
No_232-/dssg/home/sw_qyf/PocketFlow/Model-Generation-Results/5HT2A_7WC7_rec_A_10.pdb/2024-01-01-03-54-21/
     RDKit          3D

 30 31  0  0  0  0  0  0  0  0999 V2000
  -24.1553  -17.8465  145.7021 C   0  0  0  0  0  0  0  0  0  0  0  0
  -24.2856  -16.6364  145.3494 C   0  0  0  0  0  0  0  0  0  0  0  0
  -25.0033  -15.6772  146.0737 C   0  0  0  0  0  0  0  0  0  0  0  0
  -26.0408  -15.2581  145.8303 C   0  0  0  0  0  0  0  0  0  0  0  0
  -26.9398  -15.7988  144.9539 C   0  0  0  0  0  0  0  0  0  0  0  0
  -23.6994  -18.8558  144.8429 C   0  0  0  0  0  0  0  0  0  0  0  0
  -24.8600  -18.3071  146.9331 C   0  0  0  0  0  0  0  0  0  0  0  0
  -26.5367  -13.8983  146.4237 C   0  0  0  0  0  0  0  0  0  0  0  0
  -25.6941  -12.8223  146.5087 C   0  0  0  0  0  0  0  0  0  0  0  0
  -24.3276  -13.0879  146.7082 C   0  0  0  0  0  0  0  0  0  0  0  0
  -23.8380  -14.4750  146.2427 C   0  0  0  0  0  0  0  0  0  0  0  0
  -26.1547  -11.4620  146.7075 C   0  0  0  0  0  0  0  0  0  0  0  0
  -27.3097  -11.1792  145.8353 C   0  0  0  0  0  0  0  0  0  0  0  0
  -27.1439  -10.3987  144.6525 C   0  0  0  0  0  0  0  0  0  0  0  0
  -28.2186   -9.9617  143.8748 C   0  0  0  0  0  0  0  0  0  0  0  0
  -28.2076   -9.6551  142.6011 C   0  0  0  0  0  0  0  0  0  0  0  0
  -29.2643   -8.9281  142.0281 C   0  0  0  0  0  0  0  0  0  0  0  0
  -30.5047   -8.7725  142.6875 C   0  0  0  0  0  0  0  0  0  0  0  0
  -30.5898   -9.2375  143.9869 C   0  0  0  0  0  0  0  0  0  0  0  0
  -29.5077   -9.8252  144.6668 C   0  0  0  0  0  0  0  0  0  0  0  0
  -29.1428   -8.4427  140.6047 C   0  0  0  0  0  0  0  0  0  0  0  0
  -29.8297   -7.2905  140.1779 C   0  0  0  0  0  0  0  0  0  0  0  0
  -28.2893   -9.0634  139.7043 C   0  0  0  0  0  0  0  0  0  0  0  0
  -28.2420   -8.6699  138.3966 C   0  0  0  0  0  0  0  0  0  0  0  0
  -31.5385   -8.1711  142.1621 O   0  0  0  0  0  0  0  0  0  0  0  0
  -28.6676   -9.5363  137.3228 C   0  0  0  0  0  0  0  0  0  0  0  0
  -29.1171   -8.9106  136.1146 C   0  0  0  0  0  0  0  0  0  0  0  0
  -29.5542   -9.7490  135.2745 O   0  0  0  0  0  0  0  0  0  0  0  0
  -23.6757  -16.1914  144.2490 O   0  0  0  0  0  0  0  0  0  0  0  0
  -23.7766  -20.1868  145.4315 C   0  0  0  0  0  0  0  0  0  0  0  0
  1  2  1  0
  2  3  1  0
  4  5  1  0
  1  6  2  3
  1  7  1  0
  9 12  1  0
 12 13  1  0
 13 14  2  3
 14 15  1  0
 17 21  1  0
 21 22  2  0
 21 23  1  0
 23 24  1  0
 18 25  1  0
 24 26  1  0
 26 27  1  0
 27 28  1  0
  2 29  1  0
  6 30  1  0
 15 16  2  0
 16 17  1  0
 17 18  2  0
 18 19  1  0
 19 20  2  0
 20 15  1  0
  3  4  2  0
  4  8  1  0
  8  9  2  0
  9 10  1  0
 10 11  2  0
 11  3  1  0
M  END

$$$$
No_233-/dssg/home/sw_qyf/PocketFlow/Model-Generation-Results/5HT2A_7WC7_rec_A_10.pdb/2024-01-01-03-54-21/
     RDKit          3D

 35 36  0  0  0  0  0  0  0  0999 V2000
  -24.1553  -17.8465  145.7021 C   0  0  0  0  0  0  0  0  0  0  0  0
  -24.2856  -16.6364  145.3494 C   0  0  0  0  0  0  0  0  0  0  0  0
  -24.5733  -15.7651  145.9979 C   0  0  0  0  0  0  0  0  0  0  0  0
  -25.0273  -15.9886  147.3700 C   0  0  0  0  0  0  0  0  0  0  0  0
  -24.4993  -18.2276  147.0208 C   0  0  0  0  0  0  0  0  0  0  0  0
  -24.9010  -17.2233  147.9329 C   0  0  0  0  0  0  0  0  0  0  0  0
  -24.7156  -14.2654  145.5569 C   0  0  0  0  0  0  0  0  0  0  0  0
  -23.9527  -13.7875  144.6641 C   0  0  0  0  0  0  0  0  0  0  0  0
  -23.6920  -12.3696  144.6625 C   0  0  0  0  0  0  0  0  0  0  0  0
  -24.5088  -11.5253  145.4967 C   0  0  0  0  0  0  0  0  0  0  0  0
  -25.4583  -12.0887  146.3517 C   0  0  0  0  0  0  0  0  0  0  0  0
  -25.5409  -13.4404  146.4696 C   0  0  0  0  0  0  0  0  0  0  0  0
  -25.2021  -17.5453  149.3525 C   0  0  0  0  0  0  0  0  0  0  0  0
  -24.2743  -17.4756  150.3183 N   0  0  0  0  0  0  0  0  0  0  0  0
  -26.4103  -17.7381  149.7090 O   0  0  0  0  0  0  0  0  0  0  0  0
  -23.8376  -16.4208  144.0213 O   0  0  0  0  0  0  0  0  0  0  0  0
  -22.9221  -17.2037  150.1516 C   0  0  0  0  0  0  0  0  0  0  0  0
  -22.2502  -16.6544  151.3757 C   0  0  0  0  0  0  0  0  0  0  0  0
  -22.4418  -17.2279  149.0811 O   0  0  0  0  0  0  0  0  0  0  0  0
  -23.8419  -18.8656  144.8132 O   0  0  0  0  0  0  0  0  0  0  0  0
  -26.2518  -11.2365  147.0577 O   0  0  0  0  0  0  0  0  0  0  0  0
  -21.8686  -17.3727  151.9723 F   0  0  0  0  0  0  0  0  0  0  0  0
  -21.0732  -16.0260  150.8399 F   0  0  0  0  0  0  0  0  0  0  0  0
  -27.5235  -11.1236  146.4000 C   0  0  0  0  0  0  0  0  0  0  0  0
  -28.0467  -12.1360  145.6578 C   0  0  0  0  0  0  0  0  0  0  0  0
  -28.4393  -13.1980  146.2474 C   0  0  0  0  0  0  0  0  0  0  0  0
  -28.3552  -11.9051  144.2840 C   0  0  0  0  0  0  0  0  0  0  0  0
  -29.1018  -10.7974  143.8703 C   0  0  0  0  0  0  0  0  0  0  0  0
  -28.7181   -9.9017  142.9799 C   0  0  0  0  0  0  0  0  0  0  0  0
  -29.5064   -8.7314  142.7333 C   0  0  0  0  0  0  0  0  0  0  0  0
  -29.1219   -7.7116  141.8664 C   0  0  0  0  0  0  0  0  0  0  0  0
  -29.7582   -6.4397  141.8142 C   0  0  0  0  0  0  0  0  0  0  0  0
  -28.9989   -5.4751  141.0773 C   0  0  0  0  0  0  0  0  0  0  0  0
  -29.4296  -13.1946  147.2789 C   0  0  0  0  0  0  0  0  0  0  0  0
  -30.0428  -14.2479  147.9646 C   0  0  0  0  0  0  0  0  0  0  0  0
  3  7  1  0
  6 13  1  0
 13 14  1  0
 13 15  2  0
  2 16  1  0
 14 17  1  0
 17 18  1  0
 17 19  2  0
  1 20  1  0
 11 21  1  0
 18 22  1  0
 18 23  1  0
 21 24  1  0
 24 25  1  0
 25 26  2  3
 25 27  1  0
 27 28  1  0
 28 29  1  0
 29 30  1  0
 30 31  2  3
 31 32  1  0
 32 33  1  0
 26 34  1  0
 34 35  2  0
  1  2  2  0
  2  3  1  0
  3  4  2  0
  4  6  1  0
  6  5  2  0
  5  1  1  0
  7  8  2  0
  8  9  1  0
  9 10  2  0
 10 11  1  0
 11 12  2  0
 12  7  1  0
M  END

$$$$
No_234-/dssg/home/sw_qyf/PocketFlow/Model-Generation-Results/5HT2A_7WC7_rec_A_10.pdb/2024-01-01-03-54-21/
     RDKit          3D

 35 37  0  0  0  0  0  0  0  0999 V2000
  -24.1553  -17.8465  145.7021 C   0  0  0  0  0  0  0  0  0  0  0  0
  -23.9795  -18.4462  146.7426 C   0  0  0  0  0  0  0  0  0  0  0  0
  -25.1196  -16.8106  145.6409 C   0  0  0  0  0  0  0  0  0  0  0  0
  -25.9236  -16.5070  146.7422 C   0  0  0  0  0  0  0  0  0  0  0  0
  -25.6627  -17.1841  147.9274 C   0  0  0  0  0  0  0  0  0  0  0  0
  -24.6813  -18.1540  148.0079 C   0  0  0  0  0  0  0  0  0  0  0  0
  -26.9716  -15.4553  146.6645 C   0  0  0  0  0  0  0  0  0  0  0  0
  -28.1968  -15.6101  147.2311 C   0  0  0  0  0  0  0  0  0  0  0  0
  -29.1542  -14.5602  147.1634 C   0  0  0  0  0  0  0  0  0  0  0  0
  -28.8635  -13.3617  146.5718 C   0  0  0  0  0  0  0  0  0  0  0  0
  -27.5671  -13.1459  145.9790 C   0  0  0  0  0  0  0  0  0  0  0  0
  -26.6291  -14.1725  146.0405 C   0  0  0  0  0  0  0  0  0  0  0  0
  -27.2691  -11.8381  145.3791 C   0  0  0  0  0  0  0  0  0  0  0  0
  -25.8997  -11.5285  145.2782 C   0  0  0  0  0  0  0  0  0  0  0  0
  -24.9092  -12.5399  145.4219 C   0  0  0  0  0  0  0  0  0  0  0  0
  -25.2546  -13.8360  145.9398 C   0  0  0  0  0  0  0  0  0  0  0  0
  -23.4963  -12.1883  145.1898 C   0  0  0  0  0  0  0  0  0  0  0  0
  -22.8353  -12.9770  144.3618 O   0  0  0  0  0  0  0  0  0  0  0  0
  -29.8405  -12.3849  146.4522 N   0  0  0  0  0  0  0  0  0  0  0  0
  -29.6864  -11.1304  147.2442 C   0  0  0  0  0  0  0  0  0  0  0  0
  -23.4829  -18.0553  144.5409 O   0  0  0  0  0  0  0  0  0  0  0  0
  -21.9058  -12.5347  143.5689 C   0  0  0  0  0  0  0  0  0  0  0  0
  -30.8122  -10.3241  146.7569 N   0  0  0  0  0  0  0  0  0  0  0  0
  -26.3454  -16.8662  149.0497 O   0  0  0  0  0  0  0  0  0  0  0  0
  -29.0495  -10.9327  148.0939 O   0  0  0  0  0  0  0  0  0  0  0  0
  -30.5464  -14.8189  147.6458 C   0  0  0  0  0  0  0  0  0  0  0  0
  -25.5878  -10.3725  144.7882 O   0  0  0  0  0  0  0  0  0  0  0  0
  -26.8918  -17.9501  149.7259 C   0  0  0  0  0  0  0  0  0  0  0  0
  -26.8623  -17.6636  151.1865 C   0  0  0  0  0  0  0  0  0  0  0  0
  -27.3001  -18.7775  151.9050 C   0  0  0  0  0  0  0  0  0  0  0  0
  -28.1342  -19.4169  152.1265 O   0  0  0  0  0  0  0  0  0  0  0  0
  -25.9985  -19.2927  152.4709 O   0  0  0  0  0  0  0  0  0  0  0  0
  -30.5164  -14.6490  149.1757 C   0  0  0  0  0  0  0  0  0  0  0  0
  -31.6581  -14.2249  149.5976 C   0  0  0  0  0  0  0  0  0  0  0  0
  -32.2771  -12.9973  149.1846 C   0  0  0  0  0  0  0  0  0  0  0  0
  4  7  1  0
 15 17  1  0
 17 18  1  0
 10 19  1  0
 19 20  1  0
  1 21  1  0
 18 22  1  0
 20 23  1  0
  5 24  1  0
 20 25  2  0
  9 26  1  0
 14 27  1  0
 24 28  1  0
 28 29  1  0
 29 30  1  0
 30 31  2  0
 30 32  1  0
 26 33  1  0
 33 34  1  0
 34 35  1  0
 12 16  2  0
 16 15  1  0
 15 14  2  0
 14 13  1  0
 13 11  2  0
  1  2  2  0
  2  6  1  0
  6  5  2  0
  5  4  1  0
  4  3  2  0
  3  1  1  0
  7  8  2  0
  8  9  1  0
  9 10  2  0
 10 11  1  0
 11 12  1  0
 12  7  1  0
M  END

$$$$
No_235-/dssg/home/sw_qyf/PocketFlow/Model-Generation-Results/5HT2A_7WC7_rec_A_10.pdb/2024-01-01-03-54-21/
     RDKit          3D

 29 30  0  0  0  0  0  0  0  0999 V2000
  -23.1746  -16.6014  144.8668 C   0  0  0  0  0  0  0  0  0  0  0  0
  -24.0189  -16.0564  145.8445 C   0  0  0  0  0  0  0  0  0  0  0  0
  -24.4850  -14.7380  145.6359 C   0  0  0  0  0  0  0  0  0  0  0  0
  -24.0208  -14.0081  144.6269 C   0  0  0  0  0  0  0  0  0  0  0  0
  -24.6332  -12.7598  144.3256 C   0  0  0  0  0  0  0  0  0  0  0  0
  -26.0401  -12.7962  144.7727 C   0  0  0  0  0  0  0  0  0  0  0  0
  -26.3183  -13.6775  145.8138 C   0  0  0  0  0  0  0  0  0  0  0  0
  -27.7662  -13.5302  146.3032 C   0  0  0  0  0  0  0  0  0  0  0  0
  -25.4585  -13.8046  146.6917 C   0  0  0  0  0  0  0  0  0  0  0  0
  -28.5337  -14.4033  147.0039 C   0  0  0  0  0  0  0  0  0  0  0  0
  -28.0516  -15.6567  147.3472 C   0  0  0  0  0  0  0  0  0  0  0  0
  -24.5306  -16.8734  146.9225 C   0  0  0  0  0  0  0  0  0  0  0  0
  -28.8437  -16.4944  148.2305 C   0  0  0  0  0  0  0  0  0  0  0  0
  -28.5037  -12.2415  145.9767 C   0  0  0  0  0  0  0  0  0  0  0  0
  -29.7862  -11.9696  146.6490 C   0  0  0  0  0  0  0  0  0  0  0  0
  -30.3311  -10.7076  146.4037 N   0  0  0  0  0  0  0  0  0  0  0  0
  -30.1938  -12.6112  148.1752 Cl  0  0  0  0  0  0  0  0  0  0  0  0
  -24.3578  -16.7919  148.0122 C   0  0  0  0  0  0  0  0  0  0  0  0
  -24.8312  -17.6288  149.1682 C   0  0  0  0  0  0  0  0  0  0  0  0
  -29.8580  -15.8831  148.9648 C   0  0  0  0  0  0  0  0  0  0  0  0
  -30.3001  -14.6725  148.7310 C   0  0  0  0  0  0  0  0  0  0  0  0
  -29.6268  -13.8727  147.7830 C   0  0  0  0  0  0  0  0  0  0  0  0
  -30.4143  -14.2175  146.6219 O   0  0  0  0  0  0  0  0  0  0  0  0
  -24.9265  -17.1578  150.5243 C   0  0  0  0  0  0  0  0  0  0  0  0
  -25.4359  -17.9757  146.3772 C   0  0  0  0  0  0  0  0  0  0  0  0
  -30.1674  -10.0512  145.2987 C   0  0  0  0  0  0  0  0  0  0  0  0
  -30.9043   -8.9994  145.2175 F   0  0  0  0  0  0  0  0  0  0  0  0
  -29.3430  -10.3335  144.2531 C   0  0  0  0  0  0  0  0  0  0  0  0
  -28.8278  -10.4023  143.3873 N   0  0  0  0  0  0  0  0  0  0  0  0
  1  2  1  0
  2  3  1  0
  3  4  1  0
  4  5  1  0
  5  6  1  0
  6  7  1  0
  7  8  1  0
  3  9  1  0
  7  9  1  0
  8 10  1  0
  2 12  1  0
  8 14  1  0
 14 15  1  0
 15 16  1  0
 15 17  1  0
 12 18  2  3
 18 19  1  0
 22 23  1  0
 19 24  1  0
 12 25  1  0
 16 26  2  3
 26 27  1  0
 26 28  1  0
 28 29  3  0
 10 11  2  0
 11 13  1  0
 13 20  2  0
 20 21  1  0
 21 22  2  0
 22 10  1  0
M  END

$$$$
No_236-/dssg/home/sw_qyf/PocketFlow/Model-Generation-Results/5HT2A_7WC7_rec_A_10.pdb/2024-01-01-03-54-21/
     RDKit          3D

 35 37  0  0  0  0  0  0  0  0999 V2000
  -23.1746  -16.6014  144.8668 C   0  0  0  0  0  0  0  0  0  0  0  0
  -23.7011  -17.0158  145.9774 C   0  0  0  0  0  0  0  0  0  0  0  0
  -24.2134  -16.0722  146.8877 C   0  0  0  0  0  0  0  0  0  0  0  0
  -23.3742  -15.2706  144.3922 C   0  0  0  0  0  0  0  0  0  0  0  0
  -24.0445  -14.2973  145.2608 C   0  0  0  0  0  0  0  0  0  0  0  0
  -24.4773  -14.7066  146.5258 C   0  0  0  0  0  0  0  0  0  0  0  0
  -24.1815  -12.8836  144.8776 C   0  0  0  0  0  0  0  0  0  0  0  0
  -24.2354  -11.9666  145.9880 C   0  0  0  0  0  0  0  0  0  0  0  0
  -23.5626  -18.4377  146.4363 C   0  0  0  0  0  0  0  0  0  0  0  0
  -22.6113  -18.8449  146.8935 O   0  0  0  0  0  0  0  0  0  0  0  0
  -24.6666  -19.1490  146.3042 O   0  0  0  0  0  0  0  0  0  0  0  0
  -25.7560  -11.6686  146.1832 C   0  0  0  0  0  0  0  0  0  0  0  0
  -26.5866  -11.6361  145.0292 C   0  0  0  0  0  0  0  0  0  0  0  0
  -27.9884  -11.6481  145.3111 C   0  0  0  0  0  0  0  0  0  0  0  0
  -28.7476  -10.6963  144.9569 C   0  0  0  0  0  0  0  0  0  0  0  0
  -30.0127  -10.4446  145.6971 C   0  0  0  0  0  0  0  0  0  0  0  0
  -30.0573  -11.5672  146.5896 C   0  0  0  0  0  0  0  0  0  0  0  0
  -29.1589  -12.4397  146.8595 C   0  0  0  0  0  0  0  0  0  0  0  0
  -28.0174  -12.5550  146.2806 C   0  0  0  0  0  0  0  0  0  0  0  0
  -28.4544   -9.6874  143.8980 C   0  0  0  0  0  0  0  0  0  0  0  0
  -28.8674   -8.4855  143.7251 C   0  0  0  0  0  0  0  0  0  0  0  0
  -29.0500   -7.8358  142.4636 C   0  0  0  0  0  0  0  0  0  0  0  0
  -29.0226   -8.5219  141.2421 C   0  0  0  0  0  0  0  0  0  0  0  0
  -29.2464   -7.9173  140.0248 C   0  0  0  0  0  0  0  0  0  0  0  0
  -29.1586   -8.6993  138.9080 C   0  0  0  0  0  0  0  0  0  0  0  0
  -29.2390   -8.0803  137.6184 C   0  0  0  0  0  0  0  0  0  0  0  0
  -29.6480  -13.4710  148.0309 C   0  0  0  0  0  0  0  0  0  0  0  0
  -30.0737  -14.7220  147.6197 C   0  0  0  0  0  0  0  0  0  0  0  0
  -28.9834  -15.4943  147.0547 C   0  0  0  0  0  0  0  0  0  0  0  0
  -28.1688  -16.2441  147.9822 C   0  0  0  0  0  0  0  0  0  0  0  0
  -27.0029  -16.9075  147.5448 C   0  0  0  0  0  0  0  0  0  0  0  0
  -26.9382  -16.9932  146.1623 N   0  0  0  0  0  0  0  0  0  0  0  0
  -27.6875  -16.3004  145.2799 C   0  0  0  0  0  0  0  0  0  0  0  0
  -28.6723  -15.6201  145.7817 C   0  0  0  0  0  0  0  0  0  0  0  0
  -28.3877  -10.5004  142.5073 C   0  0  0  0  0  0  0  0  0  0  0  0
  5  7  1  0
  7  8  1  0
  2  9  1  0
  9 10  2  0
  9 11  1  0
  8 12  1  0
 12 13  1  0
 13 14  1  0
 15 20  1  0
 20 21  1  0
 21 22  2  3
 22 23  1  0
 23 24  2  3
 24 25  1  0
 25 26  1  0
 18 27  1  0
 27 28  1  0
 28 29  1  0
 20 35  1  0
 29 30  2  0
 30 31  1  0
 31 32  2  0
 32 33  1  0
 33 34  2  0
 34 29  1  0
 14 15  2  0
 15 16  1  0
 16 17  2  0
 17 18  1  0
 18 19  2  0
 19 14  1  0
  1  2  2  0
  2  3  1  0
  3  6  2  0
  6  5  1  0
  5  4  2  0
  4  1  1  0
M  END

$$$$
No_237-/dssg/home/sw_qyf/PocketFlow/Model-Generation-Results/5HT2A_7WC7_rec_A_10.pdb/2024-01-01-03-54-21/
     RDKit          3D

 12 11  0  0  0  0  0  0  0  0999 V2000
  -24.2518  -17.9511  145.5927 P   0  0  0  0  0  0  0  0  0  0  0  0
  -24.3063  -16.7123  145.0947 O   0  0  0  0  0  0  0  0  0  0  0  0
  -23.6041  -18.9246  144.9043 O   0  0  0  0  0  0  0  0  0  0  0  0
  -25.3417  -18.2852  146.5721 O   0  0  0  0  0  0  0  0  0  0  0  0
  -22.9508  -17.5623  146.7985 O   0  0  0  0  0  0  0  0  0  0  0  0
  -23.7857  -16.4235  144.0960 F   0  0  0  0  0  0  0  0  0  0  0  0
  -23.3426  -16.9127  147.9573 C   0  0  0  0  0  0  0  0  0  0  0  0
  -23.9608  -17.7175  149.0024 C   0  0  0  0  0  0  0  0  0  0  0  0
  -24.4383  -16.9728  150.0916 C   0  0  0  0  0  0  0  0  0  0  0  0
  -25.8299  -17.3857  150.3362 C   0  0  0  0  0  0  0  0  0  0  0  0
  -26.2097  -18.7080  149.9902 C   0  0  0  0  0  0  0  0  0  0  0  0
  -27.2574  -19.0234  150.6982 O   0  0  0  0  0  0  0  0  0  0  0  0
  1  2  1  0
  1  3  2  0
  1  4  1  0
  1  5  1  0
  2  6  1  0
  5  7  1  0
  7  8  1  0
  8  9  2  3
  9 10  1  0
 10 11  1  0
 11 12  1  0
M  END

$$$$
No_238-/dssg/home/sw_qyf/PocketFlow/Model-Generation-Results/5HT2A_7WC7_rec_A_10.pdb/2024-01-01-03-54-21/
     RDKit          3D

 35 39  0  0  0  0  0  0  0  0999 V2000
  -24.1553  -17.8465  145.7021 C   0  0  0  0  0  0  0  0  0  0  0  0
  -24.6364  -17.2931  146.7091 C   0  0  0  0  0  0  0  0  0  0  0  0
  -25.8608  -16.5592  146.5934 C   0  0  0  0  0  0  0  0  0  0  0  0
  -26.9933  -16.9082  147.1889 C   0  0  0  0  0  0  0  0  0  0  0  0
  -28.2114  -16.1477  146.9896 C   0  0  0  0  0  0  0  0  0  0  0  0
  -28.1869  -14.8900  146.3591 C   0  0  0  0  0  0  0  0  0  0  0  0
  -26.9306  -14.4696  145.8021 C   0  0  0  0  0  0  0  0  0  0  0  0
  -25.7608  -15.2964  145.9443 C   0  0  0  0  0  0  0  0  0  0  0  0
  -26.8153  -13.1560  145.1435 C   0  0  0  0  0  0  0  0  0  0  0  0
  -26.3968  -12.0839  145.8818 C   0  0  0  0  0  0  0  0  0  0  0  0
  -26.3607  -10.8552  145.2235 N   0  0  0  0  0  0  0  0  0  0  0  0
  -27.2299  -10.6492  144.1582 C   0  0  0  0  0  0  0  0  0  0  0  0
  -27.7054  -11.7891  143.5118 C   0  0  0  0  0  0  0  0  0  0  0  0
  -27.5482  -13.0702  144.0679 C   0  0  0  0  0  0  0  0  0  0  0  0
  -24.0077  -17.4581  148.0582 C   0  0  0  0  0  0  0  0  0  0  0  0
  -24.5741  -17.2308  149.2570 C   0  0  0  0  0  0  0  0  0  0  0  0
  -25.8512  -17.1380  149.6451 C   0  0  0  0  0  0  0  0  0  0  0  0
  -28.4371  -11.5202  142.2517 C   0  0  0  0  0  0  0  0  0  0  0  0
  -27.8584  -11.8191  141.0081 C   0  0  0  0  0  0  0  0  0  0  0  0
  -27.6585  -13.0642  140.5717 C   0  0  0  0  0  0  0  0  0  0  0  0
  -26.9166  -13.2040  139.3679 C   0  0  0  0  0  0  0  0  0  0  0  0
  -26.6726  -11.9308  138.6021 C   0  0  0  0  0  0  0  0  0  0  0  0
  -27.4132  -10.8472  140.0244 C   0  0  0  0  0  0  0  0  0  0  0  0
  -26.2185  -17.4286  151.0375 C   0  0  0  0  0  0  0  0  0  0  0  0
  -27.5167  -17.8094  151.3496 C   0  0  0  0  0  0  0  0  0  0  0  0
  -27.4998   -9.4975  139.7263 C   0  0  0  0  0  0  0  0  0  0  0  0
  -28.5144   -8.8061  140.4996 C   0  0  0  0  0  0  0  0  0  0  0  0
  -29.1560   -7.6609  140.0647 C   0  0  0  0  0  0  0  0  0  0  0  0
  -30.1411   -7.0947  140.9638 C   0  0  0  0  0  0  0  0  0  0  0  0
  -30.5101   -7.8047  142.1871 C   0  0  0  0  0  0  0  0  0  0  0  0
  -29.9028   -8.9512  142.5500 C   0  0  0  0  0  0  0  0  0  0  0  0
  -28.8906   -9.4744  141.7210 C   0  0  0  0  0  0  0  0  0  0  0  0
  -29.4166  -10.6629  142.2377 O   0  0  0  0  0  0  0  0  0  0  0  0
  -31.4784   -7.2419  143.0213 N   0  0  0  0  0  0  0  0  0  0  0  0
  -30.4750   -9.3931  143.8982 O   0  0  0  0  0  0  0  0  0  0  0  0
  1  2  1  0
  2  3  1  0
  7  9  1  0
  2 15  1  0
 15 16  1  0
 16 17  2  3
 13 18  1  0
 18 19  1  0
 19 20  2  0
 20 21  1  0
 21 22  2  0
 19 23  1  0
 22 23  1  0
 17 24  1  0
 24 25  1  0
 23 26  1  0
 26 27  1  0
 18 33  1  0
 32 33  1  0
 30 34  1  0
 31 35  1  0
 27 28  2  0
 28 29  1  0
 29 30  2  0
 30 31  1  0
 31 32  2  0
 32 27  1  0
  3  4  2  0
  4  5  1  0
  5  6  2  0
  6  7  1  0
  7  8  2  0
  8  3  1  0
  9 10  2  0
 10 11  1  0
 11 12  2  0
 12 13  1  0
 13 14  2  0
 14  9  1  0
M  END

$$$$
No_239-/dssg/home/sw_qyf/PocketFlow/Model-Generation-Results/5HT2A_7WC7_rec_A_10.pdb/2024-01-01-03-54-21/
     RDKit          3D

 19 20  0  0  0  0  0  0  0  0999 V2000
  -24.1553  -17.8465  145.7021 C   0  0  0  0  0  0  0  0  0  0  0  0
  -24.2856  -16.6364  145.3494 C   0  0  0  0  0  0  0  0  0  0  0  0
  -25.0033  -15.6772  146.0737 C   0  0  0  0  0  0  0  0  0  0  0  0
  -26.0408  -15.2581  145.8303 C   0  0  0  0  0  0  0  0  0  0  0  0
  -27.2143  -15.7737  146.1843 C   0  0  0  0  0  0  0  0  0  0  0  0
  -28.1960  -15.3645  146.7188 C   0  0  0  0  0  0  0  0  0  0  0  0
  -28.4098  -14.0688  146.7859 C   0  0  0  0  0  0  0  0  0  0  0  0
  -27.3622  -13.1634  146.3586 C   0  0  0  0  0  0  0  0  0  0  0  0
  -26.0947  -13.7589  146.0023 C   0  0  0  0  0  0  0  0  0  0  0  0
  -29.6761  -13.4046  147.3463 C   0  0  0  0  0  0  0  0  0  0  0  0
  -30.5039  -13.9678  148.2923 C   0  0  0  0  0  0  0  0  0  0  0  0
  -30.2436  -12.3117  146.5418 C   0  0  0  0  0  0  0  0  0  0  0  0
  -30.6415  -11.2970  147.2914 O   0  0  0  0  0  0  0  0  0  0  0  0
  -23.8368  -18.0961  147.0845 C   0  0  0  0  0  0  0  0  0  0  0  0
  -23.9959  -17.1110  148.0457 C   0  0  0  0  0  0  0  0  0  0  0  0
  -24.6031  -15.8681  147.5139 C   0  0  0  0  0  0  0  0  0  0  0  0
  -25.0011  -12.8891  145.6340 C   0  0  0  0  0  0  0  0  0  0  0  0
  -24.5171  -12.6574  144.6643 C   0  0  0  0  0  0  0  0  0  0  0  0
  -23.2366  -11.9436  144.6494 N   0  0  0  0  0  0  0  0  0  0  0  0
  3  4  1  0
  7 10  1  0
 10 11  1  0
 10 12  1  0
 12 13  1  0
  9 17  1  0
 17 18  2  3
 18 19  1  0
  1  2  2  0
  2  3  1  0
  3 16  2  0
 16 15  1  0
 15 14  2  0
 14  1  1  0
  4  5  2  0
  5  6  1  0
  6  7  2  0
  7  8  1  0
  8  9  2  0
  9  4  1  0
M  END

$$$$
No_240-/dssg/home/sw_qyf/PocketFlow/Model-Generation-Results/5HT2A_7WC7_rec_A_10.pdb/2024-01-01-03-54-21/
     RDKit          3D

 24 25  0  0  0  0  0  0  0  0999 V2000
  -24.1553  -17.8465  145.7021 C   0  0  0  0  0  0  0  0  0  0  0  0
  -24.6364  -17.2931  146.7091 C   0  0  0  0  0  0  0  0  0  0  0  0
  -24.0780  -17.2921  147.9389 C   0  0  0  0  0  0  0  0  0  0  0  0
  -22.7158  -17.6979  148.0096 C   0  0  0  0  0  0  0  0  0  0  0  0
  -22.1536  -18.1706  146.8775 N   0  0  0  0  0  0  0  0  0  0  0  0
  -22.8078  -18.2078  145.7630 C   0  0  0  0  0  0  0  0  0  0  0  0
  -26.1142  -16.8159  146.6805 C   0  0  0  0  0  0  0  0  0  0  0  0
  -26.5580  -15.7765  145.9155 C   0  0  0  0  0  0  0  0  0  0  0  0
  -27.9176  -15.3471  146.0143 C   0  0  0  0  0  0  0  0  0  0  0  0
  -28.7530  -15.9744  146.9187 C   0  0  0  0  0  0  0  0  0  0  0  0
  -28.2988  -16.9345  147.7961 C   0  0  0  0  0  0  0  0  0  0  0  0
  -27.0216  -17.3048  147.7522 C   0  0  0  0  0  0  0  0  0  0  0  0
  -25.8280  -15.1870  144.9085 C   0  0  0  0  0  0  0  0  0  0  0  0
  -24.4621  -14.9630  144.7978 C   0  0  0  0  0  0  0  0  0  0  0  0
  -23.8420  -14.0260  143.9575 C   0  0  0  0  0  0  0  0  0  0  0  0
  -22.5843  -13.7570  144.2038 O   0  0  0  0  0  0  0  0  0  0  0  0
  -26.5536  -14.4887  143.8697 C   0  0  0  0  0  0  0  0  0  0  0  0
  -26.6472  -13.5404  143.4455 C   0  0  0  0  0  0  0  0  0  0  0  0
  -27.8658  -13.0868  142.6331 C   0  0  0  0  0  0  0  0  0  0  0  0
  -27.6793  -11.9376  141.7199 C   0  0  0  0  0  0  0  0  0  0  0  0
  -27.5978  -12.2338  140.3888 C   0  0  0  0  0  0  0  0  0  0  0  0
  -27.4740  -11.1300  139.4785 C   0  0  0  0  0  0  0  0  0  0  0  0
  -27.5565   -9.8177  139.9538 C   0  0  0  0  0  0  0  0  0  0  0  0
  -27.8929   -9.5933  141.3708 C   0  0  0  0  0  0  0  0  0  0  0  0
  2  7  1  0
  8 13  1  0
 13 14  2  3
 14 15  1  0
 15 16  1  0
 13 17  1  0
 17 18  2  3
 18 19  1  0
 19 20  2  3
 20 21  1  0
 21 22  2  3
 22 23  1  0
 23 24  2  0
  1  2  2  0
  2  3  1  0
  3  4  2  0
  4  5  1  0
  5  6  2  0
  6  1  1  0
  7  8  2  0
  8  9  1  0
  9 10  2  0
 10 11  1  0
 11 12  2  0
 12  7  1  0
M  END

$$$$
No_241-/dssg/home/sw_qyf/PocketFlow/Model-Generation-Results/5HT2A_7WC7_rec_A_10.pdb/2024-01-01-03-54-21/
     RDKit          3D

 12 13  0  0  0  0  0  0  0  0999 V2000
  -24.1553  -17.8465  145.7021 C   0  0  0  0  0  0  0  0  0  0  0  0
  -24.2856  -16.6364  145.3494 C   0  0  0  0  0  0  0  0  0  0  0  0
  -24.5733  -15.7651  145.9979 C   0  0  0  0  0  0  0  0  0  0  0  0
  -25.0273  -15.9886  147.3700 C   0  0  0  0  0  0  0  0  0  0  0  0
  -24.4993  -18.2276  147.0208 C   0  0  0  0  0  0  0  0  0  0  0  0
  -24.9010  -17.2232  147.9329 C   0  0  0  0  0  0  0  0  0  0  0  0
  -24.6115  -14.3666  145.3786 C   0  0  0  0  0  0  0  0  0  0  0  0
  -25.2852  -13.3111  146.0105 C   0  0  0  0  0  0  0  0  0  0  0  0
  -25.1939  -12.0134  145.6757 C   0  0  0  0  0  0  0  0  0  0  0  0
  -23.9592  -13.9971  144.2451 C   0  0  0  0  0  0  0  0  0  0  0  0
  -23.7419  -12.6370  143.9580 N   0  0  0  0  0  0  0  0  0  0  0  0
  -24.2790  -11.6978  144.6599 C   0  0  0  0  0  0  0  0  0  0  0  0
  3  7  1  0
  1  2  2  0
  2  3  1  0
  3  4  2  0
  4  6  1  0
  6  5  2  0
  5  1  1  0
  7  8  2  0
  8  9  1  0
  9 12  2  0
 12 11  1  0
 11 10  2  0
 10  7  1  0
M  END

$$$$
No_242-/dssg/home/sw_qyf/PocketFlow/Model-Generation-Results/5HT2A_7WC7_rec_A_10.pdb/2024-01-01-03-54-21/
     RDKit          3D

 35 39  0  0  0  0  0  0  0  0999 V2000
  -24.1553  -17.8465  145.7021 C   0  0  0  0  0  0  0  0  0  0  0  0
  -23.9795  -18.4462  146.7426 C   0  0  0  0  0  0  0  0  0  0  0  0
  -25.1196  -16.8106  145.6409 C   0  0  0  0  0  0  0  0  0  0  0  0
  -25.9236  -16.5070  146.7422 C   0  0  0  0  0  0  0  0  0  0  0  0
  -25.6627  -17.1841  147.9274 C   0  0  0  0  0  0  0  0  0  0  0  0
  -24.4873  -17.7500  147.9754 C   0  0  0  0  0  0  0  0  0  0  0  0
  -27.0538  -15.5445  146.6167 C   0  0  0  0  0  0  0  0  0  0  0  0
  -28.2903  -15.7903  147.1597 C   0  0  0  0  0  0  0  0  0  0  0  0
  -29.3012  -14.8377  147.1015 C   0  0  0  0  0  0  0  0  0  0  0  0
  -29.0981  -13.5679  146.5837 C   0  0  0  0  0  0  0  0  0  0  0  0
  -27.8373  -13.2698  146.0124 C   0  0  0  0  0  0  0  0  0  0  0  0
  -26.8113  -14.1946  146.1054 C   0  0  0  0  0  0  0  0  0  0  0  0
  -27.5663  -11.8939  145.5411 C   0  0  0  0  0  0  0  0  0  0  0  0
  -26.2487  -11.6135  145.2531 C   0  0  0  0  0  0  0  0  0  0  0  0
  -25.9168  -10.3179  144.7712 C   0  0  0  0  0  0  0  0  0  0  0  0
  -27.0031   -9.5275  144.2670 C   0  0  0  0  0  0  0  0  0  0  0  0
  -28.1810  -10.1471  144.1185 C   0  0  0  0  0  0  0  0  0  0  0  0
  -28.5905  -11.2693  144.9055 C   0  0  0  0  0  0  0  0  0  0  0  0
  -29.3145   -9.2912  143.5487 C   0  0  0  0  0  0  0  0  0  0  0  0
  -30.4887   -9.3519  143.9980 C   0  0  0  0  0  0  0  0  0  0  0  0
  -31.4832   -8.6959  143.3346 N   0  0  0  0  0  0  0  0  0  0  0  0
  -31.1919   -8.2032  142.1692 C   0  0  0  0  0  0  0  0  0  0  0  0
  -29.4043   -8.5077  142.2701 C   0  0  0  0  0  0  0  0  0  0  0  0
  -28.9764   -9.2159  141.0404 C   0  0  0  0  0  0  0  0  0  0  0  0
  -28.6685   -8.4993  139.8912 C   0  0  0  0  0  0  0  0  0  0  0  0
  -28.1187   -9.1223  138.7359 C   0  0  0  0  0  0  0  0  0  0  0  0
  -27.8029  -10.4605  138.8293 C   0  0  0  0  0  0  0  0  0  0  0  0
  -27.9688  -11.1744  140.0734 C   0  0  0  0  0  0  0  0  0  0  0  0
  -28.5341  -10.5315  141.1877 C   0  0  0  0  0  0  0  0  0  0  0  0
  -27.5865  -12.6085  140.0954 C   0  0  0  0  0  0  0  0  0  0  0  0
  -27.7852  -13.2565  141.3954 C   0  0  0  0  0  0  0  0  0  0  0  0
  -27.9596   -8.3510  137.6754 N   0  0  0  0  0  0  0  0  0  0  0  0
  -26.5518  -13.0672  142.3451 C   0  0  0  0  0  0  0  0  0  0  0  0
  -30.8538   -9.8558  145.1960 O   0  0  0  0  0  0  0  0  0  0  0  0
  -25.9584  -14.1690  142.6865 O   0  0  0  0  0  0  0  0  0  0  0  0
  4  7  1  0
 11 13  1  0
 17 19  1  0
 19 20  1  0
 20 21  1  0
 21 22  2  0
 19 23  1  0
 22 23  1  0
 23 24  1  0
 28 30  1  0
 30 31  1  0
 26 32  1  0
 31 33  1  0
 20 34  2  0
 33 35  2  0
 13 14  2  0
 14 15  1  0
 15 16  2  0
 16 17  1  0
 17 18  2  0
 18 13  1  0
  1  2  2  0
  2  6  1  0
  6  5  2  0
  5  4  1  0
  4  3  2  0
  3  1  1  0
 24 25  2  0
 25 26  1  0
 26 27  2  0
 27 28  1  0
 28 29  2  0
 29 24  1  0
  7  8  2  0
  8  9  1  0
  9 10  2  0
 10 11  1  0
 11 12  2  0
 12  7  1  0
M  END

$$$$
No_243-/dssg/home/sw_qyf/PocketFlow/Model-Generation-Results/5HT2A_7WC7_rec_A_10.pdb/2024-01-01-03-54-21/
     RDKit          3D

 35 38  0  0  0  0  0  0  0  0999 V2000
  -24.1553  -17.8465  145.7021 C   0  0  0  0  0  0  0  0  0  0  0  0
  -23.9795  -18.4462  146.7426 C   0  0  0  0  0  0  0  0  0  0  0  0
  -23.2486  -17.2339  144.9771 C   0  0  0  0  0  0  0  0  0  0  0  0
  -24.9812  -19.0362  147.5824 C   0  0  0  0  0  0  0  0  0  0  0  0
  -23.7180  -16.2391  144.0023 C   0  0  0  0  0  0  0  0  0  0  0  0
  -24.1691  -14.9523  144.6878 C   0  0  0  0  0  0  0  0  0  0  0  0
  -24.1546  -13.8262  144.0736 C   0  0  0  0  0  0  0  0  0  0  0  0
  -24.4492  -12.5835  144.8018 C   0  0  0  0  0  0  0  0  0  0  0  0
  -25.0115  -12.6883  146.1519 C   0  0  0  0  0  0  0  0  0  0  0  0
  -25.0777  -13.9743  146.7882 C   0  0  0  0  0  0  0  0  0  0  0  0
  -24.6739  -15.1076  146.0796 C   0  0  0  0  0  0  0  0  0  0  0  0
  -25.2966  -11.6115  146.8934 O   0  0  0  0  0  0  0  0  0  0  0  0
  -26.2273  -18.4837  147.0434 C   0  0  0  0  0  0  0  0  0  0  0  0
  -25.7917  -17.6509  145.9224 C   0  0  0  0  0  0  0  0  0  0  0  0
  -22.6419  -18.8129  147.1165 O   0  0  0  0  0  0  0  0  0  0  0  0
  -26.6243  -11.2400  146.6312 C   0  0  0  0  0  0  0  0  0  0  0  0
  -26.8145  -10.8638  145.2757 C   0  0  0  0  0  0  0  0  0  0  0  0
  -28.1991  -10.6634  144.8266 C   0  0  0  0  0  0  0  0  0  0  0  0
  -28.4950   -9.8580  143.6893 C   0  0  0  0  0  0  0  0  0  0  0  0
  -29.3269   -8.8036  143.7426 C   0  0  0  0  0  0  0  0  0  0  0  0
  -29.4453   -7.8516  142.7076 C   0  0  0  0  0  0  0  0  0  0  0  0
  -30.0471   -6.6261  142.7740 C   0  0  0  0  0  0  0  0  0  0  0  0
  -29.1064   -8.3319  141.3436 C   0  0  0  0  0  0  0  0  0  0  0  0
  -28.3588   -9.4867  141.1933 C   0  0  0  0  0  0  0  0  0  0  0  0
  -28.0308  -10.3085  142.3904 C   0  0  0  0  0  0  0  0  0  0  0  0
  -29.3248   -7.5205  140.1847 C   0  0  0  0  0  0  0  0  0  0  0  0
  -27.8299  -10.0119  139.9678 C   0  0  0  0  0  0  0  0  0  0  0  0
  -27.1709  -11.0523  139.9002 O   0  0  0  0  0  0  0  0  0  0  0  0
  -27.7589   -9.1564  138.9092 N   0  0  0  0  0  0  0  0  0  0  0  0
  -28.6831   -7.9442  138.9509 C   0  0  0  0  0  0  0  0  0  0  0  0
  -27.5512  -12.0803  139.1443 C   0  0  0  0  0  0  0  0  0  0  0  0
  -29.2713  -11.3370  145.5150 C   0  0  0  0  0  0  0  0  0  0  0  0
  -29.8825  -10.7232  146.6190 C   0  0  0  0  0  0  0  0  0  0  0  0
  -30.8127  -11.6687  147.4194 C   0  0  0  0  0  0  0  0  0  0  0  0
  -30.2000  -12.9058  147.5095 O   0  0  0  0  0  0  0  0  0  0  0  0
  1  2  1  0
  1  3  2  3
  2  4  1  0
  3  5  1  0
  5  6  1  0
  9 12  1  0
  4 13  2  0
  1 14  1  0
 13 14  1  0
  2 15  2  0
 12 16  1  0
 16 17  1  0
 17 18  1  0
 18 19  1  0
 21 22  1  0
 23 26  1  0
 24 27  1  0
 27 28  1  0
 27 29  1  0
 26 30  1  0
 29 30  1  0
 28 31  1  0
 18 32  1  0
 32 33  1  0
 33 34  1  0
 34 35  1  0
  6  7  2  0
  7  8  1  0
  8  9  2  0
  9 10  1  0
 10 11  2  0
 11  6  1  0
 19 20  2  0
 20 21  1  0
 21 23  2  0
 23 24  1  0
 24 25  2  0
 25 19  1  0
M  END

$$$$
No_244-/dssg/home/sw_qyf/PocketFlow/Model-Generation-Results/5HT2A_7WC7_rec_A_10.pdb/2024-01-01-03-54-21/
     RDKit          3D

 25 26  0  0  0  0  0  0  0  0999 V2000
  -24.1553  -17.8465  145.7021 C   0  0  0  0  0  0  0  0  0  0  0  0
  -23.9795  -18.4462  146.7426 C   0  0  0  0  0  0  0  0  0  0  0  0
  -25.1196  -16.8106  145.6408 C   0  0  0  0  0  0  0  0  0  0  0  0
  -25.2440  -15.8776  144.5240 C   0  0  0  0  0  0  0  0  0  0  0  0
  -26.0733  -14.7284  144.7060 C   0  0  0  0  0  0  0  0  0  0  0  0
  -27.0964  -14.7050  145.6625 C   0  0  0  0  0  0  0  0  0  0  0  0
  -27.1085  -15.7327  146.6117 C   0  0  0  0  0  0  0  0  0  0  0  0
  -26.1368  -16.7554  146.5717 C   0  0  0  0  0  0  0  0  0  0  0  0
  -23.5406  -18.0016  147.7254 C   0  0  0  0  0  0  0  0  0  0  0  0
  -22.2446  -17.6643  147.8916 F   0  0  0  0  0  0  0  0  0  0  0  0
  -24.2445  -17.6272  148.9187 F   0  0  0  0  0  0  0  0  0  0  0  0
  -25.9828  -13.5618  143.4465 Cl  0  0  0  0  0  0  0  0  0  0  0  0
  -28.2169  -15.6936  147.6085 C   0  0  0  0  0  0  0  0  0  0  0  0
  -29.1823  -14.7001  147.6579 C   0  0  0  0  0  0  0  0  0  0  0  0
  -30.2094  -14.6781  148.6901 C   0  0  0  0  0  0  0  0  0  0  0  0
  -31.1269  -13.5431  148.7050 C   0  0  0  0  0  0  0  0  0  0  0  0
  -32.0414  -13.3259  149.7216 C   0  0  0  0  0  0  0  0  0  0  0  0
  -32.0482  -14.2470  150.8069 C   0  0  0  0  0  0  0  0  0  0  0  0
  -31.1392  -15.3298  150.8061 C   0  0  0  0  0  0  0  0  0  0  0  0
  -30.2256  -15.5352  149.7932 C   0  0  0  0  0  0  0  0  0  0  0  0
  -32.8479  -12.1273  149.7000 C   0  0  0  0  0  0  0  0  0  0  0  0
  -33.6301  -12.0360  148.7275 O   0  0  0  0  0  0  0  0  0  0  0  0
  -33.2543  -11.5997  150.8584 O   0  0  0  0  0  0  0  0  0  0  0  0
  -23.2300  -17.6931  144.7709 O   0  0  0  0  0  0  0  0  0  0  0  0
  -30.0016  -14.6356  146.3230 C   0  0  0  0  0  0  0  0  0  0  0  0
  1  2  2  3
  1  3  1  0
  2  9  1  0
  9 10  1  0
  9 11  1  0
  5 12  1  0
  7 13  1  0
 13 14  2  3
 14 15  1  0
 17 21  1  0
 21 22  1  0
 21 23  2  0
  1 24  1  0
 14 25  1  0
 15 16  2  0
 16 17  1  0
 17 18  2  0
 18 19  1  0
 19 20  2  0
 20 15  1  0
  3  4  2  0
  4  5  1  0
  5  6  2  0
  6  7  1  0
  7  8  2  0
  8  3  1  0
M  END

$$$$
No_245-/dssg/home/sw_qyf/PocketFlow/Model-Generation-Results/5HT2A_7WC7_rec_A_10.pdb/2024-01-01-03-54-21/
     RDKit          3D

 20 22  0  0  0  0  0  0  0  0999 V2000
  -24.1553  -17.8465  145.7021 C   0  0  0  0  0  0  0  0  0  0  0  0
  -23.9795  -18.4462  146.7426 C   0  0  0  0  0  0  0  0  0  0  0  0
  -25.1196  -16.8106  145.6409 C   0  0  0  0  0  0  0  0  0  0  0  0
  -25.9236  -16.5070  146.7422 C   0  0  0  0  0  0  0  0  0  0  0  0
  -25.6627  -17.1841  147.9274 C   0  0  0  0  0  0  0  0  0  0  0  0
  -24.6812  -18.1540  148.0079 C   0  0  0  0  0  0  0  0  0  0  0  0
  -26.9780  -15.4747  146.6756 C   0  0  0  0  0  0  0  0  0  0  0  0
  -26.8078  -14.4334  145.8533 C   0  0  0  0  0  0  0  0  0  0  0  0
  -27.7762  -13.3742  145.8654 C   0  0  0  0  0  0  0  0  0  0  0  0
  -27.6173  -12.0858  145.1963 C   0  0  0  0  0  0  0  0  0  0  0  0
  -26.7941  -12.0536  144.1619 C   0  0  0  0  0  0  0  0  0  0  0  0
  -25.9359  -13.2066  143.9423 C   0  0  0  0  0  0  0  0  0  0  0  0
  -25.9619  -14.3871  144.7141 C   0  0  0  0  0  0  0  0  0  0  0  0
  -28.6399  -11.0193  145.5025 C   0  0  0  0  0  0  0  0  0  0  0  0
  -29.7635  -11.2282  146.3321 C   0  0  0  0  0  0  0  0  0  0  0  0
  -30.8018  -10.4420  146.2569 O   0  0  0  0  0  0  0  0  0  0  0  0
  -29.8599  -12.2542  147.1143 O   0  0  0  0  0  0  0  0  0  0  0  0
  -25.1318  -15.9332  144.5307 N   0  0  0  0  0  0  0  0  0  0  0  0
  -26.3849  -16.8825  149.0677 O   0  0  0  0  0  0  0  0  0  0  0  0
  -28.5057   -9.8850  144.8182 O   0  0  0  0  0  0  0  0  0  0  0  0
 10 14  1  0
 14 15  1  0
 15 16  1  0
 15 17  2  0
  5 19  1  0
 14 20  2  0
  1  2  2  0
  2  6  1  0
  6  5  2  0
  5  4  1  0
  3  1  1  0
  8  9  1  0
  9 10  2  0
 10 11  1  0
 11 12  2  0
 12 13  1  0
  3  4  2  0
  4  7  1  0
  7  8  2  0
  8 13  1  0
 13 18  2  0
 18  3  1  0
M  END

$$$$
No_246-/dssg/home/sw_qyf/PocketFlow/Model-Generation-Results/5HT2A_7WC7_rec_A_10.pdb/2024-01-01-03-54-21/
     RDKit          3D

 13 14  0  0  0  0  0  0  0  0999 V2000
  -24.1553  -17.8465  145.7021 C   0  0  0  0  0  0  0  0  0  0  0  0
  -24.2855  -16.6364  145.3494 C   0  0  0  0  0  0  0  0  0  0  0  0
  -25.0033  -15.6772  146.0737 C   0  0  0  0  0  0  0  0  0  0  0  0
  -25.1197  -14.2834  145.7299 C   0  0  0  0  0  0  0  0  0  0  0  0
  -24.2707  -13.8793  144.6500 C   0  0  0  0  0  0  0  0  0  0  0  0
  -24.8686  -18.3355  146.8179 C   0  0  0  0  0  0  0  0  0  0  0  0
  -23.4212  -14.7686  144.0334 C   0  0  0  0  0  0  0  0  0  0  0  0
  -23.3932  -16.0844  144.3175 C   0  0  0  0  0  0  0  0  0  0  0  0
  -25.6449  -17.4591  147.5909 C   0  0  0  0  0  0  0  0  0  0  0  0
  -25.7561  -16.1038  147.2695 C   0  0  0  0  0  0  0  0  0  0  0  0
  -25.8530  -13.4790  146.4103 F   0  0  0  0  0  0  0  0  0  0  0  0
  -24.3303  -12.5204  144.3924 O   0  0  0  0  0  0  0  0  0  0  0  0
  -24.9250  -11.6357  145.2930 C   0  0  0  0  0  0  0  0  0  0  0  0
  4 11  1  0
  5 12  1  0
 12 13  1  0
  1  2  2  0
  3 10  2  0
 10  9  1  0
  9  6  2  0
  6  1  1  0
  2  3  1  0
  3  4  1  0
  4  5  2  0
  5  7  1  0
  7  8  2  0
  8  2  1  0
M  END

$$$$
No_247-/dssg/home/sw_qyf/PocketFlow/Model-Generation-Results/5HT2A_7WC7_rec_A_10.pdb/2024-01-01-03-54-21/
     RDKit          3D

 33 36  0  0  0  0  0  0  0  0999 V2000
  -24.1553  -17.8465  145.7021 C   0  0  0  0  0  0  0  0  0  0  0  0
  -23.9795  -18.4462  146.7426 C   0  0  0  0  0  0  0  0  0  0  0  0
  -23.3558  -17.2450  144.9339 C   0  0  0  0  0  0  0  0  0  0  0  0
  -24.9341  -19.0253  147.6214 C   0  0  0  0  0  0  0  0  0  0  0  0
  -23.7687  -15.8246  144.5219 C   0  0  0  0  0  0  0  0  0  0  0  0
  -25.0191  -15.2890  144.9695 C   0  0  0  0  0  0  0  0  0  0  0  0
  -25.2844  -13.9490  144.6696 C   0  0  0  0  0  0  0  0  0  0  0  0
  -26.5406  -13.5331  144.6319 C   0  0  0  0  0  0  0  0  0  0  0  0
  -27.0196  -12.4938  143.7932 C   0  0  0  0  0  0  0  0  0  0  0  0
  -28.3975  -12.0193  143.7132 C   0  0  0  0  0  0  0  0  0  0  0  0
  -28.6039  -10.8306  143.0200 C   0  0  0  0  0  0  0  0  0  0  0  0
  -28.3452  -10.8534  141.6735 C   0  0  0  0  0  0  0  0  0  0  0  0
  -28.4982   -9.7721  140.8457 C   0  0  0  0  0  0  0  0  0  0  0  0
  -29.2345   -8.6388  141.3031 C   0  0  0  0  0  0  0  0  0  0  0  0
  -29.5120   -7.4666  140.5420 C   0  0  0  0  0  0  0  0  0  0  0  0
  -29.2675   -9.6534  143.5611 C   0  0  0  0  0  0  0  0  0  0  0  0
  -29.5383   -8.5593  142.7889 C   0  0  0  0  0  0  0  0  0  0  0  0
  -28.0526   -9.7206  139.5012 C   0  0  0  0  0  0  0  0  0  0  0  0
  -28.3989   -8.6812  138.6498 C   0  0  0  0  0  0  0  0  0  0  0  0
  -29.0482   -7.5046  139.2470 C   0  0  0  0  0  0  0  0  0  0  0  0
  -25.9142  -16.0433  145.7231 C   0  0  0  0  0  0  0  0  0  0  0  0
  -25.4835  -17.3521  146.2122 C   0  0  0  0  0  0  0  0  0  0  0  0
  -25.9472  -17.9229  147.6509 C   0  0  0  0  0  0  0  0  0  0  0  0
  -24.5601  -13.0081  145.5928 O   0  0  0  0  0  0  0  0  0  0  0  0
  -24.1653  -11.9590  145.3511 C   0  0  0  0  0  0  0  0  0  0  0  0
  -29.6279   -9.6671  144.8352 F   0  0  0  0  0  0  0  0  0  0  0  0
  -27.3916  -10.7618  138.9781 N   0  0  0  0  0  0  0  0  0  0  0  0
  -26.2502  -11.2899  139.5769 C   0  0  0  0  0  0  0  0  0  0  0  0
  -28.1497  -11.5453  138.0972 C   0  0  0  0  0  0  0  0  0  0  0  0
  -22.8554  -18.0167  147.6465 O   0  0  0  0  0  0  0  0  0  0  0  0
  -26.0322  -12.6962  139.0596 C   0  0  0  0  0  0  0  0  0  0  0  0
  -30.2323   -7.5619  143.2878 O   0  0  0  0  0  0  0  0  0  0  0  0
  -22.9394  -15.1384  143.8441 O   0  0  0  0  0  0  0  0  0  0  0  0
  1  2  2  0
  1  3  1  0
  2  4  1  0
  3  5  1  0
  5  6  1  0
  6  7  1  0
  7  8  1  0
  8  9  1  0
  9 10  1  0
 10 11  1  0
 11 12  1  0
 11 16  1  0
 14 17  1  0
 16 17  1  0
  6 21  1  0
  1 22  1  0
 21 22  1  0
  4 23  1  0
 22 23  1  0
  7 24  1  0
 24 25  1  0
 16 26  1  0
 18 27  1  0
 27 28  1  0
 27 29  1  0
  2 30  1  0
 28 31  1  0
 17 32  2  0
  5 33  2  0
 13 12  1  0
 13 14  2  0
 14 15  1  0
 15 20  2  0
 20 19  1  0
 19 18  2  0
 18 13  1  0
M  END

$$$$
No_248-/dssg/home/sw_qyf/PocketFlow/Model-Generation-Results/5HT2A_7WC7_rec_A_10.pdb/2024-01-01-03-54-21/
     RDKit          3D

 11 11  0  0  0  0  0  0  0  0999 V2000
  -24.1553  -17.8465  145.7021 C   0  0  0  0  0  0  0  0  0  0  0  0
  -24.6364  -17.2931  146.7091 C   0  0  0  0  0  0  0  0  0  0  0  0
  -25.8608  -16.5592  146.5934 C   0  0  0  0  0  0  0  0  0  0  0  0
  -25.9533  -15.5604  145.6681 C   0  0  0  0  0  0  0  0  0  0  0  0
  -27.0179  -14.6632  145.5500 C   0  0  0  0  0  0  0  0  0  0  0  0
  -24.0512  -16.8635  144.5478 C   0  0  0  0  0  0  0  0  0  0  0  0
  -25.0352  -15.8697  144.5502 C   0  0  0  0  0  0  0  0  0  0  0  0
  -27.9972  -14.5549  146.4905 C   0  0  0  0  0  0  0  0  0  0  0  0
  -28.8713  -13.4294  146.5738 C   0  0  0  0  0  0  0  0  0  0  0  0
  -28.6976  -12.3509  145.6528 C   0  0  0  0  0  0  0  0  0  0  0  0
  -27.6954  -12.4183  144.7046 C   0  0  0  0  0  0  0  0  0  0  0  0
  1  2  1  0
  2  3  1  0
  3  4  1  0
  4  5  2  3
  1  6  1  0
  4  7  1  0
  6  7  1  0
  5  8  1  0
  8  9  2  3
  9 10  1  0
 10 11  2  0
M  END

$$$$
No_249-/dssg/home/sw_qyf/PocketFlow/Model-Generation-Results/5HT2A_7WC7_rec_A_10.pdb/2024-01-01-03-54-21/
     RDKit          3D

 18 19  0  0  0  0  0  0  0  0999 V2000
  -24.1553  -17.8465  145.7021 C   0  0  0  0  0  0  0  0  0  0  0  0
  -24.2856  -16.6364  145.3494 C   0  0  0  0  0  0  0  0  0  0  0  0
  -24.7837  -15.7223  145.8474 C   0  0  0  0  0  0  0  0  0  0  0  0
  -24.8736  -14.2869  145.3929 C   0  0  0  0  0  0  0  0  0  0  0  0
  -25.5953  -13.2445  145.9611 C   0  0  0  0  0  0  0  0  0  0  0  0
  -25.3343  -11.9118  145.7311 C   0  0  0  0  0  0  0  0  0  0  0  0
  -24.8346  -18.2370  146.8727 C   0  0  0  0  0  0  0  0  0  0  0  0
  -25.5149  -17.2923  147.5834 C   0  0  0  0  0  0  0  0  0  0  0  0
  -25.5563  -15.9715  147.1028 C   0  0  0  0  0  0  0  0  0  0  0  0
  -24.0877  -13.8815  144.2531 C   0  0  0  0  0  0  0  0  0  0  0  0
  -26.4310  -10.9562  145.8357 C   0  0  0  0  0  0  0  0  0  0  0  0
  -27.7275  -11.4768  145.9082 C   0  0  0  0  0  0  0  0  0  0  0  0
  -27.9478  -12.8193  146.4929 C   0  0  0  0  0  0  0  0  0  0  0  0
  -27.0259  -13.6350  146.3142 C   0  0  0  0  0  0  0  0  0  0  0  0
  -29.3150  -13.0942  146.8907 C   0  0  0  0  0  0  0  0  0  0  0  0
  -29.6485  -14.3697  147.4106 C   0  0  0  0  0  0  0  0  0  0  0  0
  -30.3075  -12.0786  147.0365 C   0  0  0  0  0  0  0  0  0  0  0  0
  -22.8045  -13.8775  144.4464 O   0  0  0  0  0  0  0  0  0  0  0  0
  3  4  1  0
  4  5  1  0
  4 10  1  0
 13 15  1  0
 15 16  1  0
 15 17  1  0
 10 18  1  0
  1  2  2  0
  2  3  1  0
  3  9  2  0
  9  8  1  0
  8  7  2  0
  7  1  1  0
  5  6  2  0
  6 11  1  0
 11 12  2  0
 12 13  1  0
 13 14  2  0
 14  5  1  0
M  END

$$$$
No_250-/dssg/home/sw_qyf/PocketFlow/Model-Generation-Results/5HT2A_7WC7_rec_A_10.pdb/2024-01-01-03-54-21/
     RDKit          3D

 12 12  0  0  0  0  0  0  0  0999 V2000
  -24.1553  -17.8465  145.7021 C   0  0  0  0  0  0  0  0  0  0  0  0
  -23.9795  -18.4462  146.7426 C   0  0  0  0  0  0  0  0  0  0  0  0
  -23.2486  -17.2339  144.9771 C   0  0  0  0  0  0  0  0  0  0  0  0
  -22.6834  -18.2906  147.4267 C   0  0  0  0  0  0  0  0  0  0  0  0
  -22.6808  -18.3062  148.7120 N   0  0  0  0  0  0  0  0  0  0  0  0
  -23.6770  -16.3164  143.8652 C   0  0  0  0  0  0  0  0  0  0  0  0
  -24.0649  -14.9555  144.4210 C   0  0  0  0  0  0  0  0  0  0  0  0
  -25.1517  -14.9050  145.3131 C   0  0  0  0  0  0  0  0  0  0  0  0
  -24.9961  -13.9308  146.2442 C   0  0  0  0  0  0  0  0  0  0  0  0
  -24.1983  -12.7216  146.0904 C   0  0  0  0  0  0  0  0  0  0  0  0
  -23.2507  -12.7327  145.0712 C   0  0  0  0  0  0  0  0  0  0  0  0
  -23.1719  -13.8863  144.2339 C   0  0  0  0  0  0  0  0  0  0  0  0
  1  2  1  0
  1  3  2  3
  2  4  1  0
  4  5  1  0
  3  6  1  0
  6  7  1  0
  7  8  2  0
  8  9  1  0
  9 10  2  0
 10 11  1  0
 11 12  2  0
 12  7  1  0
M  END

$$$$
No_251-/dssg/home/sw_qyf/PocketFlow/Model-Generation-Results/5HT2A_7WC7_rec_A_10.pdb/2024-01-01-03-54-21/
     RDKit          3D

 28 30  0  0  0  0  0  0  0  0999 V2000
  -24.1553  -17.8465  145.7021 C   0  0  0  0  0  0  0  0  0  0  0  0
  -24.2855  -16.6364  145.3494 C   0  0  0  0  0  0  0  0  0  0  0  0
  -25.0033  -15.6772  146.0737 C   0  0  0  0  0  0  0  0  0  0  0  0
  -24.8869  -14.2981  145.8377 C   0  0  0  0  0  0  0  0  0  0  0  0
  -24.0230  -13.8996  144.7516 C   0  0  0  0  0  0  0  0  0  0  0  0
  -24.2452  -18.2566  146.6618 C   0  0  0  0  0  0  0  0  0  0  0  0
  -23.2883  -14.7964  144.0762 C   0  0  0  0  0  0  0  0  0  0  0  0
  -23.4236  -16.1211  144.3578 C   0  0  0  0  0  0  0  0  0  0  0  0
  -25.0569  -17.4674  147.7394 C   0  0  0  0  0  0  0  0  0  0  0  0
  -25.2154  -16.0740  147.4857 C   0  0  0  0  0  0  0  0  0  0  0  0
  -25.6720  -13.2980  146.5574 C   0  0  0  0  0  0  0  0  0  0  0  0
  -25.5470  -11.9346  146.2172 C   0  0  0  0  0  0  0  0  0  0  0  0
  -24.7900  -11.5619  145.0772 C   0  0  0  0  0  0  0  0  0  0  0  0
  -23.9285  -12.4723  144.4535 C   0  0  0  0  0  0  0  0  0  0  0  0
  -23.6642  -18.7986  144.7865 F   0  0  0  0  0  0  0  0  0  0  0  0
  -26.5980  -10.7454  146.9463 Cl  0  0  0  0  0  0  0  0  0  0  0  0
  -25.3310  -17.9440  149.0066 O   0  0  0  0  0  0  0  0  0  0  0  0
  -25.3989  -16.9971  150.1162 C   0  0  0  0  0  0  0  0  0  0  0  0
  -24.1294  -16.6733  150.6265 C   0  0  0  0  0  0  0  0  0  0  0  0
  -22.9443  -17.0978  149.9757 C   0  0  0  0  0  0  0  0  0  0  0  0
  -21.8213  -16.6196  150.5720 O   0  0  0  0  0  0  0  0  0  0  0  0
  -21.7792  -16.6377  151.9625 C   0  0  0  0  0  0  0  0  0  0  0  0
  -20.4573  -16.0331  152.3452 C   0  0  0  0  0  0  0  0  0  0  0  0
  -26.2663  -17.8108  151.0214 O   0  0  0  0  0  0  0  0  0  0  0  0
  -27.5157  -18.1761  150.8247 C   0  0  0  0  0  0  0  0  0  0  0  0
  -28.2478  -18.4245  152.0384 C   0  0  0  0  0  0  0  0  0  0  0  0
  -29.3145  -17.7764  152.2079 O   0  0  0  0  0  0  0  0  0  0  0  0
  -27.7803  -19.2118  152.9457 O   0  0  0  0  0  0  0  0  0  0  0  0
  1 15  1  0
 12 16  1  0
  9 17  1  0
 17 18  1  0
 18 19  1  0
 19 20  1  0
 20 21  1  0
 21 22  1  0
 22 23  1  0
 18 24  1  0
 24 25  1  0
 25 26  1  0
 26 27  2  0
 26 28  1  0
  5 14  2  0
 14 13  1  0
 13 12  2  0
 12 11  1  0
 11  4  2  0
  1  2  2  0
  3 10  2  0
 10  9  1  0
  9  6  2  0
  6  1  1  0
  2  3  1  0
  3  4  1  0
  4  5  1  0
  5  7  1  0
  7  8  2  0
  8  2  1  0
M  END

$$$$
No_252-/dssg/home/sw_qyf/PocketFlow/Model-Generation-Results/5HT2A_7WC7_rec_A_10.pdb/2024-01-01-03-54-21/
     RDKit          3D

 19 19  0  0  0  0  0  0  0  0999 V2000
  -23.1746  -16.6014  144.8668 C   0  0  0  0  0  0  0  0  0  0  0  0
  -23.7011  -17.0158  145.9774 C   0  0  0  0  0  0  0  0  0  0  0  0
  -24.2134  -16.0722  146.8877 C   0  0  0  0  0  0  0  0  0  0  0  0
  -23.3742  -15.2706  144.3922 C   0  0  0  0  0  0  0  0  0  0  0  0
  -24.0445  -14.2973  145.2608 C   0  0  0  0  0  0  0  0  0  0  0  0
  -24.2269  -12.9067  144.8433 C   0  0  0  0  0  0  0  0  0  0  0  0
  -24.4280  -14.7101  146.5452 C   0  0  0  0  0  0  0  0  0  0  0  0
  -23.3016  -12.0601  145.6348 C   0  0  0  0  0  0  0  0  0  0  0  0
  -23.5787  -18.4365  146.4437 C   0  0  0  0  0  0  0  0  0  0  0  0
  -24.2990  -18.8748  147.3383 O   0  0  0  0  0  0  0  0  0  0  0  0
  -22.6667  -19.1565  146.0268 O   0  0  0  0  0  0  0  0  0  0  0  0
  -25.6243  -12.4918  145.0667 C   0  0  0  0  0  0  0  0  0  0  0  0
  -26.5394  -12.7692  144.1082 C   0  0  0  0  0  0  0  0  0  0  0  0
  -27.7158  -12.0652  144.0255 C   0  0  0  0  0  0  0  0  0  0  0  0
  -27.8918  -11.0192  143.1213 C   0  0  0  0  0  0  0  0  0  0  0  0
  -29.1004  -10.1880  143.2656 C   0  0  0  0  0  0  0  0  0  0  0  0
  -29.6072   -9.3944  142.2562 C   0  0  0  0  0  0  0  0  0  0  0  0
  -28.8683   -9.3596  141.0144 C   0  0  0  0  0  0  0  0  0  0  0  0
  -27.8236  -10.3016  140.8633 C   0  0  0  0  0  0  0  0  0  0  0  0
  5  6  1  0
  6  8  1  0
  2  9  1  0
  9 10  2  0
  9 11  1  0
  6 12  1  0
 12 13  1  0
 13 14  2  3
 14 15  1  0
 15 16  2  3
 16 17  1  0
 17 18  2  3
 18 19  1  0
  1  2  2  0
  2  3  1  0
  3  7  2  0
  7  5  1  0
  5  4  2  0
  4  1  1  0
M  END

$$$$
No_253-/dssg/home/sw_qyf/PocketFlow/Model-Generation-Results/5HT2A_7WC7_rec_A_10.pdb/2024-01-01-03-54-21/
     RDKit          3D

 35 39  0  0  0  0  0  0  0  0999 V2000
  -23.8998  -17.8495  145.5131 N   0  0  0  0  0  0  0  0  0  0  0  0
  -24.1393  -18.2577  146.6176 C   0  0  0  0  0  0  0  0  0  0  0  0
  -24.3812  -16.7191  145.0677 C   0  0  0  0  0  0  0  0  0  0  0  0
  -23.7267  -15.8804  144.2014 C   0  0  0  0  0  0  0  0  0  0  0  0
  -23.8089  -14.3795  144.5239 C   0  0  0  0  0  0  0  0  0  0  0  0
  -24.1823  -13.9925  145.7443 C   0  0  0  0  0  0  0  0  0  0  0  0
  -24.9607  -17.5503  147.4213 N   0  0  0  0  0  0  0  0  0  0  0  0
  -24.8327  -14.9625  146.6597 C   0  0  0  0  0  0  0  0  0  0  0  0
  -24.6736  -16.2496  146.4793 C   0  0  0  0  0  0  0  0  0  0  0  0
  -24.2532  -12.4884  146.1012 C   0  0  0  0  0  0  0  0  0  0  0  0
  -23.8737  -11.5569  145.1956 C   0  0  0  0  0  0  0  0  0  0  0  0
  -25.6327  -12.1584  146.7460 C   0  0  0  0  0  0  0  0  0  0  0  0
  -26.7251  -11.6812  145.8152 C   0  0  0  0  0  0  0  0  0  0  0  0
  -26.2677  -10.6226  144.9806 C   0  0  0  0  0  0  0  0  0  0  0  0
  -27.2772   -9.9179  144.2753 C   0  0  0  0  0  0  0  0  0  0  0  0
  -24.8675  -10.6538  144.5567 C   0  0  0  0  0  0  0  0  0  0  0  0
  -27.1893   -8.9907  143.4510 C   0  0  0  0  0  0  0  0  0  0  0  0
  -28.3387   -8.2588  142.9589 C   0  0  0  0  0  0  0  0  0  0  0  0
  -29.6521   -8.7449  143.2170 C   0  0  0  0  0  0  0  0  0  0  0  0
  -29.7332   -9.8207  144.2131 C   0  0  0  0  0  0  0  0  0  0  0  0
  -28.6108  -10.4608  144.6819 C   0  0  0  0  0  0  0  0  0  0  0  0
  -30.8263   -8.0516  142.7731 C   0  0  0  0  0  0  0  0  0  0  0  0
  -30.9058   -7.6782  141.6252 O   0  0  0  0  0  0  0  0  0  0  0  0
  -31.8488   -8.0079  143.5848 O   0  0  0  0  0  0  0  0  0  0  0  0
  -27.9982  -11.8175  146.3002 C   0  0  0  0  0  0  0  0  0  0  0  0
  -28.3190  -12.8743  147.1899 C   0  0  0  0  0  0  0  0  0  0  0  0
  -28.9810  -11.2896  145.5938 C   0  0  0  0  0  0  0  0  0  0  0  0
  -29.3981  -12.7764  147.9889 N   0  0  0  0  0  0  0  0  0  0  0  0
  -30.4064  -13.6592  148.0892 C   0  0  0  0  0  0  0  0  0  0  0  0
  -31.4998  -13.2926  148.9336 C   0  0  0  0  0  0  0  0  0  0  0  0
  -31.9903  -12.0570  148.9435 C   0  0  0  0  0  0  0  0  0  0  0  0
  -30.3352  -14.6788  147.4432 O   0  0  0  0  0  0  0  0  0  0  0  0
  -33.1097  -11.7240  149.7701 C   0  0  0  0  0  0  0  0  0  0  0  0
  -33.6415  -10.4686  149.6148 C   0  0  0  0  0  0  0  0  0  0  0  0
  -32.8673  -12.0614  151.1007 F   0  0  0  0  0  0  0  0  0  0  0  0
  1  2  1  0
  1  3  1  0
  2  7  2  0
  7  9  1  0
  6 10  1  0
 14 15  1  0
 19 22  1  0
 22 23  1  0
 22 24  2  0
 13 25  1  0
 25 26  1  0
 21 27  1  0
 25 27  1  0
 26 28  1  0
 28 29  1  0
 29 30  1  0
 30 31  2  3
 29 32  2  0
 31 33  1  0
 33 34  1  0
 33 35  1  0
  3  4  2  0
  4  5  1  0
  5  6  2  0
  6  8  1  0
  8  9  2  0
  9  3  1  0
 10 11  2  0
 11 16  1  0
 16 14  2  0
 14 13  1  0
 13 12  2  0
 12 10  1  0
 15 17  2  0
 17 18  1  0
 18 19  2  0
 19 20  1  0
 20 21  2  0
 21 15  1  0
M  END

$$$$
No_254-/dssg/home/sw_qyf/PocketFlow/Model-Generation-Results/5HT2A_7WC7_rec_A_10.pdb/2024-01-01-03-54-21/
     RDKit          3D

 13 14  0  0  0  0  0  0  0  0999 V2000
  -23.1746  -16.6014  144.8668 C   0  0  0  0  0  0  0  0  0  0  0  0
  -23.7011  -17.0158  145.9774 C   0  0  0  0  0  0  0  0  0  0  0  0
  -24.2134  -16.0722  146.8877 C   0  0  0  0  0  0  0  0  0  0  0  0
  -24.5407  -14.7704  146.3552 C   0  0  0  0  0  0  0  0  0  0  0  0
  -24.9626  -13.7061  147.1333 C   0  0  0  0  0  0  0  0  0  0  0  0
  -24.0995  -14.5614  145.0046 C   0  0  0  0  0  0  0  0  0  0  0  0
  -23.4166  -15.4695  144.2822 C   0  0  0  0  0  0  0  0  0  0  0  0
  -25.3857  -12.4503  146.3858 C   0  0  0  0  0  0  0  0  0  0  0  0
  -26.5378  -11.7693  146.5596 C   0  0  0  0  0  0  0  0  0  0  0  0
  -26.8290  -10.8051  145.5547 C   0  0  0  0  0  0  0  0  0  0  0  0
  -25.9238  -10.4865  144.6312 C   0  0  0  0  0  0  0  0  0  0  0  0
  -24.6617  -11.9467  145.1774 C   0  0  0  0  0  0  0  0  0  0  0  0
  -24.9038  -11.0609  144.5178 O   0  0  0  0  0  0  0  0  0  0  0  0
  4  5  1  0
  5  8  1  0
  8  9  1  0
  9 10  2  0
 10 11  1  0
  8 12  1  0
 11 13  1  0
 12 13  1  0
  1  2  2  0
  2  3  1  0
  3  4  2  0
  4  6  1  0
  6  7  2  0
  7  1  1  0
M  END

$$$$
No_255-/dssg/home/sw_qyf/PocketFlow/Model-Generation-Results/5HT2A_7WC7_rec_A_10.pdb/2024-01-01-03-54-21/
     RDKit          3D

 26 29  0  0  0  0  0  0  0  0999 V2000
  -24.1553  -17.8465  145.7021 C   0  0  0  0  0  0  0  0  0  0  0  0
  -24.6364  -17.2931  146.7091 C   0  0  0  0  0  0  0  0  0  0  0  0
  -25.8608  -16.5592  146.5934 C   0  0  0  0  0  0  0  0  0  0  0  0
  -25.9533  -15.5604  145.6681 C   0  0  0  0  0  0  0  0  0  0  0  0
  -24.8399  -15.4389  144.8356 C   0  0  0  0  0  0  0  0  0  0  0  0
  -23.9571  -16.6365  144.7213 C   0  0  0  0  0  0  0  0  0  0  0  0
  -26.9608  -14.5638  145.6034 C   0  0  0  0  0  0  0  0  0  0  0  0
  -27.9684  -14.4102  146.5058 C   0  0  0  0  0  0  0  0  0  0  0  0
  -28.9165  -13.3485  146.4878 C   0  0  0  0  0  0  0  0  0  0  0  0
  -29.9397  -13.0725  147.4436 C   0  0  0  0  0  0  0  0  0  0  0  0
  -30.6863  -11.8667  147.4456 C   0  0  0  0  0  0  0  0  0  0  0  0
  -30.3015  -10.9165  146.4329 C   0  0  0  0  0  0  0  0  0  0  0  0
  -29.2121  -11.1171  145.5624 C   0  0  0  0  0  0  0  0  0  0  0  0
  -28.4811  -12.3278  145.6396 C   0  0  0  0  0  0  0  0  0  0  0  0
  -24.6327  -14.3336  143.9422 C   0  0  0  0  0  0  0  0  0  0  0  0
  -25.6364  -13.7699  143.4368 O   0  0  0  0  0  0  0  0  0  0  0  0
  -28.9191  -10.1297  144.6824 N   0  0  0  0  0  0  0  0  0  0  0  0
  -29.7002   -9.3692  143.9260 C   0  0  0  0  0  0  0  0  0  0  0  0
  -29.2125   -8.6766  142.8629 C   0  0  0  0  0  0  0  0  0  0  0  0
  -29.6197   -7.3204  142.6045 C   0  0  0  0  0  0  0  0  0  0  0  0
  -30.5791   -6.6854  143.2940 C   0  0  0  0  0  0  0  0  0  0  0  0
  -31.4777   -7.6962  143.9059 C   0  0  0  0  0  0  0  0  0  0  0  0
  -30.8446   -8.8838  144.5114 N   0  0  0  0  0  0  0  0  0  0  0  0
  -23.6027  -16.5616  147.7035 C   0  0  0  0  0  0  0  0  0  0  0  0
  -26.8156  -13.6975  144.3587 C   0  0  0  0  0  0  0  0  0  0  0  0
  -27.6197  -12.4829  144.3662 C   0  0  0  0  0  0  0  0  0  0  0  0
  1  2  1  0
  2  3  1  0
  3  4  1  0
  4  5  1  0
  1  6  1  0
  5  6  1  0
  4  7  1  0
  7  8  2  3
  8  9  1  0
  5 15  1  0
 15 16  1  0
 13 17  1  0
 17 18  1  0
  2 24  1  0
 16 25  1  0
 14 26  1  0
 25 26  1  0
 18 19  2  0
 19 20  1  0
 20 21  2  0
 21 22  1  0
 22 23  2  0
 23 18  1  0
  9 10  2  0
 10 11  1  0
 11 12  2  0
 12 13  1  0
 13 14  2  0
 14  9  1  0
M  END

$$$$
No_256-/dssg/home/sw_qyf/PocketFlow/Model-Generation-Results/5HT2A_7WC7_rec_A_10.pdb/2024-01-01-03-54-21/
     RDKit          3D

 34 37  0  0  0  0  0  0  0  0999 V2000
  -24.1553  -17.8465  145.7021 C   0  0  0  0  0  0  0  0  0  0  0  0
  -23.9795  -18.4462  146.7426 C   0  0  0  0  0  0  0  0  0  0  0  0
  -25.1196  -16.8106  145.6409 C   0  0  0  0  0  0  0  0  0  0  0  0
  -25.2440  -15.8776  144.5240 C   0  0  0  0  0  0  0  0  0  0  0  0
  -26.0733  -14.7284  144.7061 C   0  0  0  0  0  0  0  0  0  0  0  0
  -27.0964  -14.7050  145.6625 C   0  0  0  0  0  0  0  0  0  0  0  0
  -27.1085  -15.7327  146.6117 C   0  0  0  0  0  0  0  0  0  0  0  0
  -26.1368  -16.7554  146.5717 C   0  0  0  0  0  0  0  0  0  0  0  0
  -23.2634  -17.9250  147.6899 C   0  0  0  0  0  0  0  0  0  0  0  0
  -23.7335  -17.7010  149.0702 O   0  0  0  0  0  0  0  0  0  0  0  0
  -26.0070  -13.7106  143.6266 C   0  0  0  0  0  0  0  0  0  0  0  0
  -27.1019  -12.9082  143.5005 C   0  0  0  0  0  0  0  0  0  0  0  0
  -27.2800  -12.2734  142.2677 C   0  0  0  0  0  0  0  0  0  0  0  0
  -27.1583  -13.0070  141.0500 C   0  0  0  0  0  0  0  0  0  0  0  0
  -27.3874  -12.4437  139.8631 C   0  0  0  0  0  0  0  0  0  0  0  0
  -27.6465  -11.0206  139.7572 C   0  0  0  0  0  0  0  0  0  0  0  0
  -27.8101  -10.3224  138.5361 C   0  0  0  0  0  0  0  0  0  0  0  0
  -28.2102   -8.9083  138.6984 C   0  0  0  0  0  0  0  0  0  0  0  0
  -29.0290   -8.5542  139.6938 C   0  0  0  0  0  0  0  0  0  0  0  0
  -28.9650   -9.2909  140.9812 C   0  0  0  0  0  0  0  0  0  0  0  0
  -28.3841  -10.5994  140.9299 C   0  0  0  0  0  0  0  0  0  0  0  0
  -28.0886  -11.0833  142.2092 C   0  0  0  0  0  0  0  0  0  0  0  0
  -28.0153   -8.1064  137.6434 C   0  0  0  0  0  0  0  0  0  0  0  0
  -22.9524  -17.0573  149.9675 C   0  0  0  0  0  0  0  0  0  0  0  0
  -28.1639  -15.6978  147.6696 C   0  0  0  0  0  0  0  0  0  0  0  0
  -28.3437  -16.6617  148.6003 C   0  0  0  0  0  0  0  0  0  0  0  0
  -29.0774  -14.5879  147.7147 C   0  0  0  0  0  0  0  0  0  0  0  0
  -30.1325  -14.5596  148.7114 C   0  0  0  0  0  0  0  0  0  0  0  0
  -30.2091  -15.5708  149.6542 C   0  0  0  0  0  0  0  0  0  0  0  0
  -29.3294  -16.6497  149.5864 C   0  0  0  0  0  0  0  0  0  0  0  0
  -31.0329  -13.5397  148.7569 N   0  0  0  0  0  0  0  0  0  0  0  0
  -31.0145  -12.5607  149.6193 C   0  0  0  0  0  0  0  0  0  0  0  0
  -32.3911  -12.2294  150.2133 C   0  0  0  0  0  0  0  0  0  0  0  0
  -33.3236  -11.8860  149.2687 C   0  0  0  0  0  0  0  0  0  0  0  0
  1  2  2  3
  1  3  1  0
  2  9  1  0
  9 10  1  0
  5 11  1  0
 11 12  2  3
 12 13  1  0
 18 23  1  0
 10 24  1  0
  7 25  1  0
 28 31  1  0
 31 32  1  0
 32 33  1  0
 33 34  1  0
  3  4  2  0
  4  5  1  0
  5  6  2  0
  6  7  1  0
  7  8  2  0
  8  3  1  0
 13 14  2  0
 14 15  1  0
 15 16  2  0
 21 22  2  0
 22 13  1  0
 25 26  2  0
 26 30  1  0
 30 29  2  0
 29 28  1  0
 28 27  2  0
 27 25  1  0
 16 17  1  0
 17 18  2  0
 18 19  1  0
 19 20  2  0
 20 21  1  0
 21 16  1  0
M  END

$$$$
No_257-/dssg/home/sw_qyf/PocketFlow/Model-Generation-Results/5HT2A_7WC7_rec_A_10.pdb/2024-01-01-03-54-21/
     RDKit          3D

  7  7  0  0  0  0  0  0  0  0999 V2000
  -23.1746  -16.6014  144.8668 C   0  0  0  0  0  0  0  0  0  0  0  0
  -23.7011  -17.0158  145.9774 C   0  0  0  0  0  0  0  0  0  0  0  0
  -24.2134  -16.0722  146.8877 C   0  0  0  0  0  0  0  0  0  0  0  0
  -24.5407  -14.7704  146.3552 C   0  0  0  0  0  0  0  0  0  0  0  0
  -24.1477  -14.4045  145.0969 C   0  0  0  0  0  0  0  0  0  0  0  0
  -23.4211  -15.3299  144.3881 C   0  0  0  0  0  0  0  0  0  0  0  0
  -23.4939  -18.2970  146.5434 N   0  0  0  0  0  0  0  0  0  0  0  0
  2  7  1  0
  1  2  2  0
  2  3  1  0
  3  4  2  0
  4  5  1  0
  5  6  2  0
  6  1  1  0
M  END

$$$$
No_258-/dssg/home/sw_qyf/PocketFlow/Model-Generation-Results/5HT2A_7WC7_rec_A_10.pdb/2024-01-01-03-54-21/
     RDKit          3D

 19 20  0  0  0  0  0  0  0  0999 V2000
  -24.1553  -17.8465  145.7021 C   0  0  0  0  0  0  0  0  0  0  0  0
  -23.9795  -18.4462  146.7426 C   0  0  0  0  0  0  0  0  0  0  0  0
  -25.1593  -16.8262  145.6925 C   0  0  0  0  0  0  0  0  0  0  0  0
  -24.9465  -15.5960  144.9952 C   0  0  0  0  0  0  0  0  0  0  0  0
  -25.8223  -14.4752  145.0170 C   0  0  0  0  0  0  0  0  0  0  0  0
  -26.5395  -14.2060  146.1042 C   0  0  0  0  0  0  0  0  0  0  0  0
  -27.2470  -15.4172  146.6383 C   0  0  0  0  0  0  0  0  0  0  0  0
  -28.2896  -15.3445  147.5918 C   0  0  0  0  0  0  0  0  0  0  0  0
  -27.3114  -16.4193  145.6432 C   0  0  0  0  0  0  0  0  0  0  0  0
  -26.4306  -17.3646  145.7277 C   0  0  0  0  0  0  0  0  0  0  0  0
  -23.5938  -15.3154  144.4121 C   0  0  0  0  0  0  0  0  0  0  0  0
  -23.2674  -14.1006  144.2781 O   0  0  0  0  0  0  0  0  0  0  0  0
  -28.6724  -16.3064  148.4781 C   0  0  0  0  0  0  0  0  0  0  0  0
  -29.1123  -14.1038  147.6554 C   0  0  0  0  0  0  0  0  0  0  0  0
  -28.9213  -12.9285  146.9487 C   0  0  0  0  0  0  0  0  0  0  0  0
  -29.8424  -11.8624  147.0938 C   0  0  0  0  0  0  0  0  0  0  0  0
  -30.7928  -11.9870  148.0622 N   0  0  0  0  0  0  0  0  0  0  0  0
  -30.9614  -13.0592  148.8151 C   0  0  0  0  0  0  0  0  0  0  0  0
  -30.0854  -14.1434  148.6921 C   0  0  0  0  0  0  0  0  0  0  0  0
  1  2  1  0
  1  3  1  0
  3  4  1  0
  4  5  1  0
  5  6  1  0
  6  7  1  0
  7  8  1  0
  7  9  1  0
  3 10  1  0
  9 10  1  0
  4 11  1  0
 11 12  1  0
  8 13  2  0
  8 14  1  0
 14 15  2  0
 15 16  1  0
 16 17  2  0
 17 18  1  0
 18 19  2  0
 19 14  1  0
M  END

$$$$
No_259-/dssg/home/sw_qyf/PocketFlow/Model-Generation-Results/5HT2A_7WC7_rec_A_10.pdb/2024-01-01-03-54-21/
     RDKit          3D

 14 15  0  0  0  0  0  0  0  0999 V2000
  -23.1746  -16.6014  144.8668 C   0  0  0  0  0  0  0  0  0  0  0  0
  -23.8963  -15.5346  144.7885 C   0  0  0  0  0  0  0  0  0  0  0  0
  -23.6398  -14.5115  145.3281 C   0  0  0  0  0  0  0  0  0  0  0  0
  -24.3240  -13.3648  145.1280 C   0  0  0  0  0  0  0  0  0  0  0  0
  -23.8303  -12.0965  145.7920 C   0  0  0  0  0  0  0  0  0  0  0  0
  -24.6972  -13.0428  143.9315 O   0  0  0  0  0  0  0  0  0  0  0  0
  -23.5531  -17.8111  144.5837 C   0  0  0  0  0  0  0  0  0  0  0  0
  -24.7610  -18.1247  145.2969 C   0  0  0  0  0  0  0  0  0  0  0  0
  -25.6968  -17.1092  145.6861 C   0  0  0  0  0  0  0  0  0  0  0  0
  -25.2909  -15.8170  145.3699 C   0  0  0  0  0  0  0  0  0  0  0  0
  -27.0373  -17.3382  146.0390 C   0  0  0  0  0  0  0  0  0  0  0  0
  -27.8882  -16.1830  146.3347 C   0  0  0  0  0  0  0  0  0  0  0  0
  -27.4823  -14.9451  145.9763 C   0  0  0  0  0  0  0  0  0  0  0  0
  -26.1489  -14.7160  145.4920 C   0  0  0  0  0  0  0  0  0  0  0  0
  3  4  1  0
  4  5  1  0
  4  6  1  0
  3  2  1  0
  1  2  2  0
  2 10  1  0
  9  8  1  0
  8  7  2  0
  7  1  1  0
  9 10  2  0
 10 14  1  0
 14 13  2  0
 13 12  1  0
 12 11  2  0
 11  9  1  0
M  END

$$$$
No_260-/dssg/home/sw_qyf/PocketFlow/Model-Generation-Results/5HT2A_7WC7_rec_A_10.pdb/2024-01-01-03-54-21/
     RDKit          3D

 35 36  0  0  0  0  0  0  0  0999 V2000
  -23.1746  -16.6014  144.8668 C   0  0  0  0  0  0  0  0  0  0  0  0
  -24.0189  -16.0564  145.8445 C   0  0  0  0  0  0  0  0  0  0  0  0
  -25.3176  -15.9168  145.6822 C   0  0  0  0  0  0  0  0  0  0  0  0
  -25.8933  -14.7450  145.0632 C   0  0  0  0  0  0  0  0  0  0  0  0
  -25.3133  -14.0222  144.0834 C   0  0  0  0  0  0  0  0  0  0  0  0
  -24.1934  -14.0195  143.9628 F   0  0  0  0  0  0  0  0  0  0  0  0
  -25.7446  -12.7018  144.2042 F   0  0  0  0  0  0  0  0  0  0  0  0
  -26.1161  -16.9833  146.2659 C   0  0  0  0  0  0  0  0  0  0  0  0
  -27.2048  -16.5296  147.1638 C   0  0  0  0  0  0  0  0  0  0  0  0
  -27.0050  -16.5927  148.4823 C   0  0  0  0  0  0  0  0  0  0  0  0
  -25.7031  -16.6144  149.0096 C   0  0  0  0  0  0  0  0  0  0  0  0
  -25.1243  -17.8050  149.5295 C   0  0  0  0  0  0  0  0  0  0  0  0
  -23.6529  -17.6595  149.9029 C   0  0  0  0  0  0  0  0  0  0  0  0
  -28.5048  -16.3095  146.5856 C   0  0  0  0  0  0  0  0  0  0  0  0
  -23.2799  -16.7034  151.0025 C   0  0  0  0  0  0  0  0  0  0  0  0
  -21.5874  -16.3957  151.1883 Cl  0  0  0  0  0  0  0  0  0  0  0  0
  -25.8678  -14.3642  142.8232 F   0  0  0  0  0  0  0  0  0  0  0  0
  -29.0325  -14.9023  146.8186 C   0  0  0  0  0  0  0  0  0  0  0  0
  -28.4356  -13.7864  146.4285 C   0  0  0  0  0  0  0  0  0  0  0  0
  -28.9598  -12.4765  146.6766 C   0  0  0  0  0  0  0  0  0  0  0  0
  -28.5237  -11.3022  146.0277 C   0  0  0  0  0  0  0  0  0  0  0  0
  -28.5849  -11.2162  144.7205 C   0  0  0  0  0  0  0  0  0  0  0  0
  -28.0924  -10.0871  143.9489 C   0  0  0  0  0  0  0  0  0  0  0  0
  -28.7542   -9.8655  142.7292 C   0  0  0  0  0  0  0  0  0  0  0  0
  -28.4521  -10.7005  141.6567 C   0  0  0  0  0  0  0  0  0  0  0  0
  -28.0149  -10.2619  140.4310 C   0  0  0  0  0  0  0  0  0  0  0  0
  -28.5159   -9.0101  139.9860 C   0  0  0  0  0  0  0  0  0  0  0  0
  -28.2024   -8.5202  138.6919 C   0  0  0  0  0  0  0  0  0  0  0  0
  -29.2829   -8.1244  140.9122 C   0  0  0  0  0  0  0  0  0  0  0  0
  -29.2364   -8.5961  142.3203 C   0  0  0  0  0  0  0  0  0  0  0  0
  -29.9448  -12.4235  147.7506 C   0  0  0  0  0  0  0  0  0  0  0  0
  -30.4709  -13.5663  148.3784 C   0  0  0  0  0  0  0  0  0  0  0  0
  -30.0001  -14.8199  147.9440 C   0  0  0  0  0  0  0  0  0  0  0  0
  -27.3470  -11.1273  139.5264 C   0  0  0  0  0  0  0  0  0  0  0  0
  -27.2222  -12.3826  139.4568 N   0  0  0  0  0  0  0  0  0  0  0  0
  1  2  1  0
  2  3  1  0
  3  4  2  3
  4  5  1  0
  5  6  1  0
  5  7  1  0
  3  8  1  0
  8  9  1  0
  9 10  1  0
 10 11  2  3
 11 12  1  0
 12 13  1  0
  9 14  1  0
 13 15  1  0
 15 16  1  0
  5 17  1  0
 14 18  1  0
 20 21  1  0
 21 22  1  0
 22 23  1  0
 23 24  1  0
 26 34  1  0
 34 35  1  0
 28 27  1  0
 24 25  2  0
 25 26  1  0
 26 27  2  0
 27 29  1  0
 29 30  2  0
 30 24  1  0
 18 19  2  0
 19 20  1  0
 20 31  2  0
 31 32  1  0
 32 33  2  0
 33 18  1  0
M  END

$$$$
No_261-/dssg/home/sw_qyf/PocketFlow/Model-Generation-Results/5HT2A_7WC7_rec_A_10.pdb/2024-01-01-03-54-21/
     RDKit          3D

 15 16  0  0  0  0  0  0  0  0999 V2000
  -24.1553  -17.8465  145.7021 C   0  0  0  0  0  0  0  0  0  0  0  0
  -24.2855  -16.6364  145.3494 C   0  0  0  0  0  0  0  0  0  0  0  0
  -24.1962  -15.9414  144.2650 C   0  0  0  0  0  0  0  0  0  0  0  0
  -24.3870  -14.5486  144.1162 C   0  0  0  0  0  0  0  0  0  0  0  0
  -24.7523  -13.8439  145.3544 C   0  0  0  0  0  0  0  0  0  0  0  0
  -24.8596  -14.5458  146.5907 C   0  0  0  0  0  0  0  0  0  0  0  0
  -24.5646  -15.8706  146.6408 C   0  0  0  0  0  0  0  0  0  0  0  0
  -24.5616  -18.0263  147.0185 C   0  0  0  0  0  0  0  0  0  0  0  0
  -24.7879  -16.8821  147.6461 C   0  0  0  0  0  0  0  0  0  0  0  0
  -24.9377  -12.3523  145.3781 C   0  0  0  0  0  0  0  0  0  0  0  0
  -26.2275  -11.8353  145.4327 C   0  0  0  0  0  0  0  0  0  0  0  0
  -26.7573  -10.7371  144.8274 C   0  0  0  0  0  0  0  0  0  0  0  0
  -28.1586  -10.4394  144.7783 C   0  0  0  0  0  0  0  0  0  0  0  0
  -29.0132  -11.2204  145.6093 C   0  0  0  0  0  0  0  0  0  0  0  0
  -28.4689  -12.2657  146.3676 C   0  0  0  0  0  0  0  0  0  0  0  0
  1  2  2  0
  2  3  1  0
  3  4  1  0
  4  5  1  0
  5  6  1  0
  2  7  1  0
  6  7  1  0
  1  8  1  0
  7  9  1  0
  8  9  2  0
  5 10  1  0
 10 11  3  0
 11 12  1  0
 12 13  2  3
 13 14  1  0
 14 15  2  0
M  END

$$$$
No_262-/dssg/home/sw_qyf/PocketFlow/Model-Generation-Results/5HT2A_7WC7_rec_A_10.pdb/2024-01-01-03-54-21/
     RDKit          3D

 29 32  0  0  0  0  0  0  0  0999 V2000
  -24.1553  -17.8465  145.7021 C   0  0  0  0  0  0  0  0  0  0  0  0
  -24.6364  -17.2931  146.7091 C   0  0  0  0  0  0  0  0  0  0  0  0
  -24.0780  -17.2921  147.9389 C   0  0  0  0  0  0  0  0  0  0  0  0
  -22.7158  -17.6979  148.0096 C   0  0  0  0  0  0  0  0  0  0  0  0
  -22.1285  -18.1651  146.8427 C   0  0  0  0  0  0  0  0  0  0  0  0
  -22.8309  -18.1998  145.7035 C   0  0  0  0  0  0  0  0  0  0  0  0
  -26.1305  -16.8542  146.7059 C   0  0  0  0  0  0  0  0  0  0  0  0
  -26.7897  -16.0912  146.0193 C   0  0  0  0  0  0  0  0  0  0  0  0
  -28.1762  -15.7601  146.1468 C   0  0  0  0  0  0  0  0  0  0  0  0
  -28.5851  -16.1658  147.4507 C   0  0  0  0  0  0  0  0  0  0  0  0
  -28.0325  -16.9435  148.3211 C   0  0  0  0  0  0  0  0  0  0  0  0
  -26.6439  -17.2236  148.1080 C   0  0  0  0  0  0  0  0  0  0  0  0
  -26.3038  -15.7018  144.7645 O   0  0  0  0  0  0  0  0  0  0  0  0
  -25.2166  -14.8111  144.8570 C   0  0  0  0  0  0  0  0  0  0  0  0
  -25.2305  -13.8140  143.8754 C   0  0  0  0  0  0  0  0  0  0  0  0
  -26.2500  -13.5713  143.5126 O   0  0  0  0  0  0  0  0  0  0  0  0
  -27.0589  -13.4961  142.9116 C   0  0  0  0  0  0  0  0  0  0  0  0
  -27.6147  -12.1475  142.6844 C   0  0  0  0  0  0  0  0  0  0  0  0
  -28.1091  -11.6694  141.4607 C   0  0  0  0  0  0  0  0  0  0  0  0
  -28.6532  -10.3481  141.3950 C   0  0  0  0  0  0  0  0  0  0  0  0
  -29.1035   -9.7431  140.2065 C   0  0  0  0  0  0  0  0  0  0  0  0
  -28.1827   -9.9957  139.1117 C   0  0  0  0  0  0  0  0  0  0  0  0
  -27.3757  -11.1845  139.1886 C   0  0  0  0  0  0  0  0  0  0  0  0
  -27.2432  -11.9048  140.4111 C   0  0  0  0  0  0  0  0  0  0  0  0
  -29.6157   -9.8796  142.5259 C   0  0  0  0  0  0  0  0  0  0  0  0
  -29.0906   -9.8489  143.7639 C   0  0  0  0  0  0  0  0  0  0  0  0
  -28.3706  -10.8952  144.5688 C   0  0  0  0  0  0  0  0  0  0  0  0
  -27.6361  -11.8650  143.9731 C   0  0  0  0  0  0  0  0  0  0  0  0
  -30.7568  -10.6440  142.4589 F   0  0  0  0  0  0  0  0  0  0  0  0
  2  7  1  0
  8 13  1  0
 13 14  1  0
 14 15  1  0
 15 16  1  0
 16 17  1  0
 17 18  1  0
 20 25  1  0
 25 26  2  0
 26 27  1  0
 18 28  1  0
 27 28  2  0
 25 29  1  0
 18 19  1  0
  1  2  2  0
  2  3  1  0
  3  4  2  0
  4  5  1  0
  5  6  2  0
  6  1  1  0
 19 20  1  0
 20 21  2  0
 21 22  1  0
 22 23  2  0
 23 24  1  0
 24 19  2  0
  7  8  1  0
  8  9  2  0
  9 10  1  0
 10 11  2  0
 11 12  1  0
 12  7  2  0
M  END

$$$$
No_263-/dssg/home/sw_qyf/PocketFlow/Model-Generation-Results/5HT2A_7WC7_rec_A_10.pdb/2024-01-01-03-54-21/
     RDKit          3D

  9  9  0  0  0  0  0  0  0  0999 V2000
  -23.1746  -16.6014  144.8668 C   0  0  0  0  0  0  0  0  0  0  0  0
  -24.0189  -16.0564  145.8445 C   0  0  0  0  0  0  0  0  0  0  0  0
  -24.4850  -14.7380  145.6359 C   0  0  0  0  0  0  0  0  0  0  0  0
  -24.0244  -13.9858  144.5634 C   0  0  0  0  0  0  0  0  0  0  0  0
  -22.9814  -14.4736  143.8270 C   0  0  0  0  0  0  0  0  0  0  0  0
  -22.6517  -15.7450  143.9774 N   0  0  0  0  0  0  0  0  0  0  0  0
  -24.5684  -16.9417  146.8976 C   0  0  0  0  0  0  0  0  0  0  0  0
  -24.0171  -17.8834  147.3082 N   0  0  0  0  0  0  0  0  0  0  0  0
  -25.5613  -16.5092  147.6638 O   0  0  0  0  0  0  0  0  0  0  0  0
  2  7  1  0
  7  8  1  0
  7  9  2  0
  1  2  2  0
  2  3  1  0
  3  4  2  0
  4  5  1  0
  5  6  2  0
  6  1  1  0
M  END

$$$$
No_264-/dssg/home/sw_qyf/PocketFlow/Model-Generation-Results/5HT2A_7WC7_rec_A_10.pdb/2024-01-01-03-54-21/
     RDKit          3D

 35 38  0  0  0  0  0  0  0  0999 V2000
  -23.1746  -16.6014  144.8668 C   0  0  0  0  0  0  0  0  0  0  0  0
  -23.8963  -15.5346  144.7885 C   0  0  0  0  0  0  0  0  0  0  0  0
  -24.5755  -15.0383  145.9043 C   0  0  0  0  0  0  0  0  0  0  0  0
  -24.8345  -15.9108  146.9141 C   0  0  0  0  0  0  0  0  0  0  0  0
  -24.2398  -17.1433  146.9649 C   0  0  0  0  0  0  0  0  0  0  0  0
  -23.4221  -17.5266  145.9093 C   0  0  0  0  0  0  0  0  0  0  0  0
  -25.2380  -13.6642  145.8941 C   0  0  0  0  0  0  0  0  0  0  0  0
  -26.1661  -13.3597  146.2569 C   0  0  0  0  0  0  0  0  0  0  0  0
  -26.7055  -11.9177  146.2422 C   0  0  0  0  0  0  0  0  0  0  0  0
  -25.8460  -11.0158  145.6072 C   0  0  0  0  0  0  0  0  0  0  0  0
  -24.1746  -12.5745  145.5394 C   0  0  0  0  0  0  0  0  0  0  0  0
  -24.5898  -11.3082  145.3661 C   0  0  0  0  0  0  0  0  0  0  0  0
  -22.9428  -12.8885  145.1078 F   0  0  0  0  0  0  0  0  0  0  0  0
  -24.3343  -18.0032  148.1755 C   0  0  0  0  0  0  0  0  0  0  0  0
  -23.6438  -17.4299  149.3858 C   0  0  0  0  0  0  0  0  0  0  0  0
  -24.1937  -16.4808  150.2736 C   0  0  0  0  0  0  0  0  0  0  0  0
  -28.3489  -11.5893  146.6953 Cl  0  0  0  0  0  0  0  0  0  0  0  0
  -25.5563  -16.3572  150.0638 C   0  0  0  0  0  0  0  0  0  0  0  0
  -26.2341  -17.0046  148.9725 C   0  0  0  0  0  0  0  0  0  0  0  0
  -27.6186  -16.7826  149.0283 O   0  0  0  0  0  0  0  0  0  0  0  0
  -28.3700  -16.5574  147.9318 C   0  0  0  0  0  0  0  0  0  0  0  0
  -25.8378  -17.5273  148.0959 O   0  0  0  0  0  0  0  0  0  0  0  0
  -22.8656  -18.7141  145.9364 O   0  0  0  0  0  0  0  0  0  0  0  0
  -29.2767  -15.5103  147.9551 C   0  0  0  0  0  0  0  0  0  0  0  0
  -29.6525  -14.8426  149.1237 C   0  0  0  0  0  0  0  0  0  0  0  0
  -30.6344  -13.7643  149.0418 C   0  0  0  0  0  0  0  0  0  0  0  0
  -31.3653  -13.2494  150.1068 C   0  0  0  0  0  0  0  0  0  0  0  0
  -32.1471  -12.1151  149.9804 C   0  0  0  0  0  0  0  0  0  0  0  0
  -32.4474  -11.7448  148.6103 C   0  0  0  0  0  0  0  0  0  0  0  0
  -31.6549  -12.1766  147.6245 C   0  0  0  0  0  0  0  0  0  0  0  0
  -30.7495  -13.1661  147.8723 C   0  0  0  0  0  0  0  0  0  0  0  0
  -32.9738  -11.5906  151.1184 C   0  0  0  0  0  0  0  0  0  0  0  0
  -32.4306  -10.9511  151.7814 O   0  0  0  0  0  0  0  0  0  0  0  0
  -34.2165  -11.4062  150.8040 O   0  0  0  0  0  0  0  0  0  0  0  0
  -28.2751  -17.2772  146.9546 O   0  0  0  0  0  0  0  0  0  0  0  0
  3  7  1  0
 11 13  1  0
  5 14  1  0
 14 15  1  0
 15 16  2  0
  9 17  1  0
 16 18  1  0
 18 19  1  0
 19 20  1  0
 20 21  1  0
 14 22  1  0
 19 22  1  0
  6 23  1  0
 21 24  1  0
 24 25  2  3
 25 26  1  0
 28 32  1  0
 32 33  2  0
 32 34  1  0
 21 35  2  0
  7  8  2  0
  8  9  1  0
  9 10  2  0
 10 12  1  0
 12 11  2  0
 11  7  1  0
  1  2  2  0
  2  3  1  0
  3  4  2  0
  4  5  1  0
  5  6  2  0
  6  1  1  0
 26 27  2  0
 27 28  1  0
 28 29  2  0
 29 30  1  0
 30 31  2  0
 31 26  1  0
M  END

$$$$
No_265-/dssg/home/sw_qyf/PocketFlow/Model-Generation-Results/5HT2A_7WC7_rec_A_10.pdb/2024-01-01-03-54-21/
     RDKit          3D

 35 38  0  0  0  0  0  0  0  0999 V2000
  -24.1553  -17.8465  145.7021 C   0  0  0  0  0  0  0  0  0  0  0  0
  -24.6364  -17.2931  146.7091 C   0  0  0  0  0  0  0  0  0  0  0  0
  -25.8608  -16.5592  146.5934 C   0  0  0  0  0  0  0  0  0  0  0  0
  -25.9088  -15.1597  146.9911 C   0  0  0  0  0  0  0  0  0  0  0  0
  -25.5121  -14.2230  145.9989 C   0  0  0  0  0  0  0  0  0  0  0  0
  -25.3888  -12.9478  146.3771 C   0  0  0  0  0  0  0  0  0  0  0  0
  -24.3399  -12.1322  145.8302 C   0  0  0  0  0  0  0  0  0  0  0  0
  -23.3653  -12.7690  144.9387 C   0  0  0  0  0  0  0  0  0  0  0  0
  -23.5670  -14.0767  144.4885 C   0  0  0  0  0  0  0  0  0  0  0  0
  -24.4967  -14.8643  145.2536 C   0  0  0  0  0  0  0  0  0  0  0  0
  -23.8085  -17.3231  147.7481 C   0  0  0  0  0  0  0  0  0  0  0  0
  -24.2053  -16.8787  149.1355 C   0  0  0  0  0  0  0  0  0  0  0  0
  -23.4369  -17.1737  150.2771 C   0  0  0  0  0  0  0  0  0  0  0  0
  -24.2048  -17.5839  144.5747 O   0  0  0  0  0  0  0  0  0  0  0  0
  -23.9678  -19.2493  145.8889 N   0  0  0  0  0  0  0  0  0  0  0  0
  -23.8233  -16.8798  151.5512 C   0  0  0  0  0  0  0  0  0  0  0  0
  -22.3391  -12.0951  144.6430 F   0  0  0  0  0  0  0  0  0  0  0  0
  -27.0474  -17.2000  146.2885 C   0  0  0  0  0  0  0  0  0  0  0  0
  -28.3144  -16.7382  147.1709 C   0  0  0  0  0  0  0  0  0  0  0  0
  -28.2021  -16.8778  148.5120 C   0  0  0  0  0  0  0  0  0  0  0  0
  -29.2959  -16.4208  149.3129 C   0  0  0  0  0  0  0  0  0  0  0  0
  -30.1076  -15.2942  148.8746 C   0  0  0  0  0  0  0  0  0  0  0  0
  -30.8719  -14.4841  149.7048 C   0  0  0  0  0  0  0  0  0  0  0  0
  -31.4764  -13.3330  149.2314 C   0  0  0  0  0  0  0  0  0  0  0  0
  -32.3738  -12.5479  149.9634 C   0  0  0  0  0  0  0  0  0  0  0  0
  -32.8841  -11.3614  149.4025 C   0  0  0  0  0  0  0  0  0  0  0  0
  -32.5009  -11.0870  148.0911 C   0  0  0  0  0  0  0  0  0  0  0  0
  -31.4204  -11.7361  147.5406 C   0  0  0  0  0  0  0  0  0  0  0  0
  -30.8203  -12.8495  148.0674 C   0  0  0  0  0  0  0  0  0  0  0  0
  -29.6542  -14.7057  147.6437 C   0  0  0  0  0  0  0  0  0  0  0  0
  -30.1933  -13.4617  147.2941 C   0  0  0  0  0  0  0  0  0  0  0  0
  -28.6517  -15.3626  146.8719 N   0  0  0  0  0  0  0  0  0  0  0  0
  -34.1504  -10.4269  150.1593 Cl  0  0  0  0  0  0  0  0  0  0  0  0
  -25.3285  -16.6766  151.5381 C   0  0  0  0  0  0  0  0  0  0  0  0
  -26.0878  -16.7968  150.4335 C   0  0  0  0  0  0  0  0  0  0  0  0
  1  2  1  0
  2  3  1  0
  3  4  1  0
  4  5  1  0
  2 11  1  0
 11 12  1  0
 12 13  2  3
  1 14  2  0
  1 15  1  0
 13 16  1  0
  8 17  1  0
  3 18  1  0
 18 19  1  0
 26 33  1  0
 16 34  2  3
 34 35  1  0
 22 23  1  0
 23 24  2  0
 29 31  2  0
 31 30  1  0
 24 25  1  0
 25 26  2  0
 26 27  1  0
 27 28  2  0
 28 29  1  0
 29 24  1  0
  5  6  2  0
  6  7  1  0
  7  8  2  0
  8  9  1  0
  9 10  2  0
 10  5  1  0
 19 20  2  0
 20 21  1  0
 21 22  2  0
 22 30  1  0
 30 32  2  0
 32 19  1  0
M  END

$$$$
No_266-/dssg/home/sw_qyf/PocketFlow/Model-Generation-Results/5HT2A_7WC7_rec_A_10.pdb/2024-01-01-03-54-21/
     RDKit          3D

 23 24  0  0  0  0  0  0  0  0999 V2000
  -24.1553  -17.8465  145.7021 C   0  0  0  0  0  0  0  0  0  0  0  0
  -24.2856  -16.6364  145.3494 C   0  0  0  0  0  0  0  0  0  0  0  0
  -24.5733  -15.7651  145.9979 C   0  0  0  0  0  0  0  0  0  0  0  0
  -24.7088  -14.2765  145.5906 C   0  0  0  0  0  0  0  0  0  0  0  0
  -24.0081  -14.0223  144.3771 C   0  0  0  0  0  0  0  0  0  0  0  0
  -24.5461  -18.2167  147.0077 C   0  0  0  0  0  0  0  0  0  0  0  0
  -24.9798  -17.2136  147.8740 C   0  0  0  0  0  0  0  0  0  0  0  0
  -24.9934  -15.8410  147.4193 C   0  0  0  0  0  0  0  0  0  0  0  0
  -25.4095  -13.3163  146.3444 C   0  0  0  0  0  0  0  0  0  0  0  0
  -25.4126  -11.9738  145.9362 C   0  0  0  0  0  0  0  0  0  0  0  0
  -26.6935  -11.3715  145.7244 C   0  0  0  0  0  0  0  0  0  0  0  0
  -27.8490  -11.9661  145.9744 C   0  0  0  0  0  0  0  0  0  0  0  0
  -29.0743  -11.3599  145.8065 C   0  0  0  0  0  0  0  0  0  0  0  0
  -29.1964  -10.3711  144.7905 C   0  0  0  0  0  0  0  0  0  0  0  0
  -27.9613   -9.8081  144.3444 C   0  0  0  0  0  0  0  0  0  0  0  0
  -26.7363  -10.3008  144.7019 C   0  0  0  0  0  0  0  0  0  0  0  0
  -30.4762   -9.7867  144.4220 C   0  0  0  0  0  0  0  0  0  0  0  0
  -31.1145   -9.4640  145.3629 F   0  0  0  0  0  0  0  0  0  0  0  0
  -31.1769  -10.7168  143.7272 F   0  0  0  0  0  0  0  0  0  0  0  0
  -30.3847   -8.7648  143.6026 F   0  0  0  0  0  0  0  0  0  0  0  0
  -22.7595  -13.9700  144.3162 O   0  0  0  0  0  0  0  0  0  0  0  0
  -25.2664  -17.5008  149.3544 C   0  0  0  0  0  0  0  0  0  0  0  0
  -24.3479  -17.5160  150.2957 N   0  0  0  0  0  0  0  0  0  0  0  0
  3  4  1  0
  4  5  2  3
  4  9  1  0
  9 10  1  0
 10 11  1  0
 14 17  1  0
 17 18  1  0
 17 19  1  0
 17 20  1  0
  5 21  1  0
  7 22  1  0
 22 23  1  0
 11 12  2  0
 12 13  1  0
 13 14  2  0
 14 15  1  0
 15 16  2  0
 16 11  1  0
  1  2  2  0
  2  3  1  0
  3  8  2  0
  8  7  1  0
  7  6  2  0
  6  1  1  0
M  END

$$$$
No_267-/dssg/home/sw_qyf/PocketFlow/Model-Generation-Results/5HT2A_7WC7_rec_A_10.pdb/2024-01-01-03-54-21/
     RDKit          3D

 30 32  0  0  0  0  0  0  0  0999 V2000
  -24.1553  -17.8465  145.7021 C   0  0  0  0  0  0  0  0  0  0  0  0
  -23.9795  -18.4462  146.7426 C   0  0  0  0  0  0  0  0  0  0  0  0
  -24.2723  -16.4220  145.8037 C   0  0  0  0  0  0  0  0  0  0  0  0
  -24.4785  -15.8076  147.0396 C   0  0  0  0  0  0  0  0  0  0  0  0
  -24.0382  -17.9349  148.0735 C   0  0  0  0  0  0  0  0  0  0  0  0
  -24.2300  -16.5712  148.2530 C   0  0  0  0  0  0  0  0  0  0  0  0
  -24.4608  -15.5440  144.6463 C   0  0  0  0  0  0  0  0  0  0  0  0
  -24.6257  -14.1242  144.8494 C   0  0  0  0  0  0  0  0  0  0  0  0
  -23.8934  -13.1698  144.8169 C   0  0  0  0  0  0  0  0  0  0  0  0
  -24.1606  -11.7959  145.2036 C   0  0  0  0  0  0  0  0  0  0  0  0
  -25.4694  -11.5169  145.6771 C   0  0  0  0  0  0  0  0  0  0  0  0
  -26.3673  -12.5879  145.7719 C   0  0  0  0  0  0  0  0  0  0  0  0
  -25.9936  -13.8932  145.4369 C   0  0  0  0  0  0  0  0  0  0  0  0
  -27.7427  -12.2331  146.3578 C   0  0  0  0  0  0  0  0  0  0  0  0
  -27.8740  -12.4717  147.5544 F   0  0  0  0  0  0  0  0  0  0  0  0
  -28.0004  -10.8840  146.1102 F   0  0  0  0  0  0  0  0  0  0  0  0
  -28.6965  -12.8854  145.5995 F   0  0  0  0  0  0  0  0  0  0  0  0
  -22.2339  -13.3695  144.1942 Cl  0  0  0  0  0  0  0  0  0  0  0  0
  -24.1665  -15.8935  143.5343 O   0  0  0  0  0  0  0  0  0  0  0  0
  -23.8116  -19.8065  146.6617 O   0  0  0  0  0  0  0  0  0  0  0  0
  -23.7819  -20.2745  145.3386 C   0  0  0  0  0  0  0  0  0  0  0  0
  -24.3461  -16.0285  149.4895 O   0  0  0  0  0  0  0  0  0  0  0  0
  -24.3728  -17.0431  150.5569 C   0  0  0  0  0  0  0  0  0  0  0  0
  -24.5679  -18.3364  150.2641 C   0  0  0  0  0  0  0  0  0  0  0  0
  -24.2537  -18.7609  148.9562 C   0  0  0  0  0  0  0  0  0  0  0  0
  -24.5069  -16.4534  151.7367 O   0  0  0  0  0  0  0  0  0  0  0  0
  -25.7620  -10.2859  145.9866 O   0  0  0  0  0  0  0  0  0  0  0  0
  -26.8693   -9.7539  145.2632 C   0  0  0  0  0  0  0  0  0  0  0  0
  -27.1476  -10.1048  143.9175 C   0  0  0  0  0  0  0  0  0  0  0  0
  -27.0068   -8.6032  145.4726 F   0  0  0  0  0  0  0  0  0  0  0  0
  3  7  1  0
  7  8  1  0
 12 14  1  0
 14 15  1  0
 14 16  1  0
 14 17  1  0
  9 18  1  0
  7 19  2  0
  2 20  1  0
 20 21  1  0
  6 22  1  0
 22 23  1  0
 23 24  1  0
  5 25  1  0
 24 25  2  0
 23 26  1  0
 11 27  1  0
 27 28  1  0
 28 29  1  0
 28 30  1  0
  8  9  2  0
  9 10  1  0
 10 11  2  0
 11 12  1  0
 12 13  2  0
 13  8  1  0
  1  2  2  0
  2  5  1  0
  5  6  2  0
  6  4  1  0
  4  3  2  0
  3  1  1  0
M  END

$$$$
No_268-/dssg/home/sw_qyf/PocketFlow/Model-Generation-Results/5HT2A_7WC7_rec_A_10.pdb/2024-01-01-03-54-21/
     RDKit          3D

  9  9  0  0  0  0  0  0  0  0999 V2000
  -24.1553  -17.8465  145.7021 C   0  0  0  0  0  0  0  0  0  0  0  0
  -24.2855  -16.6364  145.3494 C   0  0  0  0  0  0  0  0  0  0  0  0
  -24.7838  -15.7223  145.8474 C   0  0  0  0  0  0  0  0  0  0  0  0
  -24.8736  -14.2869  145.3929 C   0  0  0  0  0  0  0  0  0  0  0  0
  -25.5953  -13.2445  145.9611 C   0  0  0  0  0  0  0  0  0  0  0  0
  -26.7743  -13.6783  146.7024 C   0  0  0  0  0  0  0  0  0  0  0  0
  -24.9212  -18.2158  146.8547 C   0  0  0  0  0  0  0  0  0  0  0  0
  -25.5603  -17.2550  147.6121 C   0  0  0  0  0  0  0  0  0  0  0  0
  -25.5731  -15.9101  147.1088 C   0  0  0  0  0  0  0  0  0  0  0  0
  3  4  1  0
  4  5  1  0
  5  6  1  0
  1  2  2  0
  2  3  1  0
  3  9  2  0
  9  8  1  0
  8  7  2  0
  7  1  1  0
M  END

$$$$
No_269-/dssg/home/sw_qyf/PocketFlow/Model-Generation-Results/5HT2A_7WC7_rec_A_10.pdb/2024-01-01-03-54-21/
     RDKit          3D

 34 36  0  0  0  0  0  0  0  0999 V2000
  -23.1746  -16.6014  144.8668 C   0  0  0  0  0  0  0  0  0  0  0  0
  -23.8963  -15.5346  144.7885 C   0  0  0  0  0  0  0  0  0  0  0  0
  -24.5755  -15.0383  145.9043 C   0  0  0  0  0  0  0  0  0  0  0  0
  -24.8345  -15.9108  146.9141 C   0  0  0  0  0  0  0  0  0  0  0  0
  -24.2398  -17.1433  146.9649 C   0  0  0  0  0  0  0  0  0  0  0  0
  -23.4221  -17.5266  145.9093 C   0  0  0  0  0  0  0  0  0  0  0  0
  -25.2409  -13.6652  145.8951 C   0  0  0  0  0  0  0  0  0  0  0  0
  -26.4406  -13.4011  146.1863 C   0  0  0  0  0  0  0  0  0  0  0  0
  -26.9712  -12.0534  146.1839 C   0  0  0  0  0  0  0  0  0  0  0  0
  -26.1152  -11.0480  145.7657 C   0  0  0  0  0  0  0  0  0  0  0  0
  -24.2834  -12.5852  145.6402 C   0  0  0  0  0  0  0  0  0  0  0  0
  -24.7655  -11.2777  145.5716 C   0  0  0  0  0  0  0  0  0  0  0  0
  -28.4402  -11.8594  146.3475 C   0  0  0  0  0  0  0  0  0  0  0  0
  -29.1487  -12.6270  147.3401 C   0  0  0  0  0  0  0  0  0  0  0  0
  -30.4906  -12.3240  147.6146 C   0  0  0  0  0  0  0  0  0  0  0  0
  -31.0665  -12.9778  148.6228 N   0  0  0  0  0  0  0  0  0  0  0  0
  -31.0454  -11.3564  147.0534 O   0  0  0  0  0  0  0  0  0  0  0  0
  -24.3426  -18.0180  148.0654 N   0  0  0  0  0  0  0  0  0  0  0  0
  -22.6483  -12.8435  145.2172 Cl  0  0  0  0  0  0  0  0  0  0  0  0
  -23.7640  -17.5946  149.2603 C   0  0  0  0  0  0  0  0  0  0  0  0
  -24.6012  -17.3670  150.4804 C   0  0  0  0  0  0  0  0  0  0  0  0
  -23.9191  -16.8653  151.6406 C   0  0  0  0  0  0  0  0  0  0  0  0
  -22.5125  -16.7002  151.5645 C   0  0  0  0  0  0  0  0  0  0  0  0
  -21.7985  -16.8331  150.3025 C   0  0  0  0  0  0  0  0  0  0  0  0
  -22.4847  -17.2432  149.2406 C   0  0  0  0  0  0  0  0  0  0  0  0
  -25.8177  -17.7463  150.5306 F   0  0  0  0  0  0  0  0  0  0  0  0
  -32.3176  -12.5847  149.2759 C   0  0  0  0  0  0  0  0  0  0  0  0
  -32.1467  -11.7191  150.4719 C   0  0  0  0  0  0  0  0  0  0  0  0
  -33.3041  -10.9282  150.8558 C   0  0  0  0  0  0  0  0  0  0  0  0
  -34.0355  -10.4354  150.0153 O   0  0  0  0  0  0  0  0  0  0  0  0
  -22.8637  -18.7381  145.9055 O   0  0  0  0  0  0  0  0  0  0  0  0
  -29.0667  -10.9848  145.4232 C   0  0  0  0  0  0  0  0  0  0  0  0
  -30.0324  -10.4481  145.4849 O   0  0  0  0  0  0  0  0  0  0  0  0
  -28.5735  -11.0988  144.1058 O   0  0  0  0  0  0  0  0  0  0  0  0
  3  7  1  0
  9 13  1  0
 13 14  2  3
 14 15  1  0
 15 16  1  0
 15 17  2  0
  5 18  1  0
 11 19  1  0
 18 20  1  0
 21 26  1  0
 16 27  1  0
 27 28  1  0
 28 29  1  0
 29 30  1  0
  6 31  1  0
 13 32  1  0
 32 33  1  0
 32 34  2  0
  7  8  2  0
  8  9  1  0
  9 10  2  0
 10 12  1  0
 12 11  2  0
 11  7  1  0
  1  2  2  0
  2  3  1  0
  3  4  2  0
  4  5  1  0
  5  6  2  0
  6  1  1  0
 20 21  2  0
 21 22  1  0
 22 23  2  0
 23 24  1  0
 24 25  2  0
 25 20  1  0
M  END

$$$$
No_270-/dssg/home/sw_qyf/PocketFlow/Model-Generation-Results/5HT2A_7WC7_rec_A_10.pdb/2024-01-01-03-54-21/
     RDKit          3D

 10 10  0  0  0  0  0  0  0  0999 V2000
  -23.1746  -16.6014  144.8668 C   0  0  0  0  0  0  0  0  0  0  0  0
  -23.8963  -15.5346  144.7885 C   0  0  0  0  0  0  0  0  0  0  0  0
  -24.5755  -15.0383  145.9043 C   0  0  0  0  0  0  0  0  0  0  0  0
  -25.0618  -13.6819  146.0347 C   0  0  0  0  0  0  0  0  0  0  0  0
  -23.4234  -17.5426  145.8975 C   0  0  0  0  0  0  0  0  0  0  0  0
  -24.0804  -17.1685  147.0476 C   0  0  0  0  0  0  0  0  0  0  0  0
  -24.6332  -15.8976  147.1094 C   0  0  0  0  0  0  0  0  0  0  0  0
  -24.3512  -12.6652  145.5125 C   0  0  0  0  0  0  0  0  0  0  0  0
  -24.8562  -11.3404  145.4400 C   0  0  0  0  0  0  0  0  0  0  0  0
  -24.9799  -10.6744  144.5066 C   0  0  0  0  0  0  0  0  0  0  0  0
  1  2  1  0
  2  3  1  0
  3  4  2  3
  1  5  1  0
  5  6  1  0
  3  7  1  0
  6  7  1  0
  4  8  1  0
  8  9  2  3
  9 10  1  0
M  END

$$$$
No_271-/dssg/home/sw_qyf/PocketFlow/Model-Generation-Results/5HT2A_7WC7_rec_A_10.pdb/2024-01-01-03-54-21/
     RDKit          3D

  8  7  0  0  0  0  0  0  0  0999 V2000
  -23.8042  -18.1535  145.4053 O   0  0  0  0  0  0  0  0  0  0  0  0
  -24.3135  -17.1214  145.8338 C   0  0  0  0  0  0  0  0  0  0  0  0
  -24.8156  -17.0337  147.1279 C   0  0  0  0  0  0  0  0  0  0  0  0
  -24.0874  -17.6154  148.0941 C   0  0  0  0  0  0  0  0  0  0  0  0
  -23.2930  -18.5309  147.6500 F   0  0  0  0  0  0  0  0  0  0  0  0
  -23.2919  -16.5950  148.8849 O   0  0  0  0  0  0  0  0  0  0  0  0
  -24.4180  -15.8748  144.9756 C   0  0  0  0  0  0  0  0  0  0  0  0
  -23.3540  -15.3609  144.3045 C   0  0  0  0  0  0  0  0  0  0  0  0
  1  2  1  0
  2  3  1  0
  3  4  1  0
  4  5  1  0
  4  6  1  0
  2  7  1  0
  7  8  2  0
M  END

$$$$
No_272-/dssg/home/sw_qyf/PocketFlow/Model-Generation-Results/5HT2A_7WC7_rec_A_10.pdb/2024-01-01-03-54-21/
     RDKit          3D

 33 36  0  0  0  0  0  0  0  0999 V2000
  -24.1553  -17.8465  145.7021 C   0  0  0  0  0  0  0  0  0  0  0  0
  -24.6364  -17.2931  146.7091 C   0  0  0  0  0  0  0  0  0  0  0  0
  -24.0780  -17.2921  147.9389 C   0  0  0  0  0  0  0  0  0  0  0  0
  -24.6761  -16.7363  149.1478 C   0  0  0  0  0  0  0  0  0  0  0  0
  -25.9985  -16.2638  148.9932 C   0  0  0  0  0  0  0  0  0  0  0  0
  -26.6270  -16.3412  147.7728 C   0  0  0  0  0  0  0  0  0  0  0  0
  -25.9734  -16.9165  146.6819 C   0  0  0  0  0  0  0  0  0  0  0  0
  -23.8394  -16.9427  144.6493 N   0  0  0  0  0  0  0  0  0  0  0  0
  -23.7980  -19.0410  145.4510 O   0  0  0  0  0  0  0  0  0  0  0  0
  -28.0563  -15.9006  147.7420 C   0  0  0  0  0  0  0  0  0  0  0  0
  -28.4138  -14.7858  146.9983 C   0  0  0  0  0  0  0  0  0  0  0  0
  -29.7686  -14.2649  147.1947 C   0  0  0  0  0  0  0  0  0  0  0  0
  -30.1498  -13.0645  146.5487 C   0  0  0  0  0  0  0  0  0  0  0  0
  -29.0973  -12.2886  145.9512 C   0  0  0  0  0  0  0  0  0  0  0  0
  -27.7740  -12.7403  145.8862 C   0  0  0  0  0  0  0  0  0  0  0  0
  -27.4457  -13.9688  146.5316 C   0  0  0  0  0  0  0  0  0  0  0  0
  -29.3672  -10.9653  145.2183 C   0  0  0  0  0  0  0  0  0  0  0  0
  -30.5366  -10.2159  145.4805 C   0  0  0  0  0  0  0  0  0  0  0  0
  -28.5592  -10.5711  144.1501 C   0  0  0  0  0  0  0  0  0  0  0  0
  -28.7827  -10.3042  143.1235 C   0  0  0  0  0  0  0  0  0  0  0  0
  -27.9830  -10.1365  141.9498 C   0  0  0  0  0  0  0  0  0  0  0  0
  -28.5162   -9.7766  140.6858 C   0  0  0  0  0  0  0  0  0  0  0  0
  -27.8768   -9.9304  139.4846 C   0  0  0  0  0  0  0  0  0  0  0  0
  -30.8484   -9.2517  144.4940 C   0  0  0  0  0  0  0  0  0  0  0  0
  -30.0019   -9.1710  143.3129 C   0  0  0  0  0  0  0  0  0  0  0  0
  -28.3384   -9.3633  138.3217 C   0  0  0  0  0  0  0  0  0  0  0  0
  -28.7223   -8.0666  138.3032 C   0  0  0  0  0  0  0  0  0  0  0  0
  -29.3671   -7.5849  139.5945 C   0  0  0  0  0  0  0  0  0  0  0  0
  -29.0024   -8.3342  140.8012 C   0  0  0  0  0  0  0  0  0  0  0  0
  -27.2960  -11.2514  139.3799 N   0  0  0  0  0  0  0  0  0  0  0  0
  -26.2078  -11.6727  139.8944 C   0  0  0  0  0  0  0  0  0  0  0  0
  -27.9712  -12.1552  138.4556 C   0  0  0  0  0  0  0  0  0  0  0  0
  -25.7175  -12.9293  139.2356 C   0  0  0  0  0  0  0  0  0  0  0  0
  1  2  1  0
  1  8  1  0
  1  9  2  0
  6 10  1  0
 14 17  1  0
 20 21  1  0
 23 30  1  0
 30 31  1  0
 30 32  1  0
 31 33  1  0
 21 22  1  0
 10 11  1  0
 11 12  2  0
 12 13  1  0
 13 14  2  0
 14 15  1  0
 15 16  2  0
 16 11  1  0
  2  3  2  0
  3  4  1  0
  4  5  2  0
  5  6  1  0
  6  7  2  0
  7  2  1  0
 17 18  2  0
 18 24  1  0
 24 25  2  0
 25 20  1  0
 20 19  2  0
 19 17  1  0
 22 23  2  0
 23 26  1  0
 26 27  2  0
 27 28  1  0
 28 29  2  0
 29 22  1  0
M  END

$$$$
No_273-/dssg/home/sw_qyf/PocketFlow/Model-Generation-Results/5HT2A_7WC7_rec_A_10.pdb/2024-01-01-03-54-21/
     RDKit          3D

  9  8  0  0  0  0  0  0  0  0999 V2000
  -24.1553  -17.8465  145.7021 C   0  0  0  0  0  0  0  0  0  0  0  0
  -24.2856  -16.6364  145.3494 C   0  0  0  0  0  0  0  0  0  0  0  0
  -24.7211  -15.5955  146.2115 C   0  0  0  0  0  0  0  0  0  0  0  0
  -25.1322  -16.0374  147.5372 C   0  0  0  0  0  0  0  0  0  0  0  0
  -24.5163  -18.2968  146.9928 C   0  0  0  0  0  0  0  0  0  0  0  0
  -24.9534  -17.3074  147.9886 C   0  0  0  0  0  0  0  0  0  0  0  0
  -25.2607  -17.5812  149.2152 F   0  0  0  0  0  0  0  0  0  0  0  0
  -23.6381  -17.1765  148.5796 F   0  0  0  0  0  0  0  0  0  0  0  0
  -24.6986  -19.5282  147.1606 F   0  0  0  0  0  0  0  0  0  0  0  0
  1  2  2  3
  2  3  1  0
  3  4  1  0
  1  5  1  0
  4  6  1  0
  6  7  1  0
  6  8  1  0
  5  9  1  0
M  END

$$$$
No_274-/dssg/home/sw_qyf/PocketFlow/Model-Generation-Results/5HT2A_7WC7_rec_A_10.pdb/2024-01-01-03-54-21/
     RDKit          3D

 35 39  0  0  0  0  0  0  0  0999 V2000
  -24.1553  -17.8465  145.7021 C   0  0  0  0  0  0  0  0  0  0  0  0
  -23.9795  -18.4462  146.7426 C   0  0  0  0  0  0  0  0  0  0  0  0
  -25.1593  -16.8262  145.6925 C   0  0  0  0  0  0  0  0  0  0  0  0
  -26.3426  -16.9003  146.3448 C   0  0  0  0  0  0  0  0  0  0  0  0
  -24.9078  -18.3640  147.8289 C   0  0  0  0  0  0  0  0  0  0  0  0
  -26.0312  -17.5122  147.7122 C   0  0  0  0  0  0  0  0  0  0  0  0
  -27.4996  -16.1150  146.1993 C   0  0  0  0  0  0  0  0  0  0  0  0
  -27.2984  -14.8027  146.7383 C   0  0  0  0  0  0  0  0  0  0  0  0
  -28.3155  -13.8329  146.6947 C   0  0  0  0  0  0  0  0  0  0  0  0
  -29.6049  -14.0887  147.1532 C   0  0  0  0  0  0  0  0  0  0  0  0
  -30.3429  -13.1595  147.6677 C   0  0  0  0  0  0  0  0  0  0  0  0
  -29.9614  -11.7341  147.4612 C   0  0  0  0  0  0  0  0  0  0  0  0
  -28.7531  -11.4604  146.8676 C   0  0  0  0  0  0  0  0  0  0  0  0
  -27.8856  -12.5202  146.5424 C   0  0  0  0  0  0  0  0  0  0  0  0
  -26.6397  -12.2025  146.1372 N   0  0  0  0  0  0  0  0  0  0  0  0
  -25.5034  -12.7963  146.2269 C   0  0  0  0  0  0  0  0  0  0  0  0
  -25.3431  -13.8508  146.3345 C   0  0  0  0  0  0  0  0  0  0  0  0
  -26.0170  -14.4038  146.7515 C   0  0  0  0  0  0  0  0  0  0  0  0
  -24.7486  -11.7380  145.8749 N   0  0  0  0  0  0  0  0  0  0  0  0
  -23.3298  -17.7667  144.6568 O   0  0  0  0  0  0  0  0  0  0  0  0
  -23.4728  -12.1329  145.4089 C   0  0  0  0  0  0  0  0  0  0  0  0
  -23.8362  -14.1245  146.2641 C   0  0  0  0  0  0  0  0  0  0  0  0
  -23.0168  -13.3027  145.6449 N   0  0  0  0  0  0  0  0  0  0  0  0
  -28.5523  -16.6759  145.9157 O   0  0  0  0  0  0  0  0  0  0  0  0
  -31.6081  -13.3580  148.1589 O   0  0  0  0  0  0  0  0  0  0  0  0
  -31.5756  -13.5362  149.6185 C   0  0  0  0  0  0  0  0  0  0  0  0
  -32.5924  -12.9708  150.3464 C   0  0  0  0  0  0  0  0  0  0  0  0
  -32.7055  -13.0728  151.7134 C   0  0  0  0  0  0  0  0  0  0  0  0
  -32.1223  -14.2827  152.2199 C   0  0  0  0  0  0  0  0  0  0  0  0
  -31.2848  -15.0735  151.3806 C   0  0  0  0  0  0  0  0  0  0  0  0
  -31.0050  -14.7234  150.1176 C   0  0  0  0  0  0  0  0  0  0  0  0
  -33.3238  -11.7212  149.7801 C   0  0  0  0  0  0  0  0  0  0  0  0
  -33.0104  -10.8960  149.1964 O   0  0  0  0  0  0  0  0  0  0  0  0
  -34.7412  -11.9070  149.8974 O   0  0  0  0  0  0  0  0  0  0  0  0
  -30.5903  -16.2779  151.9641 C   0  0  0  0  0  0  0  0  0  0  0  0
  4  7  1  0
  7  8  1  0
 14 15  1  0
 15 16  1  0
  8 18  1  0
 17 18  1  0
  1 20  1  0
  7 24  2  0
 11 25  1  0
 25 26  1  0
 27 32  1  0
 32 33  2  0
 32 34  1  0
 30 35  1  0
  8  9  1  0
  9 10  2  0
 10 11  1  0
 11 12  2  0
 12 13  1  0
 13 14  2  0
 14  9  1  0
 16 17  2  0
 17 22  1  0
 22 23  2  0
 23 21  1  0
 21 19  2  0
 19 16  1  0
  1  2  2  0
  2  5  1  0
  5  6  2  0
  6  4  1  0
  4  3  2  0
  3  1  1  0
 26 27  2  0
 27 28  1  0
 28 29  2  0
 29 30  1  0
 30 31  2  0
 31 26  1  0
M  END

$$$$
No_275-/dssg/home/sw_qyf/PocketFlow/Model-Generation-Results/5HT2A_7WC7_rec_A_10.pdb/2024-01-01-03-54-21/
     RDKit          3D

 12 12  0  0  0  0  0  0  0  0999 V2000
  -23.1746  -16.6014  144.8668 C   0  0  0  0  0  0  0  0  0  0  0  0
  -23.7011  -17.0158  145.9774 C   0  0  0  0  0  0  0  0  0  0  0  0
  -23.7336  -18.2775  146.3737 C   0  0  0  0  0  0  0  0  0  0  0  0
  -24.1960  -18.6445  147.6858 C   0  0  0  0  0  0  0  0  0  0  0  0
  -24.7100  -17.6145  148.5486 C   0  0  0  0  0  0  0  0  0  0  0  0
  -24.7929  -16.2635  148.0870 C   0  0  0  0  0  0  0  0  0  0  0  0
  -24.2508  -15.9434  146.8891 C   0  0  0  0  0  0  0  0  0  0  0  0
  -23.2318  -17.4027  143.9635 F   0  0  0  0  0  0  0  0  0  0  0  0
  -23.8845  -15.3616  144.4424 F   0  0  0  0  0  0  0  0  0  0  0  0
  -25.2047  -17.9654  149.6933 F   0  0  0  0  0  0  0  0  0  0  0  0
  -23.2819  -19.2457  145.6888 O   0  0  0  0  0  0  0  0  0  0  0  0
  -24.2623  -14.6647  146.5445 O   0  0  0  0  0  0  0  0  0  0  0  0
  1  2  1  0
  1  8  1  0
  1  9  1  0
  5 10  1  0
  3 11  1  0
  7 12  1  0
  2  3  2  0
  3  4  1  0
  4  5  2  0
  5  6  1  0
  6  7  2  0
  7  2  1  0
M  END

$$$$
No_276-/dssg/home/sw_qyf/PocketFlow/Model-Generation-Results/5HT2A_7WC7_rec_A_10.pdb/2024-01-01-03-54-21/
     RDKit          3D

 35 39  0  0  0  0  0  0  0  0999 V2000
  -24.1553  -17.8465  145.7021 C   0  0  0  0  0  0  0  0  0  0  0  0
  -24.2855  -16.6364  145.3494 C   0  0  0  0  0  0  0  0  0  0  0  0
  -23.7824  -15.9603  144.3553 C   0  0  0  0  0  0  0  0  0  0  0  0
  -23.9871  -14.5276  144.1537 C   0  0  0  0  0  0  0  0  0  0  0  0
  -24.7875  -13.8357  145.1352 C   0  0  0  0  0  0  0  0  0  0  0  0
  -24.9984  -12.3993  145.0247 C   0  0  0  0  0  0  0  0  0  0  0  0
  -24.1044  -11.7027  144.8233 C   0  0  0  0  0  0  0  0  0  0  0  0
  -24.5788  -18.3943  146.8805 C   0  0  0  0  0  0  0  0  0  0  0  0
  -25.2780  -17.5397  147.7849 C   0  0  0  0  0  0  0  0  0  0  0  0
  -25.4334  -16.1842  147.5247 C   0  0  0  0  0  0  0  0  0  0  0  0
  -24.8533  -15.5999  146.4028 C   0  0  0  0  0  0  0  0  0  0  0  0
  -25.1144  -14.2985  146.2170 C   0  0  0  0  0  0  0  0  0  0  0  0
  -26.3596  -11.9084  144.9170 C   0  0  0  0  0  0  0  0  0  0  0  0
  -27.2012  -12.2921  145.9626 C   0  0  0  0  0  0  0  0  0  0  0  0
  -28.5650  -11.9157  145.8814 C   0  0  0  0  0  0  0  0  0  0  0  0
  -29.6510  -12.2536  146.8178 C   0  0  0  0  0  0  0  0  0  0  0  0
  -29.3015  -13.1241  147.8044 C   0  0  0  0  0  0  0  0  0  0  0  0
  -29.0215  -14.2452  147.4880 C   0  0  0  0  0  0  0  0  0  0  0  0
  -29.3337  -15.0578  146.6091 C   0  0  0  0  0  0  0  0  0  0  0  0
  -28.6354  -16.1429  146.4440 C   0  0  0  0  0  0  0  0  0  0  0  0
  -28.8218  -11.3329  144.5723 C   0  0  0  0  0  0  0  0  0  0  0  0
  -28.0020  -11.0506  143.6036 C   0  0  0  0  0  0  0  0  0  0  0  0
  -26.6744  -11.4193  143.7985 C   0  0  0  0  0  0  0  0  0  0  0  0
  -28.5064  -10.3495  142.4309 C   0  0  0  0  0  0  0  0  0  0  0  0
  -29.7039   -9.5851  142.5270 C   0  0  0  0  0  0  0  0  0  0  0  0
  -30.8841  -10.0319  143.0242 C   0  0  0  0  0  0  0  0  0  0  0  0
  -32.0035   -9.1896  143.0540 C   0  0  0  0  0  0  0  0  0  0  0  0
  -31.5964   -7.7935  142.9543 N   0  0  0  0  0  0  0  0  0  0  0  0
  -29.6703   -8.0972  142.2936 C   0  0  0  0  0  0  0  0  0  0  0  0
  -30.6574   -7.2555  142.5512 C   0  0  0  0  0  0  0  0  0  0  0  0
  -27.9665  -16.5918  147.6252 C   0  0  0  0  0  0  0  0  0  0  0  0
  -28.1289  -16.0197  148.8156 C   0  0  0  0  0  0  0  0  0  0  0  0
  -28.4579  -14.9193  148.8028 C   0  0  0  0  0  0  0  0  0  0  0  0
  -30.7312  -11.6145  146.7178 O   0  0  0  0  0  0  0  0  0  0  0  0
  -28.4586  -11.1488  141.1686 C   0  0  0  0  0  0  0  0  0  0  0  0
  5  6  1  0
  6  7  2  0
  6 13  1  0
 16 17  1  0
 17 18  1  0
 22 24  1  0
 24 25  1  0
 16 34  1  0
 24 35  1  0
 16 15  1  0
  1  2  2  0
 11 10  2  0
 10  9  1  0
  9  8  2  0
  8  1  1  0
 25 26  2  0
 26 27  1  0
 27 28  2  0
 28 30  1  0
 30 29  2  0
 29 25  1  0
 18 19  2  0
 19 20  1  0
 20 31  2  0
 31 32  1  0
 32 33  2  0
 33 18  1  0
  2  3  1  0
  3  4  2  0
  4  5  1  0
  5 12  2  0
 12 11  1  0
 11  2  1  0
 13 14  2  0
 14 15  1  0
 15 21  2  0
 21 22  1  0
 22 23  2  0
 23 13  1  0
M  END

$$$$
No_277-/dssg/home/sw_qyf/PocketFlow/Model-Generation-Results/5HT2A_7WC7_rec_A_10.pdb/2024-01-01-03-54-21/
     RDKit          3D

 34 34  0  0  0  0  0  0  0  0999 V2000
  -24.1553  -17.8465  145.7021 C   0  0  0  0  0  0  0  0  0  0  0  0
  -24.6364  -17.2931  146.7091 C   0  0  0  0  0  0  0  0  0  0  0  0
  -24.0780  -17.2921  147.9389 C   0  0  0  0  0  0  0  0  0  0  0  0
  -24.6869  -16.7003  149.1440 C   0  0  0  0  0  0  0  0  0  0  0  0
  -26.0385  -16.2385  148.9552 C   0  0  0  0  0  0  0  0  0  0  0  0
  -26.6430  -16.2999  147.7413 C   0  0  0  0  0  0  0  0  0  0  0  0
  -27.9940  -15.9043  147.4947 C   0  0  0  0  0  0  0  0  0  0  0  0
  -26.0067  -16.8798  146.6574 C   0  0  0  0  0  0  0  0  0  0  0  0
  -28.3899  -14.5166  147.5469 C   0  0  0  0  0  0  0  0  0  0  0  0
  -29.7343  -14.0714  147.5697 C   0  0  0  0  0  0  0  0  0  0  0  0
  -23.8063  -16.8715  144.5491 C   0  0  0  0  0  0  0  0  0  0  0  0
  -30.0567  -12.7601  147.8800 C   0  0  0  0  0  0  0  0  0  0  0  0
  -31.3370  -12.2410  148.0202 C   0  0  0  0  0  0  0  0  0  0  0  0
  -22.9781  -16.1395  144.3382 C   0  0  0  0  0  0  0  0  0  0  0  0
  -23.0185  -14.7003  143.8021 C   0  0  0  0  0  0  0  0  0  0  0  0
  -23.2524  -13.6625  144.9147 C   0  0  0  0  0  0  0  0  0  0  0  0
  -24.5789  -13.5378  145.4829 C   0  0  0  0  0  0  0  0  0  0  0  0
  -24.7288  -12.6126  146.5549 C   0  0  0  0  0  0  0  0  0  0  0  0
  -32.0452  -12.8821  149.1496 C   0  0  0  0  0  0  0  0  0  0  0  0
  -31.1877  -13.4312  150.0697 C   0  0  0  0  0  0  0  0  0  0  0  0
  -33.3947  -12.5481  149.3611 C   0  0  0  0  0  0  0  0  0  0  0  0
  -25.6366  -11.5875  146.2873 C   0  0  0  0  0  0  0  0  0  0  0  0
  -26.3342  -11.6492  145.0479 C   0  0  0  0  0  0  0  0  0  0  0  0
  -27.1306  -10.5913  144.5567 C   0  0  0  0  0  0  0  0  0  0  0  0
  -28.4039  -10.7331  144.1367 C   0  0  0  0  0  0  0  0  0  0  0  0
  -29.4534  -10.2346  144.6548 C   0  0  0  0  0  0  0  0  0  0  0  0
  -29.8007  -10.3355  146.1550 Cl  0  0  0  0  0  0  0  0  0  0  0  0
  -30.1746   -9.1729  143.9359 C   0  0  0  0  0  0  0  0  0  0  0  0
  -29.9249   -8.5740  142.8771 C   0  0  0  0  0  0  0  0  0  0  0  0
  -30.8436   -7.5773  142.2966 C   0  0  0  0  0  0  0  0  0  0  0  0
  -32.0228   -7.4115  142.7654 F   0  0  0  0  0  0  0  0  0  0  0  0
  -30.2846   -6.2744  142.3529 F   0  0  0  0  0  0  0  0  0  0  0  0
  -30.9470   -7.6518  140.9332 F   0  0  0  0  0  0  0  0  0  0  0  0
  -25.0557  -14.7972  145.9268 F   0  0  0  0  0  0  0  0  0  0  0  0
  1  2  1  0
  6  7  1  0
  7  9  2  3
  9 10  1  0
  1 11  1  0
 10 12  1  0
 12 13  1  0
 11 14  2  3
 14 15  1  0
 15 16  1  0
 16 17  2  3
 17 18  1  0
 13 19  1  0
 19 20  1  0
 19 21  1  0
 18 22  1  0
 22 23  1  0
 23 24  1  0
 24 25  2  3
 25 26  1  0
 26 27  1  0
 26 28  1  0
 28 29  2  3
 29 30  1  0
 30 31  1  0
 30 32  1  0
 30 33  1  0
 17 34  1  0
  2  3  2  0
  3  4  1  0
  4  5  2  0
  5  6  1  0
  6  8  2  0
  8  2  1  0
M  END

$$$$
No_278-/dssg/home/sw_qyf/PocketFlow/Model-Generation-Results/5HT2A_7WC7_rec_A_10.pdb/2024-01-01-03-54-21/
     RDKit          3D

 35 38  0  0  0  0  0  0  0  0999 V2000
  -23.8931  -18.2534  145.3804 F   0  0  0  0  0  0  0  0  0  0  0  0
  -24.3394  -17.2619  146.1054 C   0  0  0  0  0  0  0  0  0  0  0  0
  -24.5544  -17.4430  147.4759 C   0  0  0  0  0  0  0  0  0  0  0  0
  -24.8528  -16.0479  145.4031 C   0  0  0  0  0  0  0  0  0  0  0  0
  -24.4215  -15.6675  144.1972 C   0  0  0  0  0  0  0  0  0  0  0  0
  -24.9453  -14.3647  143.7468 C   0  0  0  0  0  0  0  0  0  0  0  0
  -25.1724  -16.4191  148.2521 C   0  0  0  0  0  0  0  0  0  0  0  0
  -26.1239  -13.9213  144.3816 C   0  0  0  0  0  0  0  0  0  0  0  0
  -26.6076  -14.4424  145.5748 C   0  0  0  0  0  0  0  0  0  0  0  0
  -25.9400  -15.5234  146.1637 C   0  0  0  0  0  0  0  0  0  0  0  0
  -25.9627  -15.4405  147.6304 C   0  0  0  0  0  0  0  0  0  0  0  0
  -26.7892  -12.7847  143.6875 C   0  0  0  0  0  0  0  0  0  0  0  0
  -26.9776  -12.6047  142.3125 C   0  0  0  0  0  0  0  0  0  0  0  0
  -26.8242  -13.6903  141.4286 C   0  0  0  0  0  0  0  0  0  0  0  0
  -27.0760  -13.3635  140.1084 C   0  0  0  0  0  0  0  0  0  0  0  0
  -27.3699  -12.0229  139.8106 C   0  0  0  0  0  0  0  0  0  0  0  0
  -27.6258  -11.0367  140.6737 C   0  0  0  0  0  0  0  0  0  0  0  0
  -27.4364  -11.3614  142.0529 C   0  0  0  0  0  0  0  0  0  0  0  0
  -28.0845   -9.7000  140.2199 C   0  0  0  0  0  0  0  0  0  0  0  0
  -28.0008   -9.1737  138.9606 C   0  0  0  0  0  0  0  0  0  0  0  0
  -28.5276   -7.9085  138.6674 C   0  0  0  0  0  0  0  0  0  0  0  0
  -29.3312   -7.2496  139.7003 C   0  0  0  0  0  0  0  0  0  0  0  0
  -29.4731   -7.7967  140.9847 C   0  0  0  0  0  0  0  0  0  0  0  0
  -28.9298   -9.0306  141.2924 C   0  0  0  0  0  0  0  0  0  0  0  0
  -30.2604   -7.1008  142.0246 C   0  0  0  0  0  0  0  0  0  0  0  0
  -31.1367   -7.8638  142.8800 C   0  0  0  0  0  0  0  0  0  0  0  0
  -31.4786   -9.1873  142.5581 C   0  0  0  0  0  0  0  0  0  0  0  0
  -31.3683   -9.9617  143.5665 O   0  0  0  0  0  0  0  0  0  0  0  0
  -27.5134  -11.8365  138.4623 F   0  0  0  0  0  0  0  0  0  0  0  0
  -28.0736  -13.8948  146.2381 Cl  0  0  0  0  0  0  0  0  0  0  0  0
  -29.9656  -10.1133  144.0573 C   0  0  0  0  0  0  0  0  0  0  0  0
  -29.4903   -9.3129  145.1320 C   0  0  0  0  0  0  0  0  0  0  0  0
  -28.0991   -9.7329  145.4465 C   0  0  0  0  0  0  0  0  0  0  0  0
  -32.9867   -9.1303  142.3502 O   0  0  0  0  0  0  0  0  0  0  0  0
  -25.3119  -16.6259  149.6533 O   0  0  0  0  0  0  0  0  0  0  0  0
  1  2  1  0
  8 12  1  0
 17 19  1  0
 23 25  1  0
 25 26  1  0
 26 27  1  0
 27 28  1  0
 16 29  1  0
  9 30  1  0
 28 31  1  0
 31 32  1  0
 32 33  2  0
 27 34  1  0
  7 35  1  0
 12 13  1  0
 13 14  2  0
 14 15  1  0
 15 16  2  0
 16 17  1  0
 17 18  2  0
 18 13  1  0
  4  5  2  0
  5  6  1  0
  6  8  2  0
  8  9  1  0
  9 10  2  0
 19 20  2  0
 20 21  1  0
 21 22  2  0
 22 23  1  0
 23 24  2  0
 24 19  1  0
  2  3  2  0
  3  7  1  0
  7 11  2  0
 11 10  1  0
 10  4  1  0
  4  2  1  0
M  END

$$$$
No_279-/dssg/home/sw_qyf/PocketFlow/Model-Generation-Results/5HT2A_7WC7_rec_A_10.pdb/2024-01-01-03-54-21/
     RDKit          3D

 34 36  0  0  0  0  0  0  0  0999 V2000
  -23.1746  -16.6014  144.8668 C   0  0  0  0  0  0  0  0  0  0  0  0
  -24.0189  -16.0564  145.8445 C   0  0  0  0  0  0  0  0  0  0  0  0
  -24.4850  -14.7380  145.6359 C   0  0  0  0  0  0  0  0  0  0  0  0
  -24.0208  -14.0081  144.6269 C   0  0  0  0  0  0  0  0  0  0  0  0
  -22.8250  -13.0320  145.0098 Cl  0  0  0  0  0  0  0  0  0  0  0  0
  -24.4183  -16.8636  146.9918 C   0  0  0  0  0  0  0  0  0  0  0  0
  -25.2983  -16.3708  147.9062 C   0  0  0  0  0  0  0  0  0  0  0  0
  -26.0484  -15.1763  147.6517 C   0  0  0  0  0  0  0  0  0  0  0  0
  -25.5223  -14.3153  146.6303 C   0  0  0  0  0  0  0  0  0  0  0  0
  -23.9347  -18.1358  147.1667 N   0  0  0  0  0  0  0  0  0  0  0  0
  -26.0542  -12.9245  146.5066 C   0  0  0  0  0  0  0  0  0  0  0  0
  -27.4012  -12.6727  146.2991 C   0  0  0  0  0  0  0  0  0  0  0  0
  -28.3740  -13.4016  146.7924 C   0  0  0  0  0  0  0  0  0  0  0  0
  -29.6838  -12.9171  146.8917 C   0  0  0  0  0  0  0  0  0  0  0  0
  -29.9335  -11.6368  146.2719 C   0  0  0  0  0  0  0  0  0  0  0  0
  -28.9164  -10.8600  145.7035 C   0  0  0  0  0  0  0  0  0  0  0  0
  -27.6275  -11.3851  145.7561 C   0  0  0  0  0  0  0  0  0  0  0  0
  -30.7543  -13.7278  147.4443 C   0  0  0  0  0  0  0  0  0  0  0  0
  -23.4054  -18.9364  146.1466 C   0  0  0  0  0  0  0  0  0  0  0  0
  -23.0826  -20.0700  146.4635 O   0  0  0  0  0  0  0  0  0  0  0  0
  -23.1536  -18.2274  144.9383 C   0  0  0  0  0  0  0  0  0  0  0  0
  -24.6105  -14.0152  143.5022 O   0  0  0  0  0  0  0  0  0  0  0  0
  -30.5050  -13.8006  148.9792 C   0  0  0  0  0  0  0  0  0  0  0  0
  -26.5328  -10.6061  145.1579 C   0  0  0  0  0  0  0  0  0  0  0  0
  -25.3390  -10.7880  145.4828 O   0  0  0  0  0  0  0  0  0  0  0  0
  -26.8871   -9.8078  144.1541 N   0  0  0  0  0  0  0  0  0  0  0  0
  -25.7673  -17.2028  149.0832 C   0  0  0  0  0  0  0  0  0  0  0  0
  -26.9571  -17.5042  149.2854 O   0  0  0  0  0  0  0  0  0  0  0  0
  -24.7455  -17.7465  149.8924 O   0  0  0  0  0  0  0  0  0  0  0  0
  -31.4702  -13.0619  149.7425 C   0  0  0  0  0  0  0  0  0  0  0  0
  -31.6024  -11.7026  149.6147 C   0  0  0  0  0  0  0  0  0  0  0  0
  -32.5676  -10.9710  150.3271 C   0  0  0  0  0  0  0  0  0  0  0  0
  -33.2823  -11.7528  151.3134 C   0  0  0  0  0  0  0  0  0  0  0  0
  -33.0729  -13.0809  151.5467 C   0  0  0  0  0  0  0  0  0  0  0  0
  1  2  1  0
  3  4  1  0
  4  5  1  0
  6 10  1  0
  9 11  1  0
 11 12  1  0
 14 18  1  0
 10 19  1  0
 19 20  2  0
  1 21  1  0
 19 21  1  0
  4 22  2  0
 18 23  1  0
 17 24  1  0
 24 25  2  0
 24 26  1  0
  7 27  1  0
 27 28  2  0
 27 29  1  0
 23 30  3  0
 30 31  1  0
 31 32  2  3
 32 33  1  0
 33 34  2  0
 12 13  2  0
 13 14  1  0
 14 15  2  0
 15 16  1  0
 16 17  2  0
 17 12  1  0
  2  3  2  0
  3  9  1  0
  9  8  2  0
  8  7  1  0
  7  6  2  0
  6  2  1  0
M  END

$$$$
No_280-/dssg/home/sw_qyf/PocketFlow/Model-Generation-Results/5HT2A_7WC7_rec_A_10.pdb/2024-01-01-03-54-21/
     RDKit          3D

 21 22  0  0  0  0  0  0  0  0999 V2000
  -23.1746  -16.6014  144.8668 C   0  0  0  0  0  0  0  0  0  0  0  0
  -23.7011  -17.0158  145.9774 C   0  0  0  0  0  0  0  0  0  0  0  0
  -24.2593  -16.1244  146.9100 C   0  0  0  0  0  0  0  0  0  0  0  0
  -24.5135  -14.7390  146.5020 C   0  0  0  0  0  0  0  0  0  0  0  0
  -24.0813  -14.3812  145.2164 C   0  0  0  0  0  0  0  0  0  0  0  0
  -23.3915  -15.2667  144.4690 C   0  0  0  0  0  0  0  0  0  0  0  0
  -24.2317  -12.9148  144.8870 C   0  0  0  0  0  0  0  0  0  0  0  0
  -23.9530  -11.9408  145.7017 C   0  0  0  0  0  0  0  0  0  0  0  0
  -23.5614  -18.4611  146.4530 C   0  0  0  0  0  0  0  0  0  0  0  0
  -24.2531  -18.8885  147.3764 O   0  0  0  0  0  0  0  0  0  0  0  0
  -22.7083  -19.1911  145.9798 O   0  0  0  0  0  0  0  0  0  0  0  0
  -23.7634  -12.3095  147.1089 C   0  0  0  0  0  0  0  0  0  0  0  0
  -24.2481  -13.7172  147.5328 C   0  0  0  0  0  0  0  0  0  0  0  0
  -24.6054  -12.7678  143.6260 O   0  0  0  0  0  0  0  0  0  0  0  0
  -25.8974  -13.5115  143.4284 C   0  0  0  0  0  0  0  0  0  0  0  0
  -26.8829  -13.2555  144.5084 C   0  0  0  0  0  0  0  0  0  0  0  0
  -27.5723  -11.9852  144.4984 C   0  0  0  0  0  0  0  0  0  0  0  0
  -27.3130  -10.8942  143.6867 C   0  0  0  0  0  0  0  0  0  0  0  0
  -28.1719   -9.7589  143.7518 C   0  0  0  0  0  0  0  0  0  0  0  0
  -29.4699   -9.9431  144.4918 C   0  0  0  0  0  0  0  0  0  0  0  0
  -29.6239  -11.0129  145.4063 C   0  0  0  0  0  0  0  0  0  0  0  0
  2  9  1  0
  9 10  1  0
  9 11  2  0
  7 14  1  0
 14 15  1  0
 15 16  1  0
 16 17  2  3
 17 18  1  0
 18 19  2  3
 19 20  1  0
 20 21  2  0
  1  2  2  0
  2  3  1  0
  3  4  2  0
  5  6  2  0
  6  1  1  0
  4  5  1  0
  5  7  1  0
  7  8  2  0
  8 12  1  0
 12 13  2  0
 13  4  1  0
M  END

$$$$
No_281-/dssg/home/sw_qyf/PocketFlow/Model-Generation-Results/5HT2A_7WC7_rec_A_10.pdb/2024-01-01-03-54-21/
     RDKit          3D

 35 37  0  0  0  0  0  0  0  0999 V2000
  -24.1553  -17.8465  145.7021 C   0  0  0  0  0  0  0  0  0  0  0  0
  -23.9795  -18.4462  146.7426 C   0  0  0  0  0  0  0  0  0  0  0  0
  -24.3577  -16.4380  145.7329 C   0  0  0  0  0  0  0  0  0  0  0  0
  -24.4745  -15.6012  144.5587 C   0  0  0  0  0  0  0  0  0  0  0  0
  -24.5845  -14.1656  144.8311 C   0  0  0  0  0  0  0  0  0  0  0  0
  -24.6908  -13.6330  146.1427 C   0  0  0  0  0  0  0  0  0  0  0  0
  -24.6854  -14.5896  147.2980 C   0  0  0  0  0  0  0  0  0  0  0  0
  -24.5188  -15.8933  147.1052 C   0  0  0  0  0  0  0  0  0  0  0  0
  -24.0589  -18.0012  148.0781 C   0  0  0  0  0  0  0  0  0  0  0  0
  -24.3315  -16.7118  148.2982 C   0  0  0  0  0  0  0  0  0  0  0  0
  -24.8468  -12.2031  146.3121 C   0  0  0  0  0  0  0  0  0  0  0  0
  -25.9929  -11.6269  145.5966 C   0  0  0  0  0  0  0  0  0  0  0  0
  -27.2737  -11.9478  145.9729 C   0  0  0  0  0  0  0  0  0  0  0  0
  -28.3652  -11.3603  145.3704 C   0  0  0  0  0  0  0  0  0  0  0  0
  -29.7474  -11.5738  145.6649 C   0  0  0  0  0  0  0  0  0  0  0  0
  -29.7086  -12.1301  147.0143 C   0  0  0  0  0  0  0  0  0  0  0  0
  -29.8252  -13.2700  147.2055 C   0  0  0  0  0  0  0  0  0  0  0  0
  -30.4428  -13.8595  148.4402 C   0  0  0  0  0  0  0  0  0  0  0  0
  -28.0649  -10.6709  144.0803 C   0  0  0  0  0  0  0  0  0  0  0  0
  -28.6436   -9.5291  143.8583 C   0  0  0  0  0  0  0  0  0  0  0  0
  -29.0239   -9.1024  142.4823 C   0  0  0  0  0  0  0  0  0  0  0  0
  -29.8468   -8.0103  142.2265 C   0  0  0  0  0  0  0  0  0  0  0  0
  -30.6155   -7.5381  143.1393 C   0  0  0  0  0  0  0  0  0  0  0  0
  -29.7358   -7.4738  140.8683 C   0  0  0  0  0  0  0  0  0  0  0  0
  -30.3280   -8.4208  139.8166 C   0  0  0  0  0  0  0  0  0  0  0  0
  -24.5254  -13.3851  143.8308 O   0  0  0  0  0  0  0  0  0  0  0  0
  -30.1420  -15.1675  148.8552 C   0  0  0  0  0  0  0  0  0  0  0  0
  -29.2014  -15.9147  148.0044 C   0  0  0  0  0  0  0  0  0  0  0  0
  -28.5783  -15.4001  146.9058 C   0  0  0  0  0  0  0  0  0  0  0  0
  -28.8170  -14.0424  146.5568 C   0  0  0  0  0  0  0  0  0  0  0  0
  -27.6601  -16.2089  146.1577 C   0  0  0  0  0  0  0  0  0  0  0  0
  -31.2987  -13.1310  149.1788 N   0  0  0  0  0  0  0  0  0  0  0  0
  -31.8222  -12.0072  149.1225 C   0  0  0  0  0  0  0  0  0  0  0  0
  -32.8835  -11.7055  150.0486 C   0  0  0  0  0  0  0  0  0  0  0  0
  -32.7067  -12.6891  151.1050 C   0  0  0  0  0  0  0  0  0  0  0  0
  3  4  1  0
  4  5  1  0
  5  6  1  0
  6  7  1  0
  7  8  1  0
  6 11  1  0
 11 12  1  0
 12 13  1  0
 13 14  2  3
 14 15  1  0
 15 16  1  0
 14 19  1  0
 19 20  2  3
 20 21  1  0
 21 22  2  3
 22 23  1  0
 22 24  1  0
 24 25  1  0
  5 26  2  0
 29 31  1  0
 18 32  1  0
 32 33  1  0
 33 34  2  3
 34 35  1  0
 16 17  1  0
  1  2  2  0
  2  9  1  0
  9 10  2  0
 10  8  1  0
  8  3  2  0
  3  1  1  0
 17 18  2  0
 18 27  1  0
 27 28  2  0
 28 29  1  0
 29 30  2  0
 30 17  1  0
M  END

$$$$
No_282-/dssg/home/sw_qyf/PocketFlow/Model-Generation-Results/5HT2A_7WC7_rec_A_10.pdb/2024-01-01-03-54-21/
     RDKit          3D

  6  6  0  0  0  0  0  0  0  0999 V2000
  -23.1746  -16.6014  144.8668 C   0  0  0  0  0  0  0  0  0  0  0  0
  -23.7011  -17.0158  145.9774 C   0  0  0  0  0  0  0  0  0  0  0  0
  -24.7096  -16.6222  146.3577 C   0  0  0  0  0  0  0  0  0  0  0  0
  -25.4819  -15.5594  145.8226 C   0  0  0  0  0  0  0  0  0  0  0  0
  -24.9841  -15.0030  144.6879 C   0  0  0  0  0  0  0  0  0  0  0  0
  -23.7823  -15.5257  144.1978 C   0  0  0  0  0  0  0  0  0  0  0  0
  1  2  2  0
  2  3  1  0
  3  4  2  0
  4  5  1  0
  5  6  2  0
  6  1  1  0
M  END

$$$$
No_283-/dssg/home/sw_qyf/PocketFlow/Model-Generation-Results/5HT2A_7WC7_rec_A_10.pdb/2024-01-01-03-54-21/
     RDKit          3D

 22 23  0  0  0  0  0  0  0  0999 V2000
  -24.1553  -17.8465  145.7021 C   0  0  0  0  0  0  0  0  0  0  0  0
  -24.2856  -16.6364  145.3494 C   0  0  0  0  0  0  0  0  0  0  0  0
  -25.0033  -15.6772  146.0737 C   0  0  0  0  0  0  0  0  0  0  0  0
  -25.1197  -14.2835  145.7299 C   0  0  0  0  0  0  0  0  0  0  0  0
  -25.8358  -13.3153  146.4318 C   0  0  0  0  0  0  0  0  0  0  0  0
  -24.7888  -18.3277  146.8665 C   0  0  0  0  0  0  0  0  0  0  0  0
  -25.5122  -17.4898  147.6544 C   0  0  0  0  0  0  0  0  0  0  0  0
  -25.6629  -16.1113  147.2980 C   0  0  0  0  0  0  0  0  0  0  0  0
  -25.7423  -11.9664  146.1289 C   0  0  0  0  0  0  0  0  0  0  0  0
  -24.9343  -11.5107  145.0792 C   0  0  0  0  0  0  0  0  0  0  0  0
  -24.2381  -13.7675  144.6412 C   0  0  0  0  0  0  0  0  0  0  0  0
  -23.5360  -14.6491  144.0809 F   0  0  0  0  0  0  0  0  0  0  0  0
  -24.1826  -12.3829  144.4696 C   0  0  0  0  0  0  0  0  0  0  0  0
  -26.5798  -11.0679  146.8142 O   0  0  0  0  0  0  0  0  0  0  0  0
  -23.5550  -18.7795  144.9049 O   0  0  0  0  0  0  0  0  0  0  0  0
  -27.7742  -10.9115  146.3291 C   0  0  0  0  0  0  0  0  0  0  0  0
  -28.4001  -11.6744  145.9804 C   0  0  0  0  0  0  0  0  0  0  0  0
  -29.8981  -11.4541  145.6412 C   0  0  0  0  0  0  0  0  0  0  0  0
  -30.7446  -12.1989  146.0786 F   0  0  0  0  0  0  0  0  0  0  0  0
  -30.1471  -10.1534  146.2577 F   0  0  0  0  0  0  0  0  0  0  0  0
  -30.0855  -11.1091  144.4066 F   0  0  0  0  0  0  0  0  0  0  0  0
  -28.6632  -12.8738  146.9364 F   0  0  0  0  0  0  0  0  0  0  0  0
  3  4  1  0
 11 12  1  0
  9 14  1  0
  1 15  1  0
 14 16  1  0
 16 17  2  3
 17 18  1  0
 18 19  1  0
 18 20  1  0
 18 21  1  0
 17 22  1  0
  4  5  2  0
  5  9  1  0
  9 10  2  0
 10 13  1  0
 13 11  2  0
 11  4  1  0
  1  2  2  0
  2  3  1  0
  3  8  2  0
  8  7  1  0
  7  6  2  0
  6  1  1  0
M  END

$$$$
No_284-/dssg/home/sw_qyf/PocketFlow/Model-Generation-Results/5HT2A_7WC7_rec_A_10.pdb/2024-01-01-03-54-21/
     RDKit          3D

 19 19  0  0  0  0  0  0  0  0999 V2000
  -23.1746  -16.6014  144.8668 C   0  0  0  0  0  0  0  0  0  0  0  0
  -24.0189  -16.0564  145.8445 C   0  0  0  0  0  0  0  0  0  0  0  0
  -24.4145  -16.8299  146.9062 C   0  0  0  0  0  0  0  0  0  0  0  0
  -25.2730  -16.2838  147.9150 C   0  0  0  0  0  0  0  0  0  0  0  0
  -26.0161  -15.1622  147.5289 C   0  0  0  0  0  0  0  0  0  0  0  0
  -24.6387  -14.7196  145.5888 C   0  0  0  0  0  0  0  0  0  0  0  0
  -25.2696  -14.2495  146.4528 C   0  0  0  0  0  0  0  0  0  0  0  0
  -24.1143  -13.9075  144.5468 C   0  0  0  0  0  0  0  0  0  0  0  0
  -22.9810  -13.7547  144.3352 O   0  0  0  0  0  0  0  0  0  0  0  0
  -23.9144  -18.1899  147.1152 C   0  0  0  0  0  0  0  0  0  0  0  0
  -23.2168  -18.5148  148.0956 O   0  0  0  0  0  0  0  0  0  0  0  0
  -24.3927  -19.1179  146.3340 O   0  0  0  0  0  0  0  0  0  0  0  0
  -25.0221  -13.4504  143.7888 F   0  0  0  0  0  0  0  0  0  0  0  0
  -25.7326  -17.0047  149.1010 C   0  0  0  0  0  0  0  0  0  0  0  0
  -26.9633  -17.3803  149.2706 O   0  0  0  0  0  0  0  0  0  0  0  0
  -24.9366  -16.8942  150.2118 O   0  0  0  0  0  0  0  0  0  0  0  0
  -22.9312  -15.9962  143.8935 O   0  0  0  0  0  0  0  0  0  0  0  0
  -22.2621  -12.6175  144.1376 C   0  0  0  0  0  0  0  0  0  0  0  0
  -25.8987  -13.0011  146.4377 O   0  0  0  0  0  0  0  0  0  0  0  0
  1  2  1  0
  2  3  1  0
  3  4  1  0
  2  6  1  0
  5  7  1  0
  6  7  1  0
  6  8  1  0
  8  9  1  0
  3 10  1  0
 10 11  2  0
 10 12  1  0
  8 13  1  0
  4 14  1  0
 14 15  2  0
 14 16  1  0
  1 17  1  0
  9 18  1  0
  7 19  2  0
  5  4  1  0
M  END

$$$$
No_285-/dssg/home/sw_qyf/PocketFlow/Model-Generation-Results/5HT2A_7WC7_rec_A_10.pdb/2024-01-01-03-54-21/
     RDKit          3D

 22 23  0  0  0  0  0  0  0  0999 V2000
  -24.1553  -17.8465  145.7021 C   0  0  0  0  0  0  0  0  0  0  0  0
  -23.9795  -18.4462  146.7426 C   0  0  0  0  0  0  0  0  0  0  0  0
  -25.1196  -16.8105  145.6408 C   0  0  0  0  0  0  0  0  0  0  0  0
  -25.9237  -16.5070  146.7422 C   0  0  0  0  0  0  0  0  0  0  0  0
  -25.6173  -17.2153  147.9099 C   0  0  0  0  0  0  0  0  0  0  0  0
  -24.6179  -18.1473  147.9619 C   0  0  0  0  0  0  0  0  0  0  0  0
  -26.9749  -15.4806  146.6971 C   0  0  0  0  0  0  0  0  0  0  0  0
  -26.6882  -14.3548  147.2231 C   0  0  0  0  0  0  0  0  0  0  0  0
  -27.5312  -13.2037  147.1125 C   0  0  0  0  0  0  0  0  0  0  0  0
  -28.9233  -13.3423  147.1046 C   0  0  0  0  0  0  0  0  0  0  0  0
  -29.2851  -14.7264  146.8090 C   0  0  0  0  0  0  0  0  0  0  0  0
  -28.3674  -15.7752  146.6009 C   0  0  0  0  0  0  0  0  0  0  0  0
  -29.8486  -12.2818  147.2020 C   0  0  0  0  0  0  0  0  0  0  0  0
  -29.7193  -11.2542  146.4575 O   0  0  0  0  0  0  0  0  0  0  0  0
  -30.5323  -12.1290  148.3453 O   0  0  0  0  0  0  0  0  0  0  0  0
  -31.6836  -12.8753  148.5755 C   0  0  0  0  0  0  0  0  0  0  0  0
  -32.2433  -12.6077  149.9997 C   0  0  0  0  0  0  0  0  0  0  0  0
  -32.9932  -11.4364  150.0681 C   0  0  0  0  0  0  0  0  0  0  0  0
  -33.0162  -10.9690  151.2898 O   0  0  0  0  0  0  0  0  0  0  0  0
  -25.3316  -16.1510  144.5164 F   0  0  0  0  0  0  0  0  0  0  0  0
  -33.6428  -10.9592  149.1938 O   0  0  0  0  0  0  0  0  0  0  0  0
  -23.5120  -18.0669  144.5276 O   0  0  0  0  0  0  0  0  0  0  0  0
  4  7  1  0
 10 13  1  0
 13 14  2  0
 13 15  1  0
 15 16  1  0
 16 17  1  0
 17 18  1  0
 18 19  1  0
  3 20  1  0
 18 21  2  0
  1 22  1  0
  1  2  2  0
  2  6  1  0
  6  5  2  0
  5  4  1  0
  4  3  2  0
  3  1  1  0
  7  8  2  0
  8  9  1  0
  9 10  2  0
 10 11  1  0
 11 12  2  0
 12  7  1  0
M  END

$$$$
No_286-/dssg/home/sw_qyf/PocketFlow/Model-Generation-Results/5HT2A_7WC7_rec_A_10.pdb/2024-01-01-03-54-21/
     RDKit          3D

 31 32  0  0  0  0  0  0  0  0999 V2000
  -24.1553  -17.8465  145.7021 C   0  0  0  0  0  0  0  0  0  0  0  0
  -24.2856  -16.6364  145.3494 C   0  0  0  0  0  0  0  0  0  0  0  0
  -25.0033  -15.6772  146.0737 C   0  0  0  0  0  0  0  0  0  0  0  0
  -25.6964  -16.1810  147.2049 C   0  0  0  0  0  0  0  0  0  0  0  0
  -24.8143  -18.3454  146.8324 C   0  0  0  0  0  0  0  0  0  0  0  0
  -25.5292  -17.4614  147.6373 C   0  0  0  0  0  0  0  0  0  0  0  0
  -23.5869  -16.0353  144.1321 C   0  0  0  0  0  0  0  0  0  0  0  0
  -22.4594  -16.2146  144.0995 O   0  0  0  0  0  0  0  0  0  0  0  0
  -24.3001  -15.2712  143.4374 O   0  0  0  0  0  0  0  0  0  0  0  0
  -25.1516  -14.2279  145.8071 C   0  0  0  0  0  0  0  0  0  0  0  0
  -25.5470  -13.4187  146.7391 C   0  0  0  0  0  0  0  0  0  0  0  0
  -25.5823  -11.9944  146.5172 C   0  0  0  0  0  0  0  0  0  0  0  0
  -26.4583  -11.2161  146.3853 C   0  0  0  0  0  0  0  0  0  0  0  0
  -27.7843  -11.6278  146.0067 C   0  0  0  0  0  0  0  0  0  0  0  0
  -28.5597  -12.1753  146.9694 C   0  0  0  0  0  0  0  0  0  0  0  0
  -29.9757  -12.4403  146.7545 C   0  0  0  0  0  0  0  0  0  0  0  0
  -30.5568  -11.9344  147.7354 C   0  0  0  0  0  0  0  0  0  0  0  0
  -31.7245  -11.6346  147.8560 O   0  0  0  0  0  0  0  0  0  0  0  0
  -30.0238  -12.4209  148.9283 O   0  0  0  0  0  0  0  0  0  0  0  0
  -28.3132  -11.2705  144.7810 C   0  0  0  0  0  0  0  0  0  0  0  0
  -27.5188  -11.4591  143.6150 C   0  0  0  0  0  0  0  0  0  0  0  0
  -28.0777  -11.1280  142.3569 C   0  0  0  0  0  0  0  0  0  0  0  0
  -28.3990  -10.1114  142.0413 C   0  0  0  0  0  0  0  0  0  0  0  0
  -28.9491   -9.7188  140.7606 C   0  0  0  0  0  0  0  0  0  0  0  0
  -29.4568   -8.3859  140.5478 C   0  0  0  0  0  0  0  0  0  0  0  0
  -29.6779   -7.5354  141.6643 C   0  0  0  0  0  0  0  0  0  0  0  0
  -29.3474   -8.0153  142.9808 C   0  0  0  0  0  0  0  0  0  0  0  0
  -28.7675   -9.1631  143.2153 C   0  0  0  0  0  0  0  0  0  0  0  0
  -29.5470   -8.0101  139.3179 N   0  0  0  0  0  0  0  0  0  0  0  0
  -28.7367   -8.3172  138.3788 C   0  0  0  0  0  0  0  0  0  0  0  0
  -29.0773   -8.8954  137.1405 C   0  0  0  0  0  0  0  0  0  0  0  0
  2  7  1  0
  7  8  2  0
  7  9  1  0
  3 10  1  0
 10 11  2  3
 11 12  1  0
 12 13  2  3
 13 14  1  0
 14 15  2  3
 15 16  1  0
 16 17  1  0
 17 18  1  0
 17 19  1  0
 14 20  1  0
 20 21  1  0
 21 22  2  3
 22 23  1  0
 25 29  1  0
 29 30  1  0
 30 31  1  0
 23 24  2  0
 24 25  1  0
 25 26  2  0
 26 27  1  0
 27 28  2  0
 28 23  1  0
  1  2  2  0
  2  3  1  0
  3  4  2  0
  4  6  1  0
  6  5  2  0
  5  1  1  0
M  END

$$$$
No_287-/dssg/home/sw_qyf/PocketFlow/Model-Generation-Results/5HT2A_7WC7_rec_A_10.pdb/2024-01-01-03-54-21/
     RDKit          3D

 19 21  0  0  0  0  0  0  0  0999 V2000
  -23.1746  -16.6014  144.8668 C   0  0  0  0  0  0  0  0  0  0  0  0
  -23.8963  -15.5346  144.7885 C   0  0  0  0  0  0  0  0  0  0  0  0
  -23.4976  -14.2961  145.1226 C   0  0  0  0  0  0  0  0  0  0  0  0
  -23.9189  -13.0599  144.7480 C   0  0  0  0  0  0  0  0  0  0  0  0
  -22.9866  -12.0510  145.4019 C   0  0  0  0  0  0  0  0  0  0  0  0
  -23.6302  -17.7206  145.4141 C   0  0  0  0  0  0  0  0  0  0  0  0
  -24.7685  -17.6527  146.3627 C   0  0  0  0  0  0  0  0  0  0  0  0
  -25.6780  -16.6244  146.2887 C   0  0  0  0  0  0  0  0  0  0  0  0
  -25.5727  -15.7629  145.6736 C   0  0  0  0  0  0  0  0  0  0  0  0
  -27.0092  -16.9059  147.0362 C   0  0  0  0  0  0  0  0  0  0  0  0
  -27.7999  -15.6637  147.3675 C   0  0  0  0  0  0  0  0  0  0  0  0
  -27.2889  -14.4321  147.0748 C   0  0  0  0  0  0  0  0  0  0  0  0
  -26.0996  -14.3669  146.0794 C   0  0  0  0  0  0  0  0  0  0  0  0
  -28.9849  -15.7334  148.2057 C   0  0  0  0  0  0  0  0  0  0  0  0
  -29.2778  -16.7474  149.0554 C   0  0  0  0  0  0  0  0  0  0  0  0
  -29.9561  -14.6689  148.1118 C   0  0  0  0  0  0  0  0  0  0  0  0
  -30.6542  -14.1558  149.2313 C   0  0  0  0  0  0  0  0  0  0  0  0
  -30.9773  -15.2286  150.1662 C   0  0  0  0  0  0  0  0  0  0  0  0
  -30.1628  -16.3799  150.2136 C   0  0  0  0  0  0  0  0  0  0  0  0
  2  3  1  0
  3  4  1  0
  4  5  1  0
 11 14  1  0
  1  2  2  0
  2  9  1  0
  8  7  1  0
  7  6  2  0
  6  1  1  0
  8  9  2  0
  9 13  1  0
 13 12  2  0
 12 11  1  0
 11 10  2  0
 10  8  1  0
 14 15  2  0
 15 19  1  0
 19 18  2  0
 18 17  1  0
 17 16  2  0
 16 14  1  0
M  END

$$$$
No_288-/dssg/home/sw_qyf/PocketFlow/Model-Generation-Results/5HT2A_7WC7_rec_A_10.pdb/2024-01-01-03-54-21/
     RDKit          3D

 35 37  0  0  0  0  0  0  0  0999 V2000
  -23.1746  -16.6014  144.8668 C   0  0  0  0  0  0  0  0  0  0  0  0
  -23.7011  -17.0158  145.9774 C   0  0  0  0  0  0  0  0  0  0  0  0
  -24.2134  -16.0722  146.8877 C   0  0  0  0  0  0  0  0  0  0  0  0
  -25.2064  -15.3422  146.4171 C   0  0  0  0  0  0  0  0  0  0  0  0
  -25.4255  -14.3488  146.5050 C   0  0  0  0  0  0  0  0  0  0  0  0
  -26.4240  -13.5726  145.8025 C   0  0  0  0  0  0  0  0  0  0  0  0
  -26.9174  -12.2741  146.1306 C   0  0  0  0  0  0  0  0  0  0  0  0
  -28.0392  -11.7372  145.5019 C   0  0  0  0  0  0  0  0  0  0  0  0
  -28.0545  -11.1009  144.2302 C   0  0  0  0  0  0  0  0  0  0  0  0
  -27.1546  -11.3531  143.3015 C   0  0  0  0  0  0  0  0  0  0  0  0
  -29.2668  -10.2790  143.7998 C   0  0  0  0  0  0  0  0  0  0  0  0
  -29.1375   -9.2019  143.2355 C   0  0  0  0  0  0  0  0  0  0  0  0
  -30.1061   -8.5279  142.4977 C   0  0  0  0  0  0  0  0  0  0  0  0
  -29.8229   -7.5060  141.5492 C   0  0  0  0  0  0  0  0  0  0  0  0
  -23.9903  -15.6637  144.1197 C   0  0  0  0  0  0  0  0  0  0  0  0
  -24.8291  -14.8442  145.0961 C   0  0  0  0  0  0  0  0  0  0  0  0
  -25.2000  -13.5893  144.8468 N   0  0  0  0  0  0  0  0  0  0  0  0
  -29.3290  -11.9626  146.2214 C   0  0  0  0  0  0  0  0  0  0  0  0
  -30.1419  -10.9556  146.4315 O   0  0  0  0  0  0  0  0  0  0  0  0
  -29.8167  -13.2073  146.4549 N   0  0  0  0  0  0  0  0  0  0  0  0
  -29.6935   -7.7087  140.2280 C   0  0  0  0  0  0  0  0  0  0  0  0
  -28.3968   -7.5706  139.5943 C   0  0  0  0  0  0  0  0  0  0  0  0
  -28.3485   -8.1987  138.3393 C   0  0  0  0  0  0  0  0  0  0  0  0
  -23.6266  -18.4993  146.3617 C   0  0  0  0  0  0  0  0  0  0  0  0
  -24.4499  -19.0701  146.6250 O   0  0  0  0  0  0  0  0  0  0  0  0
  -22.3835  -18.9623  146.4453 O   0  0  0  0  0  0  0  0  0  0  0  0
  -31.4895   -8.8774  142.5567 C   0  0  0  0  0  0  0  0  0  0  0  0
  -32.0279   -9.9311  142.0373 O   0  0  0  0  0  0  0  0  0  0  0  0
  -29.0041   -7.8011  137.1894 C   0  0  0  0  0  0  0  0  0  0  0  0
  -28.9182   -8.7649  136.1158 C   0  0  0  0  0  0  0  0  0  0  0  0
  -29.8428   -9.9317  136.2712 C   0  0  0  0  0  0  0  0  0  0  0  0
  -29.2024  -10.9511  135.3232 C   0  0  0  0  0  0  0  0  0  0  0  0
  -32.3090   -8.0857  143.2101 O   0  0  0  0  0  0  0  0  0  0  0  0
  -29.0214  -14.3556  146.4037 C   0  0  0  0  0  0  0  0  0  0  0  0
  -27.6425  -14.1953  146.1380 C   0  0  0  0  0  0  0  0  0  0  0  0
  1  2  1  0
  2  3  1  0
  3  4  1  0
  4  5  2  0
  5  6  1  0
  6  7  1  0
  7  8  1  0
  8  9  1  0
  9 10  2  0
  9 11  1  0
 11 12  1  0
 12 13  1  0
 13 14  2  3
  1 15  1  0
  4 16  1  0
 15 16  1  0
  6 17  1  0
 16 17  1  0
  8 18  1  0
 18 19  1  0
 18 20  1  0
 14 21  1  0
 21 22  2  3
 22 23  1  0
  2 24  1  0
 24 25  2  0
 24 26  1  0
 13 27  1  0
 27 28  1  0
 23 29  2  3
 29 30  1  0
 30 31  1  0
 31 32  1  0
 27 33  2  0
 20 34  1  0
  6 35  1  0
 34 35  1  0
M  END

$$$$
No_289-/dssg/home/sw_qyf/PocketFlow/Model-Generation-Results/5HT2A_7WC7_rec_A_10.pdb/2024-01-01-03-54-21/
     RDKit          3D

 10 10  0  0  0  0  0  0  0  0999 V2000
  -24.1553  -17.8465  145.7021 C   0  0  0  0  0  0  0  0  0  0  0  0
  -23.9795  -18.4462  146.7426 C   0  0  0  0  0  0  0  0  0  0  0  0
  -25.1593  -16.8262  145.6925 C   0  0  0  0  0  0  0  0  0  0  0  0
  -25.3302  -15.8818  144.5925 C   0  0  0  0  0  0  0  0  0  0  0  0
  -24.0558  -17.8060  147.9302 C   0  0  0  0  0  0  0  0  0  0  0  0
  -24.8724  -16.6738  148.1474 C   0  0  0  0  0  0  0  0  0  0  0  0
  -25.2411  -15.9876  146.9649 C   0  0  0  0  0  0  0  0  0  0  0  0
  -26.5658  -14.6885  144.5812 Cl  0  0  0  0  0  0  0  0  0  0  0  0
  -26.0988  -14.5605  147.0954 Cl  0  0  0  0  0  0  0  0  0  0  0  0
  -24.1947  -18.4016  144.4835 O   0  0  0  0  0  0  0  0  0  0  0  0
  3  4  1  0
  4  8  1  0
  7  9  1  0
  1 10  1  0
  1  2  2  0
  2  5  1  0
  5  6  2  0
  6  7  1  0
  7  3  2  0
  3  1  1  0
M  END

$$$$
No_290-/dssg/home/sw_qyf/PocketFlow/Model-Generation-Results/5HT2A_7WC7_rec_A_10.pdb/2024-01-01-03-54-21/
     RDKit          3D

 23 24  0  0  0  0  0  0  0  0999 V2000
  -24.1553  -17.8465  145.7021 C   0  0  0  0  0  0  0  0  0  0  0  0
  -24.6364  -17.2931  146.7091 C   0  0  0  0  0  0  0  0  0  0  0  0
  -24.5709  -15.9334  146.8074 C   0  0  0  0  0  0  0  0  0  0  0  0
  -24.6729  -15.2066  145.7786 C   0  0  0  0  0  0  0  0  0  0  0  0
  -24.1309  -15.7293  144.5748 C   0  0  0  0  0  0  0  0  0  0  0  0
  -23.9620  -17.0370  144.5534 C   0  0  0  0  0  0  0  0  0  0  0  0
  -24.8174  -13.6666  145.6829 C   0  0  0  0  0  0  0  0  0  0  0  0
  -23.9001  -12.9562  145.2922 C   0  0  0  0  0  0  0  0  0  0  0  0
  -24.0926  -11.5206  145.2237 C   0  0  0  0  0  0  0  0  0  0  0  0
  -25.3699  -10.9690  145.5470 C   0  0  0  0  0  0  0  0  0  0  0  0
  -26.3545  -11.9060  146.0941 C   0  0  0  0  0  0  0  0  0  0  0  0
  -26.0537  -13.2397  146.1771 C   0  0  0  0  0  0  0  0  0  0  0  0
  -23.9296  -19.3020  145.8139 C   0  0  0  0  0  0  0  0  0  0  0  0
  -24.8822  -20.0704  145.8219 O   0  0  0  0  0  0  0  0  0  0  0  0
  -22.6427  -19.7216  145.5813 O   0  0  0  0  0  0  0  0  0  0  0  0
  -22.6808  -13.2804  144.8769 O   0  0  0  0  0  0  0  0  0  0  0  0
  -27.5581  -11.4120  146.4963 O   0  0  0  0  0  0  0  0  0  0  0  0
  -28.7198  -11.9908  146.0641 C   0  0  0  0  0  0  0  0  0  0  0  0
  -29.2427  -13.1966  146.6103 C   0  0  0  0  0  0  0  0  0  0  0  0
  -30.3087  -12.9854  147.6440 C   0  0  0  0  0  0  0  0  0  0  0  0
  -30.6064  -14.2062  148.4044 C   0  0  0  0  0  0  0  0  0  0  0  0
  -29.4692  -11.1726  145.1626 C   0  0  0  0  0  0  0  0  0  0  0  0
  -30.2159  -10.1559  145.7969 O   0  0  0  0  0  0  0  0  0  0  0  0
  4  7  1  0
  1 13  1  0
 13 14  2  0
 13 15  1  0
  8 16  1  0
 11 17  1  0
 17 18  1  0
 18 19  1  0
 19 20  2  3
 20 21  1  0
 18 22  1  0
 22 23  1  0
  1  2  2  0
  2  3  1  0
  3  4  2  0
  4  5  1  0
  5  6  2  0
  6  1  1  0
  7  8  2  0
  8  9  1  0
  9 10  2  0
 10 11  1  0
 11 12  2  0
 12  7  1  0
M  END

$$$$
No_291-/dssg/home/sw_qyf/PocketFlow/Model-Generation-Results/5HT2A_7WC7_rec_A_10.pdb/2024-01-01-03-54-21/
     RDKit          3D

 29 30  0  0  0  0  0  0  0  0999 V2000
  -23.1746  -16.6014  144.8668 C   0  0  0  0  0  0  0  0  0  0  0  0
  -23.8963  -15.5346  144.7885 C   0  0  0  0  0  0  0  0  0  0  0  0
  -24.5755  -15.0383  145.9043 C   0  0  0  0  0  0  0  0  0  0  0  0
  -25.3266  -13.7882  145.9354 C   0  0  0  0  0  0  0  0  0  0  0  0
  -23.3055  -17.4826  145.9483 C   0  0  0  0  0  0  0  0  0  0  0  0
  -23.9717  -17.0786  147.1155 C   0  0  0  0  0  0  0  0  0  0  0  0
  -24.6279  -15.8543  147.1153 C   0  0  0  0  0  0  0  0  0  0  0  0
  -26.2637  -13.4206  145.9057 C   0  0  0  0  0  0  0  0  0  0  0  0
  -26.8605  -12.0862  145.9102 C   0  0  0  0  0  0  0  0  0  0  0  0
  -25.9284  -11.0792  145.6520 C   0  0  0  0  0  0  0  0  0  0  0  0
  -24.1649  -12.6414  145.8697 C   0  0  0  0  0  0  0  0  0  0  0  0
  -24.6094  -11.3919  145.7467 N   0  0  0  0  0  0  0  0  0  0  0  0
  -28.3141  -11.8111  145.8916 C   0  0  0  0  0  0  0  0  0  0  0  0
  -29.1580  -12.4544  146.8791 C   0  0  0  0  0  0  0  0  0  0  0  0
  -28.9913  -13.4910  147.7075 C   0  0  0  0  0  0  0  0  0  0  0  0
  -30.0803  -14.2648  148.0759 C   0  0  0  0  0  0  0  0  0  0  0  0
  -28.7876  -10.8323  145.0386 C   0  0  0  0  0  0  0  0  0  0  0  0
  -30.1348  -10.3300  145.1255 C   0  0  0  0  0  0  0  0  0  0  0  0
  -30.5384   -9.4671  144.2554 N   0  0  0  0  0  0  0  0  0  0  0  0
  -29.8695   -9.0474  143.2224 C   0  0  0  0  0  0  0  0  0  0  0  0
  -30.3857   -8.0011  142.4338 C   0  0  0  0  0  0  0  0  0  0  0  0
  -29.8631   -7.6525  141.1686 C   0  0  0  0  0  0  0  0  0  0  0  0
  -29.8612   -6.5233  140.5917 C   0  0  0  0  0  0  0  0  0  0  0  0
  -29.5093   -8.8392  140.2987 C   0  0  0  0  0  0  0  0  0  0  0  0
  -28.7302   -8.5307  139.1974 C   0  0  0  0  0  0  0  0  0  0  0  0
  -27.7575   -9.5135  138.8233 C   0  0  0  0  0  0  0  0  0  0  0  0
  -27.9566  -10.7276  139.5551 C   0  0  0  0  0  0  0  0  0  0  0  0
  -27.1101  -11.8412  139.1812 C   0  0  0  0  0  0  0  0  0  0  0  0
  -26.6715  -11.9889  137.9546 C   0  0  0  0  0  0  0  0  0  0  0  0
  3  4  1  0
  9 13  1  0
 13 14  2  3
 14 15  1  0
 15 16  2  0
 13 17  1  0
 17 18  1  0
 18 19  1  0
 19 20  1  0
 20 21  1  0
 21 22  1  0
 22 23  2  0
 22 24  1  0
 24 25  1  0
 25 26  1  0
 26 27  2  3
 27 28  1  0
 28 29  1  0
  1  2  2  0
  2  3  1  0
  3  7  2  0
  7  6  1  0
  6  5  2  0
  5  1  1  0
  4  8  2  0
  8  9  1  0
  9 10  2  0
 10 12  1  0
 12 11  2  0
 11  4  1  0
M  END

$$$$
No_292-/dssg/home/sw_qyf/PocketFlow/Model-Generation-Results/5HT2A_7WC7_rec_A_10.pdb/2024-01-01-03-54-21/
     RDKit          3D

 35 36  0  0  0  0  0  0  0  0999 V2000
  -23.1746  -16.6014  144.8668 C   0  0  0  0  0  0  0  0  0  0  0  0
  -24.0189  -16.0564  145.8445 C   0  0  0  0  0  0  0  0  0  0  0  0
  -25.3176  -15.9168  145.6822 C   0  0  0  0  0  0  0  0  0  0  0  0
  -25.8933  -14.7450  145.0633 C   0  0  0  0  0  0  0  0  0  0  0  0
  -25.2602  -14.1168  144.0897 C   0  0  0  0  0  0  0  0  0  0  0  0
  -26.0640  -13.2036  143.2811 C   0  0  0  0  0  0  0  0  0  0  0  0
  -26.1808  -16.8953  146.3423 C   0  0  0  0  0  0  0  0  0  0  0  0
  -27.2244  -16.3893  147.1990 C   0  0  0  0  0  0  0  0  0  0  0  0
  -27.8375  -17.1441  148.1722 C   0  0  0  0  0  0  0  0  0  0  0  0
  -28.8791  -16.5671  148.9856 C   0  0  0  0  0  0  0  0  0  0  0  0
  -29.4528  -15.3078  148.5909 C   0  0  0  0  0  0  0  0  0  0  0  0
  -28.8541  -14.5768  147.5120 C   0  0  0  0  0  0  0  0  0  0  0  0
  -27.8538  -15.1101  146.8054 C   0  0  0  0  0  0  0  0  0  0  0  0
  -26.6635  -13.5915  142.0443 C   0  0  0  0  0  0  0  0  0  0  0  0
  -27.5634  -12.7248  141.3889 C   0  0  0  0  0  0  0  0  0  0  0  0
  -27.9815  -11.4715  141.9422 C   0  0  0  0  0  0  0  0  0  0  0  0
  -27.5454  -11.2443  143.3352 C   0  0  0  0  0  0  0  0  0  0  0  0
  -26.6348  -12.0854  143.9980 C   0  0  0  0  0  0  0  0  0  0  0  0
  -29.5005  -13.2792  147.2140 C   0  0  0  0  0  0  0  0  0  0  0  0
  -29.2506  -11.9543  147.5488 C   0  0  0  0  0  0  0  0  0  0  0  0
  -29.8363  -10.8640  146.9423 C   0  0  0  0  0  0  0  0  0  0  0  0
  -28.8775  -10.6381  141.3185 C   0  0  0  0  0  0  0  0  0  0  0  0
  -28.3813   -9.5901  140.4896 C   0  0  0  0  0  0  0  0  0  0  0  0
  -27.5087   -9.8593  139.4435 C   0  0  0  0  0  0  0  0  0  0  0  0
  -29.0131   -8.2213  140.5006 C   0  0  0  0  0  0  0  0  0  0  0  0
  -29.8495   -7.9029  141.5491 N   0  0  0  0  0  0  0  0  0  0  0  0
  -31.0581   -8.2844  141.8333 C   0  0  0  0  0  0  0  0  0  0  0  0
  -31.5377   -8.0421  143.2259 C   0  0  0  0  0  0  0  0  0  0  0  0
  -28.8691   -7.4230  139.5924 O   0  0  0  0  0  0  0  0  0  0  0  0
  -31.3009   -6.9489  143.7329 O   0  0  0  0  0  0  0  0  0  0  0  0
  -31.6849   -9.0960  144.0024 O   0  0  0  0  0  0  0  0  0  0  0  0
  -27.9591  -12.9977  140.2088 O   0  0  0  0  0  0  0  0  0  0  0  0
  -29.6033  -10.6903  145.5405 C   0  0  0  0  0  0  0  0  0  0  0  0
  -30.0951   -9.5873  145.1226 F   0  0  0  0  0  0  0  0  0  0  0  0
  -31.5736   -9.9743  143.5067 F   0  0  0  0  0  0  0  0  0  0  0  0
  1  2  1  0
  2  3  1  0
  3  4  1  0
  4  5  2  3
  5  6  1  0
  3  7  1  0
  7  8  1  0
 12 19  1  0
 19 20  1  0
 20 21  2  3
 16 22  1  0
 22 23  1  0
 23 24  2  0
 23 25  1  0
 25 26  1  0
 26 27  1  0
 27 28  1  0
 25 29  2  0
 28 30  1  0
 28 31  1  0
 15 32  1  0
 21 33  1  0
 33 34  1  0
 31 35  1  0
  8  9  2  0
  9 10  1  0
 10 11  2  0
 11 12  1  0
 12 13  2  0
 13  8  1  0
  6 14  2  0
 14 15  1  0
 15 16  2  0
 16 17  1  0
 17 18  2  0
 18  6  1  0
M  END

$$$$
No_293-/dssg/home/sw_qyf/PocketFlow/Model-Generation-Results/5HT2A_7WC7_rec_A_10.pdb/2024-01-01-03-54-21/
     RDKit          3D

 24 27  0  0  0  0  0  0  0  0999 V2000
  -23.8042  -18.1535  145.4053 O   0  0  0  0  0  0  0  0  0  0  0  0
  -24.3135  -17.1214  145.8338 C   0  0  0  0  0  0  0  0  0  0  0  0
  -24.7900  -16.9866  147.1556 C   0  0  0  0  0  0  0  0  0  0  0  0
  -24.5693  -16.0412  144.9503 N   0  0  0  0  0  0  0  0  0  0  0  0
  -25.2026  -14.8278  145.3741 C   0  0  0  0  0  0  0  0  0  0  0  0
  -24.4501  -17.8593  148.2176 C   0  0  0  0  0  0  0  0  0  0  0  0
  -24.4127  -13.7367  145.2680 C   0  0  0  0  0  0  0  0  0  0  0  0
  -24.9180  -12.4434  145.7929 C   0  0  0  0  0  0  0  0  0  0  0  0
  -24.2405  -11.3185  145.8325 C   0  0  0  0  0  0  0  0  0  0  0  0
  -24.9453  -17.5552  149.5611 C   0  0  0  0  0  0  0  0  0  0  0  0
  -23.0005  -11.3726  145.1233 C   0  0  0  0  0  0  0  0  0  0  0  0
  -22.4717  -12.5655  144.6241 C   0  0  0  0  0  0  0  0  0  0  0  0
  -23.2793  -13.7192  144.6849 C   0  0  0  0  0  0  0  0  0  0  0  0
  -26.1744  -16.8604  149.6366 C   0  0  0  0  0  0  0  0  0  0  0  0
  -26.6505  -16.1401  148.5150 C   0  0  0  0  0  0  0  0  0  0  0  0
  -25.9773  -16.1792  147.2698 C   0  0  0  0  0  0  0  0  0  0  0  0
  -26.3313  -15.0490  146.2388 C   0  0  0  0  0  0  0  0  0  0  0  0
  -26.1804  -12.4908  146.4797 O   0  0  0  0  0  0  0  0  0  0  0  0
  -27.3440  -12.0726  145.8017 C   0  0  0  0  0  0  0  0  0  0  0  0
  -27.3271  -11.3875  144.6507 C   0  0  0  0  0  0  0  0  0  0  0  0
  -28.5753  -12.2801  146.5561 C   0  0  0  0  0  0  0  0  0  0  0  0
  -28.5327  -10.9119  144.1432 C   0  0  0  0  0  0  0  0  0  0  0  0
  -29.7463  -11.7236  146.1148 C   0  0  0  0  0  0  0  0  0  0  0  0
  -29.6952  -11.0118  144.9107 C   0  0  0  0  0  0  0  0  0  0  0  0
  1  2  2  0
  2  3  1  0
  2  4  1  0
  4  5  1  0
  5 17  1  0
 16 17  1  0
  8 18  1  0
 18 19  1  0
  5  7  1  0
 19 20  2  0
 20 22  1  0
 22 24  2  0
 24 23  1  0
 23 21  2  0
 21 19  1  0
  7  8  1  0
  8  9  2  0
  9 11  1  0
 11 12  2  0
 12 13  1  0
 13  7  2  0
  3  6  2  0
  6 10  1  0
 10 14  2  0
 14 15  1  0
 15 16  2  0
 16  3  1  0
M  END

$$$$
No_294-/dssg/home/sw_qyf/PocketFlow/Model-Generation-Results/5HT2A_7WC7_rec_A_10.pdb/2024-01-01-03-54-21/
     RDKit          3D

 35 37  0  0  0  0  0  0  0  0999 V2000
  -24.1553  -17.8465  145.7021 C   0  0  0  0  0  0  0  0  0  0  0  0
  -24.2856  -16.6364  145.3494 C   0  0  0  0  0  0  0  0  0  0  0  0
  -24.7211  -15.5955  146.2115 C   0  0  0  0  0  0  0  0  0  0  0  0
  -24.8539  -14.2010  145.8739 C   0  0  0  0  0  0  0  0  0  0  0  0
  -24.1440  -13.8321  144.7074 C   0  0  0  0  0  0  0  0  0  0  0  0
  -24.0661  -12.5356  144.4304 N   0  0  0  0  0  0  0  0  0  0  0  0
  -24.6157  -18.2704  146.9610 C   0  0  0  0  0  0  0  0  0  0  0  0
  -25.1305  -17.4023  147.9249 C   0  0  0  0  0  0  0  0  0  0  0  0
  -25.2112  -15.9965  147.5628 C   0  0  0  0  0  0  0  0  0  0  0  0
  -26.2247  -13.5647  145.9577 C   0  0  0  0  0  0  0  0  0  0  0  0
  -26.2074  -12.1421  146.0162 C   0  0  0  0  0  0  0  0  0  0  0  0
  -25.5003  -11.4633  145.1134 C   0  0  0  0  0  0  0  0  0  0  0  0
  -25.9238  -11.6736  147.3087 O   0  0  0  0  0  0  0  0  0  0  0  0
  -27.3721  -14.3064  145.8315 C   0  0  0  0  0  0  0  0  0  0  0  0
  -28.5685  -13.7056  146.2259 C   0  0  0  0  0  0  0  0  0  0  0  0
  -28.7443  -12.2943  146.0817 C   0  0  0  0  0  0  0  0  0  0  0  0
  -30.0182  -11.5694  146.2997 C   0  0  0  0  0  0  0  0  0  0  0  0
  -30.5937  -11.9479  147.4246 O   0  0  0  0  0  0  0  0  0  0  0  0
  -30.3166  -10.5450  145.7115 O   0  0  0  0  0  0  0  0  0  0  0  0
  -23.2479  -14.3286  144.1532 O   0  0  0  0  0  0  0  0  0  0  0  0
  -30.0543  -10.2417  144.4312 C   0  0  0  0  0  0  0  0  0  0  0  0
  -29.9998   -8.8713  144.1017 C   0  0  0  0  0  0  0  0  0  0  0  0
  -30.7617   -8.6070  142.8271 C   0  0  0  0  0  0  0  0  0  0  0  0
  -30.5514   -7.5945  142.2465 O   0  0  0  0  0  0  0  0  0  0  0  0
  -30.1320   -7.6628  140.8963 C   0  0  0  0  0  0  0  0  0  0  0  0
  -29.0243   -8.6891  140.8299 C   0  0  0  0  0  0  0  0  0  0  0  0
  -28.4799   -8.8150  139.5177 C   0  0  0  0  0  0  0  0  0  0  0  0
  -28.6947   -8.0924  138.3530 C   0  0  0  0  0  0  0  0  0  0  0  0
  -28.0019   -8.4635  137.2339 C   0  0  0  0  0  0  0  0  0  0  0  0
  -27.3231   -9.7431  139.4392 C   0  0  0  0  0  0  0  0  0  0  0  0
  -27.2286  -10.7141  140.5674 C   0  0  0  0  0  0  0  0  0  0  0  0
  -27.8769  -10.5437  141.7430 C   0  0  0  0  0  0  0  0  0  0  0  0
  -28.8414   -9.5358  141.8876 C   0  0  0  0  0  0  0  0  0  0  0  0
  -32.2483   -8.5259  143.2287 O   0  0  0  0  0  0  0  0  0  0  0  0
  -25.4809  -17.6927  149.1480 F   0  0  0  0  0  0  0  0  0  0  0  0
  3  4  1  0
  4  5  1  0
  5  6  1  0
  4 10  1  0
 10 11  1  0
  6 12  1  0
 11 12  1  0
 11 13  1  0
 10 14  1  0
 14 15  2  3
 15 16  1  0
 16 17  1  0
 17 18  2  0
 17 19  1  0
  5 20  2  0
 19 21  1  0
 21 22  1  0
 22 23  1  0
 23 24  1  0
 24 25  1  0
 25 26  1  0
 27 28  1  0
 28 29  2  0
 23 34  1  0
  8 35  1  0
 26 27  2  0
 27 30  1  0
 30 31  2  0
 31 32  1  0
 32 33  2  0
 33 26  1  0
  1  2  2  0
  2  3  1  0
  3  9  2  0
  9  8  1  0
  8  7  2  0
  7  1  1  0
M  END

$$$$
No_295-/dssg/home/sw_qyf/PocketFlow/Model-Generation-Results/5HT2A_7WC7_rec_A_10.pdb/2024-01-01-03-54-21/
     RDKit          3D

 35 37  0  0  0  0  0  0  0  0999 V2000
  -24.1553  -17.8465  145.7021 C   0  0  0  0  0  0  0  0  0  0  0  0
  -23.9795  -18.4462  146.7426 C   0  0  0  0  0  0  0  0  0  0  0  0
  -25.1593  -16.8262  145.6925 C   0  0  0  0  0  0  0  0  0  0  0  0
  -25.9346  -16.5763  146.8154 C   0  0  0  0  0  0  0  0  0  0  0  0
  -25.6041  -17.2802  147.9650 C   0  0  0  0  0  0  0  0  0  0  0  0
  -24.6016  -18.1919  147.9827 C   0  0  0  0  0  0  0  0  0  0  0  0
  -27.0485  -15.6227  146.5519 C   0  0  0  0  0  0  0  0  0  0  0  0
  -26.8513  -14.4760  145.9514 C   0  0  0  0  0  0  0  0  0  0  0  0
  -25.8439  -14.3727  144.9171 C   0  0  0  0  0  0  0  0  0  0  0  0
  -24.8577  -15.5109  144.8676 C   0  0  0  0  0  0  0  0  0  0  0  0
  -25.7596  -13.3788  143.9613 C   0  0  0  0  0  0  0  0  0  0  0  0
  -25.9400  -12.2747  144.3111 C   0  0  0  0  0  0  0  0  0  0  0  0
  -26.8936  -12.0075  145.4964 C   0  0  0  0  0  0  0  0  0  0  0  0
  -27.3394  -10.6519  145.8413 C   0  0  0  0  0  0  0  0  0  0  0  0
  -27.2622  -13.1916  146.3220 C   0  0  0  0  0  0  0  0  0  0  0  0
  -23.9001  -15.5139  144.0842 O   0  0  0  0  0  0  0  0  0  0  0  0
  -28.3752  -16.3566  146.1537 C   0  0  0  0  0  0  0  0  0  0  0  0
  -26.7657   -9.8829  144.8222 C   0  0  0  0  0  0  0  0  0  0  0  0
  -27.3316   -9.8575  143.5731 C   0  0  0  0  0  0  0  0  0  0  0  0
  -28.6100   -9.2195  143.4255 C   0  0  0  0  0  0  0  0  0  0  0  0
  -29.4572   -9.5918  142.8254 C   0  0  0  0  0  0  0  0  0  0  0  0
  -30.7530   -8.8959  142.7050 C   0  0  0  0  0  0  0  0  0  0  0  0
  -31.8463   -9.4216  142.2200 N   0  0  0  0  0  0  0  0  0  0  0  0
  -30.7675   -7.5559  142.5914 O   0  0  0  0  0  0  0  0  0  0  0  0
  -29.3319  -10.0893  141.3878 C   0  0  0  0  0  0  0  0  0  0  0  0
  -28.7584  -11.3728  141.2383 C   0  0  0  0  0  0  0  0  0  0  0  0
  -28.2639  -11.8557  140.0181 C   0  0  0  0  0  0  0  0  0  0  0  0
  -26.8262  -12.0794  139.8763 C   0  0  0  0  0  0  0  0  0  0  0  0
  -26.3788  -12.2709  138.9713 O   0  0  0  0  0  0  0  0  0  0  0  0
  -26.4440  -16.9992  149.2224 C   0  0  0  0  0  0  0  0  0  0  0  0
  -25.9143  -17.2059  150.3621 O   0  0  0  0  0  0  0  0  0  0  0  0
  -27.4864  -16.3430  149.1370 O   0  0  0  0  0  0  0  0  0  0  0  0
  -26.1040  -12.3256  140.9504 O   0  0  0  0  0  0  0  0  0  0  0  0
  -23.5088  -17.9408  144.6019 O   0  0  0  0  0  0  0  0  0  0  0  0
  -24.6001  -17.0155  150.6787 C   0  0  0  0  0  0  0  0  0  0  0  0
  4  7  1  0
  3 10  1  0
  9 10  1  0
 13 14  1  0
 10 16  2  0
  7 17  1  0
 14 18  1  0
 18 19  1  0
 19 20  1  0
 20 21  2  3
 21 22  1  0
 22 23  1  0
 22 24  2  0
 21 25  1  0
 25 26  1  0
 26 27  1  0
 27 28  1  0
 28 29  1  0
  5 30  1  0
 30 31  1  0
 30 32  2  0
 28 33  2  0
  1 34  1  0
 31 35  1  0
  7  8  1  0
  1  2  2  0
  2  6  1  0
  6  5  2  0
  5  4  1  0
  4  3  2  0
  3  1  1  0
  8  9  2  0
  9 11  1  0
 11 12  2  0
 12 13  1  0
 13 15  2  0
 15  8  1  0
M  END

$$$$
No_296-/dssg/home/sw_qyf/PocketFlow/Model-Generation-Results/5HT2A_7WC7_rec_A_10.pdb/2024-01-01-03-54-21/
     RDKit          3D

 34 37  0  0  0  0  0  0  0  0999 V2000
  -23.1746  -16.6014  144.8668 C   0  0  0  0  0  0  0  0  0  0  0  0
  -23.7011  -17.0158  145.9774 C   0  0  0  0  0  0  0  0  0  0  0  0
  -24.2593  -16.1244  146.9100 C   0  0  0  0  0  0  0  0  0  0  0  0
  -24.7835  -16.4779  148.2293 C   0  0  0  0  0  0  0  0  0  0  0  0
  -23.4600  -15.2504  144.4004 C   0  0  0  0  0  0  0  0  0  0  0  0
  -24.1281  -14.2978  145.2913 C   0  0  0  0  0  0  0  0  0  0  0  0
  -24.5466  -14.7896  146.5570 C   0  0  0  0  0  0  0  0  0  0  0  0
  -23.8698  -17.0748  149.1761 C   0  0  0  0  0  0  0  0  0  0  0  0
  -24.2805  -17.3926  150.4880 C   0  0  0  0  0  0  0  0  0  0  0  0
  -24.2971  -12.9057  144.9028 C   0  0  0  0  0  0  0  0  0  0  0  0
  -25.5246  -12.3220  145.4329 C   0  0  0  0  0  0  0  0  0  0  0  0
  -25.9072  -11.0819  144.9158 C   0  0  0  0  0  0  0  0  0  0  0  0
  -27.2865  -10.5981  145.0918 C   0  0  0  0  0  0  0  0  0  0  0  0
  -28.2395  -11.3428  144.4465 C   0  0  0  0  0  0  0  0  0  0  0  0
  -29.5621  -10.7619  144.6830 C   0  0  0  0  0  0  0  0  0  0  0  0
  -30.1077   -9.8832  144.1093 O   0  0  0  0  0  0  0  0  0  0  0  0
  -29.9564  -11.0802  146.0290 O   0  0  0  0  0  0  0  0  0  0  0  0
  -29.8841   -9.6582  142.8784 C   0  0  0  0  0  0  0  0  0  0  0  0
  -30.6477   -8.5508  142.3202 C   0  0  0  0  0  0  0  0  0  0  0  0
  -31.5809   -8.1296  142.9156 O   0  0  0  0  0  0  0  0  0  0  0  0
  -30.3146   -8.0174  141.1077 N   0  0  0  0  0  0  0  0  0  0  0  0
  -29.1191   -8.3005  140.3854 C   0  0  0  0  0  0  0  0  0  0  0  0
  -29.0643   -7.9246  139.0959 C   0  0  0  0  0  0  0  0  0  0  0  0
  -28.3705   -8.7841  138.2049 C   0  0  0  0  0  0  0  0  0  0  0  0
  -27.5942   -9.7923  138.8068 C   0  0  0  0  0  0  0  0  0  0  0  0
  -27.7396  -10.1580  140.2149 C   0  0  0  0  0  0  0  0  0  0  0  0
  -28.5649   -9.4337  140.9007 C   0  0  0  0  0  0  0  0  0  0  0  0
  -28.9609   -9.9446  142.2475 C   0  0  0  0  0  0  0  0  0  0  0  0
  -26.1366  -17.2288  148.3417 C   0  0  0  0  0  0  0  0  0  0  0  0
  -26.7268  -17.0534  149.7070 C   0  0  0  0  0  0  0  0  0  0  0  0
  -25.6891  -17.8642  150.6751 C   0  0  0  0  0  0  0  0  0  0  0  0
  -23.4433  -18.4258  146.4404 C   0  0  0  0  0  0  0  0  0  0  0  0
  -22.5438  -18.7660  147.1747 O   0  0  0  0  0  0  0  0  0  0  0  0
  -24.2928  -19.3366  145.8684 N   0  0  0  0  0  0  0  0  0  0  0  0
  3  4  1  0
  6 10  1  0
 10 11  1  0
 11 12  1  0
 12 13  1  0
 13 14  1  0
 14 15  1  0
 15 16  1  0
 15 17  2  0
 16 18  1  0
 18 19  1  0
 19 20  2  0
 19 21  1  0
 21 22  1  0
 18 28  1  0
 27 28  1  0
  2 32  1  0
 32 33  2  0
 32 34  1  0
  1  2  2  0
  2  3  1  0
  3  7  2  0
  7  6  1  0
  6  5  2  0
  5  1  1  0
 22 23  2  0
 23 24  1  0
 24 25  2  0
 25 26  1  0
 26 27  2  0
 27 22  1  0
  4  8  2  0
  8  9  1  0
  9 31  2  0
 31 30  1  0
 30 29  2  0
 29  4  1  0
M  END

$$$$
No_297-/dssg/home/sw_qyf/PocketFlow/Model-Generation-Results/5HT2A_7WC7_rec_A_10.pdb/2024-01-01-03-54-21/
     RDKit          3D

 12 12  0  0  0  0  0  0  0  0999 V2000
  -24.1553  -17.8465  145.7021 C   0  0  0  0  0  0  0  0  0  0  0  0
  -23.9795  -18.4462  146.7426 C   0  0  0  0  0  0  0  0  0  0  0  0
  -25.1196  -16.8106  145.6409 C   0  0  0  0  0  0  0  0  0  0  0  0
  -25.2440  -15.8776  144.5240 C   0  0  0  0  0  0  0  0  0  0  0  0
  -26.0733  -14.7284  144.7061 C   0  0  0  0  0  0  0  0  0  0  0  0
  -26.0749  -13.6607  143.7626 C   0  0  0  0  0  0  0  0  0  0  0  0
  -24.5616  -18.0916  147.9928 C   0  0  0  0  0  0  0  0  0  0  0  0
  -25.4124  -16.9963  148.0558 C   0  0  0  0  0  0  0  0  0  0  0  0
  -25.6117  -16.2181  146.8910 C   0  0  0  0  0  0  0  0  0  0  0  0
  -27.0331  -12.6409  143.8436 C   0  0  0  0  0  0  0  0  0  0  0  0
  -27.6288  -12.3489  145.1110 C   0  0  0  0  0  0  0  0  0  0  0  0
  -27.5852  -13.3755  146.1497 C   0  0  0  0  0  0  0  0  0  0  0  0
  3  4  1  0
  4  5  1  0
  5  6  3  0
  6 10  1  0
 10 11  2  3
 11 12  1  0
  1  2  2  0
  2  7  1  0
  7  8  2  0
  8  9  1  0
  9  3  2  0
  3  1  1  0
M  END

$$$$
No_298-/dssg/home/sw_qyf/PocketFlow/Model-Generation-Results/5HT2A_7WC7_rec_A_10.pdb/2024-01-01-03-54-21/
     RDKit          3D

 22 24  0  0  0  0  0  0  0  0999 V2000
  -24.1553  -17.8465  145.7021 C   0  0  0  0  0  0  0  0  0  0  0  0
  -23.9795  -18.4462  146.7426 C   0  0  0  0  0  0  0  0  0  0  0  0
  -25.1593  -16.8262  145.6925 C   0  0  0  0  0  0  0  0  0  0  0  0
  -25.9346  -16.5763  146.8154 C   0  0  0  0  0  0  0  0  0  0  0  0
  -25.6041  -17.2802  147.9650 C   0  0  0  0  0  0  0  0  0  0  0  0
  -24.6016  -18.1919  147.9827 C   0  0  0  0  0  0  0  0  0  0  0  0
  -27.0252  -15.5531  146.7776 C   0  0  0  0  0  0  0  0  0  0  0  0
  -28.3001  -15.8884  147.1424 C   0  0  0  0  0  0  0  0  0  0  0  0
  -29.2842  -14.8995  147.1634 C   0  0  0  0  0  0  0  0  0  0  0  0
  -29.0096  -13.5427  146.9159 C   0  0  0  0  0  0  0  0  0  0  0  0
  -27.6809  -13.1751  146.4756 C   0  0  0  0  0  0  0  0  0  0  0  0
  -26.6892  -14.1517  146.5142 C   0  0  0  0  0  0  0  0  0  0  0  0
  -30.0470  -12.4754  146.9957 C   0  0  0  0  0  0  0  0  0  0  0  0
  -30.7064  -12.2905  148.0752 O   0  0  0  0  0  0  0  0  0  0  0  0
  -30.0466  -11.5479  146.1338 O   0  0  0  0  0  0  0  0  0  0  0  0
  -25.3762  -13.5799  146.0984 C   0  0  0  0  0  0  0  0  0  0  0  0
  -24.3841  -14.0343  145.7496 C   0  0  0  0  0  0  0  0  0  0  0  0
  -23.1461  -13.2868  145.3203 C   0  0  0  0  0  0  0  0  0  0  0  0
  -23.4256  -11.8695  145.2347 C   0  0  0  0  0  0  0  0  0  0  0  0
  -25.1831  -11.9979  145.8002 C   0  0  0  0  0  0  0  0  0  0  0  0
  -25.8149  -10.9681  145.9051 O   0  0  0  0  0  0  0  0  0  0  0  0
  -23.5420  -18.0735  144.5252 O   0  0  0  0  0  0  0  0  0  0  0  0
  4  7  1  0
 10 13  1  0
 13 14  1  0
 13 15  2  0
 12 16  1  0
 16 17  2  0
 17 18  1  0
 18 19  2  0
 16 20  1  0
 19 20  1  0
 20 21  1  0
  1 22  1  0
  1  2  2  0
  2  6  1  0
  6  5  2  0
  5  4  1  0
  4  3  2  0
  3  1  1  0
  7  8  2  0
  8  9  1  0
  9 10  2  0
 10 11  1  0
 11 12  2  0
 12  7  1  0
M  END

$$$$
No_299-/dssg/home/sw_qyf/PocketFlow/Model-Generation-Results/5HT2A_7WC7_rec_A_10.pdb/2024-01-01-03-54-21/
     RDKit          3D

 11 11  0  0  0  0  0  0  0  0999 V2000
  -23.1746  -16.6014  144.8668 C   0  0  0  0  0  0  0  0  0  0  0  0
  -23.7011  -17.0158  145.9774 C   0  0  0  0  0  0  0  0  0  0  0  0
  -24.2134  -16.0722  146.8877 C   0  0  0  0  0  0  0  0  0  0  0  0
  -23.3742  -15.2706  144.3922 C   0  0  0  0  0  0  0  0  0  0  0  0
  -24.0638  -14.3065  145.2723 C   0  0  0  0  0  0  0  0  0  0  0  0
  -24.4769  -14.7246  146.5384 C   0  0  0  0  0  0  0  0  0  0  0  0
  -24.2143  -12.8848  144.8927 C   0  0  0  0  0  0  0  0  0  0  0  0
  -23.0375  -12.2165  145.1582 N   0  0  0  0  0  0  0  0  0  0  0  0
  -23.5300  -18.3219  146.4371 N   0  0  0  0  0  0  0  0  0  0  0  0
  -25.2757  -12.3500  144.9061 O   0  0  0  0  0  0  0  0  0  0  0  0
  -22.6597  -18.8515  146.7219 O   0  0  0  0  0  0  0  0  0  0  0  0
  5  7  1  0
  7  8  1  0
  2  9  1  0
  7 10  2  0
  9 11  2  0
  1  2  2  0
  2  3  1  0
  3  6  2  0
  6  5  1  0
  5  4  2  0
  4  1  1  0
M  END

$$$$
No_300-/dssg/home/sw_qyf/PocketFlow/Model-Generation-Results/5HT2A_7WC7_rec_A_10.pdb/2024-01-01-03-54-21/
     RDKit          3D

 35 36  0  0  0  0  0  0  0  0999 V2000
  -24.1553  -17.8465  145.7021 C   0  0  0  0  0  0  0  0  0  0  0  0
  -24.6364  -17.2931  146.7091 C   0  0  0  0  0  0  0  0  0  0  0  0
  -25.8608  -16.5592  146.5934 C   0  0  0  0  0  0  0  0  0  0  0  0
  -26.9933  -16.9082  147.1889 C   0  0  0  0  0  0  0  0  0  0  0  0
  -28.2350  -16.1839  146.8943 C   0  0  0  0  0  0  0  0  0  0  0  0
  -28.0449  -14.7940  146.7879 C   0  0  0  0  0  0  0  0  0  0  0  0
  -29.1654  -13.8482  146.6497 C   0  0  0  0  0  0  0  0  0  0  0  0
  -28.9503  -12.5402  146.2198 C   0  0  0  0  0  0  0  0  0  0  0  0
  -27.9975  -12.2160  145.5243 C   0  0  0  0  0  0  0  0  0  0  0  0
  -26.7237  -13.0759  145.5886 C   0  0  0  0  0  0  0  0  0  0  0  0
  -26.9006  -14.3748  146.1072 C   0  0  0  0  0  0  0  0  0  0  0  0
  -25.6878  -15.2122  146.1634 C   0  0  0  0  0  0  0  0  0  0  0  0
  -23.9725  -17.5238  148.0290 C   0  0  0  0  0  0  0  0  0  0  0  0
  -22.7090  -17.7222  148.1264 Br  0  0  0  0  0  0  0  0  0  0  0  0
  -27.7774  -10.9163  144.8007 C   0  0  0  0  0  0  0  0  0  0  0  0
  -28.8842  -10.2946  144.1206 C   0  0  0  0  0  0  0  0  0  0  0  0
  -28.7488   -9.4059  143.0973 C   0  0  0  0  0  0  0  0  0  0  0  0
  -29.6586   -9.0549  142.1918 C   0  0  0  0  0  0  0  0  0  0  0  0
  -29.4226   -8.3221  141.0037 C   0  0  0  0  0  0  0  0  0  0  0  0
  -29.9036   -7.0348  140.7518 C   0  0  0  0  0  0  0  0  0  0  0  0
  -28.5729   -8.9832  139.9911 C   0  0  0  0  0  0  0  0  0  0  0  0
  -27.9003  -10.1768  140.2344 C   0  0  0  0  0  0  0  0  0  0  0  0
  -27.3346  -10.9819  139.2899 C   0  0  0  0  0  0  0  0  0  0  0  0
  -26.5748  -12.1595  139.7670 C   0  0  0  0  0  0  0  0  0  0  0  0
  -27.1770  -12.8271  140.8279 N   0  0  0  0  0  0  0  0  0  0  0  0
  -28.1939   -8.2975  138.8293 C   0  0  0  0  0  0  0  0  0  0  0  0
  -26.7952  -14.0501  141.3715 C   0  0  0  0  0  0  0  0  0  0  0  0
  -27.2980  -14.1585  142.8138 C   0  0  0  0  0  0  0  0  0  0  0  0
  -24.7610  -16.9919  149.1080 O   0  0  0  0  0  0  0  0  0  0  0  0
  -31.0797   -9.3205  142.4597 C   0  0  0  0  0  0  0  0  0  0  0  0
  -31.5500   -8.6690  143.4467 O   0  0  0  0  0  0  0  0  0  0  0  0
  -25.9286  -12.8600  138.8759 O   0  0  0  0  0  0  0  0  0  0  0  0
  -23.5762  -19.1042  145.7003 C   0  0  0  0  0  0  0  0  0  0  0  0
  -24.2323  -19.9341  145.9785 O   0  0  0  0  0  0  0  0  0  0  0  0
  -26.5225  -10.2374  144.7932 C   0  0  0  0  0  0  0  0  0  0  0  0
  1  2  1  0
  2  3  1  0
  2 13  1  0
 13 14  1  0
  9 15  1  0
 15 16  1  0
 16 17  2  3
 17 18  1  0
 18 19  1  0
 19 20  1  0
 19 21  1  0
 21 22  1  0
 22 23  2  3
 23 24  1  0
 24 25  1  0
 21 26  1  0
 25 27  1  0
 27 28  2  0
 13 29  1  0
 18 30  1  0
 30 31  1  0
 24 32  2  0
  1 33  1  0
 33 34  2  0
 15 35  1  0
  6  7  1  0
  7  8  2  0
  8  9  1  0
  9 10  2  0
 10 11  1  0
  3  4  2  0
  4  5  1  0
  5  6  2  0
  6 11  1  0
 11 12  2  0
 12  3  1  0
M  END

$$$$
No_301-/dssg/home/sw_qyf/PocketFlow/Model-Generation-Results/5HT2A_7WC7_rec_A_10.pdb/2024-01-01-03-54-21/
     RDKit          3D

 35 38  0  0  0  0  0  0  0  0999 V2000
  -23.1746  -16.6014  144.8668 C   0  0  0  0  0  0  0  0  0  0  0  0
  -23.7011  -17.0158  145.9774 C   0  0  0  0  0  0  0  0  0  0  0  0
  -24.7096  -16.6222  146.3577 C   0  0  0  0  0  0  0  0  0  0  0  0
  -25.2589  -16.9410  147.8027 C   0  0  0  0  0  0  0  0  0  0  0  0
  -26.4623  -16.4173  148.3313 C   0  0  0  0  0  0  0  0  0  0  0  0
  -23.7737  -15.4555  144.2384 C   0  0  0  0  0  0  0  0  0  0  0  0
  -24.8786  -14.8392  144.8305 C   0  0  0  0  0  0  0  0  0  0  0  0
  -25.3633  -15.3911  146.0026 C   0  0  0  0  0  0  0  0  0  0  0  0
  -27.1855  -15.4410  147.6072 C   0  0  0  0  0  0  0  0  0  0  0  0
  -26.5865  -14.8558  146.4698 C   0  0  0  0  0  0  0  0  0  0  0  0
  -27.3049  -13.7591  145.8650 C   0  0  0  0  0  0  0  0  0  0  0  0
  -26.8575  -12.9875  144.8211 C   0  0  0  0  0  0  0  0  0  0  0  0
  -27.5090  -11.9421  144.2211 C   0  0  0  0  0  0  0  0  0  0  0  0
  -27.2561  -11.3073  143.0266 C   0  0  0  0  0  0  0  0  0  0  0  0
  -27.7198  -12.1989  141.9111 C   0  0  0  0  0  0  0  0  0  0  0  0
  -27.7908  -11.5644  140.5881 C   0  0  0  0  0  0  0  0  0  0  0  0
  -27.9128  -10.2830  140.5284 C   0  0  0  0  0  0  0  0  0  0  0  0
  -28.0422   -9.6602  139.2326 C   0  0  0  0  0  0  0  0  0  0  0  0
  -28.1251   -8.1960  139.1702 C   0  0  0  0  0  0  0  0  0  0  0  0
  -28.4058   -7.7035  137.8540 C   0  0  0  0  0  0  0  0  0  0  0  0
  -25.5436  -13.6223  144.2253 C   0  0  0  0  0  0  0  0  0  0  0  0
  -27.9286  -12.4806  139.5031 C   0  0  0  0  0  0  0  0  0  0  0  0
  -28.0055  -11.8672  138.2135 C   0  0  0  0  0  0  0  0  0  0  0  0
  -28.1029  -10.5107  138.1042 C   0  0  0  0  0  0  0  0  0  0  0  0
  -24.6809  -17.9642  148.4667 O   0  0  0  0  0  0  0  0  0  0  0  0
  -28.5874  -11.3227  145.0133 C   0  0  0  0  0  0  0  0  0  0  0  0
  -29.0473  -11.6753  146.1928 N   0  0  0  0  0  0  0  0  0  0  0  0
  -29.2494  -10.2369  144.4974 N   0  0  0  0  0  0  0  0  0  0  0  0
  -29.0931   -9.6686  143.3211 C   0  0  0  0  0  0  0  0  0  0  0  0
  -30.1420   -8.6461  143.0375 C   0  0  0  0  0  0  0  0  0  0  0  0
  -31.3531   -8.7594  143.4470 C   0  0  0  0  0  0  0  0  0  0  0  0
  -29.8970   -7.5641  142.0573 C   0  0  0  0  0  0  0  0  0  0  0  0
  -31.7064   -9.7001  144.2119 O   0  0  0  0  0  0  0  0  0  0  0  0
  -32.2795   -7.9047  143.1781 O   0  0  0  0  0  0  0  0  0  0  0  0
  -30.1925   -7.6666  140.8642 O   0  0  0  0  0  0  0  0  0  0  0  0
  1  2  1  0
  2  3  2  0
  3  4  1  0
  4  5  1  0
  1  6  2  0
  6  7  1  0
  3  8  1  0
  7  8  2  0
  5  9  2  0
  8 10  1  0
  9 10  1  0
 10 11  1  0
 11 12  2  0
 12 13  1  0
 13 14  1  0
 14 15  1  0
 15 16  1  0
 16 17  2  0
 17 18  1  0
 18 19  2  3
 19 20  1  0
  7 21  1  0
 12 21  1  0
 16 22  1  0
 22 23  2  0
 18 24  1  0
 23 24  1  0
  4 25  1  0
 13 26  1  0
 26 27  1  0
 26 28  1  0
 28 29  1  0
 29 30  1  0
 30 31  2  3
 30 32  1  0
 31 33  1  0
 31 34  1  0
 32 35  1  0
M  END

$$$$
No_302-/dssg/home/sw_qyf/PocketFlow/Model-Generation-Results/5HT2A_7WC7_rec_A_10.pdb/2024-01-01-03-54-21/
     RDKit          3D

 28 28  0  0  0  0  0  0  0  0999 V2000
  -24.1553  -17.8465  145.7021 C   0  0  0  0  0  0  0  0  0  0  0  0
  -24.6364  -17.2931  146.7091 C   0  0  0  0  0  0  0  0  0  0  0  0
  -25.8608  -16.5592  146.5934 C   0  0  0  0  0  0  0  0  0  0  0  0
  -25.9533  -15.5604  145.6681 C   0  0  0  0  0  0  0  0  0  0  0  0
  -25.1031  -14.5122  145.9220 C   0  0  0  0  0  0  0  0  0  0  0  0
  -25.1856  -13.3063  145.1479 C   0  0  0  0  0  0  0  0  0  0  0  0
  -25.0532  -12.1382  145.8442 C   0  0  0  0  0  0  0  0  0  0  0  0
  -25.8730  -11.0118  145.3627 C   0  0  0  0  0  0  0  0  0  0  0  0
  -26.5941  -11.2972  144.1198 C   0  0  0  0  0  0  0  0  0  0  0  0
  -27.8943  -11.7583  144.4612 C   0  0  0  0  0  0  0  0  0  0  0  0
  -28.1735  -12.2570  145.6660 C   0  0  0  0  0  0  0  0  0  0  0  0
  -29.5670  -12.1486  146.2559 C   0  0  0  0  0  0  0  0  0  0  0  0
  -30.0951  -10.8808  146.2590 C   0  0  0  0  0  0  0  0  0  0  0  0
  -24.0040  -17.4450  148.0381 C   0  0  0  0  0  0  0  0  0  0  0  0
  -22.6057  -17.2234  148.1505 C   0  0  0  0  0  0  0  0  0  0  0  0
  -24.7722  -17.4361  149.2322 C   0  0  0  0  0  0  0  0  0  0  0  0
  -29.6736  -12.8854  147.6289 C   0  0  0  0  0  0  0  0  0  0  0  0
  -29.2814  -14.2089  147.7941 C   0  0  0  0  0  0  0  0  0  0  0  0
  -29.9612  -15.1348  148.5660 C   0  0  0  0  0  0  0  0  0  0  0  0
  -29.3342  -16.4088  148.7351 C   0  0  0  0  0  0  0  0  0  0  0  0
  -28.1641  -16.6885  148.0757 C   0  0  0  0  0  0  0  0  0  0  0  0
  -27.0850  -16.9649  147.3984 C   0  0  0  0  0  0  0  0  0  0  0  0
  -24.6721  -16.3656  150.3089 C   0  0  0  0  0  0  0  0  0  0  0  0
  -26.8158  -15.5430  144.7717 O   0  0  0  0  0  0  0  0  0  0  0  0
  -29.7949  -10.0767  145.3071 O   0  0  0  0  0  0  0  0  0  0  0  0
  -29.5950  -10.4339  144.1307 C   0  0  0  0  0  0  0  0  0  0  0  0
  -29.9687   -9.4007  143.1539 C   0  0  0  0  0  0  0  0  0  0  0  0
  -30.8163   -8.4226  143.4123 C   0  0  0  0  0  0  0  0  0  0  0  0
  1  2  1  0
  2  3  1  0
  3  4  1  0
  4  5  1  0
  5  6  1  0
  6  7  1  0
  7  8  1  0
  8  9  1  0
  9 10  1  0
 10 11  2  3
 11 12  1  0
 12 13  1  0
  2 14  1  0
 14 15  1  0
 14 16  1  0
 12 17  1  0
 17 18  1  0
 18 19  2  3
 19 20  1  0
 20 21  2  3
  3 22  1  0
 21 22  1  0
 16 23  1  0
  4 24  2  0
 13 25  1  0
 25 26  1  0
 26 27  1  0
 27 28  2  0
M  END

$$$$
No_303-/dssg/home/sw_qyf/PocketFlow/Model-Generation-Results/5HT2A_7WC7_rec_A_10.pdb/2024-01-01-03-54-21/
     RDKit          3D

 25 27  0  0  0  0  0  0  0  0999 V2000
  -24.1553  -17.8465  145.7021 C   0  0  0  0  0  0  0  0  0  0  0  0
  -23.9795  -18.4462  146.7426 C   0  0  0  0  0  0  0  0  0  0  0  0
  -25.1196  -16.8106  145.6409 C   0  0  0  0  0  0  0  0  0  0  0  0
  -25.2440  -15.8776  144.5240 C   0  0  0  0  0  0  0  0  0  0  0  0
  -26.0733  -14.7284  144.7061 C   0  0  0  0  0  0  0  0  0  0  0  0
  -26.0749  -13.6607  143.7626 C   0  0  0  0  0  0  0  0  0  0  0  0
  -24.2209  -17.7813  147.9216 C   0  0  0  0  0  0  0  0  0  0  0  0
  -24.9663  -16.6384  148.1089 C   0  0  0  0  0  0  0  0  0  0  0  0
  -25.2750  -15.9598  146.9032 C   0  0  0  0  0  0  0  0  0  0  0  0
  -25.8567  -14.6905  146.6064 C   0  0  0  0  0  0  0  0  0  0  0  0
  -26.0608  -14.0105  142.6192 C   0  0  0  0  0  0  0  0  0  0  0  0
  -27.0253  -13.8476  141.5378 N   0  0  0  0  0  0  0  0  0  0  0  0
  -28.0780  -13.0487  141.8303 C   0  0  0  0  0  0  0  0  0  0  0  0
  -27.7579  -11.6026  141.2986 C   0  0  0  0  0  0  0  0  0  0  0  0
  -28.5846  -10.6170  141.9135 C   0  0  0  0  0  0  0  0  0  0  0  0
  -28.9208  -10.5902  143.2293 C   0  0  0  0  0  0  0  0  0  0  0  0
  -29.8620   -9.5559  143.6919 C   0  0  0  0  0  0  0  0  0  0  0  0
  -30.4771   -9.6023  144.9177 C   0  0  0  0  0  0  0  0  0  0  0  0
  -30.1512   -8.4911  142.7890 C   0  0  0  0  0  0  0  0  0  0  0  0
  -31.2215   -7.5493  143.0554 C   0  0  0  0  0  0  0  0  0  0  0  0
  -29.5588   -8.4616  141.4739 C   0  0  0  0  0  0  0  0  0  0  0  0
  -29.8121   -7.3524  140.5931 C   0  0  0  0  0  0  0  0  0  0  0  0
  -28.6658   -9.5459  141.0999 C   0  0  0  0  0  0  0  0  0  0  0  0
  -27.0006  -11.4790  140.1719 C   0  0  0  0  0  0  0  0  0  0  0  0
  -26.3835  -10.4212  139.9095 O   0  0  0  0  0  0  0  0  0  0  0  0
  3  4  1  0
  4  5  1  0
  5  6  2  3
  5 10  1  0
  9 10  1  0
  6 11  1  0
 11 12  1  0
 12 13  1  0
 13 14  1  0
 14 15  1  0
 19 20  1  0
 21 22  1  0
 14 24  1  0
 24 25  1  0
 18 17  1  0
 15 16  2  0
 16 17  1  0
 17 19  2  0
 19 21  1  0
 21 23  2  0
 23 15  1  0
  1  2  2  0
  2  7  1  0
  7  8  2  0
  8  9  1  0
  9  3  2  0
  3  1  1  0
M  END

$$$$
No_304-/dssg/home/sw_qyf/PocketFlow/Model-Generation-Results/5HT2A_7WC7_rec_A_10.pdb/2024-01-01-03-54-21/
     RDKit          3D

 35 37  0  0  0  0  0  0  0  0999 V2000
  -23.1746  -16.6014  144.8668 C   0  0  0  0  0  0  0  0  0  0  0  0
  -23.8963  -15.5346  144.7885 C   0  0  0  0  0  0  0  0  0  0  0  0
  -24.5755  -15.0383  145.9043 C   0  0  0  0  0  0  0  0  0  0  0  0
  -25.0618  -13.6819  146.0347 C   0  0  0  0  0  0  0  0  0  0  0  0
  -24.0242  -12.8249  145.9593 C   0  0  0  0  0  0  0  0  0  0  0  0
  -23.4085  -17.5675  145.8907 C   0  0  0  0  0  0  0  0  0  0  0  0
  -24.1896  -17.1707  147.0047 C   0  0  0  0  0  0  0  0  0  0  0  0
  -24.7247  -15.8941  147.1004 C   0  0  0  0  0  0  0  0  0  0  0  0
  -26.3540  -13.2621  146.1677 C   0  0  0  0  0  0  0  0  0  0  0  0
  -26.7195  -11.8998  146.1990 C   0  0  0  0  0  0  0  0  0  0  0  0
  -24.3699  -11.3722  145.9377 C   0  0  0  0  0  0  0  0  0  0  0  0
  -25.6543  -10.9688  146.0210 C   0  0  0  0  0  0  0  0  0  0  0  0
  -23.7505  -14.6471  143.8323 O   0  0  0  0  0  0  0  0  0  0  0  0
  -24.2734  -18.0763  148.1890 C   0  0  0  0  0  0  0  0  0  0  0  0
  -23.6633  -17.4506  149.4449 C   0  0  0  0  0  0  0  0  0  0  0  0
  -24.4681  -17.1367  150.5757 C   0  0  0  0  0  0  0  0  0  0  0  0
  -28.1158  -11.5029  146.2539 C   0  0  0  0  0  0  0  0  0  0  0  0
  -28.7750  -10.9150  145.1535 C   0  0  0  0  0  0  0  0  0  0  0  0
  -30.1306  -10.4497  145.4172 C   0  0  0  0  0  0  0  0  0  0  0  0
  -28.1796  -10.7111  143.9336 C   0  0  0  0  0  0  0  0  0  0  0  0
  -28.9196  -10.1750  142.8797 C   0  0  0  0  0  0  0  0  0  0  0  0
  -28.4181  -10.0713  141.5917 C   0  0  0  0  0  0  0  0  0  0  0  0
  -28.9840   -9.2962  140.6026 C   0  0  0  0  0  0  0  0  0  0  0  0
  -28.3554   -8.9499  139.3811 C   0  0  0  0  0  0  0  0  0  0  0  0
  -28.9169   -7.9808  138.5547 C   0  0  0  0  0  0  0  0  0  0  0  0
  -30.7489   -9.7349  144.4650 N   0  0  0  0  0  0  0  0  0  0  0  0
  -30.2299   -9.5792  143.2461 C   0  0  0  0  0  0  0  0  0  0  0  0
  -31.2158   -8.6751  142.2400 Cl  0  0  0  0  0  0  0  0  0  0  0  0
  -30.1114   -7.4170  139.0355 N   0  0  0  0  0  0  0  0  0  0  0  0
  -30.6505  -10.5611  146.5594 O   0  0  0  0  0  0  0  0  0  0  0  0
  -25.7426  -17.3071  150.4647 O   0  0  0  0  0  0  0  0  0  0  0  0
  -28.5215   -7.6788  137.4446 O   0  0  0  0  0  0  0  0  0  0  0  0
  -26.4452  -17.1636  149.4885 C   0  0  0  0  0  0  0  0  0  0  0  0
  -27.8922  -16.9687  149.6986 C   0  0  0  0  0  0  0  0  0  0  0  0
  -28.6355  -17.3681  150.6758 C   0  0  0  0  0  0  0  0  0  0  0  0
  3  4  1  0
  2 13  1  0
  7 14  1  0
 14 15  1  0
 15 16  1  0
 10 17  1  0
 18 19  1  0
 18 20  1  0
 21 22  1  0
 22 23  1  0
 23 24  2  3
 24 25  1  0
 19 26  1  0
 21 27  1  0
 26 27  1  0
 27 28  1  0
 25 29  1  0
 19 30  2  0
 16 31  1  0
 25 32  2  0
 31 33  1  0
 33 34  2  3
 34 35  1  0
 17 18  1  0
 20 21  1  0
  1  2  2  0
  2  3  1  0
  3  8  2  0
  8  7  1  0
  7  6  2  0
  6  1  1  0
  4  5  2  0
  5 11  1  0
 11 12  2  0
 12 10  1  0
 10  9  2  0
  9  4  1  0
M  END

$$$$
No_305-/dssg/home/sw_qyf/PocketFlow/Model-Generation-Results/5HT2A_7WC7_rec_A_10.pdb/2024-01-01-03-54-21/
     RDKit          3D

 18 19  0  0  0  0  0  0  0  0999 V2000
  -23.1746  -16.6014  144.8668 C   0  0  0  0  0  0  0  0  0  0  0  0
  -23.7011  -17.0158  145.9774 C   0  0  0  0  0  0  0  0  0  0  0  0
  -23.7336  -18.2775  146.3737 C   0  0  0  0  0  0  0  0  0  0  0  0
  -24.1960  -18.6445  147.6858 C   0  0  0  0  0  0  0  0  0  0  0  0
  -24.7100  -17.6145  148.5486 C   0  0  0  0  0  0  0  0  0  0  0  0
  -24.7929  -16.2635  148.0870 C   0  0  0  0  0  0  0  0  0  0  0  0
  -24.2508  -15.9434  146.8891 C   0  0  0  0  0  0  0  0  0  0  0  0
  -23.7752  -16.1123  144.2284 O   0  0  0  0  0  0  0  0  0  0  0  0
  -24.3238  -14.5318  146.4516 C   0  0  0  0  0  0  0  0  0  0  0  0
  -24.2800  -13.9620  145.3629 C   0  0  0  0  0  0  0  0  0  0  0  0
  -23.7372  -14.8009  144.1897 C   0  0  0  0  0  0  0  0  0  0  0  0
  -24.3124  -12.5269  145.1715 C   0  0  0  0  0  0  0  0  0  0  0  0
  -22.9836  -11.5828  144.9128 Cl  0  0  0  0  0  0  0  0  0  0  0  0
  -25.6142  -11.8695  145.2367 C   0  0  0  0  0  0  0  0  0  0  0  0
  -26.4002  -12.0765  146.3725 C   0  0  0  0  0  0  0  0  0  0  0  0
  -27.7052  -11.4926  146.3984 C   0  0  0  0  0  0  0  0  0  0  0  0
  -28.2307  -10.8660  145.2369 C   0  0  0  0  0  0  0  0  0  0  0  0
  -27.3232  -10.6591  144.1013 C   0  0  0  0  0  0  0  0  0  0  0  0
  1  2  1  0
  1  8  1  0
  7  9  1  0
  9 10  2  0
  8 11  1  0
 10 11  1  0
 10 12  1  0
 12 13  1  0
 12 14  1  0
 14 15  2  3
 15 16  1  0
 16 17  2  3
 17 18  1  0
  2  3  2  0
  3  4  1  0
  4  5  2  0
  5  6  1  0
  6  7  2  0
  7  2  1  0
M  END

$$$$
No_306-/dssg/home/sw_qyf/PocketFlow/Model-Generation-Results/5HT2A_7WC7_rec_A_10.pdb/2024-01-01-03-54-21/
     RDKit          3D

 35 37  0  0  0  0  0  0  0  0999 V2000
  -24.1553  -17.8465  145.7021 C   0  0  0  0  0  0  0  0  0  0  0  0
  -24.6364  -17.2931  146.7091 C   0  0  0  0  0  0  0  0  0  0  0  0
  -25.8608  -16.5592  146.5934 C   0  0  0  0  0  0  0  0  0  0  0  0
  -25.9088  -15.1597  146.9911 C   0  0  0  0  0  0  0  0  0  0  0  0
  -24.6057  -14.5448  146.9210 C   0  0  0  0  0  0  0  0  0  0  0  0
  -24.4123  -13.6315  145.8036 C   0  0  0  0  0  0  0  0  0  0  0  0
  -25.0897  -12.5256  145.8729 C   0  0  0  0  0  0  0  0  0  0  0  0
  -26.1264  -12.2105  145.2163 C   0  0  0  0  0  0  0  0  0  0  0  0
  -27.2677  -12.8226  145.2821 C   0  0  0  0  0  0  0  0  0  0  0  0
  -28.5439  -12.2993  144.8499 C   0  0  0  0  0  0  0  0  0  0  0  0
  -28.5611  -10.9816  144.2567 C   0  0  0  0  0  0  0  0  0  0  0  0
  -27.3578  -10.2602  144.1834 C   0  0  0  0  0  0  0  0  0  0  0  0
  -26.1677  -10.7897  144.8338 C   0  0  0  0  0  0  0  0  0  0  0  0
  -29.7661  -10.3932  143.7151 C   0  0  0  0  0  0  0  0  0  0  0  0
  -29.8688  -10.1178  142.3068 C   0  0  0  0  0  0  0  0  0  0  0  0
  -30.5079   -8.8478  142.0445 C   0  0  0  0  0  0  0  0  0  0  0  0
  -29.8979   -7.9560  141.0823 C   0  0  0  0  0  0  0  0  0  0  0  0
  -29.9384   -6.6373  141.1423 C   0  0  0  0  0  0  0  0  0  0  0  0
  -29.2325   -8.5315  139.9366 C   0  0  0  0  0  0  0  0  0  0  0  0
  -28.3782   -9.5365  139.9692 C   0  0  0  0  0  0  0  0  0  0  0  0
  -27.4293   -9.8136  138.9604 C   0  0  0  0  0  0  0  0  0  0  0  0
  -28.4045  -10.0752  141.6697 C   0  0  0  0  0  0  0  0  0  0  0  0
  -29.0014   -5.5219  140.5426 Cl  0  0  0  0  0  0  0  0  0  0  0  0
  -23.7048  -17.0118  144.6476 C   0  0  0  0  0  0  0  0  0  0  0  0
  -23.6813  -15.7478  144.9817 O   0  0  0  0  0  0  0  0  0  0  0  0
  -23.9765  -14.5470  144.6564 C   0  0  0  0  0  0  0  0  0  0  0  0
  -23.9871  -14.0585  143.5640 O   0  0  0  0  0  0  0  0  0  0  0  0
  -26.9656  -17.1932  146.0283 C   0  0  0  0  0  0  0  0  0  0  0  0
  -28.2297  -16.4796  145.8823 C   0  0  0  0  0  0  0  0  0  0  0  0
  -23.9167  -19.2522  145.6253 C   0  0  0  0  0  0  0  0  0  0  0  0
  -30.6504  -10.1122  144.5085 O   0  0  0  0  0  0  0  0  0  0  0  0
  -26.6409  -10.8287  139.3602 O   0  0  0  0  0  0  0  0  0  0  0  0
  -26.7366  -12.0007  138.6444 C   0  0  0  0  0  0  0  0  0  0  0  0
  -23.9024  -19.8733  146.7963 O   0  0  0  0  0  0  0  0  0  0  0  0
  -23.6169  -19.8708  144.6431 O   0  0  0  0  0  0  0  0  0  0  0  0
  1  2  1  0
  2  3  1  0
  3  4  1  0
  4  5  1  0
  5  6  1  0
  6  7  2  3
  7  8  1  0
 11 14  1  0
 14 15  1  0
 15 16  1  0
 16 17  1  0
 17 18  2  3
 17 19  1  0
 19 20  1  0
 20 21  1  0
 15 22  1  0
 20 22  1  0
 18 23  1  0
  1 24  1  0
 24 25  1  0
  6 26  1  0
 25 26  1  0
 26 27  2  0
  3 28  1  0
 28 29  2  0
  1 30  1  0
 14 31  2  0
 21 32  1  0
 32 33  1  0
 30 34  2  0
 30 35  1  0
  8  9  2  0
  9 10  1  0
 10 11  2  0
 11 12  1  0
 12 13  2  0
 13  8  1  0
M  END

$$$$
No_307-/dssg/home/sw_qyf/PocketFlow/Model-Generation-Results/5HT2A_7WC7_rec_A_10.pdb/2024-01-01-03-54-21/
     RDKit          3D

 13 14  0  0  0  0  0  0  0  0999 V2000
  -23.1746  -16.6014  144.8668 C   0  0  0  0  0  0  0  0  0  0  0  0
  -23.8963  -15.5346  144.7885 C   0  0  0  0  0  0  0  0  0  0  0  0
  -24.5755  -15.0383  145.9043 C   0  0  0  0  0  0  0  0  0  0  0  0
  -25.0618  -13.6819  146.0347 C   0  0  0  0  0  0  0  0  0  0  0  0
  -24.0242  -12.8249  145.9593 C   0  0  0  0  0  0  0  0  0  0  0  0
  -23.4085  -17.5675  145.8907 C   0  0  0  0  0  0  0  0  0  0  0  0
  -24.1896  -17.1706  147.0047 C   0  0  0  0  0  0  0  0  0  0  0  0
  -24.7247  -15.8941  147.1004 C   0  0  0  0  0  0  0  0  0  0  0  0
  -26.3494  -13.2630  146.1682 C   0  0  0  0  0  0  0  0  0  0  0  0
  -26.7104  -11.9000  146.2155 C   0  0  0  0  0  0  0  0  0  0  0  0
  -24.3678  -11.3778  145.9515 C   0  0  0  0  0  0  0  0  0  0  0  0
  -25.6447  -10.9766  146.0378 C   0  0  0  0  0  0  0  0  0  0  0  0
  -23.7438  -14.6433  143.8364 O   0  0  0  0  0  0  0  0  0  0  0  0
  3  4  1  0
  2 13  1  0
  1  2  2  0
  2  3  1  0
  3  8  2  0
  8  7  1  0
  7  6  2  0
  6  1  1  0
  4  5  2  0
  5 11  1  0
 11 12  2  0
 12 10  1  0
 10  9  2  0
  9  4  1  0
M  END

$$$$
No_308-/dssg/home/sw_qyf/PocketFlow/Model-Generation-Results/5HT2A_7WC7_rec_A_10.pdb/2024-01-01-03-54-21/
     RDKit          3D

 35 37  0  0  0  0  0  0  0  0999 V2000
  -23.1746  -16.6014  144.8668 C   0  0  0  0  0  0  0  0  0  0  0  0
  -23.8963  -15.5346  144.7885 C   0  0  0  0  0  0  0  0  0  0  0  0
  -23.6398  -14.5115  145.3281 C   0  0  0  0  0  0  0  0  0  0  0  0
  -24.3240  -13.3648  145.1281 C   0  0  0  0  0  0  0  0  0  0  0  0
  -25.5072  -13.2953  144.4353 C   0  0  0  0  0  0  0  0  0  0  0  0
  -25.9151  -14.5889  143.8605 C   0  0  0  0  0  0  0  0  0  0  0  0
  -25.1243  -15.6356  144.0574 C   0  0  0  0  0  0  0  0  0  0  0  0
  -23.5861  -17.5125  145.7551 O   0  0  0  0  0  0  0  0  0  0  0  0
  -23.3852  -17.1490  146.9744 C   0  0  0  0  0  0  0  0  0  0  0  0
  -24.5200  -17.5370  147.9480 C   0  0  0  0  0  0  0  0  0  0  0  0
  -25.7748  -17.0605  147.7900 C   0  0  0  0  0  0  0  0  0  0  0  0
  -26.3618  -16.4150  148.9555 C   0  0  0  0  0  0  0  0  0  0  0  0
  -23.8880  -11.9993  145.7798 C   0  0  0  0  0  0  0  0  0  0  0  0
  -27.4109  -17.3489  149.1893 C   0  0  0  0  0  0  0  0  0  0  0  0
  -28.6150  -16.9783  148.2637 C   0  0  0  0  0  0  0  0  0  0  0  0
  -28.2501  -16.2440  147.1206 C   0  0  0  0  0  0  0  0  0  0  0  0
  -26.8321  -16.4867  146.7198 C   0  0  0  0  0  0  0  0  0  0  0  0
  -24.2352  -10.9669  145.3174 F   0  0  0  0  0  0  0  0  0  0  0  0
  -24.4195  -11.9903  147.1055 F   0  0  0  0  0  0  0  0  0  0  0  0
  -22.5595  -11.9883  145.8516 F   0  0  0  0  0  0  0  0  0  0  0  0
  -27.2292  -14.5121  143.1610 C   0  0  0  0  0  0  0  0  0  0  0  0
  -27.0206  -14.3560  141.7458 C   0  0  0  0  0  0  0  0  0  0  0  0
  -26.7758  -12.8563  141.3286 C   0  0  0  0  0  0  0  0  0  0  0  0
  -27.8299  -11.9987  141.7062 C   0  0  0  0  0  0  0  0  0  0  0  0
  -28.2536  -11.5973  142.8401 C   0  0  0  0  0  0  0  0  0  0  0  0
  -29.1596  -10.5529  143.1220 C   0  0  0  0  0  0  0  0  0  0  0  0
  -29.7042   -9.8879  141.9557 C   0  0  0  0  0  0  0  0  0  0  0  0
  -29.1058  -10.1401  140.7472 C   0  0  0  0  0  0  0  0  0  0  0  0
  -28.1814  -11.2168  140.5477 C   0  0  0  0  0  0  0  0  0  0  0  0
  -27.6723  -11.3897  139.2155 C   0  0  0  0  0  0  0  0  0  0  0  0
  -30.7050   -8.8485  142.1873 C   0  0  0  0  0  0  0  0  0  0  0  0
  -30.4558   -7.8523  143.2846 C   0  0  0  0  0  0  0  0  0  0  0  0
  -31.9951   -9.5260  142.4185 O   0  0  0  0  0  0  0  0  0  0  0  0
  -27.5800  -12.3527  138.6162 C   0  0  0  0  0  0  0  0  0  0  0  0
  -27.1717  -12.3407  137.2959 F   0  0  0  0  0  0  0  0  0  0  0  0
  1  2  1  0
  1  8  1  0
  8  9  1  0
  9 10  1  0
 10 11  1  0
 11 12  1  0
  4 13  1  0
 12 14  1  0
 14 15  1  0
 15 16  1  0
 11 17  1  0
 16 17  1  0
 13 18  1  0
 13 19  1  0
 13 20  1  0
  6 21  1  0
 21 22  1  0
 22 23  1  0
 23 24  1  0
 29 30  1  0
 27 31  1  0
 31 32  1  0
 31 33  1  0
 30 34  2  3
 34 35  1  0
  2  3  2  0
  3  4  1  0
  4  5  2  0
  5  6  1  0
  6  7  2  0
  7  2  1  0
 24 25  2  0
 25 26  1  0
 26 27  2  0
 27 28  1  0
 28 29  2  0
 29 24  1  0
M  END

$$$$
No_309-/dssg/home/sw_qyf/PocketFlow/Model-Generation-Results/5HT2A_7WC7_rec_A_10.pdb/2024-01-01-03-54-21/
     RDKit          3D

 35 38  0  0  0  0  0  0  0  0999 V2000
  -24.1553  -17.8465  145.7021 C   0  0  0  0  0  0  0  0  0  0  0  0
  -23.9795  -18.4462  146.7426 C   0  0  0  0  0  0  0  0  0  0  0  0
  -23.2486  -17.2339  144.9771 C   0  0  0  0  0  0  0  0  0  0  0  0
  -22.6834  -18.2906  147.4267 C   0  0  0  0  0  0  0  0  0  0  0  0
  -22.3109  -17.1214  147.6732 C   0  0  0  0  0  0  0  0  0  0  0  0
  -23.9372  -16.0701  144.1938 C   0  0  0  0  0  0  0  0  0  0  0  0
  -24.2969  -14.8471  144.9762 C   0  0  0  0  0  0  0  0  0  0  0  0
  -24.1035  -13.6777  144.3494 C   0  0  0  0  0  0  0  0  0  0  0  0
  -24.5885  -12.4707  145.1493 C   0  0  0  0  0  0  0  0  0  0  0  0
  -25.6663  -12.7865  146.0670 C   0  0  0  0  0  0  0  0  0  0  0  0
  -25.7739  -14.0234  146.7172 C   0  0  0  0  0  0  0  0  0  0  0  0
  -24.9864  -14.9821  146.1272 C   0  0  0  0  0  0  0  0  0  0  0  0
  -27.0015  -12.1635  145.6432 C   0  0  0  0  0  0  0  0  0  0  0  0
  -27.0313  -11.1718  144.7230 C   0  0  0  0  0  0  0  0  0  0  0  0
  -28.2697  -10.5954  144.2775 C   0  0  0  0  0  0  0  0  0  0  0  0
  -28.4213   -9.7810  143.1468 C   0  0  0  0  0  0  0  0  0  0  0  0
  -29.4491   -8.8742  143.0413 C   0  0  0  0  0  0  0  0  0  0  0  0
  -29.5299   -7.9731  141.9582 C   0  0  0  0  0  0  0  0  0  0  0  0
  -29.1656   -8.4790  140.6427 C   0  0  0  0  0  0  0  0  0  0  0  0
  -28.2725   -9.5551  140.5753 C   0  0  0  0  0  0  0  0  0  0  0  0
  -27.7549  -10.0757  139.3918 C   0  0  0  0  0  0  0  0  0  0  0  0
  -28.0068  -10.3077  141.9300 C   0  0  0  0  0  0  0  0  0  0  0  0
  -28.0511   -9.4595  138.2139 C   0  0  0  0  0  0  0  0  0  0  0  0
  -28.8163   -8.2144  138.2430 C   0  0  0  0  0  0  0  0  0  0  0  0
  -29.3125   -7.7217  139.4658 C   0  0  0  0  0  0  0  0  0  0  0  0
  -28.1971  -12.5569  146.2956 C   0  0  0  0  0  0  0  0  0  0  0  0
  -29.3941  -11.9141  146.1171 C   0  0  0  0  0  0  0  0  0  0  0  0
  -29.4483  -10.9715  145.0105 C   0  0  0  0  0  0  0  0  0  0  0  0
  -26.9482  -11.3005  139.4057 C   0  0  0  0  0  0  0  0  0  0  0  0
  -27.5371  -12.5472  139.8458 C   0  0  0  0  0  0  0  0  0  0  0  0
  -26.7350  -13.3127  140.8208 C   0  0  0  0  0  0  0  0  0  0  0  0
  -27.4109  -13.6431  142.0614 O   0  0  0  0  0  0  0  0  0  0  0  0
  -30.2460   -6.8731  142.0684 O   0  0  0  0  0  0  0  0  0  0  0  0
  -25.6573  -13.8106  140.6689 O   0  0  0  0  0  0  0  0  0  0  0  0
  -30.4698  -12.2307  146.8338 O   0  0  0  0  0  0  0  0  0  0  0  0
  1  2  1  0
  1  3  2  3
  2  4  1  0
  4  5  1  0
  3  6  1  0
  6  7  1  0
 10 13  1  0
 15 16  1  0
 17 18  1  0
 18 19  1  0
 16 22  1  0
 20 22  1  0
 21 29  1  0
 29 30  1  0
 30 31  1  0
 31 32  2  0
 18 33  2  0
 31 34  1  0
 27 35  1  0
 17 16  1  0
 13 14  2  0
 14 15  1  0
 15 28  2  0
 28 27  1  0
 27 26  2  0
 26 13  1  0
  7  8  2  0
  8  9  1  0
  9 10  2  0
 10 11  1  0
 11 12  2  0
 12  7  1  0
 19 20  2  0
 20 21  1  0
 21 23  2  0
 23 24  1  0
 24 25  2  0
 25 19  1  0
M  END

$$$$
No_310-/dssg/home/sw_qyf/PocketFlow/Model-Generation-Results/5HT2A_7WC7_rec_A_10.pdb/2024-01-01-03-54-21/
     RDKit          3D

 18 20  0  0  0  0  0  0  0  0999 V2000
  -24.1553  -17.8465  145.7021 C   0  0  0  0  0  0  0  0  0  0  0  0
  -24.2856  -16.6364  145.3494 C   0  0  0  0  0  0  0  0  0  0  0  0
  -25.0033  -15.6772  146.0737 C   0  0  0  0  0  0  0  0  0  0  0  0
  -25.7224  -16.0756  147.0213 C   0  0  0  0  0  0  0  0  0  0  0  0
  -26.8990  -15.4143  147.4599 C   0  0  0  0  0  0  0  0  0  0  0  0
  -24.8794  -18.3534  146.7910 C   0  0  0  0  0  0  0  0  0  0  0  0
  -25.7137  -17.4533  147.4258 C   0  0  0  0  0  0  0  0  0  0  0  0
  -27.2838  -14.1242  146.9069 C   0  0  0  0  0  0  0  0  0  0  0  0
  -28.3861  -13.3805  147.2716 C   0  0  0  0  0  0  0  0  0  0  0  0
  -28.6594  -12.1219  146.7186 C   0  0  0  0  0  0  0  0  0  0  0  0
  -27.8245  -11.6199  145.7085 C   0  0  0  0  0  0  0  0  0  0  0  0
  -26.6778  -12.3527  145.3746 C   0  0  0  0  0  0  0  0  0  0  0  0
  -26.3799  -13.5680  145.9468 C   0  0  0  0  0  0  0  0  0  0  0  0
  -25.1768  -14.2512  145.4590 C   0  0  0  0  0  0  0  0  0  0  0  0
  -23.4871  -16.1592  144.2283 N   0  0  0  0  0  0  0  0  0  0  0  0
  -30.1114  -11.2638  147.1804 Cl  0  0  0  0  0  0  0  0  0  0  0  0
  -24.7925  -14.0498  144.2995 O   0  0  0  0  0  0  0  0  0  0  0  0
  -23.0098  -14.9050  144.2174 C   0  0  0  0  0  0  0  0  0  0  0  0
  5  8  1  0
  3 14  1  0
 13 14  1  0
  2 15  1  0
 10 16  1  0
 14 17  2  0
 15 18  1  0
  4  5  1  0
  8  9  2  0
  9 10  1  0
 10 11  2  0
 11 12  1  0
 12 13  2  0
 13  8  1  0
  1  2  2  0
  2  3  1  0
  3  4  2  0
  4  7  1  0
  7  6  2  0
  6  1  1  0
M  END

$$$$
No_311-/dssg/home/sw_qyf/PocketFlow/Model-Generation-Results/5HT2A_7WC7_rec_A_10.pdb/2024-01-01-03-54-21/
     RDKit          3D

 35 37  0  0  0  0  0  0  0  0999 V2000
  -23.8931  -18.2534  145.3804 F   0  0  0  0  0  0  0  0  0  0  0  0
  -24.3394  -17.2619  146.1054 C   0  0  0  0  0  0  0  0  0  0  0  0
  -24.5130  -16.0162  145.5718 C   0  0  0  0  0  0  0  0  0  0  0  0
  -23.7439  -15.6911  144.4293 C   0  0  0  0  0  0  0  0  0  0  0  0
  -23.7776  -14.2894  143.9726 C   0  0  0  0  0  0  0  0  0  0  0  0
  -24.6854  -13.4322  144.6541 C   0  0  0  0  0  0  0  0  0  0  0  0
  -25.4638  -13.7812  145.7484 C   0  0  0  0  0  0  0  0  0  0  0  0
  -25.3325  -15.1289  146.2273 C   0  0  0  0  0  0  0  0  0  0  0  0
  -23.5433  -17.3701  147.2917 F   0  0  0  0  0  0  0  0  0  0  0  0
  -25.6180  -17.7775  146.4586 F   0  0  0  0  0  0  0  0  0  0  0  0
  -26.2620  -12.8075  146.4750 C   0  0  0  0  0  0  0  0  0  0  0  0
  -27.6679  -12.8731  146.2542 C   0  0  0  0  0  0  0  0  0  0  0  0
  -28.3874  -11.6655  146.0207 C   0  0  0  0  0  0  0  0  0  0  0  0
  -27.8703  -10.5526  145.4913 C   0  0  0  0  0  0  0  0  0  0  0  0
  -26.5693  -10.4543  145.0917 C   0  0  0  0  0  0  0  0  0  0  0  0
  -29.8578  -11.7330  146.2862 C   0  0  0  0  0  0  0  0  0  0  0  0
  -30.1418  -11.2454  147.1967 O   0  0  0  0  0  0  0  0  0  0  0  0
  -25.7035  -11.3951  145.9823 C   0  0  0  0  0  0  0  0  0  0  0  0
  -30.5370  -12.3517  145.5183 O   0  0  0  0  0  0  0  0  0  0  0  0
  -22.7753  -13.8329  143.3236 O   0  0  0  0  0  0  0  0  0  0  0  0
  -28.2178  -13.8587  146.7872 F   0  0  0  0  0  0  0  0  0  0  0  0
  -26.0497   -9.6012  144.4445 O   0  0  0  0  0  0  0  0  0  0  0  0
  -28.6846   -9.6987  144.8736 O   0  0  0  0  0  0  0  0  0  0  0  0
  -28.5874   -9.4164  143.5191 C   0  0  0  0  0  0  0  0  0  0  0  0
  -29.2714   -8.2238  143.1308 C   0  0  0  0  0  0  0  0  0  0  0  0
  -29.4954   -7.9404  141.7605 C   0  0  0  0  0  0  0  0  0  0  0  0
  -28.8871   -8.8841  140.8166 C   0  0  0  0  0  0  0  0  0  0  0  0
  -28.2186  -10.0627  141.3012 C   0  0  0  0  0  0  0  0  0  0  0  0
  -28.1041  -10.2640  142.6871 C   0  0  0  0  0  0  0  0  0  0  0  0
  -28.9878   -8.5623  139.4382 C   0  0  0  0  0  0  0  0  0  0  0  0
  -29.5785   -7.3875  138.9811 C   0  0  0  0  0  0  0  0  0  0  0  0
  -28.1473   -9.2312  138.5033 C   0  0  0  0  0  0  0  0  0  0  0  0
  -27.4502  -10.2021  138.9390 O   0  0  0  0  0  0  0  0  0  0  0  0
  -27.0211  -11.1600  138.2136 C   0  0  0  0  0  0  0  0  0  0  0  0
  -26.2956  -12.2330  139.0715 C   0  0  0  0  0  0  0  0  0  0  0  0
  1  2  1  0
  2  3  1  0
  2  9  1  0
  2 10  1  0
  7 11  1  0
 11 12  1  0
 13 14  1  0
 14 15  1  0
 13 16  1  0
 16 17  1  0
 11 18  1  0
 15 18  1  0
 16 19  2  0
  5 20  1  0
 12 21  1  0
 15 22  2  0
 14 23  1  0
 23 24  1  0
 27 30  1  0
 30 31  2  0
 30 32  1  0
 32 33  1  0
 33 34  1  0
 34 35  1  0
 13 12  1  0
 24 25  2  0
 25 26  1  0
 26 27  2  0
 27 28  1  0
 28 29  2  0
 29 24  1  0
  3  4  2  0
  4  5  1  0
  5  6  2  0
  6  7  1  0
  7  8  2  0
  8  3  1  0
M  END

$$$$
No_312-/dssg/home/sw_qyf/PocketFlow/Model-Generation-Results/5HT2A_7WC7_rec_A_10.pdb/2024-01-01-03-54-21/
     RDKit          3D

 29 30  0  0  0  0  0  0  0  0999 V2000
  -23.1746  -16.6014  144.8668 C   0  0  0  0  0  0  0  0  0  0  0  0
  -24.0189  -16.0564  145.8445 C   0  0  0  0  0  0  0  0  0  0  0  0
  -24.4850  -14.7380  145.6359 C   0  0  0  0  0  0  0  0  0  0  0  0
  -24.0208  -14.0081  144.6269 C   0  0  0  0  0  0  0  0  0  0  0  0
  -24.4092  -12.5999  144.5318 C   0  0  0  0  0  0  0  0  0  0  0  0
  -25.2165  -12.1839  145.5008 C   0  0  0  0  0  0  0  0  0  0  0  0
  -25.7821  -12.8568  146.5220 C   0  0  0  0  0  0  0  0  0  0  0  0
  -25.3613  -14.2280  146.6461 C   0  0  0  0  0  0  0  0  0  0  0  0
  -24.4140  -16.8566  146.9528 C   0  0  0  0  0  0  0  0  0  0  0  0
  -23.9567  -18.0957  147.1636 C   0  0  0  0  0  0  0  0  0  0  0  0
  -23.2045  -18.7014  146.1020 C   0  0  0  0  0  0  0  0  0  0  0  0
  -22.9298  -17.9987  145.0252 N   0  0  0  0  0  0  0  0  0  0  0  0
  -25.6242  -10.8085  145.3861 O   0  0  0  0  0  0  0  0  0  0  0  0
  -26.7946  -10.5428  144.6695 C   0  0  0  0  0  0  0  0  0  0  0  0
  -27.9590  -11.1397  145.1248 C   0  0  0  0  0  0  0  0  0  0  0  0
  -28.2080  -12.0862  146.0555 C   0  0  0  0  0  0  0  0  0  0  0  0
  -29.5156  -12.4847  146.4908 C   0  0  0  0  0  0  0  0  0  0  0  0
  -29.7220  -13.4154  147.5091 C   0  0  0  0  0  0  0  0  0  0  0  0
  -30.1427  -14.4381  147.4473 C   0  0  0  0  0  0  0  0  0  0  0  0
  -30.0728  -15.3942  148.6584 C   0  0  0  0  0  0  0  0  0  0  0  0
  -26.7562   -9.6098  143.8521 O   0  0  0  0  0  0  0  0  0  0  0  0
  -29.0518  -10.7861  144.1480 C   0  0  0  0  0  0  0  0  0  0  0  0
  -29.0810   -9.5382  143.5142 C   0  0  0  0  0  0  0  0  0  0  0  0
  -30.2033   -9.1798  142.6621 C   0  0  0  0  0  0  0  0  0  0  0  0
  -31.4820   -9.6747  142.7807 C   0  0  0  0  0  0  0  0  0  0  0  0
  -29.9170   -8.3100  141.4986 C   0  0  0  0  0  0  0  0  0  0  0  0
  -29.9991   -7.2204  141.2499 C   0  0  0  0  0  0  0  0  0  0  0  0
  -29.5208   -6.6441  140.0640 N   0  0  0  0  0  0  0  0  0  0  0  0
  -29.0626   -7.6089  139.2735 C   0  0  0  0  0  0  0  0  0  0  0  0
  2  3  1  0
  6 13  1  0
 13 14  1  0
 14 15  2  3
 15 16  1  0
 16 17  2  3
 17 18  1  0
 18 19  2  3
 19 20  1  0
 14 21  1  0
 15 22  1  0
 22 23  1  0
 23 24  1  0
 24 25  1  0
 24 26  1  0
 26 27  2  3
 27 28  1  0
 28 29  2  0
  1  2  2  0
  2  9  1  0
  9 10  2  0
 10 11  1  0
 11 12  2  0
 12  1  1  0
  3  4  2  0
  4  5  1  0
  5  6  2  0
  6  7  1  0
  7  8  2  0
  8  3  1  0
M  END

$$$$
No_313-/dssg/home/sw_qyf/PocketFlow/Model-Generation-Results/5HT2A_7WC7_rec_A_10.pdb/2024-01-01-03-54-21/
     RDKit          3D

 24 26  0  0  0  0  0  0  0  0999 V2000
  -23.8042  -18.1535  145.4053 O   0  0  0  0  0  0  0  0  0  0  0  0
  -23.9974  -18.3151  146.4113 C   0  0  0  0  0  0  0  0  0  0  0  0
  -24.7032  -17.3763  147.2783 C   0  0  0  0  0  0  0  0  0  0  0  0
  -25.3564  -16.3655  146.7417 C   0  0  0  0  0  0  0  0  0  0  0  0
  -24.6619  -15.5458  145.8513 C   0  0  0  0  0  0  0  0  0  0  0  0
  -25.2150  -14.2329  145.4728 C   0  0  0  0  0  0  0  0  0  0  0  0
  -26.4586  -13.9250  145.6388 C   0  0  0  0  0  0  0  0  0  0  0  0
  -26.9476  -12.6292  145.3549 C   0  0  0  0  0  0  0  0  0  0  0  0
  -25.9802  -11.5956  145.0990 C   0  0  0  0  0  0  0  0  0  0  0  0
  -24.6094  -11.9088  145.1171 C   0  0  0  0  0  0  0  0  0  0  0  0
  -24.1908  -13.1863  145.3984 C   0  0  0  0  0  0  0  0  0  0  0  0
  -28.3676  -12.2485  145.4917 C   0  0  0  0  0  0  0  0  0  0  0  0
  -28.9315  -11.0809  144.6875 C   0  0  0  0  0  0  0  0  0  0  0  0
  -29.8485  -10.2398  145.3572 C   0  0  0  0  0  0  0  0  0  0  0  0
  -30.4437   -9.2330  144.6004 C   0  0  0  0  0  0  0  0  0  0  0  0
  -30.2567   -8.9740  143.2609 C   0  0  0  0  0  0  0  0  0  0  0  0
  -30.8282   -7.9761  142.5144 C   0  0  0  0  0  0  0  0  0  0  0  0
  -30.4075   -7.7829  141.1410 C   0  0  0  0  0  0  0  0  0  0  0  0
  -29.3466   -8.6264  140.6681 C   0  0  0  0  0  0  0  0  0  0  0  0
  -28.8227   -8.4651  139.3411 C   0  0  0  0  0  0  0  0  0  0  0  0
  -27.9209   -9.3763  138.8103 C   0  0  0  0  0  0  0  0  0  0  0  0
  -29.1701   -9.6050  142.4070 C   0  0  0  0  0  0  0  0  0  0  0  0
  -28.9194   -9.4383  141.2525 N   0  0  0  0  0  0  0  0  0  0  0  0
  -28.5915  -10.8416  143.3275 C   0  0  0  0  0  0  0  0  0  0  0  0
  1  2  2  0
  2  3  1  0
  3  4  1  0
  4  5  1  0
  5  6  1  0
  8 12  1  0
 19 20  1  0
 20 21  2  0
 12 13  1  0
 16 17  1  0
 17 18  2  0
 18 19  1  0
 19 23  2  0
 23 22  1  0
 13 14  2  0
 14 15  1  0
 15 16  2  0
 16 22  1  0
 22 24  2  0
 24 13  1  0
  6  7  2  0
  7  8  1  0
  8  9  2  0
  9 10  1  0
 10 11  2  0
 11  6  1  0
M  END

$$$$
No_314-/dssg/home/sw_qyf/PocketFlow/Model-Generation-Results/5HT2A_7WC7_rec_A_10.pdb/2024-01-01-03-54-21/
     RDKit          3D

 35 36  0  0  0  0  0  0  0  0999 V2000
  -23.1746  -16.6014  144.8668 C   0  0  0  0  0  0  0  0  0  0  0  0
  -23.8963  -15.5346  144.7885 C   0  0  0  0  0  0  0  0  0  0  0  0
  -25.0304  -15.2549  144.5358 C   0  0  0  0  0  0  0  0  0  0  0  0
  -25.8853  -14.7934  145.2672 C   0  0  0  0  0  0  0  0  0  0  0  0
  -27.3492  -14.8162  145.2842 C   0  0  0  0  0  0  0  0  0  0  0  0
  -28.1066  -14.1519  146.2791 C   0  0  0  0  0  0  0  0  0  0  0  0
  -29.2349  -14.5841  146.8920 C   0  0  0  0  0  0  0  0  0  0  0  0
  -30.0213  -13.7219  147.6497 C   0  0  0  0  0  0  0  0  0  0  0  0
  -29.6150  -12.3425  147.7958 C   0  0  0  0  0  0  0  0  0  0  0  0
  -28.4517  -11.8445  147.1982 C   0  0  0  0  0  0  0  0  0  0  0  0
  -27.6836  -12.7697  146.4460 C   0  0  0  0  0  0  0  0  0  0  0  0
  -26.4358  -12.1154  146.0876 C   0  0  0  0  0  0  0  0  0  0  0  0
  -25.9263  -10.8971  146.1164 C   0  0  0  0  0  0  0  0  0  0  0  0
  -25.4685  -13.3070  145.3686 C   0  0  0  0  0  0  0  0  0  0  0  0
  -23.9957  -17.7478  145.2146 C   0  0  0  0  0  0  0  0  0  0  0  0
  -24.7725  -17.5544  146.4382 C   0  0  0  0  0  0  0  0  0  0  0  0
  -24.1210  -17.7726  147.6229 C   0  0  0  0  0  0  0  0  0  0  0  0
  -24.7702  -17.4476  148.8797 C   0  0  0  0  0  0  0  0  0  0  0  0
  -24.1135  -17.4193  150.1302 C   0  0  0  0  0  0  0  0  0  0  0  0
  -22.9861  -16.7060  150.2840 C   0  0  0  0  0  0  0  0  0  0  0  0
  -22.2367  -16.7130  151.5689 C   0  0  0  0  0  0  0  0  0  0  0  0
  -26.1388  -17.0459  148.7271 C   0  0  0  0  0  0  0  0  0  0  0  0
  -26.8364  -16.7504  149.8194 N   0  0  0  0  0  0  0  0  0  0  0  0
  -26.7960  -16.9539  147.6740 O   0  0  0  0  0  0  0  0  0  0  0  0
  -23.7927  -18.9510  144.7452 O   0  0  0  0  0  0  0  0  0  0  0  0
  -20.8730  -16.1700  151.6120 C   0  0  0  0  0  0  0  0  0  0  0  0
  -20.4380  -15.5147  150.6695 O   0  0  0  0  0  0  0  0  0  0  0  0
  -31.1645  -14.0837  148.2706 O   0  0  0  0  0  0  0  0  0  0  0  0
  -31.6044  -13.2729  149.3751 C   0  0  0  0  0  0  0  0  0  0  0  0
  -31.7946  -13.9463  150.5973 C   0  0  0  0  0  0  0  0  0  0  0  0
  -31.5432  -15.2880  150.8058 C   0  0  0  0  0  0  0  0  0  0  0  0
  -30.6712  -15.9648  149.9480 C   0  0  0  0  0  0  0  0  0  0  0  0
  -30.0632  -17.1998  150.4846 C   0  0  0  0  0  0  0  0  0  0  0  0
  -30.1354  -17.5036  151.7994 C   0  0  0  0  0  0  0  0  0  0  0  0
  -30.9708  -16.7818  152.6946 C   0  0  0  0  0  0  0  0  0  0  0  0
  1  2  1  0
  2  3  2  3
  3  4  1  0
  4  5  1  0
  5  6  1  0
 11 12  1  0
 12 13  2  0
  4 14  1  0
 12 14  1  0
  1 15  1  0
 15 16  1  0
 16 17  2  3
 17 18  1  0
 18 19  1  0
 19 20  2  3
 20 21  1  0
 18 22  1  0
 22 23  1  0
 22 24  2  0
 15 25  2  0
 21 26  1  0
 26 27  2  0
  8 28  1  0
 28 29  1  0
 29 30  1  0
 30 31  2  3
 31 32  1  0
 32 33  2  3
 33 34  1  0
 34 35  2  0
  6  7  2  0
  7  8  1  0
  8  9  2  0
  9 10  1  0
 10 11  2  0
 11  6  1  0
M  END

$$$$
No_315-/dssg/home/sw_qyf/PocketFlow/Model-Generation-Results/5HT2A_7WC7_rec_A_10.pdb/2024-01-01-03-54-21/
     RDKit          3D

 13 14  0  0  0  0  0  0  0  0999 V2000
  -24.1553  -17.8465  145.7021 C   0  0  0  0  0  0  0  0  0  0  0  0
  -23.9795  -18.4462  146.7426 C   0  0  0  0  0  0  0  0  0  0  0  0
  -25.1196  -16.8106  145.6409 C   0  0  0  0  0  0  0  0  0  0  0  0
  -25.9236  -16.5070  146.7422 C   0  0  0  0  0  0  0  0  0  0  0  0
  -25.6627  -17.1841  147.9274 C   0  0  0  0  0  0  0  0  0  0  0  0
  -24.6813  -18.1540  148.0079 C   0  0  0  0  0  0  0  0  0  0  0  0
  -26.9716  -15.4553  146.6645 C   0  0  0  0  0  0  0  0  0  0  0  0
  -26.7557  -14.3988  145.8960 C   0  0  0  0  0  0  0  0  0  0  0  0
  -25.6923  -14.1282  145.0530 C   0  0  0  0  0  0  0  0  0  0  0  0
  -25.5214  -13.0205  144.2102 C   0  0  0  0  0  0  0  0  0  0  0  0
  -26.7043  -12.2307  144.1517 C   0  0  0  0  0  0  0  0  0  0  0  0
  -27.7134  -12.2675  145.1258 C   0  0  0  0  0  0  0  0  0  0  0  0
  -27.8170  -13.4409  145.9523 C   0  0  0  0  0  0  0  0  0  0  0  0
  4  7  1  0
  7  8  1  0
  1  2  2  0
  2  6  1  0
  6  5  2  0
  5  4  1  0
  4  3  2  0
  3  1  1  0
  8  9  2  0
  9 10  1  0
 10 11  2  0
 11 12  1  0
 12 13  2  0
 13  8  1  0
M  END

$$$$
No_316-/dssg/home/sw_qyf/PocketFlow/Model-Generation-Results/5HT2A_7WC7_rec_A_10.pdb/2024-01-01-03-54-21/
     RDKit          3D

 24 26  0  0  0  0  0  0  0  0999 V2000
  -23.1746  -16.6014  144.8668 C   0  0  0  0  0  0  0  0  0  0  0  0
  -23.8963  -15.5346  144.7885 C   0  0  0  0  0  0  0  0  0  0  0  0
  -25.0304  -15.2549  144.5358 C   0  0  0  0  0  0  0  0  0  0  0  0
  -26.0482  -16.0541  145.3273 C   0  0  0  0  0  0  0  0  0  0  0  0
  -24.1314  -17.6118  145.6547 C   0  0  0  0  0  0  0  0  0  0  0  0
  -25.4664  -17.2664  145.8096 C   0  0  0  0  0  0  0  0  0  0  0  0
  -25.6086  -13.9401  144.0493 C   0  0  0  0  0  0  0  0  0  0  0  0
  -26.3981  -13.1589  144.9487 C   0  0  0  0  0  0  0  0  0  0  0  0
  -27.2089  -12.1434  144.4958 C   0  0  0  0  0  0  0  0  0  0  0  0
  -27.0080  -10.9227  144.8471 C   0  0  0  0  0  0  0  0  0  0  0  0
  -26.4429  -10.7868  146.0424 F   0  0  0  0  0  0  0  0  0  0  0  0
  -27.8488   -9.9787  144.6377 F   0  0  0  0  0  0  0  0  0  0  0  0
  -23.5837  -18.9115  146.0438 C   0  0  0  0  0  0  0  0  0  0  0  0
  -22.7252  -18.8311  146.9555 O   0  0  0  0  0  0  0  0  0  0  0  0
  -24.0898  -19.9376  145.6612 O   0  0  0  0  0  0  0  0  0  0  0  0
  -25.8306  -10.4662  144.1589 F   0  0  0  0  0  0  0  0  0  0  0  0
  -27.4040  -15.7640  145.5195 C   0  0  0  0  0  0  0  0  0  0  0  0
  -27.5573  -14.3397  145.9096 C   0  0  0  0  0  0  0  0  0  0  0  0
  -28.3427  -13.6799  146.7666 C   0  0  0  0  0  0  0  0  0  0  0  0
  -28.6565  -12.3572  147.0124 C   0  0  0  0  0  0  0  0  0  0  0  0
  -28.9623  -14.5885  147.7685 C   0  0  0  0  0  0  0  0  0  0  0  0
  -29.6125  -11.9351  148.0002 C   0  0  0  0  0  0  0  0  0  0  0  0
  -30.3785  -12.9341  148.6749 C   0  0  0  0  0  0  0  0  0  0  0  0
  -29.9432  -14.2575  148.6140 C   0  0  0  0  0  0  0  0  0  0  0  0
  3  7  1  0
  7  8  1  0
  8  9  1  0
  9 10  1  0
 10 11  1  0
 10 12  1  0
  5 13  1  0
 13 14  1  0
 13 15  2  0
 10 16  1  0
  4 17  1  0
  8 18  1  0
 17 18  1  0
 18 19  1  0
  1  2  2  0
  2  3  1  0
  3  4  2  0
  4  6  1  0
  6  5  2  0
  5  1  1  0
 19 20  2  0
 20 22  1  0
 22 23  2  0
 23 24  1  0
 24 21  2  0
 21 19  1  0
M  END

$$$$
No_317-/dssg/home/sw_qyf/PocketFlow/Model-Generation-Results/5HT2A_7WC7_rec_A_10.pdb/2024-01-01-03-54-21/
     RDKit          3D

 13 14  0  0  0  0  0  0  0  0999 V2000
  -24.1553  -17.8465  145.7021 C   0  0  0  0  0  0  0  0  0  0  0  0
  -24.2856  -16.6364  145.3494 C   0  0  0  0  0  0  0  0  0  0  0  0
  -23.7824  -15.9602  144.3553 C   0  0  0  0  0  0  0  0  0  0  0  0
  -23.9871  -14.5276  144.1537 C   0  0  0  0  0  0  0  0  0  0  0  0
  -24.7876  -13.8357  145.1352 C   0  0  0  0  0  0  0  0  0  0  0  0
  -25.3945  -14.5459  146.1755 C   0  0  0  0  0  0  0  0  0  0  0  0
  -25.0741  -15.8908  146.3327 C   0  0  0  0  0  0  0  0  0  0  0  0
  -24.8307  -18.4158  146.7539 C   0  0  0  0  0  0  0  0  0  0  0  0
  -25.5167  -17.7424  147.6562 C   0  0  0  0  0  0  0  0  0  0  0  0
  -25.6721  -16.5338  147.5222 C   0  0  0  0  0  0  0  0  0  0  0  0
  -24.9986  -12.3967  144.9550 C   0  0  0  0  0  0  0  0  0  0  0  0
  -24.0793  -11.7030  145.5047 O   0  0  0  0  0  0  0  0  0  0  0  0
  -26.0121  -11.8949  144.5217 O   0  0  0  0  0  0  0  0  0  0  0  0
  5 11  1  0
 11 12  1  0
 11 13  2  0
  2  3  1  0
  3  4  2  0
  4  5  1  0
  5  6  2  0
  6  7  1  0
  1  2  2  0
  2  7  1  0
  7 10  2  0
 10  9  1  0
  9  8  2  0
  8  1  1  0
M  END

$$$$
No_318-/dssg/home/sw_qyf/PocketFlow/Model-Generation-Results/5HT2A_7WC7_rec_A_10.pdb/2024-01-01-03-54-21/
     RDKit          3D

 35 38  0  0  0  0  0  0  0  0999 V2000
  -24.1553  -17.8465  145.7021 C   0  0  0  0  0  0  0  0  0  0  0  0
  -24.2856  -16.6364  145.3494 C   0  0  0  0  0  0  0  0  0  0  0  0
  -24.1962  -15.9414  144.2650 C   0  0  0  0  0  0  0  0  0  0  0  0
  -24.3870  -14.5486  144.1162 C   0  0  0  0  0  0  0  0  0  0  0  0
  -24.7524  -13.8439  145.3544 C   0  0  0  0  0  0  0  0  0  0  0  0
  -24.8597  -14.5458  146.5907 C   0  0  0  0  0  0  0  0  0  0  0  0
  -24.5647  -15.8706  146.6408 C   0  0  0  0  0  0  0  0  0  0  0  0
  -24.5616  -18.0263  147.0185 C   0  0  0  0  0  0  0  0  0  0  0  0
  -24.7880  -16.8821  147.6460 C   0  0  0  0  0  0  0  0  0  0  0  0
  -24.9920  -12.3656  145.3843 C   0  0  0  0  0  0  0  0  0  0  0  0
  -26.0192  -11.8258  146.2487 C   0  0  0  0  0  0  0  0  0  0  0  0
  -27.3076  -11.6760  145.5480 C   0  0  0  0  0  0  0  0  0  0  0  0
  -27.8941  -12.4319  145.0267 C   0  0  0  0  0  0  0  0  0  0  0  0
  -29.2226  -12.0020  144.4753 C   0  0  0  0  0  0  0  0  0  0  0  0
  -29.5482  -10.6220  144.7484 C   0  0  0  0  0  0  0  0  0  0  0  0
  -29.7023   -9.8744  144.0986 N   0  0  0  0  0  0  0  0  0  0  0  0
  -28.9442   -9.3949  143.1174 C   0  0  0  0  0  0  0  0  0  0  0  0
  -29.5899   -9.1856  141.8839 C   0  0  0  0  0  0  0  0  0  0  0  0
  -30.7248   -8.3846  141.8196 C   0  0  0  0  0  0  0  0  0  0  0  0
  -31.7227   -8.9432  142.7708 C   0  0  0  0  0  0  0  0  0  0  0  0
  -31.1438   -8.9698  144.1964 C   0  0  0  0  0  0  0  0  0  0  0  0
  -23.8322  -16.5680  148.8779 C   0  0  0  0  0  0  0  0  0  0  0  0
  -26.2567  -16.7524  148.2296 C   0  0  0  0  0  0  0  0  0  0  0  0
  -28.9538   -9.7599  140.7436 C   0  0  0  0  0  0  0  0  0  0  0  0
  -28.4603   -9.0475  139.6458 C   0  0  0  0  0  0  0  0  0  0  0  0
  -27.8604   -9.5333  138.5448 C   0  0  0  0  0  0  0  0  0  0  0  0
  -28.6897  -11.1788  140.6634 C   0  0  0  0  0  0  0  0  0  0  0  0
  -27.9800  -11.7868  139.6691 C   0  0  0  0  0  0  0  0  0  0  0  0
  -27.6707  -10.9925  138.5404 C   0  0  0  0  0  0  0  0  0  0  0  0
  -28.6705   -7.6843  139.6404 F   0  0  0  0  0  0  0  0  0  0  0  0
  -24.1761  -11.5566  144.7967 O   0  0  0  0  0  0  0  0  0  0  0  0
  -26.5516  -17.2358  149.3445 O   0  0  0  0  0  0  0  0  0  0  0  0
  -27.0835  -15.8543  147.8016 O   0  0  0  0  0  0  0  0  0  0  0  0
  -23.2016  -17.7857  149.4929 C   0  0  0  0  0  0  0  0  0  0  0  0
  -22.6704  -17.4089  150.6604 O   0  0  0  0  0  0  0  0  0  0  0  0
  1  2  2  0
  2  3  1  0
  3  4  1  0
  4  5  1  0
  5  6  1  0
  2  7  1  0
  6  7  1  0
  1  8  1  0
  7  9  1  0
  8  9  1  0
  5 10  1  0
 10 11  1  0
 11 12  1  0
 12 13  1  0
 13 14  2  3
 14 15  1  0
 15 16  1  0
 16 17  1  0
 17 18  1  0
 18 19  1  0
 19 20  1  0
 16 21  1  0
 20 21  1  0
  9 22  1  0
  9 23  1  0
 18 24  1  0
 25 30  1  0
 10 31  2  0
 23 32  2  0
 23 33  1  0
 22 34  1  0
 34 35  1  0
 24 25  2  0
 25 26  1  0
 26 29  2  0
 29 28  1  0
 28 27  2  0
 27 24  1  0
M  END

$$$$
No_319-/dssg/home/sw_qyf/PocketFlow/Model-Generation-Results/5HT2A_7WC7_rec_A_10.pdb/2024-01-01-03-54-21/
     RDKit          3D

 35 38  0  0  0  0  0  0  0  0999 V2000
  -23.1746  -16.6014  144.8668 C   0  0  0  0  0  0  0  0  0  0  0  0
  -23.7011  -17.0158  145.9774 C   0  0  0  0  0  0  0  0  0  0  0  0
  -24.2134  -16.0722  146.8877 C   0  0  0  0  0  0  0  0  0  0  0  0
  -24.5407  -14.7704  146.3552 C   0  0  0  0  0  0  0  0  0  0  0  0
  -24.9626  -13.7061  147.1333 C   0  0  0  0  0  0  0  0  0  0  0  0
  -23.3779  -15.3434  144.3588 C   0  0  0  0  0  0  0  0  0  0  0  0
  -23.9101  -14.3616  145.1708 C   0  0  0  0  0  0  0  0  0  0  0  0
  -25.5686  -12.6236  146.3289 C   0  0  0  0  0  0  0  0  0  0  0  0
  -26.7025  -11.8925  146.6371 C   0  0  0  0  0  0  0  0  0  0  0  0
  -27.8778  -12.4609  146.7674 C   0  0  0  0  0  0  0  0  0  0  0  0
  -28.1482  -13.4130  147.4399 C   0  0  0  0  0  0  0  0  0  0  0  0
  -29.5309  -13.9825  147.6874 C   0  0  0  0  0  0  0  0  0  0  0  0
  -25.0335  -12.5416  144.9843 C   0  0  0  0  0  0  0  0  0  0  0  0
  -24.4040  -13.5240  144.3648 N   0  0  0  0  0  0  0  0  0  0  0  0
  -29.7970  -15.1716  148.3299 C   0  0  0  0  0  0  0  0  0  0  0  0
  -29.0521  -11.6926  146.1783 C   0  0  0  0  0  0  0  0  0  0  0  0
  -28.9159  -10.7724  145.3727 O   0  0  0  0  0  0  0  0  0  0  0  0
  -28.3257  -10.8247  144.3303 C   0  0  0  0  0  0  0  0  0  0  0  0
  -28.9235  -10.1743  143.1674 C   0  0  0  0  0  0  0  0  0  0  0  0
  -29.7492   -9.1233  143.4218 C   0  0  0  0  0  0  0  0  0  0  0  0
  -30.2978   -8.3142  142.3924 C   0  0  0  0  0  0  0  0  0  0  0  0
  -29.4518   -8.2280  141.2297 C   0  0  0  0  0  0  0  0  0  0  0  0
  -29.6037   -7.2002  140.2437 C   0  0  0  0  0  0  0  0  0  0  0  0
  -28.8418   -7.3731  139.0916 C   0  0  0  0  0  0  0  0  0  0  0  0
  -28.1168   -8.6314  138.8327 C   0  0  0  0  0  0  0  0  0  0  0  0
  -28.3224   -9.4916  139.7660 C   0  0  0  0  0  0  0  0  0  0  0  0
  -28.9196   -9.4133  141.0139 C   0  0  0  0  0  0  0  0  0  0  0  0
  -28.4519  -10.3938  141.8824 C   0  0  0  0  0  0  0  0  0  0  0  0
  -23.5339  -18.3989  146.5432 C   0  0  0  0  0  0  0  0  0  0  0  0
  -24.2367  -19.2191  146.3036 O   0  0  0  0  0  0  0  0  0  0  0  0
  -31.6249   -7.7190  142.5248 C   0  0  0  0  0  0  0  0  0  0  0  0
  -22.4553  -18.5763  147.3203 O   0  0  0  0  0  0  0  0  0  0  0  0
  -27.5224  -10.6944  139.4398 N   0  0  0  0  0  0  0  0  0  0  0  0
  -26.2272  -10.9448  139.4115 C   0  0  0  0  0  0  0  0  0  0  0  0
  -25.8830  -12.1985  139.1039 N   0  0  0  0  0  0  0  0  0  0  0  0
  1  2  1  0
  2  3  1  0
  3  4  1  0
  1  6  1  0
  6  7  1  0
  8  9  1  0
  9 10  1  0
 10 11  1  0
 11 12  2  3
 12 15  1  0
 10 16  1  0
 16 17  1  0
 17 18  1  0
 18 19  1  0
 19 20  1  0
 20 21  1  0
 21 22  1  0
 19 28  1  0
 27 28  1  0
  2 29  1  0
 29 30  2  0
 21 31  1  0
 29 32  1  0
 26 33  1  0
 33 34  1  0
 34 35  2  0
  4  5  2  0
  5  8  1  0
  8 13  2  0
 13 14  1  0
 14  7  2  0
  7  4  1  0
 22 23  2  0
 23 24  1  0
 24 25  2  0
 25 26  1  0
 26 27  2  0
 27 22  1  0
M  END

$$$$
No_320-/dssg/home/sw_qyf/PocketFlow/Model-Generation-Results/5HT2A_7WC7_rec_A_10.pdb/2024-01-01-03-54-21/
     RDKit          3D

 18 18  0  0  0  0  0  0  0  0999 V2000
  -23.1746  -16.6014  144.8668 C   0  0  0  0  0  0  0  0  0  0  0  0
  -23.7011  -17.0158  145.9774 C   0  0  0  0  0  0  0  0  0  0  0  0
  -24.2593  -16.1244  146.9100 C   0  0  0  0  0  0  0  0  0  0  0  0
  -24.5135  -14.7390  146.5020 C   0  0  0  0  0  0  0  0  0  0  0  0
  -24.0813  -14.3812  145.2164 C   0  0  0  0  0  0  0  0  0  0  0  0
  -23.3915  -15.2667  144.4690 C   0  0  0  0  0  0  0  0  0  0  0  0
  -24.2377  -12.9157  144.8809 C   0  0  0  0  0  0  0  0  0  0  0  0
  -24.3098  -12.0076  145.9903 C   0  0  0  0  0  0  0  0  0  0  0  0
  -23.4974  -18.4883  146.2518 C   0  0  0  0  0  0  0  0  0  0  0  0
  -23.1450  -18.7652  147.4170 O   0  0  0  0  0  0  0  0  0  0  0  0
  -23.5099  -19.3285  145.3534 O   0  0  0  0  0  0  0  0  0  0  0  0
  -25.8008  -11.6722  146.1811 C   0  0  0  0  0  0  0  0  0  0  0  0
  -26.6324  -11.6000  145.0366 C   0  0  0  0  0  0  0  0  0  0  0  0
  -27.2331  -10.3520  144.7776 C   0  0  0  0  0  0  0  0  0  0  0  0
  -28.1476  -10.1782  143.7043 C   0  0  0  0  0  0  0  0  0  0  0  0
  -29.2085   -9.2947  143.7975 C   0  0  0  0  0  0  0  0  0  0  0  0
  -30.0739   -8.8702  143.2616 C   0  0  0  0  0  0  0  0  0  0  0  0
  -31.2121   -8.1630  143.6814 C   0  0  0  0  0  0  0  0  0  0  0  0
  5  7  1  0
  7  8  1  0
  2  9  1  0
  9 10  2  0
  9 11  1  0
  8 12  1  0
 12 13  1  0
 13 14  2  3
 14 15  1  0
 15 16  1  0
 16 17  3  0
 17 18  1  0
  1  2  2  0
  2  3  1  0
  3  4  2  0
  4  5  1  0
  5  6  2  0
  6  1  1  0
M  END

$$$$
No_321-/dssg/home/sw_qyf/PocketFlow/Model-Generation-Results/5HT2A_7WC7_rec_A_10.pdb/2024-01-01-03-54-21/
     RDKit          3D

 12 12  0  0  0  0  0  0  0  0999 V2000
  -23.1746  -16.6014  144.8668 C   0  0  0  0  0  0  0  0  0  0  0  0
  -23.8963  -15.5346  144.7885 C   0  0  0  0  0  0  0  0  0  0  0  0
  -25.0303  -15.2549  144.5358 C   0  0  0  0  0  0  0  0  0  0  0  0
  -25.6045  -13.9524  144.2294 C   0  0  0  0  0  0  0  0  0  0  0  0
  -26.9716  -13.7632  143.8495 C   0  0  0  0  0  0  0  0  0  0  0  0
  -27.2940  -12.4851  143.3751 C   0  0  0  0  0  0  0  0  0  0  0  0
  -28.4418  -11.8922  143.6507 C   0  0  0  0  0  0  0  0  0  0  0  0
  -28.2317  -10.5045  144.1342 C   0  0  0  0  0  0  0  0  0  0  0  0
  -27.7711   -9.5550  143.3400 C   0  0  0  0  0  0  0  0  0  0  0  0
  -23.9602  -17.6711  145.4770 C   0  0  0  0  0  0  0  0  0  0  0  0
  -25.3485  -17.4287  145.7715 C   0  0  0  0  0  0  0  0  0  0  0  0
  -25.8988  -16.2011  145.3133 C   0  0  0  0  0  0  0  0  0  0  0  0
  3  4  1  0
  4  5  1  0
  5  6  1  0
  6  7  1  0
  7  8  1  0
  8  9  1  0
  1  2  2  0
  2  3  1  0
  3 12  2  0
 12 11  1  0
 11 10  2  0
 10  1  1  0
M  END

$$$$
No_322-/dssg/home/sw_qyf/PocketFlow/Model-Generation-Results/5HT2A_7WC7_rec_A_10.pdb/2024-01-01-03-54-21/
     RDKit          3D

 20 22  0  0  0  0  0  0  0  0999 V2000
  -24.1553  -17.8465  145.7021 C   0  0  0  0  0  0  0  0  0  0  0  0
  -24.2856  -16.6364  145.3494 C   0  0  0  0  0  0  0  0  0  0  0  0
  -24.5733  -15.7651  145.9979 C   0  0  0  0  0  0  0  0  0  0  0  0
  -25.0272  -15.9886  147.3700 C   0  0  0  0  0  0  0  0  0  0  0  0
  -24.4993  -18.2276  147.0208 C   0  0  0  0  0  0  0  0  0  0  0  0
  -24.9009  -17.2232  147.9329 C   0  0  0  0  0  0  0  0  0  0  0  0
  -24.7137  -14.2591  145.5600 C   0  0  0  0  0  0  0  0  0  0  0  0
  -23.8904  -13.7860  144.6618 C   0  0  0  0  0  0  0  0  0  0  0  0
  -25.7337  -13.4391  146.1564 C   0  0  0  0  0  0  0  0  0  0  0  0
  -25.8062  -12.0939  145.8546 C   0  0  0  0  0  0  0  0  0  0  0  0
  -26.9786  -11.3677  146.0517 C   0  0  0  0  0  0  0  0  0  0  0  0
  -28.1185  -12.0788  146.4007 C   0  0  0  0  0  0  0  0  0  0  0  0
  -29.3698  -11.3731  146.5767 C   0  0  0  0  0  0  0  0  0  0  0  0
  -23.6452  -14.2212  143.5533 O   0  0  0  0  0  0  0  0  0  0  0  0
  -30.5067  -12.0879  147.0853 C   0  0  0  0  0  0  0  0  0  0  0  0
  -29.9593  -12.8965  148.2646 C   0  0  0  0  0  0  0  0  0  0  0  0
  -29.1182  -13.9951  147.8903 C   0  0  0  0  0  0  0  0  0  0  0  0
  -28.9777  -15.1529  148.5895 C   0  0  0  0  0  0  0  0  0  0  0  0
  -28.0226  -13.5179  146.9844 C   0  0  0  0  0  0  0  0  0  0  0  0
  -26.9967  -14.1250  146.5786 C   0  0  0  0  0  0  0  0  0  0  0  0
  3  7  1  0
  7  8  2  0
  7  9  1  0
  9 10  1  0
 10 11  1  0
 11 12  1  0
 12 13  1  0
  8 14  2  0
 13 15  1  0
 15 16  1  0
 16 17  1  0
 17 18  2  0
 12 19  1  0
 17 19  1  0
  9 20  1  0
 19 20  1  0
  1  2  2  0
  2  3  1  0
  3  4  2  0
  4  6  1  0
  6  5  2  0
  5  1  1  0
M  END

$$$$
No_323-/dssg/home/sw_qyf/PocketFlow/Model-Generation-Results/5HT2A_7WC7_rec_A_10.pdb/2024-01-01-03-54-21/
     RDKit          3D

 20 21  0  0  0  0  0  0  0  0999 V2000
  -23.1746  -16.6014  144.8668 C   0  0  0  0  0  0  0  0  0  0  0  0
  -24.0189  -16.0564  145.8445 C   0  0  0  0  0  0  0  0  0  0  0  0
  -24.4850  -14.7380  145.6359 C   0  0  0  0  0  0  0  0  0  0  0  0
  -24.0208  -14.0081  144.6269 C   0  0  0  0  0  0  0  0  0  0  0  0
  -24.4092  -12.5999  144.5318 C   0  0  0  0  0  0  0  0  0  0  0  0
  -25.2165  -12.1839  145.5008 C   0  0  0  0  0  0  0  0  0  0  0  0
  -25.7821  -12.8568  146.5220 C   0  0  0  0  0  0  0  0  0  0  0  0
  -25.3613  -14.2280  146.6461 C   0  0  0  0  0  0  0  0  0  0  0  0
  -24.4140  -16.8566  146.9528 C   0  0  0  0  0  0  0  0  0  0  0  0
  -23.9567  -18.0957  147.1636 C   0  0  0  0  0  0  0  0  0  0  0  0
  -23.3561  -18.7868  146.0755 C   0  0  0  0  0  0  0  0  0  0  0  0
  -22.9662  -18.0824  145.0197 N   0  0  0  0  0  0  0  0  0  0  0  0
  -25.6221  -10.8174  145.3811 O   0  0  0  0  0  0  0  0  0  0  0  0
  -26.0991  -10.3705  144.2543 C   0  0  0  0  0  0  0  0  0  0  0  0
  -27.2523  -10.9579  143.7446 C   0  0  0  0  0  0  0  0  0  0  0  0
  -27.8510  -10.5331  142.6145 C   0  0  0  0  0  0  0  0  0  0  0  0
  -29.0463  -10.2793  142.3873 C   0  0  0  0  0  0  0  0  0  0  0  0
  -29.5927   -9.7991  141.1116 C   0  0  0  0  0  0  0  0  0  0  0  0
  -28.6530   -9.5625  140.1464 C   0  0  0  0  0  0  0  0  0  0  0  0
  -27.3490  -10.0078  140.2603 C   0  0  0  0  0  0  0  0  0  0  0  0
  2  3  1  0
  6 13  1  0
 13 14  1  0
 14 15  1  0
 15 16  2  3
 16 17  1  0
 17 18  2  3
 18 19  1  0
 19 20  2  0
  1  2  2  0
  2  9  1  0
  9 10  2  0
 10 11  1  0
 11 12  2  0
 12  1  1  0
  3  4  2  0
  4  5  1  0
  5  6  2  0
  6  7  1  0
  7  8  2  0
  8  3  1  0
M  END

$$$$
No_324-/dssg/home/sw_qyf/PocketFlow/Model-Generation-Results/5HT2A_7WC7_rec_A_10.pdb/2024-01-01-03-54-21/
     RDKit          3D

 20 22  0  0  0  0  0  0  0  0999 V2000
  -23.1746  -16.6014  144.8668 C   0  0  0  0  0  0  0  0  0  0  0  0
  -23.8963  -15.5346  144.7885 C   0  0  0  0  0  0  0  0  0  0  0  0
  -24.5755  -15.0383  145.9043 C   0  0  0  0  0  0  0  0  0  0  0  0
  -24.6688  -15.8869  147.0363 C   0  0  0  0  0  0  0  0  0  0  0  0
  -24.0226  -17.0824  147.0622 C   0  0  0  0  0  0  0  0  0  0  0  0
  -23.2575  -17.4593  145.9560 C   0  0  0  0  0  0  0  0  0  0  0  0
  -25.3126  -13.7148  145.9424 C   0  0  0  0  0  0  0  0  0  0  0  0
  -24.4111  -12.6403  146.0908 C   0  0  0  0  0  0  0  0  0  0  0  0
  -25.0301  -11.3220  146.0099 C   0  0  0  0  0  0  0  0  0  0  0  0
  -26.5309  -13.5429  146.6462 C   0  0  0  0  0  0  0  0  0  0  0  0
  -27.1968  -12.3037  146.6046 C   0  0  0  0  0  0  0  0  0  0  0  0
  -26.4250  -11.1508  146.3290 C   0  0  0  0  0  0  0  0  0  0  0  0
  -28.6327  -12.0784  146.6388 C   0  0  0  0  0  0  0  0  0  0  0  0
  -29.3831  -12.7396  147.6474 C   0  0  0  0  0  0  0  0  0  0  0  0
  -29.3317  -11.3282  145.7112 C   0  0  0  0  0  0  0  0  0  0  0  0
  -30.3951  -10.6129  146.2254 N   0  0  0  0  0  0  0  0  0  0  0  0
  -29.0811  -11.2097  144.5537 O   0  0  0  0  0  0  0  0  0  0  0  0
  -30.5731  -12.2162  148.1484 C   0  0  0  0  0  0  0  0  0  0  0  0
  -31.0999  -11.1986  147.2788 N   0  0  0  0  0  0  0  0  0  0  0  0
  -31.3204  -12.5430  149.1261 N   0  0  0  0  0  0  0  0  0  0  0  0
  3  7  1  0
 11 13  1  0
 13 15  1  0
 15 16  1  0
 15 17  2  0
 14 18  1  0
 16 19  1  0
 18 19  1  0
 18 20  1  0
 13 14  1  0
  1  2  2  0
  2  3  1  0
  3  4  2  0
  4  5  1  0
  5  6  2  0
  6  1  1  0
  7  8  2  0
  8  9  1  0
  9 12  2  0
 12 11  1  0
 11 10  2  0
 10  7  1  0
M  END

$$$$
No_325-/dssg/home/sw_qyf/PocketFlow/Model-Generation-Results/5HT2A_7WC7_rec_A_10.pdb/2024-01-01-03-54-21/
     RDKit          3D

 35 37  0  0  0  0  0  0  0  0999 V2000
  -23.1746  -16.6014  144.8668 C   0  0  0  0  0  0  0  0  0  0  0  0
  -24.0189  -16.0564  145.8445 C   0  0  0  0  0  0  0  0  0  0  0  0
  -24.4145  -16.8299  146.9062 C   0  0  0  0  0  0  0  0  0  0  0  0
  -25.2730  -16.2838  147.9150 C   0  0  0  0  0  0  0  0  0  0  0  0
  -25.7919  -14.9951  147.6737 C   0  0  0  0  0  0  0  0  0  0  0  0
  -24.5377  -14.6789  145.6474 C   0  0  0  0  0  0  0  0  0  0  0  0
  -25.4158  -14.1968  146.6885 C   0  0  0  0  0  0  0  0  0  0  0  0
  -24.1218  -13.8356  144.6156 C   0  0  0  0  0  0  0  0  0  0  0  0
  -23.6013  -12.7650  144.9285 O   0  0  0  0  0  0  0  0  0  0  0  0
  -23.9519  -18.1999  147.0644 C   0  0  0  0  0  0  0  0  0  0  0  0
  -23.5967  -19.0026  146.1711 O   0  0  0  0  0  0  0  0  0  0  0  0
  -24.1799  -18.7256  148.2755 O   0  0  0  0  0  0  0  0  0  0  0  0
  -25.8893  -12.8026  146.5840 C   0  0  0  0  0  0  0  0  0  0  0  0
  -26.6826  -12.4467  145.6435 N   0  0  0  0  0  0  0  0  0  0  0  0
  -27.9834  -12.7636  145.7531 C   0  0  0  0  0  0  0  0  0  0  0  0
  -28.8779  -11.7107  146.0849 C   0  0  0  0  0  0  0  0  0  0  0  0
  -29.8557  -11.7826  147.2028 C   0  0  0  0  0  0  0  0  0  0  0  0
  -29.7712  -12.8544  148.1158 C   0  0  0  0  0  0  0  0  0  0  0  0
  -30.8703  -13.2009  148.9444 C   0  0  0  0  0  0  0  0  0  0  0  0
  -31.8199  -12.2415  149.2307 C   0  0  0  0  0  0  0  0  0  0  0  0
  -32.8461  -12.5379  150.1090 C   0  0  0  0  0  0  0  0  0  0  0  0
  -29.0446  -10.6155  145.1630 C   0  0  0  0  0  0  0  0  0  0  0  0
  -28.0008  -10.2973  144.3241 C   0  0  0  0  0  0  0  0  0  0  0  0
  -28.1731   -9.3183  143.3281 C   0  0  0  0  0  0  0  0  0  0  0  0
  -29.3135   -8.4865  143.3691 C   0  0  0  0  0  0  0  0  0  0  0  0
  -29.5230   -7.4773  142.4149 C   0  0  0  0  0  0  0  0  0  0  0  0
  -29.9097   -6.1866  142.6696 C   0  0  0  0  0  0  0  0  0  0  0  0
  -29.3220   -7.7663  140.9895 C   0  0  0  0  0  0  0  0  0  0  0  0
  -29.2267   -6.8881  140.0496 C   0  0  0  0  0  0  0  0  0  0  0  0
  -29.0646   -7.3943  138.7367 C   0  0  0  0  0  0  0  0  0  0  0  0
  -28.1491   -8.3760  138.4558 C   0  0  0  0  0  0  0  0  0  0  0  0
  -28.0384   -9.3759  139.5787 C   0  0  0  0  0  0  0  0  0  0  0  0
  -28.4492   -8.9953  140.9023 C   0  0  0  0  0  0  0  0  0  0  0  0
  -28.0139   -9.8600  141.9531 C   0  0  0  0  0  0  0  0  0  0  0  0
  -33.8374  -11.5085  150.2625 C   0  0  0  0  0  0  0  0  0  0  0  0
  1  2  1  0
  6  8  1  0
  8  9  1  0
  3 10  1  0
 10 11  2  0
 10 12  1  0
  7 13  1  0
 13 14  1  0
 14 15  1  0
 15 16  1  0
 16 17  2  3
 17 18  1  0
 18 19  1  0
 19 20  2  3
 20 21  1  0
 16 22  1  0
 22 23  2  3
 23 24  1  0
 21 35  2  0
 27 26  1  0
 28 29  1  0
 29 30  2  0
 30 31  1  0
 31 32  2  0
 32 33  1  0
  2  3  2  0
  3  4  1  0
  4  5  2  0
  5  7  1  0
  7  6  2  0
  6  2  1  0
 24 25  2  0
 25 26  1  0
 26 28  2  0
 28 33  1  0
 33 34  2  0
 34 24  1  0
M  END

$$$$
No_326-/dssg/home/sw_qyf/PocketFlow/Model-Generation-Results/5HT2A_7WC7_rec_A_10.pdb/2024-01-01-03-54-21/
     RDKit          3D

 10 10  0  0  0  0  0  0  0  0999 V2000
  -23.1746  -16.6014  144.8668 C   0  0  0  0  0  0  0  0  0  0  0  0
  -23.7011  -17.0158  145.9774 C   0  0  0  0  0  0  0  0  0  0  0  0
  -24.2134  -16.0722  146.8877 C   0  0  0  0  0  0  0  0  0  0  0  0
  -23.3742  -15.2706  144.3922 C   0  0  0  0  0  0  0  0  0  0  0  0
  -24.0638  -14.3065  145.2723 C   0  0  0  0  0  0  0  0  0  0  0  0
  -24.4769  -14.7246  146.5384 C   0  0  0  0  0  0  0  0  0  0  0  0
  -24.2050  -13.0450  144.9316 F   0  0  0  0  0  0  0  0  0  0  0  0
  -23.5142  -18.4635  146.2710 C   0  0  0  0  0  0  0  0  0  0  0  0
  -22.6229  -18.8720  146.7880 O   0  0  0  0  0  0  0  0  0  0  0  0
  -24.6464  -19.1664  146.1210 O   0  0  0  0  0  0  0  0  0  0  0  0
  5  7  1  0
  2  8  1  0
  8  9  2  0
  8 10  1  0
  1  2  2  0
  2  3  1  0
  3  6  2  0
  6  5  1  0
  5  4  2  0
  4  1  1  0
M  END

$$$$
No_327-/dssg/home/sw_qyf/PocketFlow/Model-Generation-Results/5HT2A_7WC7_rec_A_10.pdb/2024-01-01-03-54-21/
     RDKit          3D

 19 22  0  0  0  0  0  0  0  0999 V2000
  -24.1553  -17.8465  145.7021 C   0  0  0  0  0  0  0  0  0  0  0  0
  -23.9795  -18.4462  146.7426 C   0  0  0  0  0  0  0  0  0  0  0  0
  -23.2486  -17.2339  144.9771 C   0  0  0  0  0  0  0  0  0  0  0  0
  -24.9812  -19.0362  147.5824 C   0  0  0  0  0  0  0  0  0  0  0  0
  -23.7180  -16.2391  144.0023 C   0  0  0  0  0  0  0  0  0  0  0  0
  -24.1690  -14.9523  144.6878 C   0  0  0  0  0  0  0  0  0  0  0  0
  -24.1546  -13.8262  144.0736 C   0  0  0  0  0  0  0  0  0  0  0  0
  -24.4492  -12.5835  144.8018 C   0  0  0  0  0  0  0  0  0  0  0  0
  -25.0115  -12.6883  146.1519 C   0  0  0  0  0  0  0  0  0  0  0  0
  -25.0777  -13.9743  146.7882 C   0  0  0  0  0  0  0  0  0  0  0  0
  -24.6739  -15.1076  146.0796 C   0  0  0  0  0  0  0  0  0  0  0  0
  -25.9314  -18.0638  147.6144 C   0  0  0  0  0  0  0  0  0  0  0  0
  -26.5372  -17.4801  148.6884 C   0  0  0  0  0  0  0  0  0  0  0  0
  -27.5559  -16.4989  148.5459 C   0  0  0  0  0  0  0  0  0  0  0  0
  -27.9931  -15.9941  147.3227 C   0  0  0  0  0  0  0  0  0  0  0  0
  -27.3684  -16.7125  146.1881 C   0  0  0  0  0  0  0  0  0  0  0  0
  -26.4164  -17.6859  146.3227 C   0  0  0  0  0  0  0  0  0  0  0  0
  -25.4306  -17.1192  145.7221 C   0  0  0  0  0  0  0  0  0  0  0  0
  -24.5557  -16.2816  146.4311 O   0  0  0  0  0  0  0  0  0  0  0  0
  1  2  1  0
  1  3  2  0
  2  4  1  0
  3  5  1  0
  5  6  1  0
  4 12  1  0
  1 18  1  0
 17 18  1  0
 11 19  1  0
 18 19  1  0
 12 13  2  0
 13 14  1  0
 14 15  2  0
 15 16  1  0
 16 17  2  0
 17 12  1  0
  6  7  2  0
  7  8  1  0
  8  9  2  0
  9 10  1  0
 10 11  2  0
 11  6  1  0
M  END

$$$$
No_328-/dssg/home/sw_qyf/PocketFlow/Model-Generation-Results/5HT2A_7WC7_rec_A_10.pdb/2024-01-01-03-54-21/
     RDKit          3D

 12 12  0  0  0  0  0  0  0  0999 V2000
  -24.1553  -17.8465  145.7021 C   0  0  0  0  0  0  0  0  0  0  0  0
  -24.2856  -16.6364  145.3494 C   0  0  0  0  0  0  0  0  0  0  0  0
  -25.0033  -15.6772  146.0737 C   0  0  0  0  0  0  0  0  0  0  0  0
  -25.1197  -14.2835  145.7299 C   0  0  0  0  0  0  0  0  0  0  0  0
  -25.8358  -13.3153  146.4318 C   0  0  0  0  0  0  0  0  0  0  0  0
  -24.7887  -18.3277  146.8665 C   0  0  0  0  0  0  0  0  0  0  0  0
  -25.5121  -17.4898  147.6545 C   0  0  0  0  0  0  0  0  0  0  0  0
  -25.6629  -16.1113  147.2981 C   0  0  0  0  0  0  0  0  0  0  0  0
  -25.7516  -11.9698  146.1143 C   0  0  0  0  0  0  0  0  0  0  0  0
  -26.7570  -11.0424  146.3170 C   0  0  0  0  0  0  0  0  0  0  0  0
  -24.4536  -13.8891  144.5001 C   0  0  0  0  0  0  0  0  0  0  0  0
  -24.8017  -14.0084  143.4198 O   0  0  0  0  0  0  0  0  0  0  0  0
  3  4  1  0
  4  5  1  0
  5  9  2  3
  9 10  1  0
  4 11  1  0
 11 12  2  0
  1  2  2  0
  2  3  1  0
  3  8  2  0
  8  7  1  0
  7  6  2  0
  6  1  1  0
M  END

$$$$
No_329-/dssg/home/sw_qyf/PocketFlow/Model-Generation-Results/5HT2A_7WC7_rec_A_10.pdb/2024-01-01-03-54-21/
     RDKit          3D

 34 38  0  0  0  0  0  0  0  0999 V2000
  -23.1746  -16.6014  144.8668 C   0  0  0  0  0  0  0  0  0  0  0  0
  -24.0189  -16.0564  145.8445 C   0  0  0  0  0  0  0  0  0  0  0  0
  -25.3176  -15.9168  145.6822 C   0  0  0  0  0  0  0  0  0  0  0  0
  -26.2875  -16.5451  146.4724 C   0  0  0  0  0  0  0  0  0  0  0  0
  -27.7100  -16.3073  146.3027 C   0  0  0  0  0  0  0  0  0  0  0  0
  -28.0000  -15.1469  145.5559 C   0  0  0  0  0  0  0  0  0  0  0  0
  -25.8121  -14.6975  145.0278 C   0  0  0  0  0  0  0  0  0  0  0  0
  -27.1042  -14.3827  144.9831 C   0  0  0  0  0  0  0  0  0  0  0  0
  -27.4956  -13.1544  144.2214 C   0  0  0  0  0  0  0  0  0  0  0  0
  -27.3529  -13.0060  142.8587 C   0  0  0  0  0  0  0  0  0  0  0  0
  -27.9229  -12.0187  142.1170 C   0  0  0  0  0  0  0  0  0  0  0  0
  -28.6358  -10.9382  142.6858 C   0  0  0  0  0  0  0  0  0  0  0  0
  -28.7306  -11.0129  144.1527 C   0  0  0  0  0  0  0  0  0  0  0  0
  -28.1671  -12.0745  144.9426 C   0  0  0  0  0  0  0  0  0  0  0  0
  -29.2496   -9.8864  142.0186 C   0  0  0  0  0  0  0  0  0  0  0  0
  -28.7327   -9.2918  140.8908 C   0  0  0  0  0  0  0  0  0  0  0  0
  -29.4157   -8.2039  140.2923 C   0  0  0  0  0  0  0  0  0  0  0  0
  -30.5410   -7.6927  140.9471 C   0  0  0  0  0  0  0  0  0  0  0  0
  -30.3780   -9.1527  142.5562 C   0  0  0  0  0  0  0  0  0  0  0  0
  -30.7811   -8.0959  142.0066 C   0  0  0  0  0  0  0  0  0  0  0  0
  -28.7837   -7.7033  139.0419 C   0  0  0  0  0  0  0  0  0  0  0  0
  -28.4238   -8.9623  137.9510 Br  0  0  0  0  0  0  0  0  0  0  0  0
  -24.8367  -13.9601  144.4093 O   0  0  0  0  0  0  0  0  0  0  0  0
  -29.3883  -10.0895  144.8580 O   0  0  0  0  0  0  0  0  0  0  0  0
  -30.4050   -9.4326  144.1877 C   0  0  0  0  0  0  0  0  0  0  0  0
  -26.0668  -17.8249  146.6440 F   0  0  0  0  0  0  0  0  0  0  0  0
  -31.4048   -8.9882  144.8088 O   0  0  0  0  0  0  0  0  0  0  0  0
  -22.9715  -15.9937  143.8109 O   0  0  0  0  0  0  0  0  0  0  0  0
  -23.0128  -17.9229  144.8840 O   0  0  0  0  0  0  0  0  0  0  0  0
  -27.7092  -12.0190  140.8000 N   0  0  0  0  0  0  0  0  0  0  0  0
  -28.0469  -12.9462  139.8176 C   0  0  0  0  0  0  0  0  0  0  0  0
  -27.6460  -12.3343  138.4880 C   0  0  0  0  0  0  0  0  0  0  0  0
  -26.5671  -11.1592  140.3276 C   0  0  0  0  0  0  0  0  0  0  0  0
  -26.4249  -11.4487  138.8027 C   0  0  0  0  0  0  0  0  0  0  0  0
  1  2  1  0
  2  3  1  0
  8  9  1  0
 12 15  1  0
 17 21  1  0
 21 22  1  0
  7 23  1  0
 13 24  1  0
 19 25  1  0
 24 25  1  0
  4 26  1  0
 25 27  2  0
  1 28  1  0
  1 29  2  0
 11 30  1  0
 30 31  1  0
 31 32  1  0
 30 33  1  0
 32 34  1  0
 33 34  1  0
  9 10  2  0
 10 11  1  0
 11 12  2  0
 12 13  1  0
 13 14  2  0
 14  9  1  0
  3  4  2  0
  4  5  1  0
  5  6  2  0
  6  8  1  0
  8  7  2  0
  7  3  1  0
 15 16  2  0
 16 17  1  0
 17 18  2  0
 18 20  1  0
 20 19  2  0
 19 15  1  0
M  END

$$$$
No_330-/dssg/home/sw_qyf/PocketFlow/Model-Generation-Results/5HT2A_7WC7_rec_A_10.pdb/2024-01-01-03-54-21/
     RDKit          3D

 34 36  0  0  0  0  0  0  0  0999 V2000
  -23.1746  -16.6014  144.8668 C   0  0  0  0  0  0  0  0  0  0  0  0
  -23.8963  -15.5346  144.7885 C   0  0  0  0  0  0  0  0  0  0  0  0
  -24.5755  -15.0383  145.9043 C   0  0  0  0  0  0  0  0  0  0  0  0
  -25.0618  -13.6819  146.0347 C   0  0  0  0  0  0  0  0  0  0  0  0
  -24.0242  -12.8249  145.9593 C   0  0  0  0  0  0  0  0  0  0  0  0
  -23.4085  -17.5675  145.8907 C   0  0  0  0  0  0  0  0  0  0  0  0
  -24.1896  -17.1707  147.0047 C   0  0  0  0  0  0  0  0  0  0  0  0
  -24.7247  -15.8941  147.1003 C   0  0  0  0  0  0  0  0  0  0  0  0
  -26.3494  -13.2630  146.1682 C   0  0  0  0  0  0  0  0  0  0  0  0
  -26.7104  -11.9000  146.2155 C   0  0  0  0  0  0  0  0  0  0  0  0
  -24.3715  -11.3720  145.9224 C   0  0  0  0  0  0  0  0  0  0  0  0
  -28.0684  -11.5154  146.1750 C   0  0  0  0  0  0  0  0  0  0  0  0
  -25.7367  -11.0267  146.0067 C   0  0  0  0  0  0  0  0  0  0  0  0
  -28.9792  -12.0663  147.1404 C   0  0  0  0  0  0  0  0  0  0  0  0
  -30.3638  -11.7147  147.1251 C   0  0  0  0  0  0  0  0  0  0  0  0
  -30.6489  -10.8041  146.1970 N   0  0  0  0  0  0  0  0  0  0  0  0
  -28.7586  -10.7187  145.2251 C   0  0  0  0  0  0  0  0  0  0  0  0
  -27.9318  -10.2226  144.1965 N   0  0  0  0  0  0  0  0  0  0  0  0
  -30.0045  -10.2747  145.2845 C   0  0  0  0  0  0  0  0  0  0  0  0
  -30.4731   -9.4774  144.3269 O   0  0  0  0  0  0  0  0  0  0  0  0
  -23.7417  -14.6514  143.8333 O   0  0  0  0  0  0  0  0  0  0  0  0
  -24.2800  -18.0872  148.1806 C   0  0  0  0  0  0  0  0  0  0  0  0
  -23.6728  -17.5106  149.4496 C   0  0  0  0  0  0  0  0  0  0  0  0
  -24.4408  -17.1697  150.6063 C   0  0  0  0  0  0  0  0  0  0  0  0
  -25.8601  -17.4219  150.4859 C   0  0  0  0  0  0  0  0  0  0  0  0
  -26.3307  -18.5282  150.1764 C   0  0  0  0  0  0  0  0  0  0  0  0
  -27.6987  -18.7577  150.3998 C   0  0  0  0  0  0  0  0  0  0  0  0
  -28.4204   -9.6163  143.0698 C   0  0  0  0  0  0  0  0  0  0  0  0
  -29.7610   -9.1179  143.3448 C   0  0  0  0  0  0  0  0  0  0  0  0
  -30.3876   -8.2781  142.2890 C   0  0  0  0  0  0  0  0  0  0  0  0
  -30.3167   -8.1245  143.2299 C   0  0  0  0  0  0  0  0  0  0  0  0
  -29.9291   -6.6827  143.2524 C   0  0  0  0  0  0  0  0  0  0  0  0
  -29.5455  -10.0596  142.8541 C   0  0  0  0  0  0  0  0  0  0  0  0
  -29.5919  -10.3162  141.1299 Cl  0  0  0  0  0  0  0  0  0  0  0  0
  3  4  1  0
 10 12  1  0
 14 15  1  0
 12 17  1  0
 17 18  1  0
 16 19  1  0
 17 19  1  0
 19 20  2  0
  2 21  1  0
  7 22  1  0
 22 23  1  0
 23 24  1  0
 24 25  1  0
 25 26  2  3
 26 27  1  0
 18 28  1  0
 28 29  1  0
 29 30  1  0
 30 31  2  3
 31 32  1  0
 29 33  1  0
 33 34  1  0
 16 15  1  0
 14 12  1  0
  1  2  2  0
  2  3  1  0
  3  8  2  0
  8  7  1  0
  7  6  2  0
  6  1  1  0
  4  5  2  0
  5 11  1  0
 11 13  2  0
 13 10  1  0
 10  9  2  0
  9  4  1  0
M  END

$$$$
No_331-/dssg/home/sw_qyf/PocketFlow/Model-Generation-Results/5HT2A_7WC7_rec_A_10.pdb/2024-01-01-03-54-21/
     RDKit          3D

  7  7  0  0  0  0  0  0  0  0999 V2000
  -23.1746  -16.6014  144.8668 C   0  0  0  0  0  0  0  0  0  0  0  0
  -24.0189  -16.0564  145.8445 C   0  0  0  0  0  0  0  0  0  0  0  0
  -24.4145  -16.8299  146.9062 C   0  0  0  0  0  0  0  0  0  0  0  0
  -25.2730  -16.2838  147.9150 C   0  0  0  0  0  0  0  0  0  0  0  0
  -25.7919  -14.9951  147.6737 C   0  0  0  0  0  0  0  0  0  0  0  0
  -24.6241  -14.7653  145.5280 C   0  0  0  0  0  0  0  0  0  0  0  0
  -25.4753  -14.2286  146.6274 C   0  0  0  0  0  0  0  0  0  0  0  0
  1  2  1  0
  2  3  2  0
  3  4  1  0
  4  5  2  0
  5  7  1  0
  7  6  2  0
  6  2  1  0
M  END

$$$$
No_332-/dssg/home/sw_qyf/PocketFlow/Model-Generation-Results/5HT2A_7WC7_rec_A_10.pdb/2024-01-01-03-54-21/
     RDKit          3D

 23 25  0  0  0  0  0  0  0  0999 V2000
  -24.1553  -17.8465  145.7021 C   0  0  0  0  0  0  0  0  0  0  0  0
  -24.2856  -16.6364  145.3494 C   0  0  0  0  0  0  0  0  0  0  0  0
  -25.0033  -15.6772  146.0737 C   0  0  0  0  0  0  0  0  0  0  0  0
  -25.1197  -14.2835  145.7299 C   0  0  0  0  0  0  0  0  0  0  0  0
  -24.2707  -13.8793  144.6500 C   0  0  0  0  0  0  0  0  0  0  0  0
  -24.8686  -18.3355  146.8179 C   0  0  0  0  0  0  0  0  0  0  0  0
  -25.6154  -17.5363  147.5807 C   0  0  0  0  0  0  0  0  0  0  0  0
  -25.7525  -16.1597  147.2668 C   0  0  0  0  0  0  0  0  0  0  0  0
  -24.2176  -12.4904  144.4025 C   0  0  0  0  0  0  0  0  0  0  0  0
  -25.0858  -11.5947  145.1718 C   0  0  0  0  0  0  0  0  0  0  0  0
  -25.9186  -12.0890  146.2177 C   0  0  0  0  0  0  0  0  0  0  0  0
  -25.8474  -13.4151  146.5392 C   0  0  0  0  0  0  0  0  0  0  0  0
  -23.6462  -16.1962  144.2583 O   0  0  0  0  0  0  0  0  0  0  0  0
  -23.5617  -14.8054  144.0328 C   0  0  0  0  0  0  0  0  0  0  0  0
  -23.5006  -18.7651  144.9795 O   0  0  0  0  0  0  0  0  0  0  0  0
  -25.1218  -10.2836  144.8351 O   0  0  0  0  0  0  0  0  0  0  0  0
  -26.4151   -9.7947  144.6325 C   0  0  0  0  0  0  0  0  0  0  0  0
  -27.2258  -10.1542  143.5926 C   0  0  0  0  0  0  0  0  0  0  0  0
  -28.4417   -9.5056  143.4094 C   0  0  0  0  0  0  0  0  0  0  0  0
  -29.5368  -10.2731  143.6204 C   0  0  0  0  0  0  0  0  0  0  0  0
  -30.5007   -9.6089  143.8113 C   0  0  0  0  0  0  0  0  0  0  0  0
  -30.9373   -8.3168  143.3285 C   0  0  0  0  0  0  0  0  0  0  0  0
  -29.7975   -7.6029  142.8889 C   0  0  0  0  0  0  0  0  0  0  0  0
  3  4  1  0
  2 13  1  0
  5 14  1  0
 13 14  1  0
  1 15  1  0
 10 16  1  0
 16 17  1  0
 17 18  1  0
 18 19  2  3
 19 20  1  0
 20 21  2  3
 21 22  1  0
 22 23  2  0
  1  2  2  0
  2  3  1  0
  3  8  2  0
  8  7  1  0
  7  6  2  0
  6  1  1  0
  4  5  2  0
  5  9  1  0
  9 10  2  0
 10 11  1  0
 11 12  2  0
 12  4  1  0
M  END

$$$$
No_333-/dssg/home/sw_qyf/PocketFlow/Model-Generation-Results/5HT2A_7WC7_rec_A_10.pdb/2024-01-01-03-54-21/
     RDKit          3D

 35 39  0  0  0  0  0  0  0  0999 V2000
  -23.1746  -16.6014  144.8668 C   0  0  0  0  0  0  0  0  0  0  0  0
  -24.0189  -16.0564  145.8445 C   0  0  0  0  0  0  0  0  0  0  0  0
  -24.4850  -14.7380  145.6359 C   0  0  0  0  0  0  0  0  0  0  0  0
  -25.2717  -14.0560  146.5949 C   0  0  0  0  0  0  0  0  0  0  0  0
  -25.6617  -12.7328  146.4162 C   0  0  0  0  0  0  0  0  0  0  0  0
  -26.1318  -12.3175  145.5473 C   0  0  0  0  0  0  0  0  0  0  0  0
  -25.7712  -13.0194  144.2701 C   0  0  0  0  0  0  0  0  0  0  0  0
  -25.0839  -14.2555  144.4182 C   0  0  0  0  0  0  0  0  0  0  0  0
  -26.9297  -11.0435  145.2499 C   0  0  0  0  0  0  0  0  0  0  0  0
  -28.3323  -11.0626  145.2812 C   0  0  0  0  0  0  0  0  0  0  0  0
  -29.0703  -11.8861  146.0811 C   0  0  0  0  0  0  0  0  0  0  0  0
  -30.4405  -11.5952  146.4681 C   0  0  0  0  0  0  0  0  0  0  0  0
  -30.8148  -12.2587  147.5940 N   0  0  0  0  0  0  0  0  0  0  0  0
  -24.3922  -16.8207  146.9482 C   0  0  0  0  0  0  0  0  0  0  0  0
  -23.9037  -18.0869  147.1660 C   0  0  0  0  0  0  0  0  0  0  0  0
  -29.9558  -13.2471  147.9686 C   0  0  0  0  0  0  0  0  0  0  0  0
  -28.8852  -13.5216  147.3660 N   0  0  0  0  0  0  0  0  0  0  0  0
  -28.2946  -12.8280  146.4649 C   0  0  0  0  0  0  0  0  0  0  0  0
  -23.3123  -18.7697  146.0643 C   0  0  0  0  0  0  0  0  0  0  0  0
  -22.9961  -18.0055  144.9990 N   0  0  0  0  0  0  0  0  0  0  0  0
  -28.8859  -10.3721  144.0590 C   0  0  0  0  0  0  0  0  0  0  0  0
  -28.9756  -10.4596  142.9319 C   0  0  0  0  0  0  0  0  0  0  0  0
  -28.2413  -11.4180  142.0052 C   0  0  0  0  0  0  0  0  0  0  0  0
  -28.2029  -11.3413  140.6455 C   0  0  0  0  0  0  0  0  0  0  0  0
  -27.6073  -12.3149  139.8129 C   0  0  0  0  0  0  0  0  0  0  0  0
  -27.3701  -11.9690  138.4422 C   0  0  0  0  0  0  0  0  0  0  0  0
  -29.4814   -9.4832  141.9895 C   0  0  0  0  0  0  0  0  0  0  0  0
  -30.4897   -8.5406  142.6016 C   0  0  0  0  0  0  0  0  0  0  0  0
  -30.6572   -7.2812  142.0107 C   0  0  0  0  0  0  0  0  0  0  0  0
  -30.0201   -7.1842  140.7147 C   0  0  0  0  0  0  0  0  0  0  0  0
  -29.1447   -8.1540  140.4171 C   0  0  0  0  0  0  0  0  0  0  0  0
  -28.8018   -9.1609  140.9822 C   0  0  0  0  0  0  0  0  0  0  0  0
  -28.3737  -10.0900  140.0581 C   0  0  0  0  0  0  0  0  0  0  0  0
  -28.4682   -7.7922  139.0276 C   0  0  0  0  0  0  0  0  0  0  0  0
  -28.8533   -6.7154  138.5080 F   0  0  0  0  0  0  0  0  0  0  0  0
  2  3  1  0
  6  9  1  0
  9 10  1  0
 10 11  1  0
 10 21  1  0
 24 25  1  0
 25 26  2  0
 31 34  1  0
 34 35  1  0
 21 22  1  0
  3  4  2  0
  4  5  1  0
  5  6  2  0
  6  7  1  0
  7  8  2  0
  8  3  1  0
 11 12  2  0
 12 13  1  0
 13 16  2  0
 16 17  1  0
 17 18  2  0
 18 11  1  0
 27 28  2  0
 28 29  1  0
 29 30  2  0
 30 31  1  0
 31 32  2  0
 22 23  2  0
 23 24  1  0
 24 33  2  0
 33 32  1  0
 32 27  1  0
 27 22  1  0
  1  2  2  0
  2 14  1  0
 14 15  2  0
 15 19  1  0
 19 20  2  0
 20  1  1  0
M  END

$$$$
No_334-/dssg/home/sw_qyf/PocketFlow/Model-Generation-Results/5HT2A_7WC7_rec_A_10.pdb/2024-01-01-03-54-21/
     RDKit          3D

 35 39  0  0  0  0  0  0  0  0999 V2000
  -24.1553  -17.8465  145.7021 C   0  0  0  0  0  0  0  0  0  0  0  0
  -24.6364  -17.2931  146.7091 C   0  0  0  0  0  0  0  0  0  0  0  0
  -24.0780  -17.2921  147.9389 C   0  0  0  0  0  0  0  0  0  0  0  0
  -24.6761  -16.7363  149.1478 C   0  0  0  0  0  0  0  0  0  0  0  0
  -25.9985  -16.2638  148.9932 C   0  0  0  0  0  0  0  0  0  0  0  0
  -26.6270  -16.3412  147.7728 C   0  0  0  0  0  0  0  0  0  0  0  0
  -25.9734  -16.9165  146.6819 C   0  0  0  0  0  0  0  0  0  0  0  0
  -23.7938  -16.8806  144.5756 C   0  0  0  0  0  0  0  0  0  0  0  0
  -23.6037  -15.4767  145.1753 C   0  0  0  0  0  0  0  0  0  0  0  0
  -23.5312  -14.3622  144.2146 C   0  0  0  0  0  0  0  0  0  0  0  0
  -23.3914  -13.0451  144.9055 C   0  0  0  0  0  0  0  0  0  0  0  0
  -24.3513  -12.6888  145.9904 C   0  0  0  0  0  0  0  0  0  0  0  0
  -24.6006  -13.8557  146.8961 C   0  0  0  0  0  0  0  0  0  0  0  0
  -24.7806  -15.1636  146.2490 C   0  0  0  0  0  0  0  0  0  0  0  0
  -25.9163  -15.5319  145.9728 C   0  0  0  0  0  0  0  0  0  0  0  0
  -23.7111  -19.1961  145.5553 C   0  0  0  0  0  0  0  0  0  0  0  0
  -28.0643  -16.0473  147.8290 C   0  0  0  0  0  0  0  0  0  0  0  0
  -28.6088  -14.9808  147.1275 C   0  0  0  0  0  0  0  0  0  0  0  0
  -29.7972  -14.2690  147.5640 C   0  0  0  0  0  0  0  0  0  0  0  0
  -30.1791  -13.0443  146.9791 C   0  0  0  0  0  0  0  0  0  0  0  0
  -29.2594  -12.4356  146.0560 C   0  0  0  0  0  0  0  0  0  0  0  0
  -29.5189  -11.1309  145.5017 C   0  0  0  0  0  0  0  0  0  0  0  0
  -30.5316  -10.4068  145.6110 C   0  0  0  0  0  0  0  0  0  0  0  0
  -30.6620   -9.1183  145.0307 C   0  0  0  0  0  0  0  0  0  0  0  0
  -29.9902   -8.8706  143.8235 C   0  0  0  0  0  0  0  0  0  0  0  0
  -30.2229   -7.7543  143.0103 C   0  0  0  0  0  0  0  0  0  0  0  0
  -29.6351   -7.6094  141.7005 C   0  0  0  0  0  0  0  0  0  0  0  0
  -29.0102   -8.8016  141.1960 C   0  0  0  0  0  0  0  0  0  0  0  0
  -28.8043   -9.9261  142.0241 C   0  0  0  0  0  0  0  0  0  0  0  0
  -28.1662  -11.0592  141.5261 C   0  0  0  0  0  0  0  0  0  0  0  0
  -29.3722   -9.9994  143.3213 C   0  0  0  0  0  0  0  0  0  0  0  0
  -28.4208  -11.5955  140.2415 C   0  0  0  0  0  0  0  0  0  0  0  0
  -28.9101  -11.0794  144.1270 C   0  0  0  0  0  0  0  0  0  0  0  0
  -27.5659  -12.6428  139.7204 C   0  0  0  0  0  0  0  0  0  0  0  0
  -26.7590  -12.2177  138.5560 C   0  0  0  0  0  0  0  0  0  0  0  0
  1  2  1  0
  1  8  1  0
  8  9  1  0
  7 15  1  0
 14 15  1  0
  1 16  1  0
  6 17  1  0
 17 18  2  3
 18 19  1  0
 19 20  2  3
 20 21  1  0
 21 22  1  0
 29 30  1  0
 30 32  2  3
 32 34  1  0
 34 35  1  0
  2  3  2  0
  3  4  1  0
  4  5  2  0
  5  6  1  0
  6  7  2  0
  7  2  1  0
 25 26  1  0
 26 27  2  0
 27 28  1  0
 28 29  2  0
 29 31  1  0
  9 10  2  0
 10 11  1  0
 11 12  2  0
 12 13  1  0
 13 14  2  0
 14  9  1  0
 22 23  2  0
 23 24  1  0
 24 25  2  0
 25 31  1  0
 31 33  2  0
 33 22  1  0
M  END

$$$$
No_335-/dssg/home/sw_qyf/PocketFlow/Model-Generation-Results/5HT2A_7WC7_rec_A_10.pdb/2024-01-01-03-54-21/
     RDKit          3D

 33 34  0  0  0  0  0  0  0  0999 V2000
  -24.1553  -17.8465  145.7021 C   0  0  0  0  0  0  0  0  0  0  0  0
  -23.9795  -18.4462  146.7426 C   0  0  0  0  0  0  0  0  0  0  0  0
  -25.1593  -16.8262  145.6925 C   0  0  0  0  0  0  0  0  0  0  0  0
  -25.3302  -15.8818  144.5925 C   0  0  0  0  0  0  0  0  0  0  0  0
  -24.4570  -18.1009  148.0274 C   0  0  0  0  0  0  0  0  0  0  0  0
  -25.3496  -17.0286  148.1023 C   0  0  0  0  0  0  0  0  0  0  0  0
  -25.5669  -16.2449  146.9641 C   0  0  0  0  0  0  0  0  0  0  0  0
  -25.1576  -14.4266  144.8319 C   0  0  0  0  0  0  0  0  0  0  0  0
  -24.7378  -13.7049  143.9135 C   0  0  0  0  0  0  0  0  0  0  0  0
  -24.4133  -12.3476  144.3514 C   0  0  0  0  0  0  0  0  0  0  0  0
  -24.9512  -11.9635  145.7182 C   0  0  0  0  0  0  0  0  0  0  0  0
  -25.4058  -13.6891  146.1298 C   0  0  0  0  0  0  0  0  0  0  0  0
  -25.8424  -16.6953  149.3522 N   0  0  0  0  0  0  0  0  0  0  0  0
  -26.2591  -11.2722  145.7835 C   0  0  0  0  0  0  0  0  0  0  0  0
  -27.4734  -11.9045  145.6956 C   0  0  0  0  0  0  0  0  0  0  0  0
  -28.6321  -11.1874  145.4142 C   0  0  0  0  0  0  0  0  0  0  0  0
  -28.7261  -10.2594  144.3829 C   0  0  0  0  0  0  0  0  0  0  0  0
  -29.8904   -9.5511  144.0784 C   0  0  0  0  0  0  0  0  0  0  0  0
  -30.1515   -9.0230  142.8572 C   0  0  0  0  0  0  0  0  0  0  0  0
  -31.3204   -8.2927  142.5274 C   0  0  0  0  0  0  0  0  0  0  0  0
  -28.9978   -8.3589  142.1869 C   0  0  0  0  0  0  0  0  0  0  0  0
  -29.1676   -8.2452  140.7603 C   0  0  0  0  0  0  0  0  0  0  0  0
  -28.4391   -8.6710  139.7582 C   0  0  0  0  0  0  0  0  0  0  0  0
  -27.6148   -9.7816  140.0319 C   0  0  0  0  0  0  0  0  0  0  0  0
  -27.8327  -10.7318  140.9428 C   0  0  0  0  0  0  0  0  0  0  0  0
  -28.0904  -12.1446  140.4805 C   0  0  0  0  0  0  0  0  0  0  0  0
  -27.0261  -13.0616  140.9747 C   0  0  0  0  0  0  0  0  0  0  0  0
  -28.6284   -8.1759  138.4419 C   0  0  0  0  0  0  0  0  0  0  0  0
  -32.4166   -8.6080  143.1781 O   0  0  0  0  0  0  0  0  0  0  0  0
  -26.0092  -13.4520  140.3017 O   0  0  0  0  0  0  0  0  0  0  0  0
  -27.7496   -7.5323  137.8599 O   0  0  0  0  0  0  0  0  0  0  0  0
  -29.7672   -8.1447  137.8811 O   0  0  0  0  0  0  0  0  0  0  0  0
  -27.0496  -13.3222  142.3233 O   0  0  0  0  0  0  0  0  0  0  0  0
  3  4  1  0
  4  8  1  0
  8  9  2  0
  9 10  1  0
 10 11  2  0
  8 12  1  0
 11 12  1  0
  6 13  1  0
 11 14  1  0
 14 15  1  0
 15 16  2  3
 16 17  1  0
 17 18  1  0
 18 19  1  0
 19 20  1  0
 19 21  1  0
 21 22  1  0
 22 23  1  0
 23 24  2  3
 24 25  1  0
 25 26  1  0
 26 27  1  0
 23 28  1  0
 20 29  1  0
 27 30  1  0
 28 31  2  0
 28 32  1  0
 27 33  2  0
  1  2  2  0
  2  5  1  0
  5  6  2  0
  6  7  1  0
  7  3  2  0
  3  1  1  0
M  END

$$$$
No_336-/dssg/home/sw_qyf/PocketFlow/Model-Generation-Results/5HT2A_7WC7_rec_A_10.pdb/2024-01-01-03-54-21/
     RDKit          3D

 17 19  0  0  0  0  0  0  0  0999 V2000
  -23.1746  -16.6014  144.8668 C   0  0  0  0  0  0  0  0  0  0  0  0
  -23.8963  -15.5346  144.7885 C   0  0  0  0  0  0  0  0  0  0  0  0
  -23.4976  -14.2961  145.1226 C   0  0  0  0  0  0  0  0  0  0  0  0
  -24.3175  -13.3088  145.7775 C   0  0  0  0  0  0  0  0  0  0  0  0
  -25.6586  -13.6027  146.0240 C   0  0  0  0  0  0  0  0  0  0  0  0
  -26.0737  -14.9390  145.9541 C   0  0  0  0  0  0  0  0  0  0  0  0
  -25.1974  -15.8784  145.3395 C   0  0  0  0  0  0  0  0  0  0  0  0
  -27.3923  -15.3498  146.3618 C   0  0  0  0  0  0  0  0  0  0  0  0
  -27.6826  -16.7333  146.7029 C   0  0  0  0  0  0  0  0  0  0  0  0
  -28.4758  -14.4423  146.5010 C   0  0  0  0  0  0  0  0  0  0  0  0
  -29.6770  -14.7600  147.1573 C   0  0  0  0  0  0  0  0  0  0  0  0
  -30.5371  -13.6094  147.4558 C   0  0  0  0  0  0  0  0  0  0  0  0
  -30.1277  -12.3409  147.1779 C   0  0  0  0  0  0  0  0  0  0  0  0
  -28.8911  -12.0238  146.5402 C   0  0  0  0  0  0  0  0  0  0  0  0
  -28.0094  -13.0720  146.3279 C   0  0  0  0  0  0  0  0  0  0  0  0
  -26.6991  -12.7403  145.9378 C   0  0  0  0  0  0  0  0  0  0  0  0
  -22.1885  -16.8357  145.4119 O   0  0  0  0  0  0  0  0  0  0  0  0
  1  2  2  0
  2  3  1  0
  3  4  1  0
  4  5  1  0
  5  6  1  0
  2  7  1  0
  6  7  1  0
  6  8  1  0
  8  9  2  0
  8 10  1  0
  5 16  1  0
 15 16  1  0
  1 17  2  0
 10 11  2  0
 11 12  1  0
 12 13  2  0
 13 14  1  0
 14 15  2  0
 15 10  1  0
M  END

$$$$
No_337-/dssg/home/sw_qyf/PocketFlow/Model-Generation-Results/5HT2A_7WC7_rec_A_10.pdb/2024-01-01-03-54-21/
     RDKit          3D

 10 10  0  0  0  0  0  0  0  0999 V2000
  -24.1553  -17.8465  145.7021 C   0  0  0  0  0  0  0  0  0  0  0  0
  -24.2855  -16.6364  145.3494 C   0  0  0  0  0  0  0  0  0  0  0  0
  -25.0033  -15.6772  146.0737 C   0  0  0  0  0  0  0  0  0  0  0  0
  -26.0408  -15.2581  145.8303 C   0  0  0  0  0  0  0  0  0  0  0  0
  -26.9399  -15.7989  144.9541 C   0  0  0  0  0  0  0  0  0  0  0  0
  -24.2242  -18.2594  147.0592 C   0  0  0  0  0  0  0  0  0  0  0  0
  -24.4811  -17.2911  148.0492 C   0  0  0  0  0  0  0  0  0  0  0  0
  -25.0270  -15.9480  147.5553 C   0  0  0  0  0  0  0  0  0  0  0  0
  -26.1992  -13.7252  145.9335 C   0  0  0  0  0  0  0  0  0  0  0  0
  -25.3203  -12.8055  145.7595 C   0  0  0  0  0  0  0  0  0  0  0  0
  4  5  1  0
  4  9  1  0
  9 10  3  0
  4  3  1  0
  1  2  2  0
  2  3  1  0
  3  8  2  0
  8  7  1  0
  7  6  2  0
  6  1  1  0
M  END

$$$$
No_338-/dssg/home/sw_qyf/PocketFlow/Model-Generation-Results/5HT2A_7WC7_rec_A_10.pdb/2024-01-01-03-54-21/
     RDKit          3D

 18 19  0  0  0  0  0  0  0  0999 V2000
  -24.1553  -17.8465  145.7021 C   0  0  0  0  0  0  0  0  0  0  0  0
  -24.2856  -16.6364  145.3494 C   0  0  0  0  0  0  0  0  0  0  0  0
  -24.7837  -15.7223  145.8474 C   0  0  0  0  0  0  0  0  0  0  0  0
  -25.6062  -15.9757  147.0426 C   0  0  0  0  0  0  0  0  0  0  0  0
  -24.8437  -18.2127  146.8988 C   0  0  0  0  0  0  0  0  0  0  0  0
  -25.5337  -17.2397  147.5874 C   0  0  0  0  0  0  0  0  0  0  0  0
  -24.9291  -14.2342  145.4016 C   0  0  0  0  0  0  0  0  0  0  0  0
  -23.9055  -13.8298  144.6575 C   0  0  0  0  0  0  0  0  0  0  0  0
  -25.9388  -13.3845  145.8085 C   0  0  0  0  0  0  0  0  0  0  0  0
  -26.0021  -12.0339  145.5053 C   0  0  0  0  0  0  0  0  0  0  0  0
  -27.1692  -11.2878  145.5255 C   0  0  0  0  0  0  0  0  0  0  0  0
  -28.3241  -11.8464  146.0947 C   0  0  0  0  0  0  0  0  0  0  0  0
  -28.2426  -13.2563  146.5855 C   0  0  0  0  0  0  0  0  0  0  0  0
  -27.1722  -14.0126  146.3305 C   0  0  0  0  0  0  0  0  0  0  0  0
  -29.5694  -11.0862  146.3260 C   0  0  0  0  0  0  0  0  0  0  0  0
  -29.9003  -10.3067  145.4518 O   0  0  0  0  0  0  0  0  0  0  0  0
  -30.5044  -11.5693  147.2837 O   0  0  0  0  0  0  0  0  0  0  0  0
  -23.1006  -12.8691  145.0994 O   0  0  0  0  0  0  0  0  0  0  0  0
  3  7  1  0
  7  8  2  3
  7  9  1  0
 12 15  1  0
 15 16  2  0
 15 17  1  0
  8 18  1  0
  1  2  2  0
  2  3  1  0
  3  4  2  0
  4  6  1  0
  6  5  2  0
  5  1  1  0
  9 10  2  0
 10 11  1  0
 11 12  2  0
 12 13  1  0
 13 14  2  0
 14  9  1  0
M  END

$$$$
No_339-/dssg/home/sw_qyf/PocketFlow/Model-Generation-Results/5HT2A_7WC7_rec_A_10.pdb/2024-01-01-03-54-21/
     RDKit          3D

 14 16  0  0  0  0  0  0  0  0999 V2000
  -24.1553  -17.8465  145.7021 C   0  0  0  0  0  0  0  0  0  0  0  0
  -24.2856  -16.6364  145.3494 C   0  0  0  0  0  0  0  0  0  0  0  0
  -25.0033  -15.6772  146.0737 C   0  0  0  0  0  0  0  0  0  0  0  0
  -25.1197  -14.2835  145.7299 C   0  0  0  0  0  0  0  0  0  0  0  0
  -24.2707  -13.8793  144.6500 C   0  0  0  0  0  0  0  0  0  0  0  0
  -24.8686  -18.3355  146.8179 C   0  0  0  0  0  0  0  0  0  0  0  0
  -25.6154  -17.5363  147.5807 C   0  0  0  0  0  0  0  0  0  0  0  0
  -25.7525  -16.1597  147.2668 C   0  0  0  0  0  0  0  0  0  0  0  0
  -24.1658  -12.4897  144.4296 C   0  0  0  0  0  0  0  0  0  0  0  0
  -25.1827  -11.6554  145.1165 C   0  0  0  0  0  0  0  0  0  0  0  0
  -25.9477  -12.0462  146.2513 C   0  0  0  0  0  0  0  0  0  0  0  0
  -25.8774  -13.3843  146.5190 C   0  0  0  0  0  0  0  0  0  0  0  0
  -23.6437  -16.2029  144.2252 N   0  0  0  0  0  0  0  0  0  0  0  0
  -23.5549  -14.7926  144.0005 C   0  0  0  0  0  0  0  0  0  0  0  0
  1  2  1  0
  1  6  1  0
  6  7  1  0
  3  8  1  0
  7  8  1  0
  5  9  1  0
  9 10  3  0
 10 11  1  0
  4 12  1  0
 11 12  1  0
  2  3  2  0
  3  4  1  0
  4  5  2  0
  5 14  1  0
 14 13  2  0
 13  2  1  0
M  END

$$$$
No_340-/dssg/home/sw_qyf/PocketFlow/Model-Generation-Results/5HT2A_7WC7_rec_A_10.pdb/2024-01-01-03-54-21/
     RDKit          3D

 35 37  0  0  0  0  0  0  0  0999 V2000
  -23.1746  -16.6014  144.8668 C   0  0  0  0  0  0  0  0  0  0  0  0
  -23.8963  -15.5346  144.7885 C   0  0  0  0  0  0  0  0  0  0  0  0
  -23.6398  -14.5115  145.3281 C   0  0  0  0  0  0  0  0  0  0  0  0
  -24.3866  -13.2477  145.3906 C   0  0  0  0  0  0  0  0  0  0  0  0
  -25.6595  -13.1543  144.8974 C   0  0  0  0  0  0  0  0  0  0  0  0
  -26.4904  -12.0231  145.0331 C   0  0  0  0  0  0  0  0  0  0  0  0
  -27.8437  -12.0381  144.7012 C   0  0  0  0  0  0  0  0  0  0  0  0
  -28.7862  -11.6153  145.6569 C   0  0  0  0  0  0  0  0  0  0  0  0
  -29.8220  -10.8442  145.1840 C   0  0  0  0  0  0  0  0  0  0  0  0
  -29.7312  -10.2658  143.9167 C   0  0  0  0  0  0  0  0  0  0  0  0
  -28.8183  -10.7309  142.9878 C   0  0  0  0  0  0  0  0  0  0  0  0
  -27.7360  -11.5032  143.4235 C   0  0  0  0  0  0  0  0  0  0  0  0
  -28.9668  -10.2130  141.6160 C   0  0  0  0  0  0  0  0  0  0  0  0
  -28.4159  -11.0138  140.6006 C   0  0  0  0  0  0  0  0  0  0  0  0
  -27.7654  -10.4007  139.5557 C   0  0  0  0  0  0  0  0  0  0  0  0
  -28.0379   -9.0277  139.2567 C   0  0  0  0  0  0  0  0  0  0  0  0
  -28.7322   -8.2333  140.2392 C   0  0  0  0  0  0  0  0  0  0  0  0
  -29.1082   -8.8309  141.4581 C   0  0  0  0  0  0  0  0  0  0  0  0
  -28.8709  -12.2294  146.9937 C   0  0  0  0  0  0  0  0  0  0  0  0
  -28.4273  -13.5085  147.2079 C   0  0  0  0  0  0  0  0  0  0  0  0
  -27.3226  -14.0745  146.8420 C   0  0  0  0  0  0  0  0  0  0  0  0
  -27.0230  -15.4577  147.2303 C   0  0  0  0  0  0  0  0  0  0  0  0
  -27.9095  -16.1215  148.0744 C   0  0  0  0  0  0  0  0  0  0  0  0
  -29.1642  -15.5395  148.4216 C   0  0  0  0  0  0  0  0  0  0  0  0
  -29.3769  -14.2978  148.0429 C   0  0  0  0  0  0  0  0  0  0  0  0
  -23.6789  -17.7395  145.2408 C   0  0  0  0  0  0  0  0  0  0  0  0
  -23.7485  -17.9386  146.7580 C   0  0  0  0  0  0  0  0  0  0  0  0
  -24.5519  -17.1416  147.7037 Cl  0  0  0  0  0  0  0  0  0  0  0  0
  -30.7424   -9.4145  143.5595 O   0  0  0  0  0  0  0  0  0  0  0  0
  -27.6349   -8.3960  138.1804 O   0  0  0  0  0  0  0  0  0  0  0  0
  -30.6722  -13.6805  148.5223 C   0  0  0  0  0  0  0  0  0  0  0  0
  -31.0025  -13.6900  149.8924 C   0  0  0  0  0  0  0  0  0  0  0  0
  -32.1986  -13.1319  150.3871 C   0  0  0  0  0  0  0  0  0  0  0  0
  -32.8663  -12.2376  149.6438 C   0  0  0  0  0  0  0  0  0  0  0  0
  -34.0507  -11.6235  150.0889 C   0  0  0  0  0  0  0  0  0  0  0  0
  1  2  1  0
  2  3  2  3
  3  4  1  0
  4  5  2  3
  5  6  1  0
  6  7  1  0
 11 13  1  0
  8 19  1  0
 19 20  1  0
  1 26  1  0
 26 27  1  0
 27 28  1  0
 10 29  1  0
 16 30  1  0
 25 31  1  0
 31 32  2  3
 32 33  1  0
 33 34  2  3
 34 35  1  0
 20 21  2  0
 21 22  1  0
 22 23  2  0
 23 24  1  0
 24 25  2  0
 25 20  1  0
 13 14  2  0
 14 15  1  0
 15 16  2  0
 16 17  1  0
 17 18  2  0
 18 13  1  0
  7  8  2  0
  8  9  1  0
  9 10  2  0
 10 11  1  0
 11 12  2  0
 12  7  1  0
M  END

$$$$
No_341-/dssg/home/sw_qyf/PocketFlow/Model-Generation-Results/5HT2A_7WC7_rec_A_10.pdb/2024-01-01-03-54-21/
     RDKit          3D

 15 16  0  0  0  0  0  0  0  0999 V2000
  -24.1553  -17.8465  145.7021 C   0  0  0  0  0  0  0  0  0  0  0  0
  -23.9795  -18.4462  146.7426 C   0  0  0  0  0  0  0  0  0  0  0  0
  -25.1196  -16.8106  145.6409 C   0  0  0  0  0  0  0  0  0  0  0  0
  -25.9236  -16.5070  146.7422 C   0  0  0  0  0  0  0  0  0  0  0  0
  -25.6173  -17.2153  147.9099 C   0  0  0  0  0  0  0  0  0  0  0  0
  -24.6179  -18.1473  147.9620 C   0  0  0  0  0  0  0  0  0  0  0  0
  -26.9749  -15.4806  146.6971 C   0  0  0  0  0  0  0  0  0  0  0  0
  -28.1740  -15.7949  146.3287 C   0  0  0  0  0  0  0  0  0  0  0  0
  -29.1773  -14.7981  146.3471 C   0  0  0  0  0  0  0  0  0  0  0  0
  -28.8866  -13.4166  146.7213 C   0  0  0  0  0  0  0  0  0  0  0  0
  -27.4728  -13.0783  146.8188 C   0  0  0  0  0  0  0  0  0  0  0  0
  -26.5603  -14.0908  146.8970 C   0  0  0  0  0  0  0  0  0  0  0  0
  -29.8790  -12.3471  146.6191 C   0  0  0  0  0  0  0  0  0  0  0  0
  -30.6683  -12.1175  147.5490 O   0  0  0  0  0  0  0  0  0  0  0  0
  -29.8595  -11.6623  145.5195 O   0  0  0  0  0  0  0  0  0  0  0  0
  4  7  1  0
 10 13  1  0
 13 14  1  0
 13 15  2  0
  1  2  2  0
  2  6  1  0
  6  5  2  0
  5  4  1  0
  4  3  2  0
  3  1  1  0
  7  8  2  0
  8  9  1  0
  9 10  2  0
 10 11  1  0
 11 12  2  0
 12  7  1  0
M  END

$$$$
No_342-/dssg/home/sw_qyf/PocketFlow/Model-Generation-Results/5HT2A_7WC7_rec_A_10.pdb/2024-01-01-03-54-21/
     RDKit          3D

 10 11  0  0  0  0  0  0  0  0999 V2000
  -24.1553  -17.8465  145.7021 C   0  0  0  0  0  0  0  0  0  0  0  0
  -24.2855  -16.6364  145.3494 C   0  0  0  0  0  0  0  0  0  0  0  0
  -25.0033  -15.6772  146.0737 C   0  0  0  0  0  0  0  0  0  0  0  0
  -25.6964  -16.1809  147.2049 C   0  0  0  0  0  0  0  0  0  0  0  0
  -24.8143  -18.3454  146.8324 C   0  0  0  0  0  0  0  0  0  0  0  0
  -25.5291  -17.4614  147.6374 C   0  0  0  0  0  0  0  0  0  0  0  0
  -23.6447  -16.0678  144.2141 N   0  0  0  0  0  0  0  0  0  0  0  0
  -25.2027  -14.2424  145.8720 C   0  0  0  0  0  0  0  0  0  0  0  0
  -24.7346  -13.7240  144.7180 C   0  0  0  0  0  0  0  0  0  0  0  0
  -23.7209  -14.6974  143.9624 C   0  0  0  0  0  0  0  0  0  0  0  0
  1  2  2  0
  3  4  2  0
  4  6  1  0
  6  5  2  0
  5  1  1  0
  2  3  1  0
  3  8  1  0
  8  9  2  0
  9 10  1  0
 10  7  2  0
  7  2  1  0
M  END

$$$$
No_343-/dssg/home/sw_qyf/PocketFlow/Model-Generation-Results/5HT2A_7WC7_rec_A_10.pdb/2024-01-01-03-54-21/
     RDKit          3D

 19 20  0  0  0  0  0  0  0  0999 V2000
  -24.1553  -17.8465  145.7021 C   0  0  0  0  0  0  0  0  0  0  0  0
  -24.2856  -16.6364  145.3494 C   0  0  0  0  0  0  0  0  0  0  0  0
  -25.0033  -15.6772  146.0737 C   0  0  0  0  0  0  0  0  0  0  0  0
  -24.8869  -14.2981  145.8377 C   0  0  0  0  0  0  0  0  0  0  0  0
  -25.3793  -13.2111  146.5918 C   0  0  0  0  0  0  0  0  0  0  0  0
  -24.9049  -18.3625  146.7784 C   0  0  0  0  0  0  0  0  0  0  0  0
  -25.6976  -17.5210  147.5111 C   0  0  0  0  0  0  0  0  0  0  0  0
  -25.7254  -16.1261  147.2550 C   0  0  0  0  0  0  0  0  0  0  0  0
  -24.2351  -13.8812  144.5903 C   0  0  0  0  0  0  0  0  0  0  0  0
  -25.8217  -12.1635  146.0557 C   0  0  0  0  0  0  0  0  0  0  0  0
  -26.8988  -11.8461  145.4272 C   0  0  0  0  0  0  0  0  0  0  0  0
  -28.1005  -12.6176  145.5159 C   0  0  0  0  0  0  0  0  0  0  0  0
  -29.3418  -12.0099  145.1143 C   0  0  0  0  0  0  0  0  0  0  0  0
  -29.3771  -10.6973  144.5283 C   0  0  0  0  0  0  0  0  0  0  0  0
  -28.2072  -10.0189  144.3542 C   0  0  0  0  0  0  0  0  0  0  0  0
  -26.9563  -10.5283  144.9497 C   0  0  0  0  0  0  0  0  0  0  0  0
  -22.9762  -13.7738  144.5425 O   0  0  0  0  0  0  0  0  0  0  0  0
  -24.9449  -13.5095  143.5983 O   0  0  0  0  0  0  0  0  0  0  0  0
  -24.7494  -11.0522  146.0882 C   0  0  0  0  0  0  0  0  0  0  0  0
  3  4  1  0
  4  5  2  3
  4  9  1  0
  5 10  1  0
  9 17  2  0
  9 18  1  0
 10 19  1  0
 10 11  1  0
 11 12  2  0
 12 13  1  0
 13 14  2  0
 14 15  1  0
 15 16  2  0
 16 11  1  0
  1  2  2  0
  2  3  1  0
  3  8  2  0
  8  7  1  0
  7  6  2  0
  6  1  1  0
M  END

$$$$
No_344-/dssg/home/sw_qyf/PocketFlow/Model-Generation-Results/5HT2A_7WC7_rec_A_10.pdb/2024-01-01-03-54-21/
     RDKit          3D

 14 15  0  0  0  0  0  0  0  0999 V2000
  -24.1553  -17.8465  145.7021 C   0  0  0  0  0  0  0  0  0  0  0  0
  -24.6364  -17.2931  146.7091 C   0  0  0  0  0  0  0  0  0  0  0  0
  -24.5709  -15.9334  146.8074 C   0  0  0  0  0  0  0  0  0  0  0  0
  -24.2378  -15.1233  145.7159 C   0  0  0  0  0  0  0  0  0  0  0  0
  -23.7252  -15.7878  144.6028 C   0  0  0  0  0  0  0  0  0  0  0  0
  -23.7316  -17.0968  144.6427 N   0  0  0  0  0  0  0  0  0  0  0  0
  -24.0429  -19.2100  145.5626 N   0  0  0  0  0  0  0  0  0  0  0  0
  -24.2583  -13.6039  145.8467 C   0  0  0  0  0  0  0  0  0  0  0  0
  -25.2729  -12.9781  146.5119 C   0  0  0  0  0  0  0  0  0  0  0  0
  -23.2917  -12.8540  145.1159 C   0  0  0  0  0  0  0  0  0  0  0  0
  -25.4362  -11.5978  146.4841 C   0  0  0  0  0  0  0  0  0  0  0  0
  -23.4547  -11.3617  145.1454 C   0  0  0  0  0  0  0  0  0  0  0  0
  -24.5782  -10.8032  145.7817 C   0  0  0  0  0  0  0  0  0  0  0  0
  -25.0381  -18.1603  148.1703 Cl  0  0  0  0  0  0  0  0  0  0  0  0
  1  7  1  0
  4  8  1  0
  2 14  1  0
  8  9  2  0
  9 11  1  0
 11 13  2  0
 13 12  1  0
 12 10  2  0
 10  8  1  0
  1  2  2  0
  2  3  1  0
  3  4  2  0
  4  5  1  0
  5  6  2  0
  6  1  1  0
M  END

$$$$
No_345-/dssg/home/sw_qyf/PocketFlow/Model-Generation-Results/5HT2A_7WC7_rec_A_10.pdb/2024-01-01-03-54-21/
     RDKit          3D

 32 34  0  0  0  0  0  0  0  0999 V2000
  -24.1553  -17.8465  145.7021 C   0  0  0  0  0  0  0  0  0  0  0  0
  -24.6364  -17.2931  146.7091 C   0  0  0  0  0  0  0  0  0  0  0  0
  -25.8608  -16.5592  146.5934 C   0  0  0  0  0  0  0  0  0  0  0  0
  -26.9933  -16.9082  147.1889 C   0  0  0  0  0  0  0  0  0  0  0  0
  -28.2350  -16.1839  146.8943 C   0  0  0  0  0  0  0  0  0  0  0  0
  -29.2595  -15.8792  147.7406 C   0  0  0  0  0  0  0  0  0  0  0  0
  -23.8906  -16.9570  144.5613 C   0  0  0  0  0  0  0  0  0  0  0  0
  -24.7680  -15.8248  144.5156 C   0  0  0  0  0  0  0  0  0  0  0  0
  -25.7602  -15.6443  145.5359 C   0  0  0  0  0  0  0  0  0  0  0  0
  -30.1691  -14.8071  147.4502 C   0  0  0  0  0  0  0  0  0  0  0  0
  -30.6215  -13.9964  148.5991 C   0  0  0  0  0  0  0  0  0  0  0  0
  -31.0171  -12.6541  148.4348 C   0  0  0  0  0  0  0  0  0  0  0  0
  -30.2869  -12.0035  147.3892 C   0  0  0  0  0  0  0  0  0  0  0  0
  -29.4053  -12.6148  146.4751 C   0  0  0  0  0  0  0  0  0  0  0  0
  -28.7144  -11.9273  145.5410 N   0  0  0  0  0  0  0  0  0  0  0  0
  -27.6662  -12.4860  144.8793 C   0  0  0  0  0  0  0  0  0  0  0  0
  -27.1726  -11.8286  143.7191 C   0  0  0  0  0  0  0  0  0  0  0  0
  -27.8142  -10.6453  143.3921 C   0  0  0  0  0  0  0  0  0  0  0  0
  -29.0929  -10.3507  143.6750 C   0  0  0  0  0  0  0  0  0  0  0  0
  -29.4363  -10.7624  145.1649 C   0  0  0  0  0  0  0  0  0  0  0  0
  -29.3854  -13.9523  146.5777 O   0  0  0  0  0  0  0  0  0  0  0  0
  -30.0663   -9.7459  142.9260 C   0  0  0  0  0  0  0  0  0  0  0  0
  -31.2135  -10.1205  143.0993 F   0  0  0  0  0  0  0  0  0  0  0  0
  -29.6779   -9.9649  141.6047 F   0  0  0  0  0  0  0  0  0  0  0  0
  -29.9615   -8.4058  143.0492 F   0  0  0  0  0  0  0  0  0  0  0  0
  -23.6043  -16.4073  147.6481 C   0  0  0  0  0  0  0  0  0  0  0  0
  -32.0471  -12.0166  149.1572 C   0  0  0  0  0  0  0  0  0  0  0  0
  -33.0973  -11.7373  148.6083 O   0  0  0  0  0  0  0  0  0  0  0  0
  -31.9293  -11.8792  150.4537 O   0  0  0  0  0  0  0  0  0  0  0  0
  -24.2634  -15.8694  148.7009 C   0  0  0  0  0  0  0  0  0  0  0  0
  -33.0623  -11.8704  151.3224 C   0  0  0  0  0  0  0  0  0  0  0  0
  -34.1121  -11.6951  150.9968 C   0  0  0  0  0  0  0  0  0  0  0  0
  1  2  1  0
  2  3  1  0
  3  4  1  0
  4  5  1  0
  5  6  2  3
  1  7  1  0
  7  8  1  0
  3  9  1  0
  8  9  1  0
  6 10  1  0
 10 11  1  0
 11 12  1  0
 12 13  2  0
 13 14  1  0
 14 15  1  0
 15 16  1  0
 17 18  1  0
 18 19  1  0
 15 20  1  0
 19 20  1  0
 10 21  1  0
 14 21  1  0
 19 22  1  0
 22 23  1  0
 22 24  1  0
 22 25  1  0
  2 26  1  0
 12 27  1  0
 27 28  2  0
 27 29  1  0
 26 30  2  0
 29 31  1  0
 31 32  2  0
 16 17  1  0
M  END

$$$$
No_346-/dssg/home/sw_qyf/PocketFlow/Model-Generation-Results/5HT2A_7WC7_rec_A_10.pdb/2024-01-01-03-54-21/
     RDKit          3D

 29 32  0  0  0  0  0  0  0  0999 V2000
  -24.1553  -17.8465  145.7021 C   0  0  0  0  0  0  0  0  0  0  0  0
  -24.2856  -16.6364  145.3494 C   0  0  0  0  0  0  0  0  0  0  0  0
  -25.0033  -15.6772  146.0737 C   0  0  0  0  0  0  0  0  0  0  0  0
  -25.7224  -16.0756  147.0213 C   0  0  0  0  0  0  0  0  0  0  0  0
  -25.4436  -17.2546  147.7755 C   0  0  0  0  0  0  0  0  0  0  0  0
  -24.6852  -18.2947  147.0247 C   0  0  0  0  0  0  0  0  0  0  0  0
  -25.1521  -14.2815  145.4726 C   0  0  0  0  0  0  0  0  0  0  0  0
  -25.1404  -14.0061  144.3676 C   0  0  0  0  0  0  0  0  0  0  0  0
  -25.1071  -13.1770  146.5146 C   0  0  0  0  0  0  0  0  0  0  0  0
  -25.4415  -11.8652  146.1732 C   0  0  0  0  0  0  0  0  0  0  0  0
  -25.5732  -12.6996  143.8679 C   0  0  0  0  0  0  0  0  0  0  0  0
  -25.6385  -11.6013  144.7854 C   0  0  0  0  0  0  0  0  0  0  0  0
  -26.2560  -10.5951  144.4348 O   0  0  0  0  0  0  0  0  0  0  0  0
  -23.6782  -16.2836  144.1460 N   0  0  0  0  0  0  0  0  0  0  0  0
  -27.2678  -10.0764  145.2325 C   0  0  0  0  0  0  0  0  0  0  0  0
  -28.4135   -9.6429  144.3557 C   0  0  0  0  0  0  0  0  0  0  0  0
  -28.3074   -8.9840  143.3270 C   0  0  0  0  0  0  0  0  0  0  0  0
  -29.4360   -8.5025  142.5731 C   0  0  0  0  0  0  0  0  0  0  0  0
  -30.7700   -8.6581  143.0387 C   0  0  0  0  0  0  0  0  0  0  0  0
  -30.8216   -9.3730  144.2976 C   0  0  0  0  0  0  0  0  0  0  0  0
  -29.7239   -9.8206  144.9917 C   0  0  0  0  0  0  0  0  0  0  0  0
  -29.2362   -7.7521  141.2935 C   0  0  0  0  0  0  0  0  0  0  0  0
  -29.3482   -8.6308  140.1408 C   0  0  0  0  0  0  0  0  0  0  0  0
  -29.0470   -7.9899  138.8977 C   0  0  0  0  0  0  0  0  0  0  0  0
  -28.7760   -8.8219  137.8323 C   0  0  0  0  0  0  0  0  0  0  0  0
  -31.7270   -8.4969  142.2580 O   0  0  0  0  0  0  0  0  0  0  0  0
  -27.9350   -9.9605  138.0184 C   0  0  0  0  0  0  0  0  0  0  0  0
  -27.8388  -10.4298  139.4124 C   0  0  0  0  0  0  0  0  0  0  0  0
  -28.2753   -9.9360  140.3660 C   0  0  0  0  0  0  0  0  0  0  0  0
  3  7  1  0
 12 13  1  0
  2 14  1  0
 13 15  1  0
 15 16  1  0
 18 22  1  0
 19 26  1  0
 22 23  1  0
 23 24  2  0
 24 25  1  0
 25 27  2  0
 27 28  1  0
 28 29  2  0
 29 23  1  0
  1  2  2  0
  2  3  1  0
  3  4  2  0
  4  5  1  0
  5  6  2  0
  6  1  1  0
  7  8  2  0
  8 11  1  0
 11 12  2  0
 12 10  1  0
 10  9  2  0
  9  7  1  0
 16 17  2  0
 17 18  1  0
 18 19  2  0
 19 20  1  0
 20 21  2  0
 21 16  1  0
M  END

$$$$
No_347-/dssg/home/sw_qyf/PocketFlow/Model-Generation-Results/5HT2A_7WC7_rec_A_10.pdb/2024-01-01-03-54-21/
     RDKit          3D

 26 26  0  0  0  0  0  0  0  0999 V2000
  -24.1553  -17.8465  145.7021 C   0  0  0  0  0  0  0  0  0  0  0  0
  -24.2856  -16.6364  145.3494 C   0  0  0  0  0  0  0  0  0  0  0  0
  -24.5733  -15.7651  145.9979 C   0  0  0  0  0  0  0  0  0  0  0  0
  -24.7088  -14.2765  145.5906 C   0  0  0  0  0  0  0  0  0  0  0  0
  -24.0081  -14.0223  144.3771 C   0  0  0  0  0  0  0  0  0  0  0  0
  -24.5461  -18.2167  147.0077 C   0  0  0  0  0  0  0  0  0  0  0  0
  -24.9844  -17.2350  147.8886 C   0  0  0  0  0  0  0  0  0  0  0  0
  -25.0064  -15.8596  147.4294 C   0  0  0  0  0  0  0  0  0  0  0  0
  -26.1285  -13.7518  145.6367 C   0  0  0  0  0  0  0  0  0  0  0  0
  -26.2809  -12.4065  146.1853 C   0  0  0  0  0  0  0  0  0  0  0  0
  -25.3617  -11.4572  145.6589 C   0  0  0  0  0  0  0  0  0  0  0  0
  -25.8884  -10.7012  144.5980 C   0  0  0  0  0  0  0  0  0  0  0  0
  -27.0679  -10.3383  144.7825 O   0  0  0  0  0  0  0  0  0  0  0  0
  -27.8107   -9.8158  143.7014 C   0  0  0  0  0  0  0  0  0  0  0  0
  -29.0992  -10.5681  143.6363 C   0  0  0  0  0  0  0  0  0  0  0  0
  -30.1702   -9.6718  143.4181 C   0  0  0  0  0  0  0  0  0  0  0  0
  -30.2657   -9.1020  142.2067 C   0  0  0  0  0  0  0  0  0  0  0  0
  -29.5582   -8.2545  141.9516 C   0  0  0  0  0  0  0  0  0  0  0  0
  -29.6114   -7.5656  140.5711 C   0  0  0  0  0  0  0  0  0  0  0  0
  -29.3955   -8.4551  139.4336 C   0  0  0  0  0  0  0  0  0  0  0  0
  -28.0256   -8.2934  138.9008 C   0  0  0  0  0  0  0  0  0  0  0  0
  -25.2536  -17.5331  149.3474 C   0  0  0  0  0  0  0  0  0  0  0  0
  -26.4520  -17.7027  149.7498 O   0  0  0  0  0  0  0  0  0  0  0  0
  -24.1770  -17.8089  150.2391 O   0  0  0  0  0  0  0  0  0  0  0  0
  -22.7209  -13.8417  144.3332 O   0  0  0  0  0  0  0  0  0  0  0  0
  -30.3148   -8.7589  144.5289 O   0  0  0  0  0  0  0  0  0  0  0  0
  3  4  1  0
  4  5  2  3
  4  9  1  0
  9 10  1  0
 10 11  1  0
 11 12  1  0
 12 13  1  0
 13 14  1  0
 14 15  1  0
 15 16  1  0
 16 17  1  0
 17 18  1  0
 18 19  1  0
 19 20  1  0
 20 21  1  0
  7 22  1  0
 22 23  2  0
 22 24  1  0
  5 25  1  0
 16 26  1  0
  1  2  2  0
  2  3  1  0
  3  8  2  0
  8  7  1  0
  7  6  2  0
  6  1  1  0
M  END

$$$$
No_348-/dssg/home/sw_qyf/PocketFlow/Model-Generation-Results/5HT2A_7WC7_rec_A_10.pdb/2024-01-01-03-54-21/
     RDKit          3D

 35 38  0  0  0  0  0  0  0  0999 V2000
  -24.1553  -17.8465  145.7021 C   0  0  0  0  0  0  0  0  0  0  0  0
  -24.2855  -16.6364  145.3494 C   0  0  0  0  0  0  0  0  0  0  0  0
  -24.1962  -15.9414  144.2650 C   0  0  0  0  0  0  0  0  0  0  0  0
  -24.3870  -14.5486  144.1162 C   0  0  0  0  0  0  0  0  0  0  0  0
  -24.7523  -13.8439  145.3544 C   0  0  0  0  0  0  0  0  0  0  0  0
  -24.8214  -12.3993  145.3596 C   0  0  0  0  0  0  0  0  0  0  0  0
  -24.2456  -18.3779  147.0229 C   0  0  0  0  0  0  0  0  0  0  0  0
  -25.8966  -11.8548  146.0223 C   0  0  0  0  0  0  0  0  0  0  0  0
  -27.1270  -11.8586  145.2607 C   0  0  0  0  0  0  0  0  0  0  0  0
  -28.2952  -12.0534  146.0840 C   0  0  0  0  0  0  0  0  0  0  0  0
  -28.4807  -13.0871  146.9973 C   0  0  0  0  0  0  0  0  0  0  0  0
  -29.7016  -13.2892  147.7102 C   0  0  0  0  0  0  0  0  0  0  0  0
  -24.5819  -17.4584  148.0687 C   0  0  0  0  0  0  0  0  0  0  0  0
  -24.7248  -16.0329  147.7582 C   0  0  0  0  0  0  0  0  0  0  0  0
  -24.5718  -15.5518  146.4940 C   0  0  0  0  0  0  0  0  0  0  0  0
  -24.7206  -14.2499  146.1352 N   0  0  0  0  0  0  0  0  0  0  0  0
  -30.5305  -12.1362  147.9035 C   0  0  0  0  0  0  0  0  0  0  0  0
  -31.7211  -12.3308  148.6877 C   0  0  0  0  0  0  0  0  0  0  0  0
  -31.8156  -11.9195  149.9298 C   0  0  0  0  0  0  0  0  0  0  0  0
  -33.0946  -11.9930  150.7175 C   0  0  0  0  0  0  0  0  0  0  0  0
  -29.4804  -11.1571  145.9148 C   0  0  0  0  0  0  0  0  0  0  0  0
  -29.4310  -10.2104  145.0142 N   0  0  0  0  0  0  0  0  0  0  0  0
  -30.5150  -11.2844  146.9187 N   0  0  0  0  0  0  0  0  0  0  0  0
  -29.0295  -10.2735  143.7516 C   0  0  0  0  0  0  0  0  0  0  0  0
  -29.3628   -9.3009  142.8218 C   0  0  0  0  0  0  0  0  0  0  0  0
  -30.1925   -8.3032  143.0984 C   0  0  0  0  0  0  0  0  0  0  0  0
  -30.3717   -7.3452  142.0149 C   0  0  0  0  0  0  0  0  0  0  0  0
  -29.8279   -7.5707  140.7633 C   0  0  0  0  0  0  0  0  0  0  0  0
  -28.9921   -8.6260  140.5075 C   0  0  0  0  0  0  0  0  0  0  0  0
  -28.7865   -9.5403  141.5188 C   0  0  0  0  0  0  0  0  0  0  0  0
  -28.4238   -8.7234  139.1926 C   0  0  0  0  0  0  0  0  0  0  0  0
  -28.6708   -7.8087  138.1903 C   0  0  0  0  0  0  0  0  0  0  0  0
  -27.4762   -9.7898  139.0188 C   0  0  0  0  0  0  0  0  0  0  0  0
  -28.3084  -11.2770  143.3740 O   0  0  0  0  0  0  0  0  0  0  0  0
  -32.9454  -12.2315  151.9217 F   0  0  0  0  0  0  0  0  0  0  0  0
  2  3  1  0
  3  4  1  0
  4  5  1  0
  5  6  1  0
  6  8  1  0
  8  9  1  0
  9 10  1  0
  5 16  1  0
 15 16  1  0
 17 18  1  0
 18 19  2  3
 19 20  1  0
 21 22  1  0
 22 24  1  0
 24 25  1  0
 29 31  1  0
 31 32  2  0
 31 33  1  0
 24 34  2  0
 20 35  1  0
 25 26  2  0
 26 27  1  0
 27 28  2  0
 28 29  1  0
 29 30  2  0
 30 25  1  0
 10 11  2  0
 11 12  1  0
 12 17  2  0
 17 23  1  0
 23 21  2  0
 21 10  1  0
  1  2  2  0
  2 15  1  0
 15 14  2  0
 14 13  1  0
 13  7  2  0
  7  1  1  0
M  END

$$$$
No_349-/dssg/home/sw_qyf/PocketFlow/Model-Generation-Results/5HT2A_7WC7_rec_A_10.pdb/2024-01-01-03-54-21/
     RDKit          3D

 35 38  0  0  0  0  0  0  0  0999 V2000
  -24.1553  -17.8465  145.7021 C   0  0  0  0  0  0  0  0  0  0  0  0
  -24.6364  -17.2931  146.7091 C   0  0  0  0  0  0  0  0  0  0  0  0
  -24.0780  -17.2921  147.9389 C   0  0  0  0  0  0  0  0  0  0  0  0
  -24.6761  -16.7363  149.1478 C   0  0  0  0  0  0  0  0  0  0  0  0
  -25.9986  -16.2638  148.9932 C   0  0  0  0  0  0  0  0  0  0  0  0
  -26.6271  -16.3412  147.7729 C   0  0  0  0  0  0  0  0  0  0  0  0
  -25.9735  -16.9165  146.6819 C   0  0  0  0  0  0  0  0  0  0  0  0
  -23.8064  -16.8947  144.5712 C   0  0  0  0  0  0  0  0  0  0  0  0
  -24.4768  -15.8620  144.7425 F   0  0  0  0  0  0  0  0  0  0  0  0
  -24.0401  -17.3731  143.3531 F   0  0  0  0  0  0  0  0  0  0  0  0
  -28.0471  -15.8542  147.7159 C   0  0  0  0  0  0  0  0  0  0  0  0
  -28.5941  -15.1807  148.5667 C   0  0  0  0  0  0  0  0  0  0  0  0
  -29.9627  -14.5807  148.4532 C   0  0  0  0  0  0  0  0  0  0  0  0
  -30.3874  -14.4555  147.0655 C   0  0  0  0  0  0  0  0  0  0  0  0
  -29.5995  -14.9446  146.0518 C   0  0  0  0  0  0  0  0  0  0  0  0
  -28.4324  -15.6074  146.3206 C   0  0  0  0  0  0  0  0  0  0  0  0
  -23.7475  -19.4107  145.5351 Cl  0  0  0  0  0  0  0  0  0  0  0  0
  -22.4380  -16.5712  144.5428 F   0  0  0  0  0  0  0  0  0  0  0  0
  -30.7605  -14.0287  149.5151 C   0  0  0  0  0  0  0  0  0  0  0  0
  -31.5041  -12.8846  149.5245 C   0  0  0  0  0  0  0  0  0  0  0  0
  -32.3371  -12.5465  150.5208 C   0  0  0  0  0  0  0  0  0  0  0  0
  -33.0312  -11.3015  150.5117 C   0  0  0  0  0  0  0  0  0  0  0  0
  -33.4048  -10.8839  149.2986 N   0  0  0  0  0  0  0  0  0  0  0  0
  -32.7915  -11.3743  148.2106 C   0  0  0  0  0  0  0  0  0  0  0  0
  -31.9543  -12.3876  148.3007 N   0  0  0  0  0  0  0  0  0  0  0  0
  -22.8098  -17.6679  148.3688 O   0  0  0  0  0  0  0  0  0  0  0  0
  -33.4523  -10.7486  151.6167 O   0  0  0  0  0  0  0  0  0  0  0  0
  -32.1146  -13.1362  151.9161 C   0  0  0  0  0  0  0  0  0  0  0  0
  -33.0125  -13.9192  152.2356 N   0  0  0  0  0  0  0  0  0  0  0  0
  -33.0510  -15.2711  151.9167 C   0  0  0  0  0  0  0  0  0  0  0  0
  -32.1177  -15.7920  151.0908 C   0  0  0  0  0  0  0  0  0  0  0  0
  -31.0997  -15.2420  150.5096 C   0  0  0  0  0  0  0  0  0  0  0  0
  -33.9147  -16.0896  152.5291 N   0  0  0  0  0  0  0  0  0  0  0  0
  -34.3707  -16.1521  153.7281 C   0  0  0  0  0  0  0  0  0  0  0  0
  -35.0297  -16.7781  154.2409 C   0  0  0  0  0  0  0  0  0  0  0  0
  1  2  1  0
  1  8  1  0
  8  9  1  0
  8 10  1  0
  6 11  1  0
  1 17  1  0
  8 18  1  0
 13 19  1  0
 19 20  1  0
 21 22  1  0
 22 23  1  0
 20 25  1  0
 24 25  1  0
  3 26  1  0
 22 27  2  0
 21 28  1  0
 28 29  1  0
 29 30  1  0
 30 31  1  0
 19 32  1  0
 31 32  2  3
 30 33  1  0
 33 34  1  0
 34 35  2  0
 21 20  1  0
 24 23  1  0
 11 12  2  0
 12 13  1  0
 13 14  2  0
 14 15  1  0
 15 16  2  0
 16 11  1  0
  2  3  2  0
  3  4  1  0
  4  5  2  0
  5  6  1  0
  6  7  2  0
  7  2  1  0
M  END

$$$$
No_350-/dssg/home/sw_qyf/PocketFlow/Model-Generation-Results/5HT2A_7WC7_rec_A_10.pdb/2024-01-01-03-54-21/
     RDKit          3D

 18 18  0  0  0  0  0  0  0  0999 V2000
  -23.1746  -16.6014  144.8668 C   0  0  0  0  0  0  0  0  0  0  0  0
  -23.7011  -17.0158  145.9774 C   0  0  0  0  0  0  0  0  0  0  0  0
  -24.0502  -18.2101  146.3018 C   0  0  0  0  0  0  0  0  0  0  0  0
  -24.6027  -18.5663  147.5667 C   0  0  0  0  0  0  0  0  0  0  0  0
  -24.7539  -17.5194  148.5563 C   0  0  0  0  0  0  0  0  0  0  0  0
  -24.6083  -16.1798  148.2114 C   0  0  0  0  0  0  0  0  0  0  0  0
  -23.9574  -15.9002  147.0100 C   0  0  0  0  0  0  0  0  0  0  0  0
  -22.9431  -15.3662  144.6304 O   0  0  0  0  0  0  0  0  0  0  0  0
  -25.4311  -17.8586  149.8731 C   0  0  0  0  0  0  0  0  0  0  0  0
  -24.6470  -17.8207  150.8713 O   0  0  0  0  0  0  0  0  0  0  0  0
  -23.8381  -19.2765  145.5458 N   0  0  0  0  0  0  0  0  0  0  0  0
  -23.9618  -14.4789  144.7900 C   0  0  0  0  0  0  0  0  0  0  0  0
  -24.0257  -13.6011  143.6561 C   0  0  0  0  0  0  0  0  0  0  0  0
  -25.3469  -13.1319  143.4344 C   0  0  0  0  0  0  0  0  0  0  0  0
  -26.1315  -13.5145  142.5463 C   0  0  0  0  0  0  0  0  0  0  0  0
  -27.4401  -12.9634  142.3790 C   0  0  0  0  0  0  0  0  0  0  0  0
  -27.8909  -11.9599  143.2567 C   0  0  0  0  0  0  0  0  0  0  0  0
  -27.1007  -11.6598  144.3764 C   0  0  0  0  0  0  0  0  0  0  0  0
  1  8  1  0
  5  9  1  0
  9 10  2  0
  3 11  1  0
  8 12  1  0
 12 13  1  0
 13 14  2  3
 14 15  1  0
 15 16  2  3
 16 17  1  0
 17 18  2  0
  1  2  1  0
  2  3  2  0
  3  4  1  0
  4  5  2  0
  5  6  1  0
  6  7  2  0
  7  2  1  0
M  END

$$$$
No_351-/dssg/home/sw_qyf/PocketFlow/Model-Generation-Results/5HT2A_7WC7_rec_A_10.pdb/2024-01-01-03-54-21/
     RDKit          3D

  7  6  0  0  0  0  0  0  0  0999 V2000
  -24.1553  -17.8465  145.7021 C   0  0  0  0  0  0  0  0  0  0  0  0
  -24.2856  -16.6364  145.3494 C   0  0  0  0  0  0  0  0  0  0  0  0
  -24.7837  -15.7223  145.8474 C   0  0  0  0  0  0  0  0  0  0  0  0
  -24.8736  -14.2869  145.3929 C   0  0  0  0  0  0  0  0  0  0  0  0
  -23.9241  -14.0298  144.3752 C   0  0  0  0  0  0  0  0  0  0  0  0
  -23.3470  -18.8564  145.1912 C   0  0  0  0  0  0  0  0  0  0  0  0
  -23.8020  -12.7194  144.0409 N   0  0  0  0  0  0  0  0  0  0  0  0
  1  2  2  3
  2  3  1  0
  3  4  1  0
  4  5  1  0
  1  6  1  0
  5  7  1  0
M  END

$$$$
No_352-/dssg/home/sw_qyf/PocketFlow/Model-Generation-Results/5HT2A_7WC7_rec_A_10.pdb/2024-01-01-03-54-21/
     RDKit          3D

 19 19  0  0  0  0  0  0  0  0999 V2000
  -24.1553  -17.8465  145.7021 C   0  0  0  0  0  0  0  0  0  0  0  0
  -24.6364  -17.2931  146.7091 C   0  0  0  0  0  0  0  0  0  0  0  0
  -24.5709  -15.9334  146.8074 C   0  0  0  0  0  0  0  0  0  0  0  0
  -25.1945  -15.2026  145.8427 C   0  0  0  0  0  0  0  0  0  0  0  0
  -24.2767  -14.8234  144.7992 C   0  0  0  0  0  0  0  0  0  0  0  0
  -24.4870  -13.6257  144.0395 C   0  0  0  0  0  0  0  0  0  0  0  0
  -23.9634  -12.6148  145.0741 C   0  0  0  0  0  0  0  0  0  0  0  0
  -24.0374  -12.8407  146.2905 O   0  0  0  0  0  0  0  0  0  0  0  0
  -23.8712  -19.2668  145.6134 C   0  0  0  0  0  0  0  0  0  0  0  0
  -26.4670  -14.7823  145.8924 C   0  0  0  0  0  0  0  0  0  0  0  0
  -27.4128  -15.4702  146.6095 C   0  0  0  0  0  0  0  0  0  0  0  0
  -28.7742  -15.0201  146.7133 C   0  0  0  0  0  0  0  0  0  0  0  0
  -29.8026  -15.6094  147.4574 C   0  0  0  0  0  0  0  0  0  0  0  0
  -29.1525  -16.5328  148.4375 C   0  0  0  0  0  0  0  0  0  0  0  0
  -27.8591  -16.8796  148.5361 C   0  0  0  0  0  0  0  0  0  0  0  0
  -26.9199  -16.2547  147.7204 C   0  0  0  0  0  0  0  0  0  0  0  0
  -23.2691  -11.6150  144.6380 O   0  0  0  0  0  0  0  0  0  0  0  0
  -23.4275  -15.7006  144.2908 O   0  0  0  0  0  0  0  0  0  0  0  0
  -22.5327  -19.5916  146.0078 C   0  0  0  0  0  0  0  0  0  0  0  0
  1  2  1  0
  2  3  1  0
  3  4  1  0
  4  5  1  0
  5  6  1  0
  6  7  1  0
  7  8  1  0
  1  9  2  3
  4 10  1  0
  7 17  2  0
  5 18  1  0
  9 19  1  0
 10 11  1  0
 11 12  2  0
 12 13  1  0
 13 14  2  0
 14 15  1  0
 15 16  2  0
 16 11  1  0
M  END

$$$$
No_353-/dssg/home/sw_qyf/PocketFlow/Model-Generation-Results/5HT2A_7WC7_rec_A_10.pdb/2024-01-01-03-54-21/
     RDKit          3D

 17 19  0  0  0  0  0  0  0  0999 V2000
  -24.1553  -17.8465  145.7021 C   0  0  0  0  0  0  0  0  0  0  0  0
  -23.9795  -18.4462  146.7426 C   0  0  0  0  0  0  0  0  0  0  0  0
  -24.2723  -16.4220  145.8037 C   0  0  0  0  0  0  0  0  0  0  0  0
  -24.9934  -15.8373  146.8363 C   0  0  0  0  0  0  0  0  0  0  0  0
  -24.4240  -17.9698  148.0343 C   0  0  0  0  0  0  0  0  0  0  0  0
  -24.7712  -16.6380  148.1358 C   0  0  0  0  0  0  0  0  0  0  0  0
  -24.1704  -15.5702  144.5991 C   0  0  0  0  0  0  0  0  0  0  0  0
  -23.2697  -14.4562  144.8322 C   0  0  0  0  0  0  0  0  0  0  0  0
  -22.9239  -13.6793  143.7575 C   0  0  0  0  0  0  0  0  0  0  0  0
  -22.1326  -12.5127  144.2388 C   0  0  0  0  0  0  0  0  0  0  0  0
  -22.6758  -11.8249  145.4721 C   0  0  0  0  0  0  0  0  0  0  0  0
  -23.5661  -12.5286  146.3476 C   0  0  0  0  0  0  0  0  0  0  0  0
  -24.0576  -13.8018  145.9775 C   0  0  0  0  0  0  0  0  0  0  0  0
  -24.2288  -14.4784  147.1582 N   0  0  0  0  0  0  0  0  0  0  0  0
  -23.5451  -18.4982  144.2781 S   0  0  0  0  0  0  0  0  0  0  0  0
  -22.7881  -17.6146  143.7041 N   0  0  0  0  0  0  0  0  0  0  0  0
  -23.0636  -19.8048  144.8081 O   0  0  0  0  0  0  0  0  0  0  0  0
  1  2  1  0
  1  3  1  0
  2  5  1  0
  4  6  1  0
  5  6  1  0
  1 15  1  0
 15 16  1  0
 15 17  2  0
  3  4  2  0
  4 14  1  0
 14 13  2  0
  8  7  2  0
  7  3  1  0
  8  9  1  0
  9 10  2  0
 10 11  1  0
 11 12  2  0
 12 13  1  0
 13  8  1  0
M  END

$$$$
No_354-/dssg/home/sw_qyf/PocketFlow/Model-Generation-Results/5HT2A_7WC7_rec_A_10.pdb/2024-01-01-03-54-21/
     RDKit          3D

 35 37  0  0  0  0  0  0  0  0999 V2000
  -23.1746  -16.6014  144.8668 C   0  0  0  0  0  0  0  0  0  0  0  0
  -23.8963  -15.5346  144.7885 C   0  0  0  0  0  0  0  0  0  0  0  0
  -24.5755  -15.0383  145.9043 C   0  0  0  0  0  0  0  0  0  0  0  0
  -25.0618  -13.6819  146.0347 C   0  0  0  0  0  0  0  0  0  0  0  0
  -24.0242  -12.8249  145.9593 C   0  0  0  0  0  0  0  0  0  0  0  0
  -23.8786  -17.6652  145.6663 C   0  0  0  0  0  0  0  0  0  0  0  0
  -24.4708  -17.4710  146.4903 C   0  0  0  0  0  0  0  0  0  0  0  0
  -25.0653  -16.1098  146.8034 C   0  0  0  0  0  0  0  0  0  0  0  0
  -26.2274  -13.2855  145.2179 C   0  0  0  0  0  0  0  0  0  0  0  0
  -27.4022  -12.7532  146.0673 C   0  0  0  0  0  0  0  0  0  0  0  0
  -28.1632  -13.3694  146.8856 C   0  0  0  0  0  0  0  0  0  0  0  0
  -29.3116  -12.6722  147.4716 C   0  0  0  0  0  0  0  0  0  0  0  0
  -30.2071  -13.2707  148.4109 C   0  0  0  0  0  0  0  0  0  0  0  0
  -29.9899  -14.6492  148.6661 C   0  0  0  0  0  0  0  0  0  0  0  0
  -28.9620  -15.3567  148.0057 C   0  0  0  0  0  0  0  0  0  0  0  0
  -28.1203  -14.7170  147.1463 C   0  0  0  0  0  0  0  0  0  0  0  0
  -26.7165  -11.5115  146.5390 O   0  0  0  0  0  0  0  0  0  0  0  0
  -31.3195  -12.4483  148.9783 C   0  0  0  0  0  0  0  0  0  0  0  0
  -31.7197  -11.4680  148.5106 O   0  0  0  0  0  0  0  0  0  0  0  0
  -31.9587  -13.0390  150.0084 O   0  0  0  0  0  0  0  0  0  0  0  0
  -25.8553  -12.5076  144.0618 C   0  0  0  0  0  0  0  0  0  0  0  0
  -23.2812  -18.9685  145.4072 O   0  0  0  0  0  0  0  0  0  0  0  0
  -24.9695  -18.5097  147.5289 C   0  0  0  0  0  0  0  0  0  0  0  0
  -24.7280  -18.3051  148.7697 O   0  0  0  0  0  0  0  0  0  0  0  0
  -25.5140  -17.6167  149.6309 C   0  0  0  0  0  0  0  0  0  0  0  0
  -24.9918  -17.5085  150.9716 C   0  0  0  0  0  0  0  0  0  0  0  0
  -26.9063  -18.2551  149.7695 C   0  0  0  0  0  0  0  0  0  0  0  0
  -23.4325  -14.4762  144.0178 O   0  0  0  0  0  0  0  0  0  0  0  0
  -24.0998  -12.0727  144.6709 C   0  0  0  0  0  0  0  0  0  0  0  0
  -24.2481  -10.6562  144.9863 O   0  0  0  0  0  0  0  0  0  0  0  0
  -26.4621  -11.3807  143.8825 O   0  0  0  0  0  0  0  0  0  0  0  0
  -27.3985  -11.3644  142.8044 C   0  0  0  0  0  0  0  0  0  0  0  0
  -27.3816  -12.1282  141.8873 C   0  0  0  0  0  0  0  0  0  0  0  0
  -28.0751  -12.0040  140.6665 C   0  0  0  0  0  0  0  0  0  0  0  0
  -27.7207  -12.7769  139.4892 C   0  0  0  0  0  0  0  0  0  0  0  0
  3  4  1  0
  4  5  1  0
  4  9  1  0
  9 10  1  0
 10 11  1  0
 10 17  2  0
 13 18  1  0
 18 19  2  0
 18 20  1  0
  9 21  1  0
  6 22  1  0
  7 23  1  0
 23 24  1  0
 24 25  1  0
 25 26  1  0
 25 27  1  0
  2 28  1  0
  5 29  1  0
 21 29  1  0
 29 30  1  0
 21 31  1  0
 31 32  1  0
 32 33  1  0
 33 34  2  3
 34 35  1  0
 11 12  2  0
 12 13  1  0
 13 14  2  0
 14 15  1  0
 15 16  2  0
 16 11  1  0
  1  2  2  0
  2  3  1  0
  3  8  2  0
  8  7  1  0
  7  6  2  0
  6  1  1  0
M  END

$$$$
No_355-/dssg/home/sw_qyf/PocketFlow/Model-Generation-Results/5HT2A_7WC7_rec_A_10.pdb/2024-01-01-03-54-21/
     RDKit          3D

 14 15  0  0  0  0  0  0  0  0999 V2000
  -24.1553  -17.8465  145.7021 C   0  0  0  0  0  0  0  0  0  0  0  0
  -24.6364  -17.2931  146.7091 C   0  0  0  0  0  0  0  0  0  0  0  0
  -25.8608  -16.5592  146.5934 C   0  0  0  0  0  0  0  0  0  0  0  0
  -26.8606  -16.6119  147.5579 C   0  0  0  0  0  0  0  0  0  0  0  0
  -28.1392  -15.9828  147.3731 C   0  0  0  0  0  0  0  0  0  0  0  0
  -28.2313  -14.9554  146.4210 C   0  0  0  0  0  0  0  0  0  0  0  0
  -27.1561  -14.7509  145.5595 C   0  0  0  0  0  0  0  0  0  0  0  0
  -25.9742  -15.5714  145.6757 C   0  0  0  0  0  0  0  0  0  0  0  0
  -23.9889  -17.4623  148.0385 C   0  0  0  0  0  0  0  0  0  0  0  0
  -24.4882  -17.0612  149.2495 C   0  0  0  0  0  0  0  0  0  0  0  0
  -23.7547  -17.2217  150.4474 C   0  0  0  0  0  0  0  0  0  0  0  0
  -22.3411  -17.2642  150.3778 C   0  0  0  0  0  0  0  0  0  0  0  0
  -21.8299  -17.1566  149.1743 N   0  0  0  0  0  0  0  0  0  0  0  0
  -22.6233  -17.2861  148.0568 C   0  0  0  0  0  0  0  0  0  0  0  0
  1  2  1  0
  2  9  1  0
  2  3  1  0
  3  4  2  0
  4  5  1  0
  5  6  2  0
  6  7  1  0
  7  8  2  0
  8  3  1  0
  9 10  2  0
 10 11  1  0
 11 12  2  0
 12 13  1  0
 13 14  2  0
 14  9  1  0
M  END

$$$$
No_356-/dssg/home/sw_qyf/PocketFlow/Model-Generation-Results/5HT2A_7WC7_rec_A_10.pdb/2024-01-01-03-54-21/
     RDKit          3D

 17 18  0  0  0  0  0  0  0  0999 V2000
  -24.1553  -17.8465  145.7021 C   0  0  0  0  0  0  0  0  0  0  0  0
  -24.2856  -16.6364  145.3494 C   0  0  0  0  0  0  0  0  0  0  0  0
  -24.7211  -15.5955  146.2116 C   0  0  0  0  0  0  0  0  0  0  0  0
  -24.8538  -14.2010  145.8739 C   0  0  0  0  0  0  0  0  0  0  0  0
  -25.3912  -13.2248  146.7184 C   0  0  0  0  0  0  0  0  0  0  0  0
  -24.5930  -18.2699  146.9809 C   0  0  0  0  0  0  0  0  0  0  0  0
  -25.1554  -17.3846  147.9076 C   0  0  0  0  0  0  0  0  0  0  0  0
  -25.2072  -15.9636  147.5445 C   0  0  0  0  0  0  0  0  0  0  0  0
  -24.3640  -13.8250  144.5657 C   0  0  0  0  0  0  0  0  0  0  0  0
  -26.0364  -12.1565  146.0836 C   0  0  0  0  0  0  0  0  0  0  0  0
  -27.3120  -11.8055  145.9946 C   0  0  0  0  0  0  0  0  0  0  0  0
  -28.3913  -12.5792  146.5756 C   0  0  0  0  0  0  0  0  0  0  0  0
  -29.6826  -12.1529  146.4964 C   0  0  0  0  0  0  0  0  0  0  0  0
  -29.9681  -11.0280  145.6286 C   0  0  0  0  0  0  0  0  0  0  0  0
  -28.9576  -10.3622  144.9297 C   0  0  0  0  0  0  0  0  0  0  0  0
  -27.6128  -10.7884  145.1681 C   0  0  0  0  0  0  0  0  0  0  0  0
  -23.3456  -13.0852  144.5334 O   0  0  0  0  0  0  0  0  0  0  0  0
  3  4  1  0
  4  5  1  0
  4  9  1  0
  5 10  1  0
  9 17  1  0
 10 11  1  0
 11 12  2  0
 12 13  1  0
 13 14  2  0
 14 15  1  0
 15 16  2  0
 16 11  1  0
  1  2  2  0
  2  3  1  0
  3  8  2  0
  8  7  1  0
  7  6  2  0
  6  1  1  0
M  END

$$$$
No_357-/dssg/home/sw_qyf/PocketFlow/Model-Generation-Results/5HT2A_7WC7_rec_A_10.pdb/2024-01-01-03-54-21/
     RDKit          3D

 11 11  0  0  0  0  0  0  0  0999 V2000
  -24.1553  -17.8465  145.7021 C   0  0  0  0  0  0  0  0  0  0  0  0
  -24.2856  -16.6364  145.3494 C   0  0  0  0  0  0  0  0  0  0  0  0
  -24.7211  -15.5955  146.2115 C   0  0  0  0  0  0  0  0  0  0  0  0
  -24.8539  -14.2010  145.8739 C   0  0  0  0  0  0  0  0  0  0  0  0
  -24.1440  -13.8321  144.7074 C   0  0  0  0  0  0  0  0  0  0  0  0
  -23.6393  -14.7827  143.9540 F   0  0  0  0  0  0  0  0  0  0  0  0
  -24.6344  -18.2397  146.9964 C   0  0  0  0  0  0  0  0  0  0  0  0
  -25.1397  -17.3482  147.9072 C   0  0  0  0  0  0  0  0  0  0  0  0
  -25.1641  -15.9219  147.5215 C   0  0  0  0  0  0  0  0  0  0  0  0
  -24.9372  -13.0109  143.8960 F   0  0  0  0  0  0  0  0  0  0  0  0
  -23.0560  -12.8992  144.9245 F   0  0  0  0  0  0  0  0  0  0  0  0
  3  4  1  0
  4  5  1  0
  5  6  1  0
  5 10  1  0
  5 11  1  0
  1  2  2  0
  2  3  1  0
  3  9  2  0
  9  8  1  0
  8  7  2  0
  7  1  1  0
M  END

$$$$
No_358-/dssg/home/sw_qyf/PocketFlow/Model-Generation-Results/5HT2A_7WC7_rec_A_10.pdb/2024-01-01-03-54-21/
     RDKit          3D

 28 29  0  0  0  0  0  0  0  0999 V2000
  -24.1553  -17.8465  145.7021 C   0  0  0  0  0  0  0  0  0  0  0  0
  -23.9795  -18.4462  146.7426 C   0  0  0  0  0  0  0  0  0  0  0  0
  -23.3558  -17.2450  144.9339 C   0  0  0  0  0  0  0  0  0  0  0  0
  -24.9341  -19.0253  147.6214 C   0  0  0  0  0  0  0  0  0  0  0  0
  -23.9048  -16.1596  144.0438 C   0  0  0  0  0  0  0  0  0  0  0  0
  -24.9584  -15.3229  144.7042 C   0  0  0  0  0  0  0  0  0  0  0  0
  -25.9467  -15.8604  145.5112 C   0  0  0  0  0  0  0  0  0  0  0  0
  -27.0124  -15.0960  146.0275 C   0  0  0  0  0  0  0  0  0  0  0  0
  -28.0748  -15.6582  146.7428 C   0  0  0  0  0  0  0  0  0  0  0  0
  -25.5219  -16.9876  145.8907 C   0  0  0  0  0  0  0  0  0  0  0  0
  -29.1545  -14.9240  147.2286 C   0  0  0  0  0  0  0  0  0  0  0  0
  -29.1888  -13.6710  147.0653 C   0  0  0  0  0  0  0  0  0  0  0  0
  -28.1958  -12.9301  146.3016 C   0  0  0  0  0  0  0  0  0  0  0  0
  -27.0854  -13.6726  145.8622 C   0  0  0  0  0  0  0  0  0  0  0  0
  -30.2696  -12.8154  147.5448 N   0  0  0  0  0  0  0  0  0  0  0  0
  -30.6255  -12.8257  148.8811 C   0  0  0  0  0  0  0  0  0  0  0  0
  -31.8954  -12.3203  149.2409 C   0  0  0  0  0  0  0  0  0  0  0  0
  -32.4713  -12.5591  150.4785 C   0  0  0  0  0  0  0  0  0  0  0  0
  -33.2298  -11.5914  151.1283 C   0  0  0  0  0  0  0  0  0  0  0  0
  -33.3457  -11.5852  152.3834 N   0  0  0  0  0  0  0  0  0  0  0  0
  -33.7578  -10.6883  150.3970 O   0  0  0  0  0  0  0  0  0  0  0  0
  -28.2301  -11.4721  146.0895 C   0  0  0  0  0  0  0  0  0  0  0  0
  -29.1699  -10.9213  145.2191 C   0  0  0  0  0  0  0  0  0  0  0  0
  -28.7986  -10.1540  144.0665 C   0  0  0  0  0  0  0  0  0  0  0  0
  -27.4768  -10.1197  143.6967 C   0  0  0  0  0  0  0  0  0  0  0  0
  -29.7855   -9.4353  143.2904 C   0  0  0  0  0  0  0  0  0  0  0  0
  -31.0212   -9.3019  143.5875 C   0  0  0  0  0  0  0  0  0  0  0  0
  -31.8137   -8.5660  142.7046 N   0  0  0  0  0  0  0  0  0  0  0  0
  1  2  2  3
  1  3  1  0
  2  4  1  0
  3  5  1  0
  5  6  1  0
  6  7  1  0
  7  8  1  0
  1 10  1  0
  7 10  1  0
 12 15  1  0
 15 16  1  0
 16 17  1  0
 17 18  2  3
 18 19  1  0
 19 20  1  0
 19 21  2  0
 13 22  1  0
 22 23  1  0
 23 24  1  0
 24 25  1  0
 24 26  1  0
 26 27  2  3
 27 28  1  0
  8  9  2  0
  9 11  1  0
 11 12  2  0
 12 13  1  0
 13 14  2  0
 14  8  1  0
M  END

$$$$
No_359-/dssg/home/sw_qyf/PocketFlow/Model-Generation-Results/5HT2A_7WC7_rec_A_10.pdb/2024-01-01-03-54-21/
     RDKit          3D

 35 39  0  0  0  0  0  0  0  0999 V2000
  -24.1553  -17.8465  145.7021 C   0  0  0  0  0  0  0  0  0  0  0  0
  -23.9795  -18.4462  146.7426 C   0  0  0  0  0  0  0  0  0  0  0  0
  -25.1593  -16.8262  145.6925 C   0  0  0  0  0  0  0  0  0  0  0  0
  -25.9346  -16.5763  146.8154 C   0  0  0  0  0  0  0  0  0  0  0  0
  -25.6041  -17.2802  147.9650 C   0  0  0  0  0  0  0  0  0  0  0  0
  -24.6016  -18.1919  147.9827 C   0  0  0  0  0  0  0  0  0  0  0  0
  -27.0089  -15.5468  146.7485 C   0  0  0  0  0  0  0  0  0  0  0  0
  -28.1891  -15.7106  147.4281 C   0  0  0  0  0  0  0  0  0  0  0  0
  -29.1982  -14.7168  147.3972 C   0  0  0  0  0  0  0  0  0  0  0  0
  -28.9644  -13.4983  146.7609 C   0  0  0  0  0  0  0  0  0  0  0  0
  -27.7081  -13.2685  146.1156 C   0  0  0  0  0  0  0  0  0  0  0  0
  -26.7529  -14.2578  146.1181 C   0  0  0  0  0  0  0  0  0  0  0  0
  -27.4725  -11.9958  145.4171 C   0  0  0  0  0  0  0  0  0  0  0  0
  -27.6030  -10.9547  145.7945 C   0  0  0  0  0  0  0  0  0  0  0  0
  -26.9956  -12.2783  144.0513 C   0  0  0  0  0  0  0  0  0  0  0  0
  -29.8856  -12.5431  146.7101 O   0  0  0  0  0  0  0  0  0  0  0  0
  -26.2928  -13.3428  143.7618 N   0  0  0  0  0  0  0  0  0  0  0  0
  -26.1686  -14.4208  144.7396 C   0  0  0  0  0  0  0  0  0  0  0  0
  -30.2081  -11.9166  147.9264 C   0  0  0  0  0  0  0  0  0  0  0  0
  -30.3263  -12.8022  149.0518 C   0  0  0  0  0  0  0  0  0  0  0  0
  -31.6038  -12.7149  149.7625 C   0  0  0  0  0  0  0  0  0  0  0  0
  -32.0561  -13.6917  150.6474 C   0  0  0  0  0  0  0  0  0  0  0  0
  -33.2319  -13.4548  151.3907 C   0  0  0  0  0  0  0  0  0  0  0  0
  -34.0140  -12.2988  151.1277 C   0  0  0  0  0  0  0  0  0  0  0  0
  -33.6602  -11.3810  150.1331 C   0  0  0  0  0  0  0  0  0  0  0  0
  -32.4346  -11.5745  149.4492 C   0  0  0  0  0  0  0  0  0  0  0  0
  -27.4269   -9.7246  144.8029 C   0  0  0  0  0  0  0  0  0  0  0  0
  -27.3775  -10.0614  143.4581 C   0  0  0  0  0  0  0  0  0  0  0  0
  -26.9173  -11.3196  143.1467 C   0  0  0  0  0  0  0  0  0  0  0  0
  -22.9125  -19.4053  146.8056 O   0  0  0  0  0  0  0  0  0  0  0  0
  -31.2385  -14.8486  150.9727 C   0  0  0  0  0  0  0  0  0  0  0  0
  -31.6502  -15.6977  152.0189 C   0  0  0  0  0  0  0  0  0  0  0  0
  -30.8189  -16.8012  152.2067 C   0  0  0  0  0  0  0  0  0  0  0  0
  -29.9511  -17.2801  151.1888 C   0  0  0  0  0  0  0  0  0  0  0  0
  -29.7744  -16.4605  150.0375 C   0  0  0  0  0  0  0  0  0  0  0  0
  4  7  1  0
 10 16  1  0
 16 19  1  0
 19 20  1  0
 20 21  1  0
  2 30  1  0
 22 31  1  0
 31 32  2  3
 32 33  1  0
 33 34  2  3
 34 35  1  0
 12 18  2  0
 18 17  1  0
 17 15  2  0
 13 11  2  0
 13 14  1  0
 14 27  2  0
 27 28  1  0
 28 29  2  0
 29 15  1  0
 15 13  1  0
  7  8  2  0
  8  9  1  0
  9 10  2  0
 10 11  1  0
 11 12  1  0
 12  7  1  0
  1  2  2  0
  2  6  1  0
  6  5  2  0
  5  4  1  0
  4  3  2  0
  3  1  1  0
 21 22  2  0
 22 23  1  0
 23 24  2  0
 24 25  1  0
 25 26  2  0
 26 21  1  0
M  END

$$$$
No_360-/dssg/home/sw_qyf/PocketFlow/Model-Generation-Results/5HT2A_7WC7_rec_A_10.pdb/2024-01-01-03-54-21/
     RDKit          3D

 35 38  0  0  0  0  0  0  0  0999 V2000
  -23.1746  -16.6014  144.8668 C   0  0  0  0  0  0  0  0  0  0  0  0
  -23.8963  -15.5346  144.7885 C   0  0  0  0  0  0  0  0  0  0  0  0
  -24.5755  -15.0383  145.9043 C   0  0  0  0  0  0  0  0  0  0  0  0
  -25.3266  -13.7882  145.9354 C   0  0  0  0  0  0  0  0  0  0  0  0
  -23.3054  -17.4824  145.9484 C   0  0  0  0  0  0  0  0  0  0  0  0
  -23.9716  -17.0786  147.1155 C   0  0  0  0  0  0  0  0  0  0  0  0
  -24.6279  -15.8542  147.1153 C   0  0  0  0  0  0  0  0  0  0  0  0
  -25.8439  -13.2946  144.9179 C   0  0  0  0  0  0  0  0  0  0  0  0
  -26.7274  -12.3650  144.9913 C   0  0  0  0  0  0  0  0  0  0  0  0
  -26.9264  -11.5832  146.1902 C   0  0  0  0  0  0  0  0  0  0  0  0
  -26.0581  -11.9743  147.2071 C   0  0  0  0  0  0  0  0  0  0  0  0
  -25.2923  -13.0570  147.1294 C   0  0  0  0  0  0  0  0  0  0  0  0
  -27.5764  -11.9042  143.7801 C   0  0  0  0  0  0  0  0  0  0  0  0
  -27.2871  -12.3331  142.5455 C   0  0  0  0  0  0  0  0  0  0  0  0
  -27.9395  -11.8863  141.4741 C   0  0  0  0  0  0  0  0  0  0  0  0
  -28.3319  -10.7552  141.4203 C   0  0  0  0  0  0  0  0  0  0  0  0
  -28.6645  -10.0297  142.6687 C   0  0  0  0  0  0  0  0  0  0  0  0
  -28.1117  -10.5939  143.8433 C   0  0  0  0  0  0  0  0  0  0  0  0
  -29.4379   -8.7737  142.5976 C   0  0  0  0  0  0  0  0  0  0  0  0
  -29.5182   -8.0122  141.5007 C   0  0  0  0  0  0  0  0  0  0  0  0
  -30.1881   -8.3936  140.3520 C   0  0  0  0  0  0  0  0  0  0  0  0
  -29.1117   -6.5844  141.5424 C   0  0  0  0  0  0  0  0  0  0  0  0
  -29.0692   -5.9644  142.9157 C   0  0  0  0  0  0  0  0  0  0  0  0
  -27.7045  -12.6354  140.1642 C   0  0  0  0  0  0  0  0  0  0  0  0
  -27.1553  -11.8427  139.0351 C   0  0  0  0  0  0  0  0  0  0  0  0
  -23.9543  -17.8775  148.3771 C   0  0  0  0  0  0  0  0  0  0  0  0
  -23.3056  -17.2656  149.5639 C   0  0  0  0  0  0  0  0  0  0  0  0
  -24.1430  -16.5529  150.5145 C   0  0  0  0  0  0  0  0  0  0  0  0
  -26.0235  -11.5575  139.1547 O   0  0  0  0  0  0  0  0  0  0  0  0
  -27.8596  -11.7617  138.0006 O   0  0  0  0  0  0  0  0  0  0  0  0
  -28.6292   -4.6616  142.9832 C   0  0  0  0  0  0  0  0  0  0  0  0
  -28.8804   -3.7762  141.8631 C   0  0  0  0  0  0  0  0  0  0  0  0
  -28.4499   -2.4432  141.9682 C   0  0  0  0  0  0  0  0  0  0  0  0
  -29.1443   -4.3860  140.6335 C   0  0  0  0  0  0  0  0  0  0  0  0
  -29.3633   -5.7339  140.4682 C   0  0  0  0  0  0  0  0  0  0  0  0
  3  4  1  0
  9 13  1  0
 17 19  1  0
 19 20  1  0
 20 21  2  0
 20 22  1  0
 15 24  1  0
 24 25  1  0
  6 26  1  0
 26 27  1  0
 27 28  2  0
 25 29  1  0
 25 30  2  0
 32 33  1  0
  4  8  2  0
  8  9  1  0
  9 10  2  0
 10 11  1  0
 11 12  2  0
 12  4  1  0
  1  2  2  0
  2  3  1  0
  3  7  2  0
  7  6  1  0
  6  5  2  0
  5  1  1  0
 13 14  2  0
 14 15  1  0
 15 16  2  0
 16 17  1  0
 17 18  2  0
 18 13  1  0
 22 23  2  0
 23 31  1  0
 31 32  2  0
 32 34  1  0
 34 35  2  0
 35 22  1  0
M  END

$$$$
No_361-/dssg/home/sw_qyf/PocketFlow/Model-Generation-Results/5HT2A_7WC7_rec_A_10.pdb/2024-01-01-03-54-21/
     RDKit          3D

 32 33  0  0  0  0  0  0  0  0999 V2000
  -24.1553  -17.8465  145.7021 C   0  0  0  0  0  0  0  0  0  0  0  0
  -24.2855  -16.6364  145.3494 C   0  0  0  0  0  0  0  0  0  0  0  0
  -25.0033  -15.6772  146.0737 C   0  0  0  0  0  0  0  0  0  0  0  0
  -26.0408  -15.2581  145.8304 C   0  0  0  0  0  0  0  0  0  0  0  0
  -26.3631  -14.3993  144.7782 C   0  0  0  0  0  0  0  0  0  0  0  0
  -27.0648  -13.1617  144.9652 C   0  0  0  0  0  0  0  0  0  0  0  0
  -26.9664  -12.0290  144.1758 C   0  0  0  0  0  0  0  0  0  0  0  0
  -27.9470  -10.9620  144.3656 C   0  0  0  0  0  0  0  0  0  0  0  0
  -28.0119   -9.7984  143.5376 C   0  0  0  0  0  0  0  0  0  0  0  0
  -29.0730   -8.9007  143.6394 C   0  0  0  0  0  0  0  0  0  0  0  0
  -29.2567   -7.9286  142.6541 C   0  0  0  0  0  0  0  0  0  0  0  0
  -29.4464   -8.2802  141.2272 C   0  0  0  0  0  0  0  0  0  0  0  0
  -29.1981   -7.3595  140.2677 C   0  0  0  0  0  0  0  0  0  0  0  0
  -24.5728  -18.9033  145.1165 C   0  0  0  0  0  0  0  0  0  0  0  0
  -29.1396  -11.4247  145.0303 C   0  0  0  0  0  0  0  0  0  0  0  0
  -28.9138  -11.1928  146.5279 C   0  0  0  0  0  0  0  0  0  0  0  0
  -28.4343  -12.4632  147.1668 C   0  0  0  0  0  0  0  0  0  0  0  0
  -27.2229  -12.9889  146.5215 C   0  0  0  0  0  0  0  0  0  0  0  0
  -29.3064   -7.8538  138.9803 C   0  0  0  0  0  0  0  0  0  0  0  0
  -24.3124  -20.2287  145.7833 C   0  0  0  0  0  0  0  0  0  0  0  0
  -23.3563  -18.0195  146.9825 C   0  0  0  0  0  0  0  0  0  0  0  0
  -23.0668  -16.8544  147.8189 C   0  0  0  0  0  0  0  0  0  0  0  0
  -23.8803  -15.7723  147.7159 C   0  0  0  0  0  0  0  0  0  0  0  0
  -28.2798   -8.7095  138.4822 C   0  0  0  0  0  0  0  0  0  0  0  0
  -28.0589   -9.8310  139.4655 C   0  0  0  0  0  0  0  0  0  0  0  0
  -28.4448   -9.8827  140.6530 C   0  0  0  0  0  0  0  0  0  0  0  0
  -28.1572  -10.6232  141.7194 F   0  0  0  0  0  0  0  0  0  0  0  0
  -29.5542  -10.3644  140.9766 Cl  0  0  0  0  0  0  0  0  0  0  0  0
  -30.9421   -8.6445  141.1316 C   0  0  0  0  0  0  0  0  0  0  0  0
  -26.7351   -9.2927  143.4701 O   0  0  0  0  0  0  0  0  0  0  0  0
  -26.0181  -14.6495  143.5701 O   0  0  0  0  0  0  0  0  0  0  0  0
  -23.1789  -20.8171  145.3519 C   0  0  0  0  0  0  0  0  0  0  0  0
  3  4  1  0
  4  5  1  0
  5  6  1  0
  6  7  1  0
  7  8  1  0
  8  9  1  0
  9 10  2  3
 10 11  1  0
 11 12  1  0
 12 13  2  3
  8 15  1  0
 15 16  1  0
 16 17  1  0
  6 18  1  0
 17 18  1  0
 13 19  1  0
 14 20  1  0
 19 24  2  3
 24 25  1  0
 25 26  2  3
 26 27  1  0
 26 28  1  0
 12 29  1  0
  9 30  1  0
  5 31  2  0
 20 32  1  0
 14  1  1  0
  1  2  2  0
  2  3  1  0
  3 23  2  0
 23 22  1  0
 22 21  2  0
 21  1  1  0
M  END

$$$$
No_362-/dssg/home/sw_qyf/PocketFlow/Model-Generation-Results/5HT2A_7WC7_rec_A_10.pdb/2024-01-01-03-54-21/
     RDKit          3D

 12 12  0  0  0  0  0  0  0  0999 V2000
  -24.1553  -17.8465  145.7021 C   0  0  0  0  0  0  0  0  0  0  0  0
  -24.2856  -16.6364  145.3494 C   0  0  0  0  0  0  0  0  0  0  0  0
  -24.7211  -15.5955  146.2115 C   0  0  0  0  0  0  0  0  0  0  0  0
  -25.1322  -16.0374  147.5372 C   0  0  0  0  0  0  0  0  0  0  0  0
  -24.5141  -18.2630  147.0046 C   0  0  0  0  0  0  0  0  0  0  0  0
  -24.9573  -17.2963  147.9768 C   0  0  0  0  0  0  0  0  0  0  0  0
  -24.8747  -14.1906  145.7995 C   0  0  0  0  0  0  0  0  0  0  0  0
  -25.6087  -13.2864  146.3280 C   0  0  0  0  0  0  0  0  0  0  0  0
  -25.9022  -12.2302  145.8598 C   0  0  0  0  0  0  0  0  0  0  0  0
  -25.0468  -11.5091  144.9382 C   0  0  0  0  0  0  0  0  0  0  0  0
  -24.0665  -13.8177  144.6206 C   0  0  0  0  0  0  0  0  0  0  0  0
  -23.1459  -14.4685  143.9655 N   0  0  0  0  0  0  0  0  0  0  0  0
  3  7  1  0
  7  8  1  0
  8  9  2  3
  9 10  1  0
  7 11  1  0
 11 12  2  0
  1  2  2  0
  2  3  1  0
  3  4  2  0
  4  6  1  0
  6  5  2  0
  5  1  1  0
M  END

$$$$
No_363-/dssg/home/sw_qyf/PocketFlow/Model-Generation-Results/5HT2A_7WC7_rec_A_10.pdb/2024-01-01-03-54-21/
     RDKit          3D

 28 29  0  0  0  0  0  0  0  0999 V2000
  -23.1746  -16.6014  144.8668 C   0  0  0  0  0  0  0  0  0  0  0  0
  -23.7011  -17.0158  145.9774 C   0  0  0  0  0  0  0  0  0  0  0  0
  -24.2593  -16.1244  146.9100 C   0  0  0  0  0  0  0  0  0  0  0  0
  -24.5135  -14.7390  146.5020 C   0  0  0  0  0  0  0  0  0  0  0  0
  -24.1060  -14.3555  145.2328 C   0  0  0  0  0  0  0  0  0  0  0  0
  -23.4049  -15.2534  144.4663 C   0  0  0  0  0  0  0  0  0  0  0  0
  -24.2577  -12.9097  144.8981 C   0  0  0  0  0  0  0  0  0  0  0  0
  -24.3200  -11.9857  146.0491 C   0  0  0  0  0  0  0  0  0  0  0  0
  -23.5480  -18.4615  146.4378 C   0  0  0  0  0  0  0  0  0  0  0  0
  -22.3520  -18.9827  146.6304 Cl  0  0  0  0  0  0  0  0  0  0  0  0
  -24.7501  -19.1001  146.5646 O   0  0  0  0  0  0  0  0  0  0  0  0
  -25.4799  -11.3611  146.0906 C   0  0  0  0  0  0  0  0  0  0  0  0
  -26.4047  -11.5550  145.0825 C   0  0  0  0  0  0  0  0  0  0  0  0
  -27.2533  -10.4090  144.7565 C   0  0  0  0  0  0  0  0  0  0  0  0
  -28.4928  -10.5306  144.2539 C   0  0  0  0  0  0  0  0  0  0  0  0
  -29.4462  -10.5682  143.9026 C   0  0  0  0  0  0  0  0  0  0  0  0
  -30.3862   -9.7604  143.3426 N   0  0  0  0  0  0  0  0  0  0  0  0
  -30.3352   -8.4639  143.7650 C   0  0  0  0  0  0  0  0  0  0  0  0
  -30.5337   -7.4981  142.5907 C   0  0  0  0  0  0  0  0  0  0  0  0
  -30.9248   -8.0992  141.3584 C   0  0  0  0  0  0  0  0  0  0  0  0
  -29.6436   -8.4075  140.5822 C   0  0  0  0  0  0  0  0  0  0  0  0
  -29.4619   -7.7049  139.3864 C   0  0  0  0  0  0  0  0  0  0  0  0
  -28.4003   -8.1111  138.5479 C   0  0  0  0  0  0  0  0  0  0  0  0
  -27.6109   -9.2279  138.9628 C   0  0  0  0  0  0  0  0  0  0  0  0
  -27.8181   -9.9097  140.2233 C   0  0  0  0  0  0  0  0  0  0  0  0
  -28.9125   -9.5186  140.9850 C   0  0  0  0  0  0  0  0  0  0  0  0
  -28.0784   -7.5834  137.4307 O   0  0  0  0  0  0  0  0  0  0  0  0
  -26.6278  -12.5644  144.4389 O   0  0  0  0  0  0  0  0  0  0  0  0
  5  7  1  0
  7  8  1  0
  2  9  1  0
  9 10  1  0
  9 11  1  0
  8 12  1  0
 12 13  1  0
 13 14  1  0
 14 15  1  0
 15 16  3  0
 16 17  1  0
 17 18  1  0
 18 19  1  0
 19 20  1  0
 20 21  1  0
 23 27  1  0
 13 28  2  0
  1  2  2  0
  2  3  1  0
  3  4  2  0
  4  5  1  0
  5  6  2  0
  6  1  1  0
 21 22  2  0
 22 23  1  0
 23 24  2  0
 24 25  1  0
 25 26  2  0
 26 21  1  0
M  END

$$$$
No_364-/dssg/home/sw_qyf/PocketFlow/Model-Generation-Results/5HT2A_7WC7_rec_A_10.pdb/2024-01-01-03-54-21/
     RDKit          3D

 26 27  0  0  0  0  0  0  0  0999 V2000
  -24.1553  -17.8465  145.7021 C   0  0  0  0  0  0  0  0  0  0  0  0
  -23.9795  -18.4462  146.7426 C   0  0  0  0  0  0  0  0  0  0  0  0
  -24.3577  -16.4380  145.7329 C   0  0  0  0  0  0  0  0  0  0  0  0
  -24.6120  -15.7738  146.9649 C   0  0  0  0  0  0  0  0  0  0  0  0
  -24.1170  -17.8639  148.0590 C   0  0  0  0  0  0  0  0  0  0  0  0
  -24.3602  -16.5130  148.2032 C   0  0  0  0  0  0  0  0  0  0  0  0
  -24.4040  -15.7483  144.4697 C   0  0  0  0  0  0  0  0  0  0  0  0
  -25.0892  -14.4484  144.5081 C   0  0  0  0  0  0  0  0  0  0  0  0
  -26.3203  -14.4178  144.4924 C   0  0  0  0  0  0  0  0  0  0  0  0
  -27.0300  -13.1332  144.3150 C   0  0  0  0  0  0  0  0  0  0  0  0
  -26.9286  -12.0921  145.3371 C   0  0  0  0  0  0  0  0  0  0  0  0
  -27.8979  -11.1427  145.4919 C   0  0  0  0  0  0  0  0  0  0  0  0
  -28.9178  -11.0902  144.6647 C   0  0  0  0  0  0  0  0  0  0  0  0
  -29.9567  -10.1045  144.9391 C   0  0  0  0  0  0  0  0  0  0  0  0
  -29.8936   -9.0510  144.2479 F   0  0  0  0  0  0  0  0  0  0  0  0
  -30.0341   -9.7486  146.3250 F   0  0  0  0  0  0  0  0  0  0  0  0
  -24.1695  -13.2817  144.3258 C   0  0  0  0  0  0  0  0  0  0  0  0
  -24.0668  -12.4806  145.3627 O   0  0  0  0  0  0  0  0  0  0  0  0
  -22.7540  -12.4633  146.0889 C   0  0  0  0  0  0  0  0  0  0  0  0
  -27.1355  -15.2786  145.1271 O   0  0  0  0  0  0  0  0  0  0  0  0
  -27.8797  -15.1858  146.2743 C   0  0  0  0  0  0  0  0  0  0  0  0
  -28.2308  -16.3249  146.9267 C   0  0  0  0  0  0  0  0  0  0  0  0
  -28.8854  -16.2215  148.1833 C   0  0  0  0  0  0  0  0  0  0  0  0
  -29.5923  -15.0126  148.5279 C   0  0  0  0  0  0  0  0  0  0  0  0
  -29.3247  -13.8510  147.6827 C   0  0  0  0  0  0  0  0  0  0  0  0
  -28.4747  -13.9446  146.6144 C   0  0  0  0  0  0  0  0  0  0  0  0
  3  7  1  0
  7  8  1  0
  8  9  1  0
  9 10  1  0
 10 11  2  3
 11 12  1  0
 12 13  2  3
 13 14  1  0
 14 15  1  0
 14 16  1  0
  8 17  1  0
 17 18  1  0
 18 19  1  0
  9 20  1  0
 20 21  1  0
  1  2  2  0
  2  5  1  0
  5  6  2  0
  6  4  1  0
  4  3  2  0
  3  1  1  0
 21 22  2  0
 22 23  1  0
 23 24  2  0
 24 25  1  0
 25 26  2  0
 26 21  1  0
M  END

$$$$
No_365-/dssg/home/sw_qyf/PocketFlow/Model-Generation-Results/5HT2A_7WC7_rec_A_10.pdb/2024-01-01-03-54-21/
     RDKit          3D

 30 32  0  0  0  0  0  0  0  0999 V2000
  -23.1746  -16.6014  144.8668 C   0  0  0  0  0  0  0  0  0  0  0  0
  -23.8963  -15.5346  144.7885 C   0  0  0  0  0  0  0  0  0  0  0  0
  -23.4976  -14.2961  145.1226 C   0  0  0  0  0  0  0  0  0  0  0  0
  -24.3175  -13.3088  145.7775 C   0  0  0  0  0  0  0  0  0  0  0  0
  -25.6586  -13.6027  146.0239 C   0  0  0  0  0  0  0  0  0  0  0  0
  -26.0737  -14.9390  145.9541 C   0  0  0  0  0  0  0  0  0  0  0  0
  -25.1974  -15.8784  145.3395 C   0  0  0  0  0  0  0  0  0  0  0  0
  -27.3923  -15.3498  146.3618 C   0  0  0  0  0  0  0  0  0  0  0  0
  -27.6826  -16.7333  146.7029 C   0  0  0  0  0  0  0  0  0  0  0  0
  -28.4714  -14.4498  146.5245 C   0  0  0  0  0  0  0  0  0  0  0  0
  -28.4082  -13.1192  146.1477 C   0  0  0  0  0  0  0  0  0  0  0  0
  -27.0997  -12.4818  145.9098 C   0  0  0  0  0  0  0  0  0  0  0  0
  -29.4286  -12.1059  146.2557 C   0  0  0  0  0  0  0  0  0  0  0  0
  -29.5163  -11.0240  145.3670 C   0  0  0  0  0  0  0  0  0  0  0  0
  -28.5748  -10.9011  144.3149 C   0  0  0  0  0  0  0  0  0  0  0  0
  -28.6497   -9.7871  143.4415 C   0  0  0  0  0  0  0  0  0  0  0  0
  -29.4216   -8.7110  143.7504 C   0  0  0  0  0  0  0  0  0  0  0  0
  -29.6811   -7.6862  142.8223 C   0  0  0  0  0  0  0  0  0  0  0  0
  -29.9221   -6.4509  143.1312 C   0  0  0  0  0  0  0  0  0  0  0  0
  -30.2943   -8.2284  141.5659 C   0  0  0  0  0  0  0  0  0  0  0  0
  -30.3217  -12.2512  147.2452 O   0  0  0  0  0  0  0  0  0  0  0  0
  -22.0264  -16.5123  144.8711 F   0  0  0  0  0  0  0  0  0  0  0  0
  -23.5704  -17.6371  145.6776 F   0  0  0  0  0  0  0  0  0  0  0  0
  -29.2329   -8.2341  140.4597 C   0  0  0  0  0  0  0  0  0  0  0  0
  -29.5409   -7.3152  139.3862 C   0  0  0  0  0  0  0  0  0  0  0  0
  -28.6928   -7.5452  138.2184 C   0  0  0  0  0  0  0  0  0  0  0  0
  -28.2253   -9.1167  140.3109 C   0  0  0  0  0  0  0  0  0  0  0  0
  -27.4259   -9.3351  139.2713 C   0  0  0  0  0  0  0  0  0  0  0  0
  -27.6869   -8.4393  138.2007 C   0  0  0  0  0  0  0  0  0  0  0  0
  -23.8567  -11.8702  146.0910 C   0  0  0  0  0  0  0  0  0  0  0  0
  1  2  2  3
  2  3  1  0
  3  4  1  0
  4  5  1  0
  2  7  1  0
  6  7  1  0
  8  9  1  0
 11 13  1  0
 13 14  1  0
 14 15  1  0
 15 16  2  3
 16 17  1  0
 17 18  1  0
 18 19  1  0
 18 20  1  0
 13 21  2  0
  1 22  1  0
  1 23  1  0
 20 24  1  0
  4 30  1  0
 24 25  2  0
 25 26  1  0
 26 29  2  0
 29 28  1  0
 28 27  2  0
 27 24  1  0
  5  6  2  0
  6  8  1  0
  8 10  2  0
 10 11  1  0
 11 12  2  0
 12  5  1  0
M  END

$$$$
No_366-/dssg/home/sw_qyf/PocketFlow/Model-Generation-Results/5HT2A_7WC7_rec_A_10.pdb/2024-01-01-03-54-21/
     RDKit          3D

 21 23  0  0  0  0  0  0  0  0999 V2000
  -23.1746  -16.6014  144.8668 C   0  0  0  0  0  0  0  0  0  0  0  0
  -24.0189  -16.0564  145.8445 C   0  0  0  0  0  0  0  0  0  0  0  0
  -24.4145  -16.8299  146.9062 C   0  0  0  0  0  0  0  0  0  0  0  0
  -25.2273  -16.2787  147.9854 C   0  0  0  0  0  0  0  0  0  0  0  0
  -25.7358  -15.0095  147.7773 C   0  0  0  0  0  0  0  0  0  0  0  0
  -25.3901  -14.2337  146.6672 C   0  0  0  0  0  0  0  0  0  0  0  0
  -24.5390  -14.7030  145.7350 C   0  0  0  0  0  0  0  0  0  0  0  0
  -23.9468  -13.9799  144.6715 C   0  0  0  0  0  0  0  0  0  0  0  0
  -22.8198  -13.7429  144.4915 O   0  0  0  0  0  0  0  0  0  0  0  0
  -24.9166  -13.5020  143.8381 O   0  0  0  0  0  0  0  0  0  0  0  0
  -23.9681  -18.2338  147.0846 C   0  0  0  0  0  0  0  0  0  0  0  0
  -23.4235  -18.9235  146.1188 N   0  0  0  0  0  0  0  0  0  0  0  0
  -23.0834  -18.1652  144.9700 C   0  0  0  0  0  0  0  0  0  0  0  0
  -25.8665  -12.8327  146.5902 C   0  0  0  0  0  0  0  0  0  0  0  0
  -27.2562  -12.5918  146.3584 C   0  0  0  0  0  0  0  0  0  0  0  0
  -28.2549  -13.2159  146.9280 C   0  0  0  0  0  0  0  0  0  0  0  0
  -29.5864  -12.7113  146.8504 C   0  0  0  0  0  0  0  0  0  0  0  0
  -29.7856  -11.5010  146.1048 C   0  0  0  0  0  0  0  0  0  0  0  0
  -28.7241  -10.8352  145.4798 C   0  0  0  0  0  0  0  0  0  0  0  0
  -27.4519  -11.3788  145.6242 C   0  0  0  0  0  0  0  0  0  0  0  0
  -30.8311  -13.5599  147.6311 Cl  0  0  0  0  0  0  0  0  0  0  0  0
  7  8  1  0
  8  9  1  0
  8 10  2  0
  6 14  1  0
 14 15  1  0
 17 21  1  0
 15 16  2  0
 16 17  1  0
 17 18  2  0
 18 19  1  0
 19 20  2  0
 20 15  1  0
  3  4  1  0
  4  5  2  0
  5  6  1  0
  6  7  2  0
  7  2  1  0
  1  2  2  0
  2  3  1  0
  3 11  2  0
 11 12  1  0
 12 13  2  0
 13  1  1  0
M  END

$$$$
No_367-/dssg/home/sw_qyf/PocketFlow/Model-Generation-Results/5HT2A_7WC7_rec_A_10.pdb/2024-01-01-03-54-21/
     RDKit          3D

 12 13  0  0  0  0  0  0  0  0999 V2000
  -24.1553  -17.8465  145.7021 C   0  0  0  0  0  0  0  0  0  0  0  0
  -24.2855  -16.6364  145.3494 C   0  0  0  0  0  0  0  0  0  0  0  0
  -25.0033  -15.6772  146.0737 C   0  0  0  0  0  0  0  0  0  0  0  0
  -25.1197  -14.2834  145.7299 C   0  0  0  0  0  0  0  0  0  0  0  0
  -25.8358  -13.3153  146.4318 C   0  0  0  0  0  0  0  0  0  0  0  0
  -24.7887  -18.3277  146.8665 C   0  0  0  0  0  0  0  0  0  0  0  0
  -25.5121  -17.4897  147.6545 C   0  0  0  0  0  0  0  0  0  0  0  0
  -25.6629  -16.1113  147.2981 C   0  0  0  0  0  0  0  0  0  0  0  0
  -25.7516  -11.9698  146.1143 C   0  0  0  0  0  0  0  0  0  0  0  0
  -24.9389  -11.5123  145.0695 C   0  0  0  0  0  0  0  0  0  0  0  0
  -24.2364  -13.7834  144.6404 C   0  0  0  0  0  0  0  0  0  0  0  0
  -24.0902  -12.4021  144.4892 N   0  0  0  0  0  0  0  0  0  0  0  0
  3  4  1  0
  1  2  2  0
  2  3  1  0
  3  8  2  0
  8  7  1  0
  7  6  2  0
  6  1  1  0
  4  5  2  0
  5  9  1  0
  9 10  2  0
 10 12  1  0
 12 11  2  0
 11  4  1  0
M  END

$$$$
No_368-/dssg/home/sw_qyf/PocketFlow/Model-Generation-Results/5HT2A_7WC7_rec_A_10.pdb/2024-01-01-03-54-21/
     RDKit          3D

 25 27  0  0  0  0  0  0  0  0999 V2000
  -24.1553  -17.8465  145.7021 C   0  0  0  0  0  0  0  0  0  0  0  0
  -23.9795  -18.4462  146.7426 C   0  0  0  0  0  0  0  0  0  0  0  0
  -25.1593  -16.8262  145.6925 C   0  0  0  0  0  0  0  0  0  0  0  0
  -25.3302  -15.8818  144.5925 C   0  0  0  0  0  0  0  0  0  0  0  0
  -24.4570  -18.1009  148.0274 C   0  0  0  0  0  0  0  0  0  0  0  0
  -25.3496  -17.0286  148.1023 C   0  0  0  0  0  0  0  0  0  0  0  0
  -25.5669  -16.2449  146.9641 C   0  0  0  0  0  0  0  0  0  0  0  0
  -26.3838  -14.9379  144.6390 C   0  0  0  0  0  0  0  0  0  0  0  0
  -26.6132  -14.0036  143.6150 C   0  0  0  0  0  0  0  0  0  0  0  0
  -26.3083  -14.2952  142.3148 C   0  0  0  0  0  0  0  0  0  0  0  0
  -26.6908  -13.3328  141.3165 C   0  0  0  0  0  0  0  0  0  0  0  0
  -27.5925  -12.2895  141.4942 C   0  0  0  0  0  0  0  0  0  0  0  0
  -27.8717  -11.9775  142.9066 C   0  0  0  0  0  0  0  0  0  0  0  0
  -28.6281  -10.8313  143.2358 C   0  0  0  0  0  0  0  0  0  0  0  0
  -29.2864   -9.9813  142.4064 C   0  0  0  0  0  0  0  0  0  0  0  0
  -28.9147  -10.3319  140.9899 C   0  0  0  0  0  0  0  0  0  0  0  0
  -28.1281  -11.4127  140.6181 C   0  0  0  0  0  0  0  0  0  0  0  0
  -27.4354  -12.8421  143.9745 C   0  0  0  0  0  0  0  0  0  0  0  0
  -30.0251   -8.8605  142.7680 C   0  0  0  0  0  0  0  0  0  0  0  0
  -29.9748   -7.6154  142.1419 C   0  0  0  0  0  0  0  0  0  0  0  0
  -30.8283   -8.9022  143.9171 C   0  0  0  0  0  0  0  0  0  0  0  0
  -29.8739   -7.4237  140.7325 C   0  0  0  0  0  0  0  0  0  0  0  0
  -27.8909  -11.6263  138.9638 Cl  0  0  0  0  0  0  0  0  0  0  0  0
  -29.0831   -6.4521  140.3581 F   0  0  0  0  0  0  0  0  0  0  0  0
  -29.3333   -8.5177  140.1879 F   0  0  0  0  0  0  0  0  0  0  0  0
  3  4  1  0
  4  8  2  3
  8  9  1  0
 15 19  1  0
 19 20  2  3
 19 21  1  0
 20 22  1  0
 17 23  1  0
 22 24  1  0
 22 25  1  0
 13 14  1  0
 14 15  2  0
 15 16  1  0
 16 17  2  0
 17 12  1  0
  9 10  2  0
 10 11  1  0
 11 12  2  0
 12 13  1  0
 13 18  2  0
 18  9  1  0
  1  2  2  0
  2  5  1  0
  5  6  2  0
  6  7  1  0
  7  3  2  0
  3  1  1  0
M  END

$$$$
No_369-/dssg/home/sw_qyf/PocketFlow/Model-Generation-Results/5HT2A_7WC7_rec_A_10.pdb/2024-01-01-03-54-21/
     RDKit          3D

 35 38  0  0  0  0  0  0  0  0999 V2000
  -23.1746  -16.6014  144.8668 C   0  0  0  0  0  0  0  0  0  0  0  0
  -23.7011  -17.0158  145.9774 C   0  0  0  0  0  0  0  0  0  0  0  0
  -24.7095  -16.6222  146.3578 C   0  0  0  0  0  0  0  0  0  0  0  0
  -25.4819  -15.5594  145.8227 C   0  0  0  0  0  0  0  0  0  0  0  0
  -24.9840  -15.0029  144.6879 C   0  0  0  0  0  0  0  0  0  0  0  0
  -23.7823  -15.5257  144.1978 C   0  0  0  0  0  0  0  0  0  0  0  0
  -25.6365  -13.8825  143.9609 C   0  0  0  0  0  0  0  0  0  0  0  0
  -26.6267  -13.3805  144.5648 O   0  0  0  0  0  0  0  0  0  0  0  0
  -27.1594  -12.2217  144.0355 C   0  0  0  0  0  0  0  0  0  0  0  0
  -28.3943  -11.8617  144.4389 C   0  0  0  0  0  0  0  0  0  0  0  0
  -28.5248  -10.4945  144.8949 C   0  0  0  0  0  0  0  0  0  0  0  0
  -29.0366   -9.6832  143.7075 C   0  0  0  0  0  0  0  0  0  0  0  0
  -28.2196   -9.2737  142.9611 C   0  0  0  0  0  0  0  0  0  0  0  0
  -30.4614   -9.4514  143.7026 C   0  0  0  0  0  0  0  0  0  0  0  0
  -31.0468   -9.0370  142.4910 C   0  0  0  0  0  0  0  0  0  0  0  0
  -30.2299   -8.8296  141.4825 O   0  0  0  0  0  0  0  0  0  0  0  0
  -30.2648   -7.7685  140.6512 C   0  0  0  0  0  0  0  0  0  0  0  0
  -29.3827   -7.8612  139.4818 C   0  0  0  0  0  0  0  0  0  0  0  0
  -28.0152   -7.7269  139.8973 C   0  0  0  0  0  0  0  0  0  0  0  0
  -27.2192   -8.4825  138.7811 C   0  0  0  0  0  0  0  0  0  0  0  0
  -32.2972   -9.0760  142.2926 O   0  0  0  0  0  0  0  0  0  0  0  0
  -22.8181  -18.4503  146.6223 Cl  0  0  0  0  0  0  0  0  0  0  0  0
  -25.3295  -13.7831  142.8240 O   0  0  0  0  0  0  0  0  0  0  0  0
  -28.0439   -8.6540  137.6240 C   0  0  0  0  0  0  0  0  0  0  0  0
  -29.6484   -8.4489  138.2929 C   0  0  0  0  0  0  0  0  0  0  0  0
  -25.4296  -17.1956  147.7397 C   0  0  0  0  0  0  0  0  0  0  0  0
  -26.5012  -16.5866  148.2216 C   0  0  0  0  0  0  0  0  0  0  0  0
  -27.4785  -17.1545  148.3918 C   0  0  0  0  0  0  0  0  0  0  0  0
  -28.8317  -16.5324  148.0342 C   0  0  0  0  0  0  0  0  0  0  0  0
  -28.9072  -15.1383  147.6528 C   0  0  0  0  0  0  0  0  0  0  0  0
  -27.6521  -14.4908  147.3906 C   0  0  0  0  0  0  0  0  0  0  0  0
  -26.5818  -15.3078  147.2684 C   0  0  0  0  0  0  0  0  0  0  0  0
  -30.0892  -14.3633  147.5898 C   0  0  0  0  0  0  0  0  0  0  0  0
  -30.1904  -13.2313  146.8673 C   0  0  0  0  0  0  0  0  0  0  0  0
  -29.8835  -12.0154  147.8261 C   0  0  0  0  0  0  0  0  0  0  0  0
  5  7  1  0
  7  8  1  0
  8  9  1  0
  9 10  1  0
 10 11  1  0
 11 12  1  0
 12 13  1  0
 12 14  1  0
 14 15  1  0
 15 16  1  0
 16 17  1  0
 17 18  1  0
 18 19  1  0
 19 20  2  0
 15 21  2  0
  2 22  1  0
  7 23  2  0
 20 24  1  0
 18 25  1  0
 24 25  1  0
  3 26  1  0
  4 32  1  0
 30 33  1  0
 33 34  1  0
 34 35  1  0
 26 27  1  0
  1  2  2  0
  2  3  1  0
  3  4  2  0
  4  5  1  0
  5  6  2  0
  6  1  1  0
 27 28  2  0
 28 29  1  0
 29 30  2  0
 30 31  1  0
 31 32  2  0
 32 27  1  0
M  END

$$$$
No_370-/dssg/home/sw_qyf/PocketFlow/Model-Generation-Results/5HT2A_7WC7_rec_A_10.pdb/2024-01-01-03-54-21/
     RDKit          3D

 35 39  0  0  0  0  0  0  0  0999 V2000
  -24.1553  -17.8465  145.7021 C   0  0  0  0  0  0  0  0  0  0  0  0
  -24.2856  -16.6364  145.3494 C   0  0  0  0  0  0  0  0  0  0  0  0
  -24.7838  -15.7223  145.8474 C   0  0  0  0  0  0  0  0  0  0  0  0
  -25.6062  -15.9757  147.0425 C   0  0  0  0  0  0  0  0  0  0  0  0
  -24.8560  -18.2319  146.8940 C   0  0  0  0  0  0  0  0  0  0  0  0
  -25.5370  -17.2345  147.6143 C   0  0  0  0  0  0  0  0  0  0  0  0
  -24.9177  -14.3014  145.2772 C   0  0  0  0  0  0  0  0  0  0  0  0
  -25.6852  -13.3379  145.8072 C   0  0  0  0  0  0  0  0  0  0  0  0
  -25.4160  -11.9682  145.6665 C   0  0  0  0  0  0  0  0  0  0  0  0
  -25.0481  -14.2560  143.7654 C   0  0  0  0  0  0  0  0  0  0  0  0
  -26.6515  -11.2169  145.2766 C   0  0  0  0  0  0  0  0  0  0  0  0
  -27.8594  -11.6769  145.5851 C   0  0  0  0  0  0  0  0  0  0  0  0
  -29.0126  -10.9201  145.3572 C   0  0  0  0  0  0  0  0  0  0  0  0
  -29.2151  -10.3164  144.2956 C   0  0  0  0  0  0  0  0  0  0  0  0
  -28.9934  -10.4983  143.2301 C   0  0  0  0  0  0  0  0  0  0  0  0
  -29.4193   -9.7934  141.9959 C   0  0  0  0  0  0  0  0  0  0  0  0
  -30.3689   -8.8310  142.1308 C   0  0  0  0  0  0  0  0  0  0  0  0
  -30.7527   -8.0146  141.0497 C   0  0  0  0  0  0  0  0  0  0  0  0
  -31.0225   -8.4971  143.4457 C   0  0  0  0  0  0  0  0  0  0  0  0
  -30.4678   -9.2361  144.5423 C   0  0  0  0  0  0  0  0  0  0  0  0
  -27.7879  -13.1360  145.6921 C   0  0  0  0  0  0  0  0  0  0  0  0
  -26.7737  -13.9730  145.8728 C   0  0  0  0  0  0  0  0  0  0  0  0
  -29.9426   -7.7974  140.0260 N   0  0  0  0  0  0  0  0  0  0  0  0
  -28.7777   -7.0308  140.2833 C   0  0  0  0  0  0  0  0  0  0  0  0
  -30.1176   -8.1778  138.7182 C   0  0  0  0  0  0  0  0  0  0  0  0
  -23.5216  -16.4371  144.0788 N   0  0  0  0  0  0  0  0  0  0  0  0
  -29.6858  -10.8379  146.5514 O   0  0  0  0  0  0  0  0  0  0  0  0
  -23.8458  -15.2277  143.5435 N   0  0  0  0  0  0  0  0  0  0  0  0
  -26.5928  -15.0529  147.4296 N   0  0  0  0  0  0  0  0  0  0  0  0
  -24.1956  -11.4521  145.4893 O   0  0  0  0  0  0  0  0  0  0  0  0
  -23.4656  -18.8590  145.1777 O   0  0  0  0  0  0  0  0  0  0  0  0
  -29.0047   -6.2484  141.4409 C   0  0  0  0  0  0  0  0  0  0  0  0
  -28.9880   -6.6744  142.7365 C   0  0  0  0  0  0  0  0  0  0  0  0
  -28.8440   -5.5837  143.7704 C   0  0  0  0  0  0  0  0  0  0  0  0
  -28.8152   -4.2322  143.3630 C   0  0  0  0  0  0  0  0  0  0  0  0
  7 10  1  0
 12 13  1  0
 13 14  1  0
 17 18  1  0
 18 23  1  0
 23 24  1  0
 23 25  1  0
  2 26  1  0
 13 27  2  0
 10 28  1  0
 26 28  1  0
  9 30  1  0
  1 31  1  0
 24 32  1  0
 32 33  2  3
 33 34  1  0
 34 35  2  0
  1  2  2  0
  2  3  1  0
  4  6  1  0
  6  5  2  0
  5  1  1  0
  8  9  1  0
  9 11  2  0
 11 12  1  0
 12 21  2  0
 21 22  1  0
 14 15  2  0
 15 16  1  0
 16 17  2  0
 17 19  1  0
 19 20  2  0
 20 14  1  0
  3  4  2  0
  4 29  1  0
 29 22  2  0
 22  8  1  0
  8  7  2  0
  7  3  1  0
M  END

$$$$
No_371-/dssg/home/sw_qyf/PocketFlow/Model-Generation-Results/5HT2A_7WC7_rec_A_10.pdb/2024-01-01-03-54-21/
     RDKit          3D

 10 10  0  0  0  0  0  0  0  0999 V2000
  -23.1746  -16.6014  144.8668 C   0  0  0  0  0  0  0  0  0  0  0  0
  -23.8963  -15.5346  144.7885 C   0  0  0  0  0  0  0  0  0  0  0  0
  -23.4976  -14.2961  145.1226 C   0  0  0  0  0  0  0  0  0  0  0  0
  -24.3175  -13.3088  145.7775 C   0  0  0  0  0  0  0  0  0  0  0  0
  -25.6586  -13.6027  146.0239 C   0  0  0  0  0  0  0  0  0  0  0  0
  -26.5243  -12.6257  146.4590 C   0  0  0  0  0  0  0  0  0  0  0  0
  -27.9163  -12.8649  146.3754 C   0  0  0  0  0  0  0  0  0  0  0  0
  -28.3720  -14.1352  146.6095 C   0  0  0  0  0  0  0  0  0  0  0  0
  -27.4229  -15.1937  146.4723 C   0  0  0  0  0  0  0  0  0  0  0  0
  -26.0739  -14.9397  146.2492 C   0  0  0  0  0  0  0  0  0  0  0  0
  1  2  2  0
  2  3  1  0
  3  4  1  0
  4  5  1  0
  5  6  2  0
  6  7  1  0
  7  8  2  0
  8  9  1  0
  9 10  2  0
 10  5  1  0
M  END

$$$$
No_372-/dssg/home/sw_qyf/PocketFlow/Model-Generation-Results/5HT2A_7WC7_rec_A_10.pdb/2024-01-01-03-54-21/
     RDKit          3D

 17 18  0  0  0  0  0  0  0  0999 V2000
  -23.1746  -16.6014  144.8668 C   0  0  0  0  0  0  0  0  0  0  0  0
  -23.8963  -15.5346  144.7885 C   0  0  0  0  0  0  0  0  0  0  0  0
  -24.5755  -15.0383  145.9043 C   0  0  0  0  0  0  0  0  0  0  0  0
  -25.0618  -13.6819  146.0347 C   0  0  0  0  0  0  0  0  0  0  0  0
  -24.0242  -12.8249  145.9593 C   0  0  0  0  0  0  0  0  0  0  0  0
  -23.8786  -17.6652  145.6663 C   0  0  0  0  0  0  0  0  0  0  0  0
  -24.6984  -17.2858  146.7874 C   0  0  0  0  0  0  0  0  0  0  0  0
  -25.2546  -15.9953  146.8612 C   0  0  0  0  0  0  0  0  0  0  0  0
  -26.3476  -13.1988  146.2246 C   0  0  0  0  0  0  0  0  0  0  0  0
  -26.6938  -11.8637  146.1234 C   0  0  0  0  0  0  0  0  0  0  0  0
  -27.8709  -11.4763  145.5125 C   0  0  0  0  0  0  0  0  0  0  0  0
  -29.1145  -11.7750  146.2433 C   0  0  0  0  0  0  0  0  0  0  0  0
  -30.2523  -10.9743  146.1826 C   0  0  0  0  0  0  0  0  0  0  0  0
  -30.1251  -10.1836  144.9917 C   0  0  0  0  0  0  0  0  0  0  0  0
  -29.1633   -9.8727  144.1692 C   0  0  0  0  0  0  0  0  0  0  0  0
  -27.8915  -10.6244  144.5128 C   0  0  0  0  0  0  0  0  0  0  0  0
  -23.6241  -19.0058  145.4626 N   0  0  0  0  0  0  0  0  0  0  0  0
  1  2  1  0
  2  3  1  0
  3  4  1  0
  4  5  1  0
  1  6  1  0
  6  7  1  0
  3  8  1  0
  7  8  1  0
  4  9  1  0
  9 10  1  0
  6 17  1  0
 10 11  1  0
 11 12  2  0
 12 13  1  0
 13 14  2  0
 14 15  1  0
 15 16  2  0
 16 11  1  0
M  END

$$$$
No_373-/dssg/home/sw_qyf/PocketFlow/Model-Generation-Results/5HT2A_7WC7_rec_A_10.pdb/2024-01-01-03-54-21/
     RDKit          3D

  6  5  0  0  0  0  0  0  0  0999 V2000
  -24.1553  -17.8465  145.7021 C   0  0  0  0  0  0  0  0  0  0  0  0
  -24.2856  -16.6364  145.3494 C   0  0  0  0  0  0  0  0  0  0  0  0
  -24.7837  -15.7223  145.8474 C   0  0  0  0  0  0  0  0  0  0  0  0
  -25.6062  -15.9757  147.0426 C   0  0  0  0  0  0  0  0  0  0  0  0
  -23.3810  -18.8968  145.1436 C   0  0  0  0  0  0  0  0  0  0  0  0
  -26.4412  -14.9870  147.6820 C   0  0  0  0  0  0  0  0  0  0  0  0
  1  2  2  3
  2  3  1  0
  3  4  1  0
  1  5  1  0
  4  6  1  0
M  END

$$$$
No_374-/dssg/home/sw_qyf/PocketFlow/Model-Generation-Results/5HT2A_7WC7_rec_A_10.pdb/2024-01-01-03-54-21/
     RDKit          3D

 29 32  0  0  0  0  0  0  0  0999 V2000
  -23.1746  -16.6014  144.8668 C   0  0  0  0  0  0  0  0  0  0  0  0
  -23.8963  -15.5346  144.7885 C   0  0  0  0  0  0  0  0  0  0  0  0
  -25.0303  -15.2549  144.5358 C   0  0  0  0  0  0  0  0  0  0  0  0
  -25.8853  -14.7934  145.2672 C   0  0  0  0  0  0  0  0  0  0  0  0
  -25.4331  -13.6599  146.1680 C   0  0  0  0  0  0  0  0  0  0  0  0
  -24.0140  -13.6977  146.4646 C   0  0  0  0  0  0  0  0  0  0  0  0
  -23.2417  -14.5697  145.8260 C   0  0  0  0  0  0  0  0  0  0  0  0
  -23.3741  -17.6284  145.9905 C   0  0  0  0  0  0  0  0  0  0  0  0
  -24.6201  -17.6139  146.5443 C   0  0  0  0  0  0  0  0  0  0  0  0
  -25.6124  -18.4615  146.2816 C   0  0  0  0  0  0  0  0  0  0  0  0
  -24.7394  -16.9103  147.8741 C   0  0  0  0  0  0  0  0  0  0  0  0
  -23.6691  -16.9570  148.8735 C   0  0  0  0  0  0  0  0  0  0  0  0
  -25.4375  -15.6868  147.9245 C   0  0  0  0  0  0  0  0  0  0  0  0
  -26.6460  -15.6740  146.2625 C   0  0  0  0  0  0  0  0  0  0  0  0
  -28.0892  -15.9826  145.8584 C   0  0  0  0  0  0  0  0  0  0  0  0
  -26.9848  -15.8316  147.8606 C   0  0  0  0  0  0  0  0  0  0  0  0
  -26.0979  -12.2440  146.1043 C   0  0  0  0  0  0  0  0  0  0  0  0
  -27.3825  -12.1758  145.7405 C   0  0  0  0  0  0  0  0  0  0  0  0
  -27.8966  -11.0341  145.0608 C   0  0  0  0  0  0  0  0  0  0  0  0
  -29.2565  -10.8633  144.6364 C   0  0  0  0  0  0  0  0  0  0  0  0
  -29.7048   -9.8118  143.9148 C   0  0  0  0  0  0  0  0  0  0  0  0
  -31.0558   -9.4634  143.8550 C   0  0  0  0  0  0  0  0  0  0  0  0
  -31.5138   -8.7206  142.6676 C   0  0  0  0  0  0  0  0  0  0  0  0
  -30.3502   -8.3016  141.8124 C   0  0  0  0  0  0  0  0  0  0  0  0
  -29.2018   -9.0749  141.7668 C   0  0  0  0  0  0  0  0  0  0  0  0
  -28.8176   -9.7893  142.9630 C   0  0  0  0  0  0  0  0  0  0  0  0
  -27.1830  -10.6120  143.7408 C   0  0  0  0  0  0  0  0  0  0  0  0
  -26.0428  -10.5951  144.4474 C   0  0  0  0  0  0  0  0  0  0  0  0
  -25.2862  -11.6439  145.0915 C   0  0  0  0  0  0  0  0  0  0  0  0
  1  2  1  0
  1  8  1  0
  8  9  1  0
  9 10  1  0
  9 11  1  0
 11 12  1  0
 11 13  1  0
  4 14  1  0
 14 15  1  0
 13 16  1  0
 14 16  1  0
  5 17  1  0
 20 21  1  0
 20 19  1  0
  2  3  1  0
  3  4  2  0
  4  5  1  0
  5  6  2  0
  6  7  1  0
  7  2  2  0
 17 18  2  0
 18 19  1  0
 19 27  2  0
 27 28  1  0
 28 29  2  0
 29 17  1  0
 21 22  2  0
 22 23  1  0
 23 24  2  0
 24 25  1  0
 25 26  2  0
 26 21  1  0
M  END

$$$$
No_375-/dssg/home/sw_qyf/PocketFlow/Model-Generation-Results/5HT2A_7WC7_rec_A_10.pdb/2024-01-01-03-54-21/
     RDKit          3D

 25 26  0  0  0  0  0  0  0  0999 V2000
  -24.1553  -17.8465  145.7021 C   0  0  0  0  0  0  0  0  0  0  0  0
  -24.6364  -17.2931  146.7091 C   0  0  0  0  0  0  0  0  0  0  0  0
  -25.8608  -16.5592  146.5934 C   0  0  0  0  0  0  0  0  0  0  0  0
  -25.9533  -15.5604  145.6681 C   0  0  0  0  0  0  0  0  0  0  0  0
  -24.9254  -15.5665  144.6652 C   0  0  0  0  0  0  0  0  0  0  0  0
  -24.8283  -14.4497  143.7732 C   0  0  0  0  0  0  0  0  0  0  0  0
  -24.1522  -17.1105  144.5409 C   0  0  0  0  0  0  0  0  0  0  0  0
  -23.7746  -13.8543  143.7435 O   0  0  0  0  0  0  0  0  0  0  0  0
  -25.7844  -14.1799  143.0457 O   0  0  0  0  0  0  0  0  0  0  0  0
  -24.1916  -17.7387  148.1711 C   0  0  0  0  0  0  0  0  0  0  0  0
  -22.9636  -17.0579  148.6805 C   0  0  0  0  0  0  0  0  0  0  0  0
  -23.0368  -16.7919  150.1386 C   0  0  0  0  0  0  0  0  0  0  0  0
  -26.9320  -14.5507  145.6418 C   0  0  0  0  0  0  0  0  0  0  0  0
  -27.9224  -14.6875  146.7589 C   0  0  0  0  0  0  0  0  0  0  0  0
  -28.9254  -13.6847  146.8962 C   0  0  0  0  0  0  0  0  0  0  0  0
  -29.1810  -12.8542  145.8995 C   0  0  0  0  0  0  0  0  0  0  0  0
  -28.1311  -12.5899  144.9490 C   0  0  0  0  0  0  0  0  0  0  0  0
  -27.0918  -13.4953  144.7867 C   0  0  0  0  0  0  0  0  0  0  0  0
  -29.9344  -13.8261  148.0768 C   0  0  0  0  0  0  0  0  0  0  0  0
  -30.1110  -14.8281  148.7078 N   0  0  0  0  0  0  0  0  0  0  0  0
  -30.6671  -12.6098  148.4660 C   0  0  0  0  0  0  0  0  0  0  0  0
  -31.8723  -12.7324  148.7583 C   0  0  0  0  0  0  0  0  0  0  0  0
  -32.7902  -11.6192  148.8587 C   0  0  0  0  0  0  0  0  0  0  0  0
  -21.8755  -16.8128  150.7921 O   0  0  0  0  0  0  0  0  0  0  0  0
  -24.1299  -16.6697  150.7645 O   0  0  0  0  0  0  0  0  0  0  0  0
  5  6  1  0
  6  8  1  0
  6  9  2  0
  2 10  1  0
 10 11  1  0
 11 12  1  0
  4 13  1  0
 15 19  1  0
 19 20  1  0
 19 21  1  0
 21 22  1  0
 22 23  1  0
 12 24  2  0
 12 25  1  0
 13 14  2  0
 14 15  1  0
 15 16  2  0
 16 17  1  0
 17 18  2  0
 18 13  1  0
  1  2  2  0
  2  3  1  0
  3  4  2  0
  4  5  1  0
  5  7  2  0
  7  1  1  0
M  END

$$$$
No_376-/dssg/home/sw_qyf/PocketFlow/Model-Generation-Results/5HT2A_7WC7_rec_A_10.pdb/2024-01-01-03-54-21/
     RDKit          3D

 23 25  0  0  0  0  0  0  0  0999 V2000
  -23.1746  -16.6014  144.8668 C   0  0  0  0  0  0  0  0  0  0  0  0
  -24.0189  -16.0564  145.8445 C   0  0  0  0  0  0  0  0  0  0  0  0
  -24.4850  -14.7380  145.6359 C   0  0  0  0  0  0  0  0  0  0  0  0
  -24.0208  -14.0081  144.6269 C   0  0  0  0  0  0  0  0  0  0  0  0
  -24.4092  -12.5999  144.5318 C   0  0  0  0  0  0  0  0  0  0  0  0
  -25.4740  -12.1564  145.3988 C   0  0  0  0  0  0  0  0  0  0  0  0
  -26.0026  -12.9757  146.4473 C   0  0  0  0  0  0  0  0  0  0  0  0
  -25.5310  -14.3126  146.5215 C   0  0  0  0  0  0  0  0  0  0  0  0
  -24.3600  -16.8323  146.9859 C   0  0  0  0  0  0  0  0  0  0  0  0
  -23.8927  -18.0854  147.1866 C   0  0  0  0  0  0  0  0  0  0  0  0
  -23.1492  -18.6802  146.1223 C   0  0  0  0  0  0  0  0  0  0  0  0
  -22.8993  -17.9883  145.0373 N   0  0  0  0  0  0  0  0  0  0  0  0
  -25.9734  -10.7877  145.2948 C   0  0  0  0  0  0  0  0  0  0  0  0
  -27.4316  -10.7234  144.8960 C   0  0  0  0  0  0  0  0  0  0  0  0
  -28.3479  -11.4464  145.4955 C   0  0  0  0  0  0  0  0  0  0  0  0
  -29.7477  -11.1023  145.2104 C   0  0  0  0  0  0  0  0  0  0  0  0
  -30.0128  -10.0380  144.3604 C   0  0  0  0  0  0  0  0  0  0  0  0
  -29.0111   -9.2704  143.7883 C   0  0  0  0  0  0  0  0  0  0  0  0
  -27.7053   -9.5442  144.0851 C   0  0  0  0  0  0  0  0  0  0  0  0
  -29.3899   -8.1509  142.9131 C   0  0  0  0  0  0  0  0  0  0  0  0
  -29.5605   -6.9279  143.4150 C   0  0  0  0  0  0  0  0  0  0  0  0
  -29.5132   -8.4576  141.5278 C   0  0  0  0  0  0  0  0  0  0  0  0
  -29.7962   -9.5055  140.8785 C   0  0  0  0  0  0  0  0  0  0  0  0
  2  3  1  0
  6 13  1  0
 13 14  1  0
 18 20  1  0
 20 21  1  0
 20 22  1  0
 22 23  1  0
  1  2  2  0
  2  9  1  0
  9 10  2  0
 10 11  1  0
 11 12  2  0
 12  1  1  0
 14 15  2  0
 15 16  1  0
 16 17  2  0
 17 18  1  0
 18 19  2  0
 19 14  1  0
  3  4  2  0
  4  5  1  0
  5  6  2  0
  6  7  1  0
  7  8  2  0
  8  3  1  0
M  END

$$$$
No_377-/dssg/home/sw_qyf/PocketFlow/Model-Generation-Results/5HT2A_7WC7_rec_A_10.pdb/2024-01-01-03-54-21/
     RDKit          3D

 13 14  0  0  0  0  0  0  0  0999 V2000
  -24.1553  -17.8465  145.7021 C   0  0  0  0  0  0  0  0  0  0  0  0
  -24.2856  -16.6364  145.3494 C   0  0  0  0  0  0  0  0  0  0  0  0
  -24.7211  -15.5955  146.2115 C   0  0  0  0  0  0  0  0  0  0  0  0
  -24.8539  -14.2010  145.8739 C   0  0  0  0  0  0  0  0  0  0  0  0
  -25.3912  -13.2248  146.7184 C   0  0  0  0  0  0  0  0  0  0  0  0
  -24.5931  -18.2699  146.9809 C   0  0  0  0  0  0  0  0  0  0  0  0
  -25.1555  -17.3846  147.9076 C   0  0  0  0  0  0  0  0  0  0  0  0
  -25.2072  -15.9636  147.5445 C   0  0  0  0  0  0  0  0  0  0  0  0
  -24.3640  -13.8250  144.5657 C   0  0  0  0  0  0  0  0  0  0  0  0
  -25.3419  -11.8445  146.2821 C   0  0  0  0  0  0  0  0  0  0  0  0
  -23.3969  -13.5056  144.4708 C   0  0  0  0  0  0  0  0  0  0  0  0
  -24.3997  -11.3281  145.3192 C   0  0  0  0  0  0  0  0  0  0  0  0
  -23.6441  -12.0498  144.3784 C   0  0  0  0  0  0  0  0  0  0  0  0
  3  4  1  0
  4  5  1  0
  4  9  1  0
  5 10  2  0
  9 11  2  0
 10 12  1  0
 11 13  1  0
 12 13  1  0
  1  2  2  0
  2  3  1  0
  3  8  2  0
  8  7  1  0
  7  6  2  0
  6  1  1  0
M  END

$$$$
No_378-/dssg/home/sw_qyf/PocketFlow/Model-Generation-Results/5HT2A_7WC7_rec_A_10.pdb/2024-01-01-03-54-21/
     RDKit          3D

 34 36  0  0  0  0  0  0  0  0999 V2000
  -23.1746  -16.6014  144.8668 C   0  0  0  0  0  0  0  0  0  0  0  0
  -24.0189  -16.0564  145.8445 C   0  0  0  0  0  0  0  0  0  0  0  0
  -24.4145  -16.8299  146.9062 C   0  0  0  0  0  0  0  0  0  0  0  0
  -25.2730  -16.2838  147.9150 C   0  0  0  0  0  0  0  0  0  0  0  0
  -25.7919  -14.9951  147.6737 C   0  0  0  0  0  0  0  0  0  0  0  0
  -24.5377  -14.6789  145.6474 C   0  0  0  0  0  0  0  0  0  0  0  0
  -24.1196  -13.8271  144.6537 C   0  0  0  0  0  0  0  0  0  0  0  0
  -25.4048  -14.1729  146.7241 C   0  0  0  0  0  0  0  0  0  0  0  0
  -22.9995  -13.8801  144.1685 O   0  0  0  0  0  0  0  0  0  0  0  0
  -25.0797  -13.2732  143.9207 O   0  0  0  0  0  0  0  0  0  0  0  0
  -23.9989  -18.2163  147.0530 C   0  0  0  0  0  0  0  0  0  0  0  0
  -23.3880  -18.9160  146.1433 N   0  0  0  0  0  0  0  0  0  0  0  0
  -23.0502  -18.1555  144.9820 C   0  0  0  0  0  0  0  0  0  0  0  0
  -25.8820  -12.8060  146.5975 C   0  0  0  0  0  0  0  0  0  0  0  0
  -27.2545  -12.5213  146.3671 C   0  0  0  0  0  0  0  0  0  0  0  0
  -27.6794  -12.2525  145.1721 C   0  0  0  0  0  0  0  0  0  0  0  0
  -29.0608  -11.5247  145.1311 C   0  0  0  0  0  0  0  0  0  0  0  0
  -29.4074  -10.5494  144.1367 C   0  0  0  0  0  0  0  0  0  0  0  0
  -28.4130  -10.0271  143.3978 C   0  0  0  0  0  0  0  0  0  0  0  0
  -28.7100   -9.0294  142.4495 C   0  0  0  0  0  0  0  0  0  0  0  0
  -29.4465   -7.8892  142.7649 C   0  0  0  0  0  0  0  0  0  0  0  0
  -29.6978   -6.9376  141.7707 C   0  0  0  0  0  0  0  0  0  0  0  0
  -29.4425   -7.2155  140.3850 C   0  0  0  0  0  0  0  0  0  0  0  0
  -28.7658   -8.3997  140.0778 C   0  0  0  0  0  0  0  0  0  0  0  0
  -28.4584   -9.3397  141.0622 C   0  0  0  0  0  0  0  0  0  0  0  0
  -28.4446   -8.6462  138.6892 C   0  0  0  0  0  0  0  0  0  0  0  0
  -28.0090   -9.7672  138.4792 F   0  0  0  0  0  0  0  0  0  0  0  0
  -27.4579   -7.7000  138.3035 F   0  0  0  0  0  0  0  0  0  0  0  0
  -29.5101   -8.3360  137.8645 F   0  0  0  0  0  0  0  0  0  0  0  0
  -27.3398   -9.4378  144.3786 C   0  0  0  0  0  0  0  0  0  0  0  0
  -25.7028  -17.0657  149.1080 C   0  0  0  0  0  0  0  0  0  0  0  0
  -24.7774  -17.5186  149.9321 O   0  0  0  0  0  0  0  0  0  0  0  0
  -26.9020  -17.1411  149.4193 O   0  0  0  0  0  0  0  0  0  0  0  0
  -29.9447  -12.0026  146.0033 O   0  0  0  0  0  0  0  0  0  0  0  0
  6  7  1  0
  7  9  1  0
  7 10  2  0
  8 14  1  0
 14 15  1  0
 15 16  2  3
 16 17  1  0
 17 18  1  0
 18 19  2  3
 19 20  1  0
 24 26  1  0
 26 27  1  0
 26 28  1  0
 26 29  1  0
 19 30  1  0
  4 31  1  0
 31 32  2  0
 31 33  1  0
 17 34  2  0
  1  2  2  0
  3 11  2  0
 11 12  1  0
 12 13  2  0
 13  1  1  0
 20 21  2  0
 21 22  1  0
 22 23  2  0
 23 24  1  0
 24 25  2  0
 25 20  1  0
  2  3  1  0
  3  4  1  0
  4  5  2  0
  5  8  1  0
  8  6  2  0
  6  2  1  0
M  END

$$$$
No_379-/dssg/home/sw_qyf/PocketFlow/Model-Generation-Results/5HT2A_7WC7_rec_A_10.pdb/2024-01-01-03-54-21/
     RDKit          3D

 27 28  0  0  0  0  0  0  0  0999 V2000
  -23.1746  -16.6014  144.8668 C   0  0  0  0  0  0  0  0  0  0  0  0
  -24.0189  -16.0564  145.8445 C   0  0  0  0  0  0  0  0  0  0  0  0
  -24.4850  -14.7380  145.6359 C   0  0  0  0  0  0  0  0  0  0  0  0
  -25.2717  -14.0560  146.5949 C   0  0  0  0  0  0  0  0  0  0  0  0
  -25.5669  -12.6700  146.4456 C   0  0  0  0  0  0  0  0  0  0  0  0
  -25.1774  -11.9727  145.2644 C   0  0  0  0  0  0  0  0  0  0  0  0
  -24.2583  -12.6444  144.4323 C   0  0  0  0  0  0  0  0  0  0  0  0
  -23.9746  -14.0153  144.6649 C   0  0  0  0  0  0  0  0  0  0  0  0
  -23.5429  -16.4278  147.2369 C   0  0  0  0  0  0  0  0  0  0  0  0
  -25.4750  -10.7034  145.1378 O   0  0  0  0  0  0  0  0  0  0  0  0
  -26.7740  -10.4050  145.3376 C   0  0  0  0  0  0  0  0  0  0  0  0
  -27.6959  -10.6882  144.2889 C   0  0  0  0  0  0  0  0  0  0  0  0
  -27.6225  -11.4837  143.5655 C   0  0  0  0  0  0  0  0  0  0  0  0
  -28.4849  -11.6014  142.4550 C   0  0  0  0  0  0  0  0  0  0  0  0
  -29.3960  -10.5704  142.3338 C   0  0  0  0  0  0  0  0  0  0  0  0
  -29.5782   -9.6042  143.2354 C   0  0  0  0  0  0  0  0  0  0  0  0
  -28.6151   -9.5875  144.3213 C   0  0  0  0  0  0  0  0  0  0  0  0
  -30.5585   -8.5277  143.1845 C   0  0  0  0  0  0  0  0  0  0  0  0
  -31.7056   -8.8076  142.8148 O   0  0  0  0  0  0  0  0  0  0  0  0
  -30.2519   -7.2737  143.4097 O   0  0  0  0  0  0  0  0  0  0  0  0
  -24.1600  -17.5731  147.8703 C   0  0  0  0  0  0  0  0  0  0  0  0
  -25.4575  -17.5045  148.1864 C   0  0  0  0  0  0  0  0  0  0  0  0
  -25.8949  -17.2063  149.8240 Cl  0  0  0  0  0  0  0  0  0  0  0  0
  -23.9130  -17.5580  144.0874 O   0  0  0  0  0  0  0  0  0  0  0  0
  -26.1603  -16.4569  147.5465 F   0  0  0  0  0  0  0  0  0  0  0  0
  -23.2861  -17.7972  149.0636 O   0  0  0  0  0  0  0  0  0  0  0  0
  -23.4584  -16.9184  150.1087 C   0  0  0  0  0  0  0  0  0  0  0  0
  1  2  1  0
  2  3  1  0
  2  9  1  0
  6 10  1  0
 10 11  1  0
 11 12  1  0
 16 18  1  0
 18 19  1  0
 18 20  2  0
  9 21  1  0
 21 22  1  0
 22 23  1  0
  1 24  1  0
 22 25  1  0
 21 26  1  0
 26 27  1  0
 12 13  2  0
 13 14  1  0
 14 15  2  0
 15 16  1  0
 16 17  2  0
 17 12  1  0
  3  4  2  0
  4  5  1  0
  5  6  2  0
  6  7  1  0
  7  8  2  0
  8  3  1  0
M  END

$$$$
No_380-/dssg/home/sw_qyf/PocketFlow/Model-Generation-Results/5HT2A_7WC7_rec_A_10.pdb/2024-01-01-03-54-21/
     RDKit          3D

 20 20  0  0  0  0  0  0  0  0999 V2000
  -23.1746  -16.6014  144.8668 C   0  0  0  0  0  0  0  0  0  0  0  0
  -23.8963  -15.5346  144.7885 C   0  0  0  0  0  0  0  0  0  0  0  0
  -25.0304  -15.2549  144.5358 C   0  0  0  0  0  0  0  0  0  0  0  0
  -25.6045  -13.9524  144.2294 C   0  0  0  0  0  0  0  0  0  0  0  0
  -26.9716  -13.7632  143.8495 C   0  0  0  0  0  0  0  0  0  0  0  0
  -27.3295  -12.4807  143.5253 C   0  0  0  0  0  0  0  0  0  0  0  0
  -28.0092  -12.2234  142.3616 C   0  0  0  0  0  0  0  0  0  0  0  0
  -27.6365  -11.0605  141.6379 C   0  0  0  0  0  0  0  0  0  0  0  0
  -28.7428  -10.5344  140.8965 C   0  0  0  0  0  0  0  0  0  0  0  0
  -29.4226   -9.5111  141.3954 C   0  0  0  0  0  0  0  0  0  0  0  0
  -30.3218   -9.7688  142.4713 C   0  0  0  0  0  0  0  0  0  0  0  0
  -31.1136   -8.6968  143.0298 C   0  0  0  0  0  0  0  0  0  0  0  0
  -31.9513   -8.8358  143.9151 O   0  0  0  0  0  0  0  0  0  0  0  0
  -30.6919   -7.4769  142.6893 O   0  0  0  0  0  0  0  0  0  0  0  0
  -24.0707  -17.7686  145.0097 C   0  0  0  0  0  0  0  0  0  0  0  0
  -25.3679  -17.5700  145.3192 C   0  0  0  0  0  0  0  0  0  0  0  0
  -25.9086  -16.2865  145.0710 C   0  0  0  0  0  0  0  0  0  0  0  0
  -23.5198  -19.0033  145.3065 N   0  0  0  0  0  0  0  0  0  0  0  0
  -29.4304   -8.2199  140.7497 C   0  0  0  0  0  0  0  0  0  0  0  0
  -28.8328   -7.9067  139.5730 C   0  0  0  0  0  0  0  0  0  0  0  0
  3  4  1  0
  4  5  1  0
  5  6  1  0
  6  7  1  0
  7  8  2  3
  8  9  1  0
  9 10  1  0
 10 11  2  3
 11 12  1  0
 12 13  1  0
 12 14  2  0
 15 18  1  0
 10 19  1  0
 19 20  1  0
  1  2  2  0
  2  3  1  0
  3 17  2  0
 17 16  1  0
 16 15  2  0
 15  1  1  0
M  END

$$$$
No_381-/dssg/home/sw_qyf/PocketFlow/Model-Generation-Results/5HT2A_7WC7_rec_A_10.pdb/2024-01-01-03-54-21/
     RDKit          3D

 12 13  0  0  0  0  0  0  0  0999 V2000
  -24.1553  -17.8465  145.7021 C   0  0  0  0  0  0  0  0  0  0  0  0
  -24.2856  -16.6364  145.3494 C   0  0  0  0  0  0  0  0  0  0  0  0
  -25.0033  -15.6772  146.0737 C   0  0  0  0  0  0  0  0  0  0  0  0
  -25.1197  -14.2835  145.7299 C   0  0  0  0  0  0  0  0  0  0  0  0
  -25.8358  -13.3153  146.4318 C   0  0  0  0  0  0  0  0  0  0  0  0
  -24.7888  -18.3277  146.8665 C   0  0  0  0  0  0  0  0  0  0  0  0
  -25.5122  -17.4898  147.6544 C   0  0  0  0  0  0  0  0  0  0  0  0
  -25.6629  -16.1113  147.2980 C   0  0  0  0  0  0  0  0  0  0  0  0
  -25.7423  -11.9664  146.1289 C   0  0  0  0  0  0  0  0  0  0  0  0
  -24.9343  -11.5107  145.0792 C   0  0  0  0  0  0  0  0  0  0  0  0
  -24.2381  -13.7675  144.6412 C   0  0  0  0  0  0  0  0  0  0  0  0
  -24.0845  -12.3929  144.4989 N   0  0  0  0  0  0  0  0  0  0  0  0
  3  4  1  0
  1  2  2  0
  2  3  1  0
  3  8  2  0
  8  7  1  0
  7  6  2  0
  6  1  1  0
  4  5  2  0
  5  9  1  0
  9 10  2  0
 10 12  1  0
 12 11  2  0
 11  4  1  0
M  END

$$$$
No_382-/dssg/home/sw_qyf/PocketFlow/Model-Generation-Results/5HT2A_7WC7_rec_A_10.pdb/2024-01-01-03-54-21/
     RDKit          3D

 30 31  0  0  0  0  0  0  0  0999 V2000
  -24.1553  -17.8465  145.7021 C   0  0  0  0  0  0  0  0  0  0  0  0
  -23.9795  -18.4462  146.7426 C   0  0  0  0  0  0  0  0  0  0  0  0
  -25.1593  -16.8262  145.6925 C   0  0  0  0  0  0  0  0  0  0  0  0
  -25.3302  -15.8818  144.5925 C   0  0  0  0  0  0  0  0  0  0  0  0
  -24.4570  -18.1009  148.0274 C   0  0  0  0  0  0  0  0  0  0  0  0
  -25.3496  -17.0286  148.1023 C   0  0  0  0  0  0  0  0  0  0  0  0
  -25.5669  -16.2449  146.9641 C   0  0  0  0  0  0  0  0  0  0  0  0
  -25.1447  -14.4296  144.8260 C   0  0  0  0  0  0  0  0  0  0  0  0
  -24.7485  -13.7032  143.9089 C   0  0  0  0  0  0  0  0  0  0  0  0
  -24.4313  -12.3320  144.2924 C   0  0  0  0  0  0  0  0  0  0  0  0
  -24.8751  -11.9151  145.6839 C   0  0  0  0  0  0  0  0  0  0  0  0
  -25.3268  -13.6727  146.1396 C   0  0  0  0  0  0  0  0  0  0  0  0
  -25.8626  -16.6416  149.4431 C   0  0  0  0  0  0  0  0  0  0  0  0
  -25.1526  -17.1914  150.5659 C   0  0  0  0  0  0  0  0  0  0  0  0
  -23.7630  -17.0890  150.6254 C   0  0  0  0  0  0  0  0  0  0  0  0
  -23.1690  -16.9319  149.7046 F   0  0  0  0  0  0  0  0  0  0  0  0
  -23.3246  -18.2702  151.2856 F   0  0  0  0  0  0  0  0  0  0  0  0
  -23.4172  -16.2051  151.5930 F   0  0  0  0  0  0  0  0  0  0  0  0
  -26.1849  -11.2409  145.8416 C   0  0  0  0  0  0  0  0  0  0  0  0
  -27.1041  -11.2008  144.8168 C   0  0  0  0  0  0  0  0  0  0  0  0
  -28.4614  -11.0542  145.1471 C   0  0  0  0  0  0  0  0  0  0  0  0
  -29.4203  -10.7096  144.1493 C   0  0  0  0  0  0  0  0  0  0  0  0
  -29.0774   -9.8196  143.2631 C   0  0  0  0  0  0  0  0  0  0  0  0
  -30.0387   -9.3190  142.3733 C   0  0  0  0  0  0  0  0  0  0  0  0
  -31.3672   -9.1344  142.7371 C   0  0  0  0  0  0  0  0  0  0  0  0
  -29.5992   -8.1361  141.4804 C   0  0  0  0  0  0  0  0  0  0  0  0
  -29.3440   -8.2342  140.1475 C   0  0  0  0  0  0  0  0  0  0  0  0
  -29.1850   -7.2505  139.3395 C   0  0  0  0  0  0  0  0  0  0  0  0
  -28.9005   -7.5874  138.0932 N   0  0  0  0  0  0  0  0  0  0  0  0
  -28.3908   -8.7527  137.6734 C   0  0  0  0  0  0  0  0  0  0  0  0
  3  4  1  0
  4  8  1  0
  8  9  2  0
  9 10  1  0
 10 11  2  0
  8 12  1  0
 11 12  1  0
  6 13  1  0
 13 14  1  0
 14 15  1  0
 15 16  1  0
 15 17  1  0
 15 18  1  0
 11 19  1  0
 19 20  1  0
 20 21  2  3
 21 22  1  0
 22 23  2  3
 23 24  1  0
 24 25  1  0
 24 26  1  0
 26 27  2  3
 27 28  1  0
 28 29  1  0
 29 30  2  0
  1  2  2  0
  2  5  1  0
  5  6  2  0
  6  7  1  0
  7  3  2  0
  3  1  1  0
M  END

$$$$
No_383-/dssg/home/sw_qyf/PocketFlow/Model-Generation-Results/5HT2A_7WC7_rec_A_10.pdb/2024-01-01-03-54-21/
     RDKit          3D

 33 36  0  0  0  0  0  0  0  0999 V2000
  -24.1553  -17.8465  145.7021 C   0  0  0  0  0  0  0  0  0  0  0  0
  -24.6364  -17.2931  146.7091 C   0  0  0  0  0  0  0  0  0  0  0  0
  -25.8608  -16.5592  146.5934 C   0  0  0  0  0  0  0  0  0  0  0  0
  -25.9533  -15.5604  145.6681 C   0  0  0  0  0  0  0  0  0  0  0  0
  -24.9254  -15.5665  144.6652 C   0  0  0  0  0  0  0  0  0  0  0  0
  -23.9892  -16.6610  144.6462 C   0  0  0  0  0  0  0  0  0  0  0  0
  -26.9169  -14.5096  145.6510 C   0  0  0  0  0  0  0  0  0  0  0  0
  -26.8161  -13.4529  144.7216 C   0  0  0  0  0  0  0  0  0  0  0  0
  -27.5054  -12.2789  144.7762 C   0  0  0  0  0  0  0  0  0  0  0  0
  -27.3502  -11.1622  143.9016 C   0  0  0  0  0  0  0  0  0  0  0  0
  -27.5887   -9.8823  144.4195 C   0  0  0  0  0  0  0  0  0  0  0  0
  -29.0453   -9.6193  144.6167 C   0  0  0  0  0  0  0  0  0  0  0  0
  -29.5539  -10.6483  145.6091 C   0  0  0  0  0  0  0  0  0  0  0  0
  -28.9453  -12.0288  145.5318 C   0  0  0  0  0  0  0  0  0  0  0  0
  -29.3935  -13.0698  146.4214 C   0  0  0  0  0  0  0  0  0  0  0  0
  -30.0584  -12.8319  147.5395 C   0  0  0  0  0  0  0  0  0  0  0  0
  -30.4836  -13.7809  148.4602 C   0  0  0  0  0  0  0  0  0  0  0  0
  -29.7736  -15.0221  148.3559 C   0  0  0  0  0  0  0  0  0  0  0  0
  -28.9317  -15.3158  147.2429 C   0  0  0  0  0  0  0  0  0  0  0  0
  -28.7173  -14.3005  146.3282 C   0  0  0  0  0  0  0  0  0  0  0  0
  -26.3455  -14.1450  146.3974 F   0  0  0  0  0  0  0  0  0  0  0  0
  -29.3471  -14.7149  145.3134 F   0  0  0  0  0  0  0  0  0  0  0  0
  -23.6507  -16.5408  147.6946 C   0  0  0  0  0  0  0  0  0  0  0  0
  -31.3564  -13.4777  149.5862 C   0  0  0  0  0  0  0  0  0  0  0  0
  -31.7827  -14.4046  150.5092 C   0  0  0  0  0  0  0  0  0  0  0  0
  -32.7027  -14.0812  151.4962 C   0  0  0  0  0  0  0  0  0  0  0  0
  -33.0380  -12.7074  151.6959 C   0  0  0  0  0  0  0  0  0  0  0  0
  -32.5473  -11.7315  150.8243 C   0  0  0  0  0  0  0  0  0  0  0  0
  -31.7768  -12.0833  149.7756 C   0  0  0  0  0  0  0  0  0  0  0  0
  -32.9934  -10.3633  150.9687 N   0  0  0  0  0  0  0  0  0  0  0  0
  -24.0650  -16.6885  148.9965 C   0  0  0  0  0  0  0  0  0  0  0  0
  -25.3855  -16.8682  149.3763 C   0  0  0  0  0  0  0  0  0  0  0  0
  -25.5446  -17.1980  150.7587 N   0  0  0  0  0  0  0  0  0  0  0  0
  4  7  1  0
  7  8  2  3
  8  9  1  0
  9 10  1  0
 10 11  1  0
 11 12  1  0
 12 13  1  0
  9 14  1  0
 13 14  1  0
 14 15  1  0
  7 21  1  0
 20 22  1  0
  2 23  1  0
 17 24  1  0
 28 30  1  0
 23 31  2  3
 31 32  1  0
 32 33  1  0
 15 16  2  0
 16 17  1  0
 17 18  2  0
 18 19  1  0
 19 20  2  0
 20 15  1  0
  1  2  2  0
  2  3  1  0
  3  4  2  0
  4  5  1  0
  5  6  2  0
  6  1  1  0
 24 25  2  0
 25 26  1  0
 26 27  2  0
 27 28  1  0
 28 29  2  0
 29 24  1  0
M  END

$$$$
No_384-/dssg/home/sw_qyf/PocketFlow/Model-Generation-Results/5HT2A_7WC7_rec_A_10.pdb/2024-01-01-03-54-21/
     RDKit          3D

 10 10  0  0  0  0  0  0  0  0999 V2000
  -23.1746  -16.6014  144.8668 C   0  0  0  0  0  0  0  0  0  0  0  0
  -23.7011  -17.0158  145.9774 C   0  0  0  0  0  0  0  0  0  0  0  0
  -24.7096  -16.6222  146.3577 C   0  0  0  0  0  0  0  0  0  0  0  0
  -24.9847  -15.5183  146.7687 C   0  0  0  0  0  0  0  0  0  0  0  0
  -23.5803  -15.1678  144.5733 C   0  0  0  0  0  0  0  0  0  0  0  0
  -24.3773  -14.6224  145.3924 C   0  0  0  0  0  0  0  0  0  0  0  0
  -24.7807  -13.1050  145.3672 C   0  0  0  0  0  0  0  0  0  0  0  0
  -24.4864  -12.0285  146.2283 Cl  0  0  0  0  0  0  0  0  0  0  0  0
  -25.3793  -12.9099  144.1736 O   0  0  0  0  0  0  0  0  0  0  0  0
  -23.1420  -18.4814  146.2880 C   0  0  0  0  0  0  0  0  0  0  0  0
  6  7  1  0
  7  8  1  0
  7  9  2  0
  2 10  1  0
  1  2  2  0
  2  3  1  0
  3  4  2  0
  4  6  1  0
  6  5  2  0
  5  1  1  0
M  END

$$$$
No_385-/dssg/home/sw_qyf/PocketFlow/Model-Generation-Results/5HT2A_7WC7_rec_A_10.pdb/2024-01-01-03-54-21/
     RDKit          3D

  6  6  0  0  0  0  0  0  0  0999 V2000
  -23.1746  -16.6014  144.8668 C   0  0  0  0  0  0  0  0  0  0  0  0
  -23.7011  -17.0158  145.9774 C   0  0  0  0  0  0  0  0  0  0  0  0
  -24.7096  -16.6222  146.3577 C   0  0  0  0  0  0  0  0  0  0  0  0
  -25.4819  -15.5594  145.8226 C   0  0  0  0  0  0  0  0  0  0  0  0
  -24.9841  -15.0030  144.6879 C   0  0  0  0  0  0  0  0  0  0  0  0
  -23.7823  -15.5257  144.1978 C   0  0  0  0  0  0  0  0  0  0  0  0
  1  2  2  0
  2  3  1  0
  3  4  2  0
  4  5  1  0
  5  6  2  0
  6  1  1  0
M  END

$$$$
No_386-/dssg/home/sw_qyf/PocketFlow/Model-Generation-Results/5HT2A_7WC7_rec_A_10.pdb/2024-01-01-03-54-21/
     RDKit          3D

 22 24  0  0  0  0  0  0  0  0999 V2000
  -24.1553  -17.8465  145.7021 C   0  0  0  0  0  0  0  0  0  0  0  0
  -24.2856  -16.6364  145.3494 C   0  0  0  0  0  0  0  0  0  0  0  0
  -25.0033  -15.6772  146.0737 C   0  0  0  0  0  0  0  0  0  0  0  0
  -25.1197  -14.2835  145.7299 C   0  0  0  0  0  0  0  0  0  0  0  0
  -24.2707  -13.8793  144.6500 C   0  0  0  0  0  0  0  0  0  0  0  0
  -24.8686  -18.3355  146.8179 C   0  0  0  0  0  0  0  0  0  0  0  0
  -23.4212  -14.7686  144.0334 C   0  0  0  0  0  0  0  0  0  0  0  0
  -23.3932  -16.0844  144.3175 C   0  0  0  0  0  0  0  0  0  0  0  0
  -25.6450  -17.4591  147.5909 C   0  0  0  0  0  0  0  0  0  0  0  0
  -25.7561  -16.1038  147.2695 C   0  0  0  0  0  0  0  0  0  0  0  0
  -25.9186  -13.3230  146.4658 C   0  0  0  0  0  0  0  0  0  0  0  0
  -25.4955  -11.9446  146.4801 C   0  0  0  0  0  0  0  0  0  0  0  0
  -26.6566  -11.0851  145.9941 C   0  0  0  0  0  0  0  0  0  0  0  0
  -27.1659  -11.2365  144.7543 C   0  0  0  0  0  0  0  0  0  0  0  0
  -28.0265  -10.2140  144.2406 C   0  0  0  0  0  0  0  0  0  0  0  0
  -29.3837  -10.3829  144.3949 C   0  0  0  0  0  0  0  0  0  0  0  0
  -30.3355   -9.4295  143.8769 C   0  0  0  0  0  0  0  0  0  0  0  0
  -31.4873   -9.5755  143.8680 C   0  0  0  0  0  0  0  0  0  0  0  0
  -32.3477   -8.5404  143.2088 C   0  0  0  0  0  0  0  0  0  0  0  0
  -31.4313   -7.8007  142.3089 C   0  0  0  0  0  0  0  0  0  0  0  0
  -29.9330   -8.4065  142.8684 C   0  0  0  0  0  0  0  0  0  0  0  0
  -26.9844  -12.2147  143.9585 O   0  0  0  0  0  0  0  0  0  0  0  0
  4 11  1  0
 11 12  1  0
 12 13  1  0
 13 14  1  0
 14 15  1  0
 15 16  1  0
 16 17  2  3
 17 18  1  0
 18 19  2  0
 19 20  1  0
 17 21  1  0
 20 21  1  0
 14 22  2  0
  1  2  2  0
  3 10  2  0
 10  9  1  0
  9  6  2  0
  6  1  1  0
  2  3  1  0
  3  4  1  0
  4  5  2  0
  5  7  1  0
  7  8  2  0
  8  2  1  0
M  END

$$$$
No_387-/dssg/home/sw_qyf/PocketFlow/Model-Generation-Results/5HT2A_7WC7_rec_A_10.pdb/2024-01-01-03-54-21/
     RDKit          3D

 33 35  0  0  0  0  0  0  0  0999 V2000
  -24.1553  -17.8465  145.7021 C   0  0  0  0  0  0  0  0  0  0  0  0
  -24.2856  -16.6364  145.3494 C   0  0  0  0  0  0  0  0  0  0  0  0
  -24.7838  -15.7223  145.8474 C   0  0  0  0  0  0  0  0  0  0  0  0
  -24.8736  -14.2869  145.3929 C   0  0  0  0  0  0  0  0  0  0  0  0
  -25.5953  -13.2445  145.9611 C   0  0  0  0  0  0  0  0  0  0  0  0
  -25.3343  -11.9118  145.7311 C   0  0  0  0  0  0  0  0  0  0  0  0
  -24.8346  -18.2371  146.8727 C   0  0  0  0  0  0  0  0  0  0  0  0
  -25.5149  -17.2924  147.5834 C   0  0  0  0  0  0  0  0  0  0  0  0
  -25.5563  -15.9715  147.1028 C   0  0  0  0  0  0  0  0  0  0  0  0
  -23.5120  -13.6535  145.0195 C   0  0  0  0  0  0  0  0  0  0  0  0
  -23.3887  -12.2424  144.9938 C   0  0  0  0  0  0  0  0  0  0  0  0
  -26.4557  -10.9338  146.2160 C   0  0  0  0  0  0  0  0  0  0  0  0
  -24.2323  -11.3379  145.3972 C   0  0  0  0  0  0  0  0  0  0  0  0
  -27.4795  -10.7791  145.1359 C   0  0  0  0  0  0  0  0  0  0  0  0
  -27.2357   -9.8455  144.2259 C   0  0  0  0  0  0  0  0  0  0  0  0
  -28.1698   -9.4162  143.2697 C   0  0  0  0  0  0  0  0  0  0  0  0
  -29.5314   -9.7857  143.5586 C   0  0  0  0  0  0  0  0  0  0  0  0
  -29.7556  -10.6541  144.7200 C   0  0  0  0  0  0  0  0  0  0  0  0
  -28.7430  -11.0462  145.5150 C   0  0  0  0  0  0  0  0  0  0  0  0
  -30.6073   -9.3934  142.7010 C   0  0  0  0  0  0  0  0  0  0  0  0
  -31.6290  -10.1075  142.8420 F   0  0  0  0  0  0  0  0  0  0  0  0
  -30.1794   -9.3981  141.4035 F   0  0  0  0  0  0  0  0  0  0  0  0
  -30.9286   -8.0776  142.9246 F   0  0  0  0  0  0  0  0  0  0  0  0
  -23.4006  -16.3010  143.7643 Cl  0  0  0  0  0  0  0  0  0  0  0  0
  -22.1070  -11.9052  144.5290 F   0  0  0  0  0  0  0  0  0  0  0  0
  -29.1499  -11.9136  146.6859 C   0  0  0  0  0  0  0  0  0  0  0  0
  -29.9585  -11.5115  147.5235 O   0  0  0  0  0  0  0  0  0  0  0  0
  -28.6303  -13.1005  146.8970 O   0  0  0  0  0  0  0  0  0  0  0  0
  -29.3702  -14.0663  147.5746 C   0  0  0  0  0  0  0  0  0  0  0  0
  -29.2055  -15.4159  147.2027 C   0  0  0  0  0  0  0  0  0  0  0  0
  -28.6581  -15.6870  145.9657 C   0  0  0  0  0  0  0  0  0  0  0  0
  -28.2560  -17.0879  145.7552 C   0  0  0  0  0  0  0  0  0  0  0  0
  -30.2652  -13.6400  148.6276 C   0  0  0  0  0  0  0  0  0  0  0  0
  3  4  1  0
  6 12  1  0
 12 14  1  0
 17 20  1  0
 20 21  1  0
 20 22  1  0
 20 23  1  0
  2 24  1  0
 11 25  1  0
 19 26  1  0
 26 27  2  0
 26 28  1  0
 28 29  1  0
 29 30  1  0
 30 31  2  3
 31 32  1  0
 29 33  1  0
 14 15  2  0
 15 16  1  0
 16 17  2  0
 17 18  1  0
 18 19  2  0
 19 14  1  0
  4  5  2  0
  5  6  1  0
  6 13  2  0
 13 11  1  0
 11 10  2  0
 10  4  1  0
  1  2  2  0
  2  3  1  0
  3  9  2  0
  9  8  1  0
  8  7  2  0
  7  1  1  0
M  END

$$$$
No_388-/dssg/home/sw_qyf/PocketFlow/Model-Generation-Results/5HT2A_7WC7_rec_A_10.pdb/2024-01-01-03-54-21/
     RDKit          3D

 35 37  0  0  0  0  0  0  0  0999 V2000
  -24.1553  -17.8465  145.7021 C   0  0  0  0  0  0  0  0  0  0  0  0
  -24.6364  -17.2931  146.7091 C   0  0  0  0  0  0  0  0  0  0  0  0
  -24.0780  -17.2921  147.9389 C   0  0  0  0  0  0  0  0  0  0  0  0
  -22.7158  -17.6979  148.0096 C   0  0  0  0  0  0  0  0  0  0  0  0
  -22.1285  -18.1651  146.8427 C   0  0  0  0  0  0  0  0  0  0  0  0
  -22.8309  -18.1998  145.7035 C   0  0  0  0  0  0  0  0  0  0  0  0
  -26.0852  -16.8282  146.5029 C   0  0  0  0  0  0  0  0  0  0  0  0
  -26.4210  -15.6678  145.8602 C   0  0  0  0  0  0  0  0  0  0  0  0
  -26.2127  -14.4769  146.4420 C   0  0  0  0  0  0  0  0  0  0  0  0
  -26.6715  -13.2215  145.7861 C   0  0  0  0  0  0  0  0  0  0  0  0
  -27.6807  -12.5344  146.2974 C   0  0  0  0  0  0  0  0  0  0  0  0
  -28.1428  -11.3400  145.5865 C   0  0  0  0  0  0  0  0  0  0  0  0
  -27.3869  -10.8127  144.5073 C   0  0  0  0  0  0  0  0  0  0  0  0
  -26.2993  -11.6019  144.1403 C   0  0  0  0  0  0  0  0  0  0  0  0
  -25.9060  -12.6991  144.8105 C   0  0  0  0  0  0  0  0  0  0  0  0
  -24.7701  -13.4383  144.2555 C   0  0  0  0  0  0  0  0  0  0  0  0
  -24.7936  -14.2820  143.2475 O   0  0  0  0  0  0  0  0  0  0  0  0
  -23.5313  -13.2294  144.8348 O   0  0  0  0  0  0  0  0  0  0  0  0
  -27.8328   -9.5849  143.8841 C   0  0  0  0  0  0  0  0  0  0  0  0
  -29.2277   -9.4675  143.4307 C   0  0  0  0  0  0  0  0  0  0  0  0
  -29.6737   -8.3689  142.8136 C   0  0  0  0  0  0  0  0  0  0  0  0
  -31.0638   -8.2098  142.4907 C   0  0  0  0  0  0  0  0  0  0  0  0
  -31.5484   -7.6008  141.7161 O   0  0  0  0  0  0  0  0  0  0  0  0
  -31.8684   -8.8274  143.4311 O   0  0  0  0  0  0  0  0  0  0  0  0
  -27.1330  -17.5735  147.1881 C   0  0  0  0  0  0  0  0  0  0  0  0
  -26.9209  -18.1129  148.1414 F   0  0  0  0  0  0  0  0  0  0  0  0
  -28.3082  -16.8533  147.4103 F   0  0  0  0  0  0  0  0  0  0  0  0
  -29.2047   -7.0517  143.4532 C   0  0  0  0  0  0  0  0  0  0  0  0
  -28.9840   -8.3692  141.3244 C   0  0  0  0  0  0  0  0  0  0  0  0
  -29.3092   -7.3874  140.4151 C   0  0  0  0  0  0  0  0  0  0  0  0
  -28.9980   -7.6441  139.0726 C   0  0  0  0  0  0  0  0  0  0  0  0
  -28.2264   -8.8182  138.7766 C   0  0  0  0  0  0  0  0  0  0  0  0
  -27.9272   -9.7533  139.7519 C   0  0  0  0  0  0  0  0  0  0  0  0
  -28.3565   -9.5550  140.9949 C   0  0  0  0  0  0  0  0  0  0  0  0
  -27.2400  -10.8827  139.4112 N   0  0  0  0  0  0  0  0  0  0  0  0
  2  7  1  0
  7  8  1  0
  8  9  1  0
  9 10  1  0
 15 16  1  0
 16 17  2  0
 16 18  1  0
 13 19  1  0
 19 20  1  0
 20 21  1  0
 21 22  1  0
 22 23  2  0
 22 24  1  0
  7 25  1  0
 25 26  1  0
 25 27  1  0
 21 28  1  0
 21 29  1  0
 33 35  1  0
 29 30  2  0
 30 31  1  0
 31 32  2  0
 32 33  1  0
 33 34  2  0
 34 29  1  0
  1  2  2  0
  2  3  1  0
  3  4  2  0
  4  5  1  0
  5  6  2  0
  6  1  1  0
 10 11  2  0
 11 12  1  0
 12 13  2  0
 13 14  1  0
 14 15  2  0
 15 10  1  0
M  END

$$$$
No_389-/dssg/home/sw_qyf/PocketFlow/Model-Generation-Results/5HT2A_7WC7_rec_A_10.pdb/2024-01-01-03-54-21/
     RDKit          3D

 17 18  0  0  0  0  0  0  0  0999 V2000
  -24.1553  -17.8465  145.7021 C   0  0  0  0  0  0  0  0  0  0  0  0
  -23.9795  -18.4462  146.7426 C   0  0  0  0  0  0  0  0  0  0  0  0
  -24.3577  -16.4380  145.7329 C   0  0  0  0  0  0  0  0  0  0  0  0
  -24.6120  -15.7738  146.9649 C   0  0  0  0  0  0  0  0  0  0  0  0
  -24.9231  -14.3801  146.9818 C   0  0  0  0  0  0  0  0  0  0  0  0
  -25.0762  -13.7422  145.9933 C   0  0  0  0  0  0  0  0  0  0  0  0
  -24.7667  -14.3087  144.6911 C   0  0  0  0  0  0  0  0  0  0  0  0
  -24.4702  -15.6577  144.6547 C   0  0  0  0  0  0  0  0  0  0  0  0
  -24.1902  -17.8625  148.0879 C   0  0  0  0  0  0  0  0  0  0  0  0
  -24.4318  -16.5140  148.2505 C   0  0  0  0  0  0  0  0  0  0  0  0
  -24.8342  -13.5806  143.5864 O   0  0  0  0  0  0  0  0  0  0  0  0
  -25.3504  -12.2211  145.9974 C   0  0  0  0  0  0  0  0  0  0  0  0
  -25.3441  -11.7157  147.2101 F   0  0  0  0  0  0  0  0  0  0  0  0
  -24.4176  -11.5606  145.2906 F   0  0  0  0  0  0  0  0  0  0  0  0
  -26.5682  -12.0250  145.4809 F   0  0  0  0  0  0  0  0  0  0  0  0
  -23.9231  -18.4357  144.5564 O   0  0  0  0  0  0  0  0  0  0  0  0
  -24.6302  -16.0086  149.4204 O   0  0  0  0  0  0  0  0  0  0  0  0
  1  3  1  0
  2  9  1  0
  4 10  1  0
  9 10  1  0
  7 11  1  0
  6 12  1  0
 12 13  1  0
 12 14  1  0
 12 15  1  0
  1 16  1  0
 10 17  2  0
  1  2  1  0
  3  4  2  0
  4  5  1  0
  5  6  2  0
  6  7  1  0
  7  8  2  0
  8  3  1  0
M  END

$$$$
No_390-/dssg/home/sw_qyf/PocketFlow/Model-Generation-Results/5HT2A_7WC7_rec_A_10.pdb/2024-01-01-03-54-21/
     RDKit          3D

 26 27  0  0  0  0  0  0  0  0999 V2000
  -23.1746  -16.6014  144.8668 C   0  0  0  0  0  0  0  0  0  0  0  0
  -23.8963  -15.5346  144.7885 C   0  0  0  0  0  0  0  0  0  0  0  0
  -25.0304  -15.2549  144.5358 C   0  0  0  0  0  0  0  0  0  0  0  0
  -25.6045  -13.9524  144.2294 C   0  0  0  0  0  0  0  0  0  0  0  0
  -26.9716  -13.7632  143.8495 C   0  0  0  0  0  0  0  0  0  0  0  0
  -27.2940  -12.4851  143.3752 C   0  0  0  0  0  0  0  0  0  0  0  0
  -27.9155  -12.3161  142.1844 C   0  0  0  0  0  0  0  0  0  0  0  0
  -27.4171  -11.3548  141.2761 C   0  0  0  0  0  0  0  0  0  0  0  0
  -27.4322  -11.5612  139.8949 C   0  0  0  0  0  0  0  0  0  0  0  0
  -27.5090  -10.5117  138.9657 C   0  0  0  0  0  0  0  0  0  0  0  0
  -28.7071   -9.6526  139.1341 C   0  0  0  0  0  0  0  0  0  0  0  0
  -28.7224   -8.4817  138.2587 C   0  0  0  0  0  0  0  0  0  0  0  0
  -23.9288  -17.7371  145.5990 C   0  0  0  0  0  0  0  0  0  0  0  0
  -25.1213  -17.3886  146.2747 C   0  0  0  0  0  0  0  0  0  0  0  0
  -25.8368  -16.2568  145.5680 C   0  0  0  0  0  0  0  0  0  0  0  0
  -23.2985  -18.9622  145.9953 C   0  0  0  0  0  0  0  0  0  0  0  0
  -29.1253   -7.2676  138.8827 C   0  0  0  0  0  0  0  0  0  0  0  0
  -29.8306   -7.4127  140.2575 C   0  0  0  0  0  0  0  0  0  0  0  0
  -29.4512   -8.4197  141.1530 C   0  0  0  0  0  0  0  0  0  0  0  0
  -30.0156   -8.3665  142.4461 C   0  0  0  0  0  0  0  0  0  0  0  0
  -30.9583   -7.3867  142.7887 C   0  0  0  0  0  0  0  0  0  0  0  0
  -28.9046   -9.6020  140.5402 C   0  0  0  0  0  0  0  0  0  0  0  0
  -29.5108   -9.3632  143.3729 C   0  0  0  0  0  0  0  0  0  0  0  0
  -28.1923   -9.5163  143.7832 C   0  0  0  0  0  0  0  0  0  0  0  0
  -30.4887  -10.1605  144.1178 C   0  0  0  0  0  0  0  0  0  0  0  0
  -31.5515   -9.8777  144.1952 O   0  0  0  0  0  0  0  0  0  0  0  0
  3  4  1  0
  4  5  1  0
  5  6  1  0
  6  7  1  0
  7  8  1  0
  8  9  1  0
  9 10  1  0
 10 11  1  0
 13 16  1  0
 19 20  1  0
 20 21  1  0
 20 23  1  0
 23 24  1  0
 23 25  1  0
 25 26  2  0
 11 12  2  0
 12 17  1  0
 17 18  2  0
 18 19  1  0
 19 22  2  0
 22 11  1  0
  1  2  2  0
  2  3  1  0
  3 15  2  0
 15 14  1  0
 14 13  2  0
 13  1  1  0
M  END

$$$$
No_391-/dssg/home/sw_qyf/PocketFlow/Model-Generation-Results/5HT2A_7WC7_rec_A_10.pdb/2024-01-01-03-54-21/
     RDKit          3D

 13 13  0  0  0  0  0  0  0  0999 V2000
  -24.1553  -17.8465  145.7021 C   0  0  0  0  0  0  0  0  0  0  0  0
  -23.9795  -18.4462  146.7426 C   0  0  0  0  0  0  0  0  0  0  0  0
  -23.2486  -17.2339  144.9771 C   0  0  0  0  0  0  0  0  0  0  0  0
  -22.6834  -18.2906  147.4267 C   0  0  0  0  0  0  0  0  0  0  0  0
  -21.7969  -17.9601  146.6548 F   0  0  0  0  0  0  0  0  0  0  0  0
  -23.8221  -16.2670  143.9115 C   0  0  0  0  0  0  0  0  0  0  0  0
  -24.1902  -14.9342  144.5287 C   0  0  0  0  0  0  0  0  0  0  0  0
  -25.0247  -14.3048  144.7426 C   0  0  0  0  0  0  0  0  0  0  0  0
  -26.4314  -14.7388  144.5213 C   0  0  0  0  0  0  0  0  0  0  0  0
  -27.5131  -13.7033  144.6395 C   0  0  0  0  0  0  0  0  0  0  0  0
  -27.1153  -12.3446  144.9172 C   0  0  0  0  0  0  0  0  0  0  0  0
  -25.7800  -11.9336  145.1960 C   0  0  0  0  0  0  0  0  0  0  0  0
  -24.7311  -12.8733  145.0835 C   0  0  0  0  0  0  0  0  0  0  0  0
  1  2  1  0
  1  3  2  3
  2  4  1  0
  4  5  1  0
  3  6  1  0
  6  7  2  3
  7  8  1  0
  8  9  2  0
  9 10  1  0
 10 11  2  0
 11 12  1  0
 12 13  2  0
 13  8  1  0
M  END

$$$$
No_392-/dssg/home/sw_qyf/PocketFlow/Model-Generation-Results/5HT2A_7WC7_rec_A_10.pdb/2024-01-01-03-54-21/
     RDKit          3D

 23 25  0  0  0  0  0  0  0  0999 V2000
  -24.1553  -17.8465  145.7021 C   0  0  0  0  0  0  0  0  0  0  0  0
  -24.2856  -16.6364  145.3494 C   0  0  0  0  0  0  0  0  0  0  0  0
  -23.7824  -15.9602  144.3554 C   0  0  0  0  0  0  0  0  0  0  0  0
  -23.9871  -14.5276  144.1537 C   0  0  0  0  0  0  0  0  0  0  0  0
  -24.6010  -13.9231  145.1811 C   0  0  0  0  0  0  0  0  0  0  0  0
  -25.1419  -14.4908  146.3091 C   0  0  0  0  0  0  0  0  0  0  0  0
  -24.8849  -15.8514  146.4438 C   0  0  0  0  0  0  0  0  0  0  0  0
  -23.5099  -18.4202  146.6303 C   0  0  0  0  0  0  0  0  0  0  0  0
  -23.6866  -17.6409  147.9677 C   0  0  0  0  0  0  0  0  0  0  0  0
  -24.2959  -16.2850  147.8701 C   0  0  0  0  0  0  0  0  0  0  0  0
  -24.9088  -12.3803  145.0409 C   0  0  0  0  0  0  0  0  0  0  0  0
  -26.2469  -11.9997  145.3391 C   0  0  0  0  0  0  0  0  0  0  0  0
  -27.1934  -12.0109  144.5124 C   0  0  0  0  0  0  0  0  0  0  0  0
  -27.2744  -12.1369  143.2175 C   0  0  0  0  0  0  0  0  0  0  0  0
  -26.8887  -13.4169  142.7115 C   0  0  0  0  0  0  0  0  0  0  0  0
  -26.9682  -13.7011  141.3324 C   0  0  0  0  0  0  0  0  0  0  0  0
  -27.4088  -12.6578  140.4859 C   0  0  0  0  0  0  0  0  0  0  0  0
  -27.8191  -11.3999  140.9985 C   0  0  0  0  0  0  0  0  0  0  0  0
  -27.7707  -11.1897  142.4074 C   0  0  0  0  0  0  0  0  0  0  0  0
  -28.6240  -11.7599  145.1891 C   0  0  0  0  0  0  0  0  0  0  0  0
  -29.3858  -10.6571  145.0132 C   0  0  0  0  0  0  0  0  0  0  0  0
  -30.4435  -10.5741  145.9122 N   0  0  0  0  0  0  0  0  0  0  0  0
  -29.0690  -12.8513  145.9917 C   0  0  0  0  0  0  0  0  0  0  0  0
  5 11  1  0
 11 12  1  0
 12 13  1  0
 13 14  1  0
 13 20  1  0
 20 21  1  0
 21 22  2  0
 20 23  1  0
  2  3  1  0
  3  4  2  0
  4  5  1  0
  5  6  2  0
  6  7  1  0
  1  2  2  0
  2  7  1  0
  7 10  2  0
 10  9  1  0
  9  8  2  0
  8  1  1  0
 14 15  2  0
 15 16  1  0
 16 17  2  0
 17 18  1  0
 18 19  2  0
 19 14  1  0
M  END

$$$$
No_393-/dssg/home/sw_qyf/PocketFlow/Model-Generation-Results/5HT2A_7WC7_rec_A_10.pdb/2024-01-01-03-54-21/
     RDKit          3D

 21 22  0  0  0  0  0  0  0  0999 V2000
  -23.1746  -16.6014  144.8668 C   0  0  0  0  0  0  0  0  0  0  0  0
  -23.7011  -17.0158  145.9774 C   0  0  0  0  0  0  0  0  0  0  0  0
  -23.7336  -18.2775  146.3737 C   0  0  0  0  0  0  0  0  0  0  0  0
  -23.2769  -15.1496  144.5841 C   0  0  0  0  0  0  0  0  0  0  0  0
  -24.0862  -14.2431  145.3742 C   0  0  0  0  0  0  0  0  0  0  0  0
  -24.0511  -12.8637  145.0858 C   0  0  0  0  0  0  0  0  0  0  0  0
  -24.7790  -14.7636  146.5027 C   0  0  0  0  0  0  0  0  0  0  0  0
  -24.5921  -16.1413  146.8872 C   0  0  0  0  0  0  0  0  0  0  0  0
  -25.1297  -12.0411  145.4879 C   0  0  0  0  0  0  0  0  0  0  0  0
  -26.2621  -12.0847  145.0259 C   0  0  0  0  0  0  0  0  0  0  0  0
  -27.2949  -11.0207  145.2898 C   0  0  0  0  0  0  0  0  0  0  0  0
  -28.6049  -11.1929  144.9762 C   0  0  0  0  0  0  0  0  0  0  0  0
  -29.5068  -10.6556  145.1890 C   0  0  0  0  0  0  0  0  0  0  0  0
  -26.7357  -13.0124  144.0951 C   0  0  0  0  0  0  0  0  0  0  0  0
  -27.7560  -12.8461  143.1785 C   0  0  0  0  0  0  0  0  0  0  0  0
  -28.7368  -11.8744  143.6963 C   0  0  0  0  0  0  0  0  0  0  0  0
  -22.8810  -19.0000  146.5518 O   0  0  0  0  0  0  0  0  0  0  0  0
  -24.9620  -18.9086  146.6508 O   0  0  0  0  0  0  0  0  0  0  0  0
  -22.8624  -12.2734  144.5633 C   0  0  0  0  0  0  0  0  0  0  0  0
  -30.1291  -10.8644  146.4358 O   0  0  0  0  0  0  0  0  0  0  0  0
  -30.1016   -9.5394  144.6936 O   0  0  0  0  0  0  0  0  0  0  0  0
  2  3  1  0
  5  6  1  0
  6  9  1  0
 12 13  1  0
  3 17  2  0
  3 18  1  0
  6 19  1  0
 13 20  1  0
 13 21  2  0
  9 10  1  0
 10 11  2  0
 11 12  1  0
 12 16  2  0
 16 15  1  0
 15 14  2  0
 14 10  1  0
  1  2  2  0
  2  8  1  0
  8  7  2  0
  7  5  1  0
  5  4  2  0
  4  1  1  0
M  END

$$$$
No_394-/dssg/home/sw_qyf/PocketFlow/Model-Generation-Results/5HT2A_7WC7_rec_A_10.pdb/2024-01-01-03-54-21/
     RDKit          3D

 16 17  0  0  0  0  0  0  0  0999 V2000
  -24.1553  -17.8465  145.7021 C   0  0  0  0  0  0  0  0  0  0  0  0
  -24.2856  -16.6364  145.3494 C   0  0  0  0  0  0  0  0  0  0  0  0
  -24.7837  -15.7223  145.8474 C   0  0  0  0  0  0  0  0  0  0  0  0
  -24.8736  -14.2869  145.3929 C   0  0  0  0  0  0  0  0  0  0  0  0
  -23.9241  -14.0298  144.3752 C   0  0  0  0  0  0  0  0  0  0  0  0
  -24.8182  -18.2201  146.9016 C   0  0  0  0  0  0  0  0  0  0  0  0
  -25.5285  -17.3057  147.6155 C   0  0  0  0  0  0  0  0  0  0  0  0
  -25.5602  -15.9626  147.1563 C   0  0  0  0  0  0  0  0  0  0  0  0
  -25.6719  -13.2716  146.0024 C   0  0  0  0  0  0  0  0  0  0  0  0
  -26.3885  -12.6283  145.6027 C   0  0  0  0  0  0  0  0  0  0  0  0
  -27.8016  -12.4566  145.9395 C   0  0  0  0  0  0  0  0  0  0  0  0
  -28.5829  -13.2021  146.8327 C   0  0  0  0  0  0  0  0  0  0  0  0
  -29.8669  -12.8874  147.2013 C   0  0  0  0  0  0  0  0  0  0  0  0
  -30.3638  -11.6099  146.6890 C   0  0  0  0  0  0  0  0  0  0  0  0
  -29.6633  -10.7848  145.8367 C   0  0  0  0  0  0  0  0  0  0  0  0
  -28.3282  -11.1920  145.5338 C   0  0  0  0  0  0  0  0  0  0  0  0
  3  4  1  0
  4  5  1  0
  4  9  1  0
  9 10  1  0
 10 11  1  0
 11 12  2  0
 12 13  1  0
 13 14  2  0
 14 15  1  0
 15 16  2  0
 16 11  1  0
  1  2  2  0
  2  3  1  0
  3  8  2  0
  8  7  1  0
  7  6  2  0
  6  1  1  0
M  END

$$$$
No_395-/dssg/home/sw_qyf/PocketFlow/Model-Generation-Results/5HT2A_7WC7_rec_A_10.pdb/2024-01-01-03-54-21/
     RDKit          3D

 17 18  0  0  0  0  0  0  0  0999 V2000
  -23.8931  -18.2534  145.3804 F   0  0  0  0  0  0  0  0  0  0  0  0
  -24.1483  -17.4442  146.3400 C   0  0  0  0  0  0  0  0  0  0  0  0
  -24.1779  -17.7762  147.6608 C   0  0  0  0  0  0  0  0  0  0  0  0
  -24.6176  -16.1337  145.9048 C   0  0  0  0  0  0  0  0  0  0  0  0
  -25.2319  -15.2928  146.7669 C   0  0  0  0  0  0  0  0  0  0  0  0
  -24.6680  -16.9099  148.6865 C   0  0  0  0  0  0  0  0  0  0  0  0
  -25.2190  -15.6910  148.2396 C   0  0  0  0  0  0  0  0  0  0  0  0
  -25.7804  -13.9932  146.4314 C   0  0  0  0  0  0  0  0  0  0  0  0
  -25.2601  -13.2830  145.6120 C   0  0  0  0  0  0  0  0  0  0  0  0
  -25.8353  -11.9563  145.3079 C   0  0  0  0  0  0  0  0  0  0  0  0
  -27.1989  -11.6754  145.6864 C   0  0  0  0  0  0  0  0  0  0  0  0
  -27.7900  -12.6092  146.6371 C   0  0  0  0  0  0  0  0  0  0  0  0
  -27.1296  -13.8390  146.8913 C   0  0  0  0  0  0  0  0  0  0  0  0
  -29.1228  -12.4156  147.1862 C   0  0  0  0  0  0  0  0  0  0  0  0
  -29.9024  -11.4314  146.7661 N   0  0  0  0  0  0  0  0  0  0  0  0
  -29.4192  -12.9173  148.3380 O   0  0  0  0  0  0  0  0  0  0  0  0
  -24.4768  -15.8016  144.5358 C   0  0  0  0  0  0  0  0  0  0  0  0
  1  2  1  0
  5  8  1  0
 12 14  1  0
 14 15  2  0
 14 16  1  0
  4 17  1  0
  2  3  2  0
  3  6  1  0
  6  7  2  0
  7  5  1  0
  5  4  2  0
  4  2  1  0
  8  9  2  0
  9 10  1  0
 10 11  2  0
 11 12  1  0
 12 13  2  0
 13  8  1  0
M  END

$$$$
No_396-/dssg/home/sw_qyf/PocketFlow/Model-Generation-Results/5HT2A_7WC7_rec_A_10.pdb/2024-01-01-03-54-21/
     RDKit          3D

 35 35  0  0  0  0  0  0  0  0999 V2000
  -23.1746  -16.6014  144.8668 C   0  0  0  0  0  0  0  0  0  0  0  0
  -23.7011  -17.0158  145.9774 C   0  0  0  0  0  0  0  0  0  0  0  0
  -24.2134  -16.0722  146.8877 C   0  0  0  0  0  0  0  0  0  0  0  0
  -24.7882  -16.3410  148.2078 C   0  0  0  0  0  0  0  0  0  0  0  0
  -23.4231  -15.2781  144.3679 C   0  0  0  0  0  0  0  0  0  0  0  0
  -24.0726  -14.2968  145.2170 C   0  0  0  0  0  0  0  0  0  0  0  0
  -24.2425  -12.9518  144.8262 C   0  0  0  0  0  0  0  0  0  0  0  0
  -24.4659  -14.7142  146.4566 C   0  0  0  0  0  0  0  0  0  0  0  0
  -24.1846  -12.2037  145.7372 O   0  0  0  0  0  0  0  0  0  0  0  0
  -24.0166  -17.2574  149.2780 Cl  0  0  0  0  0  0  0  0  0  0  0  0
  -23.5514  -18.3310  146.4123 N   0  0  0  0  0  0  0  0  0  0  0  0
  -24.0847  -19.3770  145.7415 C   0  0  0  0  0  0  0  0  0  0  0  0
  -26.0055  -16.0441  148.4516 O   0  0  0  0  0  0  0  0  0  0  0  0
  -27.0609  -16.9253  148.0811 C   0  0  0  0  0  0  0  0  0  0  0  0
  -28.2601  -16.2851  147.4868 C   0  0  0  0  0  0  0  0  0  0  0  0
  -28.1776  -15.8534  146.1511 C   0  0  0  0  0  0  0  0  0  0  0  0
  -27.1644  -14.7611  146.0638 C   0  0  0  0  0  0  0  0  0  0  0  0
  -26.9294  -13.7469  146.1182 C   0  0  0  0  0  0  0  0  0  0  0  0
  -27.8338  -12.4667  146.0003 C   0  0  0  0  0  0  0  0  0  0  0  0
  -29.1264  -12.5320  146.3916 C   0  0  0  0  0  0  0  0  0  0  0  0
  -29.9318  -11.3325  146.1639 C   0  0  0  0  0  0  0  0  0  0  0  0
  -30.8013  -11.0221  147.0502 F   0  0  0  0  0  0  0  0  0  0  0  0
  -29.7734  -10.5389  145.1924 F   0  0  0  0  0  0  0  0  0  0  0  0
  -27.2260  -11.3476  145.5841 O   0  0  0  0  0  0  0  0  0  0  0  0
  -29.7091  -13.5227  146.8307 O   0  0  0  0  0  0  0  0  0  0  0  0
  -24.5254  -12.7314  143.6562 O   0  0  0  0  0  0  0  0  0  0  0  0
  -29.8080  -13.7829  148.2296 C   0  0  0  0  0  0  0  0  0  0  0  0
  -31.2202  -13.7922  148.7416 C   0  0  0  0  0  0  0  0  0  0  0  0
  -32.0239  -12.7826  148.4736 C   0  0  0  0  0  0  0  0  0  0  0  0
  -33.2910  -12.6863  149.1150 C   0  0  0  0  0  0  0  0  0  0  0  0
  -33.9641  -11.4190  149.0927 C   0  0  0  0  0  0  0  0  0  0  0  0
  -33.7654  -13.6735  149.6779 N   0  0  0  0  0  0  0  0  0  0  0  0
  -33.5756  -10.5492  150.3045 C   0  0  0  0  0  0  0  0  0  0  0  0
  -33.5199   -9.2779  150.2515 O   0  0  0  0  0  0  0  0  0  0  0  0
  -33.0567  -11.1539  151.3698 O   0  0  0  0  0  0  0  0  0  0  0  0
  1  2  1  0
  2  3  1  0
  3  4  2  3
  1  5  1  0
  5  6  1  0
  6  7  1  0
  3  8  1  0
  6  8  1  0
  7  9  1  0
  4 10  1  0
  2 11  1  0
 11 12  1  0
  4 13  1  0
 13 14  1  0
 14 15  1  0
 15 16  1  0
 16 17  1  0
 17 18  2  3
 18 19  1  0
 19 20  1  0
 20 21  2  3
 21 22  1  0
 21 23  1  0
 19 24  2  0
 20 25  1  0
  7 26  2  0
 25 27  1  0
 27 28  1  0
 28 29  2  3
 29 30  1  0
 30 31  1  0
 30 32  1  0
 31 33  1  0
 33 34  1  0
 33 35  2  0
M  END

$$$$
No_397-/dssg/home/sw_qyf/PocketFlow/Model-Generation-Results/5HT2A_7WC7_rec_A_10.pdb/2024-01-01-03-54-21/
     RDKit          3D

 34 36  0  0  0  0  0  0  0  0999 V2000
  -23.1746  -16.6014  144.8668 C   0  0  0  0  0  0  0  0  0  0  0  0
  -24.0189  -16.0564  145.8445 C   0  0  0  0  0  0  0  0  0  0  0  0
  -24.4850  -14.7380  145.6359 C   0  0  0  0  0  0  0  0  0  0  0  0
  -25.2717  -14.0560  146.5949 C   0  0  0  0  0  0  0  0  0  0  0  0
  -25.5669  -12.6700  146.4456 C   0  0  0  0  0  0  0  0  0  0  0  0
  -26.6641  -12.0558  146.8440 C   0  0  0  0  0  0  0  0  0  0  0  0
  -24.9922  -17.0084  146.4230 C   0  0  0  0  0  0  0  0  0  0  0  0
  -26.1854  -16.7007  146.8314 C   0  0  0  0  0  0  0  0  0  0  0  0
  -26.4548  -15.1949  147.1233 C   0  0  0  0  0  0  0  0  0  0  0  0
  -24.5010  -11.9803  145.8050 C   0  0  0  0  0  0  0  0  0  0  0  0
  -23.1438  -12.3946  145.7204 C   0  0  0  0  0  0  0  0  0  0  0  0
  -22.2986  -11.4785  144.9812 C   0  0  0  0  0  0  0  0  0  0  0  0
  -27.7745  -11.9952  145.8333 C   0  0  0  0  0  0  0  0  0  0  0  0
  -27.5993  -11.3082  144.7122 C   0  0  0  0  0  0  0  0  0  0  0  0
  -28.6721  -10.7284  143.9889 C   0  0  0  0  0  0  0  0  0  0  0  0
  -29.7937  -10.2196  144.7593 C   0  0  0  0  0  0  0  0  0  0  0  0
  -30.0075  -10.9151  146.0872 C   0  0  0  0  0  0  0  0  0  0  0  0
  -28.8943  -11.5245  146.7138 C   0  0  0  0  0  0  0  0  0  0  0  0
  -28.6359  -10.4607  142.6263 C   0  0  0  0  0  0  0  0  0  0  0  0
  -28.0141  -11.3672  141.7396 C   0  0  0  0  0  0  0  0  0  0  0  0
  -27.8332  -11.0646  140.4205 C   0  0  0  0  0  0  0  0  0  0  0  0
  -27.1247  -11.9000  139.4947 C   0  0  0  0  0  0  0  0  0  0  0  0
  -29.4239   -9.4719  142.0436 C   0  0  0  0  0  0  0  0  0  0  0  0
  -29.0226   -8.7406  140.9310 C   0  0  0  0  0  0  0  0  0  0  0  0
  -29.6521   -7.5072  140.4650 C   0  0  0  0  0  0  0  0  0  0  0  0
  -28.3540   -9.6769  139.9731 C   0  0  0  0  0  0  0  0  0  0  0  0
  -25.9815  -12.2590  139.6718 O   0  0  0  0  0  0  0  0  0  0  0  0
  -27.8296  -12.1707  138.4233 O   0  0  0  0  0  0  0  0  0  0  0  0
  -24.1662  -17.6398  147.6199 C   0  0  0  0  0  0  0  0  0  0  0  0
  -24.3701  -17.4008  148.7762 O   0  0  0  0  0  0  0  0  0  0  0  0
  -23.6162  -18.8434  147.2739 O   0  0  0  0  0  0  0  0  0  0  0  0
  -29.4755   -7.0629  139.4558 O   0  0  0  0  0  0  0  0  0  0  0  0
  -30.5485   -7.0408  141.3872 O   0  0  0  0  0  0  0  0  0  0  0  0
  -29.9475   -6.7170  142.6128 C   0  0  0  0  0  0  0  0  0  0  0  0
  1  2  1  0
  5  6  1  0
  5 10  1  0
 10 11  1  0
 11 12  1  0
  6 13  1  0
 15 19  1  0
 21 22  1  0
 22 27  1  0
 22 28  2  0
  7 29  1  0
 29 30  1  0
 29 31  2  0
 25 32  1  0
 25 33  1  0
 33 34  1  0
 25 24  1  0
  5  4  1  0
  2  3  2  0
  3  4  1  0
  4  9  2  0
  9  8  1  0
  8  7  2  0
  7  2  1  0
 13 14  2  0
 14 15  1  0
 15 16  2  0
 16 17  1  0
 17 18  2  0
 18 13  1  0
 19 20  2  0
 20 21  1  0
 21 26  2  0
 26 24  1  0
 24 23  2  0
 23 19  1  0
M  END

$$$$
No_398-/dssg/home/sw_qyf/PocketFlow/Model-Generation-Results/5HT2A_7WC7_rec_A_10.pdb/2024-01-01-03-54-21/
     RDKit          3D

 20 22  0  0  0  0  0  0  0  0999 V2000
  -24.1553  -17.8465  145.7021 C   0  0  0  0  0  0  0  0  0  0  0  0
  -24.6364  -17.2931  146.7091 C   0  0  0  0  0  0  0  0  0  0  0  0
  -24.5709  -15.9334  146.8074 C   0  0  0  0  0  0  0  0  0  0  0  0
  -24.2379  -15.1233  145.7159 C   0  0  0  0  0  0  0  0  0  0  0  0
  -23.7251  -15.7878  144.6028 C   0  0  0  0  0  0  0  0  0  0  0  0
  -23.7316  -17.0968  144.6427 N   0  0  0  0  0  0  0  0  0  0  0  0
  -24.0429  -19.2100  145.5627 N   0  0  0  0  0  0  0  0  0  0  0  0
  -24.3624  -13.6736  146.0089 C   0  0  0  0  0  0  0  0  0  0  0  0
  -23.4004  -12.8459  145.5071 C   0  0  0  0  0  0  0  0  0  0  0  0
  -23.8442  -11.5263  144.9036 C   0  0  0  0  0  0  0  0  0  0  0  0
  -25.2077  -11.0950  145.1800 C   0  0  0  0  0  0  0  0  0  0  0  0
  -26.1034  -11.9945  145.8625 C   0  0  0  0  0  0  0  0  0  0  0  0
  -25.7191  -13.2566  146.2080 C   0  0  0  0  0  0  0  0  0  0  0  0
  -27.4873  -11.5260  146.1239 C   0  0  0  0  0  0  0  0  0  0  0  0
  -28.3760  -12.3748  146.7221 C   0  0  0  0  0  0  0  0  0  0  0  0
  -29.7736  -11.8607  146.9151 C   0  0  0  0  0  0  0  0  0  0  0  0
  -30.0974  -10.7940  146.1710 N   0  0  0  0  0  0  0  0  0  0  0  0
  -29.3079  -10.2285  145.2302 C   0  0  0  0  0  0  0  0  0  0  0  0
  -27.9558  -10.6250  145.2003 C   0  0  0  0  0  0  0  0  0  0  0  0
  -30.8273  -12.5981  147.9535 Cl  0  0  0  0  0  0  0  0  0  0  0  0
  1  7  1  0
  4  8  1  0
 12 14  1  0
 16 20  1  0
  1  2  2  0
  2  3  1  0
  3  4  2  0
  4  5  1  0
  5  6  2  0
  6  1  1  0
  8  9  2  0
  9 10  1  0
 10 11  2  0
 11 12  1  0
 12 13  2  0
 13  8  1  0
 14 15  2  0
 15 16  1  0
 16 17  2  0
 17 18  1  0
 18 19  2  0
 19 14  1  0
M  END

$$$$
No_399-/dssg/home/sw_qyf/PocketFlow/Model-Generation-Results/5HT2A_7WC7_rec_A_10.pdb/2024-01-01-03-54-21/
     RDKit          3D

 20 23  0  0  0  0  0  0  0  0999 V2000
  -24.1553  -17.8465  145.7021 C   0  0  0  0  0  0  0  0  0  0  0  0
  -24.2856  -16.6364  145.3494 C   0  0  0  0  0  0  0  0  0  0  0  0
  -25.0033  -15.6772  146.0737 C   0  0  0  0  0  0  0  0  0  0  0  0
  -25.7224  -16.0756  147.0213 C   0  0  0  0  0  0  0  0  0  0  0  0
  -24.8891  -18.3427  146.7818 C   0  0  0  0  0  0  0  0  0  0  0  0
  -25.6060  -17.4168  147.5658 C   0  0  0  0  0  0  0  0  0  0  0  0
  -23.6542  -15.8979  144.2425 N   0  0  0  0  0  0  0  0  0  0  0  0
  -24.9365  -14.2988  145.2876 C   0  0  0  0  0  0  0  0  0  0  0  0
  -24.0171  -14.5012  144.3182 C   0  0  0  0  0  0  0  0  0  0  0  0
  -25.5289  -13.0962  145.7741 C   0  0  0  0  0  0  0  0  0  0  0  0
  -26.9170  -13.0713  145.8499 C   0  0  0  0  0  0  0  0  0  0  0  0
  -27.8316  -13.7842  146.2243 C   0  0  0  0  0  0  0  0  0  0  0  0
  -29.1847  -13.3869  146.3714 C   0  0  0  0  0  0  0  0  0  0  0  0
  -29.5385  -12.0548  146.0411 C   0  0  0  0  0  0  0  0  0  0  0  0
  -28.5536  -11.1872  145.5357 C   0  0  0  0  0  0  0  0  0  0  0  0
  -27.2538  -11.5354  145.4922 C   0  0  0  0  0  0  0  0  0  0  0  0
  -24.6037  -12.0834  146.2729 C   0  0  0  0  0  0  0  0  0  0  0  0
  -30.2376  -14.2986  146.8611 C   0  0  0  0  0  0  0  0  0  0  0  0
  -24.8514  -10.8237  145.9937 O   0  0  0  0  0  0  0  0  0  0  0  0
  -26.4034  -10.5676  145.7945 C   0  0  0  0  0  0  0  0  0  0  0  0
  2  7  1  0
  3  8  1  0
  7  9  2  0
  8  9  1  0
  8 10  1  0
 10 11  1  0
 10 17  1  0
 13 18  1  0
 17 19  1  0
 16 20  1  0
 19 20  1  0
 11 12  2  0
 12 13  1  0
 13 14  2  0
 14 15  1  0
 15 16  2  0
 16 11  1  0
  1  2  2  0
  2  3  1  0
  3  4  2  0
  4  6  1  0
  6  5  2  0
  5  1  1  0
M  END

$$$$
No_400-/dssg/home/sw_qyf/PocketFlow/Model-Generation-Results/5HT2A_7WC7_rec_A_10.pdb/2024-01-01-03-54-21/
     RDKit          3D

 35 37  0  0  0  0  0  0  0  0999 V2000
  -24.1553  -17.8465  145.7021 C   0  0  0  0  0  0  0  0  0  0  0  0
  -24.6364  -17.2931  146.7091 C   0  0  0  0  0  0  0  0  0  0  0  0
  -25.8608  -16.5592  146.5934 C   0  0  0  0  0  0  0  0  0  0  0  0
  -26.9933  -16.9082  147.1889 C   0  0  0  0  0  0  0  0  0  0  0  0
  -28.2114  -16.1477  146.9896 C   0  0  0  0  0  0  0  0  0  0  0  0
  -28.1869  -14.8900  146.3591 C   0  0  0  0  0  0  0  0  0  0  0  0
  -26.9306  -14.4696  145.8021 C   0  0  0  0  0  0  0  0  0  0  0  0
  -26.8093  -13.2394  145.0985 C   0  0  0  0  0  0  0  0  0  0  0  0
  -25.7312  -15.3089  145.9745 C   0  0  0  0  0  0  0  0  0  0  0  0
  -26.6062  -13.2415  143.8470 C   0  0  0  0  0  0  0  0  0  0  0  0
  -25.6752  -14.1442  143.2292 C   0  0  0  0  0  0  0  0  0  0  0  0
  -24.0026  -17.5413  148.0405 C   0  0  0  0  0  0  0  0  0  0  0  0
  -22.5819  -17.2665  148.1323 C   0  0  0  0  0  0  0  0  0  0  0  0
  -27.8809  -13.1723  142.9299 C   0  0  0  0  0  0  0  0  0  0  0  0
  -27.9149  -11.6466  142.7032 C   0  0  0  0  0  0  0  0  0  0  0  0
  -28.4062  -11.1924  141.4689 C   0  0  0  0  0  0  0  0  0  0  0  0
  -28.6898   -9.7922  141.3391 C   0  0  0  0  0  0  0  0  0  0  0  0
  -29.1621   -9.0224  142.4667 C   0  0  0  0  0  0  0  0  0  0  0  0
  -28.6284   -9.5073  143.7479 C   0  0  0  0  0  0  0  0  0  0  0  0
  -28.3114  -10.9175  143.8944 C   0  0  0  0  0  0  0  0  0  0  0  0
  -28.9642   -9.1446  140.0456 C   0  0  0  0  0  0  0  0  0  0  0  0
  -28.1377   -9.4011  138.9417 C   0  0  0  0  0  0  0  0  0  0  0  0
  -28.3339   -8.6414  137.7764 C   0  0  0  0  0  0  0  0  0  0  0  0
  -29.5364   -7.8170  140.0937 C   0  0  0  0  0  0  0  0  0  0  0  0
  -30.2223   -7.4100  141.1854 N   0  0  0  0  0  0  0  0  0  0  0  0
  -29.9263   -7.8781  142.4240 C   0  0  0  0  0  0  0  0  0  0  0  0
  -30.5184   -7.3290  143.4507 O   0  0  0  0  0  0  0  0  0  0  0  0
  -24.4530  -18.6713  148.8056 C   0  0  0  0  0  0  0  0  0  0  0  0
  -27.3516  -10.5845  138.9184 C   0  0  0  0  0  0  0  0  0  0  0  0
  -27.6882  -11.4761  138.0680 F   0  0  0  0  0  0  0  0  0  0  0  0
  -26.6904  -10.8338  139.8654 F   0  0  0  0  0  0  0  0  0  0  0  0
  -23.3496  -17.5341  145.0395 O   0  0  0  0  0  0  0  0  0  0  0  0
  -24.3340  -19.1847  145.6931 O   0  0  0  0  0  0  0  0  0  0  0  0
  -29.2168  -14.1441  146.3429 O   0  0  0  0  0  0  0  0  0  0  0  0
  -30.1754  -14.1686  147.3717 C   0  0  0  0  0  0  0  0  0  0  0  0
  1  2  1  0
  2  3  1  0
  7  8  1  0
  8 10  1  0
 10 11  1  0
  2 12  1  0
 12 13  1  0
 10 14  1  0
 14 15  1  0
 17 21  1  0
 21 22  1  0
 22 23  2  0
 21 24  1  0
 24 25  1  0
 18 26  1  0
 25 26  1  0
 26 27  1  0
 12 28  1  0
 22 29  1  0
 29 30  1  0
 29 31  1  0
  1 32  2  0
  1 33  1  0
  6 34  1  0
 34 35  1  0
 15 16  2  0
 16 17  1  0
 17 18  2  0
 18 19  1  0
 19 20  2  0
 20 15  1  0
  3  4  2  0
  4  5  1  0
  5  6  2  0
  6  7  1  0
  7  9  2  0
  9  3  1  0
M  END

$$$$
No_401-/dssg/home/sw_qyf/PocketFlow/Model-Generation-Results/5HT2A_7WC7_rec_A_10.pdb/2024-01-01-03-54-21/
     RDKit          3D

  7  7  0  0  0  0  0  0  0  0999 V2000
  -24.1553  -17.8465  145.7021 C   0  0  0  0  0  0  0  0  0  0  0  0
  -24.2856  -16.6364  145.3494 C   0  0  0  0  0  0  0  0  0  0  0  0
  -25.0033  -15.6772  146.0737 C   0  0  0  0  0  0  0  0  0  0  0  0
  -25.6964  -16.1810  147.2049 C   0  0  0  0  0  0  0  0  0  0  0  0
  -24.8143  -18.3454  146.8324 C   0  0  0  0  0  0  0  0  0  0  0  0
  -25.5292  -17.4614  147.6373 C   0  0  0  0  0  0  0  0  0  0  0  0
  -23.4900  -15.9703  143.9272 Cl  0  0  0  0  0  0  0  0  0  0  0  0
  2  7  1  0
  1  2  2  0
  2  3  1  0
  3  4  2  0
  4  6  1  0
  6  5  2  0
  5  1  1  0
M  END

$$$$
No_402-/dssg/home/sw_qyf/PocketFlow/Model-Generation-Results/5HT2A_7WC7_rec_A_10.pdb/2024-01-01-03-54-21/
     RDKit          3D

 22 25  0  0  0  0  0  0  0  0999 V2000
  -24.1553  -17.8465  145.7021 C   0  0  0  0  0  0  0  0  0  0  0  0
  -24.2856  -16.6364  145.3494 C   0  0  0  0  0  0  0  0  0  0  0  0
  -25.0033  -15.6772  146.0737 C   0  0  0  0  0  0  0  0  0  0  0  0
  -25.7224  -16.0756  147.0213 C   0  0  0  0  0  0  0  0  0  0  0  0
  -24.8891  -18.3427  146.7818 C   0  0  0  0  0  0  0  0  0  0  0  0
  -25.6060  -17.4168  147.5658 C   0  0  0  0  0  0  0  0  0  0  0  0
  -23.6542  -15.8979  144.2425 N   0  0  0  0  0  0  0  0  0  0  0  0
  -25.0342  -14.2456  145.4934 C   0  0  0  0  0  0  0  0  0  0  0  0
  -24.1422  -14.2298  144.4942 C   0  0  0  0  0  0  0  0  0  0  0  0
  -25.6854  -13.1685  146.0414 C   0  0  0  0  0  0  0  0  0  0  0  0
  -25.1092  -11.9097  145.8454 C   0  0  0  0  0  0  0  0  0  0  0  0
  -26.0651  -10.7560  145.9218 C   0  0  0  0  0  0  0  0  0  0  0  0
  -27.4496  -11.1020  145.7652 C   0  0  0  0  0  0  0  0  0  0  0  0
  -27.9651  -12.3274  146.2278 C   0  0  0  0  0  0  0  0  0  0  0  0
  -27.1319  -13.3507  146.1407 C   0  0  0  0  0  0  0  0  0  0  0  0
  -29.3810  -12.4442  146.4084 C   0  0  0  0  0  0  0  0  0  0  0  0
  -29.7569  -13.0053  147.7367 C   0  0  0  0  0  0  0  0  0  0  0  0
  -30.5632  -12.2210  148.4998 C   0  0  0  0  0  0  0  0  0  0  0  0
  -31.4362  -12.8278  149.5119 C   0  0  0  0  0  0  0  0  0  0  0  0
  -31.1076  -14.1900  149.8025 C   0  0  0  0  0  0  0  0  0  0  0  0
  -30.2298  -14.9328  149.0159 C   0  0  0  0  0  0  0  0  0  0  0  0
  -29.6631  -14.3610  147.9599 C   0  0  0  0  0  0  0  0  0  0  0  0
  2  7  1  0
  3  8  1  0
  7  9  1  0
  8  9  2  0
  8 10  1  0
 14 16  1  0
 16 17  1  0
 17 18  2  0
 18 19  1  0
 19 20  2  0
 20 21  1  0
 21 22  2  0
 22 17  1  0
  1  2  2  0
  2  3  1  0
  3  4  2  0
  4  6  1  0
  6  5  2  0
  5  1  1  0
 10 11  2  0
 11 12  1  0
 12 13  2  0
 13 14  1  0
 14 15  2  0
 15 10  1  0
M  END

$$$$
No_403-/dssg/home/sw_qyf/PocketFlow/Model-Generation-Results/5HT2A_7WC7_rec_A_10.pdb/2024-01-01-03-54-21/
     RDKit          3D

 32 35  0  0  0  0  0  0  0  0999 V2000
  -23.1746  -16.6014  144.8668 C   0  0  0  0  0  0  0  0  0  0  0  0
  -23.8963  -15.5346  144.7885 C   0  0  0  0  0  0  0  0  0  0  0  0
  -24.5755  -15.0383  145.9043 C   0  0  0  0  0  0  0  0  0  0  0  0
  -25.0618  -13.6819  146.0347 C   0  0  0  0  0  0  0  0  0  0  0  0
  -24.0242  -12.8249  145.9593 C   0  0  0  0  0  0  0  0  0  0  0  0
  -23.8786  -17.6652  145.6663 C   0  0  0  0  0  0  0  0  0  0  0  0
  -24.6984  -17.2858  146.7874 C   0  0  0  0  0  0  0  0  0  0  0  0
  -25.1228  -15.9645  146.9109 C   0  0  0  0  0  0  0  0  0  0  0  0
  -26.3494  -13.2116  146.2053 C   0  0  0  0  0  0  0  0  0  0  0  0
  -26.6958  -11.8666  146.1345 C   0  0  0  0  0  0  0  0  0  0  0  0
  -24.3098  -11.3699  145.8717 C   0  0  0  0  0  0  0  0  0  0  0  0
  -28.0340  -11.4539  146.1091 C   0  0  0  0  0  0  0  0  0  0  0  0
  -25.6538  -10.9729  145.9302 C   0  0  0  0  0  0  0  0  0  0  0  0
  -28.6803  -10.6254  145.1546 C   0  0  0  0  0  0  0  0  0  0  0  0
  -29.6436  -10.4462  144.8522 C   0  0  0  0  0  0  0  0  0  0  0  0
  -30.1821   -9.4969  143.8738 C   0  0  0  0  0  0  0  0  0  0  0  0
  -29.3178   -8.8799  143.0687 C   0  0  0  0  0  0  0  0  0  0  0  0
  -27.8908   -9.2081  143.3118 C   0  0  0  0  0  0  0  0  0  0  0  0
  -27.5443   -9.9709  144.2791 C   0  0  0  0  0  0  0  0  0  0  0  0
  -29.6615   -7.9782  142.0211 C   0  0  0  0  0  0  0  0  0  0  0  0
  -30.4530   -8.1818  141.0379 C   0  0  0  0  0  0  0  0  0  0  0  0
  -29.1892   -6.5372  142.0806 C   0  0  0  0  0  0  0  0  0  0  0  0
  -29.1586   -5.7054  141.0502 C   0  0  0  0  0  0  0  0  0  0  0  0
  -29.6861   -6.2592  139.8046 C   0  0  0  0  0  0  0  0  0  0  0  0
  -30.3327   -7.5369  139.8033 C   0  0  0  0  0  0  0  0  0  0  0  0
  -23.2099  -18.9079  145.8760 N   0  0  0  0  0  0  0  0  0  0  0  0
  -25.0022  -18.2556  147.7988 C   0  0  0  0  0  0  0  0  0  0  0  0
  -24.8422  -17.8693  149.1226 O   0  0  0  0  0  0  0  0  0  0  0  0
  -23.7652  -17.1373  149.4397 C   0  0  0  0  0  0  0  0  0  0  0  0
  -23.3289  -17.3861  150.8844 C   0  0  0  0  0  0  0  0  0  0  0  0
  -22.0745  -16.8561  151.1624 O   0  0  0  0  0  0  0  0  0  0  0  0
  -31.4911   -9.3034  143.6814 O   0  0  0  0  0  0  0  0  0  0  0  0
  3  4  1  0
 10 12  1  0
 17 20  1  0
  6 26  1  0
  7 27  1  0
 27 28  1  0
 28 29  1  0
 29 30  1  0
 30 31  1  0
 16 32  1  0
 12 14  1  0
 14 15  2  0
 15 16  1  0
 16 17  2  0
 17 18  1  0
 18 19  2  0
 19 14  1  0
  1  2  2  0
  2  3  1  0
  3  8  2  0
  8  7  1  0
  7  6  2  0
  6  1  1  0
 20 21  2  0
 21 25  1  0
 25 24  2  0
 24 23  1  0
 23 22  2  0
 22 20  1  0
  4  5  2  0
  5 11  1  0
 11 13  2  0
 13 10  1  0
 10  9  2  0
  9  4  1  0
M  END

$$$$
No_404-/dssg/home/sw_qyf/PocketFlow/Model-Generation-Results/5HT2A_7WC7_rec_A_10.pdb/2024-01-01-03-54-21/
     RDKit          3D

 35 38  0  0  0  0  0  0  0  0999 V2000
  -24.1553  -17.8465  145.7021 C   0  0  0  0  0  0  0  0  0  0  0  0
  -23.9795  -18.4462  146.7426 C   0  0  0  0  0  0  0  0  0  0  0  0
  -25.1593  -16.8262  145.6925 C   0  0  0  0  0  0  0  0  0  0  0  0
  -25.3302  -15.8818  144.5925 C   0  0  0  0  0  0  0  0  0  0  0  0
  -24.4570  -18.1009  148.0274 C   0  0  0  0  0  0  0  0  0  0  0  0
  -25.3496  -17.0286  148.1023 C   0  0  0  0  0  0  0  0  0  0  0  0
  -25.5669  -16.2449  146.9641 C   0  0  0  0  0  0  0  0  0  0  0  0
  -26.3838  -14.9379  144.6390 C   0  0  0  0  0  0  0  0  0  0  0  0
  -26.1510  -13.7645  145.0261 C   0  0  0  0  0  0  0  0  0  0  0  0
  -24.9554  -13.1832  145.0506 C   0  0  0  0  0  0  0  0  0  0  0  0
  -23.8617  -13.8775  144.3964 C   0  0  0  0  0  0  0  0  0  0  0  0
  -23.9851  -15.2976  144.5580 C   0  0  0  0  0  0  0  0  0  0  0  0
  -27.3320  -12.7774  145.3205 C   0  0  0  0  0  0  0  0  0  0  0  0
  -28.0878  -12.9267  146.4715 C   0  0  0  0  0  0  0  0  0  0  0  0
  -29.2771  -12.2975  146.6537 C   0  0  0  0  0  0  0  0  0  0  0  0
  -29.6638  -11.2608  145.7489 C   0  0  0  0  0  0  0  0  0  0  0  0
  -28.8638  -10.9651  144.6568 C   0  0  0  0  0  0  0  0  0  0  0  0
  -27.7036  -11.7657  144.4531 C   0  0  0  0  0  0  0  0  0  0  0  0
  -29.3070   -9.9362  143.7251 C   0  0  0  0  0  0  0  0  0  0  0  0
  -28.3782   -9.4941  142.8332 C   0  0  0  0  0  0  0  0  0  0  0  0
  -30.5970   -9.3829  143.8113 C   0  0  0  0  0  0  0  0  0  0  0  0
  -31.0907   -8.4464  142.8913 C   0  0  0  0  0  0  0  0  0  0  0  0
  -30.1308   -7.9701  141.9449 C   0  0  0  0  0  0  0  0  0  0  0  0
  -29.0727   -8.3966  141.8172 C   0  0  0  0  0  0  0  0  0  0  0  0
  -30.1091  -12.4900  147.9008 C   0  0  0  0  0  0  0  0  0  0  0  0
  -30.1707  -13.6505  148.3398 O   0  0  0  0  0  0  0  0  0  0  0  0
  -22.6515  -13.2149  144.1271 C   0  0  0  0  0  0  0  0  0  0  0  0
  -30.8530  -11.5784  148.4399 O   0  0  0  0  0  0  0  0  0  0  0  0
  -22.3052  -12.0364  144.7207 N   0  0  0  0  0  0  0  0  0  0  0  0
  -21.8481  -13.7366  143.3445 O   0  0  0  0  0  0  0  0  0  0  0  0
  -25.9239  -16.7025  149.3056 O   0  0  0  0  0  0  0  0  0  0  0  0
  -25.2588  -17.1756  150.4021 C   0  0  0  0  0  0  0  0  0  0  0  0
  -23.6971  -18.2305  144.5990 O   0  0  0  0  0  0  0  0  0  0  0  0
  -31.8828  -11.9352  149.2370 C   0  0  0  0  0  0  0  0  0  0  0  0
  -31.6801  -12.7444  150.1644 C   0  0  0  0  0  0  0  0  0  0  0  0
  3  4  1  0
  9 13  1  0
 17 19  1  0
 15 25  1  0
 25 26  2  0
 11 27  1  0
 25 28  1  0
 27 29  1  0
 27 30  2  0
  6 31  1  0
 31 32  1  0
  1 33  1  0
 28 34  1  0
 34 35  2  0
  4  8  2  0
  8  9  1  0
  9 10  2  0
 10 11  1  0
 11 12  2  0
 12  4  1  0
 19 20  2  0
 20 24  1  0
 24 23  2  0
 23 22  1  0
 22 21  2  0
 21 19  1  0
 13 14  2  0
 14 15  1  0
 15 16  2  0
 16 17  1  0
 17 18  2  0
 18 13  1  0
  1  2  2  0
  2  5  1  0
  5  6  2  0
  6  7  1  0
  7  3  2  0
  3  1  1  0
M  END

$$$$
No_405-/dssg/home/sw_qyf/PocketFlow/Model-Generation-Results/5HT2A_7WC7_rec_A_10.pdb/2024-01-01-03-54-21/
     RDKit          3D

 28 31  0  0  0  0  0  0  0  0999 V2000
  -24.1553  -17.8465  145.7021 C   0  0  0  0  0  0  0  0  0  0  0  0
  -24.6364  -17.2931  146.7091 C   0  0  0  0  0  0  0  0  0  0  0  0
  -24.5709  -15.9334  146.8074 C   0  0  0  0  0  0  0  0  0  0  0  0
  -24.2378  -15.1233  145.7159 C   0  0  0  0  0  0  0  0  0  0  0  0
  -24.2498  -13.6819  145.7156 C   0  0  0  0  0  0  0  0  0  0  0  0
  -23.7380  -17.1272  144.5444 C   0  0  0  0  0  0  0  0  0  0  0  0
  -23.7525  -15.7605  144.6336 C   0  0  0  0  0  0  0  0  0  0  0  0
  -25.0552  -12.9234  146.6413 C   0  0  0  0  0  0  0  0  0  0  0  0
  -23.4270  -12.9174  144.8573 C   0  0  0  0  0  0  0  0  0  0  0  0
  -22.9700  -11.6966  145.4527 C   0  0  0  0  0  0  0  0  0  0  0  0
  -26.0642  -12.2521  146.1717 C   0  0  0  0  0  0  0  0  0  0  0  0
  -25.9302  -11.2646  145.1205 C   0  0  0  0  0  0  0  0  0  0  0  0
  -24.4354  -10.8344  144.8796 C   0  0  0  0  0  0  0  0  0  0  0  0
  -26.8082  -10.4591  144.4866 C   0  0  0  0  0  0  0  0  0  0  0  0
  -26.8927   -9.8319  143.4367 C   0  0  0  0  0  0  0  0  0  0  0  0
  -28.0372   -9.2075  142.8432 C   0  0  0  0  0  0  0  0  0  0  0  0
  -29.3196   -9.4605  143.3777 C   0  0  0  0  0  0  0  0  0  0  0  0
  -29.3427  -10.3743  144.5608 C   0  0  0  0  0  0  0  0  0  0  0  0
  -28.2568  -10.9178  145.0652 C   0  0  0  0  0  0  0  0  0  0  0  0
  -30.5042   -8.9263  142.7927 C   0  0  0  0  0  0  0  0  0  0  0  0
  -31.6910   -9.0482  143.2975 N   0  0  0  0  0  0  0  0  0  0  0  0
  -30.4408   -8.2764  141.6898 O   0  0  0  0  0  0  0  0  0  0  0  0
  -24.0669  -19.3605  145.5960 C   0  0  0  0  0  0  0  0  0  0  0  0
  -23.0454  -20.0008  145.8038 O   0  0  0  0  0  0  0  0  0  0  0  0
  -25.2301  -19.9765  145.6227 O   0  0  0  0  0  0  0  0  0  0  0  0
  -27.2697  -12.4741  146.5640 O   0  0  0  0  0  0  0  0  0  0  0  0
  -28.4022  -11.8472  146.0106 C   0  0  0  0  0  0  0  0  0  0  0  0
  -29.5151  -11.9622  146.6535 O   0  0  0  0  0  0  0  0  0  0  0  0
  4  5  1  0
  5  8  2  0
  5  9  1  0
  9 10  1  0
  8 11  1  0
 11 12  2  0
 10 13  1  0
 12 13  1  0
 12 14  1  0
 17 20  1  0
 20 21  1  0
 20 22  2  0
  1 23  1  0
 23 24  2  0
 23 25  1  0
 11 26  1  0
 19 27  1  0
 26 27  1  0
 27 28  2  0
 14 15  2  0
 15 16  1  0
 16 17  2  0
 17 18  1  0
 18 19  2  0
 19 14  1  0
  1  2  2  0
  2  3  1  0
  3  4  2  0
  4  7  1  0
  7  6  2  0
  6  1  1  0
M  END

$$$$
No_406-/dssg/home/sw_qyf/PocketFlow/Model-Generation-Results/5HT2A_7WC7_rec_A_10.pdb/2024-01-01-03-54-21/
     RDKit          3D

 23 24  0  0  0  0  0  0  0  0999 V2000
  -23.1746  -16.6014  144.8668 C   0  0  0  0  0  0  0  0  0  0  0  0
  -23.7011  -17.0158  145.9774 C   0  0  0  0  0  0  0  0  0  0  0  0
  -23.7336  -18.2775  146.3737 C   0  0  0  0  0  0  0  0  0  0  0  0
  -24.1960  -18.6445  147.6858 C   0  0  0  0  0  0  0  0  0  0  0  0
  -24.7100  -17.6145  148.5486 C   0  0  0  0  0  0  0  0  0  0  0  0
  -24.7929  -16.2635  148.0870 C   0  0  0  0  0  0  0  0  0  0  0  0
  -24.2508  -15.9434  146.8891 C   0  0  0  0  0  0  0  0  0  0  0  0
  -22.9131  -15.3694  144.6484 O   0  0  0  0  0  0  0  0  0  0  0  0
  -23.8154  -14.4512  145.0167 C   0  0  0  0  0  0  0  0  0  0  0  0
  -23.7012  -13.0699  144.5112 C   0  0  0  0  0  0  0  0  0  0  0  0
  -24.6508  -14.6484  146.2000 C   0  0  0  0  0  0  0  0  0  0  0  0
  -22.4840  -12.8731  144.1821 F   0  0  0  0  0  0  0  0  0  0  0  0
  -23.9893  -12.1905  145.5707 F   0  0  0  0  0  0  0  0  0  0  0  0
  -23.2578  -19.2535  145.6971 O   0  0  0  0  0  0  0  0  0  0  0  0
  -24.5681  -13.0059  143.6045 F   0  0  0  0  0  0  0  0  0  0  0  0
  -25.1204  -17.9654  149.7943 O   0  0  0  0  0  0  0  0  0  0  0  0
  -25.3753  -16.9105  150.7414 C   0  0  0  0  0  0  0  0  0  0  0  0
  -24.2379  -16.0977  150.7860 C   0  0  0  0  0  0  0  0  0  0  0  0
  -22.9142  -16.8827  150.8237 C   0  0  0  0  0  0  0  0  0  0  0  0
  -21.8028  -16.2123  150.8673 O   0  0  0  0  0  0  0  0  0  0  0  0
  -22.8671  -18.1447  150.7875 O   0  0  0  0  0  0  0  0  0  0  0  0
  -24.1462  -20.3487  145.5501 C   0  0  0  0  0  0  0  0  0  0  0  0
  -25.2635  -13.7865  146.8463 O   0  0  0  0  0  0  0  0  0  0  0  0
  1  2  1  0
  1  8  1  0
  8  9  1  0
  9 10  1  0
  7 11  1  0
  9 11  1  0
 10 12  1  0
 10 13  1  0
  3 14  1  0
 10 15  1  0
  5 16  1  0
 16 17  1  0
 17 18  1  0
 18 19  1  0
 19 20  2  0
 19 21  1  0
 14 22  1  0
 11 23  2  0
  2  3  2  0
  3  4  1  0
  4  5  2  0
  5  6  1  0
  6  7  2  0
  7  2  1  0
M  END

$$$$
No_407-/dssg/home/sw_qyf/PocketFlow/Model-Generation-Results/5HT2A_7WC7_rec_A_10.pdb/2024-01-01-03-54-21/
     RDKit          3D

 16 17  0  0  0  0  0  0  0  0999 V2000
  -24.1553  -17.8465  145.7021 C   0  0  0  0  0  0  0  0  0  0  0  0
  -24.2856  -16.6364  145.3494 C   0  0  0  0  0  0  0  0  0  0  0  0
  -25.0033  -15.6772  146.0737 C   0  0  0  0  0  0  0  0  0  0  0  0
  -25.1197  -14.2835  145.7299 C   0  0  0  0  0  0  0  0  0  0  0  0
  -24.2707  -13.8793  144.6500 C   0  0  0  0  0  0  0  0  0  0  0  0
  -24.8686  -18.3355  146.8179 C   0  0  0  0  0  0  0  0  0  0  0  0
  -25.6154  -17.5363  147.5807 C   0  0  0  0  0  0  0  0  0  0  0  0
  -25.7525  -16.1597  147.2668 C   0  0  0  0  0  0  0  0  0  0  0  0
  -24.2176  -12.4904  144.4025 C   0  0  0  0  0  0  0  0  0  0  0  0
  -24.7782  -11.7429  145.4109 C   0  0  0  0  0  0  0  0  0  0  0  0
  -25.4376  -13.1146  146.5069 C   0  0  0  0  0  0  0  0  0  0  0  0
  -23.7681  -14.6419  143.7385 O   0  0  0  0  0  0  0  0  0  0  0  0
  -23.5109  -18.7716  144.9366 O   0  0  0  0  0  0  0  0  0  0  0  0
  -26.0170  -10.8662  145.0573 C   0  0  0  0  0  0  0  0  0  0  0  0
  -26.0454  -10.1109  144.0923 N   0  0  0  0  0  0  0  0  0  0  0  0
  -27.1176  -10.9651  145.8298 O   0  0  0  0  0  0  0  0  0  0  0  0
  3  4  1  0
  4  5  2  0
  5  9  1  0
  9 10  2  0
  4 11  1  0
 10 11  1  0
  5 12  1  0
  1 13  1  0
 10 14  1  0
 14 15  1  0
 14 16  2  0
  1  2  2  0
  2  3  1  0
  3  8  2  0
  8  7  1  0
  7  6  2  0
  6  1  1  0
M  END

$$$$
No_408-/dssg/home/sw_qyf/PocketFlow/Model-Generation-Results/5HT2A_7WC7_rec_A_10.pdb/2024-01-01-03-54-21/
     RDKit          3D

 23 25  0  0  0  0  0  0  0  0999 V2000
  -23.1746  -16.6014  144.8668 C   0  0  0  0  0  0  0  0  0  0  0  0
  -23.8963  -15.5346  144.7885 C   0  0  0  0  0  0  0  0  0  0  0  0
  -24.5755  -15.0383  145.9043 C   0  0  0  0  0  0  0  0  0  0  0  0
  -24.8345  -15.9108  146.9141 C   0  0  0  0  0  0  0  0  0  0  0  0
  -25.6264  -15.5522  148.0190 C   0  0  0  0  0  0  0  0  0  0  0  0
  -23.5067  -17.6297  145.8894 C   0  0  0  0  0  0  0  0  0  0  0  0
  -24.1166  -17.1261  147.0459 C   0  0  0  0  0  0  0  0  0  0  0  0
  -25.1417  -13.6530  145.9119 C   0  0  0  0  0  0  0  0  0  0  0  0
  -26.4790  -13.2815  145.7070 C   0  0  0  0  0  0  0  0  0  0  0  0
  -26.9234  -12.0196  145.7012 C   0  0  0  0  0  0  0  0  0  0  0  0
  -28.2494  -11.6527  145.3895 C   0  0  0  0  0  0  0  0  0  0  0  0
  -28.6019  -10.6691  144.4427 C   0  0  0  0  0  0  0  0  0  0  0  0
  -29.8929  -10.1122  144.3355 C   0  0  0  0  0  0  0  0  0  0  0  0
  -30.2183   -9.1169  143.5143 C   0  0  0  0  0  0  0  0  0  0  0  0
  -29.9696   -9.0818  142.5300 C   0  0  0  0  0  0  0  0  0  0  0  0
  -30.3451   -7.9867  141.5167 C   0  0  0  0  0  0  0  0  0  0  0  0
  -24.1463  -12.6127  146.2721 C   0  0  0  0  0  0  0  0  0  0  0  0
  -29.8057   -7.8160  140.2404 C   0  0  0  0  0  0  0  0  0  0  0  0
  -28.8020   -8.6700  139.8113 C   0  0  0  0  0  0  0  0  0  0  0  0
  -28.3955   -9.7550  140.6539 C   0  0  0  0  0  0  0  0  0  0  0  0
  -28.9547   -9.8910  141.9563 C   0  0  0  0  0  0  0  0  0  0  0  0
  -28.2602   -8.4341  138.5224 C   0  0  0  0  0  0  0  0  0  0  0  0
  -28.1695  -11.0036  143.0015 C   0  0  0  0  0  0  0  0  0  0  0  0
  4  5  1  0
  3  8  1  0
  8  9  1  0
  9 10  2  3
 10 11  1  0
 11 12  1  0
  8 17  1  0
 19 22  1  0
 15 16  1  0
 16 18  2  0
 18 19  1  0
 19 20  2  0
 20 21  1  0
 12 13  2  0
 13 14  1  0
 14 15  2  0
 15 21  1  0
 21 23  2  0
 23 12  1  0
  1  2  2  0
  2  3  1  0
  3  4  2  0
  4  7  1  0
  7  6  2  0
  6  1  1  0
M  END

$$$$
No_409-/dssg/home/sw_qyf/PocketFlow/Model-Generation-Results/5HT2A_7WC7_rec_A_10.pdb/2024-01-01-03-54-21/
     RDKit          3D

 10 10  0  0  0  0  0  0  0  0999 V2000
  -23.8998  -17.8495  145.5131 N   0  0  0  0  0  0  0  0  0  0  0  0
  -24.2949  -16.6890  145.5199 C   0  0  0  0  0  0  0  0  0  0  0  0
  -24.1189  -15.7572  144.5004 C   0  0  0  0  0  0  0  0  0  0  0  0
  -24.6672  -14.4875  144.6833 C   0  0  0  0  0  0  0  0  0  0  0  0
  -24.0491  -13.4065  144.1900 C   0  0  0  0  0  0  0  0  0  0  0  0
  -24.1449  -18.7482  146.5088 C   0  0  0  0  0  0  0  0  0  0  0  0
  -24.1252  -12.3396  145.2903 C   0  0  0  0  0  0  0  0  0  0  0  0
  -24.9335  -12.6135  146.3125 C   0  0  0  0  0  0  0  0  0  0  0  0
  -25.1786  -14.1064  146.2325 C   0  0  0  0  0  0  0  0  0  0  0  0
  -25.0307  -16.4194  146.5842 O   0  0  0  0  0  0  0  0  0  0  0  0
  1  2  1  0
  2  3  1  0
  3  4  1  0
  4  5  1  0
  1  6  1  0
  5  7  1  0
  7  8  1  0
  4  9  1  0
  8  9  1  0
  2 10  2  0
M  END

$$$$
No_410-/dssg/home/sw_qyf/PocketFlow/Model-Generation-Results/5HT2A_7WC7_rec_A_10.pdb/2024-01-01-03-54-21/
     RDKit          3D

 35 37  0  0  0  0  0  0  0  0999 V2000
  -24.1553  -17.8465  145.7021 C   0  0  0  0  0  0  0  0  0  0  0  0
  -24.6364  -17.2931  146.7091 C   0  0  0  0  0  0  0  0  0  0  0  0
  -24.0780  -17.2921  147.9389 C   0  0  0  0  0  0  0  0  0  0  0  0
  -22.7158  -17.6979  148.0096 C   0  0  0  0  0  0  0  0  0  0  0  0
  -22.1285  -18.1651  146.8427 C   0  0  0  0  0  0  0  0  0  0  0  0
  -22.8309  -18.1998  145.7035 C   0  0  0  0  0  0  0  0  0  0  0  0
  -26.1233  -16.8465  146.7056 C   0  0  0  0  0  0  0  0  0  0  0  0
  -26.4708  -15.8083  145.8406 C   0  0  0  0  0  0  0  0  0  0  0  0
  -26.4067  -14.4954  146.3924 C   0  0  0  0  0  0  0  0  0  0  0  0
  -26.8660  -13.3542  145.7818 C   0  0  0  0  0  0  0  0  0  0  0  0
  -27.9235  -12.6279  146.2258 C   0  0  0  0  0  0  0  0  0  0  0  0
  -28.3791  -11.4605  145.4482 C   0  0  0  0  0  0  0  0  0  0  0  0
  -27.6887  -11.1163  144.2803 C   0  0  0  0  0  0  0  0  0  0  0  0
  -26.6153  -11.8767  143.9085 C   0  0  0  0  0  0  0  0  0  0  0  0
  -26.2674  -12.9914  144.5936 C   0  0  0  0  0  0  0  0  0  0  0  0
  -28.1707   -9.8599  143.6027 C   0  0  0  0  0  0  0  0  0  0  0  0
  -29.5918   -9.6648  143.3820 C   0  0  0  0  0  0  0  0  0  0  0  0
  -30.0283   -8.5549  142.7378 C   0  0  0  0  0  0  0  0  0  0  0  0
  -31.4347   -8.2446  142.6147 C   0  0  0  0  0  0  0  0  0  0  0  0
  -25.2000  -13.7655  143.9374 C   0  0  0  0  0  0  0  0  0  0  0  0
  -25.3521  -14.2803  142.9629 O   0  0  0  0  0  0  0  0  0  0  0  0
  -23.8988  -13.6979  144.5095 N   0  0  0  0  0  0  0  0  0  0  0  0
  -31.8778   -7.3285  142.0740 O   0  0  0  0  0  0  0  0  0  0  0  0
  -32.2588   -9.1181  143.1533 O   0  0  0  0  0  0  0  0  0  0  0  0
  -29.1711   -7.6933  142.2177 O   0  0  0  0  0  0  0  0  0  0  0  0
  -23.4789  -12.9957  145.7249 C   0  0  0  0  0  0  0  0  0  0  0  0
  -24.1399  -13.1284  146.8559 C   0  0  0  0  0  0  0  0  0  0  0  0
  -25.4287  -13.7850  147.2583 C   0  0  0  0  0  0  0  0  0  0  0  0
  -28.6249  -12.9215  147.3467 O   0  0  0  0  0  0  0  0  0  0  0  0
  -29.8804  -12.4113  147.6221 C   0  0  0  0  0  0  0  0  0  0  0  0
  -30.6084  -13.1264  148.7284 C   0  0  0  0  0  0  0  0  0  0  0  0
  -30.2619  -14.4399  148.8455 C   0  0  0  0  0  0  0  0  0  0  0  0
  -29.4274  -15.1126  147.9447 C   0  0  0  0  0  0  0  0  0  0  0  0
  -31.6093  -12.4671  149.4693 C   0  0  0  0  0  0  0  0  0  0  0  0
  -32.2946  -13.0487  150.5073 C   0  0  0  0  0  0  0  0  0  0  0  0
  2  7  1  0
  7  8  1  0
  8  9  1  0
 13 16  1  0
 16 17  1  0
 17 18  1  0
 18 19  1  0
 15 20  1  0
 20 21  2  0
 20 22  1  0
 19 23  2  0
 19 24  1  0
 18 25  1  0
 22 26  1  0
 26 27  1  0
  9 28  1  0
 27 28  1  0
 11 29  1  0
 29 30  1  0
 30 31  1  0
 31 32  2  3
 32 33  1  0
 31 34  1  0
 34 35  2  0
  9 10  1  0
  1  2  2  0
  2  3  1  0
  3  4  2  0
  4  5  1  0
  5  6  2  0
  6  1  1  0
 10 11  2  0
 11 12  1  0
 12 13  2  0
 13 14  1  0
 14 15  2  0
 15 10  1  0
M  END

$$$$
No_411-/dssg/home/sw_qyf/PocketFlow/Model-Generation-Results/5HT2A_7WC7_rec_A_10.pdb/2024-01-01-03-54-21/
     RDKit          3D

 35 38  0  0  0  0  0  0  0  0999 V2000
  -23.1746  -16.6014  144.8668 C   0  0  0  0  0  0  0  0  0  0  0  0
  -23.7011  -17.0158  145.9774 C   0  0  0  0  0  0  0  0  0  0  0  0
  -24.7096  -16.6222  146.3577 C   0  0  0  0  0  0  0  0  0  0  0  0
  -25.2589  -16.9410  147.8027 C   0  0  0  0  0  0  0  0  0  0  0  0
  -26.4623  -16.4173  148.3314 C   0  0  0  0  0  0  0  0  0  0  0  0
  -23.7737  -15.4555  144.2384 C   0  0  0  0  0  0  0  0  0  0  0  0
  -24.8786  -14.8392  144.8305 C   0  0  0  0  0  0  0  0  0  0  0  0
  -25.3633  -15.3911  146.0026 C   0  0  0  0  0  0  0  0  0  0  0  0
  -27.1855  -15.4410  147.6073 C   0  0  0  0  0  0  0  0  0  0  0  0
  -26.5865  -14.8558  146.4698 C   0  0  0  0  0  0  0  0  0  0  0  0
  -27.3049  -13.7591  145.8651 C   0  0  0  0  0  0  0  0  0  0  0  0
  -28.3764  -13.1270  146.5099 C   0  0  0  0  0  0  0  0  0  0  0  0
  -28.9601  -11.9199  145.9714 C   0  0  0  0  0  0  0  0  0  0  0  0
  -30.0739  -11.2289  146.5585 C   0  0  0  0  0  0  0  0  0  0  0  0
  -30.4648  -11.7016  147.7945 N   0  0  0  0  0  0  0  0  0  0  0  0
  -29.9471  -12.8815  148.3146 C   0  0  0  0  0  0  0  0  0  0  0  0
  -28.9016  -13.5203  147.7220 N   0  0  0  0  0  0  0  0  0  0  0  0
  -28.4551  -11.3604  144.7412 C   0  0  0  0  0  0  0  0  0  0  0  0
  -27.8771  -10.4718  144.4187 C   0  0  0  0  0  0  0  0  0  0  0  0
  -27.5010   -9.8730  143.1417 C   0  0  0  0  0  0  0  0  0  0  0  0
  -27.8278  -10.6575  142.0374 C   0  0  0  0  0  0  0  0  0  0  0  0
  -28.1839  -10.1121  140.8725 C   0  0  0  0  0  0  0  0  0  0  0  0
  -27.7228   -9.2910  140.3738 C   0  0  0  0  0  0  0  0  0  0  0  0
  -28.1501   -8.7775  139.0065 C   0  0  0  0  0  0  0  0  0  0  0  0
  -24.6768  -17.9689  148.4719 O   0  0  0  0  0  0  0  0  0  0  0  0
  -28.9623   -7.5812  138.9497 C   0  0  0  0  0  0  0  0  0  0  0  0
  -30.0747   -7.6668  139.8946 C   0  0  0  0  0  0  0  0  0  0  0  0
  -29.8683   -8.1853  141.1712 C   0  0  0  0  0  0  0  0  0  0  0  0
  -30.6300   -7.5429  142.3309 C   0  0  0  0  0  0  0  0  0  0  0  0
  -31.1813   -8.3899  143.3519 C   0  0  0  0  0  0  0  0  0  0  0  0
  -31.3564   -8.0264  144.5109 O   0  0  0  0  0  0  0  0  0  0  0  0
  -31.0737   -9.6244  142.9663 O   0  0  0  0  0  0  0  0  0  0  0  0
  -23.0401  -18.2101  146.4563 O   0  0  0  0  0  0  0  0  0  0  0  0
  -23.4162  -18.3094  147.8816 C   0  0  0  0  0  0  0  0  0  0  0  0
  -30.4389  -13.2812  149.4281 O   0  0  0  0  0  0  0  0  0  0  0  0
 10 11  1  0
 12 13  1  0
 13 14  1  0
 15 16  1  0
 12 17  1  0
 16 17  1  0
 13 18  1  0
 18 19  2  3
 19 20  1  0
 20 21  2  3
 21 22  1  0
 22 23  2  3
 23 24  1  0
  4 25  1  0
 24 26  1  0
 26 27  1  0
 27 28  1  0
 28 29  1  0
 29 30  1  0
 30 31  2  0
 30 32  1  0
  2 33  1  0
 25 34  1  0
 33 34  1  0
 16 35  2  0
 11 12  1  0
 15 14  1  0
  1  2  2  0
  2  3  1  0
  8  7  1  0
  7  6  2  0
  6  1  1  0
  3  4  2  0
  4  5  1  0
  5  9  2  0
  9 10  1  0
 10  8  2  0
  8  3  1  0
M  END

$$$$
No_412-/dssg/home/sw_qyf/PocketFlow/Model-Generation-Results/5HT2A_7WC7_rec_A_10.pdb/2024-01-01-03-54-21/
     RDKit          3D

 11 11  0  0  0  0  0  0  0  0999 V2000
  -24.1553  -17.8465  145.7021 C   0  0  0  0  0  0  0  0  0  0  0  0
  -24.2856  -16.6364  145.3494 C   0  0  0  0  0  0  0  0  0  0  0  0
  -24.7211  -15.5955  146.2115 C   0  0  0  0  0  0  0  0  0  0  0  0
  -25.1322  -16.0374  147.5372 C   0  0  0  0  0  0  0  0  0  0  0  0
  -24.5163  -18.2968  146.9928 C   0  0  0  0  0  0  0  0  0  0  0  0
  -24.9534  -17.3074  147.9886 C   0  0  0  0  0  0  0  0  0  0  0  0
  -24.8711  -14.1852  145.8109 C   0  0  0  0  0  0  0  0  0  0  0  0
  -25.5241  -13.2608  146.5330 C   0  0  0  0  0  0  0  0  0  0  0  0
  -25.4755  -11.9231  146.2011 C   0  0  0  0  0  0  0  0  0  0  0  0
  -24.1557  -13.7534  144.6751 C   0  0  0  0  0  0  0  0  0  0  0  0
  -23.3973  -14.6067  143.8438 C   0  0  0  0  0  0  0  0  0  0  0  0
  3  7  1  0
  7  8  1  0
  8  9  2  0
  7 10  1  0
 10 11  1  0
  1  2  2  0
  2  3  1  0
  3  4  2  0
  4  6  1  0
  6  5  2  0
  5  1  1  0
M  END

$$$$
No_413-/dssg/home/sw_qyf/PocketFlow/Model-Generation-Results/5HT2A_7WC7_rec_A_10.pdb/2024-01-01-03-54-21/
     RDKit          3D

 35 38  0  0  0  0  0  0  0  0999 V2000
  -24.1553  -17.8465  145.7021 C   0  0  0  0  0  0  0  0  0  0  0  0
  -24.6364  -17.2931  146.7091 C   0  0  0  0  0  0  0  0  0  0  0  0
  -25.8131  -16.4503  146.6208 C   0  0  0  0  0  0  0  0  0  0  0  0
  -26.1145  -15.7676  145.5430 C   0  0  0  0  0  0  0  0  0  0  0  0
  -25.5068  -14.9215  145.2239 C   0  0  0  0  0  0  0  0  0  0  0  0
  -25.9388  -13.8161  144.2740 C   0  0  0  0  0  0  0  0  0  0  0  0
  -26.5904  -12.9857  144.3247 C   0  0  0  0  0  0  0  0  0  0  0  0
  -26.5956  -12.2936  145.6313 C   0  0  0  0  0  0  0  0  0  0  0  0
  -25.4979  -12.4247  146.4798 C   0  0  0  0  0  0  0  0  0  0  0  0
  -24.7389  -13.5284  146.8445 C   0  0  0  0  0  0  0  0  0  0  0  0
  -24.7050  -14.6747  146.1460 C   0  0  0  0  0  0  0  0  0  0  0  0
  -27.3149  -12.3074  143.2164 C   0  0  0  0  0  0  0  0  0  0  0  0
  -22.8860  -18.5473  145.7763 C   0  0  0  0  0  0  0  0  0  0  0  0
  -22.6545  -18.9457  146.8392 N   0  0  0  0  0  0  0  0  0  0  0  0
  -23.8953  -17.8304  147.9176 C   0  0  0  0  0  0  0  0  0  0  0  0
  -22.9130  -18.4620  148.0153 N   0  0  0  0  0  0  0  0  0  0  0  0
  -24.5395  -17.1746  149.3170 C   0  0  0  0  0  0  0  0  0  0  0  0
  -28.2231  -11.2414  143.4513 C   0  0  0  0  0  0  0  0  0  0  0  0
  -29.0448  -10.7510  142.5004 C   0  0  0  0  0  0  0  0  0  0  0  0
  -30.0260   -9.7168  142.9020 C   0  0  0  0  0  0  0  0  0  0  0  0
  -30.7004   -8.9474  141.9049 C   0  0  0  0  0  0  0  0  0  0  0  0
  -29.8058   -8.1761  141.0540 C   0  0  0  0  0  0  0  0  0  0  0  0
  -28.8918   -8.9546  140.2341 C   0  0  0  0  0  0  0  0  0  0  0  0
  -28.3660   -8.3449  139.0916 C   0  0  0  0  0  0  0  0  0  0  0  0
  -27.5629   -9.1960  138.3664 C   0  0  0  0  0  0  0  0  0  0  0  0
  -27.6020  -10.5219  138.9024 C   0  0  0  0  0  0  0  0  0  0  0  0
  -28.4381  -10.3292  140.2109 C   0  0  0  0  0  0  0  0  0  0  0  0
  -28.5206  -11.1393  141.4269 C   0  0  0  0  0  0  0  0  0  0  0  0
  -30.7569  -10.0638  143.9879 O   0  0  0  0  0  0  0  0  0  0  0  0
  -23.7525  -17.1407  150.3700 N   0  0  0  0  0  0  0  0  0  0  0  0
  -25.7156  -16.7843  149.3308 O   0  0  0  0  0  0  0  0  0  0  0  0
  -27.1427  -11.7553  138.6367 C   0  0  0  0  0  0  0  0  0  0  0  0
  -26.7474  -12.5602  139.6062 O   0  0  0  0  0  0  0  0  0  0  0  0
  -27.2637  -12.2125  137.5088 O   0  0  0  0  0  0  0  0  0  0  0  0
  -31.5376   -7.9793  142.6694 O   0  0  0  0  0  0  0  0  0  0  0  0
  2  3  1  0
  3  4  1  0
  4  5  2  3
  5  6  1  0
  6  7  1  0
  7  8  1  0
  8  9  1  0
  9 10  1  0
  5 11  1  0
 10 11  2  0
  7 12  1  0
 15 17  1  0
 12 18  2  3
 18 19  1  0
 19 20  1  0
 20 21  1  0
 21 22  1  0
 22 23  1  0
 23 24  2  0
 24 25  1  0
 25 26  2  0
 23 27  1  0
 26 27  1  0
 19 28  1  0
 27 28  1  0
 20 29  1  0
 17 30  1  0
 17 31  2  0
 26 32  1  0
 32 33  1  0
 32 34  2  0
 21 35  1  0
  1  2  2  0
  2 15  1  0
 15 16  2  0
 16 14  1  0
 14 13  2  0
 13  1  1  0
M  END

$$$$
No_414-/dssg/home/sw_qyf/PocketFlow/Model-Generation-Results/5HT2A_7WC7_rec_A_10.pdb/2024-01-01-03-54-21/
     RDKit          3D

 15 16  0  0  0  0  0  0  0  0999 V2000
  -23.1746  -16.6014  144.8668 C   0  0  0  0  0  0  0  0  0  0  0  0
  -24.0189  -16.0564  145.8445 C   0  0  0  0  0  0  0  0  0  0  0  0
  -24.4145  -16.8299  146.9062 C   0  0  0  0  0  0  0  0  0  0  0  0
  -23.9612  -18.1384  147.0126 C   0  0  0  0  0  0  0  0  0  0  0  0
  -23.1429  -18.6221  146.0418 C   0  0  0  0  0  0  0  0  0  0  0  0
  -22.8095  -17.8231  145.0610 N   0  0  0  0  0  0  0  0  0  0  0  0
  -24.5719  -14.6427  145.6756 C   0  0  0  0  0  0  0  0  0  0  0  0
  -23.9650  -13.6847  144.9294 C   0  0  0  0  0  0  0  0  0  0  0  0
  -23.7564  -12.4281  145.4333 C   0  0  0  0  0  0  0  0  0  0  0  0
  -24.7221  -11.9107  146.3961 C   0  0  0  0  0  0  0  0  0  0  0  0
  -25.6275  -12.8916  146.9738 C   0  0  0  0  0  0  0  0  0  0  0  0
  -25.4533  -14.2477  146.7751 C   0  0  0  0  0  0  0  0  0  0  0  0
  -22.5740  -11.2051  144.6152 Br  0  0  0  0  0  0  0  0  0  0  0  0
  -25.1680  -16.3347  147.9279 F   0  0  0  0  0  0  0  0  0  0  0  0
  -22.8457  -15.9851  143.8981 O   0  0  0  0  0  0  0  0  0  0  0  0
  1  2  1  0
  3  4  1  0
  1  6  1  0
  2  7  1  0
  9 13  1  0
  3 14  1  0
  1 15  2  0
  2  3  1  0
  4  5  1  0
  5  6  1  0
  7  8  2  0
  8  9  1  0
  9 10  2  0
 10 11  1  0
 11 12  2  0
 12  7  1  0
M  END

$$$$
No_415-/dssg/home/sw_qyf/PocketFlow/Model-Generation-Results/5HT2A_7WC7_rec_A_10.pdb/2024-01-01-03-54-21/
     RDKit          3D

 31 33  0  0  0  0  0  0  0  0999 V2000
  -24.1553  -17.8465  145.7021 C   0  0  0  0  0  0  0  0  0  0  0  0
  -24.2856  -16.6364  145.3494 C   0  0  0  0  0  0  0  0  0  0  0  0
  -25.0033  -15.6772  146.0737 C   0  0  0  0  0  0  0  0  0  0  0  0
  -25.6964  -16.1810  147.2049 C   0  0  0  0  0  0  0  0  0  0  0  0
  -24.8143  -18.3454  146.8324 C   0  0  0  0  0  0  0  0  0  0  0  0
  -25.5292  -17.4614  147.6373 C   0  0  0  0  0  0  0  0  0  0  0  0
  -23.5978  -16.0422  144.1195 C   0  0  0  0  0  0  0  0  0  0  0  0
  -22.4622  -16.1644  144.1179 O   0  0  0  0  0  0  0  0  0  0  0  0
  -24.3747  -15.5512  143.2575 O   0  0  0  0  0  0  0  0  0  0  0  0
  -25.1424  -14.2315  145.7810 C   0  0  0  0  0  0  0  0  0  0  0  0
  -24.1894  -13.3998  146.3383 C   0  0  0  0  0  0  0  0  0  0  0  0
  -24.0784  -12.0511  145.9053 C   0  0  0  0  0  0  0  0  0  0  0  0
  -25.2296  -11.4719  145.2432 C   0  0  0  0  0  0  0  0  0  0  0  0
  -26.2796  -12.3263  144.9121 C   0  0  0  0  0  0  0  0  0  0  0  0
  -26.2540  -13.6883  145.1720 C   0  0  0  0  0  0  0  0  0  0  0  0
  -27.4412  -11.6603  144.2226 C   0  0  0  0  0  0  0  0  0  0  0  0
  -27.5556  -11.5419  142.9064 C   0  0  0  0  0  0  0  0  0  0  0  0
  -28.5186  -10.8031  142.3162 C   0  0  0  0  0  0  0  0  0  0  0  0
  -29.5316  -10.1584  143.1725 C   0  0  0  0  0  0  0  0  0  0  0  0
  -29.3947  -10.3315  144.5629 C   0  0  0  0  0  0  0  0  0  0  0  0
  -28.3842  -11.0889  145.1201 C   0  0  0  0  0  0  0  0  0  0  0  0
  -30.6612   -9.4123  142.6249 C   0  0  0  0  0  0  0  0  0  0  0  0
  -30.4298   -8.6455  141.7173 O   0  0  0  0  0  0  0  0  0  0  0  0
  -31.8472   -9.5661  143.0680 O   0  0  0  0  0  0  0  0  0  0  0  0
  -29.5893   -7.5637  141.9479 C   0  0  0  0  0  0  0  0  0  0  0  0
  -29.2511   -6.7198  140.7967 C   0  0  0  0  0  0  0  0  0  0  0  0
  -29.4213   -5.4538  140.9937 F   0  0  0  0  0  0  0  0  0  0  0  0
  -29.0974   -7.2667  139.6041 C   0  0  0  0  0  0  0  0  0  0  0  0
  -27.8548   -7.2794  139.0021 C   0  0  0  0  0  0  0  0  0  0  0  0
  -27.7775   -8.0220  137.6993 C   0  0  0  0  0  0  0  0  0  0  0  0
  -28.9668   -8.7995  137.3220 C   0  0  0  0  0  0  0  0  0  0  0  0
  2  7  1  0
  7  8  2  0
  7  9  1  0
  3 10  1  0
 14 16  1  0
 19 22  1  0
 22 23  1  0
 22 24  2  0
 23 25  1  0
 25 26  1  0
 26 27  1  0
 26 28  1  0
 28 29  2  3
 29 30  1  0
 30 31  2  0
  1  2  2  0
  2  3  1  0
  3  4  2  0
  4  6  1  0
  6  5  2  0
  5  1  1  0
 10 11  2  0
 11 12  1  0
 12 13  2  0
 13 14  1  0
 14 15  2  0
 15 10  1  0
 16 17  2  0
 17 18  1  0
 18 19  2  0
 19 20  1  0
 20 21  2  0
 21 16  1  0
M  END

$$$$
No_416-/dssg/home/sw_qyf/PocketFlow/Model-Generation-Results/5HT2A_7WC7_rec_A_10.pdb/2024-01-01-03-54-21/
     RDKit          3D

 35 38  0  0  0  0  0  0  0  0999 V2000
  -24.1553  -17.8465  145.7021 C   0  0  0  0  0  0  0  0  0  0  0  0
  -24.6364  -17.2931  146.7091 C   0  0  0  0  0  0  0  0  0  0  0  0
  -25.8608  -16.5592  146.5934 C   0  0  0  0  0  0  0  0  0  0  0  0
  -25.9088  -15.1597  146.9911 C   0  0  0  0  0  0  0  0  0  0  0  0
  -26.8304  -14.2303  146.5024 C   0  0  0  0  0  0  0  0  0  0  0  0
  -26.4464  -12.9888  146.0628 C   0  0  0  0  0  0  0  0  0  0  0  0
  -27.3807  -12.0984  145.4334 C   0  0  0  0  0  0  0  0  0  0  0  0
  -27.0874  -11.3406  144.3490 C   0  0  0  0  0  0  0  0  0  0  0  0
  -28.1185  -10.6510  143.6469 C   0  0  0  0  0  0  0  0  0  0  0  0
  -29.3049  -10.2128  144.3433 C   0  0  0  0  0  0  0  0  0  0  0  0
  -29.5492  -11.0031  145.5914 C   0  0  0  0  0  0  0  0  0  0  0  0
  -28.6016  -11.7965  146.1885 C   0  0  0  0  0  0  0  0  0  0  0  0
  -30.3159   -9.4261  143.7626 C   0  0  0  0  0  0  0  0  0  0  0  0
  -30.4956   -9.4294  142.4109 C   0  0  0  0  0  0  0  0  0  0  0  0
  -31.3606   -8.4966  141.8746 C   0  0  0  0  0  0  0  0  0  0  0  0
  -25.0548  -12.6670  146.0366 C   0  0  0  0  0  0  0  0  0  0  0  0
  -24.0360  -13.5398  146.5002 C   0  0  0  0  0  0  0  0  0  0  0  0
  -24.5002  -14.8754  146.9140 C   0  0  0  0  0  0  0  0  0  0  0  0
  -24.5326  -18.1998  148.0392 C   0  0  0  0  0  0  0  0  0  0  0  0
  -31.7179   -7.4658  142.7886 C   0  0  0  0  0  0  0  0  0  0  0  0
  -31.2170   -7.3044  144.0377 C   0  0  0  0  0  0  0  0  0  0  0  0
  -30.4911   -8.3574  144.6049 C   0  0  0  0  0  0  0  0  0  0  0  0
  -23.5711  -16.9935  144.6445 C   0  0  0  0  0  0  0  0  0  0  0  0
  -23.1274  -15.8277  145.1165 O   0  0  0  0  0  0  0  0  0  0  0  0
  -30.5275  -10.5744  141.8893 F   0  0  0  0  0  0  0  0  0  0  0  0
  -23.1877  -18.9821  146.1013 C   0  0  0  0  0  0  0  0  0  0  0  0
  -23.2456  -18.6281  147.9174 C   0  0  0  0  0  0  0  0  0  0  0  0
  -27.0073  -17.3258  147.4635 C   0  0  0  0  0  0  0  0  0  0  0  0
  -28.3007  -16.4824  147.5241 C   0  0  0  0  0  0  0  0  0  0  0  0
  -28.8691  -16.4035  148.8566 C   0  0  0  0  0  0  0  0  0  0  0  0
  -29.9749  -15.5408  149.0441 C   0  0  0  0  0  0  0  0  0  0  0  0
  -30.7958  -15.4335  150.1716 C   0  0  0  0  0  0  0  0  0  0  0  0
  -31.7574  -14.4725  150.4070 C   0  0  0  0  0  0  0  0  0  0  0  0
  -32.5122  -14.3689  151.5836 C   0  0  0  0  0  0  0  0  0  0  0  0
  -33.3034  -13.2597  151.8632 C   0  0  0  0  0  0  0  0  0  0  0  0
  1  2  1  0
  2  3  1  0
  3  4  1  0
  6  7  1  0
 10 13  1  0
  2 19  1  0
  1 23  1  0
 23 24  1  0
 14 25  1  0
  1 26  1  0
 19 27  1  0
 26 27  1  0
  3 28  1  0
 28 29  1  0
 29 30  2  3
 30 31  1  0
 31 32  2  3
 32 33  1  0
 33 34  2  3
 34 35  1  0
  7  8  2  0
  8  9  1  0
  9 10  2  0
 10 11  1  0
 11 12  2  0
 12  7  1  0
 13 14  2  0
 14 15  1  0
 15 20  2  0
 20 21  1  0
 21 22  2  0
 22 13  1  0
  4  5  2  0
  5  6  1  0
  6 16  2  0
 16 17  1  0
 17 18  2  0
 18  4  1  0
M  END

$$$$
No_417-/dssg/home/sw_qyf/PocketFlow/Model-Generation-Results/5HT2A_7WC7_rec_A_10.pdb/2024-01-01-03-54-21/
     RDKit          3D

 19 19  0  0  0  0  0  0  0  0999 V2000
  -23.1746  -16.6014  144.8668 C   0  0  0  0  0  0  0  0  0  0  0  0
  -23.7011  -17.0158  145.9774 C   0  0  0  0  0  0  0  0  0  0  0  0
  -24.2134  -16.0722  146.8877 C   0  0  0  0  0  0  0  0  0  0  0  0
  -23.3742  -15.2706  144.3922 C   0  0  0  0  0  0  0  0  0  0  0  0
  -24.0638  -14.3065  145.2723 C   0  0  0  0  0  0  0  0  0  0  0  0
  -24.2651  -12.9175  144.8726 C   0  0  0  0  0  0  0  0  0  0  0  0
  -24.4347  -14.7166  146.5555 C   0  0  0  0  0  0  0  0  0  0  0  0
  -24.3633  -12.0194  146.0303 C   0  0  0  0  0  0  0  0  0  0  0  0
  -23.5455  -18.4438  146.4367 C   0  0  0  0  0  0  0  0  0  0  0  0
  -22.6018  -18.8623  146.8742 O   0  0  0  0  0  0  0  0  0  0  0  0
  -24.6602  -19.1558  146.3284 O   0  0  0  0  0  0  0  0  0  0  0  0
  -25.6255  -11.4372  146.0506 C   0  0  0  0  0  0  0  0  0  0  0  0
  -26.7958  -12.2224  145.6476 C   0  0  0  0  0  0  0  0  0  0  0  0
  -27.3742  -11.8143  144.4490 C   0  0  0  0  0  0  0  0  0  0  0  0
  -26.9951  -12.3821  143.2031 C   0  0  0  0  0  0  0  0  0  0  0  0
  -27.8809  -12.3365  142.1611 C   0  0  0  0  0  0  0  0  0  0  0  0
  -27.5099  -12.9757  140.8777 C   0  0  0  0  0  0  0  0  0  0  0  0
  -27.0247  -12.1626  139.9211 C   0  0  0  0  0  0  0  0  0  0  0  0
  -27.9044  -11.8901  138.7648 C   0  0  0  0  0  0  0  0  0  0  0  0
  5  6  1  0
  6  8  1  0
  2  9  1  0
  9 10  2  0
  9 11  1  0
  8 12  1  0
 12 13  1  0
 13 14  2  3
 14 15  1  0
 15 16  2  3
 16 17  1  0
 17 18  1  0
 18 19  1  0
  1  2  2  0
  2  3  1  0
  3  7  2  0
  7  5  1  0
  5  4  2  0
  4  1  1  0
M  END

$$$$
No_418-/dssg/home/sw_qyf/PocketFlow/Model-Generation-Results/5HT2A_7WC7_rec_A_10.pdb/2024-01-01-03-54-21/
     RDKit          3D

 16 16  0  0  0  0  0  0  0  0999 V2000
  -24.1553  -17.8465  145.7021 C   0  0  0  0  0  0  0  0  0  0  0  0
  -24.2856  -16.6364  145.3494 C   0  0  0  0  0  0  0  0  0  0  0  0
  -25.0033  -15.6772  146.0737 C   0  0  0  0  0  0  0  0  0  0  0  0
  -25.6964  -16.1810  147.2049 C   0  0  0  0  0  0  0  0  0  0  0  0
  -24.8143  -18.3454  146.8324 C   0  0  0  0  0  0  0  0  0  0  0  0
  -25.5292  -17.4614  147.6373 C   0  0  0  0  0  0  0  0  0  0  0  0
  -23.5869  -16.0353  144.1321 C   0  0  0  0  0  0  0  0  0  0  0  0
  -23.2173  -14.5024  144.3044 Br  0  0  0  0  0  0  0  0  0  0  0  0
  -25.2326  -14.2373  145.8120 C   0  0  0  0  0  0  0  0  0  0  0  0
  -25.7015  -13.4908  146.4261 C   0  0  0  0  0  0  0  0  0  0  0  0
  -25.8591  -12.0361  146.1557 C   0  0  0  0  0  0  0  0  0  0  0  0
  -25.2049  -11.5350  145.0648 C   0  0  0  0  0  0  0  0  0  0  0  0
  -24.4164  -12.4564  144.4650 N   0  0  0  0  0  0  0  0  0  0  0  0
  -24.3719  -13.4630  144.3234 C   0  0  0  0  0  0  0  0  0  0  0  0
  -25.5338  -13.8407  143.2731 C   0  0  0  0  0  0  0  0  0  0  0  0
  -23.6862  -12.7514  143.7834 F   0  0  0  0  0  0  0  0  0  0  0  0
  2  7  1  0
  7  8  1  0
  3  9  1  0
  9 10  1  0
 10 11  2  3
 11 12  1  0
 12 13  2  3
 13 14  1  0
 14 15  1  0
 14 16  1  0
  1  2  2  0
  2  3  1  0
  3  4  2  0
  4  6  1  0
  6  5  2  0
  5  1  1  0
M  END

$$$$
No_419-/dssg/home/sw_qyf/PocketFlow/Model-Generation-Results/5HT2A_7WC7_rec_A_10.pdb/2024-01-01-03-54-21/
     RDKit          3D

 19 20  0  0  0  0  0  0  0  0999 V2000
  -23.1746  -16.6014  144.8668 C   0  0  0  0  0  0  0  0  0  0  0  0
  -24.0189  -16.0564  145.8445 C   0  0  0  0  0  0  0  0  0  0  0  0
  -24.4850  -14.7380  145.6359 C   0  0  0  0  0  0  0  0  0  0  0  0
  -25.3334  -14.0797  146.6105 C   0  0  0  0  0  0  0  0  0  0  0  0
  -25.7120  -12.7594  146.4431 C   0  0  0  0  0  0  0  0  0  0  0  0
  -25.3190  -11.9841  145.3047 C   0  0  0  0  0  0  0  0  0  0  0  0
  -24.3451  -12.6067  144.4930 C   0  0  0  0  0  0  0  0  0  0  0  0
  -23.9468  -13.9401  144.7201 C   0  0  0  0  0  0  0  0  0  0  0  0
  -25.0470  -16.9291  146.4497 C   0  0  0  0  0  0  0  0  0  0  0  0
  -24.5958  -17.4063  147.6088 C   0  0  0  0  0  0  0  0  0  0  0  0
  -23.9342  -16.5263  148.5489 C   0  0  0  0  0  0  0  0  0  0  0  0
  -25.7209  -10.6222  145.1127 C   0  0  0  0  0  0  0  0  0  0  0  0
  -26.3078  -10.3517  143.8286 C   0  0  0  0  0  0  0  0  0  0  0  0
  -27.7404  -10.0159  143.8676 C   0  0  0  0  0  0  0  0  0  0  0  0
  -28.5296  -10.2738  144.8308 C   0  0  0  0  0  0  0  0  0  0  0  0
  -29.9466  -10.0330  144.7571 C   0  0  0  0  0  0  0  0  0  0  0  0
  -30.5000   -9.3498  143.6915 C   0  0  0  0  0  0  0  0  0  0  0  0
  -29.6483   -8.9656  142.6729 C   0  0  0  0  0  0  0  0  0  0  0  0
  -28.2628   -9.3268  142.7197 C   0  0  0  0  0  0  0  0  0  0  0  0
  1  2  1  0
  2  9  1  0
  9 10  1  0
 10 11  1  0
  6 12  1  0
 12 13  1  0
 13 14  1  0
  2  3  1  0
 14 15  2  0
 15 16  1  0
 16 17  2  0
 17 18  1  0
 18 19  2  0
 19 14  1  0
  3  4  2  0
  4  5  1  0
  5  6  2  0
  6  7  1  0
  7  8  2  0
  8  3  1  0
M  END

$$$$
No_420-/dssg/home/sw_qyf/PocketFlow/Model-Generation-Results/5HT2A_7WC7_rec_A_10.pdb/2024-01-01-03-54-21/
     RDKit          3D

 21 21  0  0  0  0  0  0  0  0999 V2000
  -23.1746  -16.6014  144.8668 C   0  0  0  0  0  0  0  0  0  0  0  0
  -24.0189  -16.0564  145.8445 C   0  0  0  0  0  0  0  0  0  0  0  0
  -24.4850  -14.7380  145.6359 C   0  0  0  0  0  0  0  0  0  0  0  0
  -25.2717  -14.0560  146.5949 C   0  0  0  0  0  0  0  0  0  0  0  0
  -25.8717  -14.9514  147.6177 C   0  0  0  0  0  0  0  0  0  0  0  0
  -24.7274  -16.8795  146.8184 C   0  0  0  0  0  0  0  0  0  0  0  0
  -25.3314  -16.3661  147.5718 C   0  0  0  0  0  0  0  0  0  0  0  0
  -23.8444  -13.8335  144.6588 C   0  0  0  0  0  0  0  0  0  0  0  0
  -24.3877  -12.9905  144.2614 O   0  0  0  0  0  0  0  0  0  0  0  0
  -24.2856  -18.2724  146.8805 C   0  0  0  0  0  0  0  0  0  0  0  0
  -23.8409  -18.9573  147.7196 O   0  0  0  0  0  0  0  0  0  0  0  0
  -24.4458  -19.0274  145.7014 N   0  0  0  0  0  0  0  0  0  0  0  0
  -22.6539  -14.2032  144.1746 O   0  0  0  0  0  0  0  0  0  0  0  0
  -25.7660  -12.3062  146.6141 Br  0  0  0  0  0  0  0  0  0  0  0  0
  -26.0182  -17.0482  148.6585 O   0  0  0  0  0  0  0  0  0  0  0  0
  -26.3133  -16.3759  149.8829 C   0  0  0  0  0  0  0  0  0  0  0  0
  -25.9501  -17.4437  151.0410 C   0  0  0  0  0  0  0  0  0  0  0  0
  -26.9652  -17.8892  151.6012 F   0  0  0  0  0  0  0  0  0  0  0  0
  -25.0948  -16.7371  151.8971 F   0  0  0  0  0  0  0  0  0  0  0  0
  -25.1217  -18.4301  150.5329 F   0  0  0  0  0  0  0  0  0  0  0  0
  -24.1418  -20.3993  145.6849 C   0  0  0  0  0  0  0  0  0  0  0  0
  1  2  1  0
  3  8  1  0
  8  9  1  0
  6 10  1  0
 10 11  2  0
 10 12  1  0
  8 13  2  0
  4 14  1  0
  7 15  1  0
 15 16  1  0
 16 17  1  0
 17 18  1  0
 17 19  1  0
 17 20  1  0
 12 21  1  0
  2  3  2  0
  3  4  1  0
  4  5  2  0
  5  7  1  0
  7  6  2  0
  6  2  1  0
M  END

$$$$
No_421-/dssg/home/sw_qyf/PocketFlow/Model-Generation-Results/5HT2A_7WC7_rec_A_10.pdb/2024-01-01-03-54-21/
     RDKit          3D

 35 37  0  0  0  0  0  0  0  0999 V2000
  -24.1553  -17.8465  145.7021 C   0  0  0  0  0  0  0  0  0  0  0  0
  -24.6364  -17.2931  146.7091 C   0  0  0  0  0  0  0  0  0  0  0  0
  -24.0780  -17.2921  147.9389 C   0  0  0  0  0  0  0  0  0  0  0  0
  -24.6761  -16.7363  149.1478 C   0  0  0  0  0  0  0  0  0  0  0  0
  -25.9986  -16.2638  148.9932 C   0  0  0  0  0  0  0  0  0  0  0  0
  -26.6271  -16.3412  147.7729 C   0  0  0  0  0  0  0  0  0  0  0  0
  -25.9735  -16.9165  146.6820 C   0  0  0  0  0  0  0  0  0  0  0  0
  -23.8274  -16.9402  144.6508 N   0  0  0  0  0  0  0  0  0  0  0  0
  -28.0724  -15.9244  147.7069 C   0  0  0  0  0  0  0  0  0  0  0  0
  -29.0144  -15.9848  148.6659 C   0  0  0  0  0  0  0  0  0  0  0  0
  -28.5118  -15.4304  146.4557 C   0  0  0  0  0  0  0  0  0  0  0  0
  -23.4291  -18.9366  145.6424 O   0  0  0  0  0  0  0  0  0  0  0  0
  -30.1507  -15.2155  148.7696 C   0  0  0  0  0  0  0  0  0  0  0  0
  -30.0811  -13.9666  148.2540 C   0  0  0  0  0  0  0  0  0  0  0  0
  -31.1275  -12.9554  148.6823 C   0  0  0  0  0  0  0  0  0  0  0  0
  -31.0321  -11.7752  147.9442 N   0  0  0  0  0  0  0  0  0  0  0  0
  -32.1676  -13.1459  149.4248 N   0  0  0  0  0  0  0  0  0  0  0  0
  -27.8218  -14.3628  146.1369 C   0  0  0  0  0  0  0  0  0  0  0  0
  -28.2398  -13.2433  145.3350 C   0  0  0  0  0  0  0  0  0  0  0  0
  -27.5171  -12.1554  144.8636 C   0  0  0  0  0  0  0  0  0  0  0  0
  -26.1301  -12.1143  145.2401 C   0  0  0  0  0  0  0  0  0  0  0  0
  -25.5840  -13.1693  146.0502 C   0  0  0  0  0  0  0  0  0  0  0  0
  -26.3641  -14.1578  146.4455 C   0  0  0  0  0  0  0  0  0  0  0  0
  -24.1352  -13.0185  146.4061 C   0  0  0  0  0  0  0  0  0  0  0  0
  -28.1292  -11.0560  144.1674 C   0  0  0  0  0  0  0  0  0  0  0  0
  -28.6362  -10.0158  144.7838 C   0  0  0  0  0  0  0  0  0  0  0  0
  -28.1789  -11.1263  142.7641 C   0  0  0  0  0  0  0  0  0  0  0  0
  -28.9473  -10.2724  141.9816 C   0  0  0  0  0  0  0  0  0  0  0  0
  -29.5733   -9.1658  142.6462 C   0  0  0  0  0  0  0  0  0  0  0  0
  -29.4798   -9.0735  144.0895 C   0  0  0  0  0  0  0  0  0  0  0  0
  -30.3934   -8.2441  141.9314 C   0  0  0  0  0  0  0  0  0  0  0  0
  -30.0946   -8.1689  140.7496 F   0  0  0  0  0  0  0  0  0  0  0  0
  -30.2817   -6.9854  142.5489 F   0  0  0  0  0  0  0  0  0  0  0  0
  -31.7853   -8.6780  141.9619 F   0  0  0  0  0  0  0  0  0  0  0  0
  -23.6958  -12.0056  146.9439 N   0  0  0  0  0  0  0  0  0  0  0  0
  1  2  1  0
  1  8  1  0
  6  9  1  0
  9 10  1  0
  9 11  1  0
  1 12  2  0
 10 13  1  0
 13 14  2  3
 14 15  1  0
 15 16  2  0
 15 17  1  0
 11 18  1  0
 22 24  1  0
 20 25  1  0
 29 31  1  0
 31 32  1  0
 31 33  1  0
 31 34  1  0
 24 35  1  0
 18 19  2  0
 19 20  1  0
 20 21  2  0
 21 22  1  0
 22 23  2  0
 23 18  1  0
  2  3  2  0
  3  4  1  0
  4  5  2  0
  5  6  1  0
  6  7  2  0
  7  2  1  0
 25 26  2  0
 26 30  1  0
 30 29  2  0
 29 28  1  0
 28 27  2  0
 27 25  1  0
M  END

$$$$
No_422-/dssg/home/sw_qyf/PocketFlow/Model-Generation-Results/5HT2A_7WC7_rec_A_10.pdb/2024-01-01-03-54-21/
     RDKit          3D

 13 13  0  0  0  0  0  0  0  0999 V2000
  -23.1746  -16.6014  144.8668 C   0  0  0  0  0  0  0  0  0  0  0  0
  -24.0189  -16.0564  145.8445 C   0  0  0  0  0  0  0  0  0  0  0  0
  -24.4850  -14.7380  145.6359 C   0  0  0  0  0  0  0  0  0  0  0  0
  -25.2717  -14.0560  146.5949 C   0  0  0  0  0  0  0  0  0  0  0  0
  -25.5669  -12.6700  146.4456 C   0  0  0  0  0  0  0  0  0  0  0  0
  -25.0654  -11.9691  145.3358 C   0  0  0  0  0  0  0  0  0  0  0  0
  -24.1470  -12.6373  144.4973 C   0  0  0  0  0  0  0  0  0  0  0  0
  -23.9087  -14.0232  144.7071 C   0  0  0  0  0  0  0  0  0  0  0  0
  -25.1671  -17.0324  146.2152 C   0  0  0  0  0  0  0  0  0  0  0  0
  -25.5216  -17.2220  147.5253 C   0  0  0  0  0  0  0  0  0  0  0  0
  -24.4003  -17.5628  148.4069 C   0  0  0  0  0  0  0  0  0  0  0  0
  -24.6310  -17.2589  149.8860 C   0  0  0  0  0  0  0  0  0  0  0  0
  -23.5242  -17.5045  150.7682 C   0  0  0  0  0  0  0  0  0  0  0  0
  1  2  1  0
  2  3  1  0
  2  9  1  0
  9 10  1  0
 10 11  1  0
 11 12  1  0
 12 13  1  0
  3  4  2  0
  4  5  1  0
  5  6  2  0
  6  7  1  0
  7  8  2  0
  8  3  1  0
M  END

$$$$
No_423-/dssg/home/sw_qyf/PocketFlow/Model-Generation-Results/5HT2A_7WC7_rec_A_10.pdb/2024-01-01-03-54-21/
     RDKit          3D

 28 29  0  0  0  0  0  0  0  0999 V2000
  -24.1553  -17.8465  145.7021 C   0  0  0  0  0  0  0  0  0  0  0  0
  -24.6364  -17.2931  146.7091 C   0  0  0  0  0  0  0  0  0  0  0  0
  -24.5709  -15.9334  146.8074 C   0  0  0  0  0  0  0  0  0  0  0  0
  -24.3883  -15.1807  145.6115 C   0  0  0  0  0  0  0  0  0  0  0  0
  -25.0872  -14.4395  145.1343 C   0  0  0  0  0  0  0  0  0  0  0  0
  -26.2529  -13.8697  145.6753 C   0  0  0  0  0  0  0  0  0  0  0  0
  -23.6521  -17.1779  144.5666 C   0  0  0  0  0  0  0  0  0  0  0  0
  -23.9819  -15.8293  144.4972 C   0  0  0  0  0  0  0  0  0  0  0  0
  -26.8656  -12.7250  145.1794 C   0  0  0  0  0  0  0  0  0  0  0  0
  -27.3383  -11.6810  145.9130 C   0  0  0  0  0  0  0  0  0  0  0  0
  -27.7323  -10.4721  145.3307 C   0  0  0  0  0  0  0  0  0  0  0  0
  -27.9311  -10.3523  143.9381 C   0  0  0  0  0  0  0  0  0  0  0  0
  -27.5091  -11.5296  143.2438 C   0  0  0  0  0  0  0  0  0  0  0  0
  -27.0086  -12.6686  143.8065 C   0  0  0  0  0  0  0  0  0  0  0  0
  -28.5210   -9.2261  143.3518 C   0  0  0  0  0  0  0  0  0  0  0  0
  -29.8703   -9.1618  143.0034 C   0  0  0  0  0  0  0  0  0  0  0  0
  -30.8253  -10.1277  143.1688 C   0  0  0  0  0  0  0  0  0  0  0  0
  -30.3540   -7.8738  142.4850 C   0  0  0  0  0  0  0  0  0  0  0  0
  -31.6440   -7.8286  141.8797 C   0  0  0  0  0  0  0  0  0  0  0  0
  -29.5597   -6.6989  142.3843 C   0  0  0  0  0  0  0  0  0  0  0  0
  -23.8670  -19.3106  145.8923 C   0  0  0  0  0  0  0  0  0  0  0  0
  -29.0010   -6.1653  141.2122 C   0  0  0  0  0  0  0  0  0  0  0  0
  -30.0192   -5.9691  140.2829 C   0  0  0  0  0  0  0  0  0  0  0  0
  -29.2728   -5.9161  139.0364 C   0  0  0  0  0  0  0  0  0  0  0  0
  -24.8283  -20.0744  145.9407 O   0  0  0  0  0  0  0  0  0  0  0  0
  -22.6527  -19.7463  145.8675 O   0  0  0  0  0  0  0  0  0  0  0  0
  -24.7782  -13.5813  143.9359 O   0  0  0  0  0  0  0  0  0  0  0  0
  -30.7554  -10.8727  144.1795 O   0  0  0  0  0  0  0  0  0  0  0  0
  5  6  1  0
 12 15  1  0
 15 16  1  0
 16 17  2  3
 16 18  1  0
 18 19  1  0
 18 20  1  0
  1 21  1  0
 20 22  1  0
 22 23  1  0
 23 24  1  0
 21 25  1  0
 21 26  2  0
  5 27  1  0
 17 28  1  0
  5  4  1  0
  6  9  1  0
  1  2  2  0
  2  3  1  0
  3  4  2  0
  4  8  1  0
  8  7  2  0
  7  1  1  0
  9 10  2  0
 10 11  1  0
 11 12  2  0
 12 13  1  0
 13 14  2  0
 14  9  1  0
M  END

$$$$
No_424-/dssg/home/sw_qyf/PocketFlow/Model-Generation-Results/5HT2A_7WC7_rec_A_10.pdb/2024-01-01-03-54-21/
     RDKit          3D

 22 23  0  0  0  0  0  0  0  0999 V2000
  -24.1553  -17.8465  145.7021 C   0  0  0  0  0  0  0  0  0  0  0  0
  -24.6364  -17.2931  146.7091 C   0  0  0  0  0  0  0  0  0  0  0  0
  -24.5709  -15.9334  146.8074 C   0  0  0  0  0  0  0  0  0  0  0  0
  -25.1945  -15.2026  145.8427 C   0  0  0  0  0  0  0  0  0  0  0  0
  -25.1760  -13.7850  145.8101 C   0  0  0  0  0  0  0  0  0  0  0  0
  -25.7319  -13.0623  144.8301 C   0  0  0  0  0  0  0  0  0  0  0  0
  -26.2697  -13.8088  143.7146 C   0  0  0  0  0  0  0  0  0  0  0  0
  -24.2861  -17.1030  144.4567 C   0  0  0  0  0  0  0  0  0  0  0  0
  -24.5614  -15.7041  144.6105 C   0  0  0  0  0  0  0  0  0  0  0  0
  -27.0626  -13.1621  142.6471 C   0  0  0  0  0  0  0  0  0  0  0  0
  -26.8205  -12.7209  141.6717 C   0  0  0  0  0  0  0  0  0  0  0  0
  -27.8059  -12.2324  140.6643 C   0  0  0  0  0  0  0  0  0  0  0  0
  -27.4385  -11.0807  139.8764 C   0  0  0  0  0  0  0  0  0  0  0  0
  -28.3638  -10.0136  139.6565 C   0  0  0  0  0  0  0  0  0  0  0  0
  -28.9709   -9.3848  140.7765 C   0  0  0  0  0  0  0  0  0  0  0  0
  -29.5784   -8.1160  140.7208 C   0  0  0  0  0  0  0  0  0  0  0  0
  -30.2644   -7.6922  141.8863 C   0  0  0  0  0  0  0  0  0  0  0  0
  -30.6687   -8.6063  142.8988 C   0  0  0  0  0  0  0  0  0  0  0  0
  -30.1119   -9.8383  142.9196 C   0  0  0  0  0  0  0  0  0  0  0  0
  -29.3224  -10.3060  141.7986 C   0  0  0  0  0  0  0  0  0  0  0  0
  -23.8760  -19.1801  145.5855 N   0  0  0  0  0  0  0  0  0  0  0  0
  -29.2324   -7.2662  139.7909 N   0  0  0  0  0  0  0  0  0  0  0  0
  1  2  1  0
  2  3  1  0
  3  4  1  0
  4  5  2  3
  5  6  1  0
  6  7  2  3
  1  8  1  0
  4  9  1  0
  8  9  1  0
  7 10  1  0
 10 11  2  3
 11 12  1  0
 12 13  1  0
 13 14  1  0
 14 15  1  0
  1 21  1  0
 16 22  1  0
 15 16  2  0
 16 17  1  0
 17 18  2  0
 18 19  1  0
 19 20  2  0
 20 15  1  0
M  END

$$$$
No_425-/dssg/home/sw_qyf/PocketFlow/Model-Generation-Results/5HT2A_7WC7_rec_A_10.pdb/2024-01-01-03-54-21/
     RDKit          3D

 22 24  0  0  0  0  0  0  0  0999 V2000
  -23.1746  -16.6014  144.8668 C   0  0  0  0  0  0  0  0  0  0  0  0
  -23.8963  -15.5346  144.7885 C   0  0  0  0  0  0  0  0  0  0  0  0
  -24.5755  -15.0383  145.9043 C   0  0  0  0  0  0  0  0  0  0  0  0
  -24.8345  -15.9108  146.9141 C   0  0  0  0  0  0  0  0  0  0  0  0
  -25.6264  -15.5522  148.0190 C   0  0  0  0  0  0  0  0  0  0  0  0
  -23.3834  -17.5331  145.9021 C   0  0  0  0  0  0  0  0  0  0  0  0
  -24.1443  -17.1318  146.9691 C   0  0  0  0  0  0  0  0  0  0  0  0
  -25.2299  -13.6807  145.8633 C   0  0  0  0  0  0  0  0  0  0  0  0
  -24.3181  -12.5754  146.0457 C   0  0  0  0  0  0  0  0  0  0  0  0
  -26.5347  -13.4848  145.5503 C   0  0  0  0  0  0  0  0  0  0  0  0
  -27.0926  -12.1889  145.4741 C   0  0  0  0  0  0  0  0  0  0  0  0
  -26.2262  -11.0755  145.6797 C   0  0  0  0  0  0  0  0  0  0  0  0
  -24.8328  -11.3212  145.9984 C   0  0  0  0  0  0  0  0  0  0  0  0
  -28.4949  -11.8733  145.2844 C   0  0  0  0  0  0  0  0  0  0  0  0
  -29.4856  -12.1017  146.2727 C   0  0  0  0  0  0  0  0  0  0  0  0
  -30.3877  -11.0862  146.7416 C   0  0  0  0  0  0  0  0  0  0  0  0
  -29.6549  -13.3837  146.8960 C   0  0  0  0  0  0  0  0  0  0  0  0
  -29.3449  -14.5909  146.3315 C   0  0  0  0  0  0  0  0  0  0  0  0
  -30.2167  -13.3915  148.3031 C   0  0  0  0  0  0  0  0  0  0  0  0
  -30.9270  -12.4094  148.8538 C   0  0  0  0  0  0  0  0  0  0  0  0
  -30.9520  -11.1377  148.1164 C   0  0  0  0  0  0  0  0  0  0  0  0
  -28.8863  -11.3795  144.1748 O   0  0  0  0  0  0  0  0  0  0  0  0
  3  8  1  0
 11 14  1  0
 14 15  1  0
 17 18  1  0
 14 22  2  0
  5  4  1  0
 15 16  2  0
 16 21  1  0
 21 20  2  0
 20 19  1  0
 19 17  2  0
 17 15  1  0
  8  9  2  0
  9 13  1  0
 13 12  2  0
 12 11  1  0
 11 10  2  0
 10  8  1  0
  1  2  2  0
  2  3  1  0
  3  4  2  0
  4  7  1  0
  7  6  2  0
  6  1  1  0
M  END

$$$$
No_426-/dssg/home/sw_qyf/PocketFlow/Model-Generation-Results/5HT2A_7WC7_rec_A_10.pdb/2024-01-01-03-54-21/
     RDKit          3D

 14 15  0  0  0  0  0  0  0  0999 V2000
  -24.1553  -17.8465  145.7021 C   0  0  0  0  0  0  0  0  0  0  0  0
  -24.2856  -16.6364  145.3494 C   0  0  0  0  0  0  0  0  0  0  0  0
  -24.7211  -15.5955  146.2115 C   0  0  0  0  0  0  0  0  0  0  0  0
  -25.1322  -16.0374  147.5372 C   0  0  0  0  0  0  0  0  0  0  0  0
  -24.5163  -18.2968  146.9928 C   0  0  0  0  0  0  0  0  0  0  0  0
  -24.9534  -17.3074  147.9886 C   0  0  0  0  0  0  0  0  0  0  0  0
  -24.8611  -14.1860  145.8124 C   0  0  0  0  0  0  0  0  0  0  0  0
  -24.0272  -13.6923  144.9026 C   0  0  0  0  0  0  0  0  0  0  0  0
  -23.9733  -12.2444  144.7507 C   0  0  0  0  0  0  0  0  0  0  0  0
  -24.9164  -11.4350  145.4717 C   0  0  0  0  0  0  0  0  0  0  0  0
  -25.8340  -12.0159  146.3401 C   0  0  0  0  0  0  0  0  0  0  0  0
  -25.7406  -13.3904  146.6204 C   0  0  0  0  0  0  0  0  0  0  0  0
  -23.9817  -16.2097  144.1391 F   0  0  0  0  0  0  0  0  0  0  0  0
  -23.7611  -18.8282  144.8781 O   0  0  0  0  0  0  0  0  0  0  0  0
  3  7  1  0
  2 13  1  0
  1 14  1  0
  1  2  2  0
  2  3  1  0
  3  4  2  0
  4  6  1  0
  6  5  2  0
  5  1  1  0
  7  8  2  0
  8  9  1  0
  9 10  2  0
 10 11  1  0
 11 12  2  0
 12  7  1  0
M  END

$$$$
No_427-/dssg/home/sw_qyf/PocketFlow/Model-Generation-Results/5HT2A_7WC7_rec_A_10.pdb/2024-01-01-03-54-21/
     RDKit          3D

 35 39  0  0  0  0  0  0  0  0999 V2000
  -24.1553  -17.8465  145.7021 C   0  0  0  0  0  0  0  0  0  0  0  0
  -23.9795  -18.4462  146.7426 C   0  0  0  0  0  0  0  0  0  0  0  0
  -25.1196  -16.8106  145.6409 C   0  0  0  0  0  0  0  0  0  0  0  0
  -25.2440  -15.8776  144.5240 C   0  0  0  0  0  0  0  0  0  0  0  0
  -26.0733  -14.7284  144.7061 C   0  0  0  0  0  0  0  0  0  0  0  0
  -26.0749  -13.6607  143.7626 C   0  0  0  0  0  0  0  0  0  0  0  0
  -24.5491  -18.0521  147.9995 C   0  0  0  0  0  0  0  0  0  0  0  0
  -25.4112  -16.9742  148.0640 C   0  0  0  0  0  0  0  0  0  0  0  0
  -25.6107  -16.2038  146.8886 C   0  0  0  0  0  0  0  0  0  0  0  0
  -27.0144  -12.6487  143.8916 C   0  0  0  0  0  0  0  0  0  0  0  0
  -27.7242  -12.4655  145.1149 C   0  0  0  0  0  0  0  0  0  0  0  0
  -27.7246  -13.4994  146.1221 C   0  0  0  0  0  0  0  0  0  0  0  0
  -26.8083  -14.5326  145.9856 C   0  0  0  0  0  0  0  0  0  0  0  0
  -26.4828  -15.1646  146.9912 C   0  0  0  0  0  0  0  0  0  0  0  0
  -28.7057  -11.3244  145.1749 C   0  0  0  0  0  0  0  0  0  0  0  0
  -29.6167  -11.1087  144.2375 C   0  0  0  0  0  0  0  0  0  0  0  0
  -29.3797   -9.8165  143.4931 C   0  0  0  0  0  0  0  0  0  0  0  0
  -28.2326   -9.5817  142.9850 C   0  0  0  0  0  0  0  0  0  0  0  0
  -30.5611   -8.9465  143.2626 C   0  0  0  0  0  0  0  0  0  0  0  0
  -30.4343   -7.8780  142.5333 N   0  0  0  0  0  0  0  0  0  0  0  0
  -29.5833   -7.6464  141.5475 C   0  0  0  0  0  0  0  0  0  0  0  0
  -29.4929   -8.3723  140.5438 C   0  0  0  0  0  0  0  0  0  0  0  0
  -28.7827   -8.0283  139.3837 C   0  0  0  0  0  0  0  0  0  0  0  0
  -28.4450   -8.9247  138.4238 C   0  0  0  0  0  0  0  0  0  0  0  0
  -31.6794   -9.1421  143.8787 O   0  0  0  0  0  0  0  0  0  0  0  0
  -27.8778  -10.1903  138.7847 C   0  0  0  0  0  0  0  0  0  0  0  0
  -27.4197  -11.1363  138.0036 C   0  0  0  0  0  0  0  0  0  0  0  0
  -27.1398  -12.4607  138.6750 C   0  0  0  0  0  0  0  0  0  0  0  0
  -27.2467  -12.4616  140.1660 C   0  0  0  0  0  0  0  0  0  0  0  0
  -27.6485  -11.4257  140.8777 C   0  0  0  0  0  0  0  0  0  0  0  0
  -27.9996  -10.2571  140.3402 C   0  0  0  0  0  0  0  0  0  0  0  0
  -29.1399   -9.7762  140.8884 C   0  0  0  0  0  0  0  0  0  0  0  0
  -29.6844  -10.3842  141.8297 O   0  0  0  0  0  0  0  0  0  0  0  0
  -30.7741  -10.6075  141.6605 C   0  0  0  0  0  0  0  0  0  0  0  0
  -28.3812   -8.5786  137.0196 C   0  0  0  0  0  0  0  0  0  0  0  0
  3  4  1  0
  4  5  1  0
  9 14  1  0
 13 14  1  0
 11 15  1  0
 15 16  1  0
 16 17  1  0
 17 18  2  0
 17 19  1  0
 19 20  1  0
 20 21  1  0
 21 22  1  0
 19 25  2  0
 32 33  1  0
 33 34  1  0
 24 35  1  0
  1  2  2  0
  2  7  1  0
  7  8  2  0
  8  9  1  0
  9  3  2  0
  3  1  1  0
  5  6  2  0
  6 10  1  0
 10 11  2  0
 11 12  1  0
 12 13  2  0
 13  5  1  0
 26 27  1  0
 27 28  2  0
 28 29  1  0
 29 30  2  0
 30 31  1  0
 22 23  2  0
 23 24  1  0
 24 26  2  0
 26 31  1  0
 31 32  2  0
 32 22  1  0
M  END

$$$$
No_428-/dssg/home/sw_qyf/PocketFlow/Model-Generation-Results/5HT2A_7WC7_rec_A_10.pdb/2024-01-01-03-54-21/
     RDKit          3D

 24 25  0  0  0  0  0  0  0  0999 V2000
  -24.1553  -17.8465  145.7021 C   0  0  0  0  0  0  0  0  0  0  0  0
  -23.9795  -18.4462  146.7426 C   0  0  0  0  0  0  0  0  0  0  0  0
  -24.3577  -16.4380  145.7329 C   0  0  0  0  0  0  0  0  0  0  0  0
  -24.6120  -15.7738  146.9649 C   0  0  0  0  0  0  0  0  0  0  0  0
  -24.1170  -17.8639  148.0590 C   0  0  0  0  0  0  0  0  0  0  0  0
  -24.3602  -16.5130  148.2032 C   0  0  0  0  0  0  0  0  0  0  0  0
  -24.6014  -15.4472  144.6301 C   0  0  0  0  0  0  0  0  0  0  0  0
  -25.5407  -14.4829  144.6924 C   0  0  0  0  0  0  0  0  0  0  0  0
  -25.2599  -13.3017  144.1666 C   0  0  0  0  0  0  0  0  0  0  0  0
  -25.1162  -12.3062  145.2682 C   0  0  0  0  0  0  0  0  0  0  0  0
  -26.1432  -11.2346  145.2247 C   0  0  0  0  0  0  0  0  0  0  0  0
  -27.3875  -11.6770  145.7505 C   0  0  0  0  0  0  0  0  0  0  0  0
  -27.5001  -12.5493  146.7680 C   0  0  0  0  0  0  0  0  0  0  0  0
  -28.8255  -12.9615  147.2354 C   0  0  0  0  0  0  0  0  0  0  0  0
  -29.9034  -12.0638  147.0035 C   0  0  0  0  0  0  0  0  0  0  0  0
  -29.7525  -11.0885  146.0685 C   0  0  0  0  0  0  0  0  0  0  0  0
  -28.4876  -10.8224  145.4897 C   0  0  0  0  0  0  0  0  0  0  0  0
  -28.4128   -9.7758  144.4772 C   0  0  0  0  0  0  0  0  0  0  0  0
  -28.2859   -9.9918  143.1625 C   0  0  0  0  0  0  0  0  0  0  0  0
  -28.9919   -9.2916  142.2244 C   0  0  0  0  0  0  0  0  0  0  0  0
  -28.7161   -9.5279  140.8055 C   0  0  0  0  0  0  0  0  0  0  0  0
  -29.1137   -8.6554  139.7672 C   0  0  0  0  0  0  0  0  0  0  0  0
  -30.0480   -7.6085  140.2117 C   0  0  0  0  0  0  0  0  0  0  0  0
  -30.3368   -7.4178  141.5547 C   0  0  0  0  0  0  0  0  0  0  0  0
  3  7  1  0
  7  8  1  0
  8  9  1  0
  9 10  1  0
 10 11  1  0
 11 12  1  0
 17 18  1  0
 18 19  1  0
 19 20  2  3
 20 21  1  0
 21 22  1  0
 22 23  2  3
 23 24  1  0
 12 13  2  0
 13 14  1  0
 14 15  2  0
 15 16  1  0
 16 17  2  0
 17 12  1  0
  1  2  2  0
  2  5  1  0
  5  6  2  0
  6  4  1  0
  4  3  2  0
  3  1  1  0
M  END

$$$$
No_429-/dssg/home/sw_qyf/PocketFlow/Model-Generation-Results/5HT2A_7WC7_rec_A_10.pdb/2024-01-01-03-54-21/
     RDKit          3D

 15 15  0  0  0  0  0  0  0  0999 V2000
  -23.1746  -16.6014  144.8668 C   0  0  0  0  0  0  0  0  0  0  0  0
  -23.7011  -17.0158  145.9774 C   0  0  0  0  0  0  0  0  0  0  0  0
  -24.2134  -16.0722  146.8877 C   0  0  0  0  0  0  0  0  0  0  0  0
  -25.2064  -15.3422  146.4171 C   0  0  0  0  0  0  0  0  0  0  0  0
  -24.7890  -14.4834  145.3416 C   0  0  0  0  0  0  0  0  0  0  0  0
  -23.8927  -15.2280  144.3874 C   0  0  0  0  0  0  0  0  0  0  0  0
  -25.1890  -13.1385  145.1828 C   0  0  0  0  0  0  0  0  0  0  0  0
  -24.2834  -12.1626  145.5633 C   0  0  0  0  0  0  0  0  0  0  0  0
  -26.3902  -12.8279  144.6010 C   0  0  0  0  0  0  0  0  0  0  0  0
  -26.9269  -13.3691  143.6823 C   0  0  0  0  0  0  0  0  0  0  0  0
  -24.7595  -10.8975  145.7305 O   0  0  0  0  0  0  0  0  0  0  0  0
  -23.1636  -18.3152  146.5379 C   0  0  0  0  0  0  0  0  0  0  0  0
  -27.9433  -12.6775  143.0870 N   0  0  0  0  0  0  0  0  0  0  0  0
  -28.1602  -11.5681  143.8599 C   0  0  0  0  0  0  0  0  0  0  0  0
  -29.1003  -10.5483  143.7458 C   0  0  0  0  0  0  0  0  0  0  0  0
  1  2  1  0
  2  3  1  0
  3  4  1  0
  4  5  1  0
  1  6  1  0
  5  6  1  0
  5  7  1  0
  7  8  1  0
  7  9  1  0
  9 10  2  3
  8 11  1  0
  2 12  1  0
 10 13  1  0
 13 14  2  3
 14 15  1  0
M  END

$$$$
No_430-/dssg/home/sw_qyf/PocketFlow/Model-Generation-Results/5HT2A_7WC7_rec_A_10.pdb/2024-01-01-03-54-21/
     RDKit          3D

 16 18  0  0  0  0  0  0  0  0999 V2000
  -24.1553  -17.8465  145.7021 C   0  0  0  0  0  0  0  0  0  0  0  0
  -23.9795  -18.4462  146.7426 C   0  0  0  0  0  0  0  0  0  0  0  0
  -25.1593  -16.8262  145.6925 C   0  0  0  0  0  0  0  0  0  0  0  0
  -25.3302  -15.8818  144.5925 C   0  0  0  0  0  0  0  0  0  0  0  0
  -24.0558  -17.8060  147.9302 C   0  0  0  0  0  0  0  0  0  0  0  0
  -24.8724  -16.6738  148.1474 C   0  0  0  0  0  0  0  0  0  0  0  0
  -25.2411  -15.9876  146.9649 C   0  0  0  0  0  0  0  0  0  0  0  0
  -24.1298  -15.1449  144.1256 C   0  0  0  0  0  0  0  0  0  0  0  0
  -24.0759  -13.7077  144.7899 C   0  0  0  0  0  0  0  0  0  0  0  0
  -25.0588  -13.1316  145.5309 C   0  0  0  0  0  0  0  0  0  0  0  0
  -24.9030  -11.8393  145.9533 C   0  0  0  0  0  0  0  0  0  0  0  0
  -26.1139  -11.3257  146.6742 C   0  0  0  0  0  0  0  0  0  0  0  0
  -27.3548  -12.1064  146.4670 C   0  0  0  0  0  0  0  0  0  0  0  0
  -27.3405  -13.4263  146.0746 C   0  0  0  0  0  0  0  0  0  0  0  0
  -26.2157  -13.8929  145.4621 C   0  0  0  0  0  0  0  0  0  0  0  0
  -26.5793  -15.0333  144.6857 C   0  0  0  0  0  0  0  0  0  0  0  0
  3  4  1  0
  4  8  2  0
  8  9  1  0
  9 10  2  0
 15 16  2  0
 16  4  1  0
  1  2  2  0
  2  5  1  0
  5  6  2  0
  6  7  1  0
  7  3  2  0
  3  1  1  0
 10 11  1  0
 11 12  2  0
 12 13  1  0
 13 14  2  0
 14 15  1  0
 15 10  1  0
M  END

$$$$
No_431-/dssg/home/sw_qyf/PocketFlow/Model-Generation-Results/5HT2A_7WC7_rec_A_10.pdb/2024-01-01-03-54-21/
     RDKit          3D

 35 40  0  0  0  0  0  0  0  0999 V2000
  -23.1746  -16.6014  144.8668 C   0  0  0  0  0  0  0  0  0  0  0  0
  -23.7011  -17.0158  145.9774 C   0  0  0  0  0  0  0  0  0  0  0  0
  -23.7336  -18.2775  146.3737 C   0  0  0  0  0  0  0  0  0  0  0  0
  -24.1960  -18.6445  147.6858 C   0  0  0  0  0  0  0  0  0  0  0  0
  -24.7100  -17.6145  148.5486 C   0  0  0  0  0  0  0  0  0  0  0  0
  -24.7929  -16.2635  148.0870 C   0  0  0  0  0  0  0  0  0  0  0  0
  -24.2508  -15.9434  146.8891 C   0  0  0  0  0  0  0  0  0  0  0  0
  -23.5532  -17.1419  143.7626 N   0  0  0  0  0  0  0  0  0  0  0  0
  -24.1551  -14.6235  146.3381 C   0  0  0  0  0  0  0  0  0  0  0  0
  -24.6657  -13.5370  147.1798 C   0  0  0  0  0  0  0  0  0  0  0  0
  -24.7064  -12.1961  146.6165 C   0  0  0  0  0  0  0  0  0  0  0  0
  -24.3455  -11.9757  145.2496 C   0  0  0  0  0  0  0  0  0  0  0  0
  -23.7375  -13.0978  144.5647 C   0  0  0  0  0  0  0  0  0  0  0  0
  -23.7768  -14.3609  145.0504 C   0  0  0  0  0  0  0  0  0  0  0  0
  -22.7658  -15.3368  144.6793 O   0  0  0  0  0  0  0  0  0  0  0  0
  -23.3224  -19.2552  145.6931 O   0  0  0  0  0  0  0  0  0  0  0  0
  -25.2052  -17.9750  149.7737 O   0  0  0  0  0  0  0  0  0  0  0  0
  -24.6203  -17.3039  150.8212 C   0  0  0  0  0  0  0  0  0  0  0  0
  -24.4251  -10.7974  144.7826 O   0  0  0  0  0  0  0  0  0  0  0  0
  -25.7028  -10.4091  144.5133 C   0  0  0  0  0  0  0  0  0  0  0  0
  -26.6896  -10.8093  145.4903 C   0  0  0  0  0  0  0  0  0  0  0  0
  -28.1394  -10.7035  145.0008 C   0  0  0  0  0  0  0  0  0  0  0  0
  -29.1378  -11.4155  145.6319 C   0  0  0  0  0  0  0  0  0  0  0  0
  -28.8081  -11.8603  146.9289 C   0  0  0  0  0  0  0  0  0  0  0  0
  -27.4471  -12.0887  147.3093 C   0  0  0  0  0  0  0  0  0  0  0  0
  -26.4411  -11.6393  146.5446 C   0  0  0  0  0  0  0  0  0  0  0  0
  -28.5239   -9.9358  143.8381 C   0  0  0  0  0  0  0  0  0  0  0  0
  -29.6895   -9.2870  143.8448 C   0  0  0  0  0  0  0  0  0  0  0  0
  -30.1714   -8.5236  142.7476 C   0  0  0  0  0  0  0  0  0  0  0  0
  -29.3652   -8.3151  141.6200 C   0  0  0  0  0  0  0  0  0  0  0  0
  -29.7273   -7.4254  140.5784 C   0  0  0  0  0  0  0  0  0  0  0  0
  -28.9369   -7.5949  139.3829 C   0  0  0  0  0  0  0  0  0  0  0  0
  -28.1455   -8.7574  139.1611 C   0  0  0  0  0  0  0  0  0  0  0  0
  -28.3122   -9.6574  139.9436 C   0  0  0  0  0  0  0  0  0  0  0  0
  -28.8199   -9.5466  141.3074 C   0  0  0  0  0  0  0  0  0  0  0  0
  1  2  1  0
  1  8  1  0
  7  9  1  0
  1 15  1  0
 14 15  1  0
  3 16  1  0
  5 17  1  0
 17 18  1  0
 12 19  1  0
 19 20  1  0
 20 21  1  0
 11 26  1  0
 22 27  1  0
 27 28  2  3
 28 29  1  0
 29 30  1  0
  2  3  2  0
  3  4  1  0
  4  5  2  0
  5  6  1  0
  6  7  2  0
  7  2  1  0
 30 31  2  0
 31 32  1  0
 32 33  2  0
 33 34  1  0
 34 35  2  0
 35 30  1  0
  9 10  2  0
 10 11  1  0
 11 12  2  0
 12 13  1  0
 13 14  2  0
 14  9  1  0
 21 22  2  0
 22 23  1  0
 23 24  2  0
 24 25  1  0
 25 26  2  0
 26 21  1  0
M  END

$$$$
No_432-/dssg/home/sw_qyf/PocketFlow/Model-Generation-Results/5HT2A_7WC7_rec_A_10.pdb/2024-01-01-03-54-21/
     RDKit          3D

 34 35  0  0  0  0  0  0  0  0999 V2000
  -24.1553  -17.8465  145.7021 C   0  0  0  0  0  0  0  0  0  0  0  0
  -24.6364  -17.2931  146.7091 C   0  0  0  0  0  0  0  0  0  0  0  0
  -24.0780  -17.2921  147.9389 C   0  0  0  0  0  0  0  0  0  0  0  0
  -24.6869  -16.7004  149.1440 C   0  0  0  0  0  0  0  0  0  0  0  0
  -26.0385  -16.2385  148.9552 C   0  0  0  0  0  0  0  0  0  0  0  0
  -26.6430  -16.2999  147.7413 C   0  0  0  0  0  0  0  0  0  0  0  0
  -27.9940  -15.9043  147.4947 C   0  0  0  0  0  0  0  0  0  0  0  0
  -26.0067  -16.8798  146.6573 C   0  0  0  0  0  0  0  0  0  0  0  0
  -29.1039  -16.1819  148.1625 C   0  0  0  0  0  0  0  0  0  0  0  0
  -28.2226  -14.9515  146.4603 C   0  0  0  0  0  0  0  0  0  0  0  0
  -23.6094  -16.7462  144.3049 Br  0  0  0  0  0  0  0  0  0  0  0  0
  -27.1589  -14.4704  145.6209 C   0  0  0  0  0  0  0  0  0  0  0  0
  -27.2257  -13.2674  144.9701 C   0  0  0  0  0  0  0  0  0  0  0  0
  -26.5974  -13.0716  143.7669 C   0  0  0  0  0  0  0  0  0  0  0  0
  -27.2299  -12.4123  142.7315 C   0  0  0  0  0  0  0  0  0  0  0  0
  -27.1810  -12.8496  141.3925 C   0  0  0  0  0  0  0  0  0  0  0  0
  -27.9131  -12.2157  140.3909 C   0  0  0  0  0  0  0  0  0  0  0  0
  -27.4587  -12.1893  139.0484 C   0  0  0  0  0  0  0  0  0  0  0  0
  -26.0012  -11.9946  139.0329 C   0  0  0  0  0  0  0  0  0  0  0  0
  -25.3730  -13.1849  138.8947 O   0  0  0  0  0  0  0  0  0  0  0  0
  -24.2561  -19.1442  145.3349 O   0  0  0  0  0  0  0  0  0  0  0  0
  -29.9537  -15.2282  148.6231 C   0  0  0  0  0  0  0  0  0  0  0  0
  -30.2034  -14.0708  147.7188 C   0  0  0  0  0  0  0  0  0  0  0  0
  -29.2033  -13.8843  146.7136 C   0  0  0  0  0  0  0  0  0  0  0  0
  -28.1549  -12.1028  137.9960 O   0  0  0  0  0  0  0  0  0  0  0  0
  -27.9259  -11.2375  143.0584 C   0  0  0  0  0  0  0  0  0  0  0  0
  -27.6387  -10.2848  143.7261 C   0  0  0  0  0  0  0  0  0  0  0  0
  -28.5456   -9.1826  144.0784 C   0  0  0  0  0  0  0  0  0  0  0  0
  -29.6002   -9.1473  143.2541 C   0  0  0  0  0  0  0  0  0  0  0  0
  -30.5917   -8.1194  143.4851 C   0  0  0  0  0  0  0  0  0  0  0  0
  -31.3389   -7.6091  142.4077 C   0  0  0  0  0  0  0  0  0  0  0  0
  -29.1822  -11.1020  142.3487 F   0  0  0  0  0  0  0  0  0  0  0  0
  -30.5646   -7.9782  141.2932 C   0  0  0  0  0  0  0  0  0  0  0  0
  -29.4004   -8.1056  141.2885 C   0  0  0  0  0  0  0  0  0  0  0  0
  1  2  1  0
  6  7  1  0
  1 11  1  0
 10 12  1  0
 12 13  2  3
 13 14  1  0
 14 15  1  0
 15 16  1  0
 16 17  1  0
 17 18  1  0
 18 19  1  0
 19 20  1  0
  1 21  2  0
 18 25  2  0
 15 26  1  0
 26 27  1  0
 27 28  2  3
 28 29  1  0
 29 30  1  0
 30 31  1  0
 26 32  1  0
 31 33  1  0
 33 34  1  0
  2  3  2  0
  3  4  1  0
  4  5  2  0
  5  6  1  0
  6  8  2  0
  8  2  1  0
  7  9  2  0
  9 22  1  0
 22 23  2  0
 23 24  1  0
 24 10  2  0
 10  7  1  0
M  END

$$$$
No_433-/dssg/home/sw_qyf/PocketFlow/Model-Generation-Results/5HT2A_7WC7_rec_A_10.pdb/2024-01-01-03-54-21/
     RDKit          3D

 35 37  0  0  0  0  0  0  0  0999 V2000
  -24.1553  -17.8465  145.7021 C   0  0  0  0  0  0  0  0  0  0  0  0
  -24.2855  -16.6364  145.3494 C   0  0  0  0  0  0  0  0  0  0  0  0
  -24.5733  -15.7651  145.9979 C   0  0  0  0  0  0  0  0  0  0  0  0
  -24.7088  -14.2765  145.5906 C   0  0  0  0  0  0  0  0  0  0  0  0
  -24.0081  -14.0223  144.3771 C   0  0  0  0  0  0  0  0  0  0  0  0
  -24.3370  -18.1872  146.8214 C   0  0  0  0  0  0  0  0  0  0  0  0
  -24.7963  -17.2993  147.8217 C   0  0  0  0  0  0  0  0  0  0  0  0
  -24.8865  -15.9232  147.4286 C   0  0  0  0  0  0  0  0  0  0  0  0
  -25.4242  -13.3304  146.3555 C   0  0  0  0  0  0  0  0  0  0  0  0
  -25.4297  -11.9911  145.9589 C   0  0  0  0  0  0  0  0  0  0  0  0
  -23.9826  -12.4645  144.1143 C   0  0  0  0  0  0  0  0  0  0  0  0
  -24.6559  -11.5849  144.9053 C   0  0  0  0  0  0  0  0  0  0  0  0
  -25.0230  -17.6315  149.3129 C   0  0  0  0  0  0  0  0  0  0  0  0
  -24.0375  -17.1567  150.2688 C   0  0  0  0  0  0  0  0  0  0  0  0
  -22.8506  -17.2996  149.9741 O   0  0  0  0  0  0  0  0  0  0  0  0
  -26.0743  -11.0499  146.7439 O   0  0  0  0  0  0  0  0  0  0  0  0
  -23.9299  -16.4144  143.9301 N   0  0  0  0  0  0  0  0  0  0  0  0
  -23.8181  -15.0189  143.6006 C   0  0  0  0  0  0  0  0  0  0  0  0
  -22.0009  -16.3736  150.8427 C   0  0  0  0  0  0  0  0  0  0  0  0
  -26.3586  -17.3414  149.5909 O   0  0  0  0  0  0  0  0  0  0  0  0
  -20.5815  -16.4093  150.3801 C   0  0  0  0  0  0  0  0  0  0  0  0
  -20.1666  -15.4986  149.5871 O   0  0  0  0  0  0  0  0  0  0  0  0
  -23.7377  -18.8872  144.8647 O   0  0  0  0  0  0  0  0  0  0  0  0
  -27.2194  -16.9237  148.7242 C   0  0  0  0  0  0  0  0  0  0  0  0
  -28.6575  -17.0600  149.0557 C   0  0  0  0  0  0  0  0  0  0  0  0
  -29.5616  -16.2655  148.2947 C   0  0  0  0  0  0  0  0  0  0  0  0
  -29.1224  -15.4113  147.1803 C   0  0  0  0  0  0  0  0  0  0  0  0
  -29.9004  -14.3426  146.7216 C   0  0  0  0  0  0  0  0  0  0  0  0
  -29.1801  -13.0591  146.3827 C   0  0  0  0  0  0  0  0  0  0  0  0
  -29.6699  -11.9895  146.0451 C   0  0  0  0  0  0  0  0  0  0  0  0
  -28.9735  -10.9619  145.2187 C   0  0  0  0  0  0  0  0  0  0  0  0
  -29.6736   -9.8209  144.7644 C   0  0  0  0  0  0  0  0  0  0  0  0
  -29.2751   -9.1411  143.6571 C   0  0  0  0  0  0  0  0  0  0  0  0
  -30.0790   -8.1223  143.1254 C   0  0  0  0  0  0  0  0  0  0  0  0
  -29.6410   -7.3886  141.9931 C   0  0  0  0  0  0  0  0  0  0  0  0
  3  4  1  0
  7 13  1  0
 13 14  1  0
 14 15  1  0
 10 16  1  0
  2 17  1  0
  5 18  1  0
 17 18  1  0
 15 19  1  0
 13 20  1  0
 19 21  1  0
 21 22  2  0
  1 23  1  0
 20 24  1  0
 24 25  2  3
 25 26  1  0
 26 27  2  3
 27 28  1  0
 28 29  2  3
 29 30  1  0
 30 31  2  3
 31 32  1  0
 32 33  2  3
 33 34  1  0
 34 35  1  0
  1  2  2  0
  2  3  1  0
  3  8  2  0
  8  7  1  0
  7  6  2  0
  6  1  1  0
  4  5  2  0
  5 11  1  0
 11 12  2  0
 12 10  1  0
 10  9  2  0
  9  4  1  0
M  END

$$$$
No_434-/dssg/home/sw_qyf/PocketFlow/Model-Generation-Results/5HT2A_7WC7_rec_A_10.pdb/2024-01-01-03-54-21/
     RDKit          3D

 35 39  0  0  0  0  0  0  0  0999 V2000
  -24.1553  -17.8465  145.7021 C   0  0  0  0  0  0  0  0  0  0  0  0
  -23.9795  -18.4462  146.7426 C   0  0  0  0  0  0  0  0  0  0  0  0
  -24.2723  -16.4220  145.8037 C   0  0  0  0  0  0  0  0  0  0  0  0
  -24.9934  -15.8373  146.8363 C   0  0  0  0  0  0  0  0  0  0  0  0
  -25.2878  -14.4778  146.8072 C   0  0  0  0  0  0  0  0  0  0  0  0
  -24.2811  -13.5706  146.4302 C   0  0  0  0  0  0  0  0  0  0  0  0
  -23.9626  -13.7164  144.9860 C   0  0  0  0  0  0  0  0  0  0  0  0
  -23.3827  -14.9316  144.5151 C   0  0  0  0  0  0  0  0  0  0  0  0
  -23.6224  -15.8040  144.6597 C   0  0  0  0  0  0  0  0  0  0  0  0
  -25.2761  -16.6507  148.0080 C   0  0  0  0  0  0  0  0  0  0  0  0
  -24.8888  -18.0763  148.0162 C   0  0  0  0  0  0  0  0  0  0  0  0
  -25.0256  -13.2276  144.1960 O   0  0  0  0  0  0  0  0  0  0  0  0
  -26.0016  -12.6104  144.7558 C   0  0  0  0  0  0  0  0  0  0  0  0
  -27.0227  -12.3164  143.6581 C   0  0  0  0  0  0  0  0  0  0  0  0
  -28.0854  -11.4291  144.0677 C   0  0  0  0  0  0  0  0  0  0  0  0
  -28.3393  -10.2332  143.3829 C   0  0  0  0  0  0  0  0  0  0  0  0
  -29.4823   -9.8750  142.8058 C   0  0  0  0  0  0  0  0  0  0  0  0
  -30.6263  -10.1676  143.4041 C   0  0  0  0  0  0  0  0  0  0  0  0
  -31.8543   -9.7131  142.8219 C   0  0  0  0  0  0  0  0  0  0  0  0
  -31.8519   -8.3822  142.6375 N   0  0  0  0  0  0  0  0  0  0  0  0
  -29.4420   -9.4020  141.4608 C   0  0  0  0  0  0  0  0  0  0  0  0
  -28.5745   -9.9186  140.5163 C   0  0  0  0  0  0  0  0  0  0  0  0
  -27.8772  -11.0865  140.6773 C   0  0  0  0  0  0  0  0  0  0  0  0
  -27.1095  -11.5400  139.5707 C   0  0  0  0  0  0  0  0  0  0  0  0
  -26.5170  -12.7790  139.7052 N   0  0  0  0  0  0  0  0  0  0  0  0
  -28.5943   -9.2357  139.2582 C   0  0  0  0  0  0  0  0  0  0  0  0
  -28.1661   -9.7069  138.1290 C   0  0  0  0  0  0  0  0  0  0  0  0
  -27.3894  -10.9706  138.3319 C   0  0  0  0  0  0  0  0  0  0  0  0
  -23.3936  -16.8260  143.7277 O   0  0  0  0  0  0  0  0  0  0  0  0
  -29.3283   -7.8847  139.1933 C   0  0  0  0  0  0  0  0  0  0  0  0
  -30.0617   -7.3738  140.0789 O   0  0  0  0  0  0  0  0  0  0  0  0
  -29.8821   -7.8738  141.5138 C   0  0  0  0  0  0  0  0  0  0  0  0
  -31.3904   -7.8261  142.0766 C   0  0  0  0  0  0  0  0  0  0  0  0
  -25.4294  -12.9798  138.8720 C   0  0  0  0  0  0  0  0  0  0  0  0
  -26.6784  -13.5764  140.7807 C   0  0  0  0  0  0  0  0  0  0  0  0
  1  2  1  0
  1  3  1  0
  3  4  1  0
  4  5  1  0
  5  6  1  0
  6  7  1  0
  7  8  1  0
  3  9  1  0
  8  9  1  0
  4 10  1  0
  2 11  1  0
 10 11  1  0
  7 12  1  0
 12 13  1  0
 13 14  1  0
 14 15  2  3
 15 16  1  0
 16 17  1  0
 17 18  2  0
 18 19  1  0
 19 20  1  0
 17 21  1  0
 21 22  1  0
 24 25  1  0
  9 29  2  0
 26 30  1  0
 30 31  1  0
 21 32  1  0
 31 32  1  0
 20 33  1  0
 32 33  1  0
 25 34  1  0
 25 35  1  0
 22 23  2  0
 23 24  1  0
 24 28  2  0
 28 27  1  0
 27 26  2  0
 26 22  1  0
M  END

$$$$
No_435-/dssg/home/sw_qyf/PocketFlow/Model-Generation-Results/5HT2A_7WC7_rec_A_10.pdb/2024-01-01-03-54-21/
     RDKit          3D

 35 36  0  0  0  0  0  0  0  0999 V2000
  -23.1746  -16.6014  144.8668 C   0  0  0  0  0  0  0  0  0  0  0  0
  -23.7011  -17.0158  145.9774 C   0  0  0  0  0  0  0  0  0  0  0  0
  -24.2134  -16.0722  146.8877 C   0  0  0  0  0  0  0  0  0  0  0  0
  -23.3742  -15.2706  144.3922 C   0  0  0  0  0  0  0  0  0  0  0  0
  -24.0638  -14.3065  145.2723 C   0  0  0  0  0  0  0  0  0  0  0  0
  -24.4769  -14.7246  146.5384 C   0  0  0  0  0  0  0  0  0  0  0  0
  -24.2073  -12.8864  144.8851 C   0  0  0  0  0  0  0  0  0  0  0  0
  -24.3419  -11.9652  145.9961 C   0  0  0  0  0  0  0  0  0  0  0  0
  -23.5477  -18.4425  146.4364 C   0  0  0  0  0  0  0  0  0  0  0  0
  -24.3567  -18.9386  147.2330 O   0  0  0  0  0  0  0  0  0  0  0  0
  -22.5770  -19.1089  146.0983 O   0  0  0  0  0  0  0  0  0  0  0  0
  -25.8633  -11.6858  146.1370 C   0  0  0  0  0  0  0  0  0  0  0  0
  -26.8529  -12.4965  145.7445 C   0  0  0  0  0  0  0  0  0  0  0  0
  -27.6923  -12.0650  145.0467 C   0  0  0  0  0  0  0  0  0  0  0  0
  -27.7317  -11.2289  143.9545 C   0  0  0  0  0  0  0  0  0  0  0  0
  -27.2543  -11.3808  142.9179 C   0  0  0  0  0  0  0  0  0  0  0  0
  -27.5362  -10.7041  141.6490 C   0  0  0  0  0  0  0  0  0  0  0  0
  -27.0836  -11.0985  140.3795 C   0  0  0  0  0  0  0  0  0  0  0  0
  -27.4027  -10.2797  139.2954 C   0  0  0  0  0  0  0  0  0  0  0  0
  -28.1767   -9.1023  139.4884 C   0  0  0  0  0  0  0  0  0  0  0  0
  -28.4913   -8.1818  138.4449 C   0  0  0  0  0  0  0  0  0  0  0  0
  -28.6868   -8.7053  140.8202 C   0  0  0  0  0  0  0  0  0  0  0  0
  -28.3427   -9.5904  141.9067 C   0  0  0  0  0  0  0  0  0  0  0  0
  -27.8839   -8.2449  137.4308 O   0  0  0  0  0  0  0  0  0  0  0  0
  -29.3395   -7.2252  138.7483 O   0  0  0  0  0  0  0  0  0  0  0  0
  -29.1055  -11.9837  145.8101 C   0  0  0  0  0  0  0  0  0  0  0  0
  -29.4329  -12.8649  146.6239 O   0  0  0  0  0  0  0  0  0  0  0  0
  -30.0553  -11.1482  145.4892 F   0  0  0  0  0  0  0  0  0  0  0  0
  -29.4773  -14.1038  146.5414 C   0  0  0  0  0  0  0  0  0  0  0  0
  -28.3001  -14.8805  146.5642 C   0  0  0  0  0  0  0  0  0  0  0  0
  -28.1537  -16.0836  147.2262 C   0  0  0  0  0  0  0  0  0  0  0  0
  -27.1347  -17.0287  146.8713 C   0  0  0  0  0  0  0  0  0  0  0  0
  -26.8773  -17.1387  145.4975 C   0  0  0  0  0  0  0  0  0  0  0  0
  -26.9018  -15.8400  144.8142 C   0  0  0  0  0  0  0  0  0  0  0  0
  -27.8153  -14.8425  145.2115 C   0  0  0  0  0  0  0  0  0  0  0  0
  5  7  1  0
  7  8  1  0
  2  9  1  0
  9 10  1  0
  9 11  2  0
  8 12  1  0
 12 13  1  0
 13 14  2  3
 14 15  1  0
 15 16  2  3
 16 17  1  0
 20 21  1  0
 21 24  2  0
 21 25  1  0
 14 26  1  0
 26 27  1  0
 26 28  1  0
 27 29  1  0
 29 30  2  3
 30 31  1  0
 31 32  2  3
 32 33  1  0
 33 34  2  3
 34 35  1  0
  1  2  2  0
  2  3  1  0
  3  6  2  0
  6  5  1  0
  5  4  2  0
  4  1  1  0
 17 18  2  0
 18 19  1  0
 19 20  2  0
 20 22  1  0
 22 23  2  0
 23 17  1  0
M  END

$$$$
No_436-/dssg/home/sw_qyf/PocketFlow/Model-Generation-Results/5HT2A_7WC7_rec_A_10.pdb/2024-01-01-03-54-21/
     RDKit          3D

 10  9  0  0  0  0  0  0  0  0999 V2000
  -23.1746  -16.6014  144.8668 C   0  0  0  0  0  0  0  0  0  0  0  0
  -23.7011  -17.0158  145.9774 C   0  0  0  0  0  0  0  0  0  0  0  0
  -23.7336  -18.2775  146.3737 C   0  0  0  0  0  0  0  0  0  0  0  0
  -23.2769  -15.1496  144.5841 C   0  0  0  0  0  0  0  0  0  0  0  0
  -24.6038  -14.4663  144.6805 C   0  0  0  0  0  0  0  0  0  0  0  0
  -24.7389  -13.1768  144.4058 C   0  0  0  0  0  0  0  0  0  0  0  0
  -23.9581  -12.4305  145.4848 C   0  0  0  0  0  0  0  0  0  0  0  0
  -24.1080  -18.6216  147.5426 O   0  0  0  0  0  0  0  0  0  0  0  0
  -24.4698  -12.5479  146.8654 C   0  0  0  0  0  0  0  0  0  0  0  0
  -25.6604  -15.2614  144.9174 O   0  0  0  0  0  0  0  0  0  0  0  0
  1  2  1  0
  2  3  1  0
  1  4  1  0
  4  5  1  0
  5  6  1  0
  6  7  1  0
  3  8  1  0
  7  9  1  0
  5 10  2  0
M  END

$$$$
No_437-/dssg/home/sw_qyf/PocketFlow/Model-Generation-Results/5HT2A_7WC7_rec_A_10.pdb/2024-01-01-03-54-21/
     RDKit          3D

 20 22  0  0  0  0  0  0  0  0999 V2000
  -23.8998  -17.8495  145.5131 N   0  0  0  0  0  0  0  0  0  0  0  0
  -24.2949  -16.6890  145.5199 C   0  0  0  0  0  0  0  0  0  0  0  0
  -24.1189  -15.7572  144.5004 C   0  0  0  0  0  0  0  0  0  0  0  0
  -24.6672  -14.4875  144.6833 C   0  0  0  0  0  0  0  0  0  0  0  0
  -25.7113  -14.3439  145.4700 C   0  0  0  0  0  0  0  0  0  0  0  0
  -26.0194  -15.2722  146.5276 C   0  0  0  0  0  0  0  0  0  0  0  0
  -25.3649  -16.5442  146.3695 C   0  0  0  0  0  0  0  0  0  0  0  0
  -23.8901  -18.8081  146.4138 C   0  0  0  0  0  0  0  0  0  0  0  0
  -26.3770  -12.9825  145.6528 C   0  0  0  0  0  0  0  0  0  0  0  0
  -25.6690  -11.8041  145.5590 C   0  0  0  0  0  0  0  0  0  0  0  0
  -27.5468  -12.8359  146.5937 C   0  0  0  0  0  0  0  0  0  0  0  0
  -28.4422  -11.7546  146.3600 C   0  0  0  0  0  0  0  0  0  0  0  0
  -26.5217  -10.5563  145.3410 C   0  0  0  0  0  0  0  0  0  0  0  0
  -27.9010  -10.5756  145.7991 C   0  0  0  0  0  0  0  0  0  0  0  0
  -29.7144  -11.8560  147.0347 C   0  0  0  0  0  0  0  0  0  0  0  0
  -29.8360  -11.7782  148.0803 O   0  0  0  0  0  0  0  0  0  0  0  0
  -30.7080  -11.8137  146.1592 O   0  0  0  0  0  0  0  0  0  0  0  0
  -24.8141  -18.6350  147.4000 N   0  0  0  0  0  0  0  0  0  0  0  0
  -25.4840  -17.4442  147.5058 C   0  0  0  0  0  0  0  0  0  0  0  0
  -26.3100  -17.3265  148.4666 O   0  0  0  0  0  0  0  0  0  0  0  0
  1  2  1  0
  1  8  1  0
  5  9  1  0
 12 15  1  0
 15 16  1  0
 15 17  2  0
  7 19  1  0
 18 19  1  0
 19 20  2  0
  8 18  1  0
  9 10  2  0
 10 13  1  0
 13 14  2  0
 14 12  1  0
 12 11  2  0
 11  9  1  0
  2  3  2  0
  3  4  1  0
  4  5  2  0
  5  6  1  0
  6  7  2  0
  7  2  1  0
M  END

$$$$
No_438-/dssg/home/sw_qyf/PocketFlow/Model-Generation-Results/5HT2A_7WC7_rec_A_10.pdb/2024-01-01-03-54-21/
     RDKit          3D

 18 19  0  0  0  0  0  0  0  0999 V2000
  -24.1553  -17.8465  145.7021 C   0  0  0  0  0  0  0  0  0  0  0  0
  -24.2856  -16.6364  145.3494 C   0  0  0  0  0  0  0  0  0  0  0  0
  -24.7211  -15.5955  146.2115 C   0  0  0  0  0  0  0  0  0  0  0  0
  -24.8538  -14.2010  145.8739 C   0  0  0  0  0  0  0  0  0  0  0  0
  -24.1440  -13.8321  144.7074 C   0  0  0  0  0  0  0  0  0  0  0  0
  -24.0490  -12.4548  144.4544 C   0  0  0  0  0  0  0  0  0  0  0  0
  -24.6156  -18.2742  146.9602 C   0  0  0  0  0  0  0  0  0  0  0  0
  -25.1246  -17.4081  147.9306 C   0  0  0  0  0  0  0  0  0  0  0  0
  -25.2093  -15.9946  147.5609 C   0  0  0  0  0  0  0  0  0  0  0  0
  -22.8171  -12.0589  145.2848 C   0  0  0  0  0  0  0  0  0  0  0  0
  -26.2677  -13.6715  145.9743 C   0  0  0  0  0  0  0  0  0  0  0  0
  -26.7365  -12.8914  145.0555 C   0  0  0  0  0  0  0  0  0  0  0  0
  -26.3106  -12.0465  144.3147 C   0  0  0  0  0  0  0  0  0  0  0  0
  -27.2048  -11.0083  143.5750 C   0  0  0  0  0  0  0  0  0  0  0  0
  -27.7380  -11.0753  142.3688 C   0  0  0  0  0  0  0  0  0  0  0  0
  -27.8140  -12.2107  141.7146 C   0  0  0  0  0  0  0  0  0  0  0  0
  -28.2292  -12.3569  140.3605 C   0  0  0  0  0  0  0  0  0  0  0  0
  -24.8949  -11.8041  144.0407 C   0  0  0  0  0  0  0  0  0  0  0  0
  3  4  1  0
  4  5  1  0
  5  6  1  0
  6 10  1  0
  4 11  1  0
 11 12  2  0
 12 13  1  0
 13 14  1  0
 14 15  1  0
 15 16  2  3
 16 17  1  0
  6 18  1  0
 13 18  1  0
  1  2  2  0
  2  3  1  0
  3  9  2  0
  9  8  1  0
  8  7  2  0
  7  1  1  0
M  END

$$$$
No_439-/dssg/home/sw_qyf/PocketFlow/Model-Generation-Results/5HT2A_7WC7_rec_A_10.pdb/2024-01-01-03-54-21/
     RDKit          3D

 29 32  0  0  0  0  0  0  0  0999 V2000
  -24.1553  -17.8465  145.7021 C   0  0  0  0  0  0  0  0  0  0  0  0
  -23.9795  -18.4462  146.7426 C   0  0  0  0  0  0  0  0  0  0  0  0
  -25.1196  -16.8106  145.6409 C   0  0  0  0  0  0  0  0  0  0  0  0
  -25.9236  -16.5070  146.7422 C   0  0  0  0  0  0  0  0  0  0  0  0
  -26.9588  -15.5563  146.6458 C   0  0  0  0  0  0  0  0  0  0  0  0
  -26.8348  -14.5437  145.7143 C   0  0  0  0  0  0  0  0  0  0  0  0
  -27.7742  -13.4711  145.6231 C   0  0  0  0  0  0  0  0  0  0  0  0
  -27.5310  -12.2812  144.8687 C   0  0  0  0  0  0  0  0  0  0  0  0
  -28.2199  -11.1034  145.0943 C   0  0  0  0  0  0  0  0  0  0  0  0
  -28.0186   -9.9491  144.2812 C   0  0  0  0  0  0  0  0  0  0  0  0
  -24.6655  -18.2306  147.9645 C   0  0  0  0  0  0  0  0  0  0  0  0
  -25.6940  -17.1968  147.9316 C   0  0  0  0  0  0  0  0  0  0  0  0
  -29.0092   -9.7731  143.2158 C   0  0  0  0  0  0  0  0  0  0  0  0
  -30.0693   -9.1224  143.4488 C   0  0  0  0  0  0  0  0  0  0  0  0
  -31.0143   -8.7875  142.3983 C   0  0  0  0  0  0  0  0  0  0  0  0
  -25.1558  -15.8632  144.4850 C   0  0  0  0  0  0  0  0  0  0  0  0
  -26.0422  -14.7377  144.5613 C   0  0  0  0  0  0  0  0  0  0  0  0
  -28.5998  -10.2286  141.9487 C   0  0  0  0  0  0  0  0  0  0  0  0
  -28.2827   -9.4166  140.9581 C   0  0  0  0  0  0  0  0  0  0  0  0
  -32.2070   -8.7526  142.5160 O   0  0  0  0  0  0  0  0  0  0  0  0
  -27.5498   -9.9728  139.8183 C   0  0  0  0  0  0  0  0  0  0  0  0
  -27.3698  -11.3541  139.7701 C   0  0  0  0  0  0  0  0  0  0  0  0
  -27.8285  -12.1983  140.8008 C   0  0  0  0  0  0  0  0  0  0  0  0
  -28.3277  -11.6384  141.8753 C   0  0  0  0  0  0  0  0  0  0  0  0
  -26.8087  -11.9114  138.6311 N   0  0  0  0  0  0  0  0  0  0  0  0
  -30.6003   -8.4062  141.2277 O   0  0  0  0  0  0  0  0  0  0  0  0
  -29.5590  -11.2720  145.6983 C   0  0  0  0  0  0  0  0  0  0  0  0
  -29.6107  -12.2726  146.7966 C   0  0  0  0  0  0  0  0  0  0  0  0
  -28.8291  -13.4543  146.6710 C   0  0  0  0  0  0  0  0  0  0  0  0
  6  7  1  0
  9 10  1  0
 10 13  1  0
 13 14  2  3
 14 15  1  0
 13 18  1  0
 15 20  1  0
 22 25  1  0
 15 26  2  0
  1  2  2  0
  2 11  1  0
 11 12  2  0
 12  4  1  0
  3  1  1  0
 18 19  2  0
 19 21  1  0
 21 22  2  0
 22 23  1  0
 23 24  2  0
 24 18  1  0
  3  4  2  0
  4  5  1  0
  5  6  2  0
  6 17  1  0
 17 16  2  0
 16  3  1  0
  7  8  2  0
  8  9  1  0
  9 27  2  0
 27 28  1  0
 28 29  2  0
 29  7  1  0
M  END

$$$$
No_440-/dssg/home/sw_qyf/PocketFlow/Model-Generation-Results/5HT2A_7WC7_rec_A_10.pdb/2024-01-01-03-54-21/
     RDKit          3D

 33 36  0  0  0  0  0  0  0  0999 V2000
  -24.1553  -17.8465  145.7021 C   0  0  0  0  0  0  0  0  0  0  0  0
  -24.2856  -16.6364  145.3494 C   0  0  0  0  0  0  0  0  0  0  0  0
  -25.0033  -15.6772  146.0737 C   0  0  0  0  0  0  0  0  0  0  0  0
  -25.1197  -14.2835  145.7299 C   0  0  0  0  0  0  0  0  0  0  0  0
  -24.2707  -13.8793  144.6500 C   0  0  0  0  0  0  0  0  0  0  0  0
  -24.8686  -18.3355  146.8179 C   0  0  0  0  0  0  0  0  0  0  0  0
  -25.6154  -17.5363  147.5807 C   0  0  0  0  0  0  0  0  0  0  0  0
  -25.7525  -16.1597  147.2668 C   0  0  0  0  0  0  0  0  0  0  0  0
  -24.2176  -12.4904  144.4025 C   0  0  0  0  0  0  0  0  0  0  0  0
  -25.0858  -11.5947  145.1718 C   0  0  0  0  0  0  0  0  0  0  0  0
  -25.1824  -10.2344  144.9587 C   0  0  0  0  0  0  0  0  0  0  0  0
  -25.6590  -13.2244  146.4720 C   0  0  0  0  0  0  0  0  0  0  0  0
  -25.7660  -11.9924  146.2945 C   0  0  0  0  0  0  0  0  0  0  0  0
  -26.6290   -9.7545  144.7187 C   0  0  0  0  0  0  0  0  0  0  0  0
  -27.4596  -10.2223  143.7166 C   0  0  0  0  0  0  0  0  0  0  0  0
  -28.6689   -9.6060  143.4935 C   0  0  0  0  0  0  0  0  0  0  0  0
  -29.7833  -10.2644  143.7333 C   0  0  0  0  0  0  0  0  0  0  0  0
  -29.5947  -10.9017  144.9321 C   0  0  0  0  0  0  0  0  0  0  0  0
  -30.2904  -10.4203  146.1870 C   0  0  0  0  0  0  0  0  0  0  0  0
  -30.1618  -11.2608  147.4049 C   0  0  0  0  0  0  0  0  0  0  0  0
  -29.3630  -12.4573  147.3611 C   0  0  0  0  0  0  0  0  0  0  0  0
  -29.4272  -13.2479  148.5288 C   0  0  0  0  0  0  0  0  0  0  0  0
  -29.0061  -14.6470  148.3784 C   0  0  0  0  0  0  0  0  0  0  0  0
  -28.5969  -15.0756  147.0490 C   0  0  0  0  0  0  0  0  0  0  0  0
  -28.7142  -14.1999  145.9696 C   0  0  0  0  0  0  0  0  0  0  0  0
  -29.1340  -12.9388  146.1144 C   0  0  0  0  0  0  0  0  0  0  0  0
  -29.1432  -12.2004  145.0034 N   0  0  0  0  0  0  0  0  0  0  0  0
  -30.9494  -10.1861  143.0170 C   0  0  0  0  0  0  0  0  0  0  0  0
  -31.0864   -9.2622  142.2115 O   0  0  0  0  0  0  0  0  0  0  0  0
  -23.5452  -14.6046  143.9122 O   0  0  0  0  0  0  0  0  0  0  0  0
  -30.8091   -7.9495  142.6624 C   0  0  0  0  0  0  0  0  0  0  0  0
  -31.5351   -7.0177  142.6125 C   0  0  0  0  0  0  0  0  0  0  0  0
  -29.3260   -7.6431  143.0171 C   0  0  0  0  0  0  0  0  0  0  0  0
  3  4  1  0
 10 11  1  0
 11 14  1  0
 14 15  1  0
 15 16  2  3
 16 17  1  0
 17 18  1  0
 17 28  1  0
 28 29  1  0
  5 30  1  0
 29 31  1  0
 31 32  2  0
 31 33  1  0
  4  5  2  0
  5  9  1  0
  9 10  2  0
 10 13  1  0
 13 12  2  0
 12  4  1  0
 18 19  2  0
 19 20  1  0
 20 21  2  0
 26 27  2  0
 27 18  1  0
  1  2  2  0
  2  3  1  0
  3  8  2  0
  8  7  1  0
  7  6  2  0
  6  1  1  0
 21 22  1  0
 22 23  2  0
 23 24  1  0
 24 25  2  0
 25 26  1  0
 26 21  1  0
M  END

$$$$
No_441-/dssg/home/sw_qyf/PocketFlow/Model-Generation-Results/5HT2A_7WC7_rec_A_10.pdb/2024-01-01-03-54-21/
     RDKit          3D

 26 28  0  0  0  0  0  0  0  0999 V2000
  -24.1553  -17.8465  145.7021 C   0  0  0  0  0  0  0  0  0  0  0  0
  -23.9795  -18.4462  146.7426 C   0  0  0  0  0  0  0  0  0  0  0  0
  -23.2486  -17.2339  144.9771 C   0  0  0  0  0  0  0  0  0  0  0  0
  -24.9812  -19.0362  147.5824 C   0  0  0  0  0  0  0  0  0  0  0  0
  -23.7180  -16.2391  144.0023 C   0  0  0  0  0  0  0  0  0  0  0  0
  -24.1691  -14.9522  144.6878 C   0  0  0  0  0  0  0  0  0  0  0  0
  -24.1546  -13.8262  144.0736 C   0  0  0  0  0  0  0  0  0  0  0  0
  -24.4491  -12.5835  144.8018 C   0  0  0  0  0  0  0  0  0  0  0  0
  -25.0115  -12.6883  146.1519 C   0  0  0  0  0  0  0  0  0  0  0  0
  -25.0777  -13.9742  146.7882 C   0  0  0  0  0  0  0  0  0  0  0  0
  -24.6739  -15.1076  146.0796 C   0  0  0  0  0  0  0  0  0  0  0  0
  -25.3248  -11.5865  146.8745 N   0  0  0  0  0  0  0  0  0  0  0  0
  -25.8963  -17.9931  147.7187 C   0  0  0  0  0  0  0  0  0  0  0  0
  -26.5190  -17.4577  146.5880 C   0  0  0  0  0  0  0  0  0  0  0  0
  -27.7730  -16.7248  146.7310 C   0  0  0  0  0  0  0  0  0  0  0  0
  -28.1804  -15.7649  145.7882 C   0  0  0  0  0  0  0  0  0  0  0  0
  -25.5090  -17.1715  145.6205 C   0  0  0  0  0  0  0  0  0  0  0  0
  -27.9814  -14.3386  146.4001 C   0  0  0  0  0  0  0  0  0  0  0  0
  -28.4894  -14.0220  147.6733 C   0  0  0  0  0  0  0  0  0  0  0  0
  -25.6783  -16.0948  146.1559 O   0  0  0  0  0  0  0  0  0  0  0  0
  -27.7910  -13.2723  145.4211 C   0  0  0  0  0  0  0  0  0  0  0  0
  -28.4205  -12.0119  145.5489 C   0  0  0  0  0  0  0  0  0  0  0  0
  -29.4811  -11.7872  145.5819 C   0  0  0  0  0  0  0  0  0  0  0  0
  -30.0685  -10.4091  145.6089 C   0  0  0  0  0  0  0  0  0  0  0  0
  -30.8042  -10.1340  146.6223 F   0  0  0  0  0  0  0  0  0  0  0  0
  -29.2940   -9.6527  145.5470 F   0  0  0  0  0  0  0  0  0  0  0  0
  1  2  1  0
  1  3  2  0
  2  4  1  0
  3  5  1  0
  5  6  1  0
  9 12  1  0
  4 13  1  0
 13 14  1  0
 14 15  1  0
 15 16  1  0
  1 17  1  0
 14 17  1  0
 16 18  1  0
 18 19  1  0
 11 20  1  0
 17 20  1  0
 18 21  1  0
 21 22  2  3
 22 23  1  0
 23 24  2  3
 24 25  1  0
 24 26  1  0
  6  7  2  0
  7  8  1  0
  8  9  2  0
  9 10  1  0
 10 11  2  0
 11  6  1  0
M  END

$$$$
No_442-/dssg/home/sw_qyf/PocketFlow/Model-Generation-Results/5HT2A_7WC7_rec_A_10.pdb/2024-01-01-03-54-21/
     RDKit          3D

 32 36  0  0  0  0  0  0  0  0999 V2000
  -24.1553  -17.8465  145.7021 C   0  0  0  0  0  0  0  0  0  0  0  0
  -23.9795  -18.4462  146.7426 C   0  0  0  0  0  0  0  0  0  0  0  0
  -25.1196  -16.8106  145.6409 C   0  0  0  0  0  0  0  0  0  0  0  0
  -25.9236  -16.5070  146.7422 C   0  0  0  0  0  0  0  0  0  0  0  0
  -25.6627  -17.1841  147.9274 C   0  0  0  0  0  0  0  0  0  0  0  0
  -24.6813  -18.1540  148.0079 C   0  0  0  0  0  0  0  0  0  0  0  0
  -26.9729  -15.4522  146.6544 C   0  0  0  0  0  0  0  0  0  0  0  0
  -26.7507  -14.3946  145.8814 C   0  0  0  0  0  0  0  0  0  0  0  0
  -25.5400  -14.0876  145.2155 C   0  0  0  0  0  0  0  0  0  0  0  0
  -25.3056  -12.8512  144.5111 C   0  0  0  0  0  0  0  0  0  0  0  0
  -26.5049  -12.1987  144.2092 C   0  0  0  0  0  0  0  0  0  0  0  0
  -27.7455  -12.4426  144.8399 C   0  0  0  0  0  0  0  0  0  0  0  0
  -27.8487  -13.5015  145.6532 C   0  0  0  0  0  0  0  0  0  0  0  0
  -28.8490  -11.4775  144.6338 C   0  0  0  0  0  0  0  0  0  0  0  0
  -28.6497  -10.1035  144.6753 C   0  0  0  0  0  0  0  0  0  0  0  0
  -27.3792   -9.6416  144.2848 C   0  0  0  0  0  0  0  0  0  0  0  0
  -26.2624  -10.6846  144.2576 C   0  0  0  0  0  0  0  0  0  0  0  0
  -28.2978  -16.1925  146.5493 C   0  0  0  0  0  0  0  0  0  0  0  0
  -29.7341   -9.2896  144.5930 N   0  0  0  0  0  0  0  0  0  0  0  0
  -30.6338   -9.1633  143.6316 C   0  0  0  0  0  0  0  0  0  0  0  0
  -30.6079   -9.9087  142.7072 O   0  0  0  0  0  0  0  0  0  0  0  0
  -30.9882   -7.7225  143.2987 C   0  0  0  0  0  0  0  0  0  0  0  0
  -30.2516   -7.3273  142.0309 C   0  0  0  0  0  0  0  0  0  0  0  0
  -29.4276   -6.1665  142.0465 C   0  0  0  0  0  0  0  0  0  0  0  0
  -28.9276   -5.7241  140.8376 C   0  0  0  0  0  0  0  0  0  0  0  0
  -29.1031   -6.5614  139.6809 C   0  0  0  0  0  0  0  0  0  0  0  0
  -29.7664   -7.7757  139.8066 C   0  0  0  0  0  0  0  0  0  0  0  0
  -30.4028   -8.0899  140.9906 C   0  0  0  0  0  0  0  0  0  0  0  0
  -24.4399  -12.0733  145.2935 O   0  0  0  0  0  0  0  0  0  0  0  0
  -23.8912  -12.5885  146.4289 C   0  0  0  0  0  0  0  0  0  0  0  0
  -24.1813  -14.0612  146.4390 C   0  0  0  0  0  0  0  0  0  0  0  0
  -23.5058  -18.1038  144.5767 O   0  0  0  0  0  0  0  0  0  0  0  0
  4  7  1  0
 12 14  1  0
 14 15  1  0
 15 16  1  0
 11 17  1  0
 16 17  1  0
  7 18  1  0
 15 19  1  0
 19 20  1  0
 20 21  2  0
 20 22  1  0
 22 23  1  0
 10 29  1  0
 29 30  1  0
  9 31  1  0
 30 31  1  0
  1 32  1  0
  7  8  1  0
 23 24  2  0
 24 25  1  0
 25 26  2  0
 26 27  1  0
 27 28  2  0
 28 23  1  0
  1  2  2  0
  2  6  1  0
  6  5  2  0
  5  4  1  0
  4  3  2  0
  3  1  1  0
  8  9  2  0
  9 10  1  0
 10 11  2  0
 11 12  1  0
 12 13  2  0
 13  8  1  0
M  END

$$$$
No_443-/dssg/home/sw_qyf/PocketFlow/Model-Generation-Results/5HT2A_7WC7_rec_A_10.pdb/2024-01-01-03-54-21/
     RDKit          3D

 32 33  0  0  0  0  0  0  0  0999 V2000
  -23.8931  -18.2534  145.3804 F   0  0  0  0  0  0  0  0  0  0  0  0
  -24.1483  -17.4442  146.3400 C   0  0  0  0  0  0  0  0  0  0  0  0
  -24.4181  -16.0969  145.9075 C   0  0  0  0  0  0  0  0  0  0  0  0
  -24.0234  -15.7071  144.6250 C   0  0  0  0  0  0  0  0  0  0  0  0
  -24.2256  -14.3810  144.1986 C   0  0  0  0  0  0  0  0  0  0  0  0
  -24.8211  -13.4403  145.1211 C   0  0  0  0  0  0  0  0  0  0  0  0
  -25.2448  -13.8655  146.3935 C   0  0  0  0  0  0  0  0  0  0  0  0
  -24.9807  -15.1798  146.8479 C   0  0  0  0  0  0  0  0  0  0  0  0
  -25.2385  -17.8752  147.0963 F   0  0  0  0  0  0  0  0  0  0  0  0
  -23.0096  -17.4885  147.1492 F   0  0  0  0  0  0  0  0  0  0  0  0
  -25.0316  -12.1529  144.7923 O   0  0  0  0  0  0  0  0  0  0  0  0
  -25.6722  -11.3238  145.7799 C   0  0  0  0  0  0  0  0  0  0  0  0
  -26.7262  -10.5348  145.1897 C   0  0  0  0  0  0  0  0  0  0  0  0
  -27.6114  -11.0447  144.2676 C   0  0  0  0  0  0  0  0  0  0  0  0
  -28.1502  -12.2243  144.4143 C   0  0  0  0  0  0  0  0  0  0  0  0
  -27.8380  -10.2823  143.0388 C   0  0  0  0  0  0  0  0  0  0  0  0
  -28.4036  -10.7941  141.9763 C   0  0  0  0  0  0  0  0  0  0  0  0
  -27.8891  -12.9483  145.6585 C   0  0  0  0  0  0  0  0  0  0  0  0
  -28.2903  -10.3508  140.6706 C   0  0  0  0  0  0  0  0  0  0  0  0
  -27.6546  -11.0328  139.6661 C   0  0  0  0  0  0  0  0  0  0  0  0
  -27.2270  -12.3158  139.9030 C   0  0  0  0  0  0  0  0  0  0  0  0
  -26.2419  -12.8527  139.0706 C   0  0  0  0  0  0  0  0  0  0  0  0
  -28.6049   -8.9136  140.6462 C   0  0  0  0  0  0  0  0  0  0  0  0
  -29.5312   -8.2931  141.4431 C   0  0  0  0  0  0  0  0  0  0  0  0
  -29.5077   -6.8848  141.5853 C   0  0  0  0  0  0  0  0  0  0  0  0
  -29.3943   -6.0552  140.7882 C   0  0  0  0  0  0  0  0  0  0  0  0
  -27.9046  -12.2325  146.8298 C   0  0  0  0  0  0  0  0  0  0  0  0
  -26.2995  -12.1217  146.8956 O   0  0  0  0  0  0  0  0  0  0  0  0
  -28.1042  -14.2424  145.6371 O   0  0  0  0  0  0  0  0  0  0  0  0
  -24.7234  -12.9101  139.8693 S   0  0  0  0  0  0  0  0  0  0  0  0
  -24.7098  -12.8393  141.2873 O   0  0  0  0  0  0  0  0  0  0  0  0
  -23.8543  -13.3465  138.8990 O   0  0  0  0  0  0  0  0  0  0  0  0
  1  2  1  0
  2  3  1  0
  2  9  1  0
  2 10  1  0
  6 11  1  0
 11 12  1  0
 12 13  1  0
 13 14  1  0
 14 15  2  0
 14 16  1  0
 16 17  2  3
 15 18  1  0
 17 19  1  0
 19 20  1  0
 20 21  1  0
 21 22  1  0
 19 23  1  0
 23 24  1  0
 24 25  1  0
 25 26  2  0
 18 27  1  0
 12 28  1  0
 27 28  1  0
 18 29  1  0
 22 30  1  0
 30 31  2  0
 30 32  2  0
  3  4  2  0
  4  5  1  0
  5  6  2  0
  6  7  1  0
  7  8  2  0
  8  3  1  0
M  END

$$$$
No_444-/dssg/home/sw_qyf/PocketFlow/Model-Generation-Results/5HT2A_7WC7_rec_A_10.pdb/2024-01-01-03-54-21/
     RDKit          3D

 35 37  0  0  0  0  0  0  0  0999 V2000
  -23.1746  -16.6014  144.8668 C   0  0  0  0  0  0  0  0  0  0  0  0
  -24.0189  -16.0564  145.8445 C   0  0  0  0  0  0  0  0  0  0  0  0
  -24.4145  -16.8299  146.9062 C   0  0  0  0  0  0  0  0  0  0  0  0
  -25.2730  -16.2838  147.9150 C   0  0  0  0  0  0  0  0  0  0  0  0
  -26.0161  -15.1622  147.5289 C   0  0  0  0  0  0  0  0  0  0  0  0
  -24.6387  -14.7196  145.5888 C   0  0  0  0  0  0  0  0  0  0  0  0
  -25.6044  -14.2984  146.5741 C   0  0  0  0  0  0  0  0  0  0  0  0
  -24.2581  -13.8554  144.5752 C   0  0  0  0  0  0  0  0  0  0  0  0
  -24.9915  -13.5086  143.8672 O   0  0  0  0  0  0  0  0  0  0  0  0
  -22.9127  -13.4957  144.5065 O   0  0  0  0  0  0  0  0  0  0  0  0
  -23.8991  -18.1762  147.1386 C   0  0  0  0  0  0  0  0  0  0  0  0
  -23.3017  -18.5509  148.1245 O   0  0  0  0  0  0  0  0  0  0  0  0
  -24.6377  -19.1632  146.4629 N   0  0  0  0  0  0  0  0  0  0  0  0
  -26.2943  -13.0977  146.2128 C   0  0  0  0  0  0  0  0  0  0  0  0
  -27.6616  -12.9956  146.1940 C   0  0  0  0  0  0  0  0  0  0  0  0
  -28.2737  -11.6922  145.9728 C   0  0  0  0  0  0  0  0  0  0  0  0
  -29.6786  -11.5412  146.0574 C   0  0  0  0  0  0  0  0  0  0  0  0
  -30.1033  -10.2048  145.7166 C   0  0  0  0  0  0  0  0  0  0  0  0
  -29.5638   -9.6170  144.5076 C   0  0  0  0  0  0  0  0  0  0  0  0
  -30.2699   -8.7504  143.7092 C   0  0  0  0  0  0  0  0  0  0  0  0
  -30.4877   -8.8132  142.6167 C   0  0  0  0  0  0  0  0  0  0  0  0
  -29.6176   -9.4809  141.6919 C   0  0  0  0  0  0  0  0  0  0  0  0
  -29.4291   -9.3343  140.3711 C   0  0  0  0  0  0  0  0  0  0  0  0
  -28.2307   -9.7585  139.7549 C   0  0  0  0  0  0  0  0  0  0  0  0
  -27.5618  -10.9230  140.2738 C   0  0  0  0  0  0  0  0  0  0  0  0
  -26.6524  -11.6003  139.4750 C   0  0  0  0  0  0  0  0  0  0  0  0
  -28.0410  -11.5313  141.5143 C   0  0  0  0  0  0  0  0  0  0  0  0
  -28.9507  -10.7096  142.3207 C   0  0  0  0  0  0  0  0  0  0  0  0
  -31.6448   -8.1955  141.9096 C   0  0  0  0  0  0  0  0  0  0  0  0
  -25.8837  -11.1841  138.7054 O   0  0  0  0  0  0  0  0  0  0  0  0
  -26.6241  -12.9459  139.6389 O   0  0  0  0  0  0  0  0  0  0  0  0
  -27.4888  -10.7340  145.2170 C   0  0  0  0  0  0  0  0  0  0  0  0
  -28.1882   -9.9361  144.3165 C   0  0  0  0  0  0  0  0  0  0  0  0
  -30.3219  -12.2799  146.8960 O   0  0  0  0  0  0  0  0  0  0  0  0
  -29.6809  -12.8204  148.0467 C   0  0  0  0  0  0  0  0  0  0  0  0
  1  2  1  0
  6  8  1  0
  8  9  2  0
  8 10  1  0
  3 11  1  0
 11 12  2  0
 11 13  1  0
  7 14  1  0
 14 15  2  3
 15 16  1  0
 19 20  1  0
 20 21  1  0
 21 22  1  0
 25 26  1  0
 21 29  1  0
 26 30  1  0
 26 31  2  0
 17 34  1  0
 34 35  1  0
  2  3  2  0
  3  4  1  0
  4  5  2  0
  5  7  1  0
  7  6  2  0
  6  2  1  0
 16 17  2  0
 17 18  1  0
 18 19  2  0
 19 33  1  0
 33 32  2  0
 32 16  1  0
 22 23  2  0
 23 24  1  0
 24 25  2  0
 25 27  1  0
 27 28  2  0
 28 22  1  0
M  END

$$$$
No_445-/dssg/home/sw_qyf/PocketFlow/Model-Generation-Results/5HT2A_7WC7_rec_A_10.pdb/2024-01-01-03-54-21/
     RDKit          3D

 34 36  0  0  0  0  0  0  0  0999 V2000
  -23.1746  -16.6014  144.8668 C   0  0  0  0  0  0  0  0  0  0  0  0
  -23.7011  -17.0158  145.9774 C   0  0  0  0  0  0  0  0  0  0  0  0
  -24.2134  -16.0722  146.8877 C   0  0  0  0  0  0  0  0  0  0  0  0
  -24.7882  -16.3410  148.2078 C   0  0  0  0  0  0  0  0  0  0  0  0
  -23.5800  -15.2232  144.4665 C   0  0  0  0  0  0  0  0  0  0  0  0
  -24.2035  -14.2633  145.2990 C   0  0  0  0  0  0  0  0  0  0  0  0
  -24.5441  -14.6899  146.5406 C   0  0  0  0  0  0  0  0  0  0  0  0
  -23.5296  -18.4166  146.4575 C   0  0  0  0  0  0  0  0  0  0  0  0
  -24.3584  -12.8867  144.8608 C   0  0  0  0  0  0  0  0  0  0  0  0
  -25.5686  -12.3505  145.0031 N   0  0  0  0  0  0  0  0  0  0  0  0
  -25.7737  -11.0775  145.1491 C   0  0  0  0  0  0  0  0  0  0  0  0
  -27.1924  -10.5718  145.1933 C   0  0  0  0  0  0  0  0  0  0  0  0
  -28.1336  -11.5896  145.4660 C   0  0  0  0  0  0  0  0  0  0  0  0
  -29.4402  -11.1697  145.6190 C   0  0  0  0  0  0  0  0  0  0  0  0
  -30.3036  -12.0866  146.2554 C   0  0  0  0  0  0  0  0  0  0  0  0
  -29.4927  -12.8379  147.3277 C   0  0  0  0  0  0  0  0  0  0  0  0
  -30.3061  -13.7324  148.1448 C   0  0  0  0  0  0  0  0  0  0  0  0
  -31.3593  -13.2508  148.7941 C   0  0  0  0  0  0  0  0  0  0  0  0
  -31.0639  -12.7913  150.0490 C   0  0  0  0  0  0  0  0  0  0  0  0
  -32.2698  -12.3593  150.9098 C   0  0  0  0  0  0  0  0  0  0  0  0
  -33.3177  -11.8112  150.1888 C   0  0  0  0  0  0  0  0  0  0  0  0
  -33.4679  -12.1736  148.8214 C   0  0  0  0  0  0  0  0  0  0  0  0
  -32.4423  -12.7393  148.1727 C   0  0  0  0  0  0  0  0  0  0  0  0
  -26.8311  -13.0711  145.1017 C   0  0  0  0  0  0  0  0  0  0  0  0
  -27.8418  -13.0958  144.3921 O   0  0  0  0  0  0  0  0  0  0  0  0
  -27.6017  -11.9995  146.9617 C   0  0  0  0  0  0  0  0  0  0  0  0
  -28.2051  -12.7031  147.5274 C   0  0  0  0  0  0  0  0  0  0  0  0
  -22.5555  -18.9337  146.8051 O   0  0  0  0  0  0  0  0  0  0  0  0
  -24.6801  -19.1374  146.5165 O   0  0  0  0  0  0  0  0  0  0  0  0
  -26.0565  -16.4503  148.4894 O   0  0  0  0  0  0  0  0  0  0  0  0
  -23.8926  -16.8758  149.1506 O   0  0  0  0  0  0  0  0  0  0  0  0
  -23.4352  -12.2976  144.4536 O   0  0  0  0  0  0  0  0  0  0  0  0
  -30.0069  -10.8129  144.1972 C   0  0  0  0  0  0  0  0  0  0  0  0
  -27.6690  -12.2572  143.4321 C   0  0  0  0  0  0  0  0  0  0  0  0
  3  4  1  0
  2  8  1  0
  6  9  1  0
  9 10  1  0
 10 11  1  0
 11 12  1  0
 12 13  1  0
 16 17  1  0
 17 18  1  0
 10 24  1  0
 24 25  1  0
  8 28  2  0
  8 29  1  0
  4 30  2  0
  4 31  1  0
  9 32  2  0
 14 33  1  0
 25 34  1  0
 18 19  2  0
 19 20  1  0
 20 21  2  0
 21 22  1  0
 22 23  2  0
 23 18  1  0
  1  2  2  0
  2  3  1  0
  3  7  2  0
  7  6  1  0
  6  5  2  0
  5  1  1  0
 13 14  2  0
 14 15  1  0
 15 16  2  0
 16 27  1  0
 27 26  2  0
 26 13  1  0
M  END

$$$$
No_446-/dssg/home/sw_qyf/PocketFlow/Model-Generation-Results/5HT2A_7WC7_rec_A_10.pdb/2024-01-01-03-54-21/
     RDKit          3D

  9  9  0  0  0  0  0  0  0  0999 V2000
  -24.1553  -17.8465  145.7021 C   0  0  0  0  0  0  0  0  0  0  0  0
  -24.2856  -16.6364  145.3494 C   0  0  0  0  0  0  0  0  0  0  0  0
  -24.7211  -15.5955  146.2115 C   0  0  0  0  0  0  0  0  0  0  0  0
  -25.1322  -16.0374  147.5372 C   0  0  0  0  0  0  0  0  0  0  0  0
  -24.5163  -18.2968  146.9928 C   0  0  0  0  0  0  0  0  0  0  0  0
  -24.9534  -17.3074  147.9886 C   0  0  0  0  0  0  0  0  0  0  0  0
  -24.8795  -14.1918  145.8039 C   0  0  0  0  0  0  0  0  0  0  0  0
  -25.6511  -13.2777  146.3865 C   0  0  0  0  0  0  0  0  0  0  0  0
  -25.6393  -11.9359  145.9978 C   0  0  0  0  0  0  0  0  0  0  0  0
  3  7  1  0
  7  8  2  3
  8  9  1  0
  1  2  2  0
  2  3  1  0
  3  4  2  0
  4  6  1  0
  6  5  2  0
  5  1  1  0
M  END

$$$$
No_447-/dssg/home/sw_qyf/PocketFlow/Model-Generation-Results/5HT2A_7WC7_rec_A_10.pdb/2024-01-01-03-54-21/
     RDKit          3D

 19 20  0  0  0  0  0  0  0  0999 V2000
  -24.1553  -17.8465  145.7021 C   0  0  0  0  0  0  0  0  0  0  0  0
  -24.6364  -17.2931  146.7091 C   0  0  0  0  0  0  0  0  0  0  0  0
  -24.0780  -17.2921  147.9389 C   0  0  0  0  0  0  0  0  0  0  0  0
  -24.6761  -16.7363  149.1478 C   0  0  0  0  0  0  0  0  0  0  0  0
  -25.9985  -16.2638  148.9932 C   0  0  0  0  0  0  0  0  0  0  0  0
  -26.6270  -16.3412  147.7728 C   0  0  0  0  0  0  0  0  0  0  0  0
  -25.9734  -16.9165  146.6819 C   0  0  0  0  0  0  0  0  0  0  0  0
  -23.8394  -16.9427  144.6493 N   0  0  0  0  0  0  0  0  0  0  0  0
  -23.7980  -19.0410  145.4510 O   0  0  0  0  0  0  0  0  0  0  0  0
  -28.0563  -15.9006  147.7420 C   0  0  0  0  0  0  0  0  0  0  0  0
  -28.4137  -14.7858  146.9983 C   0  0  0  0  0  0  0  0  0  0  0  0
  -29.7686  -14.2649  147.1947 C   0  0  0  0  0  0  0  0  0  0  0  0
  -30.1498  -13.0645  146.5487 C   0  0  0  0  0  0  0  0  0  0  0  0
  -29.0973  -12.2886  145.9512 C   0  0  0  0  0  0  0  0  0  0  0  0
  -27.7740  -12.7403  145.8862 C   0  0  0  0  0  0  0  0  0  0  0  0
  -27.4457  -13.9688  146.5316 C   0  0  0  0  0  0  0  0  0  0  0  0
  -29.3672  -10.9653  145.2182 C   0  0  0  0  0  0  0  0  0  0  0  0
  -28.5720  -10.4178  144.2778 C   0  0  0  0  0  0  0  0  0  0  0  0
  -27.1120  -10.8856  144.4526 C   0  0  0  0  0  0  0  0  0  0  0  0
  1  2  1  0
  1  8  1  0
  1  9  2  0
  6 10  1  0
 14 17  1  0
 17 18  2  3
 18 19  1  0
 10 11  1  0
 11 12  2  0
 12 13  1  0
 13 14  2  0
 14 15  1  0
 15 16  2  0
 16 11  1  0
  2  3  2  0
  3  4  1  0
  4  5  2  0
  5  6  1  0
  6  7  2  0
  7  2  1  0
M  END

$$$$
No_448-/dssg/home/sw_qyf/PocketFlow/Model-Generation-Results/5HT2A_7WC7_rec_A_10.pdb/2024-01-01-03-54-21/
     RDKit          3D

 35 38  0  0  0  0  0  0  0  0999 V2000
  -24.1553  -17.8465  145.7021 C   0  0  0  0  0  0  0  0  0  0  0  0
  -23.9795  -18.4462  146.7426 C   0  0  0  0  0  0  0  0  0  0  0  0
  -24.2723  -16.4220  145.8037 C   0  0  0  0  0  0  0  0  0  0  0  0
  -24.0151  -15.5895  144.6874 C   0  0  0  0  0  0  0  0  0  0  0  0
  -24.7969  -14.3928  144.4905 C   0  0  0  0  0  0  0  0  0  0  0  0
  -25.3248  -13.8257  145.5785 C   0  0  0  0  0  0  0  0  0  0  0  0
  -25.7531  -14.6861  146.7096 C   0  0  0  0  0  0  0  0  0  0  0  0
  -24.9719  -15.8404  147.0127 C   0  0  0  0  0  0  0  0  0  0  0  0
  -24.5076  -18.0136  148.0519 C   0  0  0  0  0  0  0  0  0  0  0  0
  -24.8942  -16.6059  148.2068 C   0  0  0  0  0  0  0  0  0  0  0  0
  -25.7816  -12.4379  145.5949 C   0  0  0  0  0  0  0  0  0  0  0  0
  -26.6611  -11.9222  144.7027 C   0  0  0  0  0  0  0  0  0  0  0  0
  -26.8785  -10.5989  144.5743 C   0  0  0  0  0  0  0  0  0  0  0  0
  -28.1158  -10.1002  144.1082 C   0  0  0  0  0  0  0  0  0  0  0  0
  -28.4298  -10.0511  142.7326 C   0  0  0  0  0  0  0  0  0  0  0  0
  -29.4720   -9.2878  142.2655 C   0  0  0  0  0  0  0  0  0  0  0  0
  -30.5082   -8.8092  143.0577 C   0  0  0  0  0  0  0  0  0  0  0  0
  -31.5010   -7.9768  142.4763 C   0  0  0  0  0  0  0  0  0  0  0  0
  -24.0887  -11.4664  145.6740 Br  0  0  0  0  0  0  0  0  0  0  0  0
  -31.2737   -7.6867  141.4998 N   0  0  0  0  0  0  0  0  0  0  0  0
  -29.7236   -8.7616  140.9657 C   0  0  0  0  0  0  0  0  0  0  0  0
  -28.6575   -9.1990  140.1917 F   0  0  0  0  0  0  0  0  0  0  0  0
  -30.4020   -8.0552  140.5654 C   0  0  0  0  0  0  0  0  0  0  0  0
  -28.6498  -11.5963  142.3587 C   0  0  0  0  0  0  0  0  0  0  0  0
  -22.9666  -15.8019  144.0100 O   0  0  0  0  0  0  0  0  0  0  0  0
  -27.3467  -12.2268  142.1393 C   0  0  0  0  0  0  0  0  0  0  0  0
  -26.8651  -12.8135  143.4949 C   0  0  0  0  0  0  0  0  0  0  0  0
  -30.7517   -9.0055  144.5175 N   0  0  0  0  0  0  0  0  0  0  0  0
  -30.5370   -7.4449  139.3729 N   0  0  0  0  0  0  0  0  0  0  0  0
  -27.3752  -13.3013  141.0978 C   0  0  0  0  0  0  0  0  0  0  0  0
  -27.2215  -12.5652  139.7771 C   0  0  0  0  0  0  0  0  0  0  0  0
  -28.2799  -11.7236  139.2469 C   0  0  0  0  0  0  0  0  0  0  0  0
  -25.9295  -12.5697  139.0849 C   0  0  0  0  0  0  0  0  0  0  0  0
  -28.0935  -11.2927  137.9830 C   0  0  0  0  0  0  0  0  0  0  0  0
  -24.9506  -13.1684  139.5640 N   0  0  0  0  0  0  0  0  0  0  0  0
  3  4  1  0
  4  5  1  0
  5  6  1  0
  6  7  1  0
  7  8  1  0
  6 11  1  0
 11 12  1  0
 12 13  1  0
 13 14  1  0
 14 15  2  0
 15 16  1  0
 11 19  1  0
 21 22  1  0
 15 24  1  0
  4 25  2  0
 24 26  1  0
 12 27  1  0
 26 27  2  0
 17 28  1  0
 23 29  1  0
 26 30  1  0
 30 31  1  0
 31 32  2  3
 31 33  1  0
 32 34  1  0
 33 35  1  0
  1  2  2  0
  2  9  1  0
  9 10  2  0
 10  8  1  0
  8  3  2  0
  3  1  1  0
 16 17  2  0
 17 18  1  0
 18 20  2  0
 20 23  1  0
 23 21  2  0
 21 16  1  0
M  END

$$$$
No_449-/dssg/home/sw_qyf/PocketFlow/Model-Generation-Results/5HT2A_7WC7_rec_A_10.pdb/2024-01-01-03-54-21/
     RDKit          3D

 35 37  0  0  0  0  0  0  0  0999 V2000
  -23.1746  -16.6014  144.8668 C   0  0  0  0  0  0  0  0  0  0  0  0
  -23.8963  -15.5346  144.7885 C   0  0  0  0  0  0  0  0  0  0  0  0
  -23.6398  -14.5115  145.3281 C   0  0  0  0  0  0  0  0  0  0  0  0
  -24.3241  -13.3648  145.1281 C   0  0  0  0  0  0  0  0  0  0  0  0
  -23.8303  -12.0965  145.7921 C   0  0  0  0  0  0  0  0  0  0  0  0
  -25.3060  -13.1626  144.3111 O   0  0  0  0  0  0  0  0  0  0  0  0
  -23.6153  -17.8026  145.6028 C   0  0  0  0  0  0  0  0  0  0  0  0
  -24.5622  -17.5148  146.6017 C   0  0  0  0  0  0  0  0  0  0  0  0
  -24.0638  -17.5108  147.9510 C   0  0  0  0  0  0  0  0  0  0  0  0
  -24.8343  -17.1599  149.0914 C   0  0  0  0  0  0  0  0  0  0  0  0
  -26.1746  -16.8588  148.7963 C   0  0  0  0  0  0  0  0  0  0  0  0
  -26.6321  -16.6823  147.5232 C   0  0  0  0  0  0  0  0  0  0  0  0
  -25.7897  -17.0789  146.4505 C   0  0  0  0  0  0  0  0  0  0  0  0
  -28.0392  -16.2332  147.3573 C   0  0  0  0  0  0  0  0  0  0  0  0
  -28.3836  -15.4621  146.1942 C   0  0  0  0  0  0  0  0  0  0  0  0
  -27.2199  -14.7762  145.7419 C   0  0  0  0  0  0  0  0  0  0  0  0
  -27.1567  -13.3857  146.3415 C   0  0  0  0  0  0  0  0  0  0  0  0
  -28.1024  -12.3519  145.9048 C   0  0  0  0  0  0  0  0  0  0  0  0
  -29.1962  -12.2317  146.6578 C   0  0  0  0  0  0  0  0  0  0  0  0
  -30.1108  -11.1444  146.2934 C   0  0  0  0  0  0  0  0  0  0  0  0
  -29.8205  -10.3642  145.1516 C   0  0  0  0  0  0  0  0  0  0  0  0
  -28.6135  -10.6214  144.4672 C   0  0  0  0  0  0  0  0  0  0  0  0
  -27.7264  -11.6464  144.8456 C   0  0  0  0  0  0  0  0  0  0  0  0
  -28.3536   -9.7670  143.2557 C   0  0  0  0  0  0  0  0  0  0  0  0
  -29.2887   -9.7138  142.2695 C   0  0  0  0  0  0  0  0  0  0  0  0
  -28.9521   -9.2093  141.0785 C   0  0  0  0  0  0  0  0  0  0  0  0
  -29.5093   -8.0110  140.5776 C   0  0  0  0  0  0  0  0  0  0  0  0
  -29.2715   -7.6062  139.2310 C   0  0  0  0  0  0  0  0  0  0  0  0
  -28.4399   -8.3272  138.4179 C   0  0  0  0  0  0  0  0  0  0  0  0
  -27.8116   -9.4921  138.9874 C   0  0  0  0  0  0  0  0  0  0  0  0
  -28.0574   -9.8674  140.3179 C   0  0  0  0  0  0  0  0  0  0  0  0
  -28.2337   -8.0007  137.2520 F   0  0  0  0  0  0  0  0  0  0  0  0
  -29.5413  -12.8973  147.7605 O   0  0  0  0  0  0  0  0  0  0  0  0
  -30.5308  -10.1565  142.4167 O   0  0  0  0  0  0  0  0  0  0  0  0
  -24.3104  -17.2852  150.4883 C   0  0  0  0  0  0  0  0  0  0  0  0
  1  2  1  0
  2  3  2  3
  3  4  1  0
  4  5  1  0
  4  6  1  0
  1  7  1  0
  7  8  1  0
 12 14  1  0
 14 15  1  0
 15 16  2  3
 16 17  1  0
 17 18  1  0
 22 24  1  0
 24 25  1  0
 25 26  1  0
 29 32  1  0
 19 33  1  0
 25 34  2  0
 10 35  1  0
 18 19  2  0
 19 20  1  0
 20 21  2  0
 21 22  1  0
 22 23  2  0
 23 18  1  0
  8  9  2  0
  9 10  1  0
 10 11  2  0
 11 12  1  0
 12 13  2  0
 13  8  1  0
 26 27  2  0
 27 28  1  0
 28 29  2  0
 29 30  1  0
 30 31  2  0
 31 26  1  0
M  END

$$$$
No_450-/dssg/home/sw_qyf/PocketFlow/Model-Generation-Results/5HT2A_7WC7_rec_A_10.pdb/2024-01-01-03-54-21/
     RDKit          3D

 35 38  0  0  0  0  0  0  0  0999 V2000
  -24.1553  -17.8465  145.7021 C   0  0  0  0  0  0  0  0  0  0  0  0
  -23.9795  -18.4462  146.7426 C   0  0  0  0  0  0  0  0  0  0  0  0
  -25.1593  -16.8262  145.6925 C   0  0  0  0  0  0  0  0  0  0  0  0
  -25.9346  -16.5763  146.8154 C   0  0  0  0  0  0  0  0  0  0  0  0
  -25.6041  -17.2802  147.9650 C   0  0  0  0  0  0  0  0  0  0  0  0
  -24.6016  -18.1919  147.9827 C   0  0  0  0  0  0  0  0  0  0  0  0
  -27.0252  -15.5531  146.7776 C   0  0  0  0  0  0  0  0  0  0  0  0
  -26.6437  -14.2393  146.6751 C   0  0  0  0  0  0  0  0  0  0  0  0
  -27.5315  -13.2347  146.3737 C   0  0  0  0  0  0  0  0  0  0  0  0
  -28.9114  -13.3491  146.8388 C   0  0  0  0  0  0  0  0  0  0  0  0
  -29.2713  -14.6870  147.1701 C   0  0  0  0  0  0  0  0  0  0  0  0
  -28.3643  -15.7886  147.0947 C   0  0  0  0  0  0  0  0  0  0  0  0
  -29.8687  -12.2717  146.7801 C   0  0  0  0  0  0  0  0  0  0  0  0
  -29.7720  -11.2385  145.9896 O   0  0  0  0  0  0  0  0  0  0  0  0
  -30.6768  -12.1265  147.8342 O   0  0  0  0  0  0  0  0  0  0  0  0
  -29.5500  -11.2894  144.7046 C   0  0  0  0  0  0  0  0  0  0  0  0
  -29.7090   -9.8917  144.1136 C   0  0  0  0  0  0  0  0  0  0  0  0
  -29.4912   -9.6896  142.7782 C   0  0  0  0  0  0  0  0  0  0  0  0
  -29.7844   -8.4116  142.2247 C   0  0  0  0  0  0  0  0  0  0  0  0
  -29.5640   -8.1198  140.8512 C   0  0  0  0  0  0  0  0  0  0  0  0
  -28.7273   -8.9891  140.1530 C   0  0  0  0  0  0  0  0  0  0  0  0
  -28.3466  -10.2239  140.7001 C   0  0  0  0  0  0  0  0  0  0  0  0
  -28.6277  -10.4847  142.0406 C   0  0  0  0  0  0  0  0  0  0  0  0
  -28.1367   -8.7852  138.8289 C   0  0  0  0  0  0  0  0  0  0  0  0
  -28.5989   -9.4514  137.7256 C   0  0  0  0  0  0  0  0  0  0  0  0
  -27.5436  -11.2161  139.9727 C   0  0  0  0  0  0  0  0  0  0  0  0
  -28.2212  -12.3266  139.3474 C   0  0  0  0  0  0  0  0  0  0  0  0
  -30.6620   -7.5197  142.9246 N   0  0  0  0  0  0  0  0  0  0  0  0
  -26.5888  -10.6033  138.8973 C   0  0  0  0  0  0  0  0  0  0  0  0
  -29.9285   -7.0125  140.3264 O   0  0  0  0  0  0  0  0  0  0  0  0
  -27.9028  -10.6205  137.5278 C   0  0  0  0  0  0  0  0  0  0  0  0
  -25.4093  -15.8905  144.2640 Cl  0  0  0  0  0  0  0  0  0  0  0  0
  -23.5226  -18.0197  144.5703 F   0  0  0  0  0  0  0  0  0  0  0  0
  -26.4513  -11.8143  141.0504 C   0  0  0  0  0  0  0  0  0  0  0  0
  -26.5855  -13.2858  141.0607 C   0  0  0  0  0  0  0  0  0  0  0  0
  4  7  1  0
 10 13  1  0
 13 14  1  0
 13 15  2  0
 14 16  1  0
 16 17  1  0
 18 19  1  0
 19 20  1  0
 20 21  1  0
 18 23  1  0
 22 23  1  0
 21 24  1  0
 24 25  1  0
 22 26  1  0
 26 27  1  0
 19 28  1  0
 26 29  1  0
 20 30  2  0
 25 31  1  0
 29 31  1  0
  3 32  1  0
  1 33  1  0
 26 34  1  0
 34 35  1  0
 17 18  1  0
 22 21  1  0
  1  2  2  0
  2  6  1  0
  6  5  2  0
  5  4  1  0
  4  3  2  0
  3  1  1  0
  7  8  2  0
  8  9  1  0
  9 10  2  0
 10 11  1  0
 11 12  2  0
 12  7  1  0
M  END

$$$$
No_451-/dssg/home/sw_qyf/PocketFlow/Model-Generation-Results/5HT2A_7WC7_rec_A_10.pdb/2024-01-01-03-54-21/
     RDKit          3D

 14 15  0  0  0  0  0  0  0  0999 V2000
  -24.1553  -17.8465  145.7021 C   0  0  0  0  0  0  0  0  0  0  0  0
  -24.6364  -17.2931  146.7091 C   0  0  0  0  0  0  0  0  0  0  0  0
  -24.5709  -15.9334  146.8074 C   0  0  0  0  0  0  0  0  0  0  0  0
  -24.2378  -15.1233  145.7159 C   0  0  0  0  0  0  0  0  0  0  0  0
  -24.2498  -13.6819  145.7156 C   0  0  0  0  0  0  0  0  0  0  0  0
  -23.7380  -17.1272  144.5444 C   0  0  0  0  0  0  0  0  0  0  0  0
  -23.7525  -15.7605  144.6336 C   0  0  0  0  0  0  0  0  0  0  0  0
  -23.4555  -12.8927  144.9592 C   0  0  0  0  0  0  0  0  0  0  0  0
  -23.5261  -11.4769  145.0984 C   0  0  0  0  0  0  0  0  0  0  0  0
  -24.4162  -12.9448  147.0420 C   0  0  0  0  0  0  0  0  0  0  0  0
  -24.0736  -19.3368  145.8022 C   0  0  0  0  0  0  0  0  0  0  0  0
  -25.5053  -12.1045  147.0501 C   0  0  0  0  0  0  0  0  0  0  0  0
  -25.3821  -10.7736  146.2813 C   0  0  0  0  0  0  0  0  0  0  0  0
  -24.7184  -10.7884  145.0858 C   0  0  0  0  0  0  0  0  0  0  0  0
  4  5  1  0
  5  8  2  0
  8  9  1  0
  5 10  1  0
  1 11  1  0
 10 12  1  0
 12 13  1  0
  9 14  1  0
 13 14  1  0
  1  2  2  0
  2  3  1  0
  3  4  2  0
  4  7  1  0
  7  6  2  0
  6  1  1  0
M  END

$$$$
No_452-/dssg/home/sw_qyf/PocketFlow/Model-Generation-Results/5HT2A_7WC7_rec_A_10.pdb/2024-01-01-03-54-21/
     RDKit          3D

 18 19  0  0  0  0  0  0  0  0999 V2000
  -24.1553  -17.8465  145.7021 C   0  0  0  0  0  0  0  0  0  0  0  0
  -24.2856  -16.6364  145.3494 C   0  0  0  0  0  0  0  0  0  0  0  0
  -24.7211  -15.5955  146.2115 C   0  0  0  0  0  0  0  0  0  0  0  0
  -25.1322  -16.0374  147.5372 C   0  0  0  0  0  0  0  0  0  0  0  0
  -24.5163  -18.2968  146.9928 C   0  0  0  0  0  0  0  0  0  0  0  0
  -24.9534  -17.3074  147.9886 C   0  0  0  0  0  0  0  0  0  0  0  0
  -24.8651  -14.1840  145.8143 C   0  0  0  0  0  0  0  0  0  0  0  0
  -25.4675  -13.2486  146.5302 C   0  0  0  0  0  0  0  0  0  0  0  0
  -25.5114  -11.9044  146.1977 C   0  0  0  0  0  0  0  0  0  0  0  0
  -24.9290  -11.4393  145.0318 C   0  0  0  0  0  0  0  0  0  0  0  0
  -24.0560  -13.7392  144.6782 C   0  0  0  0  0  0  0  0  0  0  0  0
  -24.1207  -12.3562  144.3615 N   0  0  0  0  0  0  0  0  0  0  0  0
  -23.3579  -14.3611  143.9676 O   0  0  0  0  0  0  0  0  0  0  0  0
  -25.2814  -17.7122  149.3887 C   0  0  0  0  0  0  0  0  0  0  0  0
  -24.4498  -17.3687  150.4128 N   0  0  0  0  0  0  0  0  0  0  0  0
  -23.1155  -17.1998  150.2578 C   0  0  0  0  0  0  0  0  0  0  0  0
  -22.4874  -17.2509  149.2929 O   0  0  0  0  0  0  0  0  0  0  0  0
  -22.3000  -17.0278  151.5026 N   0  0  0  0  0  0  0  0  0  0  0  0
  3  7  1  0
  8  9  1  0
  7 11  1  0
 10 12  1  0
 11 12  1  0
 11 13  2  0
  6 14  1  0
 14 15  1  0
 15 16  1  0
 16 17  2  0
 16 18  1  0
  7  8  1  0
  9 10  1  0
  1  2  2  0
  2  3  1  0
  3  4  2  0
  4  6  1  0
  6  5  2  0
  5  1  1  0
M  END

$$$$
No_453-/dssg/home/sw_qyf/PocketFlow/Model-Generation-Results/5HT2A_7WC7_rec_A_10.pdb/2024-01-01-03-54-21/
     RDKit          3D

 26 29  0  0  0  0  0  0  0  0999 V2000
  -24.1553  -17.8465  145.7021 C   0  0  0  0  0  0  0  0  0  0  0  0
  -23.9795  -18.4462  146.7426 C   0  0  0  0  0  0  0  0  0  0  0  0
  -24.2723  -16.4220  145.8037 C   0  0  0  0  0  0  0  0  0  0  0  0
  -25.4475  -15.7701  145.5860 C   0  0  0  0  0  0  0  0  0  0  0  0
  -26.4689  -16.0076  146.4536 C   0  0  0  0  0  0  0  0  0  0  0  0
  -27.6521  -15.2130  146.3916 C   0  0  0  0  0  0  0  0  0  0  0  0
  -27.6144  -14.0813  145.5889 C   0  0  0  0  0  0  0  0  0  0  0  0
  -28.6668  -13.0812  145.6071 C   0  0  0  0  0  0  0  0  0  0  0  0
  -28.4060  -11.7490  145.2477 C   0  0  0  0  0  0  0  0  0  0  0  0
  -29.3939  -10.7452  145.3456 C   0  0  0  0  0  0  0  0  0  0  0  0
  -25.3779  -14.4504  144.9486 C   0  0  0  0  0  0  0  0  0  0  0  0
  -26.5335  -13.6564  144.8486 C   0  0  0  0  0  0  0  0  0  0  0  0
  -29.6443  -10.1183  144.1095 C   0  0  0  0  0  0  0  0  0  0  0  0
  -28.7646   -9.9174  143.1323 C   0  0  0  0  0  0  0  0  0  0  0  0
  -27.6347  -10.8724  143.2060 C   0  0  0  0  0  0  0  0  0  0  0  0
  -27.5176  -11.7895  144.2079 C   0  0  0  0  0  0  0  0  0  0  0  0
  -26.5680  -12.5216  144.1272 N   0  0  0  0  0  0  0  0  0  0  0  0
  -24.2030  -14.1319  144.1435 C   0  0  0  0  0  0  0  0  0  0  0  0
  -23.1186  -14.4327  144.6301 O   0  0  0  0  0  0  0  0  0  0  0  0
  -30.8000   -9.0473  144.1620 C   0  0  0  0  0  0  0  0  0  0  0  0
  -31.2740   -8.4465  143.4036 C   0  0  0  0  0  0  0  0  0  0  0  0
  -30.8104   -8.4466  142.1412 C   0  0  0  0  0  0  0  0  0  0  0  0
  -29.5611   -9.0724  141.8158 C   0  0  0  0  0  0  0  0  0  0  0  0
  -28.8239   -9.1469  140.6440 C   0  0  0  0  0  0  0  0  0  0  0  0
  -28.9529   -8.0966  139.8093 C   0  0  0  0  0  0  0  0  0  0  0  0
  -28.3378   -8.0976  138.5409 C   0  0  0  0  0  0  0  0  0  0  0  0
  1  2  1  0
  1  3  1  0
  3  4  1  0
 11 18  1  0
 18 19  1  0
 23 24  1  0
 24 25  2  3
 25 26  1  0
  9 10  1  0
 10 13  2  0
 14 15  2  0
 15 16  1  0
  4  5  2  0
  5  6  1  0
  6  7  2  0
 12 11  2  0
 11  4  1  0
  7  8  1  0
  8  9  2  0
  9 16  1  0
 16 17  2  0
 17 12  1  0
 12  7  1  0
 13 14  1  0
 14 23  1  0
 23 22  2  0
 22 21  1  0
 21 20  2  0
 20 13  1  0
M  END

$$$$
No_454-/dssg/home/sw_qyf/PocketFlow/Model-Generation-Results/5HT2A_7WC7_rec_A_10.pdb/2024-01-01-03-54-21/
     RDKit          3D

 35 37  0  0  0  0  0  0  0  0999 V2000
  -23.1746  -16.6014  144.8668 C   0  0  0  0  0  0  0  0  0  0  0  0
  -23.7011  -17.0158  145.9774 C   0  0  0  0  0  0  0  0  0  0  0  0
  -23.7336  -18.2775  146.3737 C   0  0  0  0  0  0  0  0  0  0  0  0
  -23.8112  -15.3695  144.2738 C   0  0  0  0  0  0  0  0  0  0  0  0
  -24.2192  -14.3645  145.3045 C   0  0  0  0  0  0  0  0  0  0  0  0
  -24.9709  -14.8083  146.4404 C   0  0  0  0  0  0  0  0  0  0  0  0
  -24.3470  -16.0789  147.0150 C   0  0  0  0  0  0  0  0  0  0  0  0
  -24.5818  -12.9561  144.8094 C   0  0  0  0  0  0  0  0  0  0  0  0
  -24.9096  -12.0647  145.9744 C   0  0  0  0  0  0  0  0  0  0  0  0
  -25.8601  -11.0792  145.6319 C   0  0  0  0  0  0  0  0  0  0  0  0
  -26.8656  -11.4501  144.6967 C   0  0  0  0  0  0  0  0  0  0  0  0
  -28.2262  -10.8937  145.0313 C   0  0  0  0  0  0  0  0  0  0  0  0
  -28.9865  -11.1205  146.1062 C   0  0  0  0  0  0  0  0  0  0  0  0
  -30.3358  -10.6542  146.1619 C   0  0  0  0  0  0  0  0  0  0  0  0
  -30.7191   -9.7658  145.2753 N   0  0  0  0  0  0  0  0  0  0  0  0
  -30.0410   -9.5887  144.1296 C   0  0  0  0  0  0  0  0  0  0  0  0
  -30.4885   -8.8488  143.1647 N   0  0  0  0  0  0  0  0  0  0  0  0
  -28.7519  -10.1239  143.9915 C   0  0  0  0  0  0  0  0  0  0  0  0
  -31.7269   -8.2899  142.9921 C   0  0  0  0  0  0  0  0  0  0  0  0
  -29.6342   -8.4935  142.0568 C   0  0  0  0  0  0  0  0  0  0  0  0
  -29.7790   -7.2105  141.4339 C   0  0  0  0  0  0  0  0  0  0  0  0
  -23.1055  -19.1337  146.1046 O   0  0  0  0  0  0  0  0  0  0  0  0
  -24.8596  -18.6912  147.2286 O   0  0  0  0  0  0  0  0  0  0  0  0
  -29.6903   -7.0955  140.0538 C   0  0  0  0  0  0  0  0  0  0  0  0
  -29.7457   -8.3094  139.4211 C   0  0  0  0  0  0  0  0  0  0  0  0
  -29.0067   -8.0921  138.1167 C   0  0  0  0  0  0  0  0  0  0  0  0
  -27.7725   -8.9603  137.9814 C   0  0  0  0  0  0  0  0  0  0  0  0
  -27.8376   -9.9674  139.0886 C   0  0  0  0  0  0  0  0  0  0  0  0
  -27.0566  -11.1917  139.0321 C   0  0  0  0  0  0  0  0  0  0  0  0
  -27.2835  -12.1958  140.0793 C   0  0  0  0  0  0  0  0  0  0  0  0
  -27.9198  -13.4173  139.8342 C   0  0  0  0  0  0  0  0  0  0  0  0
  -26.6719  -12.1796  143.7802 O   0  0  0  0  0  0  0  0  0  0  0  0
  -27.7162  -14.0533  141.0089 C   0  0  0  0  0  0  0  0  0  0  0  0
  -26.8329  -13.6758  141.9220 C   0  0  0  0  0  0  0  0  0  0  0  0
  -26.5151  -12.3232  141.3237 C   0  0  0  0  0  0  0  0  0  0  0  0
  1  2  1  0
  2  3  1  0
  1  4  1  0
  4  5  1  0
  5  6  1  0
  2  7  1  0
  6  7  1  0
  5  8  1  0
  8  9  1  0
  9 10  1  0
 10 11  1  0
 11 12  1  0
 16 17  1  0
 17 19  1  0
 17 20  1  0
 20 21  1  0
  3 22  2  0
  3 23  1  0
 21 24  1  0
 24 25  1  0
 25 26  1  0
 26 27  1  0
 27 28  1  0
 28 29  1  0
 29 30  1  0
 30 31  1  0
 11 32  2  0
 31 33  1  0
 33 34  2  0
 30 35  1  0
 34 35  1  0
 12 13  2  0
 13 14  1  0
 14 15  2  0
 15 16  1  0
 16 18  2  0
 18 12  1  0
M  END

$$$$
No_455-/dssg/home/sw_qyf/PocketFlow/Model-Generation-Results/5HT2A_7WC7_rec_A_10.pdb/2024-01-01-03-54-21/
     RDKit          3D

 14 14  0  0  0  0  0  0  0  0999 V2000
  -23.1746  -16.6014  144.8668 C   0  0  0  0  0  0  0  0  0  0  0  0
  -24.0189  -16.0564  145.8445 C   0  0  0  0  0  0  0  0  0  0  0  0
  -24.4145  -16.8299  146.9062 C   0  0  0  0  0  0  0  0  0  0  0  0
  -25.2273  -16.2787  147.9854 C   0  0  0  0  0  0  0  0  0  0  0  0
  -25.7358  -15.0095  147.7773 C   0  0  0  0  0  0  0  0  0  0  0  0
  -25.3901  -14.2337  146.6672 C   0  0  0  0  0  0  0  0  0  0  0  0
  -24.5390  -14.7030  145.7350 C   0  0  0  0  0  0  0  0  0  0  0  0
  -24.1426  -13.8633  144.6266 C   0  0  0  0  0  0  0  0  0  0  0  0
  -22.5306  -13.5431  144.1545 Cl  0  0  0  0  0  0  0  0  0  0  0  0
  -25.0832  -13.3491  143.8865 O   0  0  0  0  0  0  0  0  0  0  0  0
  -25.6242  -17.0833  149.1721 C   0  0  0  0  0  0  0  0  0  0  0  0
  -24.7185  -17.9143  149.4389 F   0  0  0  0  0  0  0  0  0  0  0  0
  -25.6934  -16.2266  150.2856 F   0  0  0  0  0  0  0  0  0  0  0  0
  -26.8357  -17.4863  148.9741 F   0  0  0  0  0  0  0  0  0  0  0  0
  1  2  1  0
  7  8  1  0
  8  9  1  0
  8 10  2  0
  4 11  1  0
 11 12  1  0
 11 13  1  0
 11 14  1  0
  2  3  2  0
  3  4  1  0
  4  5  2  0
  5  6  1  0
  6  7  2  0
  7  2  1  0
M  END

$$$$
No_456-/dssg/home/sw_qyf/PocketFlow/Model-Generation-Results/5HT2A_7WC7_rec_A_10.pdb/2024-01-01-03-54-21/
     RDKit          3D

 22 24  0  0  0  0  0  0  0  0999 V2000
  -23.1746  -16.6014  144.8668 C   0  0  0  0  0  0  0  0  0  0  0  0
  -23.8963  -15.5346  144.7885 C   0  0  0  0  0  0  0  0  0  0  0  0
  -24.5755  -15.0383  145.9043 C   0  0  0  0  0  0  0  0  0  0  0  0
  -24.6688  -15.8869  147.0363 C   0  0  0  0  0  0  0  0  0  0  0  0
  -24.0226  -17.0824  147.0622 C   0  0  0  0  0  0  0  0  0  0  0  0
  -23.2575  -17.4593  145.9560 C   0  0  0  0  0  0  0  0  0  0  0  0
  -25.3126  -13.7148  145.9424 C   0  0  0  0  0  0  0  0  0  0  0  0
  -26.5819  -13.5838  146.0520 C   0  0  0  0  0  0  0  0  0  0  0  0
  -27.2129  -12.4107  145.8903 C   0  0  0  0  0  0  0  0  0  0  0  0
  -28.6733  -12.2059  145.8360 C   0  0  0  0  0  0  0  0  0  0  0  0
  -29.3945  -13.2700  146.5225 C   0  0  0  0  0  0  0  0  0  0  0  0
  -28.7745  -14.4333  146.8450 C   0  0  0  0  0  0  0  0  0  0  0  0
  -27.4011  -14.5876  146.6534 C   0  0  0  0  0  0  0  0  0  0  0  0
  -29.3180  -10.9428  145.5052 C   0  0  0  0  0  0  0  0  0  0  0  0
  -28.8326  -10.2275  144.4028 C   0  0  0  0  0  0  0  0  0  0  0  0
  -27.5531  -10.3799  143.8912 C   0  0  0  0  0  0  0  0  0  0  0  0
  -29.7475   -9.3427  143.6850 C   0  0  0  0  0  0  0  0  0  0  0  0
  -30.9200   -9.1679  143.9752 C   0  0  0  0  0  0  0  0  0  0  0  0
  -31.7571   -8.2076  143.1527 C   0  0  0  0  0  0  0  0  0  0  0  0
  -31.0618   -7.9818  141.8823 C   0  0  0  0  0  0  0  0  0  0  0  0
  -29.7383   -8.3387  141.6075 C   0  0  0  0  0  0  0  0  0  0  0  0
  -29.0581   -9.1285  142.4927 C   0  0  0  0  0  0  0  0  0  0  0  0
  3  7  1  0
 10 14  1  0
 14 15  1  0
 15 16  1  0
 15 17  1  0
  7  8  1  0
 17 18  2  0
 18 19  1  0
 19 20  2  0
 20 21  1  0
 21 22  2  0
 22 17  1  0
  1  2  2  0
  2  3  1  0
  3  4  2  0
  4  5  1  0
  5  6  2  0
  6  1  1  0
  8  9  2  0
  9 10  1  0
 10 11  2  0
 11 12  1  0
 12 13  2  0
 13  8  1  0
M  END

$$$$
No_457-/dssg/home/sw_qyf/PocketFlow/Model-Generation-Results/5HT2A_7WC7_rec_A_10.pdb/2024-01-01-03-54-21/
     RDKit          3D

 14 14  0  0  0  0  0  0  0  0999 V2000
  -23.1746  -16.6014  144.8668 C   0  0  0  0  0  0  0  0  0  0  0  0
  -23.7011  -17.0158  145.9774 C   0  0  0  0  0  0  0  0  0  0  0  0
  -24.2134  -16.0722  146.8877 C   0  0  0  0  0  0  0  0  0  0  0  0
  -23.3742  -15.2706  144.3922 C   0  0  0  0  0  0  0  0  0  0  0  0
  -24.0445  -14.2973  145.2608 C   0  0  0  0  0  0  0  0  0  0  0  0
  -24.2270  -12.9067  144.8433 C   0  0  0  0  0  0  0  0  0  0  0  0
  -24.4280  -14.7101  146.5452 C   0  0  0  0  0  0  0  0  0  0  0  0
  -23.0573  -12.4156  144.4292 F   0  0  0  0  0  0  0  0  0  0  0  0
  -25.0636  -12.7205  143.9325 F   0  0  0  0  0  0  0  0  0  0  0  0
  -24.5870  -12.0996  145.9097 F   0  0  0  0  0  0  0  0  0  0  0  0
  -23.5230  -18.4138  146.4370 C   0  0  0  0  0  0  0  0  0  0  0  0
  -24.2873  -18.8773  147.3101 O   0  0  0  0  0  0  0  0  0  0  0  0
  -22.5957  -19.1195  146.0568 O   0  0  0  0  0  0  0  0  0  0  0  0
  -25.0043  -13.8831  147.4230 O   0  0  0  0  0  0  0  0  0  0  0  0
  5  6  1  0
  6  8  1  0
  6  9  1  0
  6 10  1  0
  2 11  1  0
 11 12  2  0
 11 13  1  0
  7 14  1  0
  1  2  2  0
  2  3  1  0
  3  7  2  0
  7  5  1  0
  5  4  2  0
  4  1  1  0
M  END

$$$$
No_458-/dssg/home/sw_qyf/PocketFlow/Model-Generation-Results/5HT2A_7WC7_rec_A_10.pdb/2024-01-01-03-54-21/
     RDKit          3D

 35 37  0  0  0  0  0  0  0  0999 V2000
  -24.1553  -17.8465  145.7021 C   0  0  0  0  0  0  0  0  0  0  0  0
  -24.2856  -16.6364  145.3494 C   0  0  0  0  0  0  0  0  0  0  0  0
  -24.1962  -15.9414  144.2650 C   0  0  0  0  0  0  0  0  0  0  0  0
  -24.3870  -14.5486  144.1162 C   0  0  0  0  0  0  0  0  0  0  0  0
  -24.7524  -13.8439  145.3544 C   0  0  0  0  0  0  0  0  0  0  0  0
  -24.8216  -12.3993  145.3596 C   0  0  0  0  0  0  0  0  0  0  0  0
  -24.2456  -18.3779  147.0229 C   0  0  0  0  0  0  0  0  0  0  0  0
  -26.0221  -11.8618  145.2014 C   0  0  0  0  0  0  0  0  0  0  0  0
  -26.2826  -10.7987  144.3684 C   0  0  0  0  0  0  0  0  0  0  0  0
  -24.8126  -14.7216  146.5643 C   0  0  0  0  0  0  0  0  0  0  0  0
  -24.5903  -15.9531  146.6559 C   0  0  0  0  0  0  0  0  0  0  0  0
  -24.4762  -17.5873  147.9435 C   0  0  0  0  0  0  0  0  0  0  0  0
  -24.6636  -16.4739  147.9800 C   0  0  0  0  0  0  0  0  0  0  0  0
  -27.5416  -10.0508  144.5548 C   0  0  0  0  0  0  0  0  0  0  0  0
  -28.0338   -9.2427  143.5118 C   0  0  0  0  0  0  0  0  0  0  0  0
  -29.2916   -8.6102  143.7081 C   0  0  0  0  0  0  0  0  0  0  0  0
  -30.2642   -8.9330  142.7782 C   0  0  0  0  0  0  0  0  0  0  0  0
  -30.1869   -8.1538  141.5629 C   0  0  0  0  0  0  0  0  0  0  0  0
  -29.0565   -7.4347  141.3987 C   0  0  0  0  0  0  0  0  0  0  0  0
  -27.1769  -12.3863  145.9050 C   0  0  0  0  0  0  0  0  0  0  0  0
  -28.4397  -11.7578  145.9977 C   0  0  0  0  0  0  0  0  0  0  0  0
  -28.6796  -10.6624  145.1313 C   0  0  0  0  0  0  0  0  0  0  0  0
  -29.4838  -12.5159  146.6659 C   0  0  0  0  0  0  0  0  0  0  0  0
  -29.4244  -13.6636  146.7880 O   0  0  0  0  0  0  0  0  0  0  0  0
  -31.2175   -9.8505  142.9304 O   0  0  0  0  0  0  0  0  0  0  0  0
  -30.4219  -11.7872  147.2657 O   0  0  0  0  0  0  0  0  0  0  0  0
  -29.3499   -6.2594  140.6011 C   0  0  0  0  0  0  0  0  0  0  0  0
  -23.7176  -11.7295  145.4261 O   0  0  0  0  0  0  0  0  0  0  0  0
  -30.1020  -14.4298  147.7657 C   0  0  0  0  0  0  0  0  0  0  0  0
  -29.2675  -14.6617  148.9573 C   0  0  0  0  0  0  0  0  0  0  0  0
  -23.8506  -18.7776  144.6980 O   0  0  0  0  0  0  0  0  0  0  0  0
  -24.4561  -13.9489  143.0450 O   0  0  0  0  0  0  0  0  0  0  0  0
  -29.3823   -5.1253  141.2598 O   0  0  0  0  0  0  0  0  0  0  0  0
  -29.3828   -6.3411  139.4027 O   0  0  0  0  0  0  0  0  0  0  0  0
  -29.9082  -15.7090  149.7007 C   0  0  0  0  0  0  0  0  0  0  0  0
  2  3  1  0
  3  4  1  0
  4  5  1  0
  5  6  1  0
  6  8  1  0
  5 10  1  0
 10 11  1  0
 14 15  1  0
 15 16  1  0
 16 17  1  0
 17 18  1  0
 18 19  2  3
 21 23  1  0
 23 24  1  0
 17 25  1  0
 23 26  2  0
 19 27  1  0
  6 28  2  0
 24 29  1  0
 29 30  1  0
  1 31  1  0
  4 32  2  0
 27 33  2  0
 27 34  1  0
 30 35  1  0
  1  2  2  0
  2 11  1  0
 11 13  2  0
 13 12  1  0
 12  7  2  0
  7  1  1  0
  8  9  2  0
  9 14  1  0
 14 22  2  0
 22 21  1  0
 21 20  2  0
 20  8  1  0
M  END

$$$$
No_459-/dssg/home/sw_qyf/PocketFlow/Model-Generation-Results/5HT2A_7WC7_rec_A_10.pdb/2024-01-01-03-54-21/
     RDKit          3D

 14 15  0  0  0  0  0  0  0  0999 V2000
  -23.1746  -16.6014  144.8668 C   0  0  0  0  0  0  0  0  0  0  0  0
  -23.8963  -15.5346  144.7885 C   0  0  0  0  0  0  0  0  0  0  0  0
  -23.6398  -14.5115  145.3281 C   0  0  0  0  0  0  0  0  0  0  0  0
  -24.3866  -13.2477  145.3906 C   0  0  0  0  0  0  0  0  0  0  0  0
  -25.6595  -13.1543  144.8975 C   0  0  0  0  0  0  0  0  0  0  0  0
  -26.0749  -14.4053  144.2109 C   0  0  0  0  0  0  0  0  0  0  0  0
  -25.2883  -15.4926  144.1868 C   0  0  0  0  0  0  0  0  0  0  0  0
  -26.4780  -11.9796  144.9235 C   0  0  0  0  0  0  0  0  0  0  0  0
  -27.7432  -12.1120  145.5278 C   0  0  0  0  0  0  0  0  0  0  0  0
  -28.8055  -11.2864  145.2454 C   0  0  0  0  0  0  0  0  0  0  0  0
  -30.0978  -11.4337  145.8317 C   0  0  0  0  0  0  0  0  0  0  0  0
  -30.1255  -12.3453  146.9436 C   0  0  0  0  0  0  0  0  0  0  0  0
  -29.0533  -13.2172  147.2166 C   0  0  0  0  0  0  0  0  0  0  0  0
  -27.8315  -13.0703  146.5663 C   0  0  0  0  0  0  0  0  0  0  0  0
  1  2  1  0
  5  8  1  0
  8  9  1  0
  2  3  2  0
  3  4  1  0
  4  5  2  0
  5  6  1  0
  6  7  2  0
  7  2  1  0
  9 10  2  0
 10 11  1  0
 11 12  2  0
 12 13  1  0
 13 14  2  0
 14  9  1  0
M  END

$$$$
No_460-/dssg/home/sw_qyf/PocketFlow/Model-Generation-Results/5HT2A_7WC7_rec_A_10.pdb/2024-01-01-03-54-21/
     RDKit          3D

 30 31  0  0  0  0  0  0  0  0999 V2000
  -24.1553  -17.8465  145.7021 C   0  0  0  0  0  0  0  0  0  0  0  0
  -24.2856  -16.6364  145.3494 C   0  0  0  0  0  0  0  0  0  0  0  0
  -24.5733  -15.7651  145.9979 C   0  0  0  0  0  0  0  0  0  0  0  0
  -24.7088  -14.2765  145.5906 C   0  0  0  0  0  0  0  0  0  0  0  0
  -24.0081  -14.0223  144.3771 C   0  0  0  0  0  0  0  0  0  0  0  0
  -24.5461  -18.2167  147.0077 C   0  0  0  0  0  0  0  0  0  0  0  0
  -24.9798  -17.2136  147.8740 C   0  0  0  0  0  0  0  0  0  0  0  0
  -24.9933  -15.8410  147.4193 C   0  0  0  0  0  0  0  0  0  0  0  0
  -25.3883  -13.3088  146.3470 C   0  0  0  0  0  0  0  0  0  0  0  0
  -25.4028  -11.9738  145.9131 C   0  0  0  0  0  0  0  0  0  0  0  0
  -26.6956  -11.3854  145.6725 C   0  0  0  0  0  0  0  0  0  0  0  0
  -27.8380  -11.9955  145.9906 C   0  0  0  0  0  0  0  0  0  0  0  0
  -29.0726  -11.4070  145.8281 C   0  0  0  0  0  0  0  0  0  0  0  0
  -29.4353  -10.8124  144.9077 C   0  0  0  0  0  0  0  0  0  0  0  0
  -28.2598  -10.0897  144.1912 C   0  0  0  0  0  0  0  0  0  0  0  0
  -26.8698  -10.4273  144.5444 C   0  0  0  0  0  0  0  0  0  0  0  0
  -28.5166   -9.1373  143.1293 C   0  0  0  0  0  0  0  0  0  0  0  0
  -28.7754   -9.6826  141.7541 C   0  0  0  0  0  0  0  0  0  0  0  0
  -28.8609   -8.7528  140.7952 C   0  0  0  0  0  0  0  0  0  0  0  0
  -28.8809   -9.0705  139.3947 C   0  0  0  0  0  0  0  0  0  0  0  0
  -28.9735   -8.0399  138.3910 C   0  0  0  0  0  0  0  0  0  0  0  0
  -30.2224  -12.0033  146.7774 C   0  0  0  0  0  0  0  0  0  0  0  0
  -30.9232  -11.0414  147.2020 F   0  0  0  0  0  0  0  0  0  0  0  0
  -29.4351  -12.3359  148.0239 F   0  0  0  0  0  0  0  0  0  0  0  0
  -30.6728  -13.0676  146.3889 F   0  0  0  0  0  0  0  0  0  0  0  0
  -23.3342  -12.9040  144.4150 O   0  0  0  0  0  0  0  0  0  0  0  0
  -28.6563   -8.5177  137.0937 C   0  0  0  0  0  0  0  0  0  0  0  0
  -25.2739  -17.5179  149.3448 C   0  0  0  0  0  0  0  0  0  0  0  0
  -24.4072  -17.3878  150.3091 N   0  0  0  0  0  0  0  0  0  0  0  0
  -26.5178  -17.4087  149.7268 O   0  0  0  0  0  0  0  0  0  0  0  0
  3  4  1  0
  4  5  2  3
  4  9  1  0
  9 10  1  0
 10 11  1  0
 15 17  1  0
 17 18  1  0
 18 19  2  3
 19 20  1  0
 20 21  1  0
 13 22  1  0
 22 23  1  0
 22 24  1  0
 22 25  1  0
  5 26  1  0
 21 27  1  0
  7 28  1  0
 28 29  1  0
 28 30  2  0
 11 12  2  0
 12 13  1  0
 13 14  2  0
 14 15  1  0
 15 16  2  0
 16 11  1  0
  1  2  2  0
  2  3  1  0
  3  8  2  0
  8  7  1  0
  7  6  2  0
  6  1  1  0
M  END

$$$$
No_461-/dssg/home/sw_qyf/PocketFlow/Model-Generation-Results/5HT2A_7WC7_rec_A_10.pdb/2024-01-01-03-54-21/
     RDKit          3D

 27 28  0  0  0  0  0  0  0  0999 V2000
  -24.1553  -17.8465  145.7021 C   0  0  0  0  0  0  0  0  0  0  0  0
  -23.9795  -18.4462  146.7426 C   0  0  0  0  0  0  0  0  0  0  0  0
  -25.1593  -16.8262  145.6925 C   0  0  0  0  0  0  0  0  0  0  0  0
  -26.3426  -16.9003  146.3448 C   0  0  0  0  0  0  0  0  0  0  0  0
  -24.9078  -18.3640  147.8289 C   0  0  0  0  0  0  0  0  0  0  0  0
  -26.0312  -17.5122  147.7122 C   0  0  0  0  0  0  0  0  0  0  0  0
  -27.4996  -16.1150  146.1993 C   0  0  0  0  0  0  0  0  0  0  0  0
  -27.8219  -14.9876  146.4483 C   0  0  0  0  0  0  0  0  0  0  0  0
  -26.9413  -13.8450  146.3209 C   0  0  0  0  0  0  0  0  0  0  0  0
  -25.5355  -13.8421  146.1298 C   0  0  0  0  0  0  0  0  0  0  0  0
  -24.7602  -12.6900  146.2787 C   0  0  0  0  0  0  0  0  0  0  0  0
  -23.3621  -12.7112  146.0724 C   0  0  0  0  0  0  0  0  0  0  0  0
  -27.4224  -12.4304  146.5249 C   0  0  0  0  0  0  0  0  0  0  0  0
  -28.8878  -12.2788  146.3876 C   0  0  0  0  0  0  0  0  0  0  0  0
  -29.7801  -13.2898  146.8847 C   0  0  0  0  0  0  0  0  0  0  0  0
  -29.3153  -14.6219  146.6515 C   0  0  0  0  0  0  0  0  0  0  0  0
  -23.0325  -12.3080  144.7575 C   0  0  0  0  0  0  0  0  0  0  0  0
  -29.3671  -11.3951  145.3263 C   0  0  0  0  0  0  0  0  0  0  0  0
  -28.7421  -10.9820  144.1945 C   0  0  0  0  0  0  0  0  0  0  0  0
  -27.4007  -11.2205  144.0218 C   0  0  0  0  0  0  0  0  0  0  0  0
  -29.4722  -10.5725  143.0304 C   0  0  0  0  0  0  0  0  0  0  0  0
  -30.6654  -10.2900  143.2503 F   0  0  0  0  0  0  0  0  0  0  0  0
  -28.8934  -10.3593  141.7621 C   0  0  0  0  0  0  0  0  0  0  0  0
  -27.8930  -11.0514  141.2922 C   0  0  0  0  0  0  0  0  0  0  0  0
  -27.6856  -10.9468  139.8395 C   0  0  0  0  0  0  0  0  0  0  0  0
  -28.0448   -9.7364  139.2512 C   0  0  0  0  0  0  0  0  0  0  0  0
  -28.8684   -8.7691  139.8834 C   0  0  0  0  0  0  0  0  0  0  0  0
  4  7  1  0
  9 10  1  0
 10 11  2  3
 11 12  1  0
 12 17  1  0
 14 18  1  0
 18 19  1  0
 19 20  2  0
 19 21  1  0
 21 22  1  0
 21 23  1  0
 23 24  2  3
 24 25  1  0
 25 26  1  0
 26 27  2  0
  7  8  1  0
  8  9  2  0
  9 13  1  0
 13 14  2  0
 14 15  1  0
 15 16  2  0
 16  8  1  0
  1  2  2  0
  2  5  1  0
  5  6  2  0
  6  4  1  0
  4  3  2  0
  3  1  1  0
M  END

$$$$
No_462-/dssg/home/sw_qyf/PocketFlow/Model-Generation-Results/5HT2A_7WC7_rec_A_10.pdb/2024-01-01-03-54-21/
     RDKit          3D

 25 27  0  0  0  0  0  0  0  0999 V2000
  -24.1553  -17.8465  145.7021 C   0  0  0  0  0  0  0  0  0  0  0  0
  -24.2855  -16.6364  145.3494 C   0  0  0  0  0  0  0  0  0  0  0  0
  -24.5733  -15.7651  145.9979 C   0  0  0  0  0  0  0  0  0  0  0  0
  -25.0273  -15.9886  147.3700 C   0  0  0  0  0  0  0  0  0  0  0  0
  -24.4993  -18.2276  147.0208 C   0  0  0  0  0  0  0  0  0  0  0  0
  -24.9010  -17.2233  147.9329 C   0  0  0  0  0  0  0  0  0  0  0  0
  -24.7157  -14.2654  145.5569 C   0  0  0  0  0  0  0  0  0  0  0  0
  -25.6315  -13.4122  146.0508 C   0  0  0  0  0  0  0  0  0  0  0  0
  -25.6350  -12.0504  145.7244 C   0  0  0  0  0  0  0  0  0  0  0  0
  -26.7564  -11.2225  145.9653 C   0  0  0  0  0  0  0  0  0  0  0  0
  -27.9193  -11.8483  146.4482 C   0  0  0  0  0  0  0  0  0  0  0  0
  -27.9647  -13.2663  146.7205 C   0  0  0  0  0  0  0  0  0  0  0  0
  -26.8258  -14.0078  146.4857 C   0  0  0  0  0  0  0  0  0  0  0  0
  -23.6053  -13.7754  144.7203 C   0  0  0  0  0  0  0  0  0  0  0  0
  -23.3761  -14.1419  143.5770 O   0  0  0  0  0  0  0  0  0  0  0  0
  -22.8605  -12.7541  145.2604 O   0  0  0  0  0  0  0  0  0  0  0  0
  -29.1873  -13.8595  147.2349 C   0  0  0  0  0  0  0  0  0  0  0  0
  -29.2634  -15.1364  147.2722 O   0  0  0  0  0  0  0  0  0  0  0  0
  -30.0001  -13.1057  148.0451 N   0  0  0  0  0  0  0  0  0  0  0  0
  -31.0110  -13.7033  148.8889 C   0  0  0  0  0  0  0  0  0  0  0  0
  -31.9658  -12.9184  149.4747 C   0  0  0  0  0  0  0  0  0  0  0  0
  -32.4983  -13.1248  150.6594 C   0  0  0  0  0  0  0  0  0  0  0  0
  -32.0892  -14.4011  151.3205 C   0  0  0  0  0  0  0  0  0  0  0  0
  -31.0547  -15.1614  150.7712 C   0  0  0  0  0  0  0  0  0  0  0  0
  -30.4054  -14.7011  149.6853 C   0  0  0  0  0  0  0  0  0  0  0  0
  3  7  1  0
  7 14  1  0
 14 15  1  0
 14 16  2  0
 12 17  1  0
 17 18  2  0
 17 19  1  0
 19 20  1  0
  7  8  1  0
  1  2  2  0
  2  3  1  0
  3  4  2  0
  4  6  1  0
  6  5  2  0
  5  1  1  0
  8  9  2  0
  9 10  1  0
 10 11  2  0
 11 12  1  0
 12 13  2  0
 13  8  1  0
 20 21  2  0
 21 22  1  0
 22 23  2  0
 23 24  1  0
 24 25  2  0
 25 20  1  0
M  END

$$$$
No_463-/dssg/home/sw_qyf/PocketFlow/Model-Generation-Results/5HT2A_7WC7_rec_A_10.pdb/2024-01-01-03-54-21/
     RDKit          3D

 18 19  0  0  0  0  0  0  0  0999 V2000
  -23.8042  -18.1535  145.4053 O   0  0  0  0  0  0  0  0  0  0  0  0
  -24.3135  -17.1214  145.8338 C   0  0  0  0  0  0  0  0  0  0  0  0
  -24.4856  -15.9950  145.0258 C   0  0  0  0  0  0  0  0  0  0  0  0
  -24.6198  -14.7385  145.5987 C   0  0  0  0  0  0  0  0  0  0  0  0
  -24.2722  -13.4846  144.9662 C   0  0  0  0  0  0  0  0  0  0  0  0
  -24.5839  -17.0039  147.2141 N   0  0  0  0  0  0  0  0  0  0  0  0
  -24.9520  -15.8468  147.8408 C   0  0  0  0  0  0  0  0  0  0  0  0
  -24.9304  -14.6687  147.1055 N   0  0  0  0  0  0  0  0  0  0  0  0
  -24.6290  -12.4269  145.4334 O   0  0  0  0  0  0  0  0  0  0  0  0
  -23.5973  -13.6212  143.9164 O   0  0  0  0  0  0  0  0  0  0  0  0
  -25.3470  -12.0976  146.4767 C   0  0  0  0  0  0  0  0  0  0  0  0
  -26.6544  -11.4282  145.9857 C   0  0  0  0  0  0  0  0  0  0  0  0
  -27.8382  -12.1199  146.0096 C   0  0  0  0  0  0  0  0  0  0  0  0
  -28.0026  -13.4278  146.6128 C   0  0  0  0  0  0  0  0  0  0  0  0
  -29.2240  -13.9537  146.9107 C   0  0  0  0  0  0  0  0  0  0  0  0
  -30.3831  -13.0589  146.7628 C   0  0  0  0  0  0  0  0  0  0  0  0
  -30.1714  -11.7589  146.4421 C   0  0  0  0  0  0  0  0  0  0  0  0
  -28.8899  -11.2340  146.1624 C   0  0  0  0  0  0  0  0  0  0  0  0
  1  2  1  0
  2  3  1  0
  3  4  1  0
  4  5  2  3
  2  6  1  0
  6  7  1  0
  4  8  1  0
  7  8  1  0
  5  9  1  0
  5 10  1  0
  9 11  1  0
 11 12  1  0
 12 13  1  0
 13 14  2  0
 14 15  1  0
 15 16  2  0
 16 17  1  0
 17 18  2  0
 18 13  1  0
M  END

$$$$
No_464-/dssg/home/sw_qyf/PocketFlow/Model-Generation-Results/5HT2A_7WC7_rec_A_10.pdb/2024-01-01-03-54-21/
     RDKit          3D

 13 13  0  0  0  0  0  0  0  0999 V2000
  -23.1746  -16.6014  144.8668 C   0  0  0  0  0  0  0  0  0  0  0  0
  -23.8963  -15.5346  144.7885 C   0  0  0  0  0  0  0  0  0  0  0  0
  -24.5755  -15.0383  145.9043 C   0  0  0  0  0  0  0  0  0  0  0  0
  -25.0618  -13.6819  146.0347 C   0  0  0  0  0  0  0  0  0  0  0  0
  -23.4234  -17.5426  145.8975 C   0  0  0  0  0  0  0  0  0  0  0  0
  -24.0804  -17.1685  147.0476 C   0  0  0  0  0  0  0  0  0  0  0  0
  -24.6332  -15.8976  147.1094 C   0  0  0  0  0  0  0  0  0  0  0  0
  -24.9935  -12.7569  145.2818 C   0  0  0  0  0  0  0  0  0  0  0  0
  -25.5056  -11.4276  145.3575 C   0  0  0  0  0  0  0  0  0  0  0  0
  -25.6387  -10.5670  144.3394 C   0  0  0  0  0  0  0  0  0  0  0  0
  -24.1336  -17.9897  148.1422 N   0  0  0  0  0  0  0  0  0  0  0  0
  -23.6366  -17.4964  149.3620 C   0  0  0  0  0  0  0  0  0  0  0  0
  -24.5092  -17.3138  150.5308 C   0  0  0  0  0  0  0  0  0  0  0  0
  4  8  1  0
  8  9  2  3
  9 10  1  0
  6 11  1  0
 11 12  1  0
 12 13  3  0
  4  3  1  0
  1  2  2  0
  2  3  1  0
  3  7  2  0
  7  6  1  0
  6  5  2  0
  5  1  1  0
M  END

$$$$
No_465-/dssg/home/sw_qyf/PocketFlow/Model-Generation-Results/5HT2A_7WC7_rec_A_10.pdb/2024-01-01-03-54-21/
     RDKit          3D

 35 38  0  0  0  0  0  0  0  0999 V2000
  -23.1746  -16.6014  144.8668 C   0  0  0  0  0  0  0  0  0  0  0  0
  -23.7011  -17.0158  145.9774 C   0  0  0  0  0  0  0  0  0  0  0  0
  -23.7336  -18.2775  146.3737 C   0  0  0  0  0  0  0  0  0  0  0  0
  -23.5409  -19.2836  145.4567 C   0  0  0  0  0  0  0  0  0  0  0  0
  -23.2303  -15.1836  144.5024 C   0  0  0  0  0  0  0  0  0  0  0  0
  -23.9488  -14.2204  145.2760 C   0  0  0  0  0  0  0  0  0  0  0  0
  -24.5620  -14.6805  146.4785 C   0  0  0  0  0  0  0  0  0  0  0  0
  -24.4148  -16.0451  146.8638 C   0  0  0  0  0  0  0  0  0  0  0  0
  -23.9563  -12.7950  144.9885 C   0  0  0  0  0  0  0  0  0  0  0  0
  -24.9794  -12.1973  144.7967 O   0  0  0  0  0  0  0  0  0  0  0  0
  -22.7428  -12.2154  144.8945 O   0  0  0  0  0  0  0  0  0  0  0  0
  -25.8143  -11.9495  145.8853 C   0  0  0  0  0  0  0  0  0  0  0  0
  -27.2758  -11.8378  145.5737 C   0  0  0  0  0  0  0  0  0  0  0  0
  -28.1904  -12.2678  146.5425 C   0  0  0  0  0  0  0  0  0  0  0  0
  -29.4485  -12.0999  146.3220 C   0  0  0  0  0  0  0  0  0  0  0  0
  -29.8791  -11.2448  145.3046 C   0  0  0  0  0  0  0  0  0  0  0  0
  -28.9457  -10.6192  144.4923 C   0  0  0  0  0  0  0  0  0  0  0  0
  -27.5676  -10.8944  144.6933 C   0  0  0  0  0  0  0  0  0  0  0  0
  -29.4136   -9.7060  143.4206 C   0  0  0  0  0  0  0  0  0  0  0  0
  -29.9336   -8.5386  143.7023 C   0  0  0  0  0  0  0  0  0  0  0  0
  -30.4182   -7.6604  142.6648 C   0  0  0  0  0  0  0  0  0  0  0  0
  -29.7627   -7.7854  141.5679 C   0  0  0  0  0  0  0  0  0  0  0  0
  -30.0767   -6.9655  140.3832 C   0  0  0  0  0  0  0  0  0  0  0  0
  -28.9840   -9.9545  142.1085 C   0  0  0  0  0  0  0  0  0  0  0  0
  -29.2070   -9.0223  141.1238 C   0  0  0  0  0  0  0  0  0  0  0  0
  -29.7012   -7.2944  139.1675 O   0  0  0  0  0  0  0  0  0  0  0  0
  -30.4176  -12.6157  147.2206 N   0  0  0  0  0  0  0  0  0  0  0  0
  -30.3658  -12.1278  148.5505 C   0  0  0  0  0  0  0  0  0  0  0  0
  -31.5115  -12.6635  149.3821 C   0  0  0  0  0  0  0  0  0  0  0  0
  -32.4561  -12.1989  149.5438 C   0  0  0  0  0  0  0  0  0  0  0  0
  -32.8288  -10.8437  148.9984 C   0  0  0  0  0  0  0  0  0  0  0  0
  -29.0105   -8.4787  138.9800 C   0  0  0  0  0  0  0  0  0  0  0  0
  -28.6954   -9.3317  140.0022 C   0  0  0  0  0  0  0  0  0  0  0  0
  -28.5515   -8.6326  137.5815 C   0  0  0  0  0  0  0  0  0  0  0  0
  -27.8824  -10.4387  139.6474 C   0  0  0  0  0  0  0  0  0  0  0  0
  3  4  1  0
  6  9  1  0
  9 10  1  0
  9 11  2  0
 10 12  1  0
 12 13  1  0
 17 19  1  0
 22 23  1  0
 23 26  1  0
 15 27  1  0
 27 28  1  0
 28 29  1  0
 29 30  2  3
 30 31  1  0
 26 32  1  0
 25 33  1  0
 32 33  1  0
 32 34  1  0
 33 35  1  0
  3  2  1  0
 13 14  2  0
 14 15  1  0
 15 16  2  0
 16 17  1  0
 17 18  2  0
 18 13  1  0
  1  2  2  0
  2  8  1  0
  8  7  2  0
  7  6  1  0
  6  5  2  0
  5  1  1  0
 19 20  2  0
 20 21  1  0
 21 22  2  0
 22 25  1  0
 25 24  2  0
 24 19  1  0
M  END

$$$$
No_466-/dssg/home/sw_qyf/PocketFlow/Model-Generation-Results/5HT2A_7WC7_rec_A_10.pdb/2024-01-01-03-54-21/
     RDKit          3D

 35 39  0  0  0  0  0  0  0  0999 V2000
  -23.1746  -16.6014  144.8668 C   0  0  0  0  0  0  0  0  0  0  0  0
  -24.0189  -16.0564  145.8445 C   0  0  0  0  0  0  0  0  0  0  0  0
  -24.4145  -16.8299  146.9062 C   0  0  0  0  0  0  0  0  0  0  0  0
  -23.8925  -17.9780  147.0944 C   0  0  0  0  0  0  0  0  0  0  0  0
  -23.0516  -18.5662  146.1819 C   0  0  0  0  0  0  0  0  0  0  0  0
  -22.8569  -15.7742  143.8604 N   0  0  0  0  0  0  0  0  0  0  0  0
  -22.6953  -17.8506  145.1267 C   0  0  0  0  0  0  0  0  0  0  0  0
  -24.5873  -14.6657  145.6287 C   0  0  0  0  0  0  0  0  0  0  0  0
  -25.3785  -14.0828  146.6951 C   0  0  0  0  0  0  0  0  0  0  0  0
  -24.3129  -13.8945  144.5425 C   0  0  0  0  0  0  0  0  0  0  0  0
  -23.3346  -14.5244  143.6927 N   0  0  0  0  0  0  0  0  0  0  0  0
  -25.5298  -12.6580  146.6163 C   0  0  0  0  0  0  0  0  0  0  0  0
  -25.1678  -11.9293  145.4719 C   0  0  0  0  0  0  0  0  0  0  0  0
  -24.3620  -12.5423  144.5236 C   0  0  0  0  0  0  0  0  0  0  0  0
  -25.6243  -10.6537  145.3994 O   0  0  0  0  0  0  0  0  0  0  0  0
  -26.7026  -10.4028  144.5274 C   0  0  0  0  0  0  0  0  0  0  0  0
  -27.8554  -10.8171  145.0939 C   0  0  0  0  0  0  0  0  0  0  0  0
  -29.1085  -10.3860  144.4690 C   0  0  0  0  0  0  0  0  0  0  0  0
  -29.1410   -9.5013  143.4436 C   0  0  0  0  0  0  0  0  0  0  0  0
  -30.3256   -8.9138  143.0309 C   0  0  0  0  0  0  0  0  0  0  0  0
  -30.3845   -8.2537  141.7900 C   0  0  0  0  0  0  0  0  0  0  0  0
  -29.3418   -8.4240  140.8953 C   0  0  0  0  0  0  0  0  0  0  0  0
  -29.2976   -7.6982  139.6809 C   0  0  0  0  0  0  0  0  0  0  0  0
  -28.3762   -8.0936  138.6564 C   0  0  0  0  0  0  0  0  0  0  0  0
  -27.5672   -9.2615  138.9700 C   0  0  0  0  0  0  0  0  0  0  0  0
  -27.6455   -9.9574  140.2045 C   0  0  0  0  0  0  0  0  0  0  0  0
  -28.6258   -9.5166  141.1687 C   0  0  0  0  0  0  0  0  0  0  0  0
  -28.3615  -10.0062  142.3431 C   0  0  0  0  0  0  0  0  0  0  0  0
  -31.4204   -8.7819  143.9127 O   0  0  0  0  0  0  0  0  0  0  0  0
  -28.2671   -7.5529  137.5089 N   0  0  0  0  0  0  0  0  0  0  0  0
  -30.2487  -10.8084  145.0905 O   0  0  0  0  0  0  0  0  0  0  0  0
  -26.8057  -11.1299  140.3639 C   0  0  0  0  0  0  0  0  0  0  0  0
  -27.5129  -12.1433  140.8357 O   0  0  0  0  0  0  0  0  0  0  0  0
  -26.7820  -13.2946  141.2332 C   0  0  0  0  0  0  0  0  0  0  0  0
  -26.3917  -11.5890  139.1125 F   0  0  0  0  0  0  0  0  0  0  0  0
  1  6  1  0
  2  8  1  0
  6 11  1  0
 10 11  1  0
 13 15  1  0
 15 16  1  0
 16 17  1  0
 17 18  2  3
 18 19  1  0
 20 29  1  0
 24 30  1  0
 18 31  1  0
 26 32  1  0
 32 33  1  0
 33 34  1  0
 32 35  1  0
  8  9  2  0
  9 12  1  0
 12 13  2  0
 13 14  1  0
 14 10  2  0
 10  8  1  0
 22 23  1  0
 23 24  2  0
 24 25  1  0
 25 26  2  0
 26 27  1  0
  1  2  1  0
  2  3  2  0
  3  4  1  0
  4  5  2  0
  5  7  1  0
  7  1  2  0
 19 20  2  0
 20 21  1  0
 21 22  2  0
 22 27  1  0
 27 28  2  0
 28 19  1  0
M  END

$$$$
No_467-/dssg/home/sw_qyf/PocketFlow/Model-Generation-Results/5HT2A_7WC7_rec_A_10.pdb/2024-01-01-03-54-21/
     RDKit          3D

  6  6  0  0  0  0  0  0  0  0999 V2000
  -24.1553  -17.8465  145.7021 C   0  0  0  0  0  0  0  0  0  0  0  0
  -24.6364  -17.2931  146.7091 C   0  0  0  0  0  0  0  0  0  0  0  0
  -24.5709  -15.9334  146.8074 C   0  0  0  0  0  0  0  0  0  0  0  0
  -24.2378  -15.1233  145.7159 C   0  0  0  0  0  0  0  0  0  0  0  0
  -23.7252  -15.7878  144.6028 C   0  0  0  0  0  0  0  0  0  0  0  0
  -23.7157  -17.1120  144.6123 C   0  0  0  0  0  0  0  0  0  0  0  0
  1  2  2  0
  2  3  1  0
  3  4  2  0
  4  5  1  0
  5  6  2  0
  6  1  1  0
M  END

$$$$
No_468-/dssg/home/sw_qyf/PocketFlow/Model-Generation-Results/5HT2A_7WC7_rec_A_10.pdb/2024-01-01-03-54-21/
     RDKit          3D

  7  6  0  0  0  0  0  0  0  0999 V2000
  -24.1553  -17.8465  145.7021 C   0  0  0  0  0  0  0  0  0  0  0  0
  -24.2856  -16.6364  145.3494 C   0  0  0  0  0  0  0  0  0  0  0  0
  -24.7838  -15.7223  145.8474 C   0  0  0  0  0  0  0  0  0  0  0  0
  -24.8736  -14.2869  145.3929 C   0  0  0  0  0  0  0  0  0  0  0  0
  -23.9241  -14.0298  144.3753 C   0  0  0  0  0  0  0  0  0  0  0  0
  -23.3470  -18.8564  145.1912 C   0  0  0  0  0  0  0  0  0  0  0  0
  -23.1596  -14.9945  143.9494 N   0  0  0  0  0  0  0  0  0  0  0  0
  1  2  2  3
  2  3  1  0
  3  4  1  0
  4  5  1  0
  1  6  1  0
  5  7  3  0
M  END

$$$$
No_469-/dssg/home/sw_qyf/PocketFlow/Model-Generation-Results/5HT2A_7WC7_rec_A_10.pdb/2024-01-01-03-54-21/
     RDKit          3D

 12 12  0  0  0  0  0  0  0  0999 V2000
  -23.1746  -16.6014  144.8668 C   0  0  0  0  0  0  0  0  0  0  0  0
  -23.7011  -17.0158  145.9774 C   0  0  0  0  0  0  0  0  0  0  0  0
  -24.7096  -16.6222  146.3577 C   0  0  0  0  0  0  0  0  0  0  0  0
  -25.4819  -15.5594  145.8226 C   0  0  0  0  0  0  0  0  0  0  0  0
  -24.9840  -15.0029  144.6879 C   0  0  0  0  0  0  0  0  0  0  0  0
  -23.7823  -15.5257  144.1978 C   0  0  0  0  0  0  0  0  0  0  0  0
  -25.6421  -13.8893  143.9561 C   0  0  0  0  0  0  0  0  0  0  0  0
  -24.9883  -12.8960  143.9220 F   0  0  0  0  0  0  0  0  0  0  0  0
  -25.9148  -14.2621  142.6702 F   0  0  0  0  0  0  0  0  0  0  0  0
  -26.8727  -13.5846  144.5724 F   0  0  0  0  0  0  0  0  0  0  0  0
  -22.8092  -18.3690  146.7590 Cl  0  0  0  0  0  0  0  0  0  0  0  0
  -25.5184  -17.2509  147.9515 Cl  0  0  0  0  0  0  0  0  0  0  0  0
  5  7  1  0
  7  8  1  0
  7  9  1  0
  7 10  1  0
  2 11  1  0
  3 12  1  0
  1  2  2  0
  2  3  1  0
  3  4  2  0
  4  5  1  0
  5  6  2  0
  6  1  1  0
M  END

$$$$
No_470-/dssg/home/sw_qyf/PocketFlow/Model-Generation-Results/5HT2A_7WC7_rec_A_10.pdb/2024-01-01-03-54-21/
     RDKit          3D

 29 30  0  0  0  0  0  0  0  0999 V2000
  -23.1746  -16.6014  144.8668 C   0  0  0  0  0  0  0  0  0  0  0  0
  -23.8963  -15.5346  144.7885 C   0  0  0  0  0  0  0  0  0  0  0  0
  -23.6398  -14.5115  145.3281 C   0  0  0  0  0  0  0  0  0  0  0  0
  -24.3240  -13.3648  145.1280 C   0  0  0  0  0  0  0  0  0  0  0  0
  -25.5072  -13.2953  144.4353 C   0  0  0  0  0  0  0  0  0  0  0  0
  -25.9151  -14.5889  143.8605 C   0  0  0  0  0  0  0  0  0  0  0  0
  -25.1243  -15.6356  144.0574 C   0  0  0  0  0  0  0  0  0  0  0  0
  -23.5175  -17.6172  145.7856 N   0  0  0  0  0  0  0  0  0  0  0  0
  -23.5476  -17.2436  147.0473 C   0  0  0  0  0  0  0  0  0  0  0  0
  -24.8166  -17.6661  147.7629 C   0  0  0  0  0  0  0  0  0  0  0  0
  -24.9049  -17.2371  149.1456 C   0  0  0  0  0  0  0  0  0  0  0  0
  -26.1318  -16.7647  149.6669 C   0  0  0  0  0  0  0  0  0  0  0  0
  -23.9157  -11.9585  145.7359 C   0  0  0  0  0  0  0  0  0  0  0  0
  -27.3209  -17.1161  148.9261 C   0  0  0  0  0  0  0  0  0  0  0  0
  -27.2375  -16.9368  147.4583 C   0  0  0  0  0  0  0  0  0  0  0  0
  -28.3894  -16.7415  146.6655 C   0  0  0  0  0  0  0  0  0  0  0  0
  -25.9672  -17.1461  146.8380 C   0  0  0  0  0  0  0  0  0  0  0  0
  -23.7846  -17.3731  150.0197 C   0  0  0  0  0  0  0  0  0  0  0  0
  -22.6125  -17.3898  149.5671 O   0  0  0  0  0  0  0  0  0  0  0  0
  -23.9868  -17.5108  151.3140 O   0  0  0  0  0  0  0  0  0  0  0  0
  -24.3973  -10.9406  145.3913 F   0  0  0  0  0  0  0  0  0  0  0  0
  -22.4872  -11.8266  145.5624 F   0  0  0  0  0  0  0  0  0  0  0  0
  -24.0547  -12.0843  147.1405 F   0  0  0  0  0  0  0  0  0  0  0  0
  -28.7863  -15.2702  146.6086 C   0  0  0  0  0  0  0  0  0  0  0  0
  -27.9124  -14.2938  146.2871 C   0  0  0  0  0  0  0  0  0  0  0  0
  -28.2122  -12.9081  146.4223 C   0  0  0  0  0  0  0  0  0  0  0  0
  -27.4259  -11.7905  146.0440 C   0  0  0  0  0  0  0  0  0  0  0  0
  -29.5494  -12.6201  146.9145 C   0  0  0  0  0  0  0  0  0  0  0  0
  -29.8771  -11.1931  147.1171 C   0  0  0  0  0  0  0  0  0  0  0  0
  1  2  1  0
  1  8  1  0
  8  9  1  0
  9 10  1  0
 10 11  1  0
 11 12  1  0
  4 13  1  0
 12 14  1  0
 14 15  1  0
 15 16  1  0
 10 17  1  0
 15 17  1  0
 11 18  1  0
 18 19  2  0
 18 20  1  0
 13 21  1  0
 13 22  1  0
 13 23  1  0
 16 24  1  0
 24 25  2  3
 25 26  1  0
 26 27  1  0
 26 28  1  0
 28 29  1  0
  2  3  2  0
  3  4  1  0
  4  5  2  0
  5  6  1  0
  6  7  2  0
  7  2  1  0
M  END

$$$$
No_471-/dssg/home/sw_qyf/PocketFlow/Model-Generation-Results/5HT2A_7WC7_rec_A_10.pdb/2024-01-01-03-54-21/
     RDKit          3D

 13 13  0  0  0  0  0  0  0  0999 V2000
  -24.1553  -17.8465  145.7021 C   0  0  0  0  0  0  0  0  0  0  0  0
  -24.6364  -17.2931  146.7091 C   0  0  0  0  0  0  0  0  0  0  0  0
  -24.0780  -17.2921  147.9389 C   0  0  0  0  0  0  0  0  0  0  0  0
  -24.6761  -16.7363  149.1478 C   0  0  0  0  0  0  0  0  0  0  0  0
  -24.1428  -16.9208  150.3444 N   0  0  0  0  0  0  0  0  0  0  0  0
  -24.6115  -17.5180  144.4165 C   0  0  0  0  0  0  0  0  0  0  0  0
  -25.3349  -16.3218  144.3720 C   0  0  0  0  0  0  0  0  0  0  0  0
  -25.8033  -15.6436  145.5188 C   0  0  0  0  0  0  0  0  0  0  0  0
  -25.2917  -16.0806  146.7845 C   0  0  0  0  0  0  0  0  0  0  0  0
  -26.6593  -14.4515  145.3361 C   0  0  0  0  0  0  0  0  0  0  0  0
  -26.5323  -13.5559  144.3065 C   0  0  0  0  0  0  0  0  0  0  0  0
  -26.5214  -12.2970  144.6001 C   0  0  0  0  0  0  0  0  0  0  0  0
  -25.5853  -11.5638  144.9541 C   0  0  0  0  0  0  0  0  0  0  0  0
  3  4  1  0
  4  5  1  0
  8 10  1  0
 10 11  1  0
 11 12  2  3
 12 13  1  0
  3  2  1  0
  1  2  2  0
  2  9  1  0
  9  8  2  0
  8  7  1  0
  7  6  2  0
  6  1  1  0
M  END

$$$$
No_472-/dssg/home/sw_qyf/PocketFlow/Model-Generation-Results/5HT2A_7WC7_rec_A_10.pdb/2024-01-01-03-54-21/
     RDKit          3D

 32 34  0  0  0  0  0  0  0  0999 V2000
  -24.1553  -17.8465  145.7021 C   0  0  0  0  0  0  0  0  0  0  0  0
  -24.2856  -16.6364  145.3494 C   0  0  0  0  0  0  0  0  0  0  0  0
  -24.7838  -15.7223  145.8474 C   0  0  0  0  0  0  0  0  0  0  0  0
  -24.8736  -14.2869  145.3929 C   0  0  0  0  0  0  0  0  0  0  0  0
  -23.9242  -14.0298  144.3753 C   0  0  0  0  0  0  0  0  0  0  0  0
  -24.8182  -18.2201  146.9016 C   0  0  0  0  0  0  0  0  0  0  0  0
  -25.5286  -17.3057  147.6155 C   0  0  0  0  0  0  0  0  0  0  0  0
  -25.5602  -15.9626  147.1563 C   0  0  0  0  0  0  0  0  0  0  0  0
  -25.6719  -13.2716  146.0024 C   0  0  0  0  0  0  0  0  0  0  0  0
  -25.5995  -11.9953  145.7470 C   0  0  0  0  0  0  0  0  0  0  0  0
  -25.1666  -11.6276  144.5636 C   0  0  0  0  0  0  0  0  0  0  0  0
  -23.9977  -12.3928  144.1143 O   0  0  0  0  0  0  0  0  0  0  0  0
  -26.9748  -11.3437  146.0172 O   0  0  0  0  0  0  0  0  0  0  0  0
  -27.8405  -11.5834  145.2896 C   0  0  0  0  0  0  0  0  0  0  0  0
  -28.1896  -10.9554  144.2094 C   0  0  0  0  0  0  0  0  0  0  0  0
  -29.4694  -10.4265  143.8484 C   0  0  0  0  0  0  0  0  0  0  0  0
  -29.9101  -10.0457  142.6054 C   0  0  0  0  0  0  0  0  0  0  0  0
  -29.3534   -9.3841  141.9883 C   0  0  0  0  0  0  0  0  0  0  0  0
  -29.7641   -8.8820  140.6763 C   0  0  0  0  0  0  0  0  0  0  0  0
  -28.8458   -8.6436  139.6392 C   0  0  0  0  0  0  0  0  0  0  0  0
  -28.9202   -7.6014  138.6892 C   0  0  0  0  0  0  0  0  0  0  0  0
  -27.9825   -7.7485  137.6123 C   0  0  0  0  0  0  0  0  0  0  0  0
  -27.3083  -10.4736  143.1384 C   0  0  0  0  0  0  0  0  0  0  0  0
  -27.8125   -9.9738  141.9220 C   0  0  0  0  0  0  0  0  0  0  0  0
  -28.3411  -12.8753  145.4281 O   0  0  0  0  0  0  0  0  0  0  0  0
  -27.7083   -9.5420  139.4553 C   0  0  0  0  0  0  0  0  0  0  0  0
  -27.4052  -10.6245  140.1165 C   0  0  0  0  0  0  0  0  0  0  0  0
  -27.2256   -9.0769  141.9475 O   0  0  0  0  0  0  0  0  0  0  0  0
  -27.2251  -11.9278  140.0179 C   0  0  0  0  0  0  0  0  0  0  0  0
  -26.4348  -10.6941  140.5989 C   0  0  0  0  0  0  0  0  0  0  0  0
  -26.4717  -12.8113  139.6169 O   0  0  0  0  0  0  0  0  0  0  0  0
  -25.5027  -10.0478  139.4614 C   0  0  0  0  0  0  0  0  0  0  0  0
  3  4  1  0
  4  5  1  0
  4  9  1  0
  9 10  1  0
 10 11  1  0
  5 12  1  0
 11 12  1  0
 10 13  1  0
 13 14  1  0
 14 15  1  0
 18 19  1  0
 19 20  1  0
 20 21  1  0
 21 22  2  0
 14 25  2  0
 20 26  1  0
 26 27  1  0
 24 28  1  0
 27 29  1  0
 27 30  1  0
 29 31  2  0
 30 32  1  0
 15 16  2  0
 16 17  1  0
 17 18  2  0
 18 24  1  0
 24 23  2  0
 23 15  1  0
  1  2  2  0
  2  3  1  0
  3  8  2  0
  8  7  1  0
  7  6  2  0
  6  1  1  0
M  END

$$$$
No_473-/dssg/home/sw_qyf/PocketFlow/Model-Generation-Results/5HT2A_7WC7_rec_A_10.pdb/2024-01-01-03-54-21/
     RDKit          3D

 31 33  0  0  0  0  0  0  0  0999 V2000
  -24.1553  -17.8465  145.7021 C   0  0  0  0  0  0  0  0  0  0  0  0
  -24.2855  -16.6364  145.3494 C   0  0  0  0  0  0  0  0  0  0  0  0
  -25.0033  -15.6772  146.0737 C   0  0  0  0  0  0  0  0  0  0  0  0
  -26.0408  -15.2581  145.8303 C   0  0  0  0  0  0  0  0  0  0  0  0
  -26.4206  -13.9026  145.8490 C   0  0  0  0  0  0  0  0  0  0  0  0
  -25.4508  -12.9924  146.2932 C   0  0  0  0  0  0  0  0  0  0  0  0
  -24.1529  -13.4853  146.7330 C   0  0  0  0  0  0  0  0  0  0  0  0
  -23.8542  -14.8187  146.4465 C   0  0  0  0  0  0  0  0  0  0  0  0
  -23.9807  -17.9435  147.1415 C   0  0  0  0  0  0  0  0  0  0  0  0
  -23.8172  -16.3447  144.0368 N   0  0  0  0  0  0  0  0  0  0  0  0
  -25.8016  -11.5503  146.5617 C   0  0  0  0  0  0  0  0  0  0  0  0
  -26.9880  -11.2750  146.5961 F   0  0  0  0  0  0  0  0  0  0  0  0
  -25.3138  -10.8435  145.4276 F   0  0  0  0  0  0  0  0  0  0  0  0
  -23.2323  -17.0948  147.9279 C   0  0  0  0  0  0  0  0  0  0  0  0
  -23.2383  -17.2211  149.4026 C   0  0  0  0  0  0  0  0  0  0  0  0
  -23.7727  -16.4082  150.2717 C   0  0  0  0  0  0  0  0  0  0  0  0
  -27.2080  -16.1681  145.3602 C   0  0  0  0  0  0  0  0  0  0  0  0
  -28.0260  -16.6833  146.5167 C   0  0  0  0  0  0  0  0  0  0  0  0
  -27.6279  -16.0575  147.7912 C   0  0  0  0  0  0  0  0  0  0  0  0
  -28.3629  -16.5573  149.0156 C   0  0  0  0  0  0  0  0  0  0  0  0
  -28.1341  -17.6223  149.6279 C   0  0  0  0  0  0  0  0  0  0  0  0
  -28.9567  -17.9132  150.7735 C   0  0  0  0  0  0  0  0  0  0  0  0
  -29.7668  -17.1864  151.2265 C   0  0  0  0  0  0  0  0  0  0  0  0
  -30.2904  -15.9740  150.4895 C   0  0  0  0  0  0  0  0  0  0  0  0
  -29.5186  -15.6636  149.3278 C   0  0  0  0  0  0  0  0  0  0  0  0
  -29.9242  -14.5112  148.5456 C   0  0  0  0  0  0  0  0  0  0  0  0
  -30.8088  -13.5762  149.0450 C   0  0  0  0  0  0  0  0  0  0  0  0
  -30.9599  -12.3639  148.3535 C   0  0  0  0  0  0  0  0  0  0  0  0
  -30.1472  -12.0584  147.2111 C   0  0  0  0  0  0  0  0  0  0  0  0
  -29.3130  -13.0533  146.7098 C   0  0  0  0  0  0  0  0  0  0  0  0
  -29.1015  -14.2380  147.4699 C   0  0  0  0  0  0  0  0  0  0  0  0
  1  2  1  0
  2  3  1  0
  1  9  2  3
  2 10  1  0
  6 11  1  0
 11 12  1  0
 11 13  1  0
  9 14  1  0
 14 15  2  3
 15 16  1  0
  4 17  1  0
 17 18  1  0
 18 19  1  0
 19 20  1  0
 25 26  1  0
 26 27  2  0
 27 28  1  0
 28 29  2  0
 29 30  1  0
 30 31  2  0
 31 26  1  0
  3  4  2  0
  4  5  1  0
  5  6  2  0
  6  7  1  0
  7  8  2  0
  8  3  1  0
 20 21  2  0
 21 22  1  0
 22 23  2  0
 23 24  1  0
 24 25  2  0
 25 20  1  0
M  END

$$$$
No_474-/dssg/home/sw_qyf/PocketFlow/Model-Generation-Results/5HT2A_7WC7_rec_A_10.pdb/2024-01-01-03-54-21/
     RDKit          3D

 13 13  0  0  0  0  0  0  0  0999 V2000
  -24.0934  -18.1020  145.4883 Cl  0  0  0  0  0  0  0  0  0  0  0  0
  -24.1957  -16.5069  145.7546 C   0  0  0  0  0  0  0  0  0  0  0  0
  -24.0968  -15.6360  144.6517 C   0  0  0  0  0  0  0  0  0  0  0  0
  -24.0211  -14.2354  144.8988 C   0  0  0  0  0  0  0  0  0  0  0  0
  -23.5820  -13.2585  143.9383 C   0  0  0  0  0  0  0  0  0  0  0  0
  -23.2495  -12.0165  144.7264 C   0  0  0  0  0  0  0  0  0  0  0  0
  -23.8719  -11.7655  146.0247 C   0  0  0  0  0  0  0  0  0  0  0  0
  -24.2990  -13.5599  146.2117 C   0  0  0  0  0  0  0  0  0  0  0  0
  -24.5039  -16.0486  147.1210 C   0  0  0  0  0  0  0  0  0  0  0  0
  -24.6128  -17.0115  148.1954 C   0  0  0  0  0  0  0  0  0  0  0  0
  -23.5057  -17.5893  148.5969 C   0  0  0  0  0  0  0  0  0  0  0  0
  -23.3773  -17.6727  150.1291 C   0  0  0  0  0  0  0  0  0  0  0  0
  -24.4741  -17.3848  150.9487 C   0  0  0  0  0  0  0  0  0  0  0  0
  1  2  1  0
  2  3  1  0
  3  4  2  3
  4  5  1  0
  5  6  2  0
  6  7  1  0
  4  8  1  0
  7  8  2  0
  2  9  1  0
  9 10  3  0
 10 11  1  0
 11 12  2  3
 12 13  1  0
M  END

$$$$
No_475-/dssg/home/sw_qyf/PocketFlow/Model-Generation-Results/5HT2A_7WC7_rec_A_10.pdb/2024-01-01-03-54-21/
     RDKit          3D

 35 38  0  0  0  0  0  0  0  0999 V2000
  -23.1746  -16.6014  144.8668 C   0  0  0  0  0  0  0  0  0  0  0  0
  -24.0189  -16.0564  145.8445 C   0  0  0  0  0  0  0  0  0  0  0  0
  -24.4145  -16.8299  146.9062 C   0  0  0  0  0  0  0  0  0  0  0  0
  -23.8925  -17.9780  147.0944 C   0  0  0  0  0  0  0  0  0  0  0  0
  -23.0516  -18.5662  146.1819 C   0  0  0  0  0  0  0  0  0  0  0  0
  -22.7171  -17.7851  145.1421 N   0  0  0  0  0  0  0  0  0  0  0  0
  -24.6298  -14.6625  145.5792 C   0  0  0  0  0  0  0  0  0  0  0  0
  -25.8607  -14.3534  145.9466 C   0  0  0  0  0  0  0  0  0  0  0  0
  -26.3746  -13.0326  145.7437 C   0  0  0  0  0  0  0  0  0  0  0  0
  -25.4736  -11.9970  145.4126 C   0  0  0  0  0  0  0  0  0  0  0  0
  -24.1331  -12.3037  145.2596 C   0  0  0  0  0  0  0  0  0  0  0  0
  -23.6709  -13.5933  145.2793 C   0  0  0  0  0  0  0  0  0  0  0  0
  -27.7874  -12.7547  146.1305 C   0  0  0  0  0  0  0  0  0  0  0  0
  -28.5615  -13.5982  146.9031 C   0  0  0  0  0  0  0  0  0  0  0  0
  -29.8945  -13.1959  147.2439 C   0  0  0  0  0  0  0  0  0  0  0  0
  -30.3096  -11.9061  146.9205 C   0  0  0  0  0  0  0  0  0  0  0  0
  -29.5178  -11.0568  146.1219 C   0  0  0  0  0  0  0  0  0  0  0  0
  -28.2306  -11.4380  145.7963 C   0  0  0  0  0  0  0  0  0  0  0  0
  -30.6672  -13.9901  147.9821 O   0  0  0  0  0  0  0  0  0  0  0  0
  -29.9963   -9.8460  145.7876 O   0  0  0  0  0  0  0  0  0  0  0  0
  -30.4400   -9.7442  144.4211 C   0  0  0  0  0  0  0  0  0  0  0  0
  -30.9247   -8.4225  144.1336 C   0  0  0  0  0  0  0  0  0  0  0  0
  -31.5069   -8.2422  142.8181 C   0  0  0  0  0  0  0  0  0  0  0  0
  -31.4313   -9.1582  141.9831 O   0  0  0  0  0  0  0  0  0  0  0  0
  -23.2686  -11.3505  144.8346 O   0  0  0  0  0  0  0  0  0  0  0  0
  -31.0792  -13.5097  149.2403 C   0  0  0  0  0  0  0  0  0  0  0  0
  -31.6777  -14.3886  150.1052 C   0  0  0  0  0  0  0  0  0  0  0  0
  -32.1579  -13.8980  151.3466 C   0  0  0  0  0  0  0  0  0  0  0  0
  -32.3739  -12.4658  151.4973 C   0  0  0  0  0  0  0  0  0  0  0  0
  -31.8767  -11.6027  150.4478 C   0  0  0  0  0  0  0  0  0  0  0  0
  -31.3487  -12.1114  149.3462 C   0  0  0  0  0  0  0  0  0  0  0  0
  -25.2027  -16.2218  147.9097 O   0  0  0  0  0  0  0  0  0  0  0  0
  -25.9881  -17.1247  148.5797 C   0  0  0  0  0  0  0  0  0  0  0  0
  -25.4225  -17.5272  149.8372 C   0  0  0  0  0  0  0  0  0  0  0  0
  -25.6754  -16.7698  151.0702 C   0  0  0  0  0  0  0  0  0  0  0  0
  2  7  1  0
  9 13  1  0
 15 19  1  0
 17 20  1  0
 20 21  1  0
 21 22  1  0
 22 23  1  0
 23 24  2  0
 11 25  1  0
 19 26  1  0
  3 32  1  0
 32 33  1  0
 33 34  1  0
 34 35  1  0
 26 27  2  0
 27 28  1  0
 28 29  2  0
 29 30  1  0
 30 31  2  0
 31 26  1  0
  1  2  2  0
  2  3  1  0
  3  4  2  0
  4  5  1  0
  5  6  2  0
  6  1  1  0
 13 14  2  0
 14 15  1  0
 15 16  2  0
 16 17  1  0
 17 18  2  0
 18 13  1  0
  7  8  2  0
  8  9  1  0
  9 10  2  0
 10 11  1  0
 11 12  2  0
 12  7  1  0
M  END

$$$$
No_476-/dssg/home/sw_qyf/PocketFlow/Model-Generation-Results/5HT2A_7WC7_rec_A_10.pdb/2024-01-01-03-54-21/
     RDKit          3D

 18 17  0  0  0  0  0  0  0  0999 V2000
  -24.1553  -17.8465  145.7021 C   0  0  0  0  0  0  0  0  0  0  0  0
  -24.2855  -16.6364  145.3494 C   0  0  0  0  0  0  0  0  0  0  0  0
  -25.0033  -15.6772  146.0737 C   0  0  0  0  0  0  0  0  0  0  0  0
  -26.0408  -15.2581  145.8303 C   0  0  0  0  0  0  0  0  0  0  0  0
  -26.7117  -14.1359  146.4654 C   0  0  0  0  0  0  0  0  0  0  0  0
  -25.8398  -13.1270  146.9823 C   0  0  0  0  0  0  0  0  0  0  0  0
  -24.7767  -12.8946  146.2572 C   0  0  0  0  0  0  0  0  0  0  0  0
  -24.3411  -13.6149  145.2657 C   0  0  0  0  0  0  0  0  0  0  0  0
  -23.3414  -12.8119  144.3743 C   0  0  0  0  0  0  0  0  0  0  0  0
  -23.8022  -18.1188  147.0273 C   0  0  0  0  0  0  0  0  0  0  0  0
  -24.3048  -17.7274  147.9015 C   0  0  0  0  0  0  0  0  0  0  0  0
  -24.0744  -17.8013  149.3634 C   0  0  0  0  0  0  0  0  0  0  0  0
  -22.7173  -17.8713  149.7495 C   0  0  0  0  0  0  0  0  0  0  0  0
  -22.6463  -11.8373  145.2039 C   0  0  0  0  0  0  0  0  0  0  0  0
  -28.1572  -14.0427  146.6399 C   0  0  0  0  0  0  0  0  0  0  0  0
  -28.8030  -12.7925  146.4739 C   0  0  0  0  0  0  0  0  0  0  0  0
  -29.7669  -12.1814  146.8644 C   0  0  0  0  0  0  0  0  0  0  0  0
  -30.3829  -12.5601  148.0811 N   0  0  0  0  0  0  0  0  0  0  0  0
  1  2  1  0
  2  3  1  0
  3  4  2  3
  4  5  1  0
  5  6  1  0
  6  7  1  0
  7  8  1  0
  8  9  1  0
  1 10  1  0
 10 11  2  3
 11 12  1  0
 12 13  2  0
  9 14  1  0
  5 15  1  0
 15 16  2  3
 16 17  1  0
 17 18  1  0
M  END

$$$$
No_477-/dssg/home/sw_qyf/PocketFlow/Model-Generation-Results/5HT2A_7WC7_rec_A_10.pdb/2024-01-01-03-54-21/
     RDKit          3D

 35 37  0  0  0  0  0  0  0  0999 V2000
  -24.1553  -17.8465  145.7021 C   0  0  0  0  0  0  0  0  0  0  0  0
  -24.2856  -16.6364  145.3494 C   0  0  0  0  0  0  0  0  0  0  0  0
  -23.7824  -15.9602  144.3554 C   0  0  0  0  0  0  0  0  0  0  0  0
  -24.0538  -14.4894  144.2905 C   0  0  0  0  0  0  0  0  0  0  0  0
  -25.2651  -14.0120  144.8647 C   0  0  0  0  0  0  0  0  0  0  0  0
  -25.8601  -14.8371  145.8582 C   0  0  0  0  0  0  0  0  0  0  0  0
  -25.5374  -16.1958  145.9263 C   0  0  0  0  0  0  0  0  0  0  0  0
  -25.0199  -18.3170  146.7153 C   0  0  0  0  0  0  0  0  0  0  0  0
  -25.8731  -17.1947  146.9261 C   0  0  0  0  0  0  0  0  0  0  0  0
  -25.5607  -12.5986  144.7434 C   0  0  0  0  0  0  0  0  0  0  0  0
  -24.9007  -11.6793  145.5695 C   0  0  0  0  0  0  0  0  0  0  0  0
  -25.5266  -10.3980  145.7238 C   0  0  0  0  0  0  0  0  0  0  0  0
  -26.7622  -10.1140  144.9538 C   0  0  0  0  0  0  0  0  0  0  0  0
  -27.3277  -11.0337  144.1532 C   0  0  0  0  0  0  0  0  0  0  0  0
  -27.0324  -12.3864  144.4904 C   0  0  0  0  0  0  0  0  0  0  0  0
  -28.2995  -10.6784  143.1932 C   0  0  0  0  0  0  0  0  0  0  0  0
  -29.6306  -10.5072  143.6025 C   0  0  0  0  0  0  0  0  0  0  0  0
  -30.5115   -9.8359  142.6750 C   0  0  0  0  0  0  0  0  0  0  0  0
  -30.2780   -8.4337  142.5741 C   0  0  0  0  0  0  0  0  0  0  0  0
  -29.8646   -7.9321  141.2581 C   0  0  0  0  0  0  0  0  0  0  0  0
  -30.2587   -8.4267  140.0410 C   0  0  0  0  0  0  0  0  0  0  0  0
  -29.6028   -8.1232  138.9100 C   0  0  0  0  0  0  0  0  0  0  0  0
  -28.4205   -8.7579  138.5770 C   0  0  0  0  0  0  0  0  0  0  0  0
  -27.8062   -9.4701  139.6644 C   0  0  0  0  0  0  0  0  0  0  0  0
  -27.3910  -10.8020  139.4058 C   0  0  0  0  0  0  0  0  0  0  0  0
  -28.1226  -11.8870  139.8633 C   0  0  0  0  0  0  0  0  0  0  0  0
  -29.1689  -11.4751  140.4289 F   0  0  0  0  0  0  0  0  0  0  0  0
  -28.3739  -12.8579  139.0544 F   0  0  0  0  0  0  0  0  0  0  0  0
  -27.3336  -12.5365  140.9245 F   0  0  0  0  0  0  0  0  0  0  0  0
  -29.0972   -6.6684  141.3225 C   0  0  0  0  0  0  0  0  0  0  0  0
  -29.6180   -5.7642  142.3839 C   0  0  0  0  0  0  0  0  0  0  0  0
  -28.7014   -4.6009  142.4616 C   0  0  0  0  0  0  0  0  0  0  0  0
  -29.3405   -3.3666  142.4433 C   0  0  0  0  0  0  0  0  0  0  0  0
  -29.1378   -2.6735  143.6805 C   0  0  0  0  0  0  0  0  0  0  0  0
  -26.9732  -17.1104  147.6266 O   0  0  0  0  0  0  0  0  0  0  0  0
  1  2  1  0
  1  8  2  0
  7  9  1  0
  8  9  1  0
  5 10  1  0
 14 16  1  0
 16 17  1  0
 17 18  3  0
 18 19  1  0
 19 20  1  0
 20 21  2  3
 21 22  1  0
 22 23  1  0
 23 24  1  0
 24 25  2  3
 25 26  1  0
 26 27  1  0
 26 28  1  0
 26 29  1  0
 20 30  1  0
 30 31  1  0
 31 32  1  0
 32 33  1  0
 33 34  1  0
  9 35  2  0
  2  3  2  0
  3  4  1  0
  4  5  2  0
  5  6  1  0
  6  7  2  0
  7  2  1  0
 10 11  2  0
 11 12  1  0
 12 13  2  0
 13 14  1  0
 14 15  2  0
 15 10  1  0
M  END

$$$$
No_478-/dssg/home/sw_qyf/PocketFlow/Model-Generation-Results/5HT2A_7WC7_rec_A_10.pdb/2024-01-01-03-54-21/
     RDKit          3D

 35 36  0  0  0  0  0  0  0  0999 V2000
  -23.1746  -16.6014  144.8668 C   0  0  0  0  0  0  0  0  0  0  0  0
  -23.8963  -15.5346  144.7885 C   0  0  0  0  0  0  0  0  0  0  0  0
  -23.6398  -14.5115  145.3281 C   0  0  0  0  0  0  0  0  0  0  0  0
  -24.3240  -13.3648  145.1281 C   0  0  0  0  0  0  0  0  0  0  0  0
  -23.8303  -12.0965  145.7921 C   0  0  0  0  0  0  0  0  0  0  0  0
  -25.3060  -13.1626  144.3111 O   0  0  0  0  0  0  0  0  0  0  0  0
  -23.6153  -17.8026  145.6028 C   0  0  0  0  0  0  0  0  0  0  0  0
  -24.0326  -17.4802  146.9278 C   0  0  0  0  0  0  0  0  0  0  0  0
  -25.4132  -17.5062  147.3616 C   0  0  0  0  0  0  0  0  0  0  0  0
  -25.7331  -16.9820  148.6456 C   0  0  0  0  0  0  0  0  0  0  0  0
  -24.8088  -17.0186  149.7288 C   0  0  0  0  0  0  0  0  0  0  0  0
  -23.4177  -17.1250  149.3792 C   0  0  0  0  0  0  0  0  0  0  0  0
  -23.0700  -17.3426  148.0715 C   0  0  0  0  0  0  0  0  0  0  0  0
  -26.4699  -12.5379  144.8009 C   0  0  0  0  0  0  0  0  0  0  0  0
  -26.6218  -11.2508  144.1597 C   0  0  0  0  0  0  0  0  0  0  0  0
  -27.8139  -10.9074  143.4977 C   0  0  0  0  0  0  0  0  0  0  0  0
  -28.2169   -9.8012  143.2535 C   0  0  0  0  0  0  0  0  0  0  0  0
  -29.5354   -9.4365  142.6488 C   0  0  0  0  0  0  0  0  0  0  0  0
  -30.2131   -8.2552  142.6579 C   0  0  0  0  0  0  0  0  0  0  0  0
  -31.5880   -8.1752  142.4865 C   0  0  0  0  0  0  0  0  0  0  0  0
  -29.4797   -6.9691  142.6103 C   0  0  0  0  0  0  0  0  0  0  0  0
  -32.2425   -8.6073  143.5969 O   0  0  0  0  0  0  0  0  0  0  0  0
  -26.5894  -12.5023  146.2659 C   0  0  0  0  0  0  0  0  0  0  0  0
  -27.7900  -12.3651  146.8060 O   0  0  0  0  0  0  0  0  0  0  0  0
  -28.7715  -13.2328  146.3701 C   0  0  0  0  0  0  0  0  0  0  0  0
  -29.4979  -13.9525  147.4894 C   0  0  0  0  0  0  0  0  0  0  0  0
  -30.4282  -13.2132  148.2229 C   0  0  0  0  0  0  0  0  0  0  0  0
  -31.0902  -13.7679  149.3407 C   0  0  0  0  0  0  0  0  0  0  0  0
  -32.0945  -13.0690  150.0793 C   0  0  0  0  0  0  0  0  0  0  0  0
  -32.4371  -13.4167  151.3658 C   0  0  0  0  0  0  0  0  0  0  0  0
  -32.0448  -14.7312  151.7764 C   0  0  0  0  0  0  0  0  0  0  0  0
  -31.1132  -15.4829  151.0407 C   0  0  0  0  0  0  0  0  0  0  0  0
  -30.6167  -14.9642  149.8377 C   0  0  0  0  0  0  0  0  0  0  0  0
  -28.9194   -6.4546  143.6631 O   0  0  0  0  0  0  0  0  0  0  0  0
  -29.3780   -6.3374  141.3796 N   0  0  0  0  0  0  0  0  0  0  0  0
  1  2  1  0
  2  3  2  3
  3  4  1  0
  4  5  1  0
  4  6  1  0
  1  7  2  3
  7  8  1  0
  6 14  1  0
 14 15  1  0
 15 16  1  0
 16 17  2  3
 17 18  1  0
 18 19  1  0
 19 20  1  0
 19 21  1  0
 20 22  1  0
 14 23  1  0
 23 24  1  0
 24 25  1  0
 25 26  1  0
 26 27  2  3
 27 28  1  0
 21 34  1  0
 21 35  1  0
 28 29  2  0
 29 30  1  0
 30 31  2  0
 31 32  1  0
 32 33  2  0
 33 28  1  0
  8  9  2  0
  9 10  1  0
 10 11  2  0
 11 12  1  0
 12 13  2  0
 13  8  1  0
M  END

$$$$
No_479-/dssg/home/sw_qyf/PocketFlow/Model-Generation-Results/5HT2A_7WC7_rec_A_10.pdb/2024-01-01-03-54-21/
     RDKit          3D

 12 13  0  0  0  0  0  0  0  0999 V2000
  -24.1553  -17.8465  145.7021 C   0  0  0  0  0  0  0  0  0  0  0  0
  -24.2856  -16.6364  145.3494 C   0  0  0  0  0  0  0  0  0  0  0  0
  -25.0033  -15.6772  146.0737 C   0  0  0  0  0  0  0  0  0  0  0  0
  -25.1197  -14.2835  145.7299 C   0  0  0  0  0  0  0  0  0  0  0  0
  -25.8358  -13.3153  146.4318 C   0  0  0  0  0  0  0  0  0  0  0  0
  -24.7888  -18.3277  146.8665 C   0  0  0  0  0  0  0  0  0  0  0  0
  -25.5122  -17.4898  147.6544 C   0  0  0  0  0  0  0  0  0  0  0  0
  -25.6629  -16.1113  147.2980 C   0  0  0  0  0  0  0  0  0  0  0  0
  -25.7423  -11.9664  146.1289 C   0  0  0  0  0  0  0  0  0  0  0  0
  -24.9343  -11.5107  145.0792 C   0  0  0  0  0  0  0  0  0  0  0  0
  -24.2381  -13.7675  144.6412 C   0  0  0  0  0  0  0  0  0  0  0  0
  -24.0358  -12.7372  144.4987 N   0  0  0  0  0  0  0  0  0  0  0  0
  3  4  1  0
  1  2  2  0
  2  3  1  0
  3  8  2  0
  8  7  1  0
  7  6  2  0
  6  1  1  0
  4  5  2  0
  5  9  1  0
  9 10  2  0
 10 12  1  0
 12 11  2  0
 11  4  1  0
M  END

$$$$
No_480-/dssg/home/sw_qyf/PocketFlow/Model-Generation-Results/5HT2A_7WC7_rec_A_10.pdb/2024-01-01-03-54-21/
     RDKit          3D

 24 25  0  0  0  0  0  0  0  0999 V2000
  -24.1553  -17.8465  145.7021 C   0  0  0  0  0  0  0  0  0  0  0  0
  -23.9795  -18.4462  146.7426 C   0  0  0  0  0  0  0  0  0  0  0  0
  -25.1196  -16.8106  145.6409 C   0  0  0  0  0  0  0  0  0  0  0  0
  -25.9236  -16.5070  146.7422 C   0  0  0  0  0  0  0  0  0  0  0  0
  -25.6173  -17.2153  147.9099 C   0  0  0  0  0  0  0  0  0  0  0  0
  -24.6179  -18.1473  147.9620 C   0  0  0  0  0  0  0  0  0  0  0  0
  -26.9636  -15.4823  146.6618 C   0  0  0  0  0  0  0  0  0  0  0  0
  -26.8804  -14.3586  146.6853 C   0  0  0  0  0  0  0  0  0  0  0  0
  -27.9877  -13.3736  146.6117 C   0  0  0  0  0  0  0  0  0  0  0  0
  -29.2606  -13.8124  147.0532 C   0  0  0  0  0  0  0  0  0  0  0  0
  -29.3734  -15.2078  147.1781 C   0  0  0  0  0  0  0  0  0  0  0  0
  -28.3041  -16.0810  147.0800 C   0  0  0  0  0  0  0  0  0  0  0  0
  -30.2428  -12.9752  147.1052 F   0  0  0  0  0  0  0  0  0  0  0  0
  -27.5278  -11.9181  146.3550 C   0  0  0  0  0  0  0  0  0  0  0  0
  -27.2581  -11.6896  144.9645 C   0  0  0  0  0  0  0  0  0  0  0  0
  -26.3162  -12.2981  144.3284 C   0  0  0  0  0  0  0  0  0  0  0  0
  -28.0395  -10.6646  144.2978 C   0  0  0  0  0  0  0  0  0  0  0  0
  -28.2704  -10.5517  142.9676 C   0  0  0  0  0  0  0  0  0  0  0  0
  -28.7520  -11.1627  142.3372 C   0  0  0  0  0  0  0  0  0  0  0  0
  -28.7547  -10.9378  140.8449 C   0  0  0  0  0  0  0  0  0  0  0  0
  -27.9952  -11.7281  139.9967 C   0  0  0  0  0  0  0  0  0  0  0  0
  -27.4498  -11.2690  138.7636 C   0  0  0  0  0  0  0  0  0  0  0  0
  -27.9807  -10.1126  138.2855 C   0  0  0  0  0  0  0  0  0  0  0  0
  -28.5362   -9.0909  139.1887 C   0  0  0  0  0  0  0  0  0  0  0  0
  4  7  1  0
 10 13  1  0
  9 14  1  0
 14 15  1  0
 15 16  1  0
 15 17  1  0
 17 18  2  3
 18 19  1  0
 19 20  2  3
 20 21  1  0
 21 22  2  3
 22 23  1  0
 23 24  2  0
  1  2  2  0
  2  6  1  0
  6  5  2  0
  5  4  1  0
  4  3  2  0
  3  1  1  0
  7  8  2  0
  8  9  1  0
  9 10  2  0
 10 11  1  0
 11 12  2  0
 12  7  1  0
M  END

$$$$
No_481-/dssg/home/sw_qyf/PocketFlow/Model-Generation-Results/5HT2A_7WC7_rec_A_10.pdb/2024-01-01-03-54-21/
     RDKit          3D

 35 37  0  0  0  0  0  0  0  0999 V2000
  -24.1553  -17.8465  145.7021 C   0  0  0  0  0  0  0  0  0  0  0  0
  -23.9795  -18.4462  146.7426 C   0  0  0  0  0  0  0  0  0  0  0  0
  -24.2723  -16.4220  145.8037 C   0  0  0  0  0  0  0  0  0  0  0  0
  -24.0151  -15.5895  144.6874 C   0  0  0  0  0  0  0  0  0  0  0  0
  -24.2323  -14.1482  144.8444 C   0  0  0  0  0  0  0  0  0  0  0  0
  -25.5622  -13.6699  145.0843 C   0  0  0  0  0  0  0  0  0  0  0  0
  -26.4075  -13.7332  144.2765 C   0  0  0  0  0  0  0  0  0  0  0  0
  -26.6633  -12.5789  143.4490 C   0  0  0  0  0  0  0  0  0  0  0  0
  -28.0488  -12.1156  143.5549 C   0  0  0  0  0  0  0  0  0  0  0  0
  -28.0562  -10.5955  143.6040 C   0  0  0  0  0  0  0  0  0  0  0  0
  -29.3545   -9.9904  143.6755 C   0  0  0  0  0  0  0  0  0  0  0  0
  -29.6458   -8.8870  142.8918 C   0  0  0  0  0  0  0  0  0  0  0  0
  -29.4739   -8.8405  141.6760 C   0  0  0  0  0  0  0  0  0  0  0  0
  -29.7196   -7.5976  140.9234 C   0  0  0  0  0  0  0  0  0  0  0  0
  -24.1745  -17.7183  148.0110 C   0  0  0  0  0  0  0  0  0  0  0  0
  -24.2657  -16.3920  148.1775 C   0  0  0  0  0  0  0  0  0  0  0  0
  -24.3335  -15.6948  147.0527 C   0  0  0  0  0  0  0  0  0  0  0  0
  -29.4552   -7.5037  139.5341 C   0  0  0  0  0  0  0  0  0  0  0  0
  -28.5155   -8.4156  138.9687 C   0  0  0  0  0  0  0  0  0  0  0  0
  -28.0861   -9.5300  139.8035 C   0  0  0  0  0  0  0  0  0  0  0  0
  -27.1824  -10.4708  139.3175 C   0  0  0  0  0  0  0  0  0  0  0  0
  -28.4876   -9.6333  141.0551 C   0  0  0  0  0  0  0  0  0  0  0  0
  -27.4638  -11.8917  139.6076 C   0  0  0  0  0  0  0  0  0  0  0  0
  -26.4788  -12.7364  139.2915 O   0  0  0  0  0  0  0  0  0  0  0  0
  -30.0474  -10.3351  144.9022 C   0  0  0  0  0  0  0  0  0  0  0  0
  -29.5929  -11.2250  145.7256 O   0  0  0  0  0  0  0  0  0  0  0  0
  -30.2888  -11.6718  146.8640 C   0  0  0  0  0  0  0  0  0  0  0  0
  -29.8401  -12.9020  147.5166 C   0  0  0  0  0  0  0  0  0  0  0  0
  -28.5838  -13.2313  147.3586 O   0  0  0  0  0  0  0  0  0  0  0  0
  -23.2481  -13.2820  144.5811 O   0  0  0  0  0  0  0  0  0  0  0  0
  -30.6505  -13.7186  148.2819 C   0  0  0  0  0  0  0  0  0  0  0  0
  -29.9783  -14.9414  148.7075 C   0  0  0  0  0  0  0  0  0  0  0  0
  -28.8492  -15.1412  147.7991 C   0  0  0  0  0  0  0  0  0  0  0  0
  -28.4026  -14.6976  147.0011 C   0  0  0  0  0  0  0  0  0  0  0  0
  -28.4381  -16.7559  148.0827 C   0  0  0  0  0  0  0  0  0  0  0  0
  3  4  1  0
  4  5  1  0
  5  6  1  0
  6  7  1  0
  7  8  1  0
  8  9  1  0
  9 10  1  0
 10 11  1  0
 11 12  2  3
 12 13  1  0
 20 21  1  0
 21 23  1  0
 23 24  1  0
 11 25  1  0
 25 26  1  0
 26 27  1  0
 27 28  1  0
 28 29  1  0
  5 30  2  0
 28 31  1  0
 31 32  1  0
 32 33  1  0
 29 34  1  0
 33 34  2  0
 33 35  1  0
  1  2  2  0
  2 15  1  0
 15 16  2  0
 16 17  1  0
 17  3  2  0
  3  1  1  0
 13 14  2  0
 14 18  1  0
 18 19  2  0
 19 20  1  0
 20 22  2  0
 22 13  1  0
M  END

$$$$
No_482-/dssg/home/sw_qyf/PocketFlow/Model-Generation-Results/5HT2A_7WC7_rec_A_10.pdb/2024-01-01-03-54-21/
     RDKit          3D

 35 40  0  0  0  0  0  0  0  0999 V2000
  -23.1746  -16.6014  144.8668 C   0  0  0  0  0  0  0  0  0  0  0  0
  -23.7011  -17.0158  145.9774 C   0  0  0  0  0  0  0  0  0  0  0  0
  -24.7095  -16.6222  146.3578 C   0  0  0  0  0  0  0  0  0  0  0  0
  -25.4819  -15.5594  145.8227 C   0  0  0  0  0  0  0  0  0  0  0  0
  -26.6928  -14.9921  146.4004 C   0  0  0  0  0  0  0  0  0  0  0  0
  -27.2819  -13.8193  145.9771 C   0  0  0  0  0  0  0  0  0  0  0  0
  -28.4013  -13.2106  146.5113 C   0  0  0  0  0  0  0  0  0  0  0  0
  -29.2301  -14.0083  147.3264 C   0  0  0  0  0  0  0  0  0  0  0  0
  -28.7785  -15.3331  147.6626 C   0  0  0  0  0  0  0  0  0  0  0  0
  -27.5753  -15.8222  147.2117 C   0  0  0  0  0  0  0  0  0  0  0  0
  -23.7299  -15.4189  144.2644 C   0  0  0  0  0  0  0  0  0  0  0  0
  -24.9328  -14.9113  144.7196 C   0  0  0  0  0  0  0  0  0  0  0  0
  -28.7374  -11.8642  145.9260 C   0  0  0  0  0  0  0  0  0  0  0  0
  -28.1184  -11.1480  145.0117 C   0  0  0  0  0  0  0  0  0  0  0  0
  -28.6572  -10.1796  144.1812 C   0  0  0  0  0  0  0  0  0  0  0  0
  -30.0220   -9.8033  144.3214 C   0  0  0  0  0  0  0  0  0  0  0  0
  -30.6467   -8.8207  143.5890 C   0  0  0  0  0  0  0  0  0  0  0  0
  -29.8990   -8.0698  142.7012 C   0  0  0  0  0  0  0  0  0  0  0  0
  -30.4783   -7.0415  141.8961 C   0  0  0  0  0  0  0  0  0  0  0  0
  -29.6268   -6.4432  140.9001 C   0  0  0  0  0  0  0  0  0  0  0  0
  -27.9620   -9.4911  143.1761 C   0  0  0  0  0  0  0  0  0  0  0  0
  -28.5731   -8.4127  142.4719 C   0  0  0  0  0  0  0  0  0  0  0  0
  -30.4337  -13.5246  147.7510 N   0  0  0  0  0  0  0  0  0  0  0  0
  -23.0290  -18.0797  146.5536 F   0  0  0  0  0  0  0  0  0  0  0  0
  -30.5622  -12.3898  148.6225 C   0  0  0  0  0  0  0  0  0  0  0  0
  -31.8995  -12.1625  149.0972 C   0  0  0  0  0  0  0  0  0  0  0  0
  -32.9770  -12.2178  148.4845 C   0  0  0  0  0  0  0  0  0  0  0  0
  -34.1991  -11.8321  149.1592 C   0  0  0  0  0  0  0  0  0  0  0  0
  -34.0915  -11.2382  150.4942 C   0  0  0  0  0  0  0  0  0  0  0  0
  -32.8771  -11.0725  151.1138 C   0  0  0  0  0  0  0  0  0  0  0  0
  -31.6544  -11.5075  150.4361 C   0  0  0  0  0  0  0  0  0  0  0  0
  -25.4505  -13.8849  144.0488 N   0  0  0  0  0  0  0  0  0  0  0  0
  -26.6767  -13.3293  144.6688 C   0  0  0  0  0  0  0  0  0  0  0  0
  -27.0367  -12.0331  144.2695 O   0  0  0  0  0  0  0  0  0  0  0  0
  -27.1816  -16.9758  147.6837 O   0  0  0  0  0  0  0  0  0  0  0  0
  4  5  1  0
  7 13  1  0
 13 14  2  0
 14 15  1  0
 18 19  1  0
 19 20  2  0
  8 23  1  0
  2 24  1  0
 23 25  1  0
 25 26  1  0
 12 32  1  0
  6 33  1  0
 32 33  1  0
 14 34  1  0
 33 34  1  0
 10 35  1  0
  5  6  2  0
  6  7  1  0
  7  8  2  0
  8  9  1  0
  9 10  2  0
 10  5  1  0
  1  2  2  0
  2  3  1  0
  3  4  2  0
  4 12  1  0
 12 11  2  0
 11  1  1  0
 26 27  2  0
 27 28  1  0
 28 29  2  0
 29 30  1  0
 30 31  2  0
 31 26  1  0
 15 16  2  0
 16 17  1  0
 17 18  2  0
 18 22  1  0
 22 21  2  0
 21 15  1  0
M  END

$$$$
No_483-/dssg/home/sw_qyf/PocketFlow/Model-Generation-Results/5HT2A_7WC7_rec_A_10.pdb/2024-01-01-03-54-21/
     RDKit          3D

 35 37  0  0  0  0  0  0  0  0999 V2000
  -24.1553  -17.8465  145.7021 C   0  0  0  0  0  0  0  0  0  0  0  0
  -23.9795  -18.4462  146.7426 C   0  0  0  0  0  0  0  0  0  0  0  0
  -24.3577  -16.4380  145.7329 C   0  0  0  0  0  0  0  0  0  0  0  0
  -24.4745  -15.6012  144.5587 C   0  0  0  0  0  0  0  0  0  0  0  0
  -24.5845  -14.1656  144.8311 C   0  0  0  0  0  0  0  0  0  0  0  0
  -23.7823  -13.3256  144.1226 C   0  0  0  0  0  0  0  0  0  0  0  0
  -23.9809  -17.8869  148.0803 C   0  0  0  0  0  0  0  0  0  0  0  0
  -24.1884  -16.4815  148.1726 C   0  0  0  0  0  0  0  0  0  0  0  0
  -24.3680  -15.7501  147.0545 C   0  0  0  0  0  0  0  0  0  0  0  0
  -23.5252  -12.0303  144.7310 C   0  0  0  0  0  0  0  0  0  0  0  0
  -24.5461  -11.5065  145.6836 C   0  0  0  0  0  0  0  0  0  0  0  0
  -25.5765  -12.3272  145.7400 C   0  0  0  0  0  0  0  0  0  0  0  0
  -25.6502  -13.6570  145.5325 C   0  0  0  0  0  0  0  0  0  0  0  0
  -26.7952  -11.7261  146.6304 C   0  0  0  0  0  0  0  0  0  0  0  0
  -28.0643  -11.7066  145.8825 C   0  0  0  0  0  0  0  0  0  0  0  0
  -29.1782  -11.9801  146.6820 C   0  0  0  0  0  0  0  0  0  0  0  0
  -29.2436  -12.9668  147.6827 C   0  0  0  0  0  0  0  0  0  0  0  0
  -30.4057  -13.2194  148.4813 C   0  0  0  0  0  0  0  0  0  0  0  0
  -28.1793  -11.1817  144.6306 C   0  0  0  0  0  0  0  0  0  0  0  0
  -29.2177  -10.3508  144.2415 C   0  0  0  0  0  0  0  0  0  0  0  0
  -29.4827   -9.8890  142.9677 C   0  0  0  0  0  0  0  0  0  0  0  0
  -28.6299  -10.4436  141.9467 C   0  0  0  0  0  0  0  0  0  0  0  0
  -27.6815  -11.4673  142.2605 C   0  0  0  0  0  0  0  0  0  0  0  0
  -27.4343  -11.7766  143.5899 C   0  0  0  0  0  0  0  0  0  0  0  0
  -30.5986   -9.0300  142.6663 C   0  0  0  0  0  0  0  0  0  0  0  0
  -30.5167   -8.2000  141.7137 O   0  0  0  0  0  0  0  0  0  0  0  0
  -31.7552   -9.1820  143.2683 O   0  0  0  0  0  0  0  0  0  0  0  0
  -31.2514  -12.1012  148.8380 C   0  0  0  0  0  0  0  0  0  0  0  0
  -32.3502  -12.3650  149.6625 C   0  0  0  0  0  0  0  0  0  0  0  0
  -33.4877  -11.5696  149.4600 C   0  0  0  0  0  0  0  0  0  0  0  0
  -32.8298  -13.8065  149.6131 C   0  0  0  0  0  0  0  0  0  0  0  0
  -28.8597  -10.1391  140.5458 C   0  0  0  0  0  0  0  0  0  0  0  0
  -27.9324  -10.7777  139.6521 C   0  0  0  0  0  0  0  0  0  0  0  0
  -27.9176  -12.1468  139.5813 C   0  0  0  0  0  0  0  0  0  0  0  0
  -27.3063  -12.6386  138.5021 N   0  0  0  0  0  0  0  0  0  0  0  0
  3  4  1  0
  4  5  1  0
 12 14  1  0
 14 15  1  0
 15 16  1  0
 16 17  2  3
 17 18  1  0
 15 19  1  0
 21 25  1  0
 25 26  2  0
 25 27  1  0
 18 28  2  3
 28 29  1  0
 29 30  1  0
 29 31  1  0
 22 32  1  0
 32 33  2  3
 33 34  1  0
 34 35  1  0
 19 20  2  0
 20 21  1  0
 21 22  2  0
 22 23  1  0
 23 24  2  0
 24 19  1  0
  1  2  2  0
  2  7  1  0
  7  8  2  0
  8  9  1  0
  9  3  2  0
  3  1  1  0
  5  6  2  0
  6 10  1  0
 10 11  2  0
 11 12  1  0
 12 13  2  0
 13  5  1  0
M  END

$$$$
No_484-/dssg/home/sw_qyf/PocketFlow/Model-Generation-Results/5HT2A_7WC7_rec_A_10.pdb/2024-01-01-03-54-21/
     RDKit          3D

 35 36  0  0  0  0  0  0  0  0999 V2000
  -23.1746  -16.6014  144.8668 C   0  0  0  0  0  0  0  0  0  0  0  0
  -23.8963  -15.5346  144.7885 C   0  0  0  0  0  0  0  0  0  0  0  0
  -23.6398  -14.5115  145.3281 C   0  0  0  0  0  0  0  0  0  0  0  0
  -24.4028  -13.2284  145.0157 C   0  0  0  0  0  0  0  0  0  0  0  0
  -25.2984  -12.8646  145.9233 C   0  0  0  0  0  0  0  0  0  0  0  0
  -26.0680  -11.6599  145.7426 C   0  0  0  0  0  0  0  0  0  0  0  0
  -27.0166  -11.6690  144.7703 C   0  0  0  0  0  0  0  0  0  0  0  0
  -28.0337  -11.4309  144.8590 C   0  0  0  0  0  0  0  0  0  0  0  0
  -28.8798  -11.3985  146.0663 C   0  0  0  0  0  0  0  0  0  0  0  0
  -30.2485  -10.9150  146.1446 C   0  0  0  0  0  0  0  0  0  0  0  0
  -30.5394  -10.1066  145.1510 N   0  0  0  0  0  0  0  0  0  0  0  0
  -29.9641   -9.8604  144.0468 C   0  0  0  0  0  0  0  0  0  0  0  0
  -28.6355  -10.4447  143.9081 C   0  0  0  0  0  0  0  0  0  0  0  0
  -30.5284   -9.0105  143.0619 C   0  0  0  0  0  0  0  0  0  0  0  0
  -29.9970   -7.7527  142.8603 C   0  0  0  0  0  0  0  0  0  0  0  0
  -29.9310   -7.2403  141.4342 C   0  0  0  0  0  0  0  0  0  0  0  0
  -29.2703   -7.9803  140.6676 C   0  0  0  0  0  0  0  0  0  0  0  0
  -29.1370   -7.5521  139.2454 C   0  0  0  0  0  0  0  0  0  0  0  0
  -28.1865   -8.4010  138.5038 C   0  0  0  0  0  0  0  0  0  0  0  0
  -28.2863   -8.3402  137.1759 C   0  0  0  0  0  0  0  0  0  0  0  0
  -23.5878  -17.4354  146.0231 C   0  0  0  0  0  0  0  0  0  0  0  0
  -23.4668  -16.7942  147.1885 C   0  0  0  0  0  0  0  0  0  0  0  0
  -24.5147  -17.0416  148.1281 C   0  0  0  0  0  0  0  0  0  0  0  0
  -24.2258  -17.2859  149.4144 N   0  0  0  0  0  0  0  0  0  0  0  0
  -25.3206  -17.4522  150.2935 C   0  0  0  0  0  0  0  0  0  0  0  0
  -26.5226  -17.2643  149.6271 C   0  0  0  0  0  0  0  0  0  0  0  0
  -25.9742  -16.8964  148.0744 C   0  0  0  0  0  0  0  0  0  0  0  0
  -31.6528   -9.3532  142.4980 O   0  0  0  0  0  0  0  0  0  0  0  0
  -26.7825  -16.5788  147.0414 C   0  0  0  0  0  0  0  0  0  0  0  0
  -28.1242  -16.9443  147.1376 C   0  0  0  0  0  0  0  0  0  0  0  0
  -22.9352  -18.7446  145.8545 C   0  0  0  0  0  0  0  0  0  0  0  0
  -28.9596  -16.1133  146.2162 C   0  0  0  0  0  0  0  0  0  0  0  0
  -28.4832  -12.1947  147.1060 F   0  0  0  0  0  0  0  0  0  0  0  0
  -27.2486   -9.2106  139.1689 C   0  0  0  0  0  0  0  0  0  0  0  0
  -27.6851  -10.5129  139.5149 C   0  0  0  0  0  0  0  0  0  0  0  0
  1  2  1  0
  2  3  1  0
  3  4  1  0
  4  5  1  0
  5  6  2  3
  6  7  1  0
 12 14  1  0
 14 15  1  0
 15 16  2  3
 16 17  1  0
 17 18  1  0
 18 19  1  0
 19 20  1  0
  1 21  1  0
 21 22  1  0
 22 23  1  0
 23 24  2  0
 24 25  1  0
 25 26  2  0
 23 27  1  0
 26 27  1  0
 14 28  2  0
 27 29  1  0
 29 30  1  0
 21 31  1  0
 30 32  1  0
  9 33  1  0
 19 34  1  0
 34 35  1  0
  7  8  1  0
  8  9  2  0
  9 10  1  0
 10 11  2  0
 11 12  1  0
 12 13  2  0
 13  8  1  0
M  END

$$$$
No_485-/dssg/home/sw_qyf/PocketFlow/Model-Generation-Results/5HT2A_7WC7_rec_A_10.pdb/2024-01-01-03-54-21/
     RDKit          3D

 18 17  0  0  0  0  0  0  0  0999 V2000
  -24.1553  -17.8465  145.7021 C   0  0  0  0  0  0  0  0  0  0  0  0
  -23.9795  -18.4462  146.7426 C   0  0  0  0  0  0  0  0  0  0  0  0
  -25.1593  -16.8262  145.6925 C   0  0  0  0  0  0  0  0  0  0  0  0
  -24.9465  -15.5961  144.9952 C   0  0  0  0  0  0  0  0  0  0  0  0
  -23.7067  -15.3931  144.3087 C   0  0  0  0  0  0  0  0  0  0  0  0
  -23.5002  -14.1147  143.8186 N   0  0  0  0  0  0  0  0  0  0  0  0
  -23.3230  -17.7501  147.8087 C   0  0  0  0  0  0  0  0  0  0  0  0
  -24.1434  -16.7907  148.6163 C   0  0  0  0  0  0  0  0  0  0  0  0
  -24.7173  -17.2960  149.8195 C   0  0  0  0  0  0  0  0  0  0  0  0
  -25.9848  -17.4194  149.9345 O   0  0  0  0  0  0  0  0  0  0  0  0
  -25.6282  -14.4053  145.2305 C   0  0  0  0  0  0  0  0  0  0  0  0
  -26.7262  -14.4839  145.9079 C   0  0  0  0  0  0  0  0  0  0  0  0
  -27.8321  -13.8627  145.8682 C   0  0  0  0  0  0  0  0  0  0  0  0
  -27.7905  -12.6354  145.0589 C   0  0  0  0  0  0  0  0  0  0  0  0
  -28.8056  -11.6171  145.0961 C   0  0  0  0  0  0  0  0  0  0  0  0
  -28.8326  -10.5136  144.3282 C   0  0  0  0  0  0  0  0  0  0  0  0
  -28.0182  -10.4508  143.2318 C   0  0  0  0  0  0  0  0  0  0  0  0
  -27.0590  -11.5139  143.1008 C   0  0  0  0  0  0  0  0  0  0  0  0
  1  2  1  0
  1  3  1  0
  3  4  2  3
  4  5  1  0
  5  6  1  0
  2  7  1  0
  7  8  1  0
  8  9  1  0
  9 10  1  0
  4 11  1  0
 11 12  1  0
 12 13  2  3
 13 14  1  0
 14 15  2  3
 15 16  1  0
 16 17  2  3
 17 18  1  0
M  END

$$$$
No_486-/dssg/home/sw_qyf/PocketFlow/Model-Generation-Results/5HT2A_7WC7_rec_A_10.pdb/2024-01-01-03-54-21/
     RDKit          3D

 34 37  0  0  0  0  0  0  0  0999 V2000
  -23.1746  -16.6014  144.8668 C   0  0  0  0  0  0  0  0  0  0  0  0
  -23.8963  -15.5346  144.7885 C   0  0  0  0  0  0  0  0  0  0  0  0
  -23.6398  -14.5115  145.3281 C   0  0  0  0  0  0  0  0  0  0  0  0
  -24.3240  -13.3648  145.1281 C   0  0  0  0  0  0  0  0  0  0  0  0
  -25.5072  -13.2953  144.4353 C   0  0  0  0  0  0  0  0  0  0  0  0
  -25.9151  -14.5889  143.8605 C   0  0  0  0  0  0  0  0  0  0  0  0
  -25.1243  -15.6356  144.0574 C   0  0  0  0  0  0  0  0  0  0  0  0
  -23.5175  -17.6172  145.7856 N   0  0  0  0  0  0  0  0  0  0  0  0
  -24.3929  -17.4142  146.6280 C   0  0  0  0  0  0  0  0  0  0  0  0
  -25.3988  -17.7473  146.8839 C   0  0  0  0  0  0  0  0  0  0  0  0
  -26.2022  -18.3029  145.7915 C   0  0  0  0  0  0  0  0  0  0  0  0
  -23.8787  -11.9723  145.7462 C   0  0  0  0  0  0  0  0  0  0  0  0
  -23.4382  -17.4252  147.9910 C   0  0  0  0  0  0  0  0  0  0  0  0
  -24.1316  -17.1226  149.3030 C   0  0  0  0  0  0  0  0  0  0  0  0
  -25.5444  -17.3877  149.3340 C   0  0  0  0  0  0  0  0  0  0  0  0
  -26.2704  -17.4883  148.1880 C   0  0  0  0  0  0  0  0  0  0  0  0
  -22.9988  -12.1644  146.6601 N   0  0  0  0  0  0  0  0  0  0  0  0
  -24.3986  -10.9638  145.3681 O   0  0  0  0  0  0  0  0  0  0  0  0
  -23.3350  -17.0631  150.5411 C   0  0  0  0  0  0  0  0  0  0  0  0
  -22.0832  -17.0458  150.4502 O   0  0  0  0  0  0  0  0  0  0  0  0
  -23.9851  -16.7967  151.6146 O   0  0  0  0  0  0  0  0  0  0  0  0
  -27.2362  -14.5371  143.1667 C   0  0  0  0  0  0  0  0  0  0  0  0
  -27.1391  -13.6191  141.9976 C   0  0  0  0  0  0  0  0  0  0  0  0
  -27.7123  -12.4013  141.9019 C   0  0  0  0  0  0  0  0  0  0  0  0
  -27.7363  -11.6372  140.7189 C   0  0  0  0  0  0  0  0  0  0  0  0
  -27.0836  -12.1205  139.5710 C   0  0  0  0  0  0  0  0  0  0  0  0
  -26.1615  -13.1670  139.7848 C   0  0  0  0  0  0  0  0  0  0  0  0
  -26.2720  -13.9968  140.9508 C   0  0  0  0  0  0  0  0  0  0  0  0
  -28.6189  -10.4377  140.6946 C   0  0  0  0  0  0  0  0  0  0  0  0
  -28.3749   -9.4392  139.9195 N   0  0  0  0  0  0  0  0  0  0  0  0
  -28.9846   -8.2584  139.9288 C   0  0  0  0  0  0  0  0  0  0  0  0
  -29.9013   -7.8917  140.9547 C   0  0  0  0  0  0  0  0  0  0  0  0
  -30.2368   -8.8752  141.9005 C   0  0  0  0  0  0  0  0  0  0  0  0
  -29.4616  -10.1189  141.8819 C   0  0  0  0  0  0  0  0  0  0  0  0
  1  2  1  0
  1  8  1  0
  8  9  1  0
  9 10  1  0
 10 11  2  0
  4 12  1  0
  9 13  1  0
 13 14  1  0
 14 15  1  0
 10 16  1  0
 15 16  1  0
 12 17  1  0
 12 18  2  0
 14 19  1  0
 19 20  1  0
 19 21  2  0
  6 22  1  0
 22 23  1  0
 25 29  1  0
  2  3  2  0
  3  4  1  0
  4  5  2  0
  5  6  1  0
  6  7  2  0
  7  2  1  0
 23 24  2  0
 24 25  1  0
 25 26  2  0
 26 27  1  0
 27 28  2  0
 28 23  1  0
 29 30  2  0
 30 31  1  0
 31 32  2  0
 32 33  1  0
 33 34  2  0
 34 29  1  0
M  END

$$$$
No_487-/dssg/home/sw_qyf/PocketFlow/Model-Generation-Results/5HT2A_7WC7_rec_A_10.pdb/2024-01-01-03-54-21/
     RDKit          3D

 30 29  0  0  0  0  0  0  0  0999 V2000
  -24.1553  -17.8465  145.7021 C   0  0  0  0  0  0  0  0  0  0  0  0
  -23.9795  -18.4462  146.7426 C   0  0  0  0  0  0  0  0  0  0  0  0
  -23.2486  -17.2339  144.9771 C   0  0  0  0  0  0  0  0  0  0  0  0
  -23.6760  -15.7689  144.6822 C   0  0  0  0  0  0  0  0  0  0  0  0
  -25.0460  -15.4028  145.0032 C   0  0  0  0  0  0  0  0  0  0  0  0
  -25.3708  -14.0502  144.6668 C   0  0  0  0  0  0  0  0  0  0  0  0
  -26.7601  -13.7304  144.7601 C   0  0  0  0  0  0  0  0  0  0  0  0
  -27.4897  -14.3992  145.7833 C   0  0  0  0  0  0  0  0  0  0  0  0
  -28.8147  -13.9592  146.1155 C   0  0  0  0  0  0  0  0  0  0  0  0
  -29.1136  -12.5669  146.0636 C   0  0  0  0  0  0  0  0  0  0  0  0
  -28.3800  -11.7691  145.0860 C   0  0  0  0  0  0  0  0  0  0  0  0
  -28.7281  -10.4550  144.7699 C   0  0  0  0  0  0  0  0  0  0  0  0
  -28.0443   -9.8272  143.7493 C   0  0  0  0  0  0  0  0  0  0  0  0
  -27.1557  -12.4121  144.4906 C   0  0  0  0  0  0  0  0  0  0  0  0
  -26.9686  -11.9173  142.8280 Cl  0  0  0  0  0  0  0  0  0  0  0  0
  -27.1571  -14.7029  143.4095 C   0  0  0  0  0  0  0  0  0  0  0  0
  -26.0027  -11.4273  145.2342 C   0  0  0  0  0  0  0  0  0  0  0  0
  -28.6356   -8.4783  143.4597 C   0  0  0  0  0  0  0  0  0  0  0  0
  -30.0069   -8.2902  143.3003 C   0  0  0  0  0  0  0  0  0  0  0  0
  -30.5492   -7.2212  142.6411 C   0  0  0  0  0  0  0  0  0  0  0  0
  -30.2394   -7.2979  141.2795 C   0  0  0  0  0  0  0  0  0  0  0  0
  -30.1401   -8.5093  140.6131 C   0  0  0  0  0  0  0  0  0  0  0  0
  -29.1987   -8.5282  139.5074 C   0  0  0  0  0  0  0  0  0  0  0  0
  -27.9373   -9.2467  139.6091 C   0  0  0  0  0  0  0  0  0  0  0  0
  -27.9735  -10.6328  139.1628 C   0  0  0  0  0  0  0  0  0  0  0  0
  -27.4698  -11.5493  139.9241 C   0  0  0  0  0  0  0  0  0  0  0  0
  -27.1709  -12.8929  139.2870 C   0  0  0  0  0  0  0  0  0  0  0  0
  -26.1899  -12.6550  138.6622 C   0  0  0  0  0  0  0  0  0  0  0  0
  -24.9242  -18.5760  147.8180 C   0  0  0  0  0  0  0  0  0  0  0  0
  -28.0930  -12.3746  143.9660 O   0  0  0  0  0  0  0  0  0  0  0  0
  1  2  1  0
  1  3  1  0
  3  4  1  0
  4  5  1  0
  5  6  2  3
  6  7  1  0
  7  8  2  3
  8  9  1  0
  9 10  2  3
 10 11  1  0
 11 12  1  0
 12 13  1  0
 11 14  1  0
 14 15  1  0
  7 16  1  0
 14 17  1  0
 13 18  2  3
 18 19  1  0
 19 20  1  0
 20 21  1  0
 21 22  1  0
 22 23  1  0
 23 24  1  0
 24 25  1  0
 25 26  2  3
 26 27  1  0
 27 28  1  0
  2 29  2  0
 14 30  1  0
M  END

$$$$
No_488-/dssg/home/sw_qyf/PocketFlow/Model-Generation-Results/5HT2A_7WC7_rec_A_10.pdb/2024-01-01-03-54-21/
     RDKit          3D

  9  9  0  0  0  0  0  0  0  0999 V2000
  -24.1553  -17.8465  145.7021 C   0  0  0  0  0  0  0  0  0  0  0  0
  -24.6364  -17.2931  146.7091 C   0  0  0  0  0  0  0  0  0  0  0  0
  -25.8131  -16.4503  146.6208 C   0  0  0  0  0  0  0  0  0  0  0  0
  -26.1145  -15.7676  145.5430 C   0  0  0  0  0  0  0  0  0  0  0  0
  -27.3112  -14.9920  145.4752 C   0  0  0  0  0  0  0  0  0  0  0  0
  -28.1796  -15.0950  146.5738 C   0  0  0  0  0  0  0  0  0  0  0  0
  -27.9394  -15.8763  147.6728 C   0  0  0  0  0  0  0  0  0  0  0  0
  -26.8007  -16.5688  147.7621 C   0  0  0  0  0  0  0  0  0  0  0  0
  -23.1866  -18.7920  145.7710 C   0  0  0  0  0  0  0  0  0  0  0  0
  1  2  2  3
  2  3  1  0
  1  9  1  0
  3  4  2  0
  4  5  1  0
  5  6  2  0
  6  7  1  0
  7  8  2  0
  8  3  1  0
M  END

$$$$
No_489-/dssg/home/sw_qyf/PocketFlow/Model-Generation-Results/5HT2A_7WC7_rec_A_10.pdb/2024-01-01-03-54-21/
     RDKit          3D

 29 31  0  0  0  0  0  0  0  0999 V2000
  -24.1553  -17.8465  145.7021 C   0  0  0  0  0  0  0  0  0  0  0  0
  -23.9795  -18.4462  146.7426 C   0  0  0  0  0  0  0  0  0  0  0  0
  -23.2486  -17.2339  144.9771 C   0  0  0  0  0  0  0  0  0  0  0  0
  -24.9812  -19.0362  147.5824 C   0  0  0  0  0  0  0  0  0  0  0  0
  -23.7180  -16.2391  144.0023 C   0  0  0  0  0  0  0  0  0  0  0  0
  -24.1691  -14.9523  144.6878 C   0  0  0  0  0  0  0  0  0  0  0  0
  -24.1546  -13.8262  144.0736 C   0  0  0  0  0  0  0  0  0  0  0  0
  -23.8373  -12.7161  145.1049 C   0  0  0  0  0  0  0  0  0  0  0  0
  -24.6037  -12.8300  146.3468 C   0  0  0  0  0  0  0  0  0  0  0  0
  -24.7608  -14.1123  146.9922 C   0  0  0  0  0  0  0  0  0  0  0  0
  -24.6186  -15.1106  145.9625 C   0  0  0  0  0  0  0  0  0  0  0  0
  -25.8772  -12.0231  146.3447 C   0  0  0  0  0  0  0  0  0  0  0  0
  -26.5826  -11.7928  145.1359 C   0  0  0  0  0  0  0  0  0  0  0  0
  -26.4900  -10.9481  144.5914 C   0  0  0  0  0  0  0  0  0  0  0  0
  -27.6323  -10.4075  143.9136 C   0  0  0  0  0  0  0  0  0  0  0  0
  -28.8339  -10.0798  144.7415 C   0  0  0  0  0  0  0  0  0  0  0  0
  -30.0026   -9.5814  144.0888 C   0  0  0  0  0  0  0  0  0  0  0  0
  -30.0362   -9.3665  142.7309 C   0  0  0  0  0  0  0  0  0  0  0  0
  -31.1504   -8.7282  142.1312 C   0  0  0  0  0  0  0  0  0  0  0  0
  -29.0126  -10.0055  141.8742 C   0  0  0  0  0  0  0  0  0  0  0  0
  -28.2297  -10.7174  142.3841 C   0  0  0  0  0  0  0  0  0  0  0  0
  -31.1991   -7.5629  142.3427 O   0  0  0  0  0  0  0  0  0  0  0  0
  -27.3747  -12.8815  144.9030 O   0  0  0  0  0  0  0  0  0  0  0  0
  -26.2162  -18.4524  147.0177 C   0  0  0  0  0  0  0  0  0  0  0  0
  -25.7402  -17.6534  145.8870 C   0  0  0  0  0  0  0  0  0  0  0  0
  -22.6389  -18.8203  147.1400 O   0  0  0  0  0  0  0  0  0  0  0  0
  -32.1539   -9.4166  141.6062 O   0  0  0  0  0  0  0  0  0  0  0  0
  -22.4702  -12.6760  145.3951 F   0  0  0  0  0  0  0  0  0  0  0  0
  -23.9294  -11.4801  144.5632 F   0  0  0  0  0  0  0  0  0  0  0  0
  1  2  1  0
  1  3  2  3
  2  4  1  0
  3  5  1  0
  5  6  1  0
  6  7  1  0
  7  8  1  0
  8  9  1  0
  9 10  1  0
  6 11  1  0
 10 11  1  0
  9 12  1  0
 12 13  1  0
 13 14  1  0
 18 19  1  0
 19 22  1  0
 13 23  2  0
  4 24  2  0
  1 25  1  0
 24 25  1  0
  2 26  2  0
 19 27  2  0
  8 28  1  0
  8 29  1  0
 14 15  1  0
 15 16  2  0
 16 17  1  0
 17 18  2  0
 18 20  1  0
 20 21  2  0
 21 15  1  0
M  END

$$$$
No_490-/dssg/home/sw_qyf/PocketFlow/Model-Generation-Results/5HT2A_7WC7_rec_A_10.pdb/2024-01-01-03-54-21/
     RDKit          3D

 25 26  0  0  0  0  0  0  0  0999 V2000
  -24.1553  -17.8465  145.7021 C   0  0  0  0  0  0  0  0  0  0  0  0
  -24.2856  -16.6364  145.3494 C   0  0  0  0  0  0  0  0  0  0  0  0
  -25.0033  -15.6772  146.0737 C   0  0  0  0  0  0  0  0  0  0  0  0
  -25.6964  -16.1810  147.2049 C   0  0  0  0  0  0  0  0  0  0  0  0
  -24.8143  -18.3454  146.8324 C   0  0  0  0  0  0  0  0  0  0  0  0
  -25.5292  -17.4614  147.6373 C   0  0  0  0  0  0  0  0  0  0  0  0
  -23.6541  -16.0768  144.2055 N   0  0  0  0  0  0  0  0  0  0  0  0
  -25.1820  -14.2638  145.6423 C   0  0  0  0  0  0  0  0  0  0  0  0
  -25.4260  -13.4101  146.1129 C   0  0  0  0  0  0  0  0  0  0  0  0
  -25.4912  -11.9561  145.7129 C   0  0  0  0  0  0  0  0  0  0  0  0
  -26.5220  -11.3385  145.3806 C   0  0  0  0  0  0  0  0  0  0  0  0
  -26.9862  -11.3086  144.2962 C   0  0  0  0  0  0  0  0  0  0  0  0
  -27.8179  -10.0725  143.9014 C   0  0  0  0  0  0  0  0  0  0  0  0
  -28.9827  -10.2930  143.1505 C   0  0  0  0  0  0  0  0  0  0  0  0
  -30.1992   -9.6360  143.5353 C   0  0  0  0  0  0  0  0  0  0  0  0
  -31.0206   -9.8349  144.7842 Cl  0  0  0  0  0  0  0  0  0  0  0  0
  -30.8333   -8.7793  142.4785 C   0  0  0  0  0  0  0  0  0  0  0  0
  -32.0679   -8.7245  142.6076 F   0  0  0  0  0  0  0  0  0  0  0  0
  -30.4985   -9.1724  141.2286 F   0  0  0  0  0  0  0  0  0  0  0  0
  -30.4046   -7.4293  142.5677 F   0  0  0  0  0  0  0  0  0  0  0  0
  -24.4793  -14.0917  144.2895 C   0  0  0  0  0  0  0  0  0  0  0  0
  -24.5936  -12.9141  143.8306 O   0  0  0  0  0  0  0  0  0  0  0  0
  -23.7947  -15.0933  143.6620 C   0  0  0  0  0  0  0  0  0  0  0  0
  -24.3932  -11.1976  146.6481 O   0  0  0  0  0  0  0  0  0  0  0  0
  -28.7248  -10.3499  141.6920 C   0  0  0  0  0  0  0  0  0  0  0  0
  9 10  1  0
 10 11  1  0
 11 12  1  0
 12 13  1  0
 13 14  2  3
 14 15  1  0
 15 16  1  0
 15 17  1  0
 17 18  1  0
 17 19  1  0
 17 20  1  0
 21 22  1  0
 10 24  1  0
 14 25  1  0
  9  8  1  0
  3  8  1  0
  8 21  2  0
 21 23  1  0
 23  7  2  0
  7  2  1  0
  1  2  2  0
  2  3  1  0
  3  4  2  0
  4  6  1  0
  6  5  2  0
  5  1  1  0
M  END

$$$$
No_491-/dssg/home/sw_qyf/PocketFlow/Model-Generation-Results/5HT2A_7WC7_rec_A_10.pdb/2024-01-01-03-54-21/
     RDKit          3D

 16 16  0  0  0  0  0  0  0  0999 V2000
  -23.1746  -16.6014  144.8668 C   0  0  0  0  0  0  0  0  0  0  0  0
  -23.7011  -17.0158  145.9774 C   0  0  0  0  0  0  0  0  0  0  0  0
  -24.2134  -16.0722  146.8877 C   0  0  0  0  0  0  0  0  0  0  0  0
  -23.3742  -15.2706  144.3922 C   0  0  0  0  0  0  0  0  0  0  0  0
  -24.0445  -14.2973  145.2608 C   0  0  0  0  0  0  0  0  0  0  0  0
  -24.4773  -14.7066  146.5258 C   0  0  0  0  0  0  0  0  0  0  0  0
  -24.1883  -12.8818  144.8809 C   0  0  0  0  0  0  0  0  0  0  0  0
  -23.0442  -12.3474  144.8138 O   0  0  0  0  0  0  0  0  0  0  0  0
  -25.2725  -12.3256  144.7888 N   0  0  0  0  0  0  0  0  0  0  0  0
  -26.5811  -12.7722  145.0033 C   0  0  0  0  0  0  0  0  0  0  0  0
  -27.3155  -11.9806  146.0666 C   0  0  0  0  0  0  0  0  0  0  0  0
  -28.5872  -12.3036  146.4767 C   0  0  0  0  0  0  0  0  0  0  0  0
  -28.7899  -13.6949  147.0026 C   0  0  0  0  0  0  0  0  0  0  0  0
  -27.9459  -14.7086  146.9571 C   0  0  0  0  0  0  0  0  0  0  0  0
  -28.2362  -15.9695  147.5163 C   0  0  0  0  0  0  0  0  0  0  0  0
  -27.4126  -17.0811  147.3614 C   0  0  0  0  0  0  0  0  0  0  0  0
  5  7  1  0
  7  8  2  0
  7  9  1  0
  9 10  1  0
 10 11  1  0
 11 12  1  0
 12 13  2  3
 13 14  1  0
 14 15  2  3
 15 16  1  0
  1  2  2  0
  2  3  1  0
  3  6  2  0
  6  5  1  0
  5  4  2  0
  4  1  1  0
M  END

$$$$
No_492-/dssg/home/sw_qyf/PocketFlow/Model-Generation-Results/5HT2A_7WC7_rec_A_10.pdb/2024-01-01-03-54-21/
     RDKit          3D

 22 23  0  0  0  0  0  0  0  0999 V2000
  -24.1553  -17.8465  145.7021 C   0  0  0  0  0  0  0  0  0  0  0  0
  -24.2855  -16.6364  145.3494 C   0  0  0  0  0  0  0  0  0  0  0  0
  -25.0033  -15.6772  146.0737 C   0  0  0  0  0  0  0  0  0  0  0  0
  -25.7223  -16.0755  147.0214 C   0  0  0  0  0  0  0  0  0  0  0  0
  -24.8891  -18.3427  146.7818 C   0  0  0  0  0  0  0  0  0  0  0  0
  -25.6059  -17.4168  147.5658 C   0  0  0  0  0  0  0  0  0  0  0  0
  -23.3808  -15.9873  143.9526 Cl  0  0  0  0  0  0  0  0  0  0  0  0
  -24.9913  -14.2572  145.4148 C   0  0  0  0  0  0  0  0  0  0  0  0
  -25.8911  -13.6730  145.0117 C   0  0  0  0  0  0  0  0  0  0  0  0
  -26.1019  -12.3003  144.9039 C   0  0  0  0  0  0  0  0  0  0  0  0
  -27.2703  -11.5818  144.4371 C   0  0  0  0  0  0  0  0  0  0  0  0
  -28.2472  -11.2000  145.4104 C   0  0  0  0  0  0  0  0  0  0  0  0
  -29.4619  -10.5015  145.0132 C   0  0  0  0  0  0  0  0  0  0  0  0
  -29.4481   -9.9626  143.8094 C   0  0  0  0  0  0  0  0  0  0  0  0
  -30.5953   -9.1925  143.3627 C   0  0  0  0  0  0  0  0  0  0  0  0
  -30.5274   -8.4758  142.1492 C   0  0  0  0  0  0  0  0  0  0  0  0
  -29.4314   -8.7789  141.2551 C   0  0  0  0  0  0  0  0  0  0  0  0
  -29.3354   -8.0679  140.0381 C   0  0  0  0  0  0  0  0  0  0  0  0
  -28.3879   -8.4968  139.0816 C   0  0  0  0  0  0  0  0  0  0  0  0
  -28.3548   -7.9353  137.7937 C   0  0  0  0  0  0  0  0  0  0  0  0
  -27.4305  -11.1780  143.1242 C   0  0  0  0  0  0  0  0  0  0  0  0
  -28.5042  -10.3075  142.7749 C   0  0  0  0  0  0  0  0  0  0  0  0
  2  7  1  0
  3  8  1  0
  8  9  1  0
  9 10  2  3
 10 11  1  0
 14 15  1  0
 15 16  1  0
 16 17  2  3
 17 18  1  0
 18 19  2  3
 19 20  1  0
  1  2  2  0
  2  3  1  0
  3  4  2  0
  4  6  1  0
  6  5  2  0
  5  1  1  0
 11 12  2  0
 12 13  1  0
 13 14  2  0
 14 22  1  0
 22 21  2  0
 21 11  1  0
M  END

$$$$
No_493-/dssg/home/sw_qyf/PocketFlow/Model-Generation-Results/5HT2A_7WC7_rec_A_10.pdb/2024-01-01-03-54-21/
     RDKit          3D

 17 18  0  0  0  0  0  0  0  0999 V2000
  -23.1746  -16.6014  144.8668 C   0  0  0  0  0  0  0  0  0  0  0  0
  -23.8963  -15.5346  144.7885 C   0  0  0  0  0  0  0  0  0  0  0  0
  -24.5755  -15.0383  145.9043 C   0  0  0  0  0  0  0  0  0  0  0  0
  -24.6688  -15.8869  147.0363 C   0  0  0  0  0  0  0  0  0  0  0  0
  -24.0226  -17.0824  147.0622 C   0  0  0  0  0  0  0  0  0  0  0  0
  -23.2575  -17.4593  145.9560 C   0  0  0  0  0  0  0  0  0  0  0  0
  -25.3126  -13.7148  145.9424 C   0  0  0  0  0  0  0  0  0  0  0  0
  -26.5819  -13.5838  146.0520 C   0  0  0  0  0  0  0  0  0  0  0  0
  -27.2105  -12.3064  146.0309 C   0  0  0  0  0  0  0  0  0  0  0  0
  -26.4111  -11.1942  145.6783 C   0  0  0  0  0  0  0  0  0  0  0  0
  -24.4639  -12.6150  145.6343 C   0  0  0  0  0  0  0  0  0  0  0  0
  -25.0323  -11.3652  145.6293 C   0  0  0  0  0  0  0  0  0  0  0  0
  -28.6705  -12.1047  146.1523 C   0  0  0  0  0  0  0  0  0  0  0  0
  -29.5575  -10.8874  145.5203 P   0  0  0  0  0  0  0  0  0  0  0  0
  -29.6881  -10.9986  144.1927 O   0  0  0  0  0  0  0  0  0  0  0  0
  -30.8938  -10.7977  146.3765 O   0  0  0  0  0  0  0  0  0  0  0  0
  -28.7446   -9.5684  145.6412 O   0  0  0  0  0  0  0  0  0  0  0  0
  3  7  1  0
  9 13  1  0
 13 14  1  0
 14 15  2  0
 14 16  1  0
 14 17  1  0
  7  8  2  0
  8  9  1  0
  9 10  2  0
 10 12  1  0
 12 11  2  0
 11  7  1  0
  1  2  2  0
  2  3  1  0
  3  4  2  0
  4  5  1  0
  5  6  2  0
  6  1  1  0
M  END

$$$$
No_494-/dssg/home/sw_qyf/PocketFlow/Model-Generation-Results/5HT2A_7WC7_rec_A_10.pdb/2024-01-01-03-54-21/
     RDKit          3D

 30 31  0  0  0  0  0  0  0  0999 V2000
  -24.1553  -17.8465  145.7021 C   0  0  0  0  0  0  0  0  0  0  0  0
  -24.2856  -16.6364  145.3494 C   0  0  0  0  0  0  0  0  0  0  0  0
  -23.7824  -15.9602  144.3553 C   0  0  0  0  0  0  0  0  0  0  0  0
  -23.9871  -14.5276  144.1537 C   0  0  0  0  0  0  0  0  0  0  0  0
  -24.7876  -13.8357  145.1352 C   0  0  0  0  0  0  0  0  0  0  0  0
  -25.3945  -14.5459  146.1755 C   0  0  0  0  0  0  0  0  0  0  0  0
  -25.0741  -15.8908  146.3327 C   0  0  0  0  0  0  0  0  0  0  0  0
  -23.4600  -18.3671  146.6957 C   0  0  0  0  0  0  0  0  0  0  0  0
  -23.1321  -19.5781  146.9162 O   0  0  0  0  0  0  0  0  0  0  0  0
  -22.7648  -17.4643  147.6073 N   0  0  0  0  0  0  0  0  0  0  0  0
  -25.0035  -12.3847  144.9644 C   0  0  0  0  0  0  0  0  0  0  0  0
  -24.4855  -11.5879  146.0787 C   0  0  0  0  0  0  0  0  0  0  0  0
  -26.3304  -12.1022  144.6574 N   0  0  0  0  0  0  0  0  0  0  0  0
  -26.9905  -11.5660  144.1063 C   0  0  0  0  0  0  0  0  0  0  0  0
  -28.2461  -10.8644  144.6077 C   0  0  0  0  0  0  0  0  0  0  0  0
  -29.1094  -10.0403  143.8817 C   0  0  0  0  0  0  0  0  0  0  0  0
  -30.2670   -9.5524  144.4916 C   0  0  0  0  0  0  0  0  0  0  0  0
  -31.0485   -8.7792  143.7504 N   0  0  0  0  0  0  0  0  0  0  0  0
  -30.7869   -8.3740  142.5610 C   0  0  0  0  0  0  0  0  0  0  0  0
  -29.6041   -8.8010  141.9493 C   0  0  0  0  0  0  0  0  0  0  0  0
  -28.7482   -9.6639  142.6308 C   0  0  0  0  0  0  0  0  0  0  0  0
  -29.3198   -8.2854  140.5853 C   0  0  0  0  0  0  0  0  0  0  0  0
  -28.7274   -9.1034  139.9312 F   0  0  0  0  0  0  0  0  0  0  0  0
  -28.4308   -7.1110  140.6478 F   0  0  0  0  0  0  0  0  0  0  0  0
  -30.4327   -7.8196  139.9424 F   0  0  0  0  0  0  0  0  0  0  0  0
  -30.6541   -9.9188  145.6845 O   0  0  0  0  0  0  0  0  0  0  0  0
  -26.6637  -11.0994  142.9830 O   0  0  0  0  0  0  0  0  0  0  0  0
  -28.4339  -11.0303  145.9426 O   0  0  0  0  0  0  0  0  0  0  0  0
  -29.6341  -11.4663  146.4062 C   0  0  0  0  0  0  0  0  0  0  0  0
  -29.3555  -12.7460  147.2362 C   0  0  0  0  0  0  0  0  0  0  0  0
  1  2  1  0
  1  8  1  0
  8  9  2  0
  8 10  1  0
  5 11  1  0
 11 12  1  0
 11 13  1  0
 13 14  1  0
 14 15  1  0
 16 17  1  0
 17 18  1  0
 19 20  1  0
 16 21  1  0
 20 22  1  0
 22 23  1  0
 22 24  1  0
 22 25  1  0
 17 26  2  0
 14 27  2  0
 15 28  1  0
 28 29  1  0
 29 30  1  0
 15 16  1  0
 21 20  1  0
 19 18  1  0
  2  3  2  0
  3  4  1  0
  4  5  2  0
  5  6  1  0
  6  7  2  0
  7  2  1  0
M  END

$$$$
No_495-/dssg/home/sw_qyf/PocketFlow/Model-Generation-Results/5HT2A_7WC7_rec_A_10.pdb/2024-01-01-03-54-21/
     RDKit          3D

 35 37  0  0  0  0  0  0  0  0999 V2000
  -23.1746  -16.6014  144.8668 C   0  0  0  0  0  0  0  0  0  0  0  0
  -23.8963  -15.5346  144.7885 C   0  0  0  0  0  0  0  0  0  0  0  0
  -24.6479  -15.0447  145.8164 C   0  0  0  0  0  0  0  0  0  0  0  0
  -25.3835  -13.7782  145.7887 C   0  0  0  0  0  0  0  0  0  0  0  0
  -25.5487  -13.1759  144.6122 C   0  0  0  0  0  0  0  0  0  0  0  0
  -26.3152  -11.9466  144.6987 C   0  0  0  0  0  0  0  0  0  0  0  0
  -27.7164  -12.0147  144.7681 C   0  0  0  0  0  0  0  0  0  0  0  0
  -28.5198  -10.9212  144.3064 C   0  0  0  0  0  0  0  0  0  0  0  0
  -28.0630   -9.8753  143.6866 C   0  0  0  0  0  0  0  0  0  0  0  0
  -23.3566  -17.4859  146.0080 C   0  0  0  0  0  0  0  0  0  0  0  0
  -24.0418  -17.0695  147.1602 C   0  0  0  0  0  0  0  0  0  0  0  0
  -24.7313  -15.8184  147.1289 C   0  0  0  0  0  0  0  0  0  0  0  0
  -28.8889   -8.8411  143.2778 C   0  0  0  0  0  0  0  0  0  0  0  0
  -28.4813   -7.7756  142.4278 C   0  0  0  0  0  0  0  0  0  0  0  0
  -30.3459   -9.1611  143.3361 C   0  0  0  0  0  0  0  0  0  0  0  0
  -30.7080  -10.0316  144.2570 F   0  0  0  0  0  0  0  0  0  0  0  0
  -31.2035   -7.9772  143.1590 C   0  0  0  0  0  0  0  0  0  0  0  0
  -29.3211   -6.5755  142.3822 C   0  0  0  0  0  0  0  0  0  0  0  0
  -30.7677   -6.9049  142.4575 N   0  0  0  0  0  0  0  0  0  0  0  0
  -30.6273   -9.9779  141.9523 C   0  0  0  0  0  0  0  0  0  0  0  0
  -29.0001   -5.4776  141.9488 N   0  0  0  0  0  0  0  0  0  0  0  0
  -24.0556  -17.8464  148.4011 C   0  0  0  0  0  0  0  0  0  0  0  0
  -25.3402  -17.5725  149.1594 C   0  0  0  0  0  0  0  0  0  0  0  0
  -25.3491  -17.8639  150.4438 O   0  0  0  0  0  0  0  0  0  0  0  0
  -26.4656  -17.4928  148.6055 O   0  0  0  0  0  0  0  0  0  0  0  0
  -28.0409  -12.7524  146.0793 C   0  0  0  0  0  0  0  0  0  0  0  0
  -27.1420  -13.9452  146.2876 C   0  0  0  0  0  0  0  0  0  0  0  0
  -29.1139  -12.5510  146.8753 C   0  0  0  0  0  0  0  0  0  0  0  0
  -29.8190  -13.2416  147.5177 C   0  0  0  0  0  0  0  0  0  0  0  0
  -29.7297  -14.6904  147.4742 C   0  0  0  0  0  0  0  0  0  0  0  0
  -31.0817  -12.6966  148.2444 C   0  0  0  0  0  0  0  0  0  0  0  0
  -31.5244  -13.4218  149.2033 O   0  0  0  0  0  0  0  0  0  0  0  0
  -31.5402  -11.5669  148.1171 O   0  0  0  0  0  0  0  0  0  0  0  0
  -24.6571  -12.8432  146.8237 C   0  0  0  0  0  0  0  0  0  0  0  0
  -23.2533  -12.9386  146.7946 C   0  0  0  0  0  0  0  0  0  0  0  0
  3  4  1  0
  4  5  1  0
  5  6  1  0
  6  7  1  0
  7  8  2  3
  8  9  1  0
  9 13  1  0
 13 14  2  0
 13 15  1  0
 15 16  1  0
 15 17  1  0
 14 18  1  0
 17 19  1  0
 18 19  1  0
 15 20  1  0
 18 21  1  0
 11 22  1  0
 22 23  1  0
 23 24  1  0
 23 25  2  0
  7 26  1  0
  4 27  1  0
 26 27  1  0
 26 28  1  0
 28 29  2  3
 29 30  1  0
 29 31  1  0
 31 32  1  0
 31 33  2  0
  4 34  1  0
 34 35  1  0
  1  2  2  0
  2  3  1  0
  3 12  2  0
 12 11  1  0
 11 10  2  0
 10  1  1  0
M  END

$$$$
No_496-/dssg/home/sw_qyf/PocketFlow/Model-Generation-Results/5HT2A_7WC7_rec_A_10.pdb/2024-01-01-03-54-21/
     RDKit          3D

 19 20  0  0  0  0  0  0  0  0999 V2000
  -23.1746  -16.6014  144.8668 C   0  0  0  0  0  0  0  0  0  0  0  0
  -23.8963  -15.5346  144.7885 C   0  0  0  0  0  0  0  0  0  0  0  0
  -25.3063  -15.4625  144.8521 C   0  0  0  0  0  0  0  0  0  0  0  0
  -26.0192  -14.2249  144.6050 C   0  0  0  0  0  0  0  0  0  0  0  0
  -25.4319  -13.0993  144.6846 C   0  0  0  0  0  0  0  0  0  0  0  0
  -26.1881  -11.8251  144.7351 C   0  0  0  0  0  0  0  0  0  0  0  0
  -27.2717  -11.7312  143.8960 C   0  0  0  0  0  0  0  0  0  0  0  0
  -27.4830  -12.3963  142.8744 C   0  0  0  0  0  0  0  0  0  0  0  0
  -23.9939  -13.0125  145.0488 C   0  0  0  0  0  0  0  0  0  0  0  0
  -23.2654  -11.8693  145.4951 C   0  0  0  0  0  0  0  0  0  0  0  0
  -23.2424  -14.2016  144.9465 C   0  0  0  0  0  0  0  0  0  0  0  0
  -28.3308  -10.7427  144.2770 C   0  0  0  0  0  0  0  0  0  0  0  0
  -29.1231  -10.0415  143.4184 C   0  0  0  0  0  0  0  0  0  0  0  0
  -29.0924  -10.4819  142.0824 C   0  0  0  0  0  0  0  0  0  0  0  0
  -28.2798  -11.6599  141.7754 C   0  0  0  0  0  0  0  0  0  0  0  0
  -23.6232  -17.6720  145.8571 C   0  0  0  0  0  0  0  0  0  0  0  0
  -23.3812  -17.3749  147.0607 N   0  0  0  0  0  0  0  0  0  0  0  0
  -22.6499  -17.4439  147.8178 C   0  0  0  0  0  0  0  0  0  0  0  0
  -22.8401  -17.1270  149.2337 N   0  0  0  0  0  0  0  0  0  0  0  0
  1  2  2  3
  2  3  1  0
  3  4  1  0
  4  5  1  0
  5  6  1  0
  6  7  1  0
  5  9  1  0
  9 10  1  0
  2 11  1  0
  9 11  1  0
  1 16  1  0
 16 17  1  0
 17 18  1  0
 18 19  2  0
  7  8  2  0
  8 15  1  0
 15 14  2  0
 14 13  1  0
 13 12  2  0
 12  7  1  0
M  END

$$$$
No_497-/dssg/home/sw_qyf/PocketFlow/Model-Generation-Results/5HT2A_7WC7_rec_A_10.pdb/2024-01-01-03-54-21/
     RDKit          3D

 24 26  0  0  0  0  0  0  0  0999 V2000
  -24.1553  -17.8465  145.7021 C   0  0  0  0  0  0  0  0  0  0  0  0
  -23.9795  -18.4462  146.7426 C   0  0  0  0  0  0  0  0  0  0  0  0
  -24.2723  -16.4220  145.8037 C   0  0  0  0  0  0  0  0  0  0  0  0
  -24.0151  -15.5895  144.6874 C   0  0  0  0  0  0  0  0  0  0  0  0
  -24.0834  -17.9646  148.0883 C   0  0  0  0  0  0  0  0  0  0  0  0
  -24.2949  -16.5690  148.2409 C   0  0  0  0  0  0  0  0  0  0  0  0
  -24.3289  -15.7594  147.1024 C   0  0  0  0  0  0  0  0  0  0  0  0
  -23.2822  -14.3816  144.8547 C   0  0  0  0  0  0  0  0  0  0  0  0
  -23.8681  -13.1326  144.2069 C   0  0  0  0  0  0  0  0  0  0  0  0
  -24.4226  -12.3036  145.2687 C   0  0  0  0  0  0  0  0  0  0  0  0
  -24.6462  -12.7160  146.5761 C   0  0  0  0  0  0  0  0  0  0  0  0
  -25.6430  -11.5616  144.6830 C   0  0  0  0  0  0  0  0  0  0  0  0
  -25.7981  -10.7502  143.9753 C   0  0  0  0  0  0  0  0  0  0  0  0
  -27.0741   -9.9985  143.7771 C   0  0  0  0  0  0  0  0  0  0  0  0
  -27.4124   -9.1591  142.9881 C   0  0  0  0  0  0  0  0  0  0  0  0
  -28.7569   -9.0422  142.6751 C   0  0  0  0  0  0  0  0  0  0  0  0
  -29.7355   -9.5767  143.5783 C   0  0  0  0  0  0  0  0  0  0  0  0
  -29.3027  -10.4254  144.5952 C   0  0  0  0  0  0  0  0  0  0  0  0
  -27.9743  -10.6775  144.7733 C   0  0  0  0  0  0  0  0  0  0  0  0
  -27.3733  -11.7151  145.5149 N   0  0  0  0  0  0  0  0  0  0  0  0
  -29.2784   -7.9948  141.7616 C   0  0  0  0  0  0  0  0  0  0  0  0
  -29.5936   -6.9490  141.1543 C   0  0  0  0  0  0  0  0  0  0  0  0
  -30.0163   -6.0607  140.3463 N   0  0  0  0  0  0  0  0  0  0  0  0
  -30.1720  -11.0319  145.4241 O   0  0  0  0  0  0  0  0  0  0  0  0
  1  2  1  0
  1  3  1  0
  3  4  2  3
  2  5  1  0
  5  6  1  0
  3  7  1  0
  6  7  1  0
  4  8  1  0
  8  9  1  0
  9 10  1  0
 10 11  1  0
 10 12  1  0
 12 13  2  0
 13 14  1  0
 12 20  1  0
 19 20  1  0
 16 21  1  0
 21 22  3  0
 22 23  1  0
 18 24  1  0
 14 15  2  0
 15 16  1  0
 16 17  2  0
 17 18  1  0
 18 19  2  0
 19 14  1  0
M  END

$$$$
No_498-/dssg/home/sw_qyf/PocketFlow/Model-Generation-Results/5HT2A_7WC7_rec_A_10.pdb/2024-01-01-03-54-21/
     RDKit          3D

 10 11  0  0  0  0  0  0  0  0999 V2000
  -24.1553  -17.8465  145.7021 C   0  0  0  0  0  0  0  0  0  0  0  0
  -24.2856  -16.6364  145.3494 C   0  0  0  0  0  0  0  0  0  0  0  0
  -25.0033  -15.6772  146.0737 C   0  0  0  0  0  0  0  0  0  0  0  0
  -25.6964  -16.1810  147.2049 C   0  0  0  0  0  0  0  0  0  0  0  0
  -24.8143  -18.3454  146.8324 C   0  0  0  0  0  0  0  0  0  0  0  0
  -25.5291  -17.4614  147.6374 C   0  0  0  0  0  0  0  0  0  0  0  0
  -23.5978  -16.0422  144.1195 C   0  0  0  0  0  0  0  0  0  0  0  0
  -23.0216  -14.8224  144.3099 N   0  0  0  0  0  0  0  0  0  0  0  0
  -23.7400  -13.7844  144.8611 C   0  0  0  0  0  0  0  0  0  0  0  0
  -24.6508  -13.8792  145.6358 C   0  0  0  0  0  0  0  0  0  0  0  0
  1  2  2  0
  3  4  2  0
  4  6  1  0
  6  5  2  0
  5  1  1  0
  2  3  1  0
  3 10  1  0
 10  9  2  0
  9  8  1  0
  8  7  2  0
  7  2  1  0
M  END

$$$$
No_499-/dssg/home/sw_qyf/PocketFlow/Model-Generation-Results/5HT2A_7WC7_rec_A_10.pdb/2024-01-01-03-54-21/
     RDKit          3D

 21 22  0  0  0  0  0  0  0  0999 V2000
  -24.1553  -17.8465  145.7021 C   0  0  0  0  0  0  0  0  0  0  0  0
  -24.2855  -16.6364  145.3494 C   0  0  0  0  0  0  0  0  0  0  0  0
  -24.7211  -15.5955  146.2116 C   0  0  0  0  0  0  0  0  0  0  0  0
  -24.8538  -14.2010  145.8739 C   0  0  0  0  0  0  0  0  0  0  0  0
  -24.1440  -13.8321  144.7074 C   0  0  0  0  0  0  0  0  0  0  0  0
  -23.4275  -14.8130  143.9942 C   0  0  0  0  0  0  0  0  0  0  0  0
  -23.5366  -16.0900  144.3641 N   0  0  0  0  0  0  0  0  0  0  0  0
  -23.4872  -18.3821  146.7583 C   0  0  0  0  0  0  0  0  0  0  0  0
  -23.0437  -17.4291  147.5919 O   0  0  0  0  0  0  0  0  0  0  0  0
  -25.4636  -13.2522  146.7623 C   0  0  0  0  0  0  0  0  0  0  0  0
  -24.9165  -11.9085  146.6317 C   0  0  0  0  0  0  0  0  0  0  0  0
  -24.6517  -11.4986  145.2760 C   0  0  0  0  0  0  0  0  0  0  0  0
  -23.7953  -12.3981  144.5764 C   0  0  0  0  0  0  0  0  0  0  0  0
  -23.8066  -17.1014  148.7787 C   0  0  0  0  0  0  0  0  0  0  0  0
  -25.0623  -17.3329  148.9074 C   0  0  0  0  0  0  0  0  0  0  0  0
  -25.6054  -17.2194  150.2751 C   0  0  0  0  0  0  0  0  0  0  0  0
  -25.0881  -18.0652  150.9966 C   0  0  0  0  0  0  0  0  0  0  0  0
  -25.7718  -17.8997  152.2229 N   0  0  0  0  0  0  0  0  0  0  0  0
  -22.8538  -16.8053  149.9391 C   0  0  0  0  0  0  0  0  0  0  0  0
  -22.0346  -15.8216  149.8980 N   0  0  0  0  0  0  0  0  0  0  0  0
  -23.2117  -17.3023  151.2203 N   0  0  0  0  0  0  0  0  0  0  0  0
  1  2  2  3
  2  3  1  0
  3  4  1  0
  5  6  1  0
  2  7  1  0
  6  7  1  0
  1  8  1  0
  8  9  1  0
  9 14  1  0
 14 15  2  3
 15 16  1  0
 16 17  1  0
 17 18  2  0
 14 19  1  0
 19 20  1  0
 19 21  1  0
  4  5  2  0
  5 13  1  0
 13 12  2  0
 12 11  1  0
 11 10  2  0
 10  4  1  0
M  END

$$$$
No_500-/dssg/home/sw_qyf/PocketFlow/Model-Generation-Results/5HT2A_7WC7_rec_A_10.pdb/2024-01-01-03-54-21/
     RDKit          3D

 26 27  0  0  0  0  0  0  0  0999 V2000
  -24.1553  -17.8465  145.7021 C   0  0  0  0  0  0  0  0  0  0  0  0
  -23.9795  -18.4462  146.7426 C   0  0  0  0  0  0  0  0  0  0  0  0
  -23.2486  -17.2339  144.9771 C   0  0  0  0  0  0  0  0  0  0  0  0
  -24.9812  -19.0362  147.5824 C   0  0  0  0  0  0  0  0  0  0  0  0
  -23.7180  -16.2391  144.0023 C   0  0  0  0  0  0  0  0  0  0  0  0
  -24.1691  -14.9523  144.6878 C   0  0  0  0  0  0  0  0  0  0  0  0
  -24.1546  -13.8262  144.0736 C   0  0  0  0  0  0  0  0  0  0  0  0
  -24.4492  -12.5835  144.8018 C   0  0  0  0  0  0  0  0  0  0  0  0
  -25.0115  -12.6883  146.1519 C   0  0  0  0  0  0  0  0  0  0  0  0
  -25.3792  -11.5435  146.8690 C   0  0  0  0  0  0  0  0  0  0  0  0
  -24.5479  -14.9251  146.1691 C   0  0  0  0  0  0  0  0  0  0  0  0
  -24.8833  -13.8232  146.8252 C   0  0  0  0  0  0  0  0  0  0  0  0
  -26.2418  -18.5541  147.0697 C   0  0  0  0  0  0  0  0  0  0  0  0
  -25.9318  -17.7046  145.9862 C   0  0  0  0  0  0  0  0  0  0  0  0
  -26.1099  -10.6097  145.8621 C   0  0  0  0  0  0  0  0  0  0  0  0
  -26.6101  -11.1610  144.7177 C   0  0  0  0  0  0  0  0  0  0  0  0
  -27.6428  -10.1945  144.2243 C   0  0  0  0  0  0  0  0  0  0  0  0
  -28.8513  -10.7177  143.7623 C   0  0  0  0  0  0  0  0  0  0  0  0
  -29.7858   -9.9045  143.1317 C   0  0  0  0  0  0  0  0  0  0  0  0
  -30.7253   -9.3196  143.8320 C   0  0  0  0  0  0  0  0  0  0  0  0
  -31.7616   -8.6657  143.2851 O   0  0  0  0  0  0  0  0  0  0  0  0
  -29.1417   -8.9112  142.2483 N   0  0  0  0  0  0  0  0  0  0  0  0
  -28.7941   -9.2286  140.9314 C   0  0  0  0  0  0  0  0  0  0  0  0
  -28.8816   -8.6606  139.9336 C   0  0  0  0  0  0  0  0  0  0  0  0
  -29.5999   -7.3656  139.8055 C   0  0  0  0  0  0  0  0  0  0  0  0
  -28.2206   -8.9876  138.6877 C   0  0  0  0  0  0  0  0  0  0  0  0
  1  2  1  0
  1  3  2  3
  2  4  1  0
  3  5  1  0
  5  6  1  0
  9 10  1  0
  4 13  2  0
  1 14  1  0
 13 14  1  0
 10 15  1  0
 15 16  1  0
 16 17  1  0
 17 18  1  0
 18 19  1  0
 19 20  1  0
 20 21  1  0
 19 22  1  0
 22 23  1  0
 23 24  2  3
 24 25  1  0
 24 26  1  0
  6  7  2  0
  7  8  1  0
  8  9  2  0
  9 12  1  0
 12 11  2  0
 11  6  1  0
M  END

$$$$
No_501-/dssg/home/sw_qyf/PocketFlow/Model-Generation-Results/5HT2A_7WC7_rec_A_10.pdb/2024-01-01-03-54-21/
     RDKit          3D

 35 37  0  0  0  0  0  0  0  0999 V2000
  -24.1553  -17.8465  145.7021 C   0  0  0  0  0  0  0  0  0  0  0  0
  -24.6364  -17.2931  146.7091 C   0  0  0  0  0  0  0  0  0  0  0  0
  -24.0780  -17.2921  147.9389 C   0  0  0  0  0  0  0  0  0  0  0  0
  -24.6869  -16.7003  149.1440 C   0  0  0  0  0  0  0  0  0  0  0  0
  -26.0385  -16.2385  148.9552 C   0  0  0  0  0  0  0  0  0  0  0  0
  -26.6430  -16.2999  147.7413 C   0  0  0  0  0  0  0  0  0  0  0  0
  -25.9652  -16.9120  146.6641 C   0  0  0  0  0  0  0  0  0  0  0  0
  -23.3658  -17.2015  144.7815 C   0  0  0  0  0  0  0  0  0  0  0  0
  -22.6133  -16.3564  145.3625 F   0  0  0  0  0  0  0  0  0  0  0  0
  -22.7691  -17.7451  143.8586 F   0  0  0  0  0  0  0  0  0  0  0  0
  -24.1696  -16.2371  144.0775 F   0  0  0  0  0  0  0  0  0  0  0  0
  -28.0378  -15.7858  147.6539 C   0  0  0  0  0  0  0  0  0  0  0  0
  -28.1942  -14.6163  147.0412 C   0  0  0  0  0  0  0  0  0  0  0  0
  -29.3711  -13.7545  147.0879 C   0  0  0  0  0  0  0  0  0  0  0  0
  -30.4836  -13.8555  147.9641 C   0  0  0  0  0  0  0  0  0  0  0  0
  -29.3897  -12.5105  146.2848 C   0  0  0  0  0  0  0  0  0  0  0  0
  -28.6112  -12.3934  145.1532 C   0  0  0  0  0  0  0  0  0  0  0  0
  -28.5527  -11.1566  144.4100 C   0  0  0  0  0  0  0  0  0  0  0  0
  -29.7808  -10.4287  144.3377 C   0  0  0  0  0  0  0  0  0  0  0  0
  -29.8351   -9.3507  143.4457 C   0  0  0  0  0  0  0  0  0  0  0  0
  -30.5614   -9.5930  142.2866 C   0  0  0  0  0  0  0  0  0  0  0  0
  -30.6241   -8.4886  141.3455 C   0  0  0  0  0  0  0  0  0  0  0  0
  -29.7055   -7.4424  141.6196 C   0  0  0  0  0  0  0  0  0  0  0  0
  -29.3183   -7.1165  142.9857 C   0  0  0  0  0  0  0  0  0  0  0  0
  -28.6875   -5.8835  143.0768 C   0  0  0  0  0  0  0  0  0  0  0  0
  -29.2445   -8.1874  143.6922 N   0  0  0  0  0  0  0  0  0  0  0  0
  -29.1008   -4.6757  142.4079 C   0  0  0  0  0  0  0  0  0  0  0  0
  -28.8978   -4.6244  141.1043 C   0  0  0  0  0  0  0  0  0  0  0  0
  -29.4558   -5.7021  140.2373 C   0  0  0  0  0  0  0  0  0  0  0  0
  -29.6018   -6.6012  140.6329 N   0  0  0  0  0  0  0  0  0  0  0  0
  -27.7694  -11.2438  143.1472 C   0  0  0  0  0  0  0  0  0  0  0  0
  -28.6802   -3.2738  140.5228 C   0  0  0  0  0  0  0  0  0  0  0  0
  -30.8536  -12.8144  148.8487 C   0  0  0  0  0  0  0  0  0  0  0  0
  -31.8550  -12.3763  149.0458 C   0  0  0  0  0  0  0  0  0  0  0  0
  -32.7296  -11.8868  148.3601 C   0  0  0  0  0  0  0  0  0  0  0  0
  1  2  1  0
  1  8  1  0
  8  9  1  0
  8 10  1  0
  8 11  1  0
  6 12  1  0
 12 13  2  3
 13 14  1  0
 14 15  2  3
 14 16  1  0
 16 17  1  0
 17 18  1  0
 18 19  1  0
 19 20  1  0
 25 27  1  0
 27 28  2  0
 28 29  1  0
 23 30  1  0
 29 30  2  0
 18 31  1  0
 28 32  1  0
 15 33  1  0
 33 34  2  3
 34 35  1  0
 25 24  1  0
  2  3  2  0
  3  4  1  0
  4  5  2  0
  5  6  1  0
  6  7  2  0
  7  2  1  0
 20 21  2  0
 21 22  1  0
 22 23  2  0
 23 24  1  0
 24 26  2  0
 26 20  1  0
M  END

$$$$
No_502-/dssg/home/sw_qyf/PocketFlow/Model-Generation-Results/5HT2A_7WC7_rec_A_10.pdb/2024-01-01-03-54-21/
     RDKit          3D

 23 24  0  0  0  0  0  0  0  0999 V2000
  -24.1553  -17.8465  145.7021 C   0  0  0  0  0  0  0  0  0  0  0  0
  -24.6364  -17.2931  146.7091 C   0  0  0  0  0  0  0  0  0  0  0  0
  -25.8608  -16.5592  146.5934 C   0  0  0  0  0  0  0  0  0  0  0  0
  -25.9533  -15.5604  145.6681 C   0  0  0  0  0  0  0  0  0  0  0  0
  -27.0179  -14.6632  145.5500 C   0  0  0  0  0  0  0  0  0  0  0  0
  -24.0512  -16.8635  144.5478 C   0  0  0  0  0  0  0  0  0  0  0  0
  -24.5326  -15.5693  144.8982 C   0  0  0  0  0  0  0  0  0  0  0  0
  -26.8608  -13.5769  144.6612 C   0  0  0  0  0  0  0  0  0  0  0  0
  -27.5017  -12.3491  144.8232 C   0  0  0  0  0  0  0  0  0  0  0  0
  -27.3472  -11.2207  144.0305 C   0  0  0  0  0  0  0  0  0  0  0  0
  -27.8127  -11.3731  142.6814 C   0  0  0  0  0  0  0  0  0  0  0  0
  -28.4923  -10.4131  141.9937 C   0  0  0  0  0  0  0  0  0  0  0  0
  -28.1566  -10.1904  140.6246 C   0  0  0  0  0  0  0  0  0  0  0  0
  -27.4565  -11.0717  139.8563 C   0  0  0  0  0  0  0  0  0  0  0  0
  -27.1759  -12.3451  140.4214 C   0  0  0  0  0  0  0  0  0  0  0  0
  -27.2128  -12.4733  141.8865 C   0  0  0  0  0  0  0  0  0  0  0  0
  -28.4465   -8.8930  139.9704 C   0  0  0  0  0  0  0  0  0  0  0  0
  -28.4487   -8.5966  138.4180 P   0  0  0  0  0  0  0  0  0  0  0  0
  -29.2054   -8.2486  137.7124 O   0  0  0  0  0  0  0  0  0  0  0  0
  -26.9367   -8.8543  137.9705 O   0  0  0  0  0  0  0  0  0  0  0  0
  -28.8067   -9.6393  137.9550 O   0  0  0  0  0  0  0  0  0  0  0  0
  -28.5316  -10.6933  138.4859 F   0  0  0  0  0  0  0  0  0  0  0  0
  -26.2103  -10.6614  139.2585 O   0  0  0  0  0  0  0  0  0  0  0  0
  1  2  1  0
  2  3  1  0
  3  4  1  0
  4  5  2  3
  1  6  1  0
  4  7  1  0
  6  7  1  0
  5  8  1  0
  8  9  2  3
  9 10  1  0
 10 11  1  0
 13 17  1  0
 17 18  1  0
 18 19  2  0
 18 20  1  0
 18 21  1  0
 21 22  1  0
 14 23  1  0
 11 12  2  0
 12 13  1  0
 13 14  2  0
 14 15  1  0
 15 16  2  0
 16 11  1  0
M  END

$$$$
No_503-/dssg/home/sw_qyf/PocketFlow/Model-Generation-Results/5HT2A_7WC7_rec_A_10.pdb/2024-01-01-03-54-21/
     RDKit          3D

 35 37  0  0  0  0  0  0  0  0999 V2000
  -23.1746  -16.6014  144.8668 C   0  0  0  0  0  0  0  0  0  0  0  0
  -24.0189  -16.0564  145.8445 C   0  0  0  0  0  0  0  0  0  0  0  0
  -25.3176  -15.9168  145.6822 C   0  0  0  0  0  0  0  0  0  0  0  0
  -26.1693  -16.6799  146.4632 C   0  0  0  0  0  0  0  0  0  0  0  0
  -27.6295  -16.5109  146.3614 C   0  0  0  0  0  0  0  0  0  0  0  0
  -28.0110  -15.3282  145.7069 C   0  0  0  0  0  0  0  0  0  0  0  0
  -27.0921  -14.4405  145.1851 C   0  0  0  0  0  0  0  0  0  0  0  0
  -25.7066  -14.7589  145.1469 C   0  0  0  0  0  0  0  0  0  0  0  0
  -27.5807  -13.2114  144.4962 C   0  0  0  0  0  0  0  0  0  0  0  0
  -28.1401  -12.0770  145.1889 C   0  0  0  0  0  0  0  0  0  0  0  0
  -28.2367  -12.1032  146.6421 C   0  0  0  0  0  0  0  0  0  0  0  0
  -28.6668  -10.9762  144.4707 C   0  0  0  0  0  0  0  0  0  0  0  0
  -27.9340  -10.1572  143.6734 C   0  0  0  0  0  0  0  0  0  0  0  0
  -28.6320   -9.0455  143.0413 C   0  0  0  0  0  0  0  0  0  0  0  0
  -30.0495   -8.9432  143.0224 C   0  0  0  0  0  0  0  0  0  0  0  0
  -30.6691   -8.0133  142.2731 C   0  0  0  0  0  0  0  0  0  0  0  0
  -31.9788   -7.9659  142.4081 F   0  0  0  0  0  0  0  0  0  0  0  0
  -30.3034   -6.6728  142.6065 F   0  0  0  0  0  0  0  0  0  0  0  0
  -30.3209   -7.9857  140.9530 F   0  0  0  0  0  0  0  0  0  0  0  0
  -29.2928  -12.5348  147.2942 N   0  0  0  0  0  0  0  0  0  0  0  0
  -30.4142  -11.8100  147.4001 C   0  0  0  0  0  0  0  0  0  0  0  0
  -31.2665  -12.2578  148.5923 C   0  0  0  0  0  0  0  0  0  0  0  0
  -30.9664  -13.5817  148.9861 C   0  0  0  0  0  0  0  0  0  0  0  0
  -29.4842  -13.6415  148.2624 C   0  0  0  0  0  0  0  0  0  0  0  0
  -24.8131  -13.8341  144.4826 C   0  0  0  0  0  0  0  0  0  0  0  0
  -24.2375  -12.9540  145.2588 O   0  0  0  0  0  0  0  0  0  0  0  0
  -23.1298  -12.2585  144.8706 C   0  0  0  0  0  0  0  0  0  0  0  0
  -22.8467  -11.0764  145.6763 C   0  0  0  0  0  0  0  0  0  0  0  0
  -22.2380  -12.8291  144.1481 O   0  0  0  0  0  0  0  0  0  0  0  0
  -32.6263  -11.4822  149.1811 Cl  0  0  0  0  0  0  0  0  0  0  0  0
  -30.8493   -9.9347  143.7345 C   0  0  0  0  0  0  0  0  0  0  0  0
  -31.9832   -9.8016  143.7947 O   0  0  0  0  0  0  0  0  0  0  0  0
  -30.0214  -10.9423  144.5238 C   0  0  0  0  0  0  0  0  0  0  0  0
  -25.8223  -17.8791  147.0240 O   0  0  0  0  0  0  0  0  0  0  0  0
  -22.8476  -17.8714  144.8563 O   0  0  0  0  0  0  0  0  0  0  0  0
  1  2  1  0
  7  9  1  0
  9 10  2  3
 10 11  1  0
 10 12  1  0
 13 14  1  0
 15 16  1  0
 16 17  1  0
 16 18  1  0
 16 19  1  0
 11 20  1  0
 20 21  1  0
 21 22  1  0
 22 23  2  0
 20 24  1  0
 23 24  1  0
  8 25  1  0
 25 26  1  0
 26 27  1  0
 27 28  1  0
 27 29  2  0
 22 30  1  0
 15 31  1  0
 31 32  2  0
 12 33  1  0
 31 33  1  0
  4 34  1  0
  1 35  1  0
  2  3  1  0
 15 14  1  0
 13 12  1  0
  3  4  2  0
  4  5  1  0
  5  6  2  0
  6  7  1  0
  7  8  2  0
  8  3  1  0
M  END

$$$$
No_504-/dssg/home/sw_qyf/PocketFlow/Model-Generation-Results/5HT2A_7WC7_rec_A_10.pdb/2024-01-01-03-54-21/
     RDKit          3D

 34 38  0  0  0  0  0  0  0  0999 V2000
  -23.1746  -16.6014  144.8668 C   0  0  0  0  0  0  0  0  0  0  0  0
  -23.7011  -17.0158  145.9774 C   0  0  0  0  0  0  0  0  0  0  0  0
  -24.2134  -16.0722  146.8877 C   0  0  0  0  0  0  0  0  0  0  0  0
  -24.5407  -14.7704  146.3552 C   0  0  0  0  0  0  0  0  0  0  0  0
  -25.1397  -13.7159  147.1115 C   0  0  0  0  0  0  0  0  0  0  0  0
  -23.3867  -15.3355  144.3570 C   0  0  0  0  0  0  0  0  0  0  0  0
  -23.9873  -14.3773  145.1889 C   0  0  0  0  0  0  0  0  0  0  0  0
  -25.8570  -12.7647  146.2767 C   0  0  0  0  0  0  0  0  0  0  0  0
  -25.1984  -12.0456  145.4298 C   0  0  0  0  0  0  0  0  0  0  0  0
  -24.2293  -12.8983  144.6155 C   0  0  0  0  0  0  0  0  0  0  0  0
  -23.4901  -18.4053  146.5143 C   0  0  0  0  0  0  0  0  0  0  0  0
  -22.6295  -18.8257  146.9213 O   0  0  0  0  0  0  0  0  0  0  0  0
  -24.6998  -19.1708  146.3708 N   0  0  0  0  0  0  0  0  0  0  0  0
  -25.9600  -11.1452  144.5195 C   0  0  0  0  0  0  0  0  0  0  0  0
  -27.4021  -11.1999  144.7905 C   0  0  0  0  0  0  0  0  0  0  0  0
  -28.3060  -10.4713  143.9754 C   0  0  0  0  0  0  0  0  0  0  0  0
  -28.0289   -9.7720  142.8427 C   0  0  0  0  0  0  0  0  0  0  0  0
  -27.1856  -12.2548  146.5767 C   0  0  0  0  0  0  0  0  0  0  0  0
  -27.9967  -11.5519  145.9239 C   0  0  0  0  0  0  0  0  0  0  0  0
  -29.0182   -9.3899  141.9440 C   0  0  0  0  0  0  0  0  0  0  0  0
  -30.3509   -9.3382  142.3649 C   0  0  0  0  0  0  0  0  0  0  0  0
  -30.6970   -9.8724  143.6060 C   0  0  0  0  0  0  0  0  0  0  0  0
  -29.7336  -10.4528  144.3751 C   0  0  0  0  0  0  0  0  0  0  0  0
  -28.4275   -9.0320  140.6857 C   0  0  0  0  0  0  0  0  0  0  0  0
  -27.7296   -9.8858  139.9637 N   0  0  0  0  0  0  0  0  0  0  0  0
  -27.2507  -11.0308  140.4056 C   0  0  0  0  0  0  0  0  0  0  0  0
  -26.7942  -11.9094  139.2755 C   0  0  0  0  0  0  0  0  0  0  0  0
  -28.6987   -7.8031  140.3081 O   0  0  0  0  0  0  0  0  0  0  0  0
  -25.7194  -12.4594  139.2344 O   0  0  0  0  0  0  0  0  0  0  0  0
  -27.7393  -12.0863  138.3217 O   0  0  0  0  0  0  0  0  0  0  0  0
  -31.2980   -8.8755  141.5862 O   0  0  0  0  0  0  0  0  0  0  0  0
  -30.1112  -10.9372  145.5460 O   0  0  0  0  0  0  0  0  0  0  0  0
  -29.2184  -11.6514  146.3554 C   0  0  0  0  0  0  0  0  0  0  0  0
  -29.7735  -12.1035  147.4369 O   0  0  0  0  0  0  0  0  0  0  0  0
  1  2  1  0
  2  3  1  0
  3  4  2  0
  4  5  1  0
  1  6  2  0
  4  7  1  0
  6  7  1  0
  5  8  1  0
  8  9  1  0
  7 10  1  0
  9 10  2  0
  2 11  1  0
 11 12  2  0
 11 13  1  0
  9 14  1  0
 14 15  1  0
 15 16  2  0
 16 17  1  0
  8 18  1  0
 15 19  1  0
 18 19  2  0
 17 20  2  0
 20 21  1  0
 21 22  2  0
 16 23  1  0
 22 23  1  0
 20 24  1  0
 24 25  1  0
 25 26  1  0
 26 27  1  0
 24 28  2  0
 27 29  1  0
 27 30  2  0
 21 31  1  0
 23 32  1  0
 19 33  1  0
 32 33  1  0
 33 34  2  0
M  END

$$$$
No_505-/dssg/home/sw_qyf/PocketFlow/Model-Generation-Results/5HT2A_7WC7_rec_A_10.pdb/2024-01-01-03-54-21/
     RDKit          3D

 14 15  0  0  0  0  0  0  0  0999 V2000
  -23.1746  -16.6014  144.8668 C   0  0  0  0  0  0  0  0  0  0  0  0
  -23.8963  -15.5346  144.7885 C   0  0  0  0  0  0  0  0  0  0  0  0
  -25.3063  -15.4625  144.8521 C   0  0  0  0  0  0  0  0  0  0  0  0
  -25.9937  -16.4907  145.5509 C   0  0  0  0  0  0  0  0  0  0  0  0
  -23.8954  -17.6910  145.6328 C   0  0  0  0  0  0  0  0  0  0  0  0
  -23.1714  -18.8718  146.0269 C   0  0  0  0  0  0  0  0  0  0  0  0
  -25.2616  -17.6397  145.8758 C   0  0  0  0  0  0  0  0  0  0  0  0
  -26.0236  -14.1616  144.5751 C   0  0  0  0  0  0  0  0  0  0  0  0
  -26.8357  -13.5755  145.5161 C   0  0  0  0  0  0  0  0  0  0  0  0
  -27.1977  -12.3516  145.4818 C   0  0  0  0  0  0  0  0  0  0  0  0
  -27.8072  -11.6496  146.6221 C   0  0  0  0  0  0  0  0  0  0  0  0
  -28.8965  -12.4349  147.2668 C   0  0  0  0  0  0  0  0  0  0  0  0
  -28.6380  -13.8563  147.3552 C   0  0  0  0  0  0  0  0  0  0  0  0
  -27.7254  -14.4556  146.4107 C   0  0  0  0  0  0  0  0  0  0  0  0
  5  6  1  0
  3  8  1  0
  8  9  1  0
  9 10  2  0
 10 11  1  0
 11 12  2  0
 12 13  1  0
 13 14  2  0
 14  9  1  0
  1  2  2  0
  2  3  1  0
  3  4  2  0
  4  7  1  0
  7  5  2  0
  5  1  1  0
M  END

$$$$
No_506-/dssg/home/sw_qyf/PocketFlow/Model-Generation-Results/5HT2A_7WC7_rec_A_10.pdb/2024-01-01-03-54-21/
     RDKit          3D

 15 16  0  0  0  0  0  0  0  0999 V2000
  -23.1746  -16.6014  144.8668 C   0  0  0  0  0  0  0  0  0  0  0  0
  -23.8963  -15.5346  144.7885 C   0  0  0  0  0  0  0  0  0  0  0  0
  -24.5755  -15.0383  145.9043 C   0  0  0  0  0  0  0  0  0  0  0  0
  -24.6688  -15.8869  147.0363 C   0  0  0  0  0  0  0  0  0  0  0  0
  -24.0226  -17.0824  147.0622 C   0  0  0  0  0  0  0  0  0  0  0  0
  -23.2575  -17.4593  145.9560 C   0  0  0  0  0  0  0  0  0  0  0  0
  -25.3271  -13.7158  145.9348 C   0  0  0  0  0  0  0  0  0  0  0  0
  -24.7096  -12.7416  145.4939 C   0  0  0  0  0  0  0  0  0  0  0  0
  -25.3472  -11.3768  145.4559 C   0  0  0  0  0  0  0  0  0  0  0  0
  -26.7415  -11.3445  145.8372 C   0  0  0  0  0  0  0  0  0  0  0  0
  -27.3557  -12.4597  146.3633 C   0  0  0  0  0  0  0  0  0  0  0  0
  -26.6640  -13.7217  146.3773 C   0  0  0  0  0  0  0  0  0  0  0  0
  -28.8260  -12.2106  146.6850 C   0  0  0  0  0  0  0  0  0  0  0  0
  -29.2894  -12.7916  147.6936 O   0  0  0  0  0  0  0  0  0  0  0  0
  -29.6201  -11.4865  145.9356 N   0  0  0  0  0  0  0  0  0  0  0  0
  3  7  1  0
 11 13  1  0
 13 14  1  0
 13 15  2  0
  1  2  2  0
  2  3  1  0
  3  4  2  0
  4  5  1  0
  5  6  2  0
  6  1  1  0
  7  8  2  0
  8  9  1  0
  9 10  2  0
 10 11  1  0
 11 12  2  0
 12  7  1  0
M  END

$$$$
No_507-/dssg/home/sw_qyf/PocketFlow/Model-Generation-Results/5HT2A_7WC7_rec_A_10.pdb/2024-01-01-03-54-21/
     RDKit          3D

 12 13  0  0  0  0  0  0  0  0999 V2000
  -23.1746  -16.6014  144.8668 C   0  0  0  0  0  0  0  0  0  0  0  0
  -23.7011  -17.0158  145.9774 C   0  0  0  0  0  0  0  0  0  0  0  0
  -24.2134  -16.0722  146.8877 C   0  0  0  0  0  0  0  0  0  0  0  0
  -23.3742  -15.2706  144.3922 C   0  0  0  0  0  0  0  0  0  0  0  0
  -24.0445  -14.2973  145.2608 C   0  0  0  0  0  0  0  0  0  0  0  0
  -24.4773  -14.7066  146.5258 C   0  0  0  0  0  0  0  0  0  0  0  0
  -24.1737  -12.9749  144.8984 N   0  0  0  0  0  0  0  0  0  0  0  0
  -24.0313  -11.8949  145.8080 C   0  0  0  0  0  0  0  0  0  0  0  0
  -23.6329  -18.2812  146.5699 N   0  0  0  0  0  0  0  0  0  0  0  0
  -24.2563  -12.2849  147.1532 C   0  0  0  0  0  0  0  0  0  0  0  0
  -24.3935  -13.7005  147.5755 C   0  0  0  0  0  0  0  0  0  0  0  0
  -22.7546  -18.9926  146.5543 O   0  0  0  0  0  0  0  0  0  0  0  0
  2  9  1  0
  9 12  2  0
  1  2  2  0
  2  3  1  0
  3  6  2  0
  5  4  2  0
  4  1  1  0
  5  6  1  0
  6 11  1  0
 11 10  2  0
 10  8  1  0
  8  7  2  0
  7  5  1  0
M  END

$$$$
No_508-/dssg/home/sw_qyf/PocketFlow/Model-Generation-Results/5HT2A_7WC7_rec_A_10.pdb/2024-01-01-03-54-21/
     RDKit          3D

 23 24  0  0  0  0  0  0  0  0999 V2000
  -24.1553  -17.8465  145.7021 C   0  0  0  0  0  0  0  0  0  0  0  0
  -24.2856  -16.6364  145.3494 C   0  0  0  0  0  0  0  0  0  0  0  0
  -24.7211  -15.5955  146.2115 C   0  0  0  0  0  0  0  0  0  0  0  0
  -24.8538  -14.2010  145.8739 C   0  0  0  0  0  0  0  0  0  0  0  0
  -24.1440  -13.8321  144.7074 C   0  0  0  0  0  0  0  0  0  0  0  0
  -23.4275  -14.8130  143.9942 C   0  0  0  0  0  0  0  0  0  0  0  0
  -23.5366  -16.0900  144.3641 N   0  0  0  0  0  0  0  0  0  0  0  0
  -25.0287  -18.4322  146.6889 C   0  0  0  0  0  0  0  0  0  0  0  0
  -25.6349  -17.5048  147.5882 C   0  0  0  0  0  0  0  0  0  0  0  0
  -25.7351  -16.1243  147.2914 C   0  0  0  0  0  0  0  0  0  0  0  0
  -23.8920  -12.5055  144.5178 O   0  0  0  0  0  0  0  0  0  0  0  0
  -22.8207  -12.0519  145.3846 C   0  0  0  0  0  0  0  0  0  0  0  0
  -25.3934  -13.2145  146.8123 C   0  0  0  0  0  0  0  0  0  0  0  0
  -26.1122  -12.1306  146.0640 C   0  0  0  0  0  0  0  0  0  0  0  0
  -27.0816  -12.3734  145.0725 C   0  0  0  0  0  0  0  0  0  0  0  0
  -28.0435  -11.5048  145.1242 C   0  0  0  0  0  0  0  0  0  0  0  0
  -28.1579  -10.3246  144.2558 C   0  0  0  0  0  0  0  0  0  0  0  0
  -29.3083   -9.5039  144.1368 C   0  0  0  0  0  0  0  0  0  0  0  0
  -29.5333   -8.6590  143.0994 C   0  0  0  0  0  0  0  0  0  0  0  0
  -29.5857   -9.1113  141.7393 C   0  0  0  0  0  0  0  0  0  0  0  0
  -29.6214   -8.0477  140.7899 C   0  0  0  0  0  0  0  0  0  0  0  0
  -29.7849   -8.3836  139.4204 C   0  0  0  0  0  0  0  0  0  0  0  0
  -28.5770   -8.1699  138.6791 C   0  0  0  0  0  0  0  0  0  0  0  0
  3  4  1  0
  4  5  1  0
  5  6  1  0
  2  7  1  0
  6  7  1  0
  5 11  1  0
 11 12  1  0
  4 13  1  0
 13 14  1  0
 14 15  1  0
 15 16  1  0
 16 17  2  3
 17 18  1  0
 18 19  1  0
 19 20  1  0
 20 21  2  3
 21 22  1  0
 22 23  1  0
  1  2  2  0
  2  3  1  0
  3 10  2  0
 10  9  1  0
  9  8  2  0
  8  1  1  0
M  END

$$$$
No_509-/dssg/home/sw_qyf/PocketFlow/Model-Generation-Results/5HT2A_7WC7_rec_A_10.pdb/2024-01-01-03-54-21/
     RDKit          3D

 31 35  0  0  0  0  0  0  0  0999 V2000
  -24.1553  -17.8465  145.7021 C   0  0  0  0  0  0  0  0  0  0  0  0
  -23.9795  -18.4462  146.7426 C   0  0  0  0  0  0  0  0  0  0  0  0
  -25.1196  -16.8106  145.6409 C   0  0  0  0  0  0  0  0  0  0  0  0
  -25.9236  -16.5070  146.7422 C   0  0  0  0  0  0  0  0  0  0  0  0
  -25.6173  -17.2153  147.9099 C   0  0  0  0  0  0  0  0  0  0  0  0
  -24.6179  -18.1473  147.9620 C   0  0  0  0  0  0  0  0  0  0  0  0
  -26.9749  -15.4806  146.6971 C   0  0  0  0  0  0  0  0  0  0  0  0
  -27.0375  -14.6438  145.9133 C   0  0  0  0  0  0  0  0  0  0  0  0
  -28.1117  -13.6193  145.8873 C   0  0  0  0  0  0  0  0  0  0  0  0
  -29.1342  -13.7151  146.8383 C   0  0  0  0  0  0  0  0  0  0  0  0
  -29.0798  -14.7706  147.7508 C   0  0  0  0  0  0  0  0  0  0  0  0
  -28.0371  -15.6844  147.7402 C   0  0  0  0  0  0  0  0  0  0  0  0
  -28.0960  -12.4471  144.9543 C   0  0  0  0  0  0  0  0  0  0  0  0
  -28.9209  -11.3280  145.2424 C   0  0  0  0  0  0  0  0  0  0  0  0
  -28.8936  -10.2012  144.4431 C   0  0  0  0  0  0  0  0  0  0  0  0
  -29.7743   -9.1677  144.4343 C   0  0  0  0  0  0  0  0  0  0  0  0
  -29.8588   -8.3099  143.3568 C   0  0  0  0  0  0  0  0  0  0  0  0
  -29.6007   -8.7091  142.0752 C   0  0  0  0  0  0  0  0  0  0  0  0
  -28.6282   -9.7399  141.9054 C   0  0  0  0  0  0  0  0  0  0  0  0
  -28.4987  -10.6365  143.0669 C   0  0  0  0  0  0  0  0  0  0  0  0
  -28.0975  -10.0729  140.6410 C   0  0  0  0  0  0  0  0  0  0  0  0
  -27.6241  -11.3652  140.3631 C   0  0  0  0  0  0  0  0  0  0  0  0
  -27.4956  -11.8591  139.2422 C   0  0  0  0  0  0  0  0  0  0  0  0
  -27.9092   -9.1090  139.6653 C   0  0  0  0  0  0  0  0  0  0  0  0
  -27.8703  -11.1385  138.0479 C   0  0  0  0  0  0  0  0  0  0  0  0
  -28.0436   -9.7512  138.2965 C   0  0  0  0  0  0  0  0  0  0  0  0
  -30.1234  -12.7916  146.9019 N   0  0  0  0  0  0  0  0  0  0  0  0
  -29.9671  -11.5727  146.3266 C   0  0  0  0  0  0  0  0  0  0  0  0
  -28.3316   -8.8414  137.1479 C   0  0  0  0  0  0  0  0  0  0  0  0
  -28.8674   -9.2954  136.1300 O   0  0  0  0  0  0  0  0  0  0  0  0
  -28.0329   -7.5998  137.3071 O   0  0  0  0  0  0  0  0  0  0  0  0
  4  7  1  0
 14 15  1  0
 19 21  1  0
 26 29  1  0
 29 30  1  0
 29 31  2  0
 15 16  2  0
 16 17  1  0
 17 18  2  0
 18 19  1  0
 19 20  2  0
 20 15  1  0
 21 22  2  0
 22 23  1  0
 23 25  2  0
 25 26  1  0
 26 24  2  0
 24 21  1  0
 10 27  2  0
 27 28  1  0
 28 14  2  0
 14 13  1  0
 13  9  2  0
  7  8  2  0
  8  9  1  0
  9 10  1  0
 10 11  1  0
 11 12  2  0
 12  7  1  0
  1  2  2  0
  2  6  1  0
  6  5  2  0
  5  4  1  0
  4  3  2  0
  3  1  1  0
M  END

$$$$
No_510-/dssg/home/sw_qyf/PocketFlow/Model-Generation-Results/5HT2A_7WC7_rec_A_10.pdb/2024-01-01-03-54-21/
     RDKit          3D

 27 29  0  0  0  0  0  0  0  0999 V2000
  -24.1553  -17.8465  145.7021 C   0  0  0  0  0  0  0  0  0  0  0  0
  -23.9795  -18.4462  146.7426 C   0  0  0  0  0  0  0  0  0  0  0  0
  -25.1196  -16.8106  145.6409 C   0  0  0  0  0  0  0  0  0  0  0  0
  -25.2440  -15.8776  144.5240 C   0  0  0  0  0  0  0  0  0  0  0  0
  -25.1544  -14.5048  144.8371 C   0  0  0  0  0  0  0  0  0  0  0  0
  -24.3154  -13.6969  144.0900 C   0  0  0  0  0  0  0  0  0  0  0  0
  -24.5830  -18.1138  147.9899 C   0  0  0  0  0  0  0  0  0  0  0  0
  -25.4804  -17.0317  148.0272 C   0  0  0  0  0  0  0  0  0  0  0  0
  -25.6368  -16.2590  146.8813 C   0  0  0  0  0  0  0  0  0  0  0  0
  -24.0808  -12.3299  144.6548 C   0  0  0  0  0  0  0  0  0  0  0  0
  -25.1277  -11.8377  145.6004 C   0  0  0  0  0  0  0  0  0  0  0  0
  -26.0434  -12.6783  146.2629 C   0  0  0  0  0  0  0  0  0  0  0  0
  -25.6942  -13.9810  146.0129 C   0  0  0  0  0  0  0  0  0  0  0  0
  -25.9618  -14.8844  147.0864 C   0  0  0  0  0  0  0  0  0  0  0  0
  -25.6246  -16.4681  149.2943 O   0  0  0  0  0  0  0  0  0  0  0  0
  -22.8150  -12.2389  145.3479 O   0  0  0  0  0  0  0  0  0  0  0  0
  -23.7010  -18.2573  144.5363 O   0  0  0  0  0  0  0  0  0  0  0  0
  -26.3865  -17.2959  150.1344 C   0  0  0  0  0  0  0  0  0  0  0  0
  -27.6097  -17.8107  149.8418 C   0  0  0  0  0  0  0  0  0  0  0  0
  -28.3365  -16.9220  148.9670 C   0  0  0  0  0  0  0  0  0  0  0  0
  -25.5454  -17.7896  151.3098 C   0  0  0  0  0  0  0  0  0  0  0  0
  -29.4480  -16.1731  149.4393 C   0  0  0  0  0  0  0  0  0  0  0  0
  -30.1302  -15.2773  148.5350 C   0  0  0  0  0  0  0  0  0  0  0  0
  -30.6671  -14.0417  149.0318 C   0  0  0  0  0  0  0  0  0  0  0  0
  -30.7268  -12.9155  148.1954 C   0  0  0  0  0  0  0  0  0  0  0  0
  -29.8850  -12.8491  147.0220 C   0  0  0  0  0  0  0  0  0  0  0  0
  -29.2600  -14.0949  146.6517 C   0  0  0  0  0  0  0  0  0  0  0  0
  3  4  1  0
  4  5  1  0
  9 14  1  0
 13 14  1  0
  8 15  1  0
 10 16  1  0
  1 17  1  0
 15 18  1  0
 18 19  1  0
 19 20  1  0
 18 21  1  0
 20 22  2  3
 22 23  1  0
 23 24  2  3
 24 25  1  0
 25 26  2  3
 26 27  1  0
  1  2  2  0
  2  7  1  0
  7  8  2  0
  8  9  1  0
  9  3  2  0
  3  1  1  0
  5  6  2  0
  6 10  1  0
 10 11  2  0
 11 12  1  0
 12 13  2  0
 13  5  1  0
M  END

$$$$
No_511-/dssg/home/sw_qyf/PocketFlow/Model-Generation-Results/5HT2A_7WC7_rec_A_10.pdb/2024-01-01-03-54-21/
     RDKit          3D

 26 28  0  0  0  0  0  0  0  0999 V2000
  -24.1553  -17.8465  145.7021 C   0  0  0  0  0  0  0  0  0  0  0  0
  -23.9795  -18.4462  146.7426 C   0  0  0  0  0  0  0  0  0  0  0  0
  -25.1593  -16.8262  145.6925 C   0  0  0  0  0  0  0  0  0  0  0  0
  -25.1480  -15.9148  146.4998 C   0  0  0  0  0  0  0  0  0  0  0  0
  -25.8670  -14.6758  146.4786 C   0  0  0  0  0  0  0  0  0  0  0  0
  -27.1400  -14.5642  146.4719 C   0  0  0  0  0  0  0  0  0  0  0  0
  -27.8055  -13.3189  146.3294 C   0  0  0  0  0  0  0  0  0  0  0  0
  -29.2388  -13.1022  146.3708 C   0  0  0  0  0  0  0  0  0  0  0  0
  -23.7843  -17.6271  148.0128 C   0  0  0  0  0  0  0  0  0  0  0  0
  -23.2835  -17.9470  149.2464 C   0  0  0  0  0  0  0  0  0  0  0  0
  -24.5407  -16.2770  147.8522 C   0  0  0  0  0  0  0  0  0  0  0  0
  -29.7537  -11.7164  146.3729 C   0  0  0  0  0  0  0  0  0  0  0  0
  -29.0873  -10.7811  145.4578 C   0  0  0  0  0  0  0  0  0  0  0  0
  -27.7573  -11.0324  145.1357 C   0  0  0  0  0  0  0  0  0  0  0  0
  -27.1579  -12.3052  145.5033 C   0  0  0  0  0  0  0  0  0  0  0  0
  -27.0217  -10.0372  144.4284 C   0  0  0  0  0  0  0  0  0  0  0  0
  -23.2203  -16.8157  150.3149 C   0  0  0  0  0  0  0  0  0  0  0  0
  -30.0331  -14.1077  147.1283 C   0  0  0  0  0  0  0  0  0  0  0  0
  -30.7258  -13.7207  148.2914 C   0  0  0  0  0  0  0  0  0  0  0  0
  -31.6722  -12.6827  148.3058 C   0  0  0  0  0  0  0  0  0  0  0  0
  -32.3526  -12.3580  149.5182 C   0  0  0  0  0  0  0  0  0  0  0  0
  -33.1001  -11.1238  149.6001 C   0  0  0  0  0  0  0  0  0  0  0  0
  -22.0522  -16.7964  150.9648 O   0  0  0  0  0  0  0  0  0  0  0  0
  -27.6683   -9.3416  143.5088 C   0  0  0  0  0  0  0  0  0  0  0  0
  -29.0202   -9.0248  143.5664 C   0  0  0  0  0  0  0  0  0  0  0  0
  -29.7769   -9.9601  144.5448 C   0  0  0  0  0  0  0  0  0  0  0  0
  1  2  1  0
  1  3  1  0
  3  4  1  0
  4  5  1  0
  5  6  1  0
  2  9  1  0
  9 10  1  0
  4 11  1  0
  9 11  1  0
 10 17  1  0
  8 18  1  0
 18 19  1  0
 19 20  2  3
 20 21  1  0
 21 22  1  0
 17 23  1  0
  6  7  1  0
  7  8  2  0
  8 12  1  0
 12 13  2  0
 14 15  2  0
 15  7  1  0
 13 14  1  0
 14 16  1  0
 16 24  2  0
 24 25  1  0
 25 26  2  0
 26 13  1  0
M  END

$$$$
No_512-/dssg/home/sw_qyf/PocketFlow/Model-Generation-Results/5HT2A_7WC7_rec_A_10.pdb/2024-01-01-03-54-21/
     RDKit          3D

 35 39  0  0  0  0  0  0  0  0999 V2000
  -24.1553  -17.8465  145.7021 C   0  0  0  0  0  0  0  0  0  0  0  0
  -24.2856  -16.6364  145.3494 C   0  0  0  0  0  0  0  0  0  0  0  0
  -23.7824  -15.9602  144.3554 C   0  0  0  0  0  0  0  0  0  0  0  0
  -23.9871  -14.5276  144.1537 C   0  0  0  0  0  0  0  0  0  0  0  0
  -24.7876  -13.8357  145.1351 C   0  0  0  0  0  0  0  0  0  0  0  0
  -24.9985  -12.3993  145.0246 C   0  0  0  0  0  0  0  0  0  0  0  0
  -24.1045  -11.7028  144.8234 C   0  0  0  0  0  0  0  0  0  0  0  0
  -24.7528  -18.4894  146.8343 C   0  0  0  0  0  0  0  0  0  0  0  0
  -25.4637  -17.5820  147.6617 C   0  0  0  0  0  0  0  0  0  0  0  0
  -25.7173  -16.2787  147.3883 C   0  0  0  0  0  0  0  0  0  0  0  0
  -25.0713  -15.7016  146.2844 C   0  0  0  0  0  0  0  0  0  0  0  0
  -25.2642  -14.3675  146.1348 C   0  0  0  0  0  0  0  0  0  0  0  0
  -26.3440  -11.8793  144.9624 C   0  0  0  0  0  0  0  0  0  0  0  0
  -27.1228  -11.8295  144.1992 C   0  0  0  0  0  0  0  0  0  0  0  0
  -28.4983  -11.2196  144.3332 C   0  0  0  0  0  0  0  0  0  0  0  0
  -29.1504  -11.3592  145.6120 C   0  0  0  0  0  0  0  0  0  0  0  0
  -28.2986  -11.7776  146.7094 C   0  0  0  0  0  0  0  0  0  0  0  0
  -26.8723  -12.0325  146.4645 C   0  0  0  0  0  0  0  0  0  0  0  0
  -29.3359  -11.0540  143.1834 C   0  0  0  0  0  0  0  0  0  0  0  0
  -29.1489   -9.6234  142.6380 C   0  0  0  0  0  0  0  0  0  0  0  0
  -29.9220   -8.5729  143.0729 C   0  0  0  0  0  0  0  0  0  0  0  0
  -29.8551   -7.3184  142.4444 C   0  0  0  0  0  0  0  0  0  0  0  0
  -29.5088   -7.2734  141.0597 C   0  0  0  0  0  0  0  0  0  0  0  0
  -28.9555   -8.4426  140.4528 C   0  0  0  0  0  0  0  0  0  0  0  0
  -28.9423   -9.6275  141.2495 C   0  0  0  0  0  0  0  0  0  0  0  0
  -28.5234   -8.3963  139.0972 C   0  0  0  0  0  0  0  0  0  0  0  0
  -28.8158   -7.3230  138.2603 C   0  0  0  0  0  0  0  0  0  0  0  0
  -27.6577   -9.4515  138.6873 C   0  0  0  0  0  0  0  0  0  0  0  0
  -28.3385   -7.5115  137.0145 N   0  0  0  0  0  0  0  0  0  0  0  0
  -30.3178  -11.0020  145.9123 O   0  0  0  0  0  0  0  0  0  0  0  0
  -27.2833  -10.3414  139.6267 N   0  0  0  0  0  0  0  0  0  0  0  0
  -26.4416  -11.4755  139.2194 C   0  0  0  0  0  0  0  0  0  0  0  0
  -27.7794  -10.4473  140.8169 N   0  0  0  0  0  0  0  0  0  0  0  0
  -27.1281  -12.8038  139.2106 C   0  0  0  0  0  0  0  0  0  0  0  0
  -27.7170  -12.8751  140.5984 C   0  0  0  0  0  0  0  0  0  0  0  0
  5  6  1  0
  6  7  2  0
  6 13  1  0
 15 19  1  0
 19 20  1  0
 24 26  1  0
 26 27  2  3
 26 28  1  0
 27 29  1  0
 16 30  1  0
 28 31  1  0
 31 32  1  0
 25 33  1  0
 31 33  1  0
 32 34  1  0
 34 35  1  0
  1  2  2  0
 11 10  2  0
 10  9  1  0
  9  8  2  0
  8  1  1  0
  2  3  1  0
  3  4  2  0
  4  5  1  0
  5 12  2  0
 12 11  1  0
 11  2  1  0
 20 21  2  0
 21 22  1  0
 22 23  2  0
 23 24  1  0
 24 25  2  0
 25 20  1  0
 13 14  2  0
 14 15  1  0
 15 16  2  0
 16 17  1  0
 17 18  2  0
 18 13  1  0
M  END

$$$$
No_513-/dssg/home/sw_qyf/PocketFlow/Model-Generation-Results/5HT2A_7WC7_rec_A_10.pdb/2024-01-01-03-54-21/
     RDKit          3D

 35 38  0  0  0  0  0  0  0  0999 V2000
  -23.1746  -16.6014  144.8668 C   0  0  0  0  0  0  0  0  0  0  0  0
  -23.7011  -17.0158  145.9774 C   0  0  0  0  0  0  0  0  0  0  0  0
  -24.2134  -16.0722  146.8877 C   0  0  0  0  0  0  0  0  0  0  0  0
  -24.7882  -16.3410  148.2078 C   0  0  0  0  0  0  0  0  0  0  0  0
  -23.4231  -15.2781  144.3679 C   0  0  0  0  0  0  0  0  0  0  0  0
  -24.0726  -14.2968  145.2170 C   0  0  0  0  0  0  0  0  0  0  0  0
  -24.4910  -14.7123  146.5041 C   0  0  0  0  0  0  0  0  0  0  0  0
  -24.1906  -12.9244  144.7629 C   0  0  0  0  0  0  0  0  0  0  0  0
  -25.3359  -12.2529  145.3199 C   0  0  0  0  0  0  0  0  0  0  0  0
  -25.9708  -12.6137  146.4135 C   0  0  0  0  0  0  0  0  0  0  0  0
  -27.1093  -11.8291  146.7657 C   0  0  0  0  0  0  0  0  0  0  0  0
  -25.6798  -13.9189  146.9807 C   0  0  0  0  0  0  0  0  0  0  0  0
  -23.9295  -17.1794  149.0321 C   0  0  0  0  0  0  0  0  0  0  0  0
  -24.2671  -17.4175  150.3839 C   0  0  0  0  0  0  0  0  0  0  0  0
  -25.4842  -11.0019  144.8282 O   0  0  0  0  0  0  0  0  0  0  0  0
  -25.1142  -16.9322  150.7735 C   0  0  0  0  0  0  0  0  0  0  0  0
  -26.2932  -16.4417  150.0121 C   0  0  0  0  0  0  0  0  0  0  0  0
  -25.9826  -16.1549  148.7086 C   0  0  0  0  0  0  0  0  0  0  0  0
  -23.4636  -18.2547  146.4252 O   0  0  0  0  0  0  0  0  0  0  0  0
  -28.4166  -12.2427  146.1071 C   0  0  0  0  0  0  0  0  0  0  0  0
  -29.1294  -13.2562  146.7033 C   0  0  0  0  0  0  0  0  0  0  0  0
  -30.3224  -12.9420  147.5341 C   0  0  0  0  0  0  0  0  0  0  0  0
  -30.5081  -11.5919  147.8426 C   0  0  0  0  0  0  0  0  0  0  0  0
  -31.5381  -11.4415  148.8626 C   0  0  0  0  0  0  0  0  0  0  0  0
  -28.8690  -11.5024  145.0028 C   0  0  0  0  0  0  0  0  0  0  0  0
  -28.3737  -11.6765  143.8860 O   0  0  0  0  0  0  0  0  0  0  0  0
  -28.2674  -10.6526  142.9525 C   0  0  0  0  0  0  0  0  0  0  0  0
  -29.2621   -9.7348  142.9635 C   0  0  0  0  0  0  0  0  0  0  0  0
  -29.1589   -8.6413  142.1214 C   0  0  0  0  0  0  0  0  0  0  0  0
  -29.9134   -7.4072  142.2542 C   0  0  0  0  0  0  0  0  0  0  0  0
  -31.0622   -7.5104  143.0702 C   0  0  0  0  0  0  0  0  0  0  0  0
  -31.3043   -8.6642  143.8248 C   0  0  0  0  0  0  0  0  0  0  0  0
  -30.4028   -9.7381  143.8372 C   0  0  0  0  0  0  0  0  0  0  0  0
  -29.5885   -6.3527  141.3656 C   0  0  0  0  0  0  0  0  0  0  0  0
  -32.0577  -12.5557  149.5962 C   0  0  0  0  0  0  0  0  0  0  0  0
  1  2  1  0
  2  3  1  0
  1  5  1  0
  5  6  1  0
  3  7  1  0
 10 11  1  0
  9 15  1  0
  2 19  2  0
 11 20  1  0
 20 21  1  0
 21 22  1  0
 22 23  2  3
 23 24  1  0
 20 25  1  0
 25 26  1  0
 26 27  1  0
 27 28  1  0
 30 34  1  0
 24 35  2  0
  3  4  1  0
 28 29  2  0
 29 30  1  0
 30 31  2  0
 31 32  1  0
 32 33  2  0
 33 28  1  0
  6  7  2  0
  7 12  1  0
 12 10  2  0
 10  9  1  0
  9  8  2  0
  8  6  1  0
  4 13  2  0
 13 14  1  0
 14 16  2  0
 16 17  1  0
 17 18  2  0
 18  4  1  0
M  END

$$$$
No_514-/dssg/home/sw_qyf/PocketFlow/Model-Generation-Results/5HT2A_7WC7_rec_A_10.pdb/2024-01-01-03-54-21/
     RDKit          3D

 19 21  0  0  0  0  0  0  0  0999 V2000
  -23.1746  -16.6014  144.8668 C   0  0  0  0  0  0  0  0  0  0  0  0
  -24.0189  -16.0564  145.8445 C   0  0  0  0  0  0  0  0  0  0  0  0
  -24.4145  -16.8299  146.9062 C   0  0  0  0  0  0  0  0  0  0  0  0
  -23.8925  -17.9780  147.0944 C   0  0  0  0  0  0  0  0  0  0  0  0
  -23.0516  -18.5662  146.1819 C   0  0  0  0  0  0  0  0  0  0  0  0
  -22.9547  -17.7260  145.0163 N   0  0  0  0  0  0  0  0  0  0  0  0
  -24.6059  -14.6312  145.6329 C   0  0  0  0  0  0  0  0  0  0  0  0
  -25.8717  -14.3314  145.9174 C   0  0  0  0  0  0  0  0  0  0  0  0
  -26.3599  -13.1208  145.6251 C   0  0  0  0  0  0  0  0  0  0  0  0
  -25.5097  -12.0517  145.2623 C   0  0  0  0  0  0  0  0  0  0  0  0
  -24.1124  -12.3461  145.1504 C   0  0  0  0  0  0  0  0  0  0  0  0
  -23.6627  -13.5974  145.2886 C   0  0  0  0  0  0  0  0  0  0  0  0
  -26.0104  -10.6532  145.0378 C   0  0  0  0  0  0  0  0  0  0  0  0
  -27.3892  -10.4456  144.6127 C   0  0  0  0  0  0  0  0  0  0  0  0
  -28.3536  -11.1293  145.4102 C   0  0  0  0  0  0  0  0  0  0  0  0
  -27.9049  -12.5612  145.7783 C   0  0  0  0  0  0  0  0  0  0  0  0
  -29.7275  -10.8918  145.4170 C   0  0  0  0  0  0  0  0  0  0  0  0
  -30.4218  -11.3040  146.4231 O   0  0  0  0  0  0  0  0  0  0  0  0
  -30.3567  -10.4122  144.3961 O   0  0  0  0  0  0  0  0  0  0  0  0
  2  7  1  0
 15 17  1  0
 17 18  1  0
 17 19  2  0
  1  2  2  0
  2  3  1  0
  3  4  2  0
  4  5  1  0
  5  6  2  0
  6  1  1  0
 10 13  2  0
 13 14  1  0
 14 15  2  0
 15 16  1  0
 16  9  2  0
  7  8  2  0
  8  9  1  0
  9 10  1  0
 10 11  1  0
 11 12  2  0
 12  7  1  0
M  END

$$$$
No_515-/dssg/home/sw_qyf/PocketFlow/Model-Generation-Results/5HT2A_7WC7_rec_A_10.pdb/2024-01-01-03-54-21/
     RDKit          3D

 35 37  0  0  0  0  0  0  0  0999 V2000
  -23.1746  -16.6014  144.8668 C   0  0  0  0  0  0  0  0  0  0  0  0
  -23.8963  -15.5346  144.7885 C   0  0  0  0  0  0  0  0  0  0  0  0
  -25.0304  -15.2549  144.5358 C   0  0  0  0  0  0  0  0  0  0  0  0
  -25.8853  -14.7934  145.2672 C   0  0  0  0  0  0  0  0  0  0  0  0
  -25.4331  -13.6599  146.1680 C   0  0  0  0  0  0  0  0  0  0  0  0
  -24.0140  -13.6977  146.4646 C   0  0  0  0  0  0  0  0  0  0  0  0
  -23.2417  -14.5697  145.8260 C   0  0  0  0  0  0  0  0  0  0  0  0
  -22.9179  -17.3817  145.7540 O   0  0  0  0  0  0  0  0  0  0  0  0
  -22.6349  -16.9123  143.6478 O   0  0  0  0  0  0  0  0  0  0  0  0
  -26.4223  -12.7064  146.7885 C   0  0  0  0  0  0  0  0  0  0  0  0
  -27.1540  -11.9698  145.8063 C   0  0  0  0  0  0  0  0  0  0  0  0
  -26.5584  -11.0830  144.9446 C   0  0  0  0  0  0  0  0  0  0  0  0
  -27.2950  -10.3015  144.0548 C   0  0  0  0  0  0  0  0  0  0  0  0
  -28.6936  -10.3438  144.0636 C   0  0  0  0  0  0  0  0  0  0  0  0
  -29.4948   -9.5824  143.2298 C   0  0  0  0  0  0  0  0  0  0  0  0
  -29.0400   -8.9981  142.2366 C   0  0  0  0  0  0  0  0  0  0  0  0
  -28.5813  -11.9670  145.8508 C   0  0  0  0  0  0  0  0  0  0  0  0
  -29.3611  -11.1430  145.0203 C   0  0  0  0  0  0  0  0  0  0  0  0
  -29.7180   -7.9549  141.5437 C   0  0  0  0  0  0  0  0  0  0  0  0
  -31.0994   -7.8027  141.8380 C   0  0  0  0  0  0  0  0  0  0  0  0
  -31.6710   -8.5757  142.7911 C   0  0  0  0  0  0  0  0  0  0  0  0
  -30.8959   -9.4056  143.6155 C   0  0  0  0  0  0  0  0  0  0  0  0
  -29.2270   -7.3103  140.4164 N   0  0  0  0  0  0  0  0  0  0  0  0
  -28.6878   -7.9823  139.3344 C   0  0  0  0  0  0  0  0  0  0  0  0
  -28.7018   -7.5101  138.0665 C   0  0  0  0  0  0  0  0  0  0  0  0
  -27.6914   -8.8882  139.6253 N   0  0  0  0  0  0  0  0  0  0  0  0
  -27.5108  -10.1631  139.2216 C   0  0  0  0  0  0  0  0  0  0  0  0
  -26.4658  -10.9010  139.8362 C   0  0  0  0  0  0  0  0  0  0  0  0
  -26.3778  -12.2915  139.3618 C   0  0  0  0  0  0  0  0  0  0  0  0
  -26.8922  -12.6067  138.2432 O   0  0  0  0  0  0  0  0  0  0  0  0
  -29.2901  -12.8251  146.8843 C   0  0  0  0  0  0  0  0  0  0  0  0
  -29.9835  -12.1963  147.9738 C   0  0  0  0  0  0  0  0  0  0  0  0
  -30.7106  -12.9184  148.9084 C   0  0  0  0  0  0  0  0  0  0  0  0
  -30.4165  -14.3796  148.8715 C   0  0  0  0  0  0  0  0  0  0  0  0
  -29.6181  -14.9305  147.8920 C   0  0  0  0  0  0  0  0  0  0  0  0
  1  2  1  0
  1  8  2  0
  1  9  1  0
  5 10  1  0
 10 11  1  0
 14 15  1  0
 19 23  1  0
 23 24  1  0
 24 25  1  0
 24 26  2  3
 26 27  1  0
 27 28  1  0
 28 29  1  0
 29 30  1  0
 17 31  1  0
 31 32  2  3
 32 33  1  0
 33 34  2  3
 34 35  1  0
  2  3  2  0
  3  4  1  0
  4  5  2  0
  5  6  1  0
  6  7  2  0
  7  2  1  0
 11 12  2  0
 12 13  1  0
 13 14  2  0
 14 18  1  0
 18 17  2  0
 17 11  1  0
 15 16  2  0
 16 19  1  0
 19 20  2  0
 20 21  1  0
 21 22  2  0
 22 15  1  0
M  END

$$$$
No_516-/dssg/home/sw_qyf/PocketFlow/Model-Generation-Results/5HT2A_7WC7_rec_A_10.pdb/2024-01-01-03-54-21/
     RDKit          3D

  6  6  0  0  0  0  0  0  0  0999 V2000
  -24.1553  -17.8465  145.7021 C   0  0  0  0  0  0  0  0  0  0  0  0
  -23.9795  -18.4462  146.7426 C   0  0  0  0  0  0  0  0  0  0  0  0
  -25.1593  -16.8262  145.6925 C   0  0  0  0  0  0  0  0  0  0  0  0
  -26.3426  -16.9003  146.3448 C   0  0  0  0  0  0  0  0  0  0  0  0
  -24.9078  -18.3640  147.8289 C   0  0  0  0  0  0  0  0  0  0  0  0
  -26.0312  -17.5122  147.7122 C   0  0  0  0  0  0  0  0  0  0  0  0
  1  2  2  0
  2  5  1  0
  5  6  2  0
  6  4  1  0
  4  3  2  0
  3  1  1  0
M  END

$$$$
No_517-/dssg/home/sw_qyf/PocketFlow/Model-Generation-Results/5HT2A_7WC7_rec_A_10.pdb/2024-01-01-03-54-21/
     RDKit          3D

 35 38  0  0  0  0  0  0  0  0999 V2000
  -24.1553  -17.8465  145.7021 C   0  0  0  0  0  0  0  0  0  0  0  0
  -23.9795  -18.4462  146.7426 C   0  0  0  0  0  0  0  0  0  0  0  0
  -24.3577  -16.4380  145.7329 C   0  0  0  0  0  0  0  0  0  0  0  0
  -24.4745  -15.6012  144.5587 C   0  0  0  0  0  0  0  0  0  0  0  0
  -24.5845  -14.1656  144.8311 C   0  0  0  0  0  0  0  0  0  0  0  0
  -24.6908  -13.6330  146.1427 C   0  0  0  0  0  0  0  0  0  0  0  0
  -24.6742  -12.2578  146.3968 C   0  0  0  0  0  0  0  0  0  0  0  0
  -23.9827  -17.8753  148.0839 C   0  0  0  0  0  0  0  0  0  0  0  0
  -24.2674  -16.4832  148.1889 C   0  0  0  0  0  0  0  0  0  0  0  0
  -24.4278  -15.7419  147.0519 C   0  0  0  0  0  0  0  0  0  0  0  0
  -24.5933  -14.3153  147.1773 C   0  0  0  0  0  0  0  0  0  0  0  0
  -26.0192  -11.6920  146.7496 C   0  0  0  0  0  0  0  0  0  0  0  0
  -27.1124  -12.3223  146.0970 C   0  0  0  0  0  0  0  0  0  0  0  0
  -27.6911  -11.8293  145.2344 C   0  0  0  0  0  0  0  0  0  0  0  0
  -29.0786  -11.1995  145.4122 C   0  0  0  0  0  0  0  0  0  0  0  0
  -29.7221  -10.4230  144.4056 C   0  0  0  0  0  0  0  0  0  0  0  0
  -29.2026  -10.3924  143.1396 C   0  0  0  0  0  0  0  0  0  0  0  0
  -28.0304  -11.1683  142.8435 C   0  0  0  0  0  0  0  0  0  0  0  0
  -27.3297  -11.7558  143.8569 C   0  0  0  0  0  0  0  0  0  0  0  0
  -29.8897   -9.7083  142.0680 C   0  0  0  0  0  0  0  0  0  0  0  0
  -29.1157   -9.0911  141.1101 C   0  0  0  0  0  0  0  0  0  0  0  0
  -29.4491   -7.8469  140.5223 C   0  0  0  0  0  0  0  0  0  0  0  0
  -28.8089   -7.3677  139.3711 C   0  0  0  0  0  0  0  0  0  0  0  0
  -27.9888   -8.2668  138.6388 C   0  0  0  0  0  0  0  0  0  0  0  0
  -27.6678   -9.4959  139.2364 C   0  0  0  0  0  0  0  0  0  0  0  0
  -28.2599   -9.9139  140.4351 C   0  0  0  0  0  0  0  0  0  0  0  0
  -29.6576  -11.2584  146.6830 N   0  0  0  0  0  0  0  0  0  0  0  0
  -31.1426   -9.4918  142.1850 O   0  0  0  0  0  0  0  0  0  0  0  0
  -24.5758  -13.3834  143.7968 O   0  0  0  0  0  0  0  0  0  0  0  0
  -29.8414  -12.4578  147.3902 C   0  0  0  0  0  0  0  0  0  0  0  0
  -30.8618  -12.4146  148.4397 C   0  0  0  0  0  0  0  0  0  0  0  0
  -31.7532  -11.4679  148.4849 C   0  0  0  0  0  0  0  0  0  0  0  0
  -32.7821  -11.4534  149.4525 C   0  0  0  0  0  0  0  0  0  0  0  0
  -32.8664  -12.6027  150.3490 C   0  0  0  0  0  0  0  0  0  0  0  0
  -31.9026  -13.5598  150.2976 C   0  0  0  0  0  0  0  0  0  0  0  0
  3  4  1  0
  4  5  1  0
  5  6  1  0
  6  7  1  0
  6 11  1  0
 10 11  1  0
  7 12  1  0
 12 13  1  0
 13 14  1  0
 17 20  1  0
 20 21  1  0
 15 27  1  0
 20 28  2  0
  5 29  2  0
 27 30  1  0
 30 31  1  0
 31 32  2  3
 32 33  1  0
 33 34  2  3
 34 35  1  0
 14 15  2  0
 15 16  1  0
 16 17  2  0
 17 18  1  0
 18 19  2  0
 19 14  1  0
  1  2  2  0
  2  8  1  0
  8  9  2  0
  9 10  1  0
 10  3  2  0
  3  1  1  0
 21 22  2  0
 22 23  1  0
 23 24  2  0
 24 25  1  0
 25 26  2  0
 26 21  1  0
M  END

$$$$
No_518-/dssg/home/sw_qyf/PocketFlow/Model-Generation-Results/5HT2A_7WC7_rec_A_10.pdb/2024-01-01-03-54-21/
     RDKit          3D

 35 37  0  0  0  0  0  0  0  0999 V2000
  -24.1553  -17.8465  145.7021 C   0  0  0  0  0  0  0  0  0  0  0  0
  -24.6364  -17.2931  146.7091 C   0  0  0  0  0  0  0  0  0  0  0  0
  -24.0780  -17.2921  147.9389 C   0  0  0  0  0  0  0  0  0  0  0  0
  -22.7158  -17.6979  148.0096 C   0  0  0  0  0  0  0  0  0  0  0  0
  -22.1285  -18.1651  146.8427 C   0  0  0  0  0  0  0  0  0  0  0  0
  -22.8309  -18.1998  145.7035 C   0  0  0  0  0  0  0  0  0  0  0  0
  -26.1305  -16.8542  146.7059 C   0  0  0  0  0  0  0  0  0  0  0  0
  -26.7897  -16.0913  146.0194 C   0  0  0  0  0  0  0  0  0  0  0  0
  -26.0703  -15.0108  145.2358 C   0  0  0  0  0  0  0  0  0  0  0  0
  -26.7854  -13.9079  144.6633 C   0  0  0  0  0  0  0  0  0  0  0  0
  -26.3978  -13.5391  143.3750 C   0  0  0  0  0  0  0  0  0  0  0  0
  -27.3391  -12.8865  142.5270 C   0  0  0  0  0  0  0  0  0  0  0  0
  -27.8072  -11.6262  142.8171 C   0  0  0  0  0  0  0  0  0  0  0  0
  -28.2037  -11.4678  144.2349 C   0  0  0  0  0  0  0  0  0  0  0  0
  -27.6787  -12.3871  145.2882 C   0  0  0  0  0  0  0  0  0  0  0  0
  -28.2953  -10.6931  141.9503 C   0  0  0  0  0  0  0  0  0  0  0  0
  -29.2976  -10.3487  141.7902 C   0  0  0  0  0  0  0  0  0  0  0  0
  -29.6737   -9.0593  141.1143 C   0  0  0  0  0  0  0  0  0  0  0  0
  -30.6759   -8.0970  141.5302 C   0  0  0  0  0  0  0  0  0  0  0  0
  -28.9157   -8.7138  139.9259 C   0  0  0  0  0  0  0  0  0  0  0  0
  -27.7786   -9.4933  139.6472 C   0  0  0  0  0  0  0  0  0  0  0  0
  -27.3847  -10.4830  140.7171 C   0  0  0  0  0  0  0  0  0  0  0  0
  -30.3648   -7.7771  142.6494 F   0  0  0  0  0  0  0  0  0  0  0  0
  -30.7680   -7.0736  140.6754 F   0  0  0  0  0  0  0  0  0  0  0  0
  -27.8849  -12.4824  146.7001 C   0  0  0  0  0  0  0  0  0  0  0  0
  -29.0000  -11.9340  147.0482 O   0  0  0  0  0  0  0  0  0  0  0  0
  -30.4027  -12.7564  147.4155 P   0  0  0  0  0  0  0  0  0  0  0  0
  -30.5054  -13.8213  146.5413 O   0  0  0  0  0  0  0  0  0  0  0  0
  -29.9038  -13.2645  148.8962 O   0  0  0  0  0  0  0  0  0  0  0  0
  -31.3572  -11.6966  147.4974 O   0  0  0  0  0  0  0  0  0  0  0  0
  -31.8549   -8.7570  141.6174 F   0  0  0  0  0  0  0  0  0  0  0  0
  -24.8229  -15.0108  145.1752 O   0  0  0  0  0  0  0  0  0  0  0  0
  -24.6579  -16.7356  149.1269 N   0  0  0  0  0  0  0  0  0  0  0  0
  -24.9689  -17.6329  150.2164 C   0  0  0  0  0  0  0  0  0  0  0  0
  -28.0348  -16.1489  145.7354 O   0  0  0  0  0  0  0  0  0  0  0  0
  2  7  1  0
  7  8  2  3
  8  9  1  0
  9 10  1  0
 10 11  1  0
 11 12  1  0
 12 13  1  0
 13 14  1  0
 10 15  1  0
 14 15  1  0
 13 16  1  0
 18 19  1  0
 19 23  1  0
 19 24  1  0
 15 25  1  0
 25 26  1  0
 26 27  1  0
 27 28  2  0
 27 29  1  0
 27 30  1  0
 19 31  1  0
  9 32  2  0
  3 33  1  0
 33 34  1  0
  8 35  1  0
  1  2  2  0
  2  3  1  0
  3  4  2  0
  4  5  1  0
  5  6  2  0
  6  1  1  0
 16 17  2  0
 17 18  1  0
 18 20  2  0
 20 21  1  0
 21 22  2  0
 22 16  1  0
M  END

$$$$
No_519-/dssg/home/sw_qyf/PocketFlow/Model-Generation-Results/5HT2A_7WC7_rec_A_10.pdb/2024-01-01-03-54-21/
     RDKit          3D

 34 37  0  0  0  0  0  0  0  0999 V2000
  -24.1553  -17.8465  145.7021 C   0  0  0  0  0  0  0  0  0  0  0  0
  -24.2856  -16.6364  145.3494 C   0  0  0  0  0  0  0  0  0  0  0  0
  -25.0033  -15.6772  146.0737 C   0  0  0  0  0  0  0  0  0  0  0  0
  -25.6964  -16.1810  147.2049 C   0  0  0  0  0  0  0  0  0  0  0  0
  -24.8143  -18.3454  146.8324 C   0  0  0  0  0  0  0  0  0  0  0  0
  -25.5291  -17.4614  147.6373 C   0  0  0  0  0  0  0  0  0  0  0  0
  -23.5187  -16.2455  144.2262 N   0  0  0  0  0  0  0  0  0  0  0  0
  -25.1427  -14.2646  145.6416 C   0  0  0  0  0  0  0  0  0  0  0  0
  -24.4818  -13.7821  144.6850 C   0  0  0  0  0  0  0  0  0  0  0  0
  -23.5541  -14.8372  143.9545 C   0  0  0  0  0  0  0  0  0  0  0  0
  -25.9343  -13.3633  146.4964 C   0  0  0  0  0  0  0  0  0  0  0  0
  -26.4996  -12.2473  145.7622 C   0  0  0  0  0  0  0  0  0  0  0  0
  -27.8896  -12.0892  145.7480 C   0  0  0  0  0  0  0  0  0  0  0  0
  -28.7889  -12.8861  146.5324 C   0  0  0  0  0  0  0  0  0  0  0  0
  -29.6815  -12.3154  147.3303 C   0  0  0  0  0  0  0  0  0  0  0  0
  -30.4885  -13.0508  148.2944 C   0  0  0  0  0  0  0  0  0  0  0  0
  -30.1555  -14.4500  148.3414 C   0  0  0  0  0  0  0  0  0  0  0  0
  -29.2435  -15.0236  147.4718 C   0  0  0  0  0  0  0  0  0  0  0  0
  -28.5276  -14.2470  146.5817 C   0  0  0  0  0  0  0  0  0  0  0  0
  -28.4548  -11.0552  144.9268 C   0  0  0  0  0  0  0  0  0  0  0  0
  -27.7435  -10.3190  143.9912 C   0  0  0  0  0  0  0  0  0  0  0  0
  -28.2452  -10.2541  142.7814 C   0  0  0  0  0  0  0  0  0  0  0  0
  -29.4299   -9.4886  142.5868 C   0  0  0  0  0  0  0  0  0  0  0  0
  -30.3753   -9.5581  143.6307 C   0  0  0  0  0  0  0  0  0  0  0  0
  -29.9448  -10.7456  144.7762 C   0  0  0  0  0  0  0  0  0  0  0  0
  -29.8246   -8.7675  141.4764 C   0  0  0  0  0  0  0  0  0  0  0  0
  -30.9277   -7.8659  141.5721 C   0  0  0  0  0  0  0  0  0  0  0  0
  -29.0330   -8.7297  140.3034 C   0  0  0  0  0  0  0  0  0  0  0  0
  -29.2444   -7.7950  139.2447 C   0  0  0  0  0  0  0  0  0  0  0  0
  -28.3661   -7.8704  138.1673 C   0  0  0  0  0  0  0  0  0  0  0  0
  -28.8431   -7.5380  136.9634 C   0  0  0  0  0  0  0  0  0  0  0  0
  -31.4866  -12.5414  149.1948 C   0  0  0  0  0  0  0  0  0  0  0  0
  -32.1348  -13.1986  150.1279 C   0  0  0  0  0  0  0  0  0  0  0  0
  -31.6676  -14.5392  150.4477 C   0  0  0  0  0  0  0  0  0  0  0  0
  8 11  1  0
 11 12  1  0
 12 13  1  0
 13 14  1  0
 13 20  1  0
 23 26  1  0
 26 27  2  0
 26 28  1  0
 28 29  1  0
 29 30  2  3
 30 31  1  0
 16 32  1  0
 32 33  2  3
 33 34  1  0
 14 15  2  0
 15 16  1  0
 16 17  2  0
 17 18  1  0
 18 19  2  0
 19 14  1  0
  1  2  2  0
  3  4  2  0
  4  6  1  0
  6  5  2  0
  5  1  1  0
 20 21  2  0
 21 22  1  0
 22 23  2  0
 23 24  1  0
 24 25  2  0
 25 20  1  0
  2  3  1  0
  3  8  1  0
  8  9  2  0
  9 10  1  0
 10  7  2  0
  7  2  1  0
M  END

$$$$
No_520-/dssg/home/sw_qyf/PocketFlow/Model-Generation-Results/5HT2A_7WC7_rec_A_10.pdb/2024-01-01-03-54-21/
     RDKit          3D

 23 23  0  0  0  0  0  0  0  0999 V2000
  -24.1553  -17.8465  145.7021 C   0  0  0  0  0  0  0  0  0  0  0  0
  -24.6364  -17.2931  146.7091 C   0  0  0  0  0  0  0  0  0  0  0  0
  -24.0780  -17.2921  147.9389 C   0  0  0  0  0  0  0  0  0  0  0  0
  -24.6761  -16.7363  149.1478 C   0  0  0  0  0  0  0  0  0  0  0  0
  -25.9985  -16.2638  148.9932 C   0  0  0  0  0  0  0  0  0  0  0  0
  -26.6270  -16.3412  147.7728 C   0  0  0  0  0  0  0  0  0  0  0  0
  -25.9734  -16.9165  146.6819 C   0  0  0  0  0  0  0  0  0  0  0  0
  -23.5884  -19.0110  145.5480 N   0  0  0  0  0  0  0  0  0  0  0  0
  -28.0647  -15.9002  147.7228 C   0  0  0  0  0  0  0  0  0  0  0  0
  -28.3917  -15.0039  146.7034 C   0  0  0  0  0  0  0  0  0  0  0  0
  -29.6821  -14.3782  146.7765 C   0  0  0  0  0  0  0  0  0  0  0  0
  -23.9935  -17.0748  144.6076 F   0  0  0  0  0  0  0  0  0  0  0  0
  -29.8731  -13.1173  146.1559 C   0  0  0  0  0  0  0  0  0  0  0  0
  -28.8678  -12.0597  146.6347 C   0  0  0  0  0  0  0  0  0  0  0  0
  -28.0210  -11.6603  145.4865 C   0  0  0  0  0  0  0  0  0  0  0  0
  -27.7141  -10.9959  144.7582 C   0  0  0  0  0  0  0  0  0  0  0  0
  -28.3710   -9.8260  144.1427 C   0  0  0  0  0  0  0  0  0  0  0  0
  -29.4163  -10.0286  143.1918 C   0  0  0  0  0  0  0  0  0  0  0  0
  -29.2813  -10.7540  142.1162 C   0  0  0  0  0  0  0  0  0  0  0  0
  -28.2297  -10.2847  141.2294 C   0  0  0  0  0  0  0  0  0  0  0  0
  -28.2909   -9.0753  140.6048 C   0  0  0  0  0  0  0  0  0  0  0  0
  -28.8611   -9.0316  139.3407 C   0  0  0  0  0  0  0  0  0  0  0  0
  -29.5820   -7.8235  139.0376 C   0  0  0  0  0  0  0  0  0  0  0  0
  1  2  1  0
  1  8  1  0
  6  9  1  0
  9 10  2  3
 10 11  1  0
  1 12  1  0
 11 13  1  0
 13 14  1  0
 14 15  1  0
 15 16  3  0
 16 17  1  0
 17 18  1  0
 18 19  1  0
 19 20  1  0
 20 21  1  0
 21 22  1  0
 22 23  1  0
  2  3  2  0
  3  4  1  0
  4  5  2  0
  5  6  1  0
  6  7  2  0
  7  2  1  0
M  END

$$$$
No_521-/dssg/home/sw_qyf/PocketFlow/Model-Generation-Results/5HT2A_7WC7_rec_A_10.pdb/2024-01-01-03-54-21/
     RDKit          3D

 24 26  0  0  0  0  0  0  0  0999 V2000
  -23.8998  -17.8495  145.5131 N   0  0  0  0  0  0  0  0  0  0  0  0
  -24.2949  -16.6890  145.5199 C   0  0  0  0  0  0  0  0  0  0  0  0
  -25.0185  -16.1392  146.5537 C   0  0  0  0  0  0  0  0  0  0  0  0
  -25.1941  -16.8484  147.6260 C   0  0  0  0  0  0  0  0  0  0  0  0
  -24.0158  -18.6582  146.5906 C   0  0  0  0  0  0  0  0  0  0  0  0
  -25.8725  -16.3454  148.8436 C   0  0  0  0  0  0  0  0  0  0  0  0
  -24.4000  -18.2262  147.6714 N   0  0  0  0  0  0  0  0  0  0  0  0
  -24.2109  -15.7464  144.3865 N   0  0  0  0  0  0  0  0  0  0  0  0
  -23.5458  -14.6212  144.4436 C   0  0  0  0  0  0  0  0  0  0  0  0
  -24.4661  -13.4711  144.8723 C   0  0  0  0  0  0  0  0  0  0  0  0
  -23.7503  -12.3689  145.4897 C   0  0  0  0  0  0  0  0  0  0  0  0
  -25.7467  -13.4130  144.4703 C   0  0  0  0  0  0  0  0  0  0  0  0
  -26.5658  -12.2949  144.7879 C   0  0  0  0  0  0  0  0  0  0  0  0
  -25.9280  -11.1669  145.4155 C   0  0  0  0  0  0  0  0  0  0  0  0
  -24.5613  -11.2639  145.8184 C   0  0  0  0  0  0  0  0  0  0  0  0
  -27.9781  -12.1126  144.4950 C   0  0  0  0  0  0  0  0  0  0  0  0
  -28.4703  -11.2014  143.8390 C   0  0  0  0  0  0  0  0  0  0  0  0
  -28.1521  -10.8606  142.5420 C   0  0  0  0  0  0  0  0  0  0  0  0
  -27.6666  -11.7772  141.5967 C   0  0  0  0  0  0  0  0  0  0  0  0
  -27.5508  -11.4693  140.2338 C   0  0  0  0  0  0  0  0  0  0  0  0
  -27.0609  -12.3777  139.2554 C   0  0  0  0  0  0  0  0  0  0  0  0
  -26.0148  -13.1470  139.7537 C   0  0  0  0  0  0  0  0  0  0  0  0
  -26.1585  -13.6562  141.1117 C   0  0  0  0  0  0  0  0  0  0  0  0
  -26.8628  -12.8815  142.0627 C   0  0  0  0  0  0  0  0  0  0  0  0
  4  6  1  0
  2  8  1  0
  8  9  1  0
  9 10  1  0
 13 16  1  0
 16 17  2  3
 17 18  1  0
 18 19  1  0
 10 11  2  0
 11 15  1  0
 15 14  2  0
 14 13  1  0
 13 12  2  0
 12 10  1  0
  1  2  2  0
  2  3  1  0
  3  4  2  0
  4  7  1  0
  7  5  2  0
  5  1  1  0
 19 20  2  0
 20 21  1  0
 21 22  2  0
 22 23  1  0
 23 24  2  0
 24 19  1  0
M  END

$$$$
No_522-/dssg/home/sw_qyf/PocketFlow/Model-Generation-Results/5HT2A_7WC7_rec_A_10.pdb/2024-01-01-03-54-21/
     RDKit          3D

 31 33  0  0  0  0  0  0  0  0999 V2000
  -24.1553  -17.8465  145.7021 C   0  0  0  0  0  0  0  0  0  0  0  0
  -23.9795  -18.4462  146.7426 C   0  0  0  0  0  0  0  0  0  0  0  0
  -25.1593  -16.8262  145.6925 C   0  0  0  0  0  0  0  0  0  0  0  0
  -24.9465  -15.5960  144.9952 C   0  0  0  0  0  0  0  0  0  0  0  0
  -25.8339  -14.4742  145.0599 C   0  0  0  0  0  0  0  0  0  0  0  0
  -27.0182  -14.6297  145.8322 C   0  0  0  0  0  0  0  0  0  0  0  0
  -27.2859  -15.8685  146.4498 C   0  0  0  0  0  0  0  0  0  0  0  0
  -26.3483  -16.9196  146.4585 C   0  0  0  0  0  0  0  0  0  0  0  0
  -27.9961  -13.5424  145.8419 C   0  0  0  0  0  0  0  0  0  0  0  0
  -27.7809  -12.3436  145.1452 C   0  0  0  0  0  0  0  0  0  0  0  0
  -26.7925  -12.3258  144.1933 C   0  0  0  0  0  0  0  0  0  0  0  0
  -25.7160  -13.3274  144.2536 C   0  0  0  0  0  0  0  0  0  0  0  0
  -28.7903  -11.2805  145.1280 C   0  0  0  0  0  0  0  0  0  0  0  0
  -28.8379  -10.2376  144.2089 C   0  0  0  0  0  0  0  0  0  0  0  0
  -29.8143   -9.6786  143.6610 C   0  0  0  0  0  0  0  0  0  0  0  0
  -29.7184   -8.5485  142.7517 C   0  0  0  0  0  0  0  0  0  0  0  0
  -30.0830   -7.4820  142.6900 C   0  0  0  0  0  0  0  0  0  0  0  0
  -29.9292   -6.4566  141.6006 C   0  0  0  0  0  0  0  0  0  0  0  0
  -29.3092   -7.0567  140.4830 C   0  0  0  0  0  0  0  0  0  0  0  0
  -29.0033   -8.3809  140.3998 C   0  0  0  0  0  0  0  0  0  0  0  0
  -29.2393   -9.1606  141.5465 C   0  0  0  0  0  0  0  0  0  0  0  0
  -28.4100   -8.8811  139.1997 C   0  0  0  0  0  0  0  0  0  0  0  0
  -28.3918   -8.1781  138.0940 N   0  0  0  0  0  0  0  0  0  0  0  0
  -27.6939  -10.1336  139.2380 C   0  0  0  0  0  0  0  0  0  0  0  0
  -26.5671  -10.3884  140.0334 C   0  0  0  0  0  0  0  0  0  0  0  0
  -26.0794  -11.7075  139.7651 N   0  0  0  0  0  0  0  0  0  0  0  0
  -23.2229  -17.6578  147.8694 C   0  0  0  0  0  0  0  0  0  0  0  0
  -24.0041  -16.6329  148.6073 C   0  0  0  0  0  0  0  0  0  0  0  0
  -29.7963  -11.2912  146.1863 C   0  0  0  0  0  0  0  0  0  0  0  0
  -29.8395  -12.2449  147.0544 O   0  0  0  0  0  0  0  0  0  0  0  0
  -30.8196  -11.9813  147.9515 F   0  0  0  0  0  0  0  0  0  0  0  0
  1  2  1  0
  1  3  1  0
 10 13  1  0
 13 14  2  3
 14 15  1  0
 20 22  1  0
 22 23  1  0
 22 24  1  0
 24 25  2  3
 25 26  1  0
  2 27  1  0
 27 28  1  0
 13 29  1  0
 29 30  1  0
 30 31  1  0
 15 16  1  0
 16 17  2  0
 17 18  1  0
 18 19  2  0
 19 20  1  0
 20 21  2  0
 21 16  1  0
  3  4  2  0
  4  5  1  0
  6  7  1  0
  7  8  2  0
  8  3  1  0
  5  6  2  0
  6  9  1  0
  9 10  2  0
 10 11  1  0
 11 12  2  0
 12  5  1  0
M  END

$$$$
No_523-/dssg/home/sw_qyf/PocketFlow/Model-Generation-Results/5HT2A_7WC7_rec_A_10.pdb/2024-01-01-03-54-21/
     RDKit          3D

 24 25  0  0  0  0  0  0  0  0999 V2000
  -24.1553  -17.8465  145.7021 C   0  0  0  0  0  0  0  0  0  0  0  0
  -24.2856  -16.6364  145.3494 C   0  0  0  0  0  0  0  0  0  0  0  0
  -24.5733  -15.7651  145.9979 C   0  0  0  0  0  0  0  0  0  0  0  0
  -24.7088  -14.2765  145.5906 C   0  0  0  0  0  0  0  0  0  0  0  0
  -24.0081  -14.0224  144.3771 C   0  0  0  0  0  0  0  0  0  0  0  0
  -24.5461  -18.2167  147.0077 C   0  0  0  0  0  0  0  0  0  0  0  0
  -24.9798  -17.2136  147.8740 C   0  0  0  0  0  0  0  0  0  0  0  0
  -24.9934  -15.8410  147.4193 C   0  0  0  0  0  0  0  0  0  0  0  0
  -25.4095  -13.3162  146.3444 C   0  0  0  0  0  0  0  0  0  0  0  0
  -25.4126  -11.9738  145.9362 C   0  0  0  0  0  0  0  0  0  0  0  0
  -26.5143  -11.6564  145.1580 C   0  0  0  0  0  0  0  0  0  0  0  0
  -26.6341  -10.4818  144.4266 C   0  0  0  0  0  0  0  0  0  0  0  0
  -27.8116  -10.0905  143.7917 C   0  0  0  0  0  0  0  0  0  0  0  0
  -29.0179  -10.2994  144.5664 C   0  0  0  0  0  0  0  0  0  0  0  0
  -28.9886  -11.3830  145.5679 C   0  0  0  0  0  0  0  0  0  0  0  0
  -27.7404  -11.8447  146.0226 C   0  0  0  0  0  0  0  0  0  0  0  0
  -30.2981   -9.6821  144.2423 C   0  0  0  0  0  0  0  0  0  0  0  0
  -30.2952   -8.6185  143.2786 C   0  0  0  0  0  0  0  0  0  0  0  0
  -29.8652   -8.4816  142.3837 C   0  0  0  0  0  0  0  0  0  0  0  0
  -29.3468   -9.5480  141.4846 C   0  0  0  0  0  0  0  0  0  0  0  0
  -29.0168   -9.4009  140.1493 C   0  0  0  0  0  0  0  0  0  0  0  0
  -28.1353  -10.2659  139.4535 C   0  0  0  0  0  0  0  0  0  0  0  0
  -27.5263   -9.9084  138.2708 C   0  0  0  0  0  0  0  0  0  0  0  0
  -28.0765   -8.7151  137.6261 C   0  0  0  0  0  0  0  0  0  0  0  0
  3  4  1  0
  4  5  2  0
  4  9  1  0
  9 10  1  0
 10 11  1  0
 14 17  1  0
 17 18  1  0
 18 19  2  3
 19 20  1  0
 20 21  2  3
 21 22  1  0
 22 23  2  3
 23 24  1  0
 11 12  2  0
 12 13  1  0
 13 14  2  0
 14 15  1  0
 15 16  2  0
 16 11  1  0
  1  2  2  0
  2  3  1  0
  3  8  2  0
  8  7  1  0
  7  6  2  0
  6  1  1  0
M  END

$$$$
No_524-/dssg/home/sw_qyf/PocketFlow/Model-Generation-Results/5HT2A_7WC7_rec_A_10.pdb/2024-01-01-03-54-21/
     RDKit          3D

 17 19  0  0  0  0  0  0  0  0999 V2000
  -23.1746  -16.6014  144.8668 C   0  0  0  0  0  0  0  0  0  0  0  0
  -23.8963  -15.5346  144.7885 C   0  0  0  0  0  0  0  0  0  0  0  0
  -24.6479  -15.0447  145.8164 C   0  0  0  0  0  0  0  0  0  0  0  0
  -25.3835  -13.7782  145.7887 C   0  0  0  0  0  0  0  0  0  0  0  0
  -25.5840  -12.9393  146.6927 C   0  0  0  0  0  0  0  0  0  0  0  0
  -23.3260  -17.4394  146.0484 C   0  0  0  0  0  0  0  0  0  0  0  0
  -24.0657  -17.0203  147.1562 C   0  0  0  0  0  0  0  0  0  0  0  0
  -24.7664  -15.7793  147.0832 C   0  0  0  0  0  0  0  0  0  0  0  0
  -26.1810  -11.6728  146.4824 C   0  0  0  0  0  0  0  0  0  0  0  0
  -26.6284  -11.3598  145.2064 C   0  0  0  0  0  0  0  0  0  0  0  0
  -27.2604  -10.1280  144.9379 C   0  0  0  0  0  0  0  0  0  0  0  0
  -25.7902  -13.2053  144.4714 C   0  0  0  0  0  0  0  0  0  0  0  0
  -26.4290  -12.1793  144.2394 N   0  0  0  0  0  0  0  0  0  0  0  0
  -27.1270   -9.6271  143.6598 C   0  0  0  0  0  0  0  0  0  0  0  0
  -27.3255  -10.4576  142.6330 C   0  0  0  0  0  0  0  0  0  0  0  0
  -26.8441  -11.8573  142.8447 C   0  0  0  0  0  0  0  0  0  0  0  0
  -26.9483  -12.7903  142.0015 O   0  0  0  0  0  0  0  0  0  0  0  0
  3  4  1  0
  4  5  1  0
  9 10  1  0
 10 11  1  0
  4 12  1  0
 10 13  1  0
 12 13  1  0
 11 14  1  0
 14 15  1  0
 13 16  1  0
 15 16  1  0
 16 17  1  0
  9  5  1  0
  1  2  2  0
  2  3  1  0
  3  8  2  0
  8  7  1  0
  7  6  2  0
  6  1  1  0
M  END

$$$$
No_525-/dssg/home/sw_qyf/PocketFlow/Model-Generation-Results/5HT2A_7WC7_rec_A_10.pdb/2024-01-01-03-54-21/
     RDKit          3D

 35 39  0  0  0  0  0  0  0  0999 V2000
  -23.1746  -16.6014  144.8668 C   0  0  0  0  0  0  0  0  0  0  0  0
  -24.0189  -16.0564  145.8445 C   0  0  0  0  0  0  0  0  0  0  0  0
  -24.4850  -14.7380  145.6359 C   0  0  0  0  0  0  0  0  0  0  0  0
  -24.0208  -14.0081  144.6269 C   0  0  0  0  0  0  0  0  0  0  0  0
  -22.9440  -14.4189  143.8721 C   0  0  0  0  0  0  0  0  0  0  0  0
  -22.6060  -15.7165  144.0370 N   0  0  0  0  0  0  0  0  0  0  0  0
  -24.6080  -16.9748  146.8639 C   0  0  0  0  0  0  0  0  0  0  0  0
  -24.3318  -17.0463  147.8607 C   0  0  0  0  0  0  0  0  0  0  0  0
  -24.7950  -17.7664  149.0585 C   0  0  0  0  0  0  0  0  0  0  0  0
  -25.3464  -17.0949  150.1712 C   0  0  0  0  0  0  0  0  0  0  0  0
  -26.0056  -17.2425  146.5397 C   0  0  0  0  0  0  0  0  0  0  0  0
  -26.9409  -16.2778  146.0168 C   0  0  0  0  0  0  0  0  0  0  0  0
  -27.0480  -15.0685  146.1760 C   0  0  0  0  0  0  0  0  0  0  0  0
  -28.2427  -14.3064  146.1558 C   0  0  0  0  0  0  0  0  0  0  0  0
  -28.2756  -12.8722  146.2794 C   0  0  0  0  0  0  0  0  0  0  0  0
  -26.9892  -12.1870  146.1990 C   0  0  0  0  0  0  0  0  0  0  0  0
  -25.9297  -14.0029  146.0332 C   0  0  0  0  0  0  0  0  0  0  0  0
  -25.8888  -12.7027  146.0515 C   0  0  0  0  0  0  0  0  0  0  0  0
  -29.5381  -12.1323  146.5250 C   0  0  0  0  0  0  0  0  0  0  0  0
  -29.8592  -11.1211  145.8566 O   0  0  0  0  0  0  0  0  0  0  0  0
  -30.2711  -12.4920  147.5451 O   0  0  0  0  0  0  0  0  0  0  0  0
  -28.0910  -16.9694  145.3536 C   0  0  0  0  0  0  0  0  0  0  0  0
  -24.4128  -17.0089  151.0826 C   0  0  0  0  0  0  0  0  0  0  0  0
  -29.2108  -10.7065  144.7335 C   0  0  0  0  0  0  0  0  0  0  0  0
  -29.9413   -9.7827  143.8722 C   0  0  0  0  0  0  0  0  0  0  0  0
  -29.4049   -9.4195  142.6608 C   0  0  0  0  0  0  0  0  0  0  0  0
  -29.9204   -8.4127  141.8649 C   0  0  0  0  0  0  0  0  0  0  0  0
  -31.2506   -7.9892  142.2065 C   0  0  0  0  0  0  0  0  0  0  0  0
  -31.8100   -8.4228  143.4290 C   0  0  0  0  0  0  0  0  0  0  0  0
  -31.1483   -9.2647  144.2498 C   0  0  0  0  0  0  0  0  0  0  0  0
  -29.3162   -8.0046  140.6415 C   0  0  0  0  0  0  0  0  0  0  0  0
  -29.4357   -6.6926  140.0893 C   0  0  0  0  0  0  0  0  0  0  0  0
  -28.4589   -8.8873  139.9362 C   0  0  0  0  0  0  0  0  0  0  0  0
  -28.0547  -10.1388  140.3315 C   0  0  0  0  0  0  0  0  0  0  0  0
  -28.5537  -10.4384  141.8067 C   0  0  0  0  0  0  0  0  0  0  0  0
  2  7  1  0
  7  8  2  3
  8  9  1  0
  9 10  1  0
  7 11  1  0
 11 12  1  0
  3 17  1  0
 15 19  1  0
 19 20  1  0
 19 21  2  0
 12 22  1  0
 10 23  2  0
 20 24  1  0
 24 25  1  0
 12 13  1  0
 32 31  1  0
 27 31  1  0
 31 33  2  0
 33 34  1  0
 34 35  2  0
 35 26  1  0
  1  2  2  0
  2  3  1  0
  3  4  2  0
  4  5  1  0
  5  6  2  0
  6  1  1  0
 25 26  2  0
 26 27  1  0
 27 28  2  0
 28 29  1  0
 29 30  2  0
 30 25  1  0
 13 14  2  0
 14 15  1  0
 15 16  2  0
 16 18  1  0
 18 17  2  0
 17 13  1  0
M  END

$$$$
No_526-/dssg/home/sw_qyf/PocketFlow/Model-Generation-Results/5HT2A_7WC7_rec_A_10.pdb/2024-01-01-03-54-21/
     RDKit          3D

 26 28  0  0  0  0  0  0  0  0999 V2000
  -24.1553  -17.8465  145.7021 C   0  0  0  0  0  0  0  0  0  0  0  0
  -24.2855  -16.6364  145.3494 C   0  0  0  0  0  0  0  0  0  0  0  0
  -24.7838  -15.7223  145.8474 C   0  0  0  0  0  0  0  0  0  0  0  0
  -24.8736  -14.2869  145.3929 C   0  0  0  0  0  0  0  0  0  0  0  0
  -23.9241  -14.0298  144.3753 C   0  0  0  0  0  0  0  0  0  0  0  0
  -24.8183  -18.2201  146.9016 C   0  0  0  0  0  0  0  0  0  0  0  0
  -25.5286  -17.3057  147.6155 C   0  0  0  0  0  0  0  0  0  0  0  0
  -25.5602  -15.9626  147.1562 C   0  0  0  0  0  0  0  0  0  0  0  0
  -25.6720  -13.2716  146.0024 C   0  0  0  0  0  0  0  0  0  0  0  0
  -25.5995  -11.9953  145.7469 C   0  0  0  0  0  0  0  0  0  0  0  0
  -26.8247  -11.2374  145.7881 C   0  0  0  0  0  0  0  0  0  0  0  0
  -28.0108  -11.9107  146.0396 C   0  0  0  0  0  0  0  0  0  0  0  0
  -27.9906  -13.2713  146.5602 C   0  0  0  0  0  0  0  0  0  0  0  0
  -27.0782  -13.9282  145.9933 C   0  0  0  0  0  0  0  0  0  0  0  0
  -29.2783  -13.7564  146.8515 N   0  0  0  0  0  0  0  0  0  0  0  0
  -29.8210  -14.8697  146.8820 C   0  0  0  0  0  0  0  0  0  0  0  0
  -22.6954  -14.1337  144.5104 O   0  0  0  0  0  0  0  0  0  0  0  0
  -24.1044  -11.2451  145.4283 Cl  0  0  0  0  0  0  0  0  0  0  0  0
  -30.2707  -12.6701  147.3416 C   0  0  0  0  0  0  0  0  0  0  0  0
  -30.3437  -11.1556  146.7844 Cl  0  0  0  0  0  0  0  0  0  0  0  0
  -30.8526  -12.9568  148.6649 C   0  0  0  0  0  0  0  0  0  0  0  0
  -31.7590  -12.0208  149.2016 C   0  0  0  0  0  0  0  0  0  0  0  0
  -32.5018  -12.3211  150.3519 C   0  0  0  0  0  0  0  0  0  0  0  0
  -32.2557  -13.5334  150.9928 C   0  0  0  0  0  0  0  0  0  0  0  0
  -31.3326  -14.4694  150.4240 C   0  0  0  0  0  0  0  0  0  0  0  0
  -30.6451  -14.1736  149.3163 C   0  0  0  0  0  0  0  0  0  0  0  0
  3  4  1  0
  4  5  1  0
  4  9  1  0
 13 15  1  0
 15 16  1  0
  5 17  1  0
 10 18  1  0
 15 19  1  0
 19 20  1  0
 19 21  1  0
  1  2  2  0
  2  3  1  0
  3  8  2  0
  8  7  1  0
  7  6  2  0
  6  1  1  0
  9 10  2  0
 10 11  1  0
 11 12  2  0
 12 13  1  0
 13 14  2  0
 14  9  1  0
 21 22  2  0
 22 23  1  0
 23 24  2  0
 24 25  1  0
 25 26  2  0
 26 21  1  0
M  END

$$$$
No_527-/dssg/home/sw_qyf/PocketFlow/Model-Generation-Results/5HT2A_7WC7_rec_A_10.pdb/2024-01-01-03-54-21/
     RDKit          3D

 29 32  0  0  0  0  0  0  0  0999 V2000
  -24.1553  -17.8465  145.7021 C   0  0  0  0  0  0  0  0  0  0  0  0
  -24.6364  -17.2931  146.7091 C   0  0  0  0  0  0  0  0  0  0  0  0
  -25.8608  -16.5592  146.5934 C   0  0  0  0  0  0  0  0  0  0  0  0
  -25.9088  -15.1597  146.9911 C   0  0  0  0  0  0  0  0  0  0  0  0
  -26.8304  -14.2303  146.5024 C   0  0  0  0  0  0  0  0  0  0  0  0
  -28.1334  -14.3679  146.9858 C   0  0  0  0  0  0  0  0  0  0  0  0
  -28.7444  -15.4447  147.5108 C   0  0  0  0  0  0  0  0  0  0  0  0
  -28.9517  -13.1070  147.2043 C   0  0  0  0  0  0  0  0  0  0  0  0
  -28.6219  -11.9252  146.4956 C   0  0  0  0  0  0  0  0  0  0  0  0
  -27.3067  -11.8839  145.9299 C   0  0  0  0  0  0  0  0  0  0  0  0
  -26.4019  -13.0080  145.9817 C   0  0  0  0  0  0  0  0  0  0  0  0
  -26.9353  -10.6464  145.1844 C   0  0  0  0  0  0  0  0  0  0  0  0
  -27.7998   -9.8759  144.6274 N   0  0  0  0  0  0  0  0  0  0  0  0
  -27.7451   -9.3456  143.4124 C   0  0  0  0  0  0  0  0  0  0  0  0
  -28.8469   -8.6732  142.9366 C   0  0  0  0  0  0  0  0  0  0  0  0
  -28.8549   -7.4073  142.4419 C   0  0  0  0  0  0  0  0  0  0  0  0
  -29.9236   -6.5473  142.5205 C   0  0  0  0  0  0  0  0  0  0  0  0
  -31.2331   -7.2135  142.7130 C   0  0  0  0  0  0  0  0  0  0  0  0
  -31.2420   -8.5427  143.1182 C   0  0  0  0  0  0  0  0  0  0  0  0
  -30.0923   -9.2401  143.2953 C   0  0  0  0  0  0  0  0  0  0  0  0
  -23.9070  -16.8853  144.5778 C   0  0  0  0  0  0  0  0  0  0  0  0
  -24.3332  -15.5528  145.0641 C   0  0  0  0  0  0  0  0  0  0  0  0
  -24.8682  -14.9505  146.1018 C   0  0  0  0  0  0  0  0  0  0  0  0
  -23.7918  -13.9216  146.7104 C   0  0  0  0  0  0  0  0  0  0  0  0
  -23.7434  -14.5972  144.1143 N   0  0  0  0  0  0  0  0  0  0  0  0
  -23.8251  -19.2157  145.4858 C   0  0  0  0  0  0  0  0  0  0  0  0
  -30.2218  -13.1783  147.8988 C   0  0  0  0  0  0  0  0  0  0  0  0
  -30.5501  -14.2428  148.6308 N   0  0  0  0  0  0  0  0  0  0  0  0
  -29.8258  -15.4089  148.4242 C   0  0  0  0  0  0  0  0  0  0  0  0
  1  2  1  0
  2  3  1  0
  3  4  1  0
  4  5  1  0
 10 12  1  0
 12 13  1  0
 13 14  1  0
 14 15  1  0
  1 21  1  0
 21 22  1  0
  4 23  1  0
 22 23  2  0
 23 24  1  0
 22 25  1  0
  1 26  1  0
  5  6  1  0
  8  9  1  0
  9 10  2  0
 10 11  1  0
 11  5  2  0
  6  7  2  0
  7 29  1  0
 29 28  2  0
 28 27  1  0
 27  8  2  0
  8  6  1  0
 15 16  2  0
 16 17  1  0
 17 18  2  0
 18 19  1  0
 19 20  2  0
 20 15  1  0
M  END

$$$$
No_528-/dssg/home/sw_qyf/PocketFlow/Model-Generation-Results/5HT2A_7WC7_rec_A_10.pdb/2024-01-01-03-54-21/
     RDKit          3D

  8  8  0  0  0  0  0  0  0  0999 V2000
  -24.1553  -17.8465  145.7021 C   0  0  0  0  0  0  0  0  0  0  0  0
  -24.2856  -16.6364  145.3494 C   0  0  0  0  0  0  0  0  0  0  0  0
  -25.0033  -15.6772  146.0737 C   0  0  0  0  0  0  0  0  0  0  0  0
  -25.6964  -16.1810  147.2049 C   0  0  0  0  0  0  0  0  0  0  0  0
  -24.8143  -18.3454  146.8324 C   0  0  0  0  0  0  0  0  0  0  0  0
  -25.5292  -17.4614  147.6373 C   0  0  0  0  0  0  0  0  0  0  0  0
  -23.5869  -16.0353  144.1321 C   0  0  0  0  0  0  0  0  0  0  0  0
  -24.0912  -15.0062  143.6287 O   0  0  0  0  0  0  0  0  0  0  0  0
  2  7  1  0
  7  8  1  0
  1  2  2  0
  2  3  1  0
  3  4  2  0
  4  6  1  0
  6  5  2  0
  5  1  1  0
M  END

$$$$
No_529-/dssg/home/sw_qyf/PocketFlow/Model-Generation-Results/5HT2A_7WC7_rec_A_10.pdb/2024-01-01-03-54-21/
     RDKit          3D

 35 38  0  0  0  0  0  0  0  0999 V2000
  -23.1746  -16.6014  144.8668 C   0  0  0  0  0  0  0  0  0  0  0  0
  -23.7011  -17.0158  145.9774 C   0  0  0  0  0  0  0  0  0  0  0  0
  -24.7096  -16.6222  146.3577 C   0  0  0  0  0  0  0  0  0  0  0  0
  -25.2589  -16.9410  147.8027 C   0  0  0  0  0  0  0  0  0  0  0  0
  -24.3234  -17.5558  148.6398 C   0  0  0  0  0  0  0  0  0  0  0  0
  -23.7919  -15.5148  144.2100 C   0  0  0  0  0  0  0  0  0  0  0  0
  -24.8968  -14.8817  144.7775 C   0  0  0  0  0  0  0  0  0  0  0  0
  -25.3730  -15.4146  145.9639 C   0  0  0  0  0  0  0  0  0  0  0  0
  -24.7339  -17.8072  150.0231 C   0  0  0  0  0  0  0  0  0  0  0  0
  -26.0470  -17.6585  150.4415 C   0  0  0  0  0  0  0  0  0  0  0  0
  -26.9569  -17.0189  149.5884 C   0  0  0  0  0  0  0  0  0  0  0  0
  -26.5182  -16.6675  148.2651 C   0  0  0  0  0  0  0  0  0  0  0  0
  -25.5893  -13.7117  144.3137 C   0  0  0  0  0  0  0  0  0  0  0  0
  -26.3524  -13.0173  145.2229 C   0  0  0  0  0  0  0  0  0  0  0  0
  -27.7461  -13.3393  145.4468 C   0  0  0  0  0  0  0  0  0  0  0  0
  -28.5443  -12.5274  146.3543 C   0  0  0  0  0  0  0  0  0  0  0  0
  -28.1831  -11.1530  146.5031 C   0  0  0  0  0  0  0  0  0  0  0  0
  -26.9461  -10.7432  146.0218 C   0  0  0  0  0  0  0  0  0  0  0  0
  -25.9703  -11.5871  145.4068 C   0  0  0  0  0  0  0  0  0  0  0  0
  -29.8567  -12.9777  146.7456 C   0  0  0  0  0  0  0  0  0  0  0  0
  -29.7760  -13.4781  148.0253 O   0  0  0  0  0  0  0  0  0  0  0  0
  -24.8219  -11.2018  145.1217 O   0  0  0  0  0  0  0  0  0  0  0  0
  -30.6610  -11.7006  147.1183 C   0  0  0  0  0  0  0  0  0  0  0  0
  -30.8538  -13.7230  148.7739 C   0  0  0  0  0  0  0  0  0  0  0  0
  -30.9360  -10.9567  146.1407 O   0  0  0  0  0  0  0  0  0  0  0  0
  -31.3375  -11.6259  148.4274 C   0  0  0  0  0  0  0  0  0  0  0  0
  -31.4157  -12.7134  149.0820 C   0  0  0  0  0  0  0  0  0  0  0  0
  -32.3462  -12.6812  150.3349 C   0  0  0  0  0  0  0  0  0  0  0  0
  -33.1096  -11.7683  150.4637 O   0  0  0  0  0  0  0  0  0  0  0  0
  -32.2726  -13.6514  151.2397 N   0  0  0  0  0  0  0  0  0  0  0  0
  -31.4968  -14.7958  151.1858 C   0  0  0  0  0  0  0  0  0  0  0  0
  -31.5981  -15.7247  152.2891 C   0  0  0  0  0  0  0  0  0  0  0  0
  -30.6428  -16.7739  152.3077 C   0  0  0  0  0  0  0  0  0  0  0  0
  -29.9999  -17.1847  151.1053 C   0  0  0  0  0  0  0  0  0  0  0  0
  -30.1327  -16.3608  149.9632 C   0  0  0  0  0  0  0  0  0  0  0  0
  3  4  1  0
  7 13  1  0
 13 14  1  0
 16 20  1  0
 20 21  1  0
 19 22  1  0
 20 23  1  0
 21 24  1  0
 23 25  1  0
 23 26  1  0
 24 27  2  0
 26 27  1  0
 27 28  1  0
 28 29  2  0
 28 30  1  0
 30 31  1  0
 31 32  1  0
 32 33  2  3
 33 34  1  0
 34 35  2  0
 14 15  2  0
 15 16  1  0
 16 17  2  0
 17 18  1  0
 18 19  2  0
 19 14  1  0
  1  2  2  0
  2  3  1  0
  3  8  2  0
  8  7  1  0
  7  6  2  0
  6  1  1  0
  4  5  2  0
  5  9  1  0
  9 10  2  0
 10 11  1  0
 11 12  2  0
 12  4  1  0
M  END

$$$$
No_530-/dssg/home/sw_qyf/PocketFlow/Model-Generation-Results/5HT2A_7WC7_rec_A_10.pdb/2024-01-01-03-54-21/
     RDKit          3D

 35 37  0  0  0  0  0  0  0  0999 V2000
  -23.1746  -16.6014  144.8668 C   0  0  0  0  0  0  0  0  0  0  0  0
  -23.8963  -15.5346  144.7885 C   0  0  0  0  0  0  0  0  0  0  0  0
  -25.0304  -15.2549  144.5358 C   0  0  0  0  0  0  0  0  0  0  0  0
  -26.0482  -16.0541  145.3273 C   0  0  0  0  0  0  0  0  0  0  0  0
  -24.1314  -17.6118  145.6547 C   0  0  0  0  0  0  0  0  0  0  0  0
  -25.4664  -17.2664  145.8096 C   0  0  0  0  0  0  0  0  0  0  0  0
  -25.5852  -13.9177  144.0643 C   0  0  0  0  0  0  0  0  0  0  0  0
  -26.1751  -13.2038  144.6684 O   0  0  0  0  0  0  0  0  0  0  0  0
  -25.6427  -13.9674  142.7050 O   0  0  0  0  0  0  0  0  0  0  0  0
  -23.5929  -18.8789  146.1122 C   0  0  0  0  0  0  0  0  0  0  0  0
  -24.1541  -19.8920  146.0123 O   0  0  0  0  0  0  0  0  0  0  0  0
  -22.4451  -18.8010  146.7736 O   0  0  0  0  0  0  0  0  0  0  0  0
  -27.1286  -12.2394  144.1850 C   0  0  0  0  0  0  0  0  0  0  0  0
  -27.1639  -11.8536  142.9673 C   0  0  0  0  0  0  0  0  0  0  0  0
  -28.0796  -10.9546  142.4474 C   0  0  0  0  0  0  0  0  0  0  0  0
  -28.2808  -10.7761  141.0606 C   0  0  0  0  0  0  0  0  0  0  0  0
  -27.3890  -10.7862  140.3095 C   0  0  0  0  0  0  0  0  0  0  0  0
  -26.7055  -12.0397  139.9601 C   0  0  0  0  0  0  0  0  0  0  0  0
  -26.0392  -12.1113  138.6588 C   0  0  0  0  0  0  0  0  0  0  0  0
  -29.0980  -10.4625  143.4505 C   0  0  0  0  0  0  0  0  0  0  0  0
  -29.9269   -9.4153  143.1941 C   0  0  0  0  0  0  0  0  0  0  0  0
  -30.9754   -9.1395  144.1488 C   0  0  0  0  0  0  0  0  0  0  0  0
  -31.8515   -8.1778  143.7612 N   0  0  0  0  0  0  0  0  0  0  0  0
  -28.7892  -10.8799  144.8641 C   0  0  0  0  0  0  0  0  0  0  0  0
  -27.8723  -11.7262  145.2353 C   0  0  0  0  0  0  0  0  0  0  0  0
  -27.7010  -12.1341  146.6077 C   0  0  0  0  0  0  0  0  0  0  0  0
  -29.9433   -8.6743  142.1057 N   0  0  0  0  0  0  0  0  0  0  0  0
  -30.7587   -7.6564  141.8049 C   0  0  0  0  0  0  0  0  0  0  0  0
  -31.7095   -7.4097  142.7124 C   0  0  0  0  0  0  0  0  0  0  0  0
  -26.8451   -9.6539  139.5860 C   0  0  0  0  0  0  0  0  0  0  0  0
  -26.6363  -12.3828  147.0813 O   0  0  0  0  0  0  0  0  0  0  0  0
  -28.8021  -12.0959  147.4350 N   0  0  0  0  0  0  0  0  0  0  0  0
  -29.8791  -13.0238  147.5038 C   0  0  0  0  0  0  0  0  0  0  0  0
  -29.8205  -13.9774  148.5229 C   0  0  0  0  0  0  0  0  0  0  0  0
  -29.3609  -15.2734  148.3636 C   0  0  0  0  0  0  0  0  0  0  0  0
  3  7  1  0
  7  8  1  0
  7  9  2  0
  5 10  1  0
 10 11  1  0
 10 12  2  0
  8 13  1  0
 15 16  1  0
 16 17  1  0
 17 18  1  0
 18 19  1  0
 20 21  1  0
 25 26  1  0
 17 30  1  0
 26 31  2  0
 26 32  1  0
 32 33  1  0
 33 34  1  0
 34 35  2  0
 21 22  2  0
 22 23  1  0
 23 29  2  0
 29 28  1  0
 28 27  2  0
 27 21  1  0
 13 14  2  0
 14 15  1  0
 15 20  2  0
 20 24  1  0
 24 25  2  0
 25 13  1  0
  1  2  2  0
  2  3  1  0
  3  4  2  0
  4  6  1  0
  6  5  2  0
  5  1  1  0
M  END

$$$$
No_531-/dssg/home/sw_qyf/PocketFlow/Model-Generation-Results/5HT2A_7WC7_rec_A_10.pdb/2024-01-01-03-54-21/
     RDKit          3D

 35 38  0  0  0  0  0  0  0  0999 V2000
  -23.1746  -16.6014  144.8668 C   0  0  0  0  0  0  0  0  0  0  0  0
  -23.8963  -15.5346  144.7885 C   0  0  0  0  0  0  0  0  0  0  0  0
  -24.5755  -15.0383  145.9043 C   0  0  0  0  0  0  0  0  0  0  0  0
  -25.6726  -15.0536  146.1073 C   0  0  0  0  0  0  0  0  0  0  0  0
  -23.3810  -17.3233  146.1036 C   0  0  0  0  0  0  0  0  0  0  0  0
  -26.3753  -15.6956  146.8266 C   0  0  0  0  0  0  0  0  0  0  0  0
  -27.7016  -15.7690  146.8818 C   0  0  0  0  0  0  0  0  0  0  0  0
  -28.3160  -14.6789  146.2747 C   0  0  0  0  0  0  0  0  0  0  0  0
  -29.7178  -14.4232  146.4329 C   0  0  0  0  0  0  0  0  0  0  0  0
  -26.5631  -14.0074  145.4042 C   0  0  0  0  0  0  0  0  0  0  0  0
  -25.9082  -13.0341  144.6543 N   0  0  0  0  0  0  0  0  0  0  0  0
  -27.8976  -13.8326  145.5836 C   0  0  0  0  0  0  0  0  0  0  0  0
  -23.0323  -18.6919  146.2322 C   0  0  0  0  0  0  0  0  0  0  0  0
  -30.0593  -13.4151  147.6039 C   0  0  0  0  0  0  0  0  0  0  0  0
  -29.7226  -12.0589  147.3022 C   0  0  0  0  0  0  0  0  0  0  0  0
  -30.6792  -11.1177  147.1993 O   0  0  0  0  0  0  0  0  0  0  0  0
  -28.4655  -11.7363  147.0798 O   0  0  0  0  0  0  0  0  0  0  0  0
  -24.1267  -19.3107  146.0706 O   0  0  0  0  0  0  0  0  0  0  0  0
  -26.3529  -12.8430  143.3687 C   0  0  0  0  0  0  0  0  0  0  0  0
  -27.4577  -11.9089  143.2016 C   0  0  0  0  0  0  0  0  0  0  0  0
  -27.9380  -11.6474  141.9045 C   0  0  0  0  0  0  0  0  0  0  0  0
  -27.8484  -10.4148  141.5064 C   0  0  0  0  0  0  0  0  0  0  0  0
  -28.0040  -10.0485  140.1166 C   0  0  0  0  0  0  0  0  0  0  0  0
  -27.4120  -10.8335  139.1249 C   0  0  0  0  0  0  0  0  0  0  0  0
  -27.6107  -12.2340  139.4027 C   0  0  0  0  0  0  0  0  0  0  0  0
  -27.4032  -12.5997  140.8624 C   0  0  0  0  0  0  0  0  0  0  0  0
  -28.3831   -8.6803  139.6739 C   0  0  0  0  0  0  0  0  0  0  0  0
  -29.5093   -8.4603  139.1150 C   0  0  0  0  0  0  0  0  0  0  0  0
  -29.9740   -7.2993  139.3740 C   0  0  0  0  0  0  0  0  0  0  0  0
  -29.5480   -6.7867  140.6416 C   0  0  0  0  0  0  0  0  0  0  0  0
  -28.6087   -7.8043  141.1745 C   0  0  0  0  0  0  0  0  0  0  0  0
  -27.1836  -13.8698  141.1406 O   0  0  0  0  0  0  0  0  0  0  0  0
  -26.4006  -13.8733  142.4206 C   0  0  0  0  0  0  0  0  0  0  0  0
  -24.8281  -12.1894  145.1146 C   0  0  0  0  0  0  0  0  0  0  0  0
  -25.0627  -11.1421  145.9937 C   0  0  0  0  0  0  0  0  0  0  0  0
  1  2  1  0
  2  3  1  0
  1  5  1  0
  8  9  1  0
 10 11  1  0
  5 13  1  0
  9 14  1  0
 14 15  1  0
 15 16  1  0
 15 17  2  0
 13 18  1  0
 11 19  1  0
 19 20  1  0
 20 21  1  0
 23 27  1  0
 27 28  1  0
 28 29  2  0
 29 30  1  0
 27 31  1  0
 30 31  1  0
 26 32  1  0
 19 33  1  0
 32 33  1  0
 11 34  1  0
 34 35  2  0
  3  4  1  0
  4  6  2  0
  6  7  1  0
  7  8  2  0
  8 12  1  0
 12 10  2  0
 10  4  1  0
 21 22  2  0
 22 23  1  0
 23 24  2  0
 24 25  1  0
 25 26  2  0
 26 21  1  0
M  END

$$$$
No_532-/dssg/home/sw_qyf/PocketFlow/Model-Generation-Results/5HT2A_7WC7_rec_A_10.pdb/2024-01-01-03-54-21/
     RDKit          3D

 17 18  0  0  0  0  0  0  0  0999 V2000
  -24.1553  -17.8465  145.7021 C   0  0  0  0  0  0  0  0  0  0  0  0
  -23.9795  -18.4462  146.7426 C   0  0  0  0  0  0  0  0  0  0  0  0
  -25.1593  -16.8262  145.6925 C   0  0  0  0  0  0  0  0  0  0  0  0
  -24.9465  -15.5961  144.9952 C   0  0  0  0  0  0  0  0  0  0  0  0
  -25.8339  -14.4742  145.0599 C   0  0  0  0  0  0  0  0  0  0  0  0
  -27.0182  -14.6297  145.8322 C   0  0  0  0  0  0  0  0  0  0  0  0
  -27.9676  -13.5626  145.8660 C   0  0  0  0  0  0  0  0  0  0  0  0
  -27.6751  -12.3728  145.1069 C   0  0  0  0  0  0  0  0  0  0  0  0
  -26.4653  -12.2934  144.4044 C   0  0  0  0  0  0  0  0  0  0  0  0
  -25.5953  -13.3321  144.3309 C   0  0  0  0  0  0  0  0  0  0  0  0
  -23.6481  -17.7938  147.8451 C   0  0  0  0  0  0  0  0  0  0  0  0
  -24.6452  -16.8030  148.4013 C   0  0  0  0  0  0  0  0  0  0  0  0
  -25.2426  -16.0717  147.2226 C   0  0  0  0  0  0  0  0  0  0  0  0
  -29.1538  -13.6404  146.7481 C   0  0  0  0  0  0  0  0  0  0  0  0
  -28.8522  -13.5711  147.8563 F   0  0  0  0  0  0  0  0  0  0  0  0
  -29.8668  -12.4845  146.3638 F   0  0  0  0  0  0  0  0  0  0  0  0
  -29.8792  -14.6907  146.3119 F   0  0  0  0  0  0  0  0  0  0  0  0
  1  2  1  0
  1  3  1  0
  3  4  2  3
  4  5  1  0
  2 11  1  0
 11 12  1  0
  3 13  1  0
 12 13  1  0
  7 14  1  0
 14 15  1  0
 14 16  1  0
 14 17  1  0
  5  6  2  0
  6  7  1  0
  7  8  2  0
  8  9  1  0
  9 10  2  0
 10  5  1  0
M  END

$$$$
No_533-/dssg/home/sw_qyf/PocketFlow/Model-Generation-Results/5HT2A_7WC7_rec_A_10.pdb/2024-01-01-03-54-21/
     RDKit          3D

 25 28  0  0  0  0  0  0  0  0999 V2000
  -24.1553  -17.8465  145.7021 C   0  0  0  0  0  0  0  0  0  0  0  0
  -24.2856  -16.6364  145.3494 C   0  0  0  0  0  0  0  0  0  0  0  0
  -25.0033  -15.6772  146.0737 C   0  0  0  0  0  0  0  0  0  0  0  0
  -25.6964  -16.1810  147.2049 C   0  0  0  0  0  0  0  0  0  0  0  0
  -24.8143  -18.3454  146.8324 C   0  0  0  0  0  0  0  0  0  0  0  0
  -25.5291  -17.4614  147.6373 C   0  0  0  0  0  0  0  0  0  0  0  0
  -23.4900  -15.9703  143.9272 Cl  0  0  0  0  0  0  0  0  0  0  0  0
  -25.2273  -14.2243  145.9101 C   0  0  0  0  0  0  0  0  0  0  0  0
  -24.1462  -13.3753  146.1397 C   0  0  0  0  0  0  0  0  0  0  0  0
  -24.2653  -11.9506  145.9144 C   0  0  0  0  0  0  0  0  0  0  0  0
  -25.5133  -11.4377  145.4901 C   0  0  0  0  0  0  0  0  0  0  0  0
  -26.6197  -12.3106  145.4663 C   0  0  0  0  0  0  0  0  0  0  0  0
  -26.4652  -13.7009  145.6676 C   0  0  0  0  0  0  0  0  0  0  0  0
  -28.0425  -11.9047  145.2918 C   0  0  0  0  0  0  0  0  0  0  0  0
  -28.3888  -11.0824  144.2198 C   0  0  0  0  0  0  0  0  0  0  0  0
  -27.6840  -10.8503  143.0609 C   0  0  0  0  0  0  0  0  0  0  0  0
  -28.2337  -10.0272  142.0583 C   0  0  0  0  0  0  0  0  0  0  0  0
  -27.9015  -10.1038  140.7183 C   0  0  0  0  0  0  0  0  0  0  0  0
  -28.2848   -9.1249  139.7705 C   0  0  0  0  0  0  0  0  0  0  0  0
  -29.1581   -8.0977  140.1903 C   0  0  0  0  0  0  0  0  0  0  0  0
  -29.5996   -8.0937  141.5344 C   0  0  0  0  0  0  0  0  0  0  0  0
  -29.1126   -9.0092  142.4578 C   0  0  0  0  0  0  0  0  0  0  0  0
  -29.7580  -10.3649  144.2720 C   0  0  0  0  0  0  0  0  0  0  0  0
  -30.0472   -9.2917  143.5183 C   0  0  0  0  0  0  0  0  0  0  0  0
  -31.1553   -8.6131  143.8741 N   0  0  0  0  0  0  0  0  0  0  0  0
  2  7  1  0
  3  8  1  0
 12 14  1  0
 14 15  2  3
 15 16  1  0
 16 17  1  0
 15 23  1  0
 22 24  1  0
 23 24  1  0
 24 25  1  0
 17 18  2  0
 18 19  1  0
 19 20  2  0
 20 21  1  0
 21 22  2  0
 22 17  1  0
  1  2  2  0
  2  3  1  0
  3  4  2  0
  4  6  1  0
  6  5  2  0
  5  1  1  0
  8  9  2  0
  9 10  1  0
 10 11  2  0
 11 12  1  0
 12 13  2  0
 13  8  1  0
M  END

$$$$
No_534-/dssg/home/sw_qyf/PocketFlow/Model-Generation-Results/5HT2A_7WC7_rec_A_10.pdb/2024-01-01-03-54-21/
     RDKit          3D

 35 39  0  0  0  0  0  0  0  0999 V2000
  -23.1746  -16.6014  144.8668 C   0  0  0  0  0  0  0  0  0  0  0  0
  -23.7011  -17.0158  145.9774 C   0  0  0  0  0  0  0  0  0  0  0  0
  -23.7336  -18.2775  146.3737 C   0  0  0  0  0  0  0  0  0  0  0  0
  -24.1960  -18.6445  147.6858 C   0  0  0  0  0  0  0  0  0  0  0  0
  -24.7100  -17.6145  148.5486 C   0  0  0  0  0  0  0  0  0  0  0  0
  -24.7929  -16.2635  148.0870 C   0  0  0  0  0  0  0  0  0  0  0  0
  -24.2508  -15.9434  146.8891 C   0  0  0  0  0  0  0  0  0  0  0  0
  -23.3214  -15.3402  144.3653 N   0  0  0  0  0  0  0  0  0  0  0  0
  -24.0104  -14.2873  144.9515 C   0  0  0  0  0  0  0  0  0  0  0  0
  -24.4201  -14.5422  146.3528 C   0  0  0  0  0  0  0  0  0  0  0  0
  -24.1417  -13.1227  144.4375 N   0  0  0  0  0  0  0  0  0  0  0  0
  -23.2658  -19.2425  145.6862 O   0  0  0  0  0  0  0  0  0  0  0  0
  -25.1362  -17.9849  149.7711 O   0  0  0  0  0  0  0  0  0  0  0  0
  -24.5647  -17.2924  150.8093 C   0  0  0  0  0  0  0  0  0  0  0  0
  -23.9526  -12.0116  145.3822 C   0  0  0  0  0  0  0  0  0  0  0  0
  -25.0420  -12.0125  146.3829 C   0  0  0  0  0  0  0  0  0  0  0  0
  -25.0502  -13.4116  147.0556 C   0  0  0  0  0  0  0  0  0  0  0  0
  -26.4132  -11.6756  145.9128 C   0  0  0  0  0  0  0  0  0  0  0  0
  -27.4642  -12.3768  146.3961 C   0  0  0  0  0  0  0  0  0  0  0  0
  -28.7974  -11.8076  146.1460 C   0  0  0  0  0  0  0  0  0  0  0  0
  -29.0690  -10.7845  145.2708 C   0  0  0  0  0  0  0  0  0  0  0  0
  -27.9077  -10.2362  144.6294 C   0  0  0  0  0  0  0  0  0  0  0  0
  -26.5935  -10.5670  145.0244 C   0  0  0  0  0  0  0  0  0  0  0  0
  -30.0094  -12.4884  146.8362 C   0  0  0  0  0  0  0  0  0  0  0  0
  -29.6618  -13.6633  147.6008 C   0  0  0  0  0  0  0  0  0  0  0  0
  -30.1099  -13.6781  148.9855 C   0  0  0  0  0  0  0  0  0  0  0  0
  -29.5274  -14.9444  147.0503 C   0  0  0  0  0  0  0  0  0  0  0  0
  -30.2319  -14.8556  149.7023 C   0  0  0  0  0  0  0  0  0  0  0  0
  -29.3317  -16.0540  147.8172 C   0  0  0  0  0  0  0  0  0  0  0  0
  -29.7605  -16.0274  149.1826 C   0  0  0  0  0  0  0  0  0  0  0  0
  -30.1998  -10.3263  144.9795 O   0  0  0  0  0  0  0  0  0  0  0  0
  -28.0751   -9.0647  143.7327 C   0  0  0  0  0  0  0  0  0  0  0  0
  -28.1689   -9.3934  142.4016 C   0  0  0  0  0  0  0  0  0  0  0  0
  -29.0546   -8.7118  141.5048 C   0  0  0  0  0  0  0  0  0  0  0  0
  -30.2104   -8.0799  141.9359 C   0  0  0  0  0  0  0  0  0  0  0  0
  9 11  1  0
  3 12  1  0
  5 13  1  0
 13 14  1  0
 11 15  1  0
 15 16  1  0
 10 17  1  0
 16 17  1  0
 16 18  1  0
 20 24  1  0
 24 25  1  0
 21 31  1  0
 22 32  1  0
 32 33  1  0
 33 34  1  0
 34 35  1  0
 18 19  2  0
 19 20  1  0
 20 21  2  0
 21 22  1  0
 22 23  2  0
 23 18  1  0
 25 26  2  0
 26 28  1  0
 28 30  2  0
 30 29  1  0
 29 27  2  0
 27 25  1  0
  1  2  2  0
  7 10  2  0
 10  9  1  0
  9  8  2  0
  8  1  1  0
  2  3  1  0
  3  4  2  0
  4  5  1  0
  5  6  2  0
  6  7  1  0
  7  2  1  0
M  END

$$$$
No_535-/dssg/home/sw_qyf/PocketFlow/Model-Generation-Results/5HT2A_7WC7_rec_A_10.pdb/2024-01-01-03-54-21/
     RDKit          3D

 34 37  0  0  0  0  0  0  0  0999 V2000
  -23.1746  -16.6014  144.8668 C   0  0  0  0  0  0  0  0  0  0  0  0
  -23.8963  -15.5346  144.7885 C   0  0  0  0  0  0  0  0  0  0  0  0
  -23.6398  -14.5115  145.3281 C   0  0  0  0  0  0  0  0  0  0  0  0
  -24.3240  -13.3648  145.1281 C   0  0  0  0  0  0  0  0  0  0  0  0
  -23.8303  -12.0965  145.7921 C   0  0  0  0  0  0  0  0  0  0  0  0
  -23.1900  -17.5625  145.9016 C   0  0  0  0  0  0  0  0  0  0  0  0
  -23.7787  -17.0738  147.1055 C   0  0  0  0  0  0  0  0  0  0  0  0
  -23.4786  -17.7654  148.3696 C   0  0  0  0  0  0  0  0  0  0  0  0
  -24.2860  -17.2543  149.5590 C   0  0  0  0  0  0  0  0  0  0  0  0
  -23.8810  -17.4893  150.8545 C   0  0  0  0  0  0  0  0  0  0  0  0
  -25.6040  -16.9131  149.2382 C   0  0  0  0  0  0  0  0  0  0  0  0
  -25.9636  -16.2437  148.0305 C   0  0  0  0  0  0  0  0  0  0  0  0
  -27.1984  -15.6609  147.7888 C   0  0  0  0  0  0  0  0  0  0  0  0
  -25.0800  -16.4452  146.9056 C   0  0  0  0  0  0  0  0  0  0  0  0
  -28.3861  -15.9805  148.3215 C   0  0  0  0  0  0  0  0  0  0  0  0
  -29.4990  -15.2179  147.9386 C   0  0  0  0  0  0  0  0  0  0  0  0
  -29.3972  -14.0936  147.0828 C   0  0  0  0  0  0  0  0  0  0  0  0
  -28.1998  -13.7664  146.5453 C   0  0  0  0  0  0  0  0  0  0  0  0
  -27.0782  -14.5103  146.8701 C   0  0  0  0  0  0  0  0  0  0  0  0
  -28.0246  -12.6172  145.6484 C   0  0  0  0  0  0  0  0  0  0  0  0
  -27.6189  -12.7008  144.3582 C   0  0  0  0  0  0  0  0  0  0  0  0
  -27.6064  -11.6445  143.4164 C   0  0  0  0  0  0  0  0  0  0  0  0
  -27.5594  -11.8907  142.0525 C   0  0  0  0  0  0  0  0  0  0  0  0
  -28.0690  -11.0033  141.1479 C   0  0  0  0  0  0  0  0  0  0  0  0
  -28.6538   -9.7728  141.5342 C   0  0  0  0  0  0  0  0  0  0  0  0
  -29.2509   -8.8789  140.6536 C   0  0  0  0  0  0  0  0  0  0  0  0
  -30.0105   -7.7990  141.1693 C   0  0  0  0  0  0  0  0  0  0  0  0
  -30.0153   -7.5571  142.5888 C   0  0  0  0  0  0  0  0  0  0  0  0
  -29.4372   -8.4646  143.4234 C   0  0  0  0  0  0  0  0  0  0  0  0
  -28.7331   -9.5825  142.9802 C   0  0  0  0  0  0  0  0  0  0  0  0
  -28.3091  -10.4666  143.9095 C   0  0  0  0  0  0  0  0  0  0  0  0
  -27.8815  -11.3021  139.7298 C   0  0  0  0  0  0  0  0  0  0  0  0
  -27.1934  -12.3669  139.2912 C   0  0  0  0  0  0  0  0  0  0  0  0
  -27.0094  -12.4071  137.9291 N   0  0  0  0  0  0  0  0  0  0  0  0
  1  2  1  0
  2  3  2  3
  3  4  1  0
  4  5  2  0
  1  6  1  0
  6  7  1  0
  7  8  1  0
  8  9  1  0
  9 10  1  0
  9 11  1  0
 11 12  1  0
 12 13  1  0
  7 14  1  0
 12 14  1  0
 18 20  1  0
 20 21  2  3
 21 22  1  0
 22 23  1  0
 23 24  1  0
 24 25  1  0
 22 31  1  0
 30 31  1  0
 24 32  1  0
 32 33  2  3
 33 34  1  0
 13 15  2  0
 15 16  1  0
 16 17  2  0
 17 18  1  0
 18 19  2  0
 19 13  1  0
 25 26  2  0
 26 27  1  0
 27 28  2  0
 28 29  1  0
 29 30  2  0
 30 25  1  0
M  END

$$$$
No_536-/dssg/home/sw_qyf/PocketFlow/Model-Generation-Results/5HT2A_7WC7_rec_A_10.pdb/2024-01-01-03-54-21/
     RDKit          3D

 35 38  0  0  0  0  0  0  0  0999 V2000
  -24.1553  -17.8465  145.7021 C   0  0  0  0  0  0  0  0  0  0  0  0
  -23.9795  -18.4462  146.7426 C   0  0  0  0  0  0  0  0  0  0  0  0
  -23.2486  -17.2339  144.9771 C   0  0  0  0  0  0  0  0  0  0  0  0
  -24.9812  -19.0362  147.5824 C   0  0  0  0  0  0  0  0  0  0  0  0
  -23.7180  -16.2391  144.0023 C   0  0  0  0  0  0  0  0  0  0  0  0
  -24.1691  -14.9522  144.6878 C   0  0  0  0  0  0  0  0  0  0  0  0
  -24.1546  -13.8262  144.0736 C   0  0  0  0  0  0  0  0  0  0  0  0
  -23.8373  -12.7161  145.1049 C   0  0  0  0  0  0  0  0  0  0  0  0
  -23.0042  -11.7233  144.7753 C   0  0  0  0  0  0  0  0  0  0  0  0
  -24.6288  -14.8587  146.0913 C   0  0  0  0  0  0  0  0  0  0  0  0
  -24.4562  -13.5045  146.4467 C   0  0  0  0  0  0  0  0  0  0  0  0
  -26.2073  -18.4008  147.0672 C   0  0  0  0  0  0  0  0  0  0  0  0
  -26.1032  -17.4134  146.2337 C   0  0  0  0  0  0  0  0  0  0  0  0
  -25.4886  -17.3437  145.5696 C   0  0  0  0  0  0  0  0  0  0  0  0
  -27.5078  -16.6836  146.1059 C   0  0  0  0  0  0  0  0  0  0  0  0
  -27.8317  -15.6899  147.1782 C   0  0  0  0  0  0  0  0  0  0  0  0
  -28.8929  -14.7621  147.1037 C   0  0  0  0  0  0  0  0  0  0  0  0
  -28.7333  -13.5791  146.5430 C   0  0  0  0  0  0  0  0  0  0  0  0
  -29.7216  -12.4887  146.6998 C   0  0  0  0  0  0  0  0  0  0  0  0
  -29.5162  -11.1918  146.0976 C   0  0  0  0  0  0  0  0  0  0  0  0
  -28.5237  -10.9671  145.1206 C   0  0  0  0  0  0  0  0  0  0  0  0
  -28.3361   -9.8056  144.3683 C   0  0  0  0  0  0  0  0  0  0  0  0
  -27.5234  -12.0635  144.8977 C   0  0  0  0  0  0  0  0  0  0  0  0
  -27.6295  -13.3177  145.5944 C   0  0  0  0  0  0  0  0  0  0  0  0
  -28.8289   -9.7706  143.0162 C   0  0  0  0  0  0  0  0  0  0  0  0
  -28.5553  -10.7513  142.1814 C   0  0  0  0  0  0  0  0  0  0  0  0
  -28.9031  -10.6786  140.7988 C   0  0  0  0  0  0  0  0  0  0  0  0
  -28.2760  -11.5928  139.9417 C   0  0  0  0  0  0  0  0  0  0  0  0
  -27.3603  -12.5694  140.4806 C   0  0  0  0  0  0  0  0  0  0  0  0
  -27.2448  -12.7475  141.8475 C   0  0  0  0  0  0  0  0  0  0  0  0
  -26.4522  -13.7638  142.3652 C   0  0  0  0  0  0  0  0  0  0  0  0
  -27.6696  -11.7913  142.6074 C   0  0  0  0  0  0  0  0  0  0  0  0
  -29.6981   -8.6704  142.6313 C   0  0  0  0  0  0  0  0  0  0  0  0
  -29.3216   -7.7426  141.7698 C   0  0  0  0  0  0  0  0  0  0  0  0
  -30.9099   -8.4827  143.3888 C   0  0  0  0  0  0  0  0  0  0  0  0
  3  5  1  0
  5  6  1  0
  6  7  1  0
  7  8  1  0
  8  9  2  0
  6 10  1  0
  8 11  1  0
 10 11  1  0
 13 15  1  0
 15 16  1  0
 16 17  1  0
 21 22  1  0
 22 25  1  0
 30 31  1  0
 25 33  1  0
 33 34  2  0
 33 35  1  0
 25 26  1  0
  3  1  1  0
 17 18  1  0
 26 27  2  0
 27 28  1  0
 28 29  2  0
 29 30  1  0
 30 32  2  0
 32 26  1  0
  1  2  2  0
  2  4  1  0
  4 12  2  0
 12 13  1  0
 13 14  2  0
 14  1  1  0
 18 19  2  0
 19 20  1  0
 20 21  2  0
 21 23  1  0
 23 24  2  0
 24 18  1  0
M  END

$$$$
No_537-/dssg/home/sw_qyf/PocketFlow/Model-Generation-Results/5HT2A_7WC7_rec_A_10.pdb/2024-01-01-03-54-21/
     RDKit          3D

 26 28  0  0  0  0  0  0  0  0999 V2000
  -24.1553  -17.8465  145.7021 C   0  0  0  0  0  0  0  0  0  0  0  0
  -23.9795  -18.4462  146.7426 C   0  0  0  0  0  0  0  0  0  0  0  0
  -25.1196  -16.8106  145.6408 C   0  0  0  0  0  0  0  0  0  0  0  0
  -25.9237  -16.5070  146.7422 C   0  0  0  0  0  0  0  0  0  0  0  0
  -25.6627  -17.1841  147.9274 C   0  0  0  0  0  0  0  0  0  0  0  0
  -24.6813  -18.1540  148.0079 C   0  0  0  0  0  0  0  0  0  0  0  0
  -26.9780  -15.4746  146.6756 C   0  0  0  0  0  0  0  0  0  0  0  0
  -26.9254  -14.3820  146.6158 C   0  0  0  0  0  0  0  0  0  0  0  0
  -28.0510  -13.4095  146.5825 C   0  0  0  0  0  0  0  0  0  0  0  0
  -29.3031  -13.8580  147.0132 C   0  0  0  0  0  0  0  0  0  0  0  0
  -30.4716  -13.0508  147.0233 C   0  0  0  0  0  0  0  0  0  0  0  0
  -30.2148  -11.6874  146.7377 C   0  0  0  0  0  0  0  0  0  0  0  0
  -29.1149  -11.3404  145.9444 C   0  0  0  0  0  0  0  0  0  0  0  0
  -27.9514  -12.1195  146.0822 C   0  0  0  0  0  0  0  0  0  0  0  0
  -28.3146  -16.2556  146.7293 C   0  0  0  0  0  0  0  0  0  0  0  0
  -29.5237  -15.3554  147.1704 C   0  0  0  0  0  0  0  0  0  0  0  0
  -26.6380  -11.5568  145.6631 C   0  0  0  0  0  0  0  0  0  0  0  0
  -26.7159  -10.3603  145.4695 F   0  0  0  0  0  0  0  0  0  0  0  0
  -25.7367  -11.7338  146.7758 F   0  0  0  0  0  0  0  0  0  0  0  0
  -26.1541  -12.1778  144.6499 F   0  0  0  0  0  0  0  0  0  0  0  0
  -25.1861  -15.9915  144.5026 N   0  0  0  0  0  0  0  0  0  0  0  0
  -26.3436  -16.8585  149.0946 O   0  0  0  0  0  0  0  0  0  0  0  0
  -25.4099  -14.6563  144.4617 C   0  0  0  0  0  0  0  0  0  0  0  0
  -25.1167  -14.0544  143.1949 C   0  0  0  0  0  0  0  0  0  0  0  0
  -23.9714  -14.2825  142.7902 O   0  0  0  0  0  0  0  0  0  0  0  0
  -23.4420  -18.0613  144.6102 O   0  0  0  0  0  0  0  0  0  0  0  0
  4  7  1  0
 14 17  1  0
 17 18  1  0
 17 19  1  0
 17 20  1  0
  3 21  1  0
  5 22  1  0
 21 23  1  0
 23 24  2  0
 24 25  2  0
  1 26  1  0
  1  2  2  0
  2  6  1  0
  6  5  2  0
  5  4  1  0
  4  3  2  0
  3  1  1  0
  7  8  2  0
  8  9  1  0
 10 16  1  0
 16 15  2  0
 15  7  1  0
  9 10  2  0
 10 11  1  0
 11 12  2  0
 12 13  1  0
 13 14  2  0
 14  9  1  0
M  END

$$$$
No_538-/dssg/home/sw_qyf/PocketFlow/Model-Generation-Results/5HT2A_7WC7_rec_A_10.pdb/2024-01-01-03-54-21/
     RDKit          3D

 18 19  0  0  0  0  0  0  0  0999 V2000
  -23.1746  -16.6014  144.8668 C   0  0  0  0  0  0  0  0  0  0  0  0
  -24.0189  -16.0564  145.8445 C   0  0  0  0  0  0  0  0  0  0  0  0
  -24.4850  -14.7380  145.6359 C   0  0  0  0  0  0  0  0  0  0  0  0
  -24.0244  -13.9858  144.5634 C   0  0  0  0  0  0  0  0  0  0  0  0
  -24.3992  -12.5948  144.5045 C   0  0  0  0  0  0  0  0  0  0  0  0
  -25.2654  -12.2035  145.4469 C   0  0  0  0  0  0  0  0  0  0  0  0
  -25.8341  -12.8627  146.4618 C   0  0  0  0  0  0  0  0  0  0  0  0
  -25.3981  -14.2193  146.6163 C   0  0  0  0  0  0  0  0  0  0  0  0
  -24.3983  -16.8198  146.9736 C   0  0  0  0  0  0  0  0  0  0  0  0
  -23.9309  -18.0976  147.1603 C   0  0  0  0  0  0  0  0  0  0  0  0
  -23.2034  -18.6945  146.1090 C   0  0  0  0  0  0  0  0  0  0  0  0
  -22.9631  -15.9903  143.8461 F   0  0  0  0  0  0  0  0  0  0  0  0
  -22.8999  -19.8940  146.2789 F   0  0  0  0  0  0  0  0  0  0  0  0
  -22.9458  -17.9188  144.9928 C   0  0  0  0  0  0  0  0  0  0  0  0
  -25.6211  -10.8292  145.3824 F   0  0  0  0  0  0  0  0  0  0  0  0
  -25.2421  -16.0869  148.3929 Cl  0  0  0  0  0  0  0  0  0  0  0  0
  -24.2624  -18.7326  148.2849 O   0  0  0  0  0  0  0  0  0  0  0  0
  -24.7211  -17.9106  149.4841 C   0  0  0  0  0  0  0  0  0  0  0  0
  1 12  1  0
 11 13  1  0
  6 15  1  0
  9 16  1  0
 10 17  1  0
 17 18  1  0
  2  3  1  0
  1  2  2  0
  2  9  1  0
  9 10  2  0
 10 11  1  0
 11 14  2  0
 14  1  1  0
  3  4  2  0
  4  5  1  0
  5  6  2  0
  6  7  1  0
  7  8  2  0
  8  3  1  0
M  END

$$$$
No_539-/dssg/home/sw_qyf/PocketFlow/Model-Generation-Results/5HT2A_7WC7_rec_A_10.pdb/2024-01-01-03-54-21/
     RDKit          3D

 17 17  0  0  0  0  0  0  0  0999 V2000
  -23.1746  -16.6014  144.8668 C   0  0  0  0  0  0  0  0  0  0  0  0
  -23.8963  -15.5346  144.7885 C   0  0  0  0  0  0  0  0  0  0  0  0
  -25.0304  -15.2549  144.5358 C   0  0  0  0  0  0  0  0  0  0  0  0
  -25.6045  -13.9524  144.2294 C   0  0  0  0  0  0  0  0  0  0  0  0
  -26.9716  -13.7632  143.8495 C   0  0  0  0  0  0  0  0  0  0  0  0
  -27.2940  -12.4851  143.3751 C   0  0  0  0  0  0  0  0  0  0  0  0
  -27.3637  -11.4485  144.2830 C   0  0  0  0  0  0  0  0  0  0  0  0
  -26.0601  -11.1118  144.8312 C   0  0  0  0  0  0  0  0  0  0  0  0
  -25.1103  -12.0610  145.4932 C   0  0  0  0  0  0  0  0  0  0  0  0
  -25.1624  -13.1244  145.3329 C   0  0  0  0  0  0  0  0  0  0  0  0
  -28.5336  -10.7126  144.6294 C   0  0  0  0  0  0  0  0  0  0  0  0
  -28.9418   -9.6547  143.8340 C   0  0  0  0  0  0  0  0  0  0  0  0
  -28.2786   -9.0601  142.8265 C   0  0  0  0  0  0  0  0  0  0  0  0
  -29.2144  -11.1819  145.8010 C   0  0  0  0  0  0  0  0  0  0  0  0
  -28.9110  -12.1766  146.5991 N   0  0  0  0  0  0  0  0  0  0  0  0
  -29.6466  -12.4960  147.7139 C   0  0  0  0  0  0  0  0  0  0  0  0
  -30.6117  -13.4594  147.6325 C   0  0  0  0  0  0  0  0  0  0  0  0
  1  2  1  0
  2  3  2  3
  3  4  1  0
  4  5  1  0
  5  6  1  0
  6  7  1  0
  7  8  1  0
  8  9  1  0
  4 10  1  0
  9 10  1  0
  7 11  1  0
 11 12  2  3
 12 13  1  0
 11 14  1  0
 14 15  2  3
 15 16  1  0
 16 17  1  0
M  END

$$$$
No_540-/dssg/home/sw_qyf/PocketFlow/Model-Generation-Results/5HT2A_7WC7_rec_A_10.pdb/2024-01-01-03-54-21/
     RDKit          3D

  6  5  0  0  0  0  0  0  0  0999 V2000
  -24.1553  -17.8465  145.7021 C   0  0  0  0  0  0  0  0  0  0  0  0
  -24.6364  -17.2931  146.7091 C   0  0  0  0  0  0  0  0  0  0  0  0
  -24.0780  -17.2921  147.9389 C   0  0  0  0  0  0  0  0  0  0  0  0
  -24.6823  -16.7869  149.1595 C   0  0  0  0  0  0  0  0  0  0  0  0
  -26.0407  -16.3649  149.0524 C   0  0  0  0  0  0  0  0  0  0  0  0
  -26.7002  -16.4358  147.8441 C   0  0  0  0  0  0  0  0  0  0  0  0
  1  2  1  0
  2  3  3  0
  3  4  1  0
  4  5  2  3
  5  6  1  0
M  END

$$$$
No_541-/dssg/home/sw_qyf/PocketFlow/Model-Generation-Results/5HT2A_7WC7_rec_A_10.pdb/2024-01-01-03-54-21/
     RDKit          3D

 13 14  0  0  0  0  0  0  0  0999 V2000
  -23.8931  -18.2534  145.3804 F   0  0  0  0  0  0  0  0  0  0  0  0
  -24.1483  -17.4442  146.3400 C   0  0  0  0  0  0  0  0  0  0  0  0
  -24.1779  -17.7762  147.6608 C   0  0  0  0  0  0  0  0  0  0  0  0
  -24.6176  -16.1337  145.9048 C   0  0  0  0  0  0  0  0  0  0  0  0
  -24.2197  -15.6048  144.8706 C   0  0  0  0  0  0  0  0  0  0  0  0
  -24.9238  -14.4190  144.2437 C   0  0  0  0  0  0  0  0  0  0  0  0
  -24.8522  -17.1092  148.7039 C   0  0  0  0  0  0  0  0  0  0  0  0
  -25.5478  -15.9321  148.2894 C   0  0  0  0  0  0  0  0  0  0  0  0
  -25.2820  -15.3309  147.0294 C   0  0  0  0  0  0  0  0  0  0  0  0
  -24.9159  -13.4149  145.1809 C   0  0  0  0  0  0  0  0  0  0  0  0
  -25.4564  -13.7325  146.5465 C   0  0  0  0  0  0  0  0  0  0  0  0
  -23.4732  -12.8108  145.4513 C   0  0  0  0  0  0  0  0  0  0  0  0
  -23.5994  -11.3499  145.7589 C   0  0  0  0  0  0  0  0  0  0  0  0
  1  2  1  0
  4  5  1  0
  5  6  1  0
  6 10  1  0
  9 11  1  0
 10 11  1  0
 10 12  1  0
 12 13  1  0
  2  3  2  0
  3  7  1  0
  7  8  2  0
  8  9  1  0
  9  4  2  0
  4  2  1  0
M  END

$$$$
No_542-/dssg/home/sw_qyf/PocketFlow/Model-Generation-Results/5HT2A_7WC7_rec_A_10.pdb/2024-01-01-03-54-21/
     RDKit          3D

 25 28  0  0  0  0  0  0  0  0999 V2000
  -24.1553  -17.8465  145.7021 C   0  0  0  0  0  0  0  0  0  0  0  0
  -23.9795  -18.4462  146.7426 C   0  0  0  0  0  0  0  0  0  0  0  0
  -25.1593  -16.8262  145.6925 C   0  0  0  0  0  0  0  0  0  0  0  0
  -24.9465  -15.5961  144.9952 C   0  0  0  0  0  0  0  0  0  0  0  0
  -25.8339  -14.4742  145.0599 C   0  0  0  0  0  0  0  0  0  0  0  0
  -25.6290  -13.3152  144.3271 C   0  0  0  0  0  0  0  0  0  0  0  0
  -26.6996  -12.5602  144.2534 N   0  0  0  0  0  0  0  0  0  0  0  0
  -27.1101  -11.8655  143.1468 C   0  0  0  0  0  0  0  0  0  0  0  0
  -28.1344  -10.8876  143.3943 C   0  0  0  0  0  0  0  0  0  0  0  0
  -28.7628  -10.0925  142.4985 C   0  0  0  0  0  0  0  0  0  0  0  0
  -29.6202   -9.0530  142.8295 C   0  0  0  0  0  0  0  0  0  0  0  0
  -30.1187   -8.0970  141.9528 C   0  0  0  0  0  0  0  0  0  0  0  0
  -29.5668   -8.0543  140.6612 C   0  0  0  0  0  0  0  0  0  0  0  0
  -28.6598   -9.0635  140.3005 C   0  0  0  0  0  0  0  0  0  0  0  0
  -28.2265  -10.0320  141.2544 C   0  0  0  0  0  0  0  0  0  0  0  0
  -24.4990  -17.9807  148.0167 C   0  0  0  0  0  0  0  0  0  0  0  0
  -24.8467  -16.8482  148.0663 C   0  0  0  0  0  0  0  0  0  0  0  0
  -25.4264  -16.3649  149.3630 C   0  0  0  0  0  0  0  0  0  0  0  0
  -24.9350  -15.8348  146.9417 C   0  0  0  0  0  0  0  0  0  0  0  0
  -28.0747   -9.0300  138.9341 C   0  0  0  0  0  0  0  0  0  0  0  0
  -28.9704   -8.8169  137.9684 C   0  0  0  0  0  0  0  0  0  0  0  0
  -28.6690  -10.8663  144.8225 C   0  0  0  0  0  0  0  0  0  0  0  0
  -28.2192  -11.7198  145.8907 C   0  0  0  0  0  0  0  0  0  0  0  0
  -27.4022  -12.5990  145.7027 C   0  0  0  0  0  0  0  0  0  0  0  0
  -26.8813  -14.2377  146.0147 C   0  0  0  0  0  0  0  0  0  0  0  0
  4  5  1  0
  5  6  1  0
  6  7  1  0
  7  8  1  0
  8  9  1  0
  9 10  1  0
 17 18  1  0
 14 20  1  0
 20 21  1  0
  9 22  1  0
  7 24  1  0
 23 24  1  0
  5 25  1  0
 24 25  1  0
  4  3  1  0
 22 23  1  0
 10 11  2  0
 11 12  1  0
 12 13  2  0
 13 14  1  0
 14 15  2  0
 15 10  1  0
  1  2  2  0
  2 16  1  0
 16 17  2  0
 17 19  1  0
 19  3  2  0
  3  1  1  0
M  END

$$$$
No_543-/dssg/home/sw_qyf/PocketFlow/Model-Generation-Results/5HT2A_7WC7_rec_A_10.pdb/2024-01-01-03-54-21/
     RDKit          3D

 20 21  0  0  0  0  0  0  0  0999 V2000
  -23.1746  -16.6014  144.8668 C   0  0  0  0  0  0  0  0  0  0  0  0
  -23.8963  -15.5346  144.7885 C   0  0  0  0  0  0  0  0  0  0  0  0
  -24.6479  -15.0447  145.8164 C   0  0  0  0  0  0  0  0  0  0  0  0
  -25.3835  -13.7782  145.7887 C   0  0  0  0  0  0  0  0  0  0  0  0
  -25.5840  -12.9393  146.6927 C   0  0  0  0  0  0  0  0  0  0  0  0
  -23.3260  -17.4394  146.0484 C   0  0  0  0  0  0  0  0  0  0  0  0
  -24.0657  -17.0203  147.1562 C   0  0  0  0  0  0  0  0  0  0  0  0
  -24.7664  -15.7793  147.0832 C   0  0  0  0  0  0  0  0  0  0  0  0
  -26.1810  -11.6728  146.4824 C   0  0  0  0  0  0  0  0  0  0  0  0
  -26.6284  -11.3598  145.2064 C   0  0  0  0  0  0  0  0  0  0  0  0
  -26.3829  -12.2860  144.2011 C   0  0  0  0  0  0  0  0  0  0  0  0
  -25.7674  -13.5257  144.4060 C   0  0  0  0  0  0  0  0  0  0  0  0
  -27.1957  -10.0478  144.8647 C   0  0  0  0  0  0  0  0  0  0  0  0
  -27.7989   -9.8328  143.6366 C   0  0  0  0  0  0  0  0  0  0  0  0
  -28.8365   -8.9294  143.4830 C   0  0  0  0  0  0  0  0  0  0  0  0
  -29.9302   -9.1937  142.7632 C   0  0  0  0  0  0  0  0  0  0  0  0
  -31.1502   -8.4966  142.8909 C   0  0  0  0  0  0  0  0  0  0  0  0
  -32.2544   -8.9606  142.8891 O   0  0  0  0  0  0  0  0  0  0  0  0
  -31.0074   -7.2503  143.3321 O   0  0  0  0  0  0  0  0  0  0  0  0
  -29.9848  -10.2900  141.9225 O   0  0  0  0  0  0  0  0  0  0  0  0
  3  4  1  0
 10 13  1  0
 13 14  1  0
 14 15  1  0
 15 16  1  0
 16 17  1  0
 17 18  1  0
 17 19  2  0
 16 20  1  0
  1  2  2  0
  2  3  1  0
  3  8  2  0
  8  7  1  0
  7  6  2  0
  6  1  1  0
  4  5  2  0
  5  9  1  0
  9 10  2  0
 10 11  1  0
 11 12  2  0
 12  4  1  0
M  END

$$$$
No_544-/dssg/home/sw_qyf/PocketFlow/Model-Generation-Results/5HT2A_7WC7_rec_A_10.pdb/2024-01-01-03-54-21/
     RDKit          3D

 15 16  0  0  0  0  0  0  0  0999 V2000
  -24.1553  -17.8465  145.7021 C   0  0  0  0  0  0  0  0  0  0  0  0
  -24.2855  -16.6364  145.3494 C   0  0  0  0  0  0  0  0  0  0  0  0
  -23.7824  -15.9603  144.3553 C   0  0  0  0  0  0  0  0  0  0  0  0
  -23.5930  -14.6023  144.5055 C   0  0  0  0  0  0  0  0  0  0  0  0
  -24.2427  -13.8022  145.5151 C   0  0  0  0  0  0  0  0  0  0  0  0
  -24.1302  -12.3893  145.5898 C   0  0  0  0  0  0  0  0  0  0  0  0
  -24.7996  -18.5117  146.7971 C   0  0  0  0  0  0  0  0  0  0  0  0
  -25.6187  -17.6465  147.5602 C   0  0  0  0  0  0  0  0  0  0  0  0
  -25.8704  -16.3541  147.2812 C   0  0  0  0  0  0  0  0  0  0  0  0
  -25.1731  -15.7494  146.2151 C   0  0  0  0  0  0  0  0  0  0  0  0
  -25.0319  -14.3771  146.2998 C   0  0  0  0  0  0  0  0  0  0  0  0
  -24.6440  -11.8068  146.5421 F   0  0  0  0  0  0  0  0  0  0  0  0
  -22.7315  -11.9483  145.6945 F   0  0  0  0  0  0  0  0  0  0  0  0
  -24.4471  -11.7660  144.4190 F   0  0  0  0  0  0  0  0  0  0  0  0
  -23.5096  -18.7271  144.8994 O   0  0  0  0  0  0  0  0  0  0  0  0
  5  6  1  0
  6 12  1  0
  6 13  1  0
  6 14  1  0
  1 15  1  0
  1  2  2  0
 10  9  2  0
  9  8  1  0
  8  7  2  0
  7  1  1  0
  2  3  1  0
  3  4  2  0
  4  5  1  0
  5 11  2  0
 11 10  1  0
 10  2  1  0
M  END

$$$$
No_545-/dssg/home/sw_qyf/PocketFlow/Model-Generation-Results/5HT2A_7WC7_rec_A_10.pdb/2024-01-01-03-54-21/
     RDKit          3D

 29 31  0  0  0  0  0  0  0  0999 V2000
  -24.1553  -17.8465  145.7021 C   0  0  0  0  0  0  0  0  0  0  0  0
  -23.9795  -18.4462  146.7426 C   0  0  0  0  0  0  0  0  0  0  0  0
  -25.1196  -16.8106  145.6409 C   0  0  0  0  0  0  0  0  0  0  0  0
  -25.2440  -15.8776  144.5240 C   0  0  0  0  0  0  0  0  0  0  0  0
  -26.0733  -14.7284  144.7061 C   0  0  0  0  0  0  0  0  0  0  0  0
  -26.0749  -13.6607  143.7626 C   0  0  0  0  0  0  0  0  0  0  0  0
  -24.5491  -18.0521  147.9995 C   0  0  0  0  0  0  0  0  0  0  0  0
  -25.4112  -16.9742  148.0640 C   0  0  0  0  0  0  0  0  0  0  0  0
  -25.6107  -16.2038  146.8886 C   0  0  0  0  0  0  0  0  0  0  0  0
  -27.0144  -12.6487  143.8916 C   0  0  0  0  0  0  0  0  0  0  0  0
  -27.7242  -12.4655  145.1149 C   0  0  0  0  0  0  0  0  0  0  0  0
  -27.7246  -13.4994  146.1221 C   0  0  0  0  0  0  0  0  0  0  0  0
  -26.8083  -14.5326  145.9856 C   0  0  0  0  0  0  0  0  0  0  0  0
  -26.4828  -15.1646  146.9912 C   0  0  0  0  0  0  0  0  0  0  0  0
  -28.7057  -11.3244  145.1749 C   0  0  0  0  0  0  0  0  0  0  0  0
  -29.6168  -11.1088  144.2375 C   0  0  0  0  0  0  0  0  0  0  0  0
  -30.2388   -9.7887  144.1879 C   0  0  0  0  0  0  0  0  0  0  0  0
  -30.5589   -9.4952  145.3926 F   0  0  0  0  0  0  0  0  0  0  0  0
  -31.3289   -9.6782  143.4650 F   0  0  0  0  0  0  0  0  0  0  0  0
  -29.3714   -8.8564  143.7534 F   0  0  0  0  0  0  0  0  0  0  0  0
  -25.9053  -14.0847  142.4462 O   0  0  0  0  0  0  0  0  0  0  0  0
  -23.7196  -18.2440  144.5549 O   0  0  0  0  0  0  0  0  0  0  0  0
  -25.9565  -16.7034  149.2702 O   0  0  0  0  0  0  0  0  0  0  0  0
  -26.0477  -17.7736  150.2334 C   0  0  0  0  0  0  0  0  0  0  0  0
  -24.8611  -17.8098  151.0683 C   0  0  0  0  0  0  0  0  0  0  0  0
  -27.2201  -17.4487  151.2205 C   0  0  0  0  0  0  0  0  0  0  0  0
  -27.4912  -18.6001  152.1009 C   0  0  0  0  0  0  0  0  0  0  0  0
  -27.2596  -19.6684  151.8230 O   0  0  0  0  0  0  0  0  0  0  0  0
  -28.0243  -18.2689  153.2406 O   0  0  0  0  0  0  0  0  0  0  0  0
  3  4  1  0
  4  5  1  0
  9 14  1  0
 13 14  1  0
 11 15  1  0
 15 16  2  3
 16 17  1  0
 17 18  1  0
 17 19  1  0
 17 20  1  0
  6 21  1  0
  1 22  1  0
  8 23  1  0
 23 24  1  0
 24 25  1  0
 24 26  1  0
 26 27  1  0
 27 28  2  0
 27 29  1  0
  1  2  2  0
  2  7  1  0
  7  8  2  0
  8  9  1  0
  9  3  2  0
  3  1  1  0
  5  6  2  0
  6 10  1  0
 10 11  2  0
 11 12  1  0
 12 13  2  0
 13  5  1  0
M  END

$$$$
No_546-/dssg/home/sw_qyf/PocketFlow/Model-Generation-Results/5HT2A_7WC7_rec_A_10.pdb/2024-01-01-03-54-21/
     RDKit          3D

  6  6  0  0  0  0  0  0  0  0999 V2000
  -24.1553  -17.8465  145.7021 C   0  0  0  0  0  0  0  0  0  0  0  0
  -23.9795  -18.4462  146.7426 C   0  0  0  0  0  0  0  0  0  0  0  0
  -23.2486  -17.2339  144.9771 C   0  0  0  0  0  0  0  0  0  0  0  0
  -22.6834  -18.2906  147.4267 C   0  0  0  0  0  0  0  0  0  0  0  0
  -21.7429  -17.7715  146.6774 N   0  0  0  0  0  0  0  0  0  0  0  0
  -22.0002  -17.1353  145.5495 C   0  0  0  0  0  0  0  0  0  0  0  0
  1  2  2  0
  2  4  1  0
  4  5  2  0
  5  6  1  0
  6  3  2  0
  3  1  1  0
M  END

$$$$
No_547-/dssg/home/sw_qyf/PocketFlow/Model-Generation-Results/5HT2A_7WC7_rec_A_10.pdb/2024-01-01-03-54-21/
     RDKit          3D

 23 25  0  0  0  0  0  0  0  0999 V2000
  -23.1746  -16.6014  144.8668 C   0  0  0  0  0  0  0  0  0  0  0  0
  -23.8963  -15.5346  144.7885 C   0  0  0  0  0  0  0  0  0  0  0  0
  -25.0304  -15.2549  144.5358 C   0  0  0  0  0  0  0  0  0  0  0  0
  -25.5568  -13.9763  144.1380 C   0  0  0  0  0  0  0  0  0  0  0  0
  -26.9361  -13.7921  143.8539 C   0  0  0  0  0  0  0  0  0  0  0  0
  -23.9641  -17.6361  145.4938 C   0  0  0  0  0  0  0  0  0  0  0  0
  -25.3656  -17.3777  145.7087 C   0  0  0  0  0  0  0  0  0  0  0  0
  -25.8793  -16.1598  145.2792 C   0  0  0  0  0  0  0  0  0  0  0  0
  -27.3549  -12.5914  143.4747 C   0  0  0  0  0  0  0  0  0  0  0  0
  -27.6928  -12.4474  142.1419 C   0  0  0  0  0  0  0  0  0  0  0  0
  -28.3053  -11.2678  141.5846 C   0  0  0  0  0  0  0  0  0  0  0  0
  -28.6945  -10.2558  142.5606 C   0  0  0  0  0  0  0  0  0  0  0  0
  -28.4272  -10.4440  143.9100 C   0  0  0  0  0  0  0  0  0  0  0  0
  -27.8001  -11.6137  144.3789 C   0  0  0  0  0  0  0  0  0  0  0  0
  -29.3584   -9.0437  142.0755 C   0  0  0  0  0  0  0  0  0  0  0  0
  -29.0359   -8.4167  140.8934 C   0  0  0  0  0  0  0  0  0  0  0  0
  -29.7904   -7.2261  140.5556 C   0  0  0  0  0  0  0  0  0  0  0  0
  -30.5566   -6.8186  141.5670 N   0  0  0  0  0  0  0  0  0  0  0  0
  -30.5647   -7.6099  142.6664 C   0  0  0  0  0  0  0  0  0  0  0  0
  -23.5013  -18.8673  146.0970 C   0  0  0  0  0  0  0  0  0  0  0  0
  -22.7515  -18.7320  147.0989 O   0  0  0  0  0  0  0  0  0  0  0  0
  -24.0350  -19.9569  145.8098 O   0  0  0  0  0  0  0  0  0  0  0  0
  -28.1356   -8.9758  139.8885 C   0  0  0  0  0  0  0  0  0  0  0  0
  4  5  1  0
 12 15  1  0
 15 16  2  0
 16 17  1  0
 17 18  2  0
 15 19  1  0
 18 19  1  0
  6 20  1  0
 20 21  1  0
 20 22  2  0
 16 23  1  0
  4  3  1  0
  5  9  1  0
  1  2  2  0
  2  3  1  0
  3  8  2  0
  8  7  1  0
  7  6  2  0
  6  1  1  0
  9 10  2  0
 10 11  1  0
 11 12  2  0
 12 13  1  0
 13 14  2  0
 14  9  1  0
M  END

$$$$
No_548-/dssg/home/sw_qyf/PocketFlow/Model-Generation-Results/5HT2A_7WC7_rec_A_10.pdb/2024-01-01-03-54-21/
     RDKit          3D

 22 24  0  0  0  0  0  0  0  0999 V2000
  -24.1553  -17.8465  145.7021 C   0  0  0  0  0  0  0  0  0  0  0  0
  -24.2855  -16.6364  145.3494 C   0  0  0  0  0  0  0  0  0  0  0  0
  -25.0033  -15.6772  146.0737 C   0  0  0  0  0  0  0  0  0  0  0  0
  -25.6964  -16.1809  147.2049 C   0  0  0  0  0  0  0  0  0  0  0  0
  -24.8143  -18.3454  146.8324 C   0  0  0  0  0  0  0  0  0  0  0  0
  -25.5291  -17.4614  147.6374 C   0  0  0  0  0  0  0  0  0  0  0  0
  -23.6446  -16.0678  144.2141 N   0  0  0  0  0  0  0  0  0  0  0  0
  -25.0991  -14.3109  145.4098 C   0  0  0  0  0  0  0  0  0  0  0  0
  -25.7640  -13.3950  146.1517 C   0  0  0  0  0  0  0  0  0  0  0  0
  -25.7621  -12.0235  145.8102 C   0  0  0  0  0  0  0  0  0  0  0  0
  -24.3767  -13.9614  144.3317 C   0  0  0  0  0  0  0  0  0  0  0  0
  -26.9290  -11.2237  145.8033 C   0  0  0  0  0  0  0  0  0  0  0  0
  -24.4144  -12.7494  143.9086 O   0  0  0  0  0  0  0  0  0  0  0  0
  -23.5861  -14.9766  143.7554 C   0  0  0  0  0  0  0  0  0  0  0  0
  -27.5549  -11.1528  144.6365 C   0  0  0  0  0  0  0  0  0  0  0  0
  -28.8410  -10.3622  144.6775 C   0  0  0  0  0  0  0  0  0  0  0  0
  -29.3774   -9.6913  143.6047 C   0  0  0  0  0  0  0  0  0  0  0  0
  -30.5258   -8.8780  143.7387 C   0  0  0  0  0  0  0  0  0  0  0  0
  -30.9226   -8.0900  142.7336 C   0  0  0  0  0  0  0  0  0  0  0  0
  -30.1543   -8.0791  141.5306 C   0  0  0  0  0  0  0  0  0  0  0  0
  -29.1129   -9.0467  141.3328 C   0  0  0  0  0  0  0  0  0  0  0  0
  -28.6824   -9.7868  142.4510 C   0  0  0  0  0  0  0  0  0  0  0  0
  8  9  1  0
  9 10  2  3
 10 12  1  0
 11 13  1  0
 12 15  1  0
 15 16  2  3
 16 17  1  0
 17 18  2  0
 18 19  1  0
 19 20  2  0
 20 21  1  0
 21 22  2  0
 22 17  1  0
  1  2  2  0
  3  4  2  0
  4  6  1  0
  6  5  2  0
  5  1  1  0
  2  3  1  0
  3  8  1  0
  8 11  2  0
 11 14  1  0
 14  7  2  0
  7  2  1  0
M  END

$$$$
No_549-/dssg/home/sw_qyf/PocketFlow/Model-Generation-Results/5HT2A_7WC7_rec_A_10.pdb/2024-01-01-03-54-21/
     RDKit          3D

 35 36  0  0  0  0  0  0  0  0999 V2000
  -24.1553  -17.8465  145.7021 C   0  0  0  0  0  0  0  0  0  0  0  0
  -24.6364  -17.2931  146.7091 C   0  0  0  0  0  0  0  0  0  0  0  0
  -24.0780  -17.2921  147.9389 C   0  0  0  0  0  0  0  0  0  0  0  0
  -24.6761  -16.7363  149.1478 C   0  0  0  0  0  0  0  0  0  0  0  0
  -25.9985  -16.2638  148.9932 C   0  0  0  0  0  0  0  0  0  0  0  0
  -26.6270  -16.3412  147.7727 C   0  0  0  0  0  0  0  0  0  0  0  0
  -25.9734  -16.9166  146.6819 C   0  0  0  0  0  0  0  0  0  0  0  0
  -23.7938  -16.8806  144.5756 C   0  0  0  0  0  0  0  0  0  0  0  0
  -24.1383  -15.5368  145.0393 C   0  0  0  0  0  0  0  0  0  0  0  0
  -25.3132  -14.9782  144.9854 C   0  0  0  0  0  0  0  0  0  0  0  0
  -25.4987  -13.8195  144.1618 C   0  0  0  0  0  0  0  0  0  0  0  0
  -26.8901  -13.4162  143.8587 C   0  0  0  0  0  0  0  0  0  0  0  0
  -27.0885  -12.4567  142.8168 C   0  0  0  0  0  0  0  0  0  0  0  0
  -27.6798  -11.2946  143.0952 N   0  0  0  0  0  0  0  0  0  0  0  0
  -28.4314  -10.5494  142.1884 C   0  0  0  0  0  0  0  0  0  0  0  0
  -28.4501  -10.6398  140.8928 C   0  0  0  0  0  0  0  0  0  0  0  0
  -29.3347   -9.4907  142.8439 C   0  0  0  0  0  0  0  0  0  0  0  0
  -29.6711   -9.5503  144.1651 C   0  0  0  0  0  0  0  0  0  0  0  0
  -29.7640   -8.4262  142.0316 C   0  0  0  0  0  0  0  0  0  0  0  0
  -29.3447   -8.0914  140.7983 C   0  0  0  0  0  0  0  0  0  0  0  0
  -28.5070   -8.9880  140.1268 C   0  0  0  0  0  0  0  0  0  0  0  0
  -29.0107  -10.2636  145.0174 O   0  0  0  0  0  0  0  0  0  0  0  0
  -30.9099   -9.1221  144.4969 N   0  0  0  0  0  0  0  0  0  0  0  0
  -28.1316   -9.0504  138.7820 C   0  0  0  0  0  0  0  0  0  0  0  0
  -28.9763   -8.4965  137.8744 C   0  0  0  0  0  0  0  0  0  0  0  0
  -28.0531  -15.8763  147.7312 C   0  0  0  0  0  0  0  0  0  0  0  0
  -28.4232  -15.0965  146.6358 C   0  0  0  0  0  0  0  0  0  0  0  0
  -29.7352  -14.5090  146.6915 C   0  0  0  0  0  0  0  0  0  0  0  0
  -23.8522  -19.0914  145.5141 O   0  0  0  0  0  0  0  0  0  0  0  0
  -30.0553  -13.8481  148.0304 C   0  0  0  0  0  0  0  0  0  0  0  0
  -30.8495  -13.0066  148.1461 C   0  0  0  0  0  0  0  0  0  0  0  0
  -31.3824  -12.5448  149.5341 C   0  0  0  0  0  0  0  0  0  0  0  0
  -31.9606  -11.3366  149.7629 C   0  0  0  0  0  0  0  0  0  0  0  0
  -28.7221   -8.7723  136.6043 O   0  0  0  0  0  0  0  0  0  0  0  0
  -33.3485  -11.3136  150.1697 C   0  0  0  0  0  0  0  0  0  0  0  0
  1  2  1  0
  1  8  1  0
  8  9  1  0
  9 10  1  0
 10 11  1  0
 11 12  1  0
 12 13  1  0
 13 14  1  0
 14 15  1  0
 17 18  1  0
 18 22  2  0
 18 23  1  0
 21 24  1  0
 24 25  1  0
  6 26  1  0
 26 27  2  3
 27 28  1  0
  1 29  2  0
 28 30  1  0
 30 31  2  3
 31 32  1  0
 32 33  2  3
 25 34  1  0
 33 35  1  0
 15 16  2  0
 16 21  1  0
 21 20  2  0
 20 19  1  0
 19 17  2  0
 17 15  1  0
  2  3  2  0
  3  4  1  0
  4  5  2  0
  5  6  1  0
  6  7  2  0
  7  2  1  0
M  END

$$$$
No_550-/dssg/home/sw_qyf/PocketFlow/Model-Generation-Results/5HT2A_7WC7_rec_A_10.pdb/2024-01-01-03-54-21/
     RDKit          3D

 26 28  0  0  0  0  0  0  0  0999 V2000
  -24.1553  -17.8465  145.7021 C   0  0  0  0  0  0  0  0  0  0  0  0
  -24.2856  -16.6364  145.3494 C   0  0  0  0  0  0  0  0  0  0  0  0
  -25.0033  -15.6772  146.0737 C   0  0  0  0  0  0  0  0  0  0  0  0
  -24.8869  -14.2981  145.8377 C   0  0  0  0  0  0  0  0  0  0  0  0
  -25.4725  -13.2451  146.6015 C   0  0  0  0  0  0  0  0  0  0  0  0
  -24.9069  -18.3577  146.7742 C   0  0  0  0  0  0  0  0  0  0  0  0
  -25.6744  -17.5124  147.5202 C   0  0  0  0  0  0  0  0  0  0  0  0
  -25.7107  -16.1247  147.2563 C   0  0  0  0  0  0  0  0  0  0  0  0
  -24.1776  -13.8654  144.6519 C   0  0  0  0  0  0  0  0  0  0  0  0
  -25.2475  -11.8971  146.3066 C   0  0  0  0  0  0  0  0  0  0  0  0
  -23.7596  -14.6267  143.7557 N   0  0  0  0  0  0  0  0  0  0  0  0
  -24.6343  -11.5290  145.1149 C   0  0  0  0  0  0  0  0  0  0  0  0
  -24.0919  -12.4111  144.4057 C   0  0  0  0  0  0  0  0  0  0  0  0
  -23.5479  -16.0581  144.1302 C   0  0  0  0  0  0  0  0  0  0  0  0
  -25.9022  -10.9735  147.0620 F   0  0  0  0  0  0  0  0  0  0  0  0
  -23.5634  -18.7917  144.9425 O   0  0  0  0  0  0  0  0  0  0  0  0
  -23.3093  -20.0212  145.7342 C   0  0  0  0  0  0  0  0  0  0  0  0
  -24.3064  -20.6133  145.9776 O   0  0  0  0  0  0  0  0  0  0  0  0
  -24.5118  -19.3541  147.5058 O   0  0  0  0  0  0  0  0  0  0  0  0
  -26.4717  -15.3425  147.9803 O   0  0  0  0  0  0  0  0  0  0  0  0
  -27.8616  -15.8719  148.1632 C   0  0  0  0  0  0  0  0  0  0  0  0
  -28.9081  -14.9422  147.9224 C   0  0  0  0  0  0  0  0  0  0  0  0
  -28.9725  -14.0644  146.8766 C   0  0  0  0  0  0  0  0  0  0  0  0
  -29.9996  -13.0765  146.8239 C   0  0  0  0  0  0  0  0  0  0  0  0
  -30.6879  -12.8710  148.0729 C   0  0  0  0  0  0  0  0  0  0  0  0
  -30.6848  -13.7580  149.1476 C   0  0  0  0  0  0  0  0  0  0  0  0
 10 15  1  0
  1 16  1  0
 16 17  1  0
 17 18  1  0
  6 19  1  0
  8 20  1  0
 20 21  1  0
 21 22  2  3
 22 23  1  0
 23 24  2  3
 24 25  1  0
 25 26  2  0
  1  2  2  0
  3  8  2  0
  8  7  1  0
  7  6  2  0
  6  1  1  0
  4  5  2  0
  5 10  1  0
 10 12  2  0
 12 13  1  0
 13  9  2  0
  2  3  1  0
  3  4  1  0
  4  9  1  0
  9 11  1  0
 11 14  2  0
 14  2  1  0
M  END

$$$$
No_551-/dssg/home/sw_qyf/PocketFlow/Model-Generation-Results/5HT2A_7WC7_rec_A_10.pdb/2024-01-01-03-54-21/
     RDKit          3D

 29 31  0  0  0  0  0  0  0  0999 V2000
  -23.1746  -16.6014  144.8668 C   0  0  0  0  0  0  0  0  0  0  0  0
  -23.7011  -17.0158  145.9774 C   0  0  0  0  0  0  0  0  0  0  0  0
  -24.2134  -16.0722  146.8877 C   0  0  0  0  0  0  0  0  0  0  0  0
  -24.7882  -16.3410  148.2078 C   0  0  0  0  0  0  0  0  0  0  0  0
  -23.5800  -15.2232  144.4665 C   0  0  0  0  0  0  0  0  0  0  0  0
  -24.2035  -14.2633  145.2990 C   0  0  0  0  0  0  0  0  0  0  0  0
  -24.5441  -14.6899  146.5406 C   0  0  0  0  0  0  0  0  0  0  0  0
  -23.5296  -18.4166  146.4575 C   0  0  0  0  0  0  0  0  0  0  0  0
  -24.3584  -12.8867  144.8608 C   0  0  0  0  0  0  0  0  0  0  0  0
  -24.5102  -11.9728  146.0042 C   0  0  0  0  0  0  0  0  0  0  0  0
  -26.0253  -11.6185  146.0530 C   0  0  0  0  0  0  0  0  0  0  0  0
  -26.9587  -12.5241  145.6113 C   0  0  0  0  0  0  0  0  0  0  0  0
  -28.3076  -12.2585  146.0130 C   0  0  0  0  0  0  0  0  0  0  0  0
  -28.9217  -12.8870  147.1476 C   0  0  0  0  0  0  0  0  0  0  0  0
  -30.2048  -12.5078  147.6383 C   0  0  0  0  0  0  0  0  0  0  0  0
  -30.7173  -11.3526  146.9180 C   0  0  0  0  0  0  0  0  0  0  0  0
  -30.1051  -10.6841  145.9233 C   0  0  0  0  0  0  0  0  0  0  0  0
  -28.8386  -11.1496  145.4973 C   0  0  0  0  0  0  0  0  0  0  0  0
  -26.1834  -16.6059  148.4816 C   0  0  0  0  0  0  0  0  0  0  0  0
  -27.1389  -16.1294  147.5801 C   0  0  0  0  0  0  0  0  0  0  0  0
  -28.5151  -16.4613  147.8113 C   0  0  0  0  0  0  0  0  0  0  0  0
  -28.8597  -17.1563  149.0070 C   0  0  0  0  0  0  0  0  0  0  0  0
  -27.9330  -17.5886  149.8804 C   0  0  0  0  0  0  0  0  0  0  0  0
  -26.6198  -17.3686  149.6813 C   0  0  0  0  0  0  0  0  0  0  0  0
  -30.8539  -13.1280  148.7092 C   0  0  0  0  0  0  0  0  0  0  0  0
  -28.2171  -10.3829  144.4048 C   0  0  0  0  0  0  0  0  0  0  0  0
  -29.0006   -9.3943  143.7525 C   0  0  0  0  0  0  0  0  0  0  0  0
  -29.1810   -9.5194  142.3144 C   0  0  0  0  0  0  0  0  0  0  0  0
  -28.9309  -10.6687  141.5977 C   0  0  0  0  0  0  0  0  0  0  0  0
  3  4  1  0
  2  8  1  0
  6  9  1  0
  9 10  1  0
 10 11  1  0
 11 12  1  0
  4 19  1  0
 15 25  1  0
 18 26  1  0
 26 27  1  0
 27 28  1  0
 28 29  3  0
 12 13  1  0
  1  2  2  0
  2  3  1  0
  3  7  2  0
  7  6  1  0
  6  5  2  0
  5  1  1  0
 13 14  2  0
 14 15  1  0
 15 16  2  0
 16 17  1  0
 17 18  2  0
 18 13  1  0
 19 20  2  0
 20 21  1  0
 21 22  2  0
 22 23  1  0
 23 24  2  0
 24 19  1  0
M  END

$$$$
No_552-/dssg/home/sw_qyf/PocketFlow/Model-Generation-Results/5HT2A_7WC7_rec_A_10.pdb/2024-01-01-03-54-21/
     RDKit          3D

 15 15  0  0  0  0  0  0  0  0999 V2000
  -24.1553  -17.8465  145.7021 C   0  0  0  0  0  0  0  0  0  0  0  0
  -24.6364  -17.2931  146.7091 C   0  0  0  0  0  0  0  0  0  0  0  0
  -25.8608  -16.5592  146.5934 C   0  0  0  0  0  0  0  0  0  0  0  0
  -25.9533  -15.5604  145.6681 C   0  0  0  0  0  0  0  0  0  0  0  0
  -25.0552  -14.7529  145.5673 C   0  0  0  0  0  0  0  0  0  0  0  0
  -23.9922  -15.0549  144.5653 C   0  0  0  0  0  0  0  0  0  0  0  0
  -23.2557  -13.8536  144.1195 C   0  0  0  0  0  0  0  0  0  0  0  0
  -23.4206  -12.7870  145.2147 C   0  0  0  0  0  0  0  0  0  0  0  0
  -24.6529  -13.2377  145.9836 C   0  0  0  0  0  0  0  0  0  0  0  0
  -26.9578  -16.9597  147.5062 C   0  0  0  0  0  0  0  0  0  0  0  0
  -28.1333  -17.0678  147.1314 O   0  0  0  0  0  0  0  0  0  0  0  0
  -23.9263  -17.3339  148.0165 C   0  0  0  0  0  0  0  0  0  0  0  0
  -23.3050  -16.4883  148.5861 C   0  0  0  0  0  0  0  0  0  0  0  0
  -22.5755  -16.7140  149.8525 C   0  0  0  0  0  0  0  0  0  0  0  0
  -23.2500  -17.5696  150.7486 N   0  0  0  0  0  0  0  0  0  0  0  0
  1  2  1  0
  2  3  1  0
  3  4  2  3
  4  5  1  0
  5  6  1  0
  6  7  1  0
  7  8  1  0
  5  9  1  0
  8  9  1  0
  3 10  1  0
 10 11  1  0
  2 12  1  0
 12 13  2  3
 13 14  1  0
 14 15  2  0
M  END

$$$$
No_553-/dssg/home/sw_qyf/PocketFlow/Model-Generation-Results/5HT2A_7WC7_rec_A_10.pdb/2024-01-01-03-54-21/
     RDKit          3D

  6  5  0  0  0  0  0  0  0  0999 V2000
  -23.1746  -16.6014  144.8668 C   0  0  0  0  0  0  0  0  0  0  0  0
  -23.8963  -15.5346  144.7885 C   0  0  0  0  0  0  0  0  0  0  0  0
  -24.5755  -15.0383  145.9043 C   0  0  0  0  0  0  0  0  0  0  0  0
  -25.0618  -13.6819  146.0347 C   0  0  0  0  0  0  0  0  0  0  0  0
  -23.4373  -17.5662  145.9178 C   0  0  0  0  0  0  0  0  0  0  0  0
  -24.1557  -17.1324  147.0548 C   0  0  0  0  0  0  0  0  0  0  0  0
  1  2  1  0
  2  3  1  0
  3  4  3  0
  1  5  2  3
  5  6  1  0
M  END

$$$$
No_554-/dssg/home/sw_qyf/PocketFlow/Model-Generation-Results/5HT2A_7WC7_rec_A_10.pdb/2024-01-01-03-54-21/
     RDKit          3D

 35 39  0  0  0  0  0  0  0  0999 V2000
  -24.1553  -17.8465  145.7021 C   0  0  0  0  0  0  0  0  0  0  0  0
  -24.2855  -16.6364  145.3494 C   0  0  0  0  0  0  0  0  0  0  0  0
  -25.0033  -15.6772  146.0737 C   0  0  0  0  0  0  0  0  0  0  0  0
  -25.6964  -16.1809  147.2049 C   0  0  0  0  0  0  0  0  0  0  0  0
  -24.8143  -18.3454  146.8324 C   0  0  0  0  0  0  0  0  0  0  0  0
  -25.5291  -17.4614  147.6374 C   0  0  0  0  0  0  0  0  0  0  0  0
  -23.3229  -16.0936  143.9788 Cl  0  0  0  0  0  0  0  0  0  0  0  0
  -25.1199  -14.2382  145.6738 C   0  0  0  0  0  0  0  0  0  0  0  0
  -24.1328  -13.4285  146.1012 C   0  0  0  0  0  0  0  0  0  0  0  0
  -24.1314  -11.9977  145.7573 C   0  0  0  0  0  0  0  0  0  0  0  0
  -25.3722  -11.4571  145.2930 C   0  0  0  0  0  0  0  0  0  0  0  0
  -26.4343  -12.3095  145.0297 C   0  0  0  0  0  0  0  0  0  0  0  0
  -26.3479  -13.7521  145.2081 C   0  0  0  0  0  0  0  0  0  0  0  0
  -27.7049  -11.7009  144.5460 C   0  0  0  0  0  0  0  0  0  0  0  0
  -28.7288  -11.3822  145.4139 C   0  0  0  0  0  0  0  0  0  0  0  0
  -29.8829  -10.6777  144.9684 C   0  0  0  0  0  0  0  0  0  0  0  0
  -29.9047  -10.1396  143.7205 C   0  0  0  0  0  0  0  0  0  0  0  0
  -28.8259  -10.4107  142.8587 C   0  0  0  0  0  0  0  0  0  0  0  0
  -27.6993  -11.1408  143.2816 C   0  0  0  0  0  0  0  0  0  0  0  0
  -28.8541   -9.8935  141.4835 C   0  0  0  0  0  0  0  0  0  0  0  0
  -29.4553   -8.6791  141.2387 C   0  0  0  0  0  0  0  0  0  0  0  0
  -30.2749   -7.9121  142.1533 C   0  0  0  0  0  0  0  0  0  0  0  0
  -30.2579   -6.5315  142.0818 C   0  0  0  0  0  0  0  0  0  0  0  0
  -29.4904   -5.9530  141.0293 C   0  0  0  0  0  0  0  0  0  0  0  0
  -29.5728   -8.2535  139.9182 C   0  0  0  0  0  0  0  0  0  0  0  0
  -28.9665   -8.8478  138.8521 C   0  0  0  0  0  0  0  0  0  0  0  0
  -29.2427   -6.6682  139.8666 C   0  0  0  0  0  0  0  0  0  0  0  0
  -27.8929   -9.7310  139.1068 C   0  0  0  0  0  0  0  0  0  0  0  0
  -28.0564  -10.4402  140.4666 C   0  0  0  0  0  0  0  0  0  0  0  0
  -28.7296  -11.9534  146.7413 N   0  0  0  0  0  0  0  0  0  0  0  0
  -29.8377  -12.2970  147.3516 C   0  0  0  0  0  0  0  0  0  0  0  0
  -29.8883  -13.5980  148.0239 C   0  0  0  0  0  0  0  0  0  0  0  0
  -29.2465  -14.7077  147.4663 C   0  0  0  0  0  0  0  0  0  0  0  0
  -28.8658  -15.7869  148.1897 C   0  0  0  0  0  0  0  0  0  0  0  0
  -29.5296  -16.3134  148.9390 C   0  0  0  0  0  0  0  0  0  0  0  0
  2  7  1  0
  3  8  1  0
 12 14  1  0
 18 20  1  0
 15 30  1  0
 30 31  1  0
 31 32  1  0
 32 33  1  0
 33 34  2  3
 34 35  1  0
 21 22  2  0
 22 23  1  0
 23 24  2  0
 24 27  1  0
 27 25  2  0
 20 21  1  0
 21 25  1  0
 25 26  1  0
 26 28  2  0
 28 29  1  0
 29 20  2  0
  1  2  2  0
  2  3  1  0
  3  4  2  0
  4  6  1  0
  6  5  2  0
  5  1  1  0
 14 15  2  0
 15 16  1  0
 16 17  2  0
 17 18  1  0
 18 19  2  0
 19 14  1  0
  8  9  2  0
  9 10  1  0
 10 11  2  0
 11 12  1  0
 12 13  2  0
 13  8  1  0
M  END

$$$$
No_555-/dssg/home/sw_qyf/PocketFlow/Model-Generation-Results/5HT2A_7WC7_rec_A_10.pdb/2024-01-01-03-54-21/
     RDKit          3D

 20 22  0  0  0  0  0  0  0  0999 V2000
  -24.1553  -17.8465  145.7021 C   0  0  0  0  0  0  0  0  0  0  0  0
  -24.6364  -17.2931  146.7091 C   0  0  0  0  0  0  0  0  0  0  0  0
  -25.8608  -16.5591  146.5934 C   0  0  0  0  0  0  0  0  0  0  0  0
  -26.9933  -16.9082  147.1889 C   0  0  0  0  0  0  0  0  0  0  0  0
  -28.0267  -15.9443  147.2666 C   0  0  0  0  0  0  0  0  0  0  0  0
  -28.0238  -14.7118  146.6112 C   0  0  0  0  0  0  0  0  0  0  0  0
  -29.0362  -13.6957  146.6907 C   0  0  0  0  0  0  0  0  0  0  0  0
  -28.7914  -12.3763  146.3455 C   0  0  0  0  0  0  0  0  0  0  0  0
  -27.5726  -12.0852  145.6551 C   0  0  0  0  0  0  0  0  0  0  0  0
  -26.5546  -13.0953  145.6347 C   0  0  0  0  0  0  0  0  0  0  0  0
  -26.7973  -14.3513  146.1447 C   0  0  0  0  0  0  0  0  0  0  0  0
  -25.6779  -15.3072  146.1115 C   0  0  0  0  0  0  0  0  0  0  0  0
  -29.7588  -11.3703  146.3554 N   0  0  0  0  0  0  0  0  0  0  0  0
  -23.9933  -17.5817  148.0466 C   0  0  0  0  0  0  0  0  0  0  0  0
  -24.6320  -17.4346  149.2798 C   0  0  0  0  0  0  0  0  0  0  0  0
  -23.9670  -17.2305  150.5117 C   0  0  0  0  0  0  0  0  0  0  0  0
  -22.5659  -17.1858  150.5331 C   0  0  0  0  0  0  0  0  0  0  0  0
  -21.9205  -16.8698  149.2927 C   0  0  0  0  0  0  0  0  0  0  0  0
  -22.5706  -17.1359  148.1403 C   0  0  0  0  0  0  0  0  0  0  0  0
  -30.6752  -11.4134  147.2616 O   0  0  0  0  0  0  0  0  0  0  0  0
  1  2  1  0
  2  3  1  0
  8 13  1  0
  2 14  1  0
 13 20  2  0
 14 15  2  0
 15 16  1  0
 16 17  2  0
 17 18  1  0
 18 19  2  0
 19 14  1  0
  6  7  1  0
  7  8  2  0
  8  9  1  0
  9 10  2  0
 10 11  1  0
  3  4  2  0
  4  5  1  0
  5  6  2  0
  6 11  1  0
 11 12  2  0
 12  3  1  0
M  END

$$$$
No_556-/dssg/home/sw_qyf/PocketFlow/Model-Generation-Results/5HT2A_7WC7_rec_A_10.pdb/2024-01-01-03-54-21/
     RDKit          3D

 35 41  0  0  0  0  0  0  0  0999 V2000
  -24.1553  -17.8465  145.7021 C   0  0  0  0  0  0  0  0  0  0  0  0
  -24.6364  -17.2931  146.7091 C   0  0  0  0  0  0  0  0  0  0  0  0
  -24.0780  -17.2921  147.9389 C   0  0  0  0  0  0  0  0  0  0  0  0
  -22.7158  -17.6979  148.0096 C   0  0  0  0  0  0  0  0  0  0  0  0
  -22.1285  -18.1651  146.8427 C   0  0  0  0  0  0  0  0  0  0  0  0
  -22.8309  -18.1998  145.7035 C   0  0  0  0  0  0  0  0  0  0  0  0
  -26.1233  -16.8465  146.7056 C   0  0  0  0  0  0  0  0  0  0  0  0
  -26.4534  -15.4577  146.9333 C   0  0  0  0  0  0  0  0  0  0  0  0
  -25.4468  -14.5564  146.8165 C   0  0  0  0  0  0  0  0  0  0  0  0
  -24.1197  -14.6020  146.7990 C   0  0  0  0  0  0  0  0  0  0  0  0
  -23.4257  -13.3606  146.5037 C   0  0  0  0  0  0  0  0  0  0  0  0
  -25.8252  -13.1272  146.4928 C   0  0  0  0  0  0  0  0  0  0  0  0
  -27.1072  -12.5889  146.3279 C   0  0  0  0  0  0  0  0  0  0  0  0
  -24.5998  -12.4815  146.2585 C   0  0  0  0  0  0  0  0  0  0  0  0
  -27.3679  -11.7191  145.2393 C   0  0  0  0  0  0  0  0  0  0  0  0
  -28.5923  -11.0794  145.0905 C   0  0  0  0  0  0  0  0  0  0  0  0
  -28.9174  -10.2260  144.0209 C   0  0  0  0  0  0  0  0  0  0  0  0
  -28.2584  -10.3908  142.8406 C   0  0  0  0  0  0  0  0  0  0  0  0
  -28.5989   -9.5955  141.7304 C   0  0  0  0  0  0  0  0  0  0  0  0
  -29.4912   -8.4870  141.8720 C   0  0  0  0  0  0  0  0  0  0  0  0
  -29.9072   -7.6992  140.7754 C   0  0  0  0  0  0  0  0  0  0  0  0
  -29.2480   -7.9872  139.5459 C   0  0  0  0  0  0  0  0  0  0  0  0
  -28.3220   -8.9917  139.4034 C   0  0  0  0  0  0  0  0  0  0  0  0
  -27.9861   -9.8019  140.4906 C   0  0  0  0  0  0  0  0  0  0  0  0
  -27.2981  -11.4495  142.7852 C   0  0  0  0  0  0  0  0  0  0  0  0
  -26.8780  -12.1195  144.0134 C   0  0  0  0  0  0  0  0  0  0  0  0
  -27.0089  -17.7921  147.3740 C   0  0  0  0  0  0  0  0  0  0  0  0
  -28.4184  -17.3381  147.2489 C   0  0  0  0  0  0  0  0  0  0  0  0
  -28.7000  -15.8652  147.3087 C   0  0  0  0  0  0  0  0  0  0  0  0
  -27.7731  -14.9707  146.9820 C   0  0  0  0  0  0  0  0  0  0  0  0
  -28.1401  -13.5754  146.7681 C   0  0  0  0  0  0  0  0  0  0  0  0
  -29.1098  -13.0506  147.4416 O   0  0  0  0  0  0  0  0  0  0  0  0
  -30.4104  -13.2593  147.0133 C   0  0  0  0  0  0  0  0  0  0  0  0
  -29.9587   -9.4157  144.1822 O   0  0  0  0  0  0  0  0  0  0  0  0
  -30.2904   -8.5183  143.1561 C   0  0  0  0  0  0  0  0  0  0  0  0
  2  7  1  0
  8  9  1  0
  9 10  1  0
 10 11  2  0
  9 12  1  0
 12 13  1  0
 11 14  1  0
 12 14  1  0
 13 15  1  0
 18 19  1  0
 13 31  1  0
 30 31  1  0
 31 32  1  0
 32 33  1  0
 17 34  1  0
 20 35  1  0
 34 35  1  0
  1  2  2  0
  2  3  1  0
  3  4  2  0
  4  5  1  0
  5  6  2  0
  6  1  1  0
 19 20  2  0
 20 21  1  0
 21 22  2  0
 22 23  1  0
 23 24  2  0
 24 19  1  0
 15 16  2  0
 16 17  1  0
 17 18  2  0
 18 25  1  0
 25 26  2  0
 26 15  1  0
  7  8  1  0
  8 30  2  0
 30 29  1  0
 29 28  2  0
 28 27  1  0
 27  7  2  0
M  END

$$$$
No_557-/dssg/home/sw_qyf/PocketFlow/Model-Generation-Results/5HT2A_7WC7_rec_A_10.pdb/2024-01-01-03-54-21/
     RDKit          3D

 17 17  0  0  0  0  0  0  0  0999 V2000
  -24.1553  -17.8465  145.7021 C   0  0  0  0  0  0  0  0  0  0  0  0
  -23.9795  -18.4462  146.7426 C   0  0  0  0  0  0  0  0  0  0  0  0
  -24.2723  -16.4220  145.8037 C   0  0  0  0  0  0  0  0  0  0  0  0
  -24.4785  -15.8076  147.0396 C   0  0  0  0  0  0  0  0  0  0  0  0
  -24.0382  -17.9349  148.0735 C   0  0  0  0  0  0  0  0  0  0  0  0
  -24.2300  -16.5712  148.2530 C   0  0  0  0  0  0  0  0  0  0  0  0
  -24.3879  -15.7247  144.5493 C   0  0  0  0  0  0  0  0  0  0  0  0
  -23.5926  -14.4923  144.4398 C   0  0  0  0  0  0  0  0  0  0  0  0
  -24.4206  -13.2782  144.7009 C   0  0  0  0  0  0  0  0  0  0  0  0
  -25.7122  -13.2352  144.4737 C   0  0  0  0  0  0  0  0  0  0  0  0
  -26.4327  -12.0571  144.9960 C   0  0  0  0  0  0  0  0  0  0  0  0
  -27.3802  -11.5281  144.6442 C   0  0  0  0  0  0  0  0  0  0  0  0
  -28.1874  -11.4213  143.8068 C   0  0  0  0  0  0  0  0  0  0  0  0
  -29.3471  -10.5260  143.6471 C   0  0  0  0  0  0  0  0  0  0  0  0
  -29.7055   -9.7753  142.6597 C   0  0  0  0  0  0  0  0  0  0  0  0
  -29.1428  -10.0723  141.3875 C   0  0  0  0  0  0  0  0  0  0  0  0
  -28.1068  -11.0327  141.3055 C   0  0  0  0  0  0  0  0  0  0  0  0
  3  7  1  0
  7  8  1  0
  8  9  1  0
  9 10  1  0
 10 11  1  0
 11 12  2  3
 12 13  1  0
 13 14  2  3
 14 15  1  0
 15 16  2  3
 16 17  1  0
  1  2  2  0
  2  5  1  0
  5  6  2  0
  6  4  1  0
  4  3  2  0
  3  1  1  0
M  END

$$$$
No_558-/dssg/home/sw_qyf/PocketFlow/Model-Generation-Results/5HT2A_7WC7_rec_A_10.pdb/2024-01-01-03-54-21/
     RDKit          3D

 35 39  0  0  0  0  0  0  0  0999 V2000
  -24.1553  -17.8465  145.7021 C   0  0  0  0  0  0  0  0  0  0  0  0
  -23.9795  -18.4462  146.7426 C   0  0  0  0  0  0  0  0  0  0  0  0
  -25.1196  -16.8105  145.6408 C   0  0  0  0  0  0  0  0  0  0  0  0
  -25.9236  -16.5070  146.7422 C   0  0  0  0  0  0  0  0  0  0  0  0
  -26.9588  -15.5563  146.6457 C   0  0  0  0  0  0  0  0  0  0  0  0
  -28.0525  -15.5152  147.4931 C   0  0  0  0  0  0  0  0  0  0  0  0
  -24.6778  -18.1822  147.9447 C   0  0  0  0  0  0  0  0  0  0  0  0
  -25.6764  -17.1706  147.9456 C   0  0  0  0  0  0  0  0  0  0  0  0
  -29.0399  -14.5186  147.4031 C   0  0  0  0  0  0  0  0  0  0  0  0
  -28.9104  -13.4355  146.5841 C   0  0  0  0  0  0  0  0  0  0  0  0
  -27.7926  -13.3954  145.6920 C   0  0  0  0  0  0  0  0  0  0  0  0
  -26.8304  -14.3576  145.7555 C   0  0  0  0  0  0  0  0  0  0  0  0
  -27.5771  -12.2365  144.7907 C   0  0  0  0  0  0  0  0  0  0  0  0
  -27.3705  -10.9493  145.2349 C   0  0  0  0  0  0  0  0  0  0  0  0
  -27.2982   -9.9759  144.2140 C   0  0  0  0  0  0  0  0  0  0  0  0
  -27.5617  -12.4954  143.4099 C   0  0  0  0  0  0  0  0  0  0  0  0
  -27.7640  -11.6186  142.4103 C   0  0  0  0  0  0  0  0  0  0  0  0
  -27.5536  -10.2257  142.9375 C   0  0  0  0  0  0  0  0  0  0  0  0
  -27.9284  -11.9006  141.0919 C   0  0  0  0  0  0  0  0  0  0  0  0
  -27.9741  -13.1193  140.5131 C   0  0  0  0  0  0  0  0  0  0  0  0
  -28.0563  -10.8038  140.1242 C   0  0  0  0  0  0  0  0  0  0  0  0
  -27.4773  -10.9132  138.8155 C   0  0  0  0  0  0  0  0  0  0  0  0
  -27.7295  -12.2144  138.2590 C   0  0  0  0  0  0  0  0  0  0  0  0
  -27.6673  -13.2732  139.2035 N   0  0  0  0  0  0  0  0  0  0  0  0
  -29.8366  -12.4282  146.5163 N   0  0  0  0  0  0  0  0  0  0  0  0
  -30.1623  -11.7540  147.8136 C   0  0  0  0  0  0  0  0  0  0  0  0
  -25.2338  -16.1561  144.5103 F   0  0  0  0  0  0  0  0  0  0  0  0
  -23.4653  -18.0449  144.5550 O   0  0  0  0  0  0  0  0  0  0  0  0
  -31.3496  -12.4283  148.4603 C   0  0  0  0  0  0  0  0  0  0  0  0
  -32.3202  -12.1005  148.5177 C   0  0  0  0  0  0  0  0  0  0  0  0
  -32.7471  -10.7137  148.3865 C   0  0  0  0  0  0  0  0  0  0  0  0
  -34.0566  -10.3804  149.1008 C   0  0  0  0  0  0  0  0  0  0  0  0
  -33.9442  -10.9861  150.3999 C   0  0  0  0  0  0  0  0  0  0  0  0
  -33.4667  -12.2753  150.7190 C   0  0  0  0  0  0  0  0  0  0  0  0
  -32.5276  -12.7283  149.8524 C   0  0  0  0  0  0  0  0  0  0  0  0
  4  5  1  0
 11 13  1  0
 17 19  1  0
 10 25  1  0
 25 26  1  0
  3 27  1  0
  1 28  1  0
 26 29  1  0
 29 30  1  0
 30 31  2  0
 31 32  1  0
 32 33  2  0
 33 34  1  0
 34 35  2  0
 35 30  1  0
  1  2  2  0
  2  7  1  0
  7  8  2  0
  8  4  1  0
  4  3  2  0
  3  1  1  0
 13 14  2  0
 14 15  1  0
 15 18  2  0
 18 17  1  0
 17 16  2  0
 16 13  1  0
 19 20  2  0
 20 24  1  0
 24 23  2  0
 23 22  1  0
 22 21  2  0
 21 19  1  0
  5  6  2  0
  6  9  1  0
  9 10  2  0
 10 11  1  0
 11 12  2  0
 12  5  1  0
M  END

$$$$
No_559-/dssg/home/sw_qyf/PocketFlow/Model-Generation-Results/5HT2A_7WC7_rec_A_10.pdb/2024-01-01-03-54-21/
     RDKit          3D

 35 37  0  0  0  0  0  0  0  0999 V2000
  -24.1553  -17.8465  145.7021 C   0  0  0  0  0  0  0  0  0  0  0  0
  -24.6364  -17.2931  146.7091 C   0  0  0  0  0  0  0  0  0  0  0  0
  -25.8608  -16.5592  146.5934 C   0  0  0  0  0  0  0  0  0  0  0  0
  -25.9533  -15.5604  145.6681 C   0  0  0  0  0  0  0  0  0  0  0  0
  -27.0179  -14.6632  145.5500 C   0  0  0  0  0  0  0  0  0  0  0  0
  -27.8199  -14.2508  146.5176 C   0  0  0  0  0  0  0  0  0  0  0  0
  -28.7252  -13.1756  146.4627 C   0  0  0  0  0  0  0  0  0  0  0  0
  -29.6596  -12.7671  147.4836 C   0  0  0  0  0  0  0  0  0  0  0  0
  -23.8667  -16.7941  144.6091 C   0  0  0  0  0  0  0  0  0  0  0  0
  -24.4782  -15.4567  145.0026 C   0  0  0  0  0  0  0  0  0  0  0  0
  -30.1716  -13.7955  148.3497 C   0  0  0  0  0  0  0  0  0  0  0  0
  -31.1343  -13.4650  149.3083 C   0  0  0  0  0  0  0  0  0  0  0  0
  -31.6349  -14.3155  150.2100 C   0  0  0  0  0  0  0  0  0  0  0  0
  -32.6515  -13.9525  151.1223 C   0  0  0  0  0  0  0  0  0  0  0  0
  -33.1799  -12.6235  151.0005 C   0  0  0  0  0  0  0  0  0  0  0  0
  -32.7619  -11.7760  150.0769 C   0  0  0  0  0  0  0  0  0  0  0  0
  -31.7432  -12.1478  149.1936 C   0  0  0  0  0  0  0  0  0  0  0  0
  -23.9993  -14.1964  144.5027 C   0  0  0  0  0  0  0  0  0  0  0  0
  -24.6250  -13.1674  144.8266 O   0  0  0  0  0  0  0  0  0  0  0  0
  -22.9094  -14.1452  143.9035 O   0  0  0  0  0  0  0  0  0  0  0  0
  -28.5309  -12.2347  145.3401 C   0  0  0  0  0  0  0  0  0  0  0  0
  -27.4464  -12.0290  144.6542 C   0  0  0  0  0  0  0  0  0  0  0  0
  -26.8289  -13.4269  144.3267 C   0  0  0  0  0  0  0  0  0  0  0  0
  -24.8054  -18.3888  147.9926 C   0  0  0  0  0  0  0  0  0  0  0  0
  -29.5680  -11.1150  145.2868 C   0  0  0  0  0  0  0  0  0  0  0  0
  -30.2592  -10.7124  146.2711 O   0  0  0  0  0  0  0  0  0  0  0  0
  -29.5451  -10.4547  144.1623 O   0  0  0  0  0  0  0  0  0  0  0  0
  -30.5984   -9.6030  143.9057 C   0  0  0  0  0  0  0  0  0  0  0  0
  -30.9409   -9.4584  142.5477 C   0  0  0  0  0  0  0  0  0  0  0  0
  -31.5782   -8.1388  142.2565 C   0  0  0  0  0  0  0  0  0  0  0  0
  -30.4152   -7.3990  141.9200 F   0  0  0  0  0  0  0  0  0  0  0  0
  -32.0194   -7.5742  143.4027 F   0  0  0  0  0  0  0  0  0  0  0  0
  -29.9083   -9.8711  141.7574 O   0  0  0  0  0  0  0  0  0  0  0  0
  -23.8626  -17.8601  149.2695 C   0  0  0  0  0  0  0  0  0  0  0  0
  -23.9926  -16.3977  149.4720 C   0  0  0  0  0  0  0  0  0  0  0  0
  1  2  1  0
  2  3  1  0
  3  4  1  0
  4  5  1  0
  7  8  1  0
  1  9  1  0
  4 10  1  0
  9 10  1  0
  8 11  2  3
 11 12  1  0
 10 18  1  0
 18 19  1  0
 18 20  2  0
  2 24  1  0
 21 25  1  0
 25 26  2  0
 25 27  1  0
 27 28  1  0
 28 29  1  0
 29 30  1  0
 30 31  1  0
 30 32  1  0
 29 33  1  0
 24 34  1  0
 34 35  1  0
 12 13  2  0
 13 14  1  0
 14 15  2  0
 15 16  1  0
 16 17  2  0
 17 12  1  0
  5  6  2  0
  6  7  1  0
  7 21  2  0
 21 22  1  0
 22 23  2  0
 23  5  1  0
M  END

$$$$
No_560-/dssg/home/sw_qyf/PocketFlow/Model-Generation-Results/5HT2A_7WC7_rec_A_10.pdb/2024-01-01-03-54-21/
     RDKit          3D

 31 36  0  0  0  0  0  0  0  0999 V2000
  -24.1553  -17.8465  145.7021 C   0  0  0  0  0  0  0  0  0  0  0  0
  -24.2855  -16.6364  145.3494 C   0  0  0  0  0  0  0  0  0  0  0  0
  -25.0033  -15.6772  146.0737 C   0  0  0  0  0  0  0  0  0  0  0  0
  -25.7224  -16.0756  147.0214 C   0  0  0  0  0  0  0  0  0  0  0  0
  -24.8891  -18.3427  146.7818 C   0  0  0  0  0  0  0  0  0  0  0  0
  -25.6059  -17.4168  147.5658 C   0  0  0  0  0  0  0  0  0  0  0  0
  -23.5571  -16.0856  144.2249 N   0  0  0  0  0  0  0  0  0  0  0  0
  -25.0274  -14.2953  145.3508 C   0  0  0  0  0  0  0  0  0  0  0  0
  -25.7744  -13.3282  146.0775 C   0  0  0  0  0  0  0  0  0  0  0  0
  -25.6994  -11.9949  145.7553 C   0  0  0  0  0  0  0  0  0  0  0  0
  -24.2604  -13.8894  144.3276 C   0  0  0  0  0  0  0  0  0  0  0  0
  -26.8285  -11.1161  145.9182 C   0  0  0  0  0  0  0  0  0  0  0  0
  -23.4583  -14.9208  143.7911 N   0  0  0  0  0  0  0  0  0  0  0  0
  -27.8230  -11.2534  144.9417 C   0  0  0  0  0  0  0  0  0  0  0  0
  -27.9217  -10.5466  143.9977 C   0  0  0  0  0  0  0  0  0  0  0  0
  -27.4077  -10.3611  143.0744 C   0  0  0  0  0  0  0  0  0  0  0  0
  -27.7961   -9.6081  141.8445 C   0  0  0  0  0  0  0  0  0  0  0  0
  -29.0699   -8.9426  141.9092 C   0  0  0  0  0  0  0  0  0  0  0  0
  -29.8328   -9.0796  143.0916 C   0  0  0  0  0  0  0  0  0  0  0  0
  -29.4223   -9.8572  144.1311 C   0  0  0  0  0  0  0  0  0  0  0  0
  -31.1858   -8.4168  143.1875 C   0  0  0  0  0  0  0  0  0  0  0  0
  -31.8774   -8.4265  143.9408 O   0  0  0  0  0  0  0  0  0  0  0  0
  -31.5319   -7.9161  141.9144 O   0  0  0  0  0  0  0  0  0  0  0  0
  -28.6552  -12.4468  145.2901 C   0  0  0  0  0  0  0  0  0  0  0  0
  -28.2928  -13.3197  146.3702 C   0  0  0  0  0  0  0  0  0  0  0  0
  -27.0186  -14.0670  146.3173 C   0  0  0  0  0  0  0  0  0  0  0  0
  -27.0240  -15.3717  146.9044 C   0  0  0  0  0  0  0  0  0  0  0  0
  -29.4885  -14.1850  146.8595 C   0  0  0  0  0  0  0  0  0  0  0  0
  -30.8576  -13.2971  147.1897 Cl  0  0  0  0  0  0  0  0  0  0  0  0
  -29.6171  -15.5822  146.4831 C   0  0  0  0  0  0  0  0  0  0  0  0
  -28.2452  -16.1735  147.2204 C   0  0  0  0  0  0  0  0  0  0  0  0
  1  2  1  0
  2  3  1  0
  1  5  1  0
  4  6  1  0
  5  6  1  0
  2  7  1  0
  8 11  1  0
 10 12  1  0
  7 13  1  0
 11 13  1  0
 12 14  1  0
 14 15  1  0
 19 21  1  0
 21 22  1  0
 21 23  2  0
 14 24  1  0
 24 25  1  0
 25 26  1  0
 25 28  1  0
 28 29  1  0
 28 30  1  0
 27 31  1  0
 30 31  1  0
 10  9  1  0
 15 16  2  0
 16 17  1  0
 17 18  2  0
 18 19  1  0
 19 20  2  0
 20 15  1  0
  3  4  2  0
  4 27  1  0
 27 26  2  0
 26  9  1  0
  9  8  2  0
  8  3  1  0
M  END

$$$$
No_561-/dssg/home/sw_qyf/PocketFlow/Model-Generation-Results/5HT2A_7WC7_rec_A_10.pdb/2024-01-01-03-54-21/
     RDKit          3D

 21 22  0  0  0  0  0  0  0  0999 V2000
  -23.1746  -16.6014  144.8668 C   0  0  0  0  0  0  0  0  0  0  0  0
  -23.7011  -17.0158  145.9774 C   0  0  0  0  0  0  0  0  0  0  0  0
  -24.2134  -16.0722  146.8877 C   0  0  0  0  0  0  0  0  0  0  0  0
  -23.3742  -15.2706  144.3922 C   0  0  0  0  0  0  0  0  0  0  0  0
  -24.0638  -14.3065  145.2723 C   0  0  0  0  0  0  0  0  0  0  0  0
  -24.4769  -14.7246  146.5384 C   0  0  0  0  0  0  0  0  0  0  0  0
  -24.1970  -12.9801  144.9076 N   0  0  0  0  0  0  0  0  0  0  0  0
  -23.2321  -12.1426  145.4800 C   0  0  0  0  0  0  0  0  0  0  0  0
  -23.5490  -18.4279  146.4630 C   0  0  0  0  0  0  0  0  0  0  0  0
  -22.5977  -18.8229  146.9382 O   0  0  0  0  0  0  0  0  0  0  0  0
  -24.6736  -19.1955  146.2605 N   0  0  0  0  0  0  0  0  0  0  0  0
  -25.3335  -12.4899  144.4163 C   0  0  0  0  0  0  0  0  0  0  0  0
  -25.9046  -13.1411  143.5975 O   0  0  0  0  0  0  0  0  0  0  0  0
  -25.2790  -11.0159  144.0930 C   0  0  0  0  0  0  0  0  0  0  0  0
  -26.6506  -10.3717  144.4061 C   0  0  0  0  0  0  0  0  0  0  0  0
  -27.4788  -11.1543  145.2181 C   0  0  0  0  0  0  0  0  0  0  0  0
  -28.9127  -10.8848  145.1259 C   0  0  0  0  0  0  0  0  0  0  0  0
  -29.7785  -11.5571  146.1203 C   0  0  0  0  0  0  0  0  0  0  0  0
  -29.2230  -12.4477  147.0570 C   0  0  0  0  0  0  0  0  0  0  0  0
  -27.8326  -12.7472  146.9959 C   0  0  0  0  0  0  0  0  0  0  0  0
  -27.0085  -12.0627  146.2341 C   0  0  0  0  0  0  0  0  0  0  0  0
  5  7  1  0
  7  8  1  0
  2  9  1  0
  9 10  2  0
  9 11  1  0
  7 12  1  0
 12 13  1  0
 12 14  1  0
 14 15  1  0
 15 16  1  0
  1  2  2  0
  2  3  1  0
  3  6  2  0
  6  5  1  0
  5  4  2  0
  4  1  1  0
 16 17  2  0
 17 18  1  0
 18 19  2  0
 19 20  1  0
 20 21  2  0
 21 16  1  0
M  END

$$$$
No_562-/dssg/home/sw_qyf/PocketFlow/Model-Generation-Results/5HT2A_7WC7_rec_A_10.pdb/2024-01-01-03-54-21/
     RDKit          3D

 28 30  0  0  0  0  0  0  0  0999 V2000
  -23.1746  -16.6014  144.8668 C   0  0  0  0  0  0  0  0  0  0  0  0
  -23.8963  -15.5346  144.7885 C   0  0  0  0  0  0  0  0  0  0  0  0
  -23.6398  -14.5115  145.3282 C   0  0  0  0  0  0  0  0  0  0  0  0
  -23.4463  -13.2703  144.4419 C   0  0  0  0  0  0  0  0  0  0  0  0
  -23.6634  -17.6155  145.8685 C   0  0  0  0  0  0  0  0  0  0  0  0
  -23.6530  -17.1930  147.1730 C   0  0  0  0  0  0  0  0  0  0  0  0
  -23.4098  -17.9690  148.2890 C   0  0  0  0  0  0  0  0  0  0  0  0
  -23.4478  -17.3259  149.5964 C   0  0  0  0  0  0  0  0  0  0  0  0
  -22.9687  -12.1259  145.2544 C   0  0  0  0  0  0  0  0  0  0  0  0
  -23.9092  -11.7632  146.3569 C   0  0  0  0  0  0  0  0  0  0  0  0
  -24.6159  -12.9785  147.0405 C   0  0  0  0  0  0  0  0  0  0  0  0
  -24.7475  -14.1643  146.3748 C   0  0  0  0  0  0  0  0  0  0  0  0
  -23.7061  -18.9016  145.5820 O   0  0  0  0  0  0  0  0  0  0  0  0
  -22.2392  -16.8869  150.2103 C   0  0  0  0  0  0  0  0  0  0  0  0
  -21.5354  -16.0797  149.7115 F   0  0  0  0  0  0  0  0  0  0  0  0
  -22.5902  -16.4216  151.5783 F   0  0  0  0  0  0  0  0  0  0  0  0
  -25.0410  -15.6572  144.0490 O   0  0  0  0  0  0  0  0  0  0  0  0
  -24.6304  -16.9479  149.9507 O   0  0  0  0  0  0  0  0  0  0  0  0
  -25.7834  -17.4888  149.4393 C   0  0  0  0  0  0  0  0  0  0  0  0
  -26.7829  -17.7526  150.2229 C   0  0  0  0  0  0  0  0  0  0  0  0
  -28.0320  -17.7178  149.9462 O   0  0  0  0  0  0  0  0  0  0  0  0
  -28.3174  -16.7748  148.9864 C   0  0  0  0  0  0  0  0  0  0  0  0
  -29.5052  -16.0333  149.0885 C   0  0  0  0  0  0  0  0  0  0  0  0
  -29.8687  -15.1057  148.0772 C   0  0  0  0  0  0  0  0  0  0  0  0
  -28.9685  -14.8177  147.0430 C   0  0  0  0  0  0  0  0  0  0  0  0
  -27.8177  -15.6215  146.9644 C   0  0  0  0  0  0  0  0  0  0  0  0
  -27.5222  -16.5248  147.9497 C   0  0  0  0  0  0  0  0  0  0  0  0
  -26.1648  -17.1951  148.2258 O   0  0  0  0  0  0  0  0  0  0  0  0
  1  2  1  0
  2  3  1  0
  1  5  1  0
  5  6  1  0
  6  7  2  3
  7  8  1  0
  5 13  1  0
  8 14  1  0
 14 15  1  0
 14 16  1  0
  2 17  2  0
  8 18  1  0
 18 19  1  0
 19 20  1  0
 20 21  1  0
 21 22  1  0
 19 28  1  0
 27 28  1  0
 22 23  2  0
 23 24  1  0
 24 25  2  0
 25 26  1  0
 26 27  2  0
 27 22  1  0
  3  4  2  0
  4  9  1  0
  9 10  2  0
 10 11  1  0
 11 12  2  0
 12  3  1  0
M  END

$$$$
No_563-/dssg/home/sw_qyf/PocketFlow/Model-Generation-Results/5HT2A_7WC7_rec_A_10.pdb/2024-01-01-03-54-21/
     RDKit          3D

 32 35  0  0  0  0  0  0  0  0999 V2000
  -23.1746  -16.6014  144.8668 C   0  0  0  0  0  0  0  0  0  0  0  0
  -24.0189  -16.0564  145.8445 C   0  0  0  0  0  0  0  0  0  0  0  0
  -24.4145  -16.8299  146.9062 C   0  0  0  0  0  0  0  0  0  0  0  0
  -25.2730  -16.2838  147.9150 C   0  0  0  0  0  0  0  0  0  0  0  0
  -25.7557  -17.0717  149.0071 C   0  0  0  0  0  0  0  0  0  0  0  0
  -24.4328  -14.6402  145.6929 C   0  0  0  0  0  0  0  0  0  0  0  0
  -25.4521  -14.0898  145.9878 C   0  0  0  0  0  0  0  0  0  0  0  0
  -25.4588  -12.6974  145.7089 C   0  0  0  0  0  0  0  0  0  0  0  0
  -24.3318  -12.1823  145.2187 C   0  0  0  0  0  0  0  0  0  0  0  0
  -23.3964  -13.6890  145.1140 C   0  0  0  0  0  0  0  0  0  0  0  0
  -26.5556  -11.7175  146.0417 C   0  0  0  0  0  0  0  0  0  0  0  0
  -27.5320  -11.5658  145.0366 C   0  0  0  0  0  0  0  0  0  0  0  0
  -28.8810  -11.3654  145.4630 C   0  0  0  0  0  0  0  0  0  0  0  0
  -29.3879  -11.9871  146.6186 C   0  0  0  0  0  0  0  0  0  0  0  0
  -30.5512  -11.6202  147.3238 C   0  0  0  0  0  0  0  0  0  0  0  0
  -23.9492  -18.1581  147.1425 C   0  0  0  0  0  0  0  0  0  0  0  0
  -23.2700  -18.6462  146.3016 F   0  0  0  0  0  0  0  0  0  0  0  0
  -24.6404  -18.8458  148.2403 C   0  0  0  0  0  0  0  0  0  0  0  0
  -25.2232  -18.2581  149.2602 C   0  0  0  0  0  0  0  0  0  0  0  0
  -27.1945  -11.2974  143.7144 C   0  0  0  0  0  0  0  0  0  0  0  0
  -30.8900  -12.3234  148.4940 C   0  0  0  0  0  0  0  0  0  0  0  0
  -30.2230  -13.6075  148.7249 C   0  0  0  0  0  0  0  0  0  0  0  0
  -29.1565  -14.0254  147.9415 C   0  0  0  0  0  0  0  0  0  0  0  0
  -28.7705  -13.2711  146.8921 C   0  0  0  0  0  0  0  0  0  0  0  0
  -29.8039  -10.7831  144.4896 C   0  0  0  0  0  0  0  0  0  0  0  0
  -30.7924  -10.1703  144.9647 O   0  0  0  0  0  0  0  0  0  0  0  0
  -29.5277  -10.5996  143.2986 N   0  0  0  0  0  0  0  0  0  0  0  0
  -28.2129  -10.8382  142.7804 C   0  0  0  0  0  0  0  0  0  0  0  0
  -27.8354  -10.6097  141.1821 Cl  0  0  0  0  0  0  0  0  0  0  0  0
  -31.9918  -11.9428  149.2281 N   0  0  0  0  0  0  0  0  0  0  0  0
  -33.1874  -12.3220  149.4880 C   0  0  0  0  0  0  0  0  0  0  0  0
  -34.0398  -11.5700  150.3108 C   0  0  0  0  0  0  0  0  0  0  0  0
  1  2  1  0
  2  3  1  0
  2  6  1  0
  6  7  1  0
  7  8  1  0
  8  9  2  0
  6 10  1  0
  9 10  1  0
  8 11  1  0
 11 12  1  0
 16 17  1  0
 25 26  1  0
 28 29  1  0
 21 30  1  0
 30 31  1  0
 31 32  1  0
 13 14  1  0
 12 13  2  0
 13 25  1  0
 25 27  2  0
 27 28  1  0
 28 20  2  0
 20 12  1  0
  3  4  2  0
  4  5  1  0
  5 19  2  0
 19 18  1  0
 18 16  2  0
 16  3  1  0
 14 15  2  0
 15 21  1  0
 21 22  2  0
 22 23  1  0
 23 24  2  0
 24 14  1  0
M  END

$$$$
No_564-/dssg/home/sw_qyf/PocketFlow/Model-Generation-Results/5HT2A_7WC7_rec_A_10.pdb/2024-01-01-03-54-21/
     RDKit          3D

 32 35  0  0  0  0  0  0  0  0999 V2000
  -23.1746  -16.6014  144.8668 C   0  0  0  0  0  0  0  0  0  0  0  0
  -24.0189  -16.0564  145.8445 C   0  0  0  0  0  0  0  0  0  0  0  0
  -24.4850  -14.7380  145.6359 C   0  0  0  0  0  0  0  0  0  0  0  0
  -24.0208  -14.0081  144.6269 C   0  0  0  0  0  0  0  0  0  0  0  0
  -24.4092  -12.5999  144.5318 C   0  0  0  0  0  0  0  0  0  0  0  0
  -25.4740  -12.1564  145.3988 C   0  0  0  0  0  0  0  0  0  0  0  0
  -26.0026  -12.9757  146.4473 C   0  0  0  0  0  0  0  0  0  0  0  0
  -25.5310  -14.3126  146.5215 C   0  0  0  0  0  0  0  0  0  0  0  0
  -24.3440  -16.8341  146.9928 C   0  0  0  0  0  0  0  0  0  0  0  0
  -23.8810  -18.0850  147.1868 C   0  0  0  0  0  0  0  0  0  0  0  0
  -23.1381  -18.6699  146.1161 C   0  0  0  0  0  0  0  0  0  0  0  0
  -22.8910  -18.0075  145.0045 C   0  0  0  0  0  0  0  0  0  0  0  0
  -25.9650  -10.7770  145.3100 C   0  0  0  0  0  0  0  0  0  0  0  0
  -27.0742  -10.5969  144.3295 C   0  0  0  0  0  0  0  0  0  0  0  0
  -27.5246   -9.4821  143.9822 C   0  0  0  0  0  0  0  0  0  0  0  0
  -28.6806   -9.2278  143.2306 C   0  0  0  0  0  0  0  0  0  0  0  0
  -29.2195  -10.3874  142.6513 C   0  0  0  0  0  0  0  0  0  0  0  0
  -28.6655  -11.6224  142.9238 C   0  0  0  0  0  0  0  0  0  0  0  0
  -27.5890  -11.7177  143.7795 C   0  0  0  0  0  0  0  0  0  0  0  0
  -29.2270   -7.9049  142.9185 C   0  0  0  0  0  0  0  0  0  0  0  0
  -29.1963   -7.0055  143.7551 F   0  0  0  0  0  0  0  0  0  0  0  0
  -28.6981   -7.4308  141.6630 F   0  0  0  0  0  0  0  0  0  0  0  0
  -30.6748   -8.0588  142.7960 F   0  0  0  0  0  0  0  0  0  0  0  0
  -30.6628  -10.2479  141.4807 Br  0  0  0  0  0  0  0  0  0  0  0  0
  -25.1177  -16.1847  147.9371 N   0  0  0  0  0  0  0  0  0  0  0  0
  -25.4528  -16.8739  149.1254 C   0  0  0  0  0  0  0  0  0  0  0  0
  -25.7602  -14.9417  147.6922 C   0  0  0  0  0  0  0  0  0  0  0  0
  -24.4835  -17.0400  150.1468 C   0  0  0  0  0  0  0  0  0  0  0  0
  -23.2235  -16.4619  150.1071 C   0  0  0  0  0  0  0  0  0  0  0  0
  -22.1861  -16.7994  151.0970 C   0  0  0  0  0  0  0  0  0  0  0  0
  -26.6417  -17.2669  149.3023 O   0  0  0  0  0  0  0  0  0  0  0  0
  -21.2980  -15.9599  151.4385 O   0  0  0  0  0  0  0  0  0  0  0  0
  2  3  1  0
  6 13  1  0
 13 14  1  0
 16 20  1  0
 20 21  1  0
 20 22  1  0
 20 23  1  0
 17 24  1  0
  9 25  1  0
 25 26  1  0
  8 27  1  0
 25 27  1  0
 26 28  1  0
 28 29  1  0
 29 30  1  0
 26 31  2  0
 30 32  1  0
  1  2  2  0
  2  9  1  0
  9 10  2  0
 10 11  1  0
 11 12  2  0
 12  1  1  0
 14 15  2  0
 15 16  1  0
 16 17  2  0
 17 18  1  0
 18 19  2  0
 19 14  1  0
  3  4  2  0
  4  5  1  0
  5  6  2  0
  6  7  1  0
  7  8  2  0
  8  3  1  0
M  END

$$$$
No_565-/dssg/home/sw_qyf/PocketFlow/Model-Generation-Results/5HT2A_7WC7_rec_A_10.pdb/2024-01-01-03-54-21/
     RDKit          3D

 22 23  0  0  0  0  0  0  0  0999 V2000
  -24.1553  -17.8465  145.7021 C   0  0  0  0  0  0  0  0  0  0  0  0
  -24.2856  -16.6364  145.3494 C   0  0  0  0  0  0  0  0  0  0  0  0
  -24.7837  -15.7223  145.8474 C   0  0  0  0  0  0  0  0  0  0  0  0
  -24.8736  -14.2869  145.3929 C   0  0  0  0  0  0  0  0  0  0  0  0
  -25.5953  -13.2445  145.9611 C   0  0  0  0  0  0  0  0  0  0  0  0
  -25.3343  -11.9118  145.7311 C   0  0  0  0  0  0  0  0  0  0  0  0
  -24.4819  -18.0938  146.8090 C   0  0  0  0  0  0  0  0  0  0  0  0
  -25.0896  -17.2367  147.7367 C   0  0  0  0  0  0  0  0  0  0  0  0
  -25.2121  -15.8958  147.2537 C   0  0  0  0  0  0  0  0  0  0  0  0
  -24.1655  -13.8408  144.2063 C   0  0  0  0  0  0  0  0  0  0  0  0
  -26.4109  -11.4022  145.0566 C   0  0  0  0  0  0  0  0  0  0  0  0
  -27.6854  -11.6906  145.4126 C   0  0  0  0  0  0  0  0  0  0  0  0
  -28.8434  -11.1846  144.8222 C   0  0  0  0  0  0  0  0  0  0  0  0
  -30.1023  -11.2703  145.4415 C   0  0  0  0  0  0  0  0  0  0  0  0
  -30.1072  -12.1127  146.6061 C   0  0  0  0  0  0  0  0  0  0  0  0
  -28.9850  -12.6554  147.2087 C   0  0  0  0  0  0  0  0  0  0  0  0
  -27.7107  -12.4166  146.6272 C   0  0  0  0  0  0  0  0  0  0  0  0
  -26.6067  -13.2823  146.8709 C   0  0  0  0  0  0  0  0  0  0  0  0
  -27.8513  -12.1637  144.5328 C   0  0  0  0  0  0  0  0  0  0  0  0
  -27.5711  -12.6440  143.2182 C   0  0  0  0  0  0  0  0  0  0  0  0
  -27.3188  -11.2354  147.4939 O   0  0  0  0  0  0  0  0  0  0  0  0
  -28.4294  -13.4381  144.6037 O   0  0  0  0  0  0  0  0  0  0  0  0
  3  4  1  0
  4  5  1  0
  5  6  1  0
  4 10  1  0
  6 11  1  0
 11 12  1  0
 12 13  2  3
 13 14  1  0
 14 15  2  3
 15 16  1  0
 16 17  1  0
  5 18  1  0
 17 18  2  3
 12 19  1  0
 19 20  1  0
 17 21  1  0
 19 22  1  0
  1  2  2  0
  2  3  1  0
  3  9  2  0
  9  8  1  0
  8  7  2  0
  7  1  1  0
M  END

$$$$
No_566-/dssg/home/sw_qyf/PocketFlow/Model-Generation-Results/5HT2A_7WC7_rec_A_10.pdb/2024-01-01-03-54-21/
     RDKit          3D

 11 11  0  0  0  0  0  0  0  0999 V2000
  -23.1746  -16.6014  144.8668 C   0  0  0  0  0  0  0  0  0  0  0  0
  -23.7011  -17.0158  145.9774 C   0  0  0  0  0  0  0  0  0  0  0  0
  -24.2134  -16.0722  146.8877 C   0  0  0  0  0  0  0  0  0  0  0  0
  -23.3742  -15.2706  144.3922 C   0  0  0  0  0  0  0  0  0  0  0  0
  -24.0638  -14.3065  145.2723 C   0  0  0  0  0  0  0  0  0  0  0  0
  -24.2650  -12.9175  144.8725 C   0  0  0  0  0  0  0  0  0  0  0  0
  -24.4346  -14.7166  146.5554 C   0  0  0  0  0  0  0  0  0  0  0  0
  -23.1353  -12.3561  144.8080 O   0  0  0  0  0  0  0  0  0  0  0  0
  -25.1815  -12.5114  144.3002 O   0  0  0  0  0  0  0  0  0  0  0  0
  -23.5362  -18.3198  146.4530 N   0  0  0  0  0  0  0  0  0  0  0  0
  -24.3219  -19.2988  146.3128 N   0  0  0  0  0  0  0  0  0  0  0  0
  5  6  1  0
  6  8  1  0
  6  9  2  0
  2 10  1  0
 10 11  1  0
  1  2  2  0
  2  3  1  0
  3  7  2  0
  7  5  1  0
  5  4  2  0
  4  1  1  0
M  END

$$$$
No_567-/dssg/home/sw_qyf/PocketFlow/Model-Generation-Results/5HT2A_7WC7_rec_A_10.pdb/2024-01-01-03-54-21/
     RDKit          3D

 23 25  0  0  0  0  0  0  0  0999 V2000
  -23.1746  -16.6014  144.8668 C   0  0  0  0  0  0  0  0  0  0  0  0
  -24.0189  -16.0564  145.8445 C   0  0  0  0  0  0  0  0  0  0  0  0
  -24.4850  -14.7380  145.6359 C   0  0  0  0  0  0  0  0  0  0  0  0
  -24.0208  -14.0081  144.6269 C   0  0  0  0  0  0  0  0  0  0  0  0
  -24.4092  -12.5999  144.5318 C   0  0  0  0  0  0  0  0  0  0  0  0
  -25.2165  -12.1839  145.5008 C   0  0  0  0  0  0  0  0  0  0  0  0
  -25.7821  -12.8568  146.5220 C   0  0  0  0  0  0  0  0  0  0  0  0
  -25.3613  -14.2280  146.6461 C   0  0  0  0  0  0  0  0  0  0  0  0
  -24.4140  -16.8566  146.9528 C   0  0  0  0  0  0  0  0  0  0  0  0
  -23.9567  -18.0957  147.1636 C   0  0  0  0  0  0  0  0  0  0  0  0
  -23.3561  -18.7868  146.0755 C   0  0  0  0  0  0  0  0  0  0  0  0
  -23.3265  -18.2454  145.0365 N   0  0  0  0  0  0  0  0  0  0  0  0
  -25.5803  -10.8454  145.3872 F   0  0  0  0  0  0  0  0  0  0  0  0
  -25.0954  -16.0824  147.9035 N   0  0  0  0  0  0  0  0  0  0  0  0
  -25.6278  -14.9161  147.7623 N   0  0  0  0  0  0  0  0  0  0  0  0
  -25.5518  -16.8658  149.1508 C   0  0  0  0  0  0  0  0  0  0  0  0
  -24.5237  -16.8338  150.2075 C   0  0  0  0  0  0  0  0  0  0  0  0
  -23.2520  -16.3854  150.0299 C   0  0  0  0  0  0  0  0  0  0  0  0
  -22.2154  -16.7918  151.0347 C   0  0  0  0  0  0  0  0  0  0  0  0
  -20.9829  -16.1639  150.9740 C   0  0  0  0  0  0  0  0  0  0  0  0
  -20.7070  -15.5350  149.8361 O   0  0  0  0  0  0  0  0  0  0  0  0
  -20.1871  -16.1775  151.9886 O   0  0  0  0  0  0  0  0  0  0  0  0
  -26.6702  -17.2009  149.2820 O   0  0  0  0  0  0  0  0  0  0  0  0
  2  3  1  0
  6 13  1  0
  9 14  1  0
  8 15  1  0
 14 15  1  0
 14 16  1  0
 16 17  1  0
 17 18  1  0
 18 19  2  3
 19 20  1  0
 20 21  2  0
 20 22  1  0
 16 23  2  0
  1  2  2  0
  2  9  1  0
  9 10  2  0
 10 11  1  0
 11 12  2  0
 12  1  1  0
  3  4  2  0
  4  5  1  0
  5  6  2  0
  6  7  1  0
  7  8  2  0
  8  3  1  0
M  END

$$$$
No_568-/dssg/home/sw_qyf/PocketFlow/Model-Generation-Results/5HT2A_7WC7_rec_A_10.pdb/2024-01-01-03-54-21/
     RDKit          3D

 35 35  0  0  0  0  0  0  0  0999 V2000
  -23.1746  -16.6014  144.8668 C   0  0  0  0  0  0  0  0  0  0  0  0
  -23.8963  -15.5346  144.7885 C   0  0  0  0  0  0  0  0  0  0  0  0
  -23.4976  -14.2961  145.1226 C   0  0  0  0  0  0  0  0  0  0  0  0
  -24.3175  -13.3088  145.7775 C   0  0  0  0  0  0  0  0  0  0  0  0
  -25.6586  -13.6027  146.0239 C   0  0  0  0  0  0  0  0  0  0  0  0
  -26.5243  -12.6257  146.4591 C   0  0  0  0  0  0  0  0  0  0  0  0
  -25.9583  -11.2646  146.4814 C   0  0  0  0  0  0  0  0  0  0  0  0
  -23.7056  -17.9172  144.8314 C   0  0  0  0  0  0  0  0  0  0  0  0
  -27.9487  -12.6114  146.2929 C   0  0  0  0  0  0  0  0  0  0  0  0
  -28.6897  -13.1971  147.2912 C   0  0  0  0  0  0  0  0  0  0  0  0
  -30.1269  -13.1006  147.4088 C   0  0  0  0  0  0  0  0  0  0  0  0
  -30.5592  -12.2331  148.2201 C   0  0  0  0  0  0  0  0  0  0  0  0
  -24.0123  -18.4052  146.1671 C   0  0  0  0  0  0  0  0  0  0  0  0
  -23.4939  -17.6661  147.2586 C   0  0  0  0  0  0  0  0  0  0  0  0
  -24.4073  -17.6862  148.4593 C   0  0  0  0  0  0  0  0  0  0  0  0
  -25.7350  -17.6001  148.3615 C   0  0  0  0  0  0  0  0  0  0  0  0
  -26.2608  -16.3965  148.7288 C   0  0  0  0  0  0  0  0  0  0  0  0
  -28.5459  -11.6914  145.5458 C   0  0  0  0  0  0  0  0  0  0  0  0
  -29.8364  -11.4542  145.5176 N   0  0  0  0  0  0  0  0  0  0  0  0
  -30.1584  -10.4346  144.6611 C   0  0  0  0  0  0  0  0  0  0  0  0
  -31.2253   -9.8298  144.7608 O   0  0  0  0  0  0  0  0  0  0  0  0
  -29.4894  -10.3255  143.3527 C   0  0  0  0  0  0  0  0  0  0  0  0
  -29.7152   -9.1836  142.6459 C   0  0  0  0  0  0  0  0  0  0  0  0
  -30.8620   -8.4714  142.6988 C   0  0  0  0  0  0  0  0  0  0  0  0
  -31.1167   -7.4590  141.8670 O   0  0  0  0  0  0  0  0  0  0  0  0
  -31.6659  -12.5184  149.2129 C   0  0  0  0  0  0  0  0  0  0  0  0
  -32.7281  -12.2516  149.3910 C   0  0  0  0  0  0  0  0  0  0  0  0
  -33.2828  -11.0632  148.6699 C   0  0  0  0  0  0  0  0  0  0  0  0
  -28.9591   -9.0615  141.3971 C   0  0  0  0  0  0  0  0  0  0  0  0
  -27.9798  -10.0249  141.0724 C   0  0  0  0  0  0  0  0  0  0  0  0
  -27.2917   -9.9239  139.8485 C   0  0  0  0  0  0  0  0  0  0  0  0
  -26.5797  -11.0790  139.4514 C   0  0  0  0  0  0  0  0  0  0  0  0
  -27.1113  -12.3954  139.8946 C   0  0  0  0  0  0  0  0  0  0  0  0
  -27.8646  -12.4617  141.1038 C   0  0  0  0  0  0  0  0  0  0  0  0
  -27.6524  -11.0584  141.9249 C   0  0  0  0  0  0  0  0  0  0  0  0
  1  2  2  3
  2  3  1  0
  3  4  1  0
  4  5  1  0
  5  6  2  3
  6  7  1  0
  1  8  1  0
  6  9  1  0
  9 10  2  3
 10 11  1  0
 11 12  2  3
  8 13  1  0
 13 14  1  0
 14 15  1  0
 15 16  2  3
 16 17  1  0
  9 18  1  0
 18 19  1  0
 19 20  1  0
 20 21  2  0
 20 22  1  0
 22 23  1  0
 23 24  1  0
 24 25  1  0
 12 26  1  0
 26 27  2  3
 27 28  1  0
 23 29  1  0
 29 30  1  0
 30 31  2  0
 31 32  1  0
 32 33  2  0
 33 34  1  0
 34 35  2  0
 35 30  1  0
M  END

$$$$
No_569-/dssg/home/sw_qyf/PocketFlow/Model-Generation-Results/5HT2A_7WC7_rec_A_10.pdb/2024-01-01-03-54-21/
     RDKit          3D

 35 38  0  0  0  0  0  0  0  0999 V2000
  -24.1553  -17.8465  145.7021 C   0  0  0  0  0  0  0  0  0  0  0  0
  -24.2855  -16.6364  145.3494 C   0  0  0  0  0  0  0  0  0  0  0  0
  -23.7824  -15.9602  144.3553 C   0  0  0  0  0  0  0  0  0  0  0  0
  -24.0538  -14.4894  144.2905 C   0  0  0  0  0  0  0  0  0  0  0  0
  -24.6859  -13.9584  145.2506 C   0  0  0  0  0  0  0  0  0  0  0  0
  -25.2468  -14.5867  146.3965 C   0  0  0  0  0  0  0  0  0  0  0  0
  -24.9504  -15.9390  146.4563 C   0  0  0  0  0  0  0  0  0  0  0  0
  -24.8770  -18.2720  146.8301 C   0  0  0  0  0  0  0  0  0  0  0  0
  -25.3400  -17.0495  147.3725 C   0  0  0  0  0  0  0  0  0  0  0  0
  -24.9185  -12.3853  145.2081 C   0  0  0  0  0  0  0  0  0  0  0  0
  -26.2633  -11.8567  145.3260 C   0  0  0  0  0  0  0  0  0  0  0  0
  -26.7916  -10.8190  144.6725 C   0  0  0  0  0  0  0  0  0  0  0  0
  -28.1653  -10.4179  144.8049 C   0  0  0  0  0  0  0  0  0  0  0  0
  -29.0035  -11.1920  145.6823 C   0  0  0  0  0  0  0  0  0  0  0  0
  -28.4095  -12.2427  146.4298 C   0  0  0  0  0  0  0  0  0  0  0  0
  -27.0713  -12.5576  146.2953 C   0  0  0  0  0  0  0  0  0  0  0  0
  -28.8900   -9.3544  144.1093 C   0  0  0  0  0  0  0  0  0  0  0  0
  -28.1980   -8.6636  143.1227 C   0  0  0  0  0  0  0  0  0  0  0  0
  -28.8733   -7.6005  142.4265 C   0  0  0  0  0  0  0  0  0  0  0  0
  -29.6692   -7.8433  141.3090 C   0  0  0  0  0  0  0  0  0  0  0  0
  -29.2614   -7.4228  140.0502 C   0  0  0  0  0  0  0  0  0  0  0  0
  -29.6893   -8.1874  138.8756 C   0  0  0  0  0  0  0  0  0  0  0  0
  -30.2649  -10.8935  145.9254 O   0  0  0  0  0  0  0  0  0  0  0  0
  -26.0918  -16.7678  148.6198 C   0  0  0  0  0  0  0  0  0  0  0  0
  -25.3384  -16.6320  149.6600 F   0  0  0  0  0  0  0  0  0  0  0  0
  -26.7998  -15.5513  148.5161 F   0  0  0  0  0  0  0  0  0  0  0  0
  -28.6595   -8.8380  138.2030 C   0  0  0  0  0  0  0  0  0  0  0  0
  -27.9901   -9.5537  138.9110 F   0  0  0  0  0  0  0  0  0  0  0  0
  -27.8318   -7.9091  137.5218 F   0  0  0  0  0  0  0  0  0  0  0  0
  -26.9498  -17.7113  148.8725 F   0  0  0  0  0  0  0  0  0  0  0  0
  -29.1044   -9.5201  137.0920 F   0  0  0  0  0  0  0  0  0  0  0  0
  -24.1218  -11.7088  144.4642 O   0  0  0  0  0  0  0  0  0  0  0  0
  -30.9974   -8.2704  141.5107 C   0  0  0  0  0  0  0  0  0  0  0  0
  -31.3289   -8.8739  142.9040 C   0  0  0  0  0  0  0  0  0  0  0  0
  -30.3214   -9.6365  143.6376 N   0  0  0  0  0  0  0  0  0  0  0  0
  1  2  1  0
  1  8  2  0
  7  9  1  0
  8  9  1  0
  5 10  1  0
 10 11  1  0
 13 17  1  0
 17 18  1  0
 18 19  1  0
 19 20  1  0
 20 21  2  3
 21 22  1  0
 14 23  1  0
  9 24  1  0
 24 25  1  0
 24 26  1  0
 22 27  1  0
 27 28  1  0
 27 29  1  0
 24 30  1  0
 27 31  1  0
 10 32  2  0
 20 33  1  0
 33 34  1  0
 17 35  1  0
 34 35  1  0
 11 12  2  0
 12 13  1  0
 13 14  2  0
 14 15  1  0
 15 16  2  0
 16 11  1  0
  2  3  2  0
  3  4  1  0
  4  5  2  0
  5  6  1  0
  6  7  2  0
  7  2  1  0
M  END

$$$$
No_570-/dssg/home/sw_qyf/PocketFlow/Model-Generation-Results/5HT2A_7WC7_rec_A_10.pdb/2024-01-01-03-54-21/
     RDKit          3D

 22 24  0  0  0  0  0  0  0  0999 V2000
  -24.1553  -17.8465  145.7021 C   0  0  0  0  0  0  0  0  0  0  0  0
  -24.6364  -17.2931  146.7091 C   0  0  0  0  0  0  0  0  0  0  0  0
  -24.0469  -17.2473  147.9274 C   0  0  0  0  0  0  0  0  0  0  0  0
  -24.6298  -16.6776  149.1482 C   0  0  0  0  0  0  0  0  0  0  0  0
  -25.9999  -16.2560  149.0017 C   0  0  0  0  0  0  0  0  0  0  0  0
  -26.6404  -16.3554  147.8106 C   0  0  0  0  0  0  0  0  0  0  0  0
  -25.9970  -16.9514  146.7138 C   0  0  0  0  0  0  0  0  0  0  0  0
  -23.8295  -16.8692  144.5865 C   0  0  0  0  0  0  0  0  0  0  0  0
  -24.3434  -15.7215  144.8679 O   0  0  0  0  0  0  0  0  0  0  0  0
  -23.8451  -14.5236  144.3877 C   0  0  0  0  0  0  0  0  0  0  0  0
  -24.6876  -13.2908  144.7440 C   0  0  0  0  0  0  0  0  0  0  0  0
  -24.7448  -13.3504  146.1938 C   0  0  0  0  0  0  0  0  0  0  0  0
  -25.6890  -12.2469  146.7389 C   0  0  0  0  0  0  0  0  0  0  0  0
  -25.8118  -11.3100  145.6041 C   0  0  0  0  0  0  0  0  0  0  0  0
  -24.9312  -11.7625  144.5759 C   0  0  0  0  0  0  0  0  0  0  0  0
  -28.0597  -15.8773  147.7385 C   0  0  0  0  0  0  0  0  0  0  0  0
  -28.4472  -14.9458  147.5693 C   0  0  0  0  0  0  0  0  0  0  0  0
  -29.8354  -14.3128  147.4964 C   0  0  0  0  0  0  0  0  0  0  0  0
  -30.1363  -12.9841  147.5805 C   0  0  0  0  0  0  0  0  0  0  0  0
  -29.1504  -12.0208  147.1354 C   0  0  0  0  0  0  0  0  0  0  0  0
  -27.9937  -12.4736  146.6239 C   0  0  0  0  0  0  0  0  0  0  0  0
  -27.5250  -13.8297  146.9497 C   0  0  0  0  0  0  0  0  0  0  0  0
  1  2  2  3
  2  3  1  0
  3  4  1  0
  4  5  1  0
  5  6  1  0
  2  7  1  0
  6  7  1  0
  1  8  1  0
  8  9  1  0
  9 10  1  0
 10 11  1  0
 11 12  1  0
 12 13  1  0
 13 14  1  0
 11 15  1  0
 14 15  1  0
  6 16  1  0
 16 17  1  0
 17 18  2  0
 18 19  1  0
 19 20  2  0
 20 21  1  0
 21 22  2  0
 22 17  1  0
M  END

$$$$
No_571-/dssg/home/sw_qyf/PocketFlow/Model-Generation-Results/5HT2A_7WC7_rec_A_10.pdb/2024-01-01-03-54-21/
     RDKit          3D

 35 39  0  0  0  0  0  0  0  0999 V2000
  -23.1746  -16.6014  144.8668 C   0  0  0  0  0  0  0  0  0  0  0  0
  -23.7011  -17.0158  145.9774 C   0  0  0  0  0  0  0  0  0  0  0  0
  -23.7336  -18.2775  146.3737 C   0  0  0  0  0  0  0  0  0  0  0  0
  -24.1960  -18.6445  147.6858 C   0  0  0  0  0  0  0  0  0  0  0  0
  -24.7100  -17.6145  148.5486 C   0  0  0  0  0  0  0  0  0  0  0  0
  -24.7929  -16.2635  148.0870 C   0  0  0  0  0  0  0  0  0  0  0  0
  -24.2508  -15.9434  146.8891 C   0  0  0  0  0  0  0  0  0  0  0  0
  -22.8159  -17.1770  144.0180 O   0  0  0  0  0  0  0  0  0  0  0  0
  -23.4556  -15.1651  144.4957 N   0  0  0  0  0  0  0  0  0  0  0  0
  -23.9251  -14.1611  145.3523 C   0  0  0  0  0  0  0  0  0  0  0  0
  -24.4091  -14.5690  146.5956 C   0  0  0  0  0  0  0  0  0  0  0  0
  -23.9539  -12.7750  144.8846 C   0  0  0  0  0  0  0  0  0  0  0  0
  -22.7484  -11.9892  145.4268 C   0  0  0  0  0  0  0  0  0  0  0  0
  -25.2230  -12.0745  145.3741 C   0  0  0  0  0  0  0  0  0  0  0  0
  -25.8488  -11.2021  144.4139 C   0  0  0  0  0  0  0  0  0  0  0  0
  -27.0309  -10.4609  144.8264 C   0  0  0  0  0  0  0  0  0  0  0  0
  -27.6717   -9.6195  143.9320 C   0  0  0  0  0  0  0  0  0  0  0  0
  -29.1297   -9.8186  143.7729 C   0  0  0  0  0  0  0  0  0  0  0  0
  -29.8823  -10.0898  144.9403 C   0  0  0  0  0  0  0  0  0  0  0  0
  -29.3373  -11.1583  145.8362 C   0  0  0  0  0  0  0  0  0  0  0  0
  -27.8302  -11.2171  145.8974 C   0  0  0  0  0  0  0  0  0  0  0  0
  -29.7648   -9.5521  142.5236 C   0  0  0  0  0  0  0  0  0  0  0  0
  -30.7677   -8.5566  142.5143 C   0  0  0  0  0  0  0  0  0  0  0  0
  -31.1852   -8.0406  141.4165 O   0  0  0  0  0  0  0  0  0  0  0  0
  -30.0638  -11.7980  146.8904 C   0  0  0  0  0  0  0  0  0  0  0  0
  -30.6116  -11.3063  147.7711 N   0  0  0  0  0  0  0  0  0  0  0  0
  -29.7228  -13.1071  147.1143 N   0  0  0  0  0  0  0  0  0  0  0  0
  -30.5206  -13.5521  148.1624 C   0  0  0  0  0  0  0  0  0  0  0  0
  -31.1015  -12.3515  148.6461 C   0  0  0  0  0  0  0  0  0  0  0  0
  -32.0602  -12.2248  149.7185 C   0  0  0  0  0  0  0  0  0  0  0  0
  -33.0383  -11.2537  149.6860 C   0  0  0  0  0  0  0  0  0  0  0  0
  -32.0102  -13.1150  150.7956 C   0  0  0  0  0  0  0  0  0  0  0  0
  -32.9502  -13.0412  151.8723 C   0  0  0  0  0  0  0  0  0  0  0  0
  -33.7345  -11.8259  151.9415 C   0  0  0  0  0  0  0  0  0  0  0  0
  -33.8513  -11.0306  150.8234 C   0  0  0  0  0  0  0  0  0  0  0  0
  1  2  1  0
  1  8  2  0
  1  9  1  0
  9 10  1  0
  7 11  1  0
 10 12  1  0
 12 13  1  0
 12 14  1  0
 14 15  2  3
 15 16  1  0
 18 22  1  0
 22 23  1  0
 23 24  1  0
 20 25  1  0
 25 26  1  0
 25 27  2  0
 27 28  1  0
 26 29  1  0
 28 29  1  0
 29 30  1  0
 11 10  1  0
 30 31  2  0
 31 35  1  0
 35 34  2  0
 34 33  1  0
 33 32  2  0
 32 30  1  0
  2  3  2  0
  3  4  1  0
  4  5  2  0
  5  6  1  0
  6  7  2  0
  7  2  1  0
 16 17  2  0
 17 18  1  0
 18 19  2  0
 19 20  1  0
 20 21  2  0
 21 16  1  0
M  END

$$$$
No_572-/dssg/home/sw_qyf/PocketFlow/Model-Generation-Results/5HT2A_7WC7_rec_A_10.pdb/2024-01-01-03-54-21/
     RDKit          3D

 27 30  0  0  0  0  0  0  0  0999 V2000
  -23.1746  -16.6014  144.8668 C   0  0  0  0  0  0  0  0  0  0  0  0
  -23.7011  -17.0158  145.9774 C   0  0  0  0  0  0  0  0  0  0  0  0
  -24.7096  -16.6222  146.3577 C   0  0  0  0  0  0  0  0  0  0  0  0
  -25.5380  -15.6354  145.8602 C   0  0  0  0  0  0  0  0  0  0  0  0
  -26.7421  -15.1155  146.4532 C   0  0  0  0  0  0  0  0  0  0  0  0
  -27.4468  -14.0184  146.0154 C   0  0  0  0  0  0  0  0  0  0  0  0
  -26.8664  -13.1547  145.4009 C   0  0  0  0  0  0  0  0  0  0  0  0
  -25.5354  -13.4172  144.8143 C   0  0  0  0  0  0  0  0  0  0  0  0
  -24.8316  -14.5672  145.1949 C   0  0  0  0  0  0  0  0  0  0  0  0
  -23.5436  -15.1100  144.5661 C   0  0  0  0  0  0  0  0  0  0  0  0
  -27.5549  -11.9943  144.7230 C   0  0  0  0  0  0  0  0  0  0  0  0
  -27.4000  -11.4167  143.5663 C   0  0  0  0  0  0  0  0  0  0  0  0
  -28.3001  -10.5723  143.0532 C   0  0  0  0  0  0  0  0  0  0  0  0
  -28.4091  -10.2486  141.6650 C   0  0  0  0  0  0  0  0  0  0  0  0
  -28.3452  -10.9654  140.8565 C   0  0  0  0  0  0  0  0  0  0  0  0
  -27.7995  -10.6945  139.4996 C   0  0  0  0  0  0  0  0  0  0  0  0
  -27.8791   -9.3554  139.0982 C   0  0  0  0  0  0  0  0  0  0  0  0
  -28.3595   -8.3777  140.0964 C   0  0  0  0  0  0  0  0  0  0  0  0
  -28.5914   -8.8567  141.4119 C   0  0  0  0  0  0  0  0  0  0  0  0
  -29.3023  -10.0612  144.0642 C   0  0  0  0  0  0  0  0  0  0  0  0
  -29.4508  -10.6946  145.3863 C   0  0  0  0  0  0  0  0  0  0  0  0
  -28.5438  -11.6003  145.7856 C   0  0  0  0  0  0  0  0  0  0  0  0
  -30.7966   -9.9791  146.5501 Br  0  0  0  0  0  0  0  0  0  0  0  0
  -23.0367  -18.3179  146.4693 C   0  0  0  0  0  0  0  0  0  0  0  0
  -27.4244  -11.6788  138.5268 C   0  0  0  0  0  0  0  0  0  0  0  0
  -26.4867  -12.5462  138.8584 O   0  0  0  0  0  0  0  0  0  0  0  0
  -28.0879  -11.9059  137.4998 O   0  0  0  0  0  0  0  0  0  0  0  0
  7 11  1  0
 13 14  1  0
 21 23  1  0
  2 24  1  0
 16 25  1  0
 25 26  1  0
 25 27  2  0
 11 12  2  0
 12 13  1  0
 13 20  2  0
 20 21  1  0
 21 22  2  0
 22 11  1  0
 14 15  2  0
 15 16  1  0
 16 17  2  0
 17 18  1  0
 18 19  2  0
 19 14  1  0
  1  2  2  0
  2  3  1  0
  3  4  2  0
  9 10  2  0
 10  1  1  0
  4  5  1  0
  5  6  2  0
  6  7  1  0
  7  8  2  0
  8  9  1  0
  9  4  1  0
M  END

$$$$
No_573-/dssg/home/sw_qyf/PocketFlow/Model-Generation-Results/5HT2A_7WC7_rec_A_10.pdb/2024-01-01-03-54-21/
     RDKit          3D

 19 21  0  0  0  0  0  0  0  0999 V2000
  -24.1553  -17.8465  145.7021 C   0  0  0  0  0  0  0  0  0  0  0  0
  -24.2856  -16.6364  145.3494 C   0  0  0  0  0  0  0  0  0  0  0  0
  -25.0033  -15.6772  146.0737 C   0  0  0  0  0  0  0  0  0  0  0  0
  -25.1197  -14.2835  145.7299 C   0  0  0  0  0  0  0  0  0  0  0  0
  -25.8358  -13.3153  146.4318 C   0  0  0  0  0  0  0  0  0  0  0  0
  -24.7888  -18.3277  146.8665 C   0  0  0  0  0  0  0  0  0  0  0  0
  -25.5122  -17.4898  147.6544 C   0  0  0  0  0  0  0  0  0  0  0  0
  -25.6629  -16.1113  147.2980 C   0  0  0  0  0  0  0  0  0  0  0  0
  -25.7423  -11.9664  146.1289 C   0  0  0  0  0  0  0  0  0  0  0  0
  -24.9343  -11.5107  145.0792 C   0  0  0  0  0  0  0  0  0  0  0  0
  -23.9503  -13.5910  145.0106 C   0  0  0  0  0  0  0  0  0  0  0  0
  -23.9488  -12.2831  144.6550 C   0  0  0  0  0  0  0  0  0  0  0  0
  -23.7158  -16.1843  144.2145 O   0  0  0  0  0  0  0  0  0  0  0  0
  -26.7290  -11.0984  146.6627 O   0  0  0  0  0  0  0  0  0  0  0  0
  -23.5222  -18.7660  144.9509 O   0  0  0  0  0  0  0  0  0  0  0  0
  -27.5634  -10.5876  145.7854 C   0  0  0  0  0  0  0  0  0  0  0  0
  -27.1974  -10.3582  144.5985 C   0  0  0  0  0  0  0  0  0  0  0  0
  -28.2964   -9.5638  143.5287 Cl  0  0  0  0  0  0  0  0  0  0  0  0
  -25.5403  -10.5073  144.3451 O   0  0  0  0  0  0  0  0  0  0  0  0
  3  4  1  0
  2 13  1  0
  9 14  1  0
  1 15  1  0
 14 16  1  0
 16 17  1  0
 17 18  1  0
 10 19  1  0
 17 19  1  0
  1  2  2  0
  2  3  1  0
  3  8  2  0
  8  7  1  0
  7  6  2  0
  6  1  1  0
  4  5  2  0
  5  9  1  0
  9 10  2  0
 10 12  1  0
 12 11  2  0
 11  4  1  0
M  END

$$$$
No_574-/dssg/home/sw_qyf/PocketFlow/Model-Generation-Results/5HT2A_7WC7_rec_A_10.pdb/2024-01-01-03-54-21/
     RDKit          3D

 29 30  0  0  0  0  0  0  0  0999 V2000
  -23.1746  -16.6014  144.8668 C   0  0  0  0  0  0  0  0  0  0  0  0
  -24.0189  -16.0564  145.8445 C   0  0  0  0  0  0  0  0  0  0  0  0
  -24.4145  -16.8299  146.9062 C   0  0  0  0  0  0  0  0  0  0  0  0
  -25.2730  -16.2838  147.9150 C   0  0  0  0  0  0  0  0  0  0  0  0
  -25.7919  -14.9951  147.6737 C   0  0  0  0  0  0  0  0  0  0  0  0
  -24.5377  -14.6789  145.6474 C   0  0  0  0  0  0  0  0  0  0  0  0
  -24.1196  -13.8271  144.6537 C   0  0  0  0  0  0  0  0  0  0  0  0
  -25.4048  -14.1729  146.7241 C   0  0  0  0  0  0  0  0  0  0  0  0
  -22.9995  -13.8801  144.1685 O   0  0  0  0  0  0  0  0  0  0  0  0
  -24.7843  -12.7321  144.5063 O   0  0  0  0  0  0  0  0  0  0  0  0
  -24.0062  -18.2195  147.0462 C   0  0  0  0  0  0  0  0  0  0  0  0
  -23.4830  -18.7591  147.9559 O   0  0  0  0  0  0  0  0  0  0  0  0
  -24.4685  -19.0588  146.0975 O   0  0  0  0  0  0  0  0  0  0  0  0
  -25.8383  -12.9405  146.7111 O   0  0  0  0  0  0  0  0  0  0  0  0
  -26.7764  -12.3979  147.0105 C   0  0  0  0  0  0  0  0  0  0  0  0
  -27.4719  -11.6129  145.8869 C   0  0  0  0  0  0  0  0  0  0  0  0
  -28.8623  -11.5292  145.7495 C   0  0  0  0  0  0  0  0  0  0  0  0
  -29.8478  -12.0520  146.6091 C   0  0  0  0  0  0  0  0  0  0  0  0
  -29.4581  -13.1241  147.4870 C   0  0  0  0  0  0  0  0  0  0  0  0
  -27.9435  -13.2880  147.7291 C   0  0  0  0  0  0  0  0  0  0  0  0
  -30.3307  -13.8828  148.2563 C   0  0  0  0  0  0  0  0  0  0  0  0
  -29.3054  -10.5169  144.7381 C   0  0  0  0  0  0  0  0  0  0  0  0
  -29.1761  -10.6179  143.6551 N   0  0  0  0  0  0  0  0  0  0  0  0
  -29.7476   -9.8567  142.6263 C   0  0  0  0  0  0  0  0  0  0  0  0
  -29.1767   -9.5679  141.3956 C   0  0  0  0  0  0  0  0  0  0  0  0
  -29.2563   -8.3242  140.7302 C   0  0  0  0  0  0  0  0  0  0  0  0
  -28.6875   -8.0327  139.5365 C   0  0  0  0  0  0  0  0  0  0  0  0
  -27.8638   -9.0182  138.8951 C   0  0  0  0  0  0  0  0  0  0  0  0
  -27.6681  -10.2533  139.6594 C   0  0  0  0  0  0  0  0  0  0  0  0
  1  2  1  0
  6  7  1  0
  7  9  1  0
  7 10  2  0
  3 11  1  0
 11 12  2  0
 11 13  1  0
  8 14  1  0
 14 15  1  0
 19 21  1  0
 17 22  1  0
 22 23  1  0
 23 24  1  0
 24 25  2  3
 25 26  1  0
 26 27  2  3
 27 28  1  0
 28 29  2  0
 15 16  2  0
 16 17  1  0
 17 18  2  0
 18 19  1  0
 19 20  2  0
 20 15  1  0
  2  3  2  0
  3  4  1  0
  4  5  2  0
  5  8  1  0
  8  6  2  0
  6  2  1  0
M  END

$$$$
No_575-/dssg/home/sw_qyf/PocketFlow/Model-Generation-Results/5HT2A_7WC7_rec_A_10.pdb/2024-01-01-03-54-21/
     RDKit          3D

 21 22  0  0  0  0  0  0  0  0999 V2000
  -23.8042  -18.1535  145.4053 O   0  0  0  0  0  0  0  0  0  0  0  0
  -24.3135  -17.1214  145.8338 C   0  0  0  0  0  0  0  0  0  0  0  0
  -24.4856  -15.9950  145.0258 C   0  0  0  0  0  0  0  0  0  0  0  0
  -25.3951  -14.9381  145.2879 C   0  0  0  0  0  0  0  0  0  0  0  0
  -25.2282  -13.6469  144.8697 C   0  0  0  0  0  0  0  0  0  0  0  0
  -23.9513  -13.3795  144.3718 C   0  0  0  0  0  0  0  0  0  0  0  0
  -23.1884  -14.4174  143.8899 N   0  0  0  0  0  0  0  0  0  0  0  0
  -23.2645  -15.6129  144.5463 C   0  0  0  0  0  0  0  0  0  0  0  0
  -26.0916  -12.5730  145.0736 C   0  0  0  0  0  0  0  0  0  0  0  0
  -26.4394  -12.3524  146.3435 C   0  0  0  0  0  0  0  0  0  0  0  0
  -26.7757  -11.9271  144.0360 C   0  0  0  0  0  0  0  0  0  0  0  0
  -27.6838  -12.5667  143.2794 C   0  0  0  0  0  0  0  0  0  0  0  0
  -28.0880  -11.9428  142.0591 C   0  0  0  0  0  0  0  0  0  0  0  0
  -27.7489  -12.4279  140.8283 C   0  0  0  0  0  0  0  0  0  0  0  0
  -27.8503  -11.6355  139.6243 C   0  0  0  0  0  0  0  0  0  0  0  0
  -28.1513  -10.2653  139.7761 C   0  0  0  0  0  0  0  0  0  0  0  0
  -28.1490   -9.3688  138.6552 C   0  0  0  0  0  0  0  0  0  0  0  0
  -28.6358   -8.0152  138.8688 C   0  0  0  0  0  0  0  0  0  0  0  0
  -29.0822   -7.6080  140.2005 C   0  0  0  0  0  0  0  0  0  0  0  0
  -29.0339   -8.5753  141.2810 C   0  0  0  0  0  0  0  0  0  0  0  0
  -28.6089   -9.8419  141.0967 C   0  0  0  0  0  0  0  0  0  0  0  0
  1  2  1  0
  2  3  1  0
  3  4  1  0
  4  5  1  0
  5  6  1  0
  6  7  1  0
  3  8  1  0
  7  8  1  0
  5  9  1  0
  9 10  2  0
  9 11  1  0
 11 12  1  0
 12 13  2  3
 13 14  1  0
 14 15  2  3
 15 16  1  0
 16 17  2  0
 17 18  1  0
 18 19  2  0
 19 20  1  0
 20 21  2  0
 21 16  1  0
M  END

$$$$
No_576-/dssg/home/sw_qyf/PocketFlow/Model-Generation-Results/5HT2A_7WC7_rec_A_10.pdb/2024-01-01-03-54-21/
     RDKit          3D

 23 25  0  0  0  0  0  0  0  0999 V2000
  -23.1746  -16.6014  144.8668 C   0  0  0  0  0  0  0  0  0  0  0  0
  -23.7011  -17.0158  145.9774 C   0  0  0  0  0  0  0  0  0  0  0  0
  -23.7336  -18.2775  146.3737 C   0  0  0  0  0  0  0  0  0  0  0  0
  -24.1960  -18.6445  147.6858 C   0  0  0  0  0  0  0  0  0  0  0  0
  -24.7100  -17.6145  148.5486 C   0  0  0  0  0  0  0  0  0  0  0  0
  -24.7929  -16.2635  148.0870 C   0  0  0  0  0  0  0  0  0  0  0  0
  -24.2508  -15.9434  146.8891 C   0  0  0  0  0  0  0  0  0  0  0  0
  -23.0996  -15.3329  144.5430 N   0  0  0  0  0  0  0  0  0  0  0  0
  -23.8667  -14.3002  145.1072 C   0  0  0  0  0  0  0  0  0  0  0  0
  -23.8731  -12.9699  144.6112 C   0  0  0  0  0  0  0  0  0  0  0  0
  -24.2855  -14.5869  146.3838 C   0  0  0  0  0  0  0  0  0  0  0  0
  -22.7367  -12.1575  145.2946 C   0  0  0  0  0  0  0  0  0  0  0  0
  -23.2913  -19.2449  145.6685 O   0  0  0  0  0  0  0  0  0  0  0  0
  -25.1784  -12.3265  144.9322 C   0  0  0  0  0  0  0  0  0  0  0  0
  -26.3171  -12.7403  144.2927 C   0  0  0  0  0  0  0  0  0  0  0  0
  -27.2811  -11.9313  143.7689 C   0  0  0  0  0  0  0  0  0  0  0  0
  -28.1239  -11.2928  144.6866 C   0  0  0  0  0  0  0  0  0  0  0  0
  -29.1401  -10.3557  144.1691 C   0  0  0  0  0  0  0  0  0  0  0  0
  -30.0718   -9.7493  145.0583 C   0  0  0  0  0  0  0  0  0  0  0  0
  -30.9769   -9.0008  144.4893 N   0  0  0  0  0  0  0  0  0  0  0  0
  -30.9567   -8.5864  143.2017 C   0  0  0  0  0  0  0  0  0  0  0  0
  -29.9964   -9.1389  142.3971 C   0  0  0  0  0  0  0  0  0  0  0  0
  -29.1035   -9.9939  142.8508 C   0  0  0  0  0  0  0  0  0  0  0  0
  1  2  1  0
  1  8  1  0
  8  9  1  0
  9 10  1  0
  7 11  1  0
  9 11  1  0
 10 12  1  0
  3 13  1  0
 10 14  1  0
 14 15  1  0
 15 16  1  0
 16 17  2  3
 17 18  1  0
 18 19  2  0
 19 20  1  0
 20 21  2  0
 21 22  1  0
 22 23  2  0
 23 18  1  0
  2  3  2  0
  3  4  1  0
  4  5  2  0
  5  6  1  0
  6  7  2  0
  7  2  1  0
M  END

$$$$
No_577-/dssg/home/sw_qyf/PocketFlow/Model-Generation-Results/5HT2A_7WC7_rec_A_10.pdb/2024-01-01-03-54-21/
     RDKit          3D

 11 11  0  0  0  0  0  0  0  0999 V2000
  -24.1553  -17.8465  145.7021 C   0  0  0  0  0  0  0  0  0  0  0  0
  -23.9795  -18.4462  146.7426 C   0  0  0  0  0  0  0  0  0  0  0  0
  -25.1593  -16.8262  145.6925 C   0  0  0  0  0  0  0  0  0  0  0  0
  -26.3426  -16.9003  146.3448 C   0  0  0  0  0  0  0  0  0  0  0  0
  -27.5316  -16.4146  145.9922 C   0  0  0  0  0  0  0  0  0  0  0  0
  -25.0922  -18.7701  147.4612 F   0  0  0  0  0  0  0  0  0  0  0  0
  -23.3214  -19.6806  146.4373 F   0  0  0  0  0  0  0  0  0  0  0  0
  -23.0218  -17.8874  147.6276 F   0  0  0  0  0  0  0  0  0  0  0  0
  -27.4197  -14.9230  145.7932 C   0  0  0  0  0  0  0  0  0  0  0  0
  -26.3045  -14.5085  144.9996 C   0  0  0  0  0  0  0  0  0  0  0  0
  -25.0506  -15.4264  144.9509 C   0  0  0  0  0  0  0  0  0  0  0  0
  1  2  1  0
  1  3  1  0
  2  6  1  0
  2  7  1  0
  2  8  1  0
  3  4  2  0
  4  5  1  0
  5  9  2  0
  9 10  1  0
 10 11  2  0
 11  3  1  0
M  END

$$$$
No_578-/dssg/home/sw_qyf/PocketFlow/Model-Generation-Results/5HT2A_7WC7_rec_A_10.pdb/2024-01-01-03-54-21/
     RDKit          3D

 13 12  0  0  0  0  0  0  0  0999 V2000
  -23.1746  -16.6014  144.8668 C   0  0  0  0  0  0  0  0  0  0  0  0
  -24.0189  -16.0564  145.8445 C   0  0  0  0  0  0  0  0  0  0  0  0
  -24.4850  -14.7380  145.6359 C   0  0  0  0  0  0  0  0  0  0  0  0
  -24.0208  -14.0081  144.6269 C   0  0  0  0  0  0  0  0  0  0  0  0
  -23.4101  -13.1760  144.7737 C   0  0  0  0  0  0  0  0  0  0  0  0
  -22.5086  -12.4650  143.7782 C   0  0  0  0  0  0  0  0  0  0  0  0
  -24.3606  -16.9017  146.9924 C   0  0  0  0  0  0  0  0  0  0  0  0
  -25.1550  -16.4858  148.0108 C   0  0  0  0  0  0  0  0  0  0  0  0
  -25.4744  -17.3247  149.1039 C   0  0  0  0  0  0  0  0  0  0  0  0
  -24.3304  -17.7961  149.8126 C   0  0  0  0  0  0  0  0  0  0  0  0
  -23.2851  -16.9640  149.9305 C   0  0  0  0  0  0  0  0  0  0  0  0
  -21.6466  -11.4358  144.3759 C   0  0  0  0  0  0  0  0  0  0  0  0
  -22.2208  -11.2966  145.7340 N   0  0  0  0  0  0  0  0  0  0  0  0
  1  2  1  0
  2  3  1  0
  3  4  2  3
  4  5  1  0
  5  6  2  3
  2  7  1  0
  7  8  1  0
  8  9  1  0
  9 10  1  0
 10 11  1  0
  6 12  1  0
 12 13  2  0
M  END

$$$$
No_579-/dssg/home/sw_qyf/PocketFlow/Model-Generation-Results/5HT2A_7WC7_rec_A_10.pdb/2024-01-01-03-54-21/
     RDKit          3D

 26 29  0  0  0  0  0  0  0  0999 V2000
  -23.1746  -16.6014  144.8668 C   0  0  0  0  0  0  0  0  0  0  0  0
  -23.8963  -15.5346  144.7885 C   0  0  0  0  0  0  0  0  0  0  0  0
  -24.5755  -15.0383  145.9043 C   0  0  0  0  0  0  0  0  0  0  0  0
  -25.3266  -13.7882  145.9354 C   0  0  0  0  0  0  0  0  0  0  0  0
  -23.3054  -17.4823  145.9484 C   0  0  0  0  0  0  0  0  0  0  0  0
  -23.9716  -17.0785  147.1156 C   0  0  0  0  0  0  0  0  0  0  0  0
  -24.6279  -15.8542  147.1153 C   0  0  0  0  0  0  0  0  0  0  0  0
  -26.2637  -13.4205  145.9055 C   0  0  0  0  0  0  0  0  0  0  0  0
  -26.8841  -12.0742  145.9059 C   0  0  0  0  0  0  0  0  0  0  0  0
  -28.2591  -11.7550  145.7753 C   0  0  0  0  0  0  0  0  0  0  0  0
  -29.1297  -12.6558  146.6049 C   0  0  0  0  0  0  0  0  0  0  0  0
  -28.6407  -13.9575  146.7898 C   0  0  0  0  0  0  0  0  0  0  0  0
  -27.2863  -14.2913  146.6107 C   0  0  0  0  0  0  0  0  0  0  0  0
  -25.9670  -11.0721  145.3055 C   0  0  0  0  0  0  0  0  0  0  0  0
  -24.1871  -12.7158  145.3750 C   0  0  0  0  0  0  0  0  0  0  0  0
  -24.4092  -11.6530  145.2315 C   0  0  0  0  0  0  0  0  0  0  0  0
  -28.8242  -10.5778  145.2328 C   0  0  0  0  0  0  0  0  0  0  0  0
  -29.5497  -10.6924  144.0957 C   0  0  0  0  0  0  0  0  0  0  0  0
  -29.3209   -9.7922  143.0044 C   0  0  0  0  0  0  0  0  0  0  0  0
  -29.8128   -8.5020  143.0703 C   0  0  0  0  0  0  0  0  0  0  0  0
  -29.6299   -7.5478  141.9922 C   0  0  0  0  0  0  0  0  0  0  0  0
  -29.2188   -8.1023  140.7220 C   0  0  0  0  0  0  0  0  0  0  0  0
  -28.7294   -9.3997  140.7499 C   0  0  0  0  0  0  0  0  0  0  0  0
  -28.8960  -10.2913  141.7958 C   0  0  0  0  0  0  0  0  0  0  0  0
  -28.1722   -9.9107  139.4692 C   0  0  0  0  0  0  0  0  0  0  0  0
  -28.2872   -9.2844  138.2767 C   0  0  0  0  0  0  0  0  0  0  0  0
  3  4  1  0
 10 17  1  0
 17 18  1  0
 18 19  1  0
 23 25  1  0
 25 26  3  0
  4  8  2  0
  9 14  2  0
 14 16  1  0
 16 15  2  0
 15  4  1  0
  1  2  2  0
  2  3  1  0
  3  7  2  0
  7  6  1  0
  6  5  2  0
  5  1  1  0
  8  9  1  0
  9 10  1  0
 10 11  2  0
 11 12  1  0
 12 13  2  0
 13  8  1  0
 19 20  2  0
 20 21  1  0
 21 22  2  0
 22 23  1  0
 23 24  2  0
 24 19  1  0
M  END

$$$$
No_580-/dssg/home/sw_qyf/PocketFlow/Model-Generation-Results/5HT2A_7WC7_rec_A_10.pdb/2024-01-01-03-54-21/
     RDKit          3D

 32 34  0  0  0  0  0  0  0  0999 V2000
  -24.1553  -17.8465  145.7021 C   0  0  0  0  0  0  0  0  0  0  0  0
  -23.9795  -18.4462  146.7426 C   0  0  0  0  0  0  0  0  0  0  0  0
  -24.3577  -16.4380  145.7329 C   0  0  0  0  0  0  0  0  0  0  0  0
  -24.4745  -15.6012  144.5587 C   0  0  0  0  0  0  0  0  0  0  0  0
  -24.5845  -14.1656  144.8311 C   0  0  0  0  0  0  0  0  0  0  0  0
  -24.6908  -13.6330  146.1427 C   0  0  0  0  0  0  0  0  0  0  0  0
  -24.0647  -17.8833  148.0762 C   0  0  0  0  0  0  0  0  0  0  0  0
  -24.3291  -16.5038  148.1786 C   0  0  0  0  0  0  0  0  0  0  0  0
  -24.4512  -15.7595  147.0720 C   0  0  0  0  0  0  0  0  0  0  0  0
  -24.7597  -12.1890  146.2718 C   0  0  0  0  0  0  0  0  0  0  0  0
  -24.6010  -14.3651  147.1667 N   0  0  0  0  0  0  0  0  0  0  0  0
  -26.0275  -11.6159  145.7581 C   0  0  0  0  0  0  0  0  0  0  0  0
  -26.0893  -10.7296  144.7223 C   0  0  0  0  0  0  0  0  0  0  0  0
  -27.2562  -10.1127  144.2842 C   0  0  0  0  0  0  0  0  0  0  0  0
  -28.5134  -10.6135  144.7571 C   0  0  0  0  0  0  0  0  0  0  0  0
  -28.4526  -11.6396  145.7975 C   0  0  0  0  0  0  0  0  0  0  0  0
  -27.2835  -12.1480  146.2114 C   0  0  0  0  0  0  0  0  0  0  0  0
  -29.7447  -10.0630  144.2357 C   0  0  0  0  0  0  0  0  0  0  0  0
  -29.9918  -10.2056  143.0522 O   0  0  0  0  0  0  0  0  0  0  0  0
  -30.6598   -9.2242  142.3820 C   0  0  0  0  0  0  0  0  0  0  0  0
  -30.1326   -7.8337  142.6400 C   0  0  0  0  0  0  0  0  0  0  0  0
  -29.3976   -7.2893  141.4828 C   0  0  0  0  0  0  0  0  0  0  0  0
  -29.0867   -8.1263  140.4071 C   0  0  0  0  0  0  0  0  0  0  0  0
  -28.4427   -9.3138  140.6175 C   0  0  0  0  0  0  0  0  0  0  0  0
  -27.8776  -10.0268  139.5634 C   0  0  0  0  0  0  0  0  0  0  0  0
  -27.1513  -11.2484  139.7959 C   0  0  0  0  0  0  0  0  0  0  0  0
  -27.8963  -12.2654  140.5408 C   0  0  0  0  0  0  0  0  0  0  0  0
  -26.9330  -13.3084  141.1260 C   0  0  0  0  0  0  0  0  0  0  0  0
  -27.1958  -13.6397  142.4626 N   0  0  0  0  0  0  0  0  0  0  0  0
  -32.1348   -9.2948  142.8121 C   0  0  0  0  0  0  0  0  0  0  0  0
  -32.2011   -9.6672  143.9415 O   0  0  0  0  0  0  0  0  0  0  0  0
  -30.7334   -9.7833  145.0892 O   0  0  0  0  0  0  0  0  0  0  0  0
  6 10  1  0
 10 12  1  0
 15 18  1  0
 18 19  1  0
 19 20  1  0
 20 21  1  0
 21 22  1  0
 22 23  1  0
 23 24  2  3
 24 25  1  0
 25 26  1  0
 26 27  1  0
 27 28  1  0
 28 29  1  0
 20 30  1  0
 30 31  1  0
 18 32  2  0
 12 13  2  0
 13 14  1  0
 14 15  2  0
 15 16  1  0
 16 17  2  0
 17 12  1  0
  3  4  2  0
  4  5  1  0
  5  6  2  0
  6 11  1  0
 11  9  2  0
  1  2  2  0
  2  7  1  0
  7  8  2  0
  8  9  1  0
  9  3  1  0
  3  1  1  0
M  END

$$$$
No_581-/dssg/home/sw_qyf/PocketFlow/Model-Generation-Results/5HT2A_7WC7_rec_A_10.pdb/2024-01-01-03-54-21/
     RDKit          3D

 35 36  0  0  0  0  0  0  0  0999 V2000
  -23.1746  -16.6014  144.8668 C   0  0  0  0  0  0  0  0  0  0  0  0
  -23.7011  -17.0158  145.9774 C   0  0  0  0  0  0  0  0  0  0  0  0
  -24.2134  -16.0722  146.8877 C   0  0  0  0  0  0  0  0  0  0  0  0
  -24.7882  -16.3410  148.2078 C   0  0  0  0  0  0  0  0  0  0  0  0
  -23.5800  -15.2232  144.4665 C   0  0  0  0  0  0  0  0  0  0  0  0
  -24.2035  -14.2633  145.2990 C   0  0  0  0  0  0  0  0  0  0  0  0
  -24.5441  -14.6899  146.5406 C   0  0  0  0  0  0  0  0  0  0  0  0
  -24.0677  -17.1762  149.1197 C   0  0  0  0  0  0  0  0  0  0  0  0
  -24.5511  -17.4340  150.4118 C   0  0  0  0  0  0  0  0  0  0  0  0
  -24.3550  -12.8651  144.8819 C   0  0  0  0  0  0  0  0  0  0  0  0
  -24.5131  -11.9466  146.0293 C   0  0  0  0  0  0  0  0  0  0  0  0
  -26.0202  -11.7688  146.2029 C   0  0  0  0  0  0  0  0  0  0  0  0
  -26.7978  -11.6873  145.0135 C   0  0  0  0  0  0  0  0  0  0  0  0
  -26.9536  -10.3535  144.6202 C   0  0  0  0  0  0  0  0  0  0  0  0
  -27.8423   -9.9991  143.5518 C   0  0  0  0  0  0  0  0  0  0  0  0
  -27.9353  -10.8204  142.4739 C   0  0  0  0  0  0  0  0  0  0  0  0
  -27.5898  -12.2586  142.7987 C   0  0  0  0  0  0  0  0  0  0  0  0
  -26.9659  -12.5793  144.0427 C   0  0  0  0  0  0  0  0  0  0  0  0
  -28.6539  -10.5939  141.3137 C   0  0  0  0  0  0  0  0  0  0  0  0
  -28.2099  -11.1249  140.1295 C   0  0  0  0  0  0  0  0  0  0  0  0
  -28.0887  -12.5046  139.9382 C   0  0  0  0  0  0  0  0  0  0  0  0
  -27.4986  -12.9254  138.7697 C   0  0  0  0  0  0  0  0  0  0  0  0
  -27.9594  -10.2380  139.1065 C   0  0  0  0  0  0  0  0  0  0  0  0
  -28.0211   -8.7827  139.3611 C   0  0  0  0  0  0  0  0  0  0  0  0
  -29.1666   -8.1596  138.9619 C   0  0  0  0  0  0  0  0  0  0  0  0
  -29.9538   -8.4261  138.1719 C   0  0  0  0  0  0  0  0  0  0  0  0
  -29.4625   -6.9502  139.9494 C   0  0  0  0  0  0  0  0  0  0  0  0
  -23.4445  -18.3996  146.4940 C   0  0  0  0  0  0  0  0  0  0  0  0
  -29.9994   -7.3274  141.3150 C   0  0  0  0  0  0  0  0  0  0  0  0
  -29.6383   -6.5972  142.4196 C   0  0  0  0  0  0  0  0  0  0  0  0
  -28.7318   -5.5433  142.3935 C   0  0  0  0  0  0  0  0  0  0  0  0
  -28.9349   -4.6530  143.6081 C   0  0  0  0  0  0  0  0  0  0  0  0
  -23.1605  -18.8870  147.4596 O   0  0  0  0  0  0  0  0  0  0  0  0
  -24.1286  -19.2528  145.6235 N   0  0  0  0  0  0  0  0  0  0  0  0
  -27.0290  -12.2956  138.0219 C   0  0  0  0  0  0  0  0  0  0  0  0
  3  4  1  0
  4  8  2  3
  8  9  1  0
  6 10  1  0
 10 11  1  0
 11 12  1  0
 12 13  1  0
 16 19  1  0
 19 20  1  0
 20 21  2  3
 21 22  1  0
 20 23  1  0
 23 24  1  0
 24 25  1  0
 25 26  1  0
 25 27  1  0
  2 28  1  0
 27 29  1  0
 29 30  2  3
 30 31  1  0
 31 32  2  0
 28 33  1  0
 28 34  1  0
 22 35  2  0
  1  2  2  0
  2  3  1  0
  3  7  2  0
  7  6  1  0
  6  5  2  0
  5  1  1  0
 13 14  2  0
 14 15  1  0
 15 16  2  0
 16 17  1  0
 17 18  2  0
 18 13  1  0
M  END

$$$$
No_582-/dssg/home/sw_qyf/PocketFlow/Model-Generation-Results/5HT2A_7WC7_rec_A_10.pdb/2024-01-01-03-54-21/
     RDKit          3D

 35 37  0  0  0  0  0  0  0  0999 V2000
  -24.1553  -17.8465  145.7021 C   0  0  0  0  0  0  0  0  0  0  0  0
  -24.6364  -17.2931  146.7091 C   0  0  0  0  0  0  0  0  0  0  0  0
  -24.0780  -17.2921  147.9389 C   0  0  0  0  0  0  0  0  0  0  0  0
  -24.6761  -16.7363  149.1478 C   0  0  0  0  0  0  0  0  0  0  0  0
  -25.9986  -16.2638  148.9932 C   0  0  0  0  0  0  0  0  0  0  0  0
  -26.6271  -16.3412  147.7729 C   0  0  0  0  0  0  0  0  0  0  0  0
  -25.9735  -16.9165  146.6820 C   0  0  0  0  0  0  0  0  0  0  0  0
  -23.8987  -19.0846  145.6241 F   0  0  0  0  0  0  0  0  0  0  0  0
  -22.8065  -17.2535  145.3135 F   0  0  0  0  0  0  0  0  0  0  0  0
  -28.0628  -15.8947  147.7449 C   0  0  0  0  0  0  0  0  0  0  0  0
  -28.3868  -15.0835  146.5924 C   0  0  0  0  0  0  0  0  0  0  0  0
  -29.6210  -14.4017  146.6408 C   0  0  0  0  0  0  0  0  0  0  0  0
  -29.4825  -13.0695  147.2925 C   0  0  0  0  0  0  0  0  0  0  0  0
  -28.8811  -11.9602  146.5213 C   0  0  0  0  0  0  0  0  0  0  0  0
  -28.8355  -12.0163  145.2605 C   0  0  0  0  0  0  0  0  0  0  0  0
  -29.0119  -10.6805  144.5775 C   0  0  0  0  0  0  0  0  0  0  0  0
  -28.2306  -10.4019  143.4694 C   0  0  0  0  0  0  0  0  0  0  0  0
  -28.7317   -9.4153  142.6012 C   0  0  0  0  0  0  0  0  0  0  0  0
  -29.4356   -8.3386  142.9552 C   0  0  0  0  0  0  0  0  0  0  0  0
  -29.5630   -7.1696  142.1862 C   0  0  0  0  0  0  0  0  0  0  0  0
  -29.9961   -5.9255  142.6867 C   0  0  0  0  0  0  0  0  0  0  0  0
  -29.3963   -7.2637  140.7801 C   0  0  0  0  0  0  0  0  0  0  0  0
  -28.9662   -8.4281  140.1502 C   0  0  0  0  0  0  0  0  0  0  0  0
  -28.6063   -9.5164  141.1219 C   0  0  0  0  0  0  0  0  0  0  0  0
  -27.8888  -10.7161  140.7424 C   0  0  0  0  0  0  0  0  0  0  0  0
  -28.3394  -11.9289  140.9773 C   0  0  0  0  0  0  0  0  0  0  0  0
  -27.7485  -13.0978  140.4692 C   0  0  0  0  0  0  0  0  0  0  0  0
  -26.5533  -12.8659  139.6841 C   0  0  0  0  0  0  0  0  0  0  0  0
  -26.2027  -11.5647  139.2273 C   0  0  0  0  0  0  0  0  0  0  0  0
  -26.8651  -10.5064  139.7544 C   0  0  0  0  0  0  0  0  0  0  0  0
  -24.7465  -17.4310  144.5257 F   0  0  0  0  0  0  0  0  0  0  0  0
  -30.3816  -12.8336  148.4884 C   0  0  0  0  0  0  0  0  0  0  0  0
  -31.7772  -12.6993  148.4152 C   0  0  0  0  0  0  0  0  0  0  0  0
  -32.4241  -12.1742  149.6955 C   0  0  0  0  0  0  0  0  0  0  0  0
  -31.9702  -12.5334  150.8071 C   0  0  0  0  0  0  0  0  0  0  0  0
  1  2  1  0
  1  8  1  0
  1  9  1  0
  6 10  1  0
 10 11  2  3
 11 12  1  0
 12 13  1  0
 13 14  1  0
 14 15  1  0
 15 16  1  0
 16 17  1  0
 17 18  1  0
 20 21  1  0
 24 25  1  0
  1 31  1  0
 13 32  1  0
 32 33  1  0
 33 34  1  0
 34 35  1  0
  2  3  2  0
  3  4  1  0
  4  5  2  0
  5  6  1  0
  6  7  2  0
  7  2  1  0
 25 26  2  0
 26 27  1  0
 27 28  2  0
 28 29  1  0
 29 30  2  0
 30 25  1  0
 18 19  2  0
 19 20  1  0
 20 22  2  0
 22 23  1  0
 23 24  2  0
 24 18  1  0
M  END

$$$$
No_583-/dssg/home/sw_qyf/PocketFlow/Model-Generation-Results/5HT2A_7WC7_rec_A_10.pdb/2024-01-01-03-54-21/
     RDKit          3D

 21 22  0  0  0  0  0  0  0  0999 V2000
  -24.1553  -17.8465  145.7021 C   0  0  0  0  0  0  0  0  0  0  0  0
  -23.9795  -18.4462  146.7426 C   0  0  0  0  0  0  0  0  0  0  0  0
  -24.3577  -16.4380  145.7329 C   0  0  0  0  0  0  0  0  0  0  0  0
  -24.6120  -15.7738  146.9649 C   0  0  0  0  0  0  0  0  0  0  0  0
  -24.9231  -14.3801  146.9818 C   0  0  0  0  0  0  0  0  0  0  0  0
  -24.7000  -13.5386  145.9026 C   0  0  0  0  0  0  0  0  0  0  0  0
  -24.2953  -14.2686  144.6893 C   0  0  0  0  0  0  0  0  0  0  0  0
  -24.1181  -15.5980  144.6219 C   0  0  0  0  0  0  0  0  0  0  0  0
  -24.2325  -17.9054  148.0878 C   0  0  0  0  0  0  0  0  0  0  0  0
  -24.4774  -16.5153  148.2367 C   0  0  0  0  0  0  0  0  0  0  0  0
  -24.9037  -12.1309  145.9460 C   0  0  0  0  0  0  0  0  0  0  0  0
  -26.1402  -11.6341  145.3040 C   0  0  0  0  0  0  0  0  0  0  0  0
  -27.3194  -11.8933  145.9690 C   0  0  0  0  0  0  0  0  0  0  0  0
  -28.5113  -11.3673  145.4322 C   0  0  0  0  0  0  0  0  0  0  0  0
  -28.5518  -10.5011  144.3134 C   0  0  0  0  0  0  0  0  0  0  0  0
  -29.6926   -9.8928  143.8088 C   0  0  0  0  0  0  0  0  0  0  0  0
  -29.7044   -8.8128  142.9939 C   0  0  0  0  0  0  0  0  0  0  0  0
  -30.1688   -7.6165  143.4251 C   0  0  0  0  0  0  0  0  0  0  0  0
  -30.2401   -6.4975  142.4235 C   0  0  0  0  0  0  0  0  0  0  0  0
  -29.7102   -6.8066  141.1283 C   0  0  0  0  0  0  0  0  0  0  0  0
  -29.2630   -8.0446  140.7899 C   0  0  0  0  0  0  0  0  0  0  0  0
  6 11  1  0
 11 12  1  0
 12 13  2  3
 13 14  1  0
 14 15  2  3
 15 16  1  0
 16 17  2  3
 17 18  1  0
 18 19  1  0
 19 20  2  3
 20 21  1  0
  4  5  2  0
  5  6  1  0
  6  7  2  0
  7  8  1  0
  8  3  2  0
  1  2  2  0
  2  9  1  0
  9 10  2  0
 10  4  1  0
  4  3  1  0
  3  1  1  0
M  END

$$$$
No_584-/dssg/home/sw_qyf/PocketFlow/Model-Generation-Results/5HT2A_7WC7_rec_A_10.pdb/2024-01-01-03-54-21/
     RDKit          3D

 35 38  0  0  0  0  0  0  0  0999 V2000
  -24.1553  -17.8465  145.7021 C   0  0  0  0  0  0  0  0  0  0  0  0
  -23.9795  -18.4462  146.7426 C   0  0  0  0  0  0  0  0  0  0  0  0
  -25.1593  -16.8262  145.6925 C   0  0  0  0  0  0  0  0  0  0  0  0
  -24.9465  -15.5961  144.9952 C   0  0  0  0  0  0  0  0  0  0  0  0
  -25.8339  -14.4742  145.0599 C   0  0  0  0  0  0  0  0  0  0  0  0
  -25.6290  -13.3152  144.3271 C   0  0  0  0  0  0  0  0  0  0  0  0
  -24.6336  -18.1358  147.9662 C   0  0  0  0  0  0  0  0  0  0  0  0
  -25.5331  -17.0778  148.0459 C   0  0  0  0  0  0  0  0  0  0  0  0
  -25.6760  -16.2601  146.9321 C   0  0  0  0  0  0  0  0  0  0  0  0
  -26.2982  -14.9827  146.8079 C   0  0  0  0  0  0  0  0  0  0  0  0
  -26.8984  -12.6783  143.9549 C   0  0  0  0  0  0  0  0  0  0  0  0
  -27.8139  -11.8153  145.1072 Cl  0  0  0  0  0  0  0  0  0  0  0  0
  -26.0693  -16.7215  149.2055 O   0  0  0  0  0  0  0  0  0  0  0  0
  -23.6797  -18.1931  144.5558 O   0  0  0  0  0  0  0  0  0  0  0  0
  -27.3304  -12.7106  142.6748 N   0  0  0  0  0  0  0  0  0  0  0  0
  -28.3348  -11.9868  142.2325 C   0  0  0  0  0  0  0  0  0  0  0  0
  -27.8238  -10.9065  141.3765 C   0  0  0  0  0  0  0  0  0  0  0  0
  -28.4089   -9.6043  141.5471 C   0  0  0  0  0  0  0  0  0  0  0  0
  -29.0839   -9.1056  142.6605 C   0  0  0  0  0  0  0  0  0  0  0  0
  -29.6503   -7.8132  142.6146 C   0  0  0  0  0  0  0  0  0  0  0  0
  -29.4627   -7.0658  141.4479 C   0  0  0  0  0  0  0  0  0  0  0  0
  -28.9873   -7.6016  140.2956 C   0  0  0  0  0  0  0  0  0  0  0  0
  -28.4266   -8.8706  140.3073 C   0  0  0  0  0  0  0  0  0  0  0  0
  -27.7671   -9.4095  139.1445 C   0  0  0  0  0  0  0  0  0  0  0  0
  -27.1661  -10.5778  139.2132 N   0  0  0  0  0  0  0  0  0  0  0  0
  -27.3069  -11.3995  140.3102 C   0  0  0  0  0  0  0  0  0  0  0  0
  -27.6249   -8.6988  138.1454 O   0  0  0  0  0  0  0  0  0  0  0  0
  -26.7734  -12.5250  140.1785 O   0  0  0  0  0  0  0  0  0  0  0  0
  -23.0200  -19.4026  146.8403 O   0  0  0  0  0  0  0  0  0  0  0  0
  -29.1842   -9.7101  143.8449 O   0  0  0  0  0  0  0  0  0  0  0  0
  -30.3737   -9.7501  144.4845 C   0  0  0  0  0  0  0  0  0  0  0  0
  -31.3583   -9.1888  144.0844 O   0  0  0  0  0  0  0  0  0  0  0  0
  -30.3391  -10.3410  145.6801 O   0  0  0  0  0  0  0  0  0  0  0  0
  -29.2919  -11.1139  146.1387 C   0  0  0  0  0  0  0  0  0  0  0  0
  -29.3340  -11.9644  147.3870 C   0  0  0  0  0  0  0  0  0  0  0  0
  1  2  1  0
  1  3  1  0
  3  4  2  0
  4  5  1  0
  5  6  2  3
  2  7  1  0
  7  8  1  0
  3  9  1  0
  8  9  1  0
  5 10  1  0
  9 10  1  0
  6 11  1  0
 11 12  1  0
  8 13  1  0
  1 14  2  0
 11 15  1  0
 15 16  1  0
 16 17  1  0
 23 24  1  0
 24 25  1  0
 17 26  1  0
 25 26  1  0
 24 27  2  0
 26 28  2  0
  2 29  1  0
 19 30  1  0
 30 31  1  0
 31 32  2  0
 31 33  1  0
 33 34  1  0
 34 35  1  0
 17 18  1  0
 18 19  2  0
 19 20  1  0
 20 21  2  0
 21 22  1  0
 22 23  2  0
 23 18  1  0
M  END

$$$$
No_585-/dssg/home/sw_qyf/PocketFlow/Model-Generation-Results/5HT2A_7WC7_rec_A_10.pdb/2024-01-01-03-54-21/
     RDKit          3D

 35 39  0  0  0  0  0  0  0  0999 V2000
  -24.1553  -17.8465  145.7021 C   0  0  0  0  0  0  0  0  0  0  0  0
  -24.2856  -16.6364  145.3494 C   0  0  0  0  0  0  0  0  0  0  0  0
  -25.0033  -15.6772  146.0737 C   0  0  0  0  0  0  0  0  0  0  0  0
  -25.6964  -16.1810  147.2049 C   0  0  0  0  0  0  0  0  0  0  0  0
  -24.8143  -18.3454  146.8324 C   0  0  0  0  0  0  0  0  0  0  0  0
  -25.5291  -17.4614  147.6373 C   0  0  0  0  0  0  0  0  0  0  0  0
  -23.6541  -16.0768  144.2055 N   0  0  0  0  0  0  0  0  0  0  0  0
  -25.1820  -14.2638  145.6423 C   0  0  0  0  0  0  0  0  0  0  0  0
  -25.4260  -13.4101  146.1129 C   0  0  0  0  0  0  0  0  0  0  0  0
  -25.5141  -11.9733  145.6976 C   0  0  0  0  0  0  0  0  0  0  0  0
  -26.3065  -11.3242  145.1955 C   0  0  0  0  0  0  0  0  0  0  0  0
  -26.0870   -9.9820  144.5719 C   0  0  0  0  0  0  0  0  0  0  0  0
  -27.7402  -11.7761  145.1784 C   0  0  0  0  0  0  0  0  0  0  0  0
  -28.8007  -10.9192  144.6260 C   0  0  0  0  0  0  0  0  0  0  0  0
  -30.1312  -11.2560  144.8084 C   0  0  0  0  0  0  0  0  0  0  0  0
  -28.4410   -9.6288  144.1118 C   0  0  0  0  0  0  0  0  0  0  0  0
  -27.0991   -9.2206  144.1074 C   0  0  0  0  0  0  0  0  0  0  0  0
  -31.0314  -10.9035  144.1675 O   0  0  0  0  0  0  0  0  0  0  0  0
  -30.4103  -12.0675  145.8765 O   0  0  0  0  0  0  0  0  0  0  0  0
  -24.6305  -14.1360  144.2221 C   0  0  0  0  0  0  0  0  0  0  0  0
  -24.7809  -12.9598  143.7555 O   0  0  0  0  0  0  0  0  0  0  0  0
  -23.9057  -15.1438  143.6172 C   0  0  0  0  0  0  0  0  0  0  0  0
  -30.6119   -9.8737  143.2420 C   0  0  0  0  0  0  0  0  0  0  0  0
  -29.4278   -9.2751  143.1601 C   0  0  0  0  0  0  0  0  0  0  0  0
  -31.7078   -9.4589  142.4281 O   0  0  0  0  0  0  0  0  0  0  0  0
  -29.6371  -13.0155  146.4424 C   0  0  0  0  0  0  0  0  0  0  0  0
  -28.2805  -13.0314  146.1219 C   0  0  0  0  0  0  0  0  0  0  0  0
  -30.0921  -14.0247  147.3036 C   0  0  0  0  0  0  0  0  0  0  0  0
  -29.6424  -15.1883  147.2257 O   0  0  0  0  0  0  0  0  0  0  0  0
  -30.7895  -13.6485  148.4285 N   0  0  0  0  0  0  0  0  0  0  0  0
  -29.2308   -8.1817  142.4254 O   0  0  0  0  0  0  0  0  0  0  0  0
  -29.1696   -8.3218  141.0564 C   0  0  0  0  0  0  0  0  0  0  0  0
  -28.4891   -9.1968  140.2839 C   0  0  0  0  0  0  0  0  0  0  0  0
  -28.4103   -9.2012  138.9678 C   0  0  0  0  0  0  0  0  0  0  0  0
  -29.0432   -8.0991  138.2732 C   0  0  0  0  0  0  0  0  0  0  0  0
  9 10  1  0
 14 15  1  0
 15 18  1  0
 15 19  1  0
 20 21  1  0
 18 23  1  0
 16 24  1  0
 23 24  1  0
 23 25  2  0
 19 26  1  0
 13 27  1  0
 26 27  2  0
 26 28  1  0
 28 29  2  0
 28 30  1  0
 24 31  1  0
 31 32  1  0
 32 33  2  3
 33 34  1  0
 34 35  2  0
  9  8  1  0
 10 11  1  0
  1  2  2  0
  3  4  2  0
  4  6  1  0
  6  5  2  0
  5  1  1  0
 11 12  2  0
 12 17  1  0
 17 16  2  0
 16 14  1  0
 14 13  2  0
 13 11  1  0
  2  3  1  0
  3  8  1  0
  8 20  2  0
 20 22  1  0
 22  7  2  0
  7  2  1  0
M  END

$$$$
No_586-/dssg/home/sw_qyf/PocketFlow/Model-Generation-Results/5HT2A_7WC7_rec_A_10.pdb/2024-01-01-03-54-21/
     RDKit          3D

 19 20  0  0  0  0  0  0  0  0999 V2000
  -23.1746  -16.6014  144.8668 C   0  0  0  0  0  0  0  0  0  0  0  0
  -24.0189  -16.0564  145.8445 C   0  0  0  0  0  0  0  0  0  0  0  0
  -24.4145  -16.8299  146.9062 C   0  0  0  0  0  0  0  0  0  0  0  0
  -25.2730  -16.2838  147.9150 C   0  0  0  0  0  0  0  0  0  0  0  0
  -25.7919  -14.9951  147.6737 C   0  0  0  0  0  0  0  0  0  0  0  0
  -24.5377  -14.6789  145.6474 C   0  0  0  0  0  0  0  0  0  0  0  0
  -24.1196  -13.8271  144.6537 C   0  0  0  0  0  0  0  0  0  0  0  0
  -25.4048  -14.1729  146.7241 C   0  0  0  0  0  0  0  0  0  0  0  0
  -23.3886  -12.8668  144.9920 O   0  0  0  0  0  0  0  0  0  0  0  0
  -23.9690  -18.1993  147.0399 C   0  0  0  0  0  0  0  0  0  0  0  0
  -23.2768  -18.6502  147.9053 O   0  0  0  0  0  0  0  0  0  0  0  0
  -24.5587  -19.0737  146.2310 O   0  0  0  0  0  0  0  0  0  0  0  0
  -25.8807  -12.8046  146.6191 C   0  0  0  0  0  0  0  0  0  0  0  0
  -27.2408  -12.5873  146.1451 C   0  0  0  0  0  0  0  0  0  0  0  0
  -28.2345  -13.1460  146.6076 C   0  0  0  0  0  0  0  0  0  0  0  0
  -29.4366  -12.3916  146.8497 C   0  0  0  0  0  0  0  0  0  0  0  0
  -29.6690  -11.2104  146.0807 C   0  0  0  0  0  0  0  0  0  0  0  0
  -28.5861  -10.6837  145.3304 C   0  0  0  0  0  0  0  0  0  0  0  0
  -27.3004  -11.3313  145.4419 C   0  0  0  0  0  0  0  0  0  0  0  0
  1  2  1  0
  6  7  1  0
  7  9  1  0
  3 10  1  0
 10 11  2  0
 10 12  1  0
  8 13  1  0
 13 14  1  0
 14 15  2  0
 15 16  1  0
 16 17  2  0
 17 18  1  0
 18 19  2  0
 19 14  1  0
  2  3  2  0
  3  4  1  0
  4  5  2  0
  5  8  1  0
  8  6  2  0
  6  2  1  0
M  END

$$$$
No_587-/dssg/home/sw_qyf/PocketFlow/Model-Generation-Results/5HT2A_7WC7_rec_A_10.pdb/2024-01-01-03-54-21/
     RDKit          3D

 25 28  0  0  0  0  0  0  0  0999 V2000
  -23.1746  -16.6014  144.8668 C   0  0  0  0  0  0  0  0  0  0  0  0
  -23.8963  -15.5346  144.7885 C   0  0  0  0  0  0  0  0  0  0  0  0
  -23.6398  -14.5115  145.3281 C   0  0  0  0  0  0  0  0  0  0  0  0
  -24.3866  -13.2477  145.3906 C   0  0  0  0  0  0  0  0  0  0  0  0
  -23.7392  -12.0982  145.9891 C   0  0  0  0  0  0  0  0  0  0  0  0
  -23.6016  -17.7406  145.3757 C   0  0  0  0  0  0  0  0  0  0  0  0
  -24.8799  -17.6881  146.1888 C   0  0  0  0  0  0  0  0  0  0  0  0
  -25.8372  -16.7141  145.9659 C   0  0  0  0  0  0  0  0  0  0  0  0
  -27.1242  -16.6479  146.5282 C   0  0  0  0  0  0  0  0  0  0  0  0
  -27.9711  -15.6079  146.2268 C   0  0  0  0  0  0  0  0  0  0  0  0
  -29.1925  -15.3931  146.9576 C   0  0  0  0  0  0  0  0  0  0  0  0
  -25.3250  -15.5203  145.2553 C   0  0  0  0  0  0  0  0  0  0  0  0
  -29.9671  -14.2284  146.8519 C   0  0  0  0  0  0  0  0  0  0  0  0
  -29.3247  -13.1036  146.2507 C   0  0  0  0  0  0  0  0  0  0  0  0
  -27.9987  -13.1833  145.6912 C   0  0  0  0  0  0  0  0  0  0  0  0
  -27.3246  -14.4313  145.7633 C   0  0  0  0  0  0  0  0  0  0  0  0
  -26.1112  -14.4536  145.1651 C   0  0  0  0  0  0  0  0  0  0  0  0
  -25.3303  -13.2069  145.6198 C   0  0  0  0  0  0  0  0  0  0  0  0
  -30.0333  -11.7527  146.2682 C   0  0  0  0  0  0  0  0  0  0  0  0
  -29.7533  -10.8012  145.3792 N   0  0  0  0  0  0  0  0  0  0  0  0
  -28.6428  -10.7415  144.6425 C   0  0  0  0  0  0  0  0  0  0  0  0
  -28.3692   -9.7241  143.7150 C   0  0  0  0  0  0  0  0  0  0  0  0
  -29.1082   -8.5838  143.6899 C   0  0  0  0  0  0  0  0  0  0  0  0
  -29.0397   -7.6696  142.5658 C   0  0  0  0  0  0  0  0  0  0  0  0
  -29.3301   -6.3016  142.7540 C   0  0  0  0  0  0  0  0  0  0  0  0
  1  2  1  0
  1  6  3  0
  6  7  1  0
  7  8  1  0
 14 19  1  0
 19 20  1  0
 20 21  1  0
 21 22  2  3
 22 23  1  0
 23 24  1  0
 24 25  1  0
  5  4  1  0
  8  9  2  0
  9 10  1  0
 16 17  1  0
 12  8  1  0
  2  3  2  0
  3  4  1  0
  4 18  2  0
 18 17  1  0
 17 12  2  0
 12  2  1  0
 10 11  2  0
 11 13  1  0
 13 14  2  0
 14 15  1  0
 15 16  2  0
 16 10  1  0
M  END

$$$$
No_588-/dssg/home/sw_qyf/PocketFlow/Model-Generation-Results/5HT2A_7WC7_rec_A_10.pdb/2024-01-01-03-54-21/
     RDKit          3D

 35 36  0  0  0  0  0  0  0  0999 V2000
  -24.1553  -17.8465  145.7021 C   0  0  0  0  0  0  0  0  0  0  0  0
  -23.9795  -18.4462  146.7426 C   0  0  0  0  0  0  0  0  0  0  0  0
  -25.1593  -16.8262  145.6925 C   0  0  0  0  0  0  0  0  0  0  0  0
  -25.9346  -16.5763  146.8154 C   0  0  0  0  0  0  0  0  0  0  0  0
  -27.0180  -15.6510  146.7805 C   0  0  0  0  0  0  0  0  0  0  0  0
  -26.9026  -14.6404  145.8447 C   0  0  0  0  0  0  0  0  0  0  0  0
  -27.8836  -13.5698  145.7254 C   0  0  0  0  0  0  0  0  0  0  0  0
  -28.9756  -13.5705  146.6427 C   0  0  0  0  0  0  0  0  0  0  0  0
  -29.1135  -14.6117  147.5768 C   0  0  0  0  0  0  0  0  0  0  0  0
  -28.1208  -15.6162  147.6803 C   0  0  0  0  0  0  0  0  0  0  0  0
  -24.6081  -18.2676  147.9669 C   0  0  0  0  0  0  0  0  0  0  0  0
  -25.6556  -17.2661  148.0054 C   0  0  0  0  0  0  0  0  0  0  0  0
  -29.9387  -12.4761  146.3669 C   0  0  0  0  0  0  0  0  0  0  0  0
  -29.8556  -11.6741  145.3786 O   0  0  0  0  0  0  0  0  0  0  0  0
  -30.6507  -12.0804  147.4719 O   0  0  0  0  0  0  0  0  0  0  0  0
  -29.6865  -10.3028  145.5929 C   0  0  0  0  0  0  0  0  0  0  0  0
  -28.8935   -9.7421  144.5441 C   0  0  0  0  0  0  0  0  0  0  0  0
  -29.1116  -10.2929  143.2951 C   0  0  0  0  0  0  0  0  0  0  0  0
  -29.7626   -9.4235  142.4017 C   0  0  0  0  0  0  0  0  0  0  0  0
  -30.9363   -8.7149  142.6756 C   0  0  0  0  0  0  0  0  0  0  0  0
  -31.4382   -7.9572  141.6648 N   0  0  0  0  0  0  0  0  0  0  0  0
  -31.4575   -8.5953  143.8195 O   0  0  0  0  0  0  0  0  0  0  0  0
  -29.9174  -10.0847  140.9821 C   0  0  0  0  0  0  0  0  0  0  0  0
  -28.7719  -11.0690  140.8693 C   0  0  0  0  0  0  0  0  0  0  0  0
  -28.3841  -11.4499  139.5524 C   0  0  0  0  0  0  0  0  0  0  0  0
  -26.9422  -11.0946  139.1846 C   0  0  0  0  0  0  0  0  0  0  0  0
  -27.9787  -11.3450  142.0763 C   0  0  0  0  0  0  0  0  0  0  0  0
  -29.9014  -11.4733  143.4188 O   0  0  0  0  0  0  0  0  0  0  0  0
  -27.8771  -12.6409  142.4872 C   0  0  0  0  0  0  0  0  0  0  0  0
  -26.2135  -12.1450  138.8686 O   0  0  0  0  0  0  0  0  0  0  0  0
  -26.7993  -10.4161  142.1659 C   0  0  0  0  0  0  0  0  0  0  0  0
  -27.6385  -12.5131  141.9841 Cl  0  0  0  0  0  0  0  0  0  0  0  0
  -23.4889  -17.9677  144.5176 O   0  0  0  0  0  0  0  0  0  0  0  0
  -26.2955  -17.0256  149.1477 O   0  0  0  0  0  0  0  0  0  0  0  0
  -25.5184  -17.3105  150.3239 C   0  0  0  0  0  0  0  0  0  0  0  0
  4  5  1  0
  8 13  1  0
 13 14  1  0
 13 15  2  0
 14 16  1  0
 16 17  1  0
 17 18  1  0
 18 19  2  3
 19 20  1  0
 20 21  1  0
 20 22  2  0
 19 23  1  0
 23 24  1  0
 24 25  1  0
 25 26  1  0
 24 27  1  0
 18 28  1  0
 27 29  1  0
 26 30  1  0
 27 31  1  0
 29 32  1  0
  1 33  1  0
 12 34  1  0
 34 35  1  0
  1  2  2  0
  2 11  1  0
 11 12  2  0
 12  4  1  0
  4  3  2  0
  3  1  1  0
  5  6  2  0
  6  7  1  0
  7  8  2  0
  8  9  1  0
  9 10  2  0
 10  5  1  0
M  END

$$$$
No_589-/dssg/home/sw_qyf/PocketFlow/Model-Generation-Results/5HT2A_7WC7_rec_A_10.pdb/2024-01-01-03-54-21/
     RDKit          3D

 30 32  0  0  0  0  0  0  0  0999 V2000
  -24.1553  -17.8465  145.7021 C   0  0  0  0  0  0  0  0  0  0  0  0
  -24.6364  -17.2931  146.7091 C   0  0  0  0  0  0  0  0  0  0  0  0
  -25.8608  -16.5591  146.5934 C   0  0  0  0  0  0  0  0  0  0  0  0
  -25.9533  -15.5604  145.6681 C   0  0  0  0  0  0  0  0  0  0  0  0
  -25.1031  -14.5122  145.9220 C   0  0  0  0  0  0  0  0  0  0  0  0
  -25.4082  -13.2051  145.7345 C   0  0  0  0  0  0  0  0  0  0  0  0
  -24.3921  -12.2120  145.8732 C   0  0  0  0  0  0  0  0  0  0  0  0
  -23.1102  -12.4452  145.4493 C   0  0  0  0  0  0  0  0  0  0  0  0
  -22.2182  -11.3130  145.3682 C   0  0  0  0  0  0  0  0  0  0  0  0
  -23.2023  -18.8885  145.7765 C   0  0  0  0  0  0  0  0  0  0  0  0
  -26.8408  -16.6041  147.6197 C   0  0  0  0  0  0  0  0  0  0  0  0
  -26.5487  -16.8081  148.9927 C   0  0  0  0  0  0  0  0  0  0  0  0
  -25.2212  -17.4344  149.2482 C   0  0  0  0  0  0  0  0  0  0  0  0
  -24.3066  -17.7573  148.1794 C   0  0  0  0  0  0  0  0  0  0  0  0
  -26.7940  -12.8444  145.7539 C   0  0  0  0  0  0  0  0  0  0  0  0
  -27.5503  -12.7945  146.7380 C   0  0  0  0  0  0  0  0  0  0  0  0
  -28.9416  -12.3267  146.7194 C   0  0  0  0  0  0  0  0  0  0  0  0
  -29.3358  -11.6145  145.6010 C   0  0  0  0  0  0  0  0  0  0  0  0
  -28.4792  -11.4056  144.5661 C   0  0  0  0  0  0  0  0  0  0  0  0
  -27.1399  -12.0277  144.5713 C   0  0  0  0  0  0  0  0  0  0  0  0
  -29.0058  -10.5258  143.5423 C   0  0  0  0  0  0  0  0  0  0  0  0
  -28.7137  -10.8081  142.2388 C   0  0  0  0  0  0  0  0  0  0  0  0
  -28.6130  -12.0312  141.6579 C   0  0  0  0  0  0  0  0  0  0  0  0
  -28.2971  -12.1882  140.2566 C   0  0  0  0  0  0  0  0  0  0  0  0
  -27.8351  -11.0599  139.5105 C   0  0  0  0  0  0  0  0  0  0  0  0
  -27.8843   -9.7817  140.0613 C   0  0  0  0  0  0  0  0  0  0  0  0
  -28.3163   -9.6066  141.3988 C   0  0  0  0  0  0  0  0  0  0  0  0
  -29.8537  -12.4842  147.9246 C   0  0  0  0  0  0  0  0  0  0  0  0
  -31.4236  -12.1817  147.9237 Cl  0  0  0  0  0  0  0  0  0  0  0  0
  -29.8057   -9.6101  143.8868 O   0  0  0  0  0  0  0  0  0  0  0  0
  1  2  1  0
  3  4  1  0
  4  5  2  3
  5  6  1  0
  6  7  2  3
  7  8  1  0
  8  9  1  0
  1 10  2  0
  6 15  1  0
 19 21  1  0
 21 22  1  0
 17 28  1  0
 28 29  1  0
 21 30  2  0
 15 16  2  0
 16 17  1  0
 17 18  2  0
 18 19  1  0
 19 20  2  0
 20 15  1  0
  2  3  2  0
  3 11  1  0
 11 12  2  0
 12 13  1  0
 13 14  2  0
 14  2  1  0
 22 23  2  0
 23 24  1  0
 24 25  2  0
 25 26  1  0
 26 27  2  0
 27 22  1  0
M  END

$$$$
No_590-/dssg/home/sw_qyf/PocketFlow/Model-Generation-Results/5HT2A_7WC7_rec_A_10.pdb/2024-01-01-03-54-21/
     RDKit          3D

 35 37  0  0  0  0  0  0  0  0999 V2000
  -24.1553  -17.8465  145.7021 C   0  0  0  0  0  0  0  0  0  0  0  0
  -24.2855  -16.6364  145.3494 C   0  0  0  0  0  0  0  0  0  0  0  0
  -25.0033  -15.6772  146.0737 C   0  0  0  0  0  0  0  0  0  0  0  0
  -25.1197  -14.2835  145.7299 C   0  0  0  0  0  0  0  0  0  0  0  0
  -24.2707  -13.8793  144.6500 C   0  0  0  0  0  0  0  0  0  0  0  0
  -24.8686  -18.3355  146.8179 C   0  0  0  0  0  0  0  0  0  0  0  0
  -23.4212  -14.7686  144.0334 C   0  0  0  0  0  0  0  0  0  0  0  0
  -23.3932  -16.0844  144.3175 C   0  0  0  0  0  0  0  0  0  0  0  0
  -25.6441  -17.4723  147.5882 C   0  0  0  0  0  0  0  0  0  0  0  0
  -25.7767  -16.1272  147.2748 C   0  0  0  0  0  0  0  0  0  0  0  0
  -25.9465  -13.3563  146.4438 C   0  0  0  0  0  0  0  0  0  0  0  0
  -25.5169  -11.9585  146.4875 C   0  0  0  0  0  0  0  0  0  0  0  0
  -26.5979  -11.0874  145.8866 C   0  0  0  0  0  0  0  0  0  0  0  0
  -27.0462  -11.3661  144.6348 C   0  0  0  0  0  0  0  0  0  0  0  0
  -27.7580  -10.3325  143.9673 C   0  0  0  0  0  0  0  0  0  0  0  0
  -29.1035  -10.5518  143.7433 C   0  0  0  0  0  0  0  0  0  0  0  0
  -29.9236   -9.5249  143.1241 C   0  0  0  0  0  0  0  0  0  0  0  0
  -29.3596   -8.4814  142.4660 C   0  0  0  0  0  0  0  0  0  0  0  0
  -29.6748   -7.9391  141.5504 C   0  0  0  0  0  0  0  0  0  0  0  0
  -29.5728   -7.9689  140.2734 C   0  0  0  0  0  0  0  0  0  0  0  0
  -28.3353   -8.4272  139.6958 C   0  0  0  0  0  0  0  0  0  0  0  0
  -28.0250   -8.3921  138.3577 C   0  0  0  0  0  0  0  0  0  0  0  0
  -31.2097   -9.6767  143.1543 O   0  0  0  0  0  0  0  0  0  0  0  0
  -28.4485   -9.5149  137.5210 C   0  0  0  0  0  0  0  0  0  0  0  0
  -29.0526   -9.1714  136.2658 C   0  0  0  0  0  0  0  0  0  0  0  0
  -29.4217  -10.2474  135.4789 C   0  0  0  0  0  0  0  0  0  0  0  0
  -28.7852  -11.5053  135.6639 C   0  0  0  0  0  0  0  0  0  0  0  0
  -28.1820  -11.8102  136.9177 C   0  0  0  0  0  0  0  0  0  0  0  0
  -27.9727  -10.8239  137.8506 C   0  0  0  0  0  0  0  0  0  0  0  0
  -23.5402  -18.7897  145.0131 O   0  0  0  0  0  0  0  0  0  0  0  0
  -27.5914   -7.3202  137.8877 O   0  0  0  0  0  0  0  0  0  0  0  0
  -26.9956  -12.4656  144.0553 O   0  0  0  0  0  0  0  0  0  0  0  0
  -27.1736  -12.5737  142.7258 C   0  0  0  0  0  0  0  0  0  0  0  0
  -27.5996  -11.9328  141.7999 C   0  0  0  0  0  0  0  0  0  0  0  0
  -26.7791  -14.0529  142.3114 C   0  0  0  0  0  0  0  0  0  0  0  0
  4 11  1  0
 11 12  1  0
 12 13  1  0
 13 14  1  0
 14 15  2  3
 15 16  1  0
 16 17  2  3
 17 18  1  0
 18 19  1  0
 19 20  2  3
 20 21  1  0
 21 22  1  0
 17 23  1  0
 22 24  1  0
  1 30  1  0
 22 31  2  0
 14 32  1  0
 32 33  1  0
 33 34  2  0
 33 35  1  0
  1  2  2  0
  3 10  2  0
 10  9  1  0
  9  6  2  0
  6  1  1  0
 24 25  2  0
 25 26  1  0
 26 27  2  0
 27 28  1  0
 28 29  2  0
 29 24  1  0
  2  3  1  0
  3  4  1  0
  4  5  2  0
  5  7  1  0
  7  8  2  0
  8  2  1  0
M  END

$$$$
No_591-/dssg/home/sw_qyf/PocketFlow/Model-Generation-Results/5HT2A_7WC7_rec_A_10.pdb/2024-01-01-03-54-21/
     RDKit          3D

 26 28  0  0  0  0  0  0  0  0999 V2000
  -23.1746  -16.6014  144.8668 C   0  0  0  0  0  0  0  0  0  0  0  0
  -23.7011  -17.0158  145.9774 C   0  0  0  0  0  0  0  0  0  0  0  0
  -24.2593  -16.1244  146.9100 C   0  0  0  0  0  0  0  0  0  0  0  0
  -24.5135  -14.7390  146.5020 C   0  0  0  0  0  0  0  0  0  0  0  0
  -24.0813  -14.3812  145.2164 C   0  0  0  0  0  0  0  0  0  0  0  0
  -23.3915  -15.2667  144.4690 C   0  0  0  0  0  0  0  0  0  0  0  0
  -24.2225  -13.0082  144.9090 N   0  0  0  0  0  0  0  0  0  0  0  0
  -23.2052  -12.1288  145.1505 C   0  0  0  0  0  0  0  0  0  0  0  0
  -23.5502  -18.2526  146.5613 F   0  0  0  0  0  0  0  0  0  0  0  0
  -23.3294  -10.8842  144.7328 N   0  0  0  0  0  0  0  0  0  0  0  0
  -24.7033  -16.5468  148.1764 F   0  0  0  0  0  0  0  0  0  0  0  0
  -25.4865  -12.4785  145.2326 C   0  0  0  0  0  0  0  0  0  0  0  0
  -25.7063  -11.0766  144.9262 C   0  0  0  0  0  0  0  0  0  0  0  0
  -24.5203  -10.2854  144.9155 N   0  0  0  0  0  0  0  0  0  0  0  0
  -26.9498  -10.3810  144.9353 C   0  0  0  0  0  0  0  0  0  0  0  0
  -27.3267   -9.5799  143.9866 C   0  0  0  0  0  0  0  0  0  0  0  0
  -28.6414   -9.1192  143.7513 C   0  0  0  0  0  0  0  0  0  0  0  0
  -29.7038   -9.7140  144.5016 C   0  0  0  0  0  0  0  0  0  0  0  0
  -29.3518  -10.7513  145.5065 C   0  0  0  0  0  0  0  0  0  0  0  0
  -28.0176  -11.0943  145.6864 C   0  0  0  0  0  0  0  0  0  0  0  0
  -30.9841   -9.3963  144.2833 O   0  0  0  0  0  0  0  0  0  0  0  0
  -31.1993   -8.2642  143.5093 C   0  0  0  0  0  0  0  0  0  0  0  0
  -31.3125   -8.5674  142.0002 C   0  0  0  0  0  0  0  0  0  0  0  0
  -31.2581   -9.6565  141.6788 O   0  0  0  0  0  0  0  0  0  0  0  0
  -30.3132  -11.2777  146.1929 F   0  0  0  0  0  0  0  0  0  0  0  0
  -31.4086   -7.6136  141.2001 O   0  0  0  0  0  0  0  0  0  0  0  0
  5  7  1  0
  7  8  1  0
  2  9  1  0
  3 11  1  0
  7 12  1  0
 12 13  1  0
 10 14  1  0
 13 14  1  0
 13 15  1  0
 18 21  1  0
 21 22  1  0
 22 23  1  0
 23 24  1  0
 19 25  1  0
 23 26  2  0
  8 10  1  0
 15 16  2  0
 16 17  1  0
 17 18  2  0
 18 19  1  0
 19 20  2  0
 20 15  1  0
  1  2  2  0
  2  3  1  0
  3  4  2  0
  4  5  1  0
  5  6  2  0
  6  1  1  0
M  END

$$$$
No_592-/dssg/home/sw_qyf/PocketFlow/Model-Generation-Results/5HT2A_7WC7_rec_A_10.pdb/2024-01-01-03-54-21/
     RDKit          3D

 35 36  0  0  0  0  0  0  0  0999 V2000
  -23.1746  -16.6014  144.8668 C   0  0  0  0  0  0  0  0  0  0  0  0
  -23.8963  -15.5346  144.7885 C   0  0  0  0  0  0  0  0  0  0  0  0
  -23.6398  -14.5115  145.3281 C   0  0  0  0  0  0  0  0  0  0  0  0
  -24.3240  -13.3648  145.1280 C   0  0  0  0  0  0  0  0  0  0  0  0
  -23.8303  -12.0965  145.7920 C   0  0  0  0  0  0  0  0  0  0  0  0
  -25.8110  -13.4153  145.1679 C   0  0  0  0  0  0  0  0  0  0  0  0
  -26.2644  -13.7621  144.0935 C   0  0  0  0  0  0  0  0  0  0  0  0
  -27.7066  -13.5344  143.8688 C   0  0  0  0  0  0  0  0  0  0  0  0
  -27.8294  -12.1000  143.8485 C   0  0  0  0  0  0  0  0  0  0  0  0
  -27.8553  -11.3665  142.8350 C   0  0  0  0  0  0  0  0  0  0  0  0
  -28.3950  -10.0168  142.8387 C   0  0  0  0  0  0  0  0  0  0  0  0
  -28.4898   -9.2211  141.7737 C   0  0  0  0  0  0  0  0  0  0  0  0
  -28.0743   -9.6904  140.5110 C   0  0  0  0  0  0  0  0  0  0  0  0
  -28.1544   -8.9650  139.3355 C   0  0  0  0  0  0  0  0  0  0  0  0
  -28.9606   -7.7652  139.4012 C   0  0  0  0  0  0  0  0  0  0  0  0
  -29.5315   -7.3489  140.5957 C   0  0  0  0  0  0  0  0  0  0  0  0
  -29.3614   -8.0361  141.7563 C   0  0  0  0  0  0  0  0  0  0  0  0
  -29.7014  -10.2249  143.7251 C   0  0  0  0  0  0  0  0  0  0  0  0
  -30.8718   -9.0182  143.7098 Cl  0  0  0  0  0  0  0  0  0  0  0  0
  -29.9890  -11.2973  144.2685 O   0  0  0  0  0  0  0  0  0  0  0  0
  -23.7288  -17.8382  145.0903 C   0  0  0  0  0  0  0  0  0  0  0  0
  -24.6468  -17.7951  146.2817 C   0  0  0  0  0  0  0  0  0  0  0  0
  -25.9829  -17.5725  146.0834 C   0  0  0  0  0  0  0  0  0  0  0  0
  -26.8084  -17.0536  147.1680 C   0  0  0  0  0  0  0  0  0  0  0  0
  -28.1268  -16.5297  146.9926 C   0  0  0  0  0  0  0  0  0  0  0  0
  -28.3293  -15.5197  146.0718 C   0  0  0  0  0  0  0  0  0  0  0  0
  -28.9505  -11.6877  145.2233 C   0  0  0  0  0  0  0  0  0  0  0  0
  -29.4693  -14.6384  146.2810 C   0  0  0  0  0  0  0  0  0  0  0  0
  -24.1067  -18.2471  147.5408 C   0  0  0  0  0  0  0  0  0  0  0  0
  -23.6863  -17.0428  148.4605 C   0  0  0  0  0  0  0  0  0  0  0  0
  -24.0349  -17.3324  149.8881 C   0  0  0  0  0  0  0  0  0  0  0  0
  -23.0312  -17.4102  150.8242 C   0  0  0  0  0  0  0  0  0  0  0  0
  -25.3242  -16.6808  150.3335 C   0  0  0  0  0  0  0  0  0  0  0  0
  -29.5125  -13.9909  147.7481 C   0  0  0  0  0  0  0  0  0  0  0  0
  -29.6628  -12.5863  147.9099 C   0  0  0  0  0  0  0  0  0  0  0  0
  1  2  1  0
  2  3  2  3
  3  4  1  0
  4  5  1  0
  4  6  1  0
  6  7  1  0
  7  8  1  0
  8  9  1  0
  9 10  2  0
 10 11  1  0
 11 12  1  0
 11 18  1  0
 18 19  1  0
 18 20  1  0
  1 21  1  0
 21 22  1  0
 22 23  2  3
 23 24  1  0
 24 25  1  0
 25 26  2  3
  9 27  1  0
 20 27  1  0
 26 28  1  0
 22 29  1  0
 29 30  1  0
 30 31  1  0
 31 32  1  0
 31 33  1  0
 28 34  1  0
 34 35  1  0
 12 13  2  0
 13 14  1  0
 14 15  2  0
 15 16  1  0
 16 17  2  0
 17 12  1  0
M  END

$$$$
No_593-/dssg/home/sw_qyf/PocketFlow/Model-Generation-Results/5HT2A_7WC7_rec_A_10.pdb/2024-01-01-03-54-21/
     RDKit          3D

 35 39  0  0  0  0  0  0  0  0999 V2000
  -24.1553  -17.8465  145.7021 C   0  0  0  0  0  0  0  0  0  0  0  0
  -23.9795  -18.4462  146.7426 C   0  0  0  0  0  0  0  0  0  0  0  0
  -23.3558  -17.2450  144.9339 C   0  0  0  0  0  0  0  0  0  0  0  0
  -24.9341  -19.0253  147.6214 C   0  0  0  0  0  0  0  0  0  0  0  0
  -23.9048  -16.1596  144.0438 C   0  0  0  0  0  0  0  0  0  0  0  0
  -24.9584  -15.3229  144.7042 C   0  0  0  0  0  0  0  0  0  0  0  0
  -25.1063  -14.0061  144.2439 C   0  0  0  0  0  0  0  0  0  0  0  0
  -26.2428  -13.3146  144.7419 C   0  0  0  0  0  0  0  0  0  0  0  0
  -26.9807  -13.8635  145.8274 C   0  0  0  0  0  0  0  0  0  0  0  0
  -26.7125  -15.1277  146.3008 C   0  0  0  0  0  0  0  0  0  0  0  0
  -27.4842  -15.6391  147.3414 C   0  0  0  0  0  0  0  0  0  0  0  0
  -25.7210  -15.8313  145.7271 C   0  0  0  0  0  0  0  0  0  0  0  0
  -27.0386  -16.7579  148.0550 C   0  0  0  0  0  0  0  0  0  0  0  0
  -25.5470  -17.1897  145.8176 C   0  0  0  0  0  0  0  0  0  0  0  0
  -28.7795  -15.1722  147.6354 C   0  0  0  0  0  0  0  0  0  0  0  0
  -29.4009  -14.1851  146.8315 C   0  0  0  0  0  0  0  0  0  0  0  0
  -28.4574  -13.3567  146.0184 C   0  0  0  0  0  0  0  0  0  0  0  0
  -28.8565  -12.0418  145.5281 C   0  0  0  0  0  0  0  0  0  0  0  0
  -29.6739  -11.3155  146.2821 N   0  0  0  0  0  0  0  0  0  0  0  0
  -28.5434  -11.5774  144.3792 N   0  0  0  0  0  0  0  0  0  0  0  0
  -29.0010  -10.4337  143.8878 C   0  0  0  0  0  0  0  0  0  0  0  0
  -28.2777   -9.6893  142.8977 C   0  0  0  0  0  0  0  0  0  0  0  0
  -29.1530   -9.3815  141.8625 C   0  0  0  0  0  0  0  0  0  0  0  0
  -30.4566   -8.8726  142.1156 C   0  0  0  0  0  0  0  0  0  0  0  0
  -31.0801   -9.3448  143.3154 C   0  0  0  0  0  0  0  0  0  0  0  0
  -30.3562  -10.1871  144.1362 N   0  0  0  0  0  0  0  0  0  0  0  0
  -31.1172   -8.1661  141.2038 O   0  0  0  0  0  0  0  0  0  0  0  0
  -28.5744   -8.6342  140.7006 C   0  0  0  0  0  0  0  0  0  0  0  0
  -28.0330   -9.5977  139.7666 C   0  0  0  0  0  0  0  0  0  0  0  0
  -27.4960  -10.8217  140.1201 C   0  0  0  0  0  0  0  0  0  0  0  0
  -27.0955  -11.7494  139.1111 C   0  0  0  0  0  0  0  0  0  0  0  0
  -27.7709  -12.5003  138.7491 C   0  0  0  0  0  0  0  0  0  0  0  0
  -29.0248  -12.5756  139.4820 C   0  0  0  0  0  0  0  0  0  0  0  0
  -28.8002  -11.6792  140.6474 C   0  0  0  0  0  0  0  0  0  0  0  0
  -32.1015   -8.7942  143.8696 O   0  0  0  0  0  0  0  0  0  0  0  0
  1  2  2  3
  1  3  1  0
  2  4  1  0
  3  5  1  0
  5  6  1  0
  1 14  1  0
 12 14  1  0
 17 18  1  0
 18 19  1  0
 18 20  2  3
 20 21  1  0
 21 22  1  0
 22 23  1  0
 24 25  1  0
 25 26  1  0
 24 27  1  0
 23 28  1  0
 28 29  1  0
 29 30  1  0
 30 31  2  0
 31 32  1  0
 32 33  1  0
 30 34  1  0
 33 34  1  0
 25 35  2  0
 13 11  1  0
 24 23  1  0
 21 26  1  0
 10 11  1  0
 11 15  2  0
 15 16  1  0
 16 17  2  0
 17  9  1  0
  6  7  2  0
  7  8  1  0
  8  9  2  0
  9 10  1  0
 10 12  2  0
 12  6  1  0
M  END

$$$$
No_594-/dssg/home/sw_qyf/PocketFlow/Model-Generation-Results/5HT2A_7WC7_rec_A_10.pdb/2024-01-01-03-54-21/
     RDKit          3D

 34 36  0  0  0  0  0  0  0  0999 V2000
  -24.1553  -17.8465  145.7021 C   0  0  0  0  0  0  0  0  0  0  0  0
  -24.2856  -16.6364  145.3494 C   0  0  0  0  0  0  0  0  0  0  0  0
  -24.7211  -15.5955  146.2115 C   0  0  0  0  0  0  0  0  0  0  0  0
  -24.8539  -14.2010  145.8739 C   0  0  0  0  0  0  0  0  0  0  0  0
  -24.1440  -13.8321  144.7074 C   0  0  0  0  0  0  0  0  0  0  0  0
  -23.4275  -14.8130  143.9942 C   0  0  0  0  0  0  0  0  0  0  0  0
  -23.5366  -16.0900  144.3641 N   0  0  0  0  0  0  0  0  0  0  0  0
  -23.4872  -18.3821  146.7583 C   0  0  0  0  0  0  0  0  0  0  0  0
  -22.8953  -17.3075  147.8368 Cl  0  0  0  0  0  0  0  0  0  0  0  0
  -25.5390  -13.2622  146.4537 N   0  0  0  0  0  0  0  0  0  0  0  0
  -26.8981  -13.1756  146.4999 C   0  0  0  0  0  0  0  0  0  0  0  0
  -27.5339  -11.8774  146.5012 C   0  0  0  0  0  0  0  0  0  0  0  0
  -28.9447  -11.7825  146.4007 C   0  0  0  0  0  0  0  0  0  0  0  0
  -29.6795  -12.9546  146.8262 C   0  0  0  0  0  0  0  0  0  0  0  0
  -29.0594  -14.1834  146.9113 C   0  0  0  0  0  0  0  0  0  0  0  0
  -27.6692  -14.3199  146.7905 C   0  0  0  0  0  0  0  0  0  0  0  0
  -29.5381  -10.5943  146.3380 O   0  0  0  0  0  0  0  0  0  0  0  0
  -30.4802  -10.5587  145.2842 C   0  0  0  0  0  0  0  0  0  0  0  0
  -30.0507   -9.9071  144.0154 C   0  0  0  0  0  0  0  0  0  0  0  0
  -28.7703   -9.9351  143.8477 C   0  0  0  0  0  0  0  0  0  0  0  0
  -30.9430   -9.1976  143.2888 C   0  0  0  0  0  0  0  0  0  0  0  0
  -30.5580   -8.6100  142.1191 C   0  0  0  0  0  0  0  0  0  0  0  0
  -29.2371   -8.6884  141.6524 C   0  0  0  0  0  0  0  0  0  0  0  0
  -28.3257   -9.3670  142.5708 C   0  0  0  0  0  0  0  0  0  0  0  0
  -28.7776   -8.0836  140.4616 C   0  0  0  0  0  0  0  0  0  0  0  0
  -29.1333   -8.5619  139.3063 C   0  0  0  0  0  0  0  0  0  0  0  0
  -28.0512   -8.4621  138.3146 C   0  0  0  0  0  0  0  0  0  0  0  0
  -32.2605   -9.1326  143.5917 O   0  0  0  0  0  0  0  0  0  0  0  0
  -24.6992  -12.2431  147.1199 C   0  0  0  0  0  0  0  0  0  0  0  0
  -29.8030  -15.2689  147.0849 F   0  0  0  0  0  0  0  0  0  0  0  0
  -28.4875   -9.0589  137.4320 F   0  0  0  0  0  0  0  0  0  0  0  0
  -26.9061   -9.0937  138.7136 F   0  0  0  0  0  0  0  0  0  0  0  0
  -27.7049   -7.2462  137.8531 F   0  0  0  0  0  0  0  0  0  0  0  0
  -22.3017  -19.0660  146.3299 F   0  0  0  0  0  0  0  0  0  0  0  0
  1  2  2  3
  2  3  1  0
  3  4  1  0
  4  5  1  0
  5  6  1  0
  2  7  1  0
  6  7  1  0
  1  8  1  0
  8  9  1  0
  4 10  1  0
 10 11  1  0
 13 17  1  0
 17 18  1  0
 18 19  1  0
 23 25  1  0
 25 26  1  0
 26 27  1  0
 21 28  1  0
 10 29  1  0
 15 30  1  0
 27 31  1  0
 27 32  1  0
 27 33  1  0
  8 34  1  0
 11 12  2  0
 12 13  1  0
 13 14  2  0
 14 15  1  0
 15 16  2  0
 16 11  1  0
 19 20  2  0
 20 24  1  0
 24 23  2  0
 23 22  1  0
 22 21  2  0
 21 19  1  0
M  END

$$$$
No_595-/dssg/home/sw_qyf/PocketFlow/Model-Generation-Results/5HT2A_7WC7_rec_A_10.pdb/2024-01-01-03-54-21/
     RDKit          3D

 19 22  0  0  0  0  0  0  0  0999 V2000
  -24.1553  -17.8465  145.7021 C   0  0  0  0  0  0  0  0  0  0  0  0
  -23.9795  -18.4462  146.7426 C   0  0  0  0  0  0  0  0  0  0  0  0
  -25.1196  -16.8105  145.6408 C   0  0  0  0  0  0  0  0  0  0  0  0
  -25.2440  -15.8776  144.5240 C   0  0  0  0  0  0  0  0  0  0  0  0
  -26.0733  -14.7284  144.7060 C   0  0  0  0  0  0  0  0  0  0  0  0
  -26.0749  -13.6607  143.7625 C   0  0  0  0  0  0  0  0  0  0  0  0
  -24.5764  -18.0942  147.9838 C   0  0  0  0  0  0  0  0  0  0  0  0
  -25.4603  -17.0074  148.0322 C   0  0  0  0  0  0  0  0  0  0  0  0
  -25.6296  -16.2301  146.8834 C   0  0  0  0  0  0  0  0  0  0  0  0
  -25.5324  -13.9239  142.5902 C   0  0  0  0  0  0  0  0  0  0  0  0
  -26.4423  -15.0973  146.8476 C   0  0  0  0  0  0  0  0  0  0  0  0
  -26.6669  -14.2594  145.9131 C   0  0  0  0  0  0  0  0  0  0  0  0
  -27.0733  -12.6011  143.8683 C   0  0  0  0  0  0  0  0  0  0  0  0
  -27.5537  -11.9302  142.7915 C   0  0  0  0  0  0  0  0  0  0  0  0
  -28.3768  -10.8321  142.9544 C   0  0  0  0  0  0  0  0  0  0  0  0
  -28.8385  -10.6105  144.3481 C   0  0  0  0  0  0  0  0  0  0  0  0
  -28.3343  -11.2896  145.3840 C   0  0  0  0  0  0  0  0  0  0  0  0
  -27.4479  -12.3180  145.1909 C   0  0  0  0  0  0  0  0  0  0  0  0
  -27.3519  -13.1557  146.1559 C   0  0  0  0  0  0  0  0  0  0  0  0
  6 10  1  0
 13 14  2  0
 14 15  1  0
 15 16  2  0
 16 17  1  0
 17 18  2  0
  3  4  2  0
  4  5  1  0
 12 11  1  0
 11  9  2  0
  5  6  2  0
  6 13  1  0
 13 18  1  0
 18 19  1  0
 19 12  2  0
 12  5  1  0
  1  2  2  0
  2  7  1  0
  7  8  2  0
  8  9  1  0
  9  3  1  0
  3  1  1  0
M  END

$$$$
No_596-/dssg/home/sw_qyf/PocketFlow/Model-Generation-Results/5HT2A_7WC7_rec_A_10.pdb/2024-01-01-03-54-21/
     RDKit          3D

 30 32  0  0  0  0  0  0  0  0999 V2000
  -24.1553  -17.8465  145.7021 C   0  0  0  0  0  0  0  0  0  0  0  0
  -23.9795  -18.4462  146.7426 C   0  0  0  0  0  0  0  0  0  0  0  0
  -25.1593  -16.8262  145.6925 C   0  0  0  0  0  0  0  0  0  0  0  0
  -25.3302  -15.8818  144.5925 C   0  0  0  0  0  0  0  0  0  0  0  0
  -24.4570  -18.1009  148.0274 C   0  0  0  0  0  0  0  0  0  0  0  0
  -25.3496  -17.0286  148.1023 C   0  0  0  0  0  0  0  0  0  0  0  0
  -25.5669  -16.2449  146.9641 C   0  0  0  0  0  0  0  0  0  0  0  0
  -24.1805  -15.0528  144.1688 C   0  0  0  0  0  0  0  0  0  0  0  0
  -24.4998  -13.5323  144.1945 C   0  0  0  0  0  0  0  0  0  0  0  0
  -23.4392  -12.8807  145.1487 C   0  0  0  0  0  0  0  0  0  0  0  0
  -24.1188  -12.1173  146.2417 C   0  0  0  0  0  0  0  0  0  0  0  0
  -24.1615  -12.8908  147.4624 C   0  0  0  0  0  0  0  0  0  0  0  0
  -25.8861  -16.6951  149.3100 O   0  0  0  0  0  0  0  0  0  0  0  0
  -23.0536  -15.5206  144.0952 O   0  0  0  0  0  0  0  0  0  0  0  0
  -25.6050  -11.7983  145.8257 C   0  0  0  0  0  0  0  0  0  0  0  0
  -25.7703  -10.7331  144.9599 C   0  0  0  0  0  0  0  0  0  0  0  0
  -27.0713  -10.5878  144.3904 C   0  0  0  0  0  0  0  0  0  0  0  0
  -27.4845   -9.7178  143.4289 C   0  0  0  0  0  0  0  0  0  0  0  0
  -28.7537   -9.5902  142.8654 C   0  0  0  0  0  0  0  0  0  0  0  0
  -29.0502   -9.2266  141.6610 C   0  0  0  0  0  0  0  0  0  0  0  0
  -28.3959   -9.7560  140.5518 C   0  0  0  0  0  0  0  0  0  0  0  0
  -28.5137   -9.0848  139.2923 C   0  0  0  0  0  0  0  0  0  0  0  0
  -27.7192   -9.3643  138.1421 C   0  0  0  0  0  0  0  0  0  0  0  0
  -29.3029   -7.7859  139.3364 C   0  0  0  0  0  0  0  0  0  0  0  0
  -29.9182   -7.3579  140.5084 C   0  0  0  0  0  0  0  0  0  0  0  0
  -29.7256   -8.0297  141.6866 C   0  0  0  0  0  0  0  0  0  0  0  0
  -29.8059  -10.2043  143.7776 C   0  0  0  0  0  0  0  0  0  0  0  0
  -29.4129  -10.9586  144.9703 C   0  0  0  0  0  0  0  0  0  0  0  0
  -28.1075  -11.0747  145.3061 C   0  0  0  0  0  0  0  0  0  0  0  0
  -27.1470  -10.4196  138.2428 O   0  0  0  0  0  0  0  0  0  0  0  0
  3  4  1  0
  4  8  1  0
  8  9  1  0
  9 10  1  0
 10 11  1  0
 11 12  1  0
  6 13  1  0
  8 14  2  0
 11 15  1  0
 15 16  1  0
 19 20  1  0
 23 30  1  0
 16 17  1  0
 23 22  1  0
 20 21  2  0
 21 22  1  0
 22 24  2  0
 24 25  1  0
 25 26  2  0
 26 20  1  0
 17 18  2  0
 18 19  1  0
 19 27  2  0
 27 28  1  0
 28 29  2  0
 29 17  1  0
  1  2  2  0
  2  5  1  0
  5  6  2  0
  6  7  1  0
  7  3  2  0
  3  1  1  0
M  END

$$$$
No_597-/dssg/home/sw_qyf/PocketFlow/Model-Generation-Results/5HT2A_7WC7_rec_A_10.pdb/2024-01-01-03-54-21/
     RDKit          3D

 28 30  0  0  0  0  0  0  0  0999 V2000
  -23.1746  -16.6014  144.8668 C   0  0  0  0  0  0  0  0  0  0  0  0
  -23.7011  -17.0158  145.9774 C   0  0  0  0  0  0  0  0  0  0  0  0
  -24.2134  -16.0722  146.8877 C   0  0  0  0  0  0  0  0  0  0  0  0
  -24.5407  -14.7704  146.3552 C   0  0  0  0  0  0  0  0  0  0  0  0
  -24.9626  -13.7061  147.1333 C   0  0  0  0  0  0  0  0  0  0  0  0
  -24.9236  -14.8864  144.9704 C   0  0  0  0  0  0  0  0  0  0  0  0
  -25.4026  -13.6561  144.3526 C   0  0  0  0  0  0  0  0  0  0  0  0
  -24.0765  -15.6500  144.1222 C   0  0  0  0  0  0  0  0  0  0  0  0
  -26.8435  -13.3048  144.6394 C   0  0  0  0  0  0  0  0  0  0  0  0
  -27.0221  -11.9587  144.8822 C   0  0  0  0  0  0  0  0  0  0  0  0
  -27.3809  -11.0824  143.8859 C   0  0  0  0  0  0  0  0  0  0  0  0
  -28.8549  -10.9597  143.5763 C   0  0  0  0  0  0  0  0  0  0  0  0
  -29.3337   -9.5876  143.4003 C   0  0  0  0  0  0  0  0  0  0  0  0
  -30.2395   -9.4214  142.3530 C   0  0  0  0  0  0  0  0  0  0  0  0
  -30.8437   -8.0972  142.3494 C   0  0  0  0  0  0  0  0  0  0  0  0
  -30.6460   -7.4792  143.6290 C   0  0  0  0  0  0  0  0  0  0  0  0
  -29.7915   -8.5791  144.3825 C   0  0  0  0  0  0  0  0  0  0  0  0
  -23.4451  -18.3798  146.5611 C   0  0  0  0  0  0  0  0  0  0  0  0
  -24.1460  -19.1542  146.5101 O   0  0  0  0  0  0  0  0  0  0  0  0
  -29.6576   -9.7768  141.1346 O   0  0  0  0  0  0  0  0  0  0  0  0
  -28.9988   -8.8506  140.5386 C   0  0  0  0  0  0  0  0  0  0  0  0
  -28.1776   -9.2269  139.4188 C   0  0  0  0  0  0  0  0  0  0  0  0
  -27.9940   -8.4207  138.3165 C   0  0  0  0  0  0  0  0  0  0  0  0
  -27.5520  -10.4781  139.4444 C   0  0  0  0  0  0  0  0  0  0  0  0
  -28.0580  -11.6219  138.8697 C   0  0  0  0  0  0  0  0  0  0  0  0
  -30.3311   -7.3866  141.2113 O   0  0  0  0  0  0  0  0  0  0  0  0
  -29.6633   -7.5668  140.2807 C   0  0  0  0  0  0  0  0  0  0  0  0
  -26.2158  -10.6174  140.1136 C   0  0  0  0  0  0  0  0  0  0  0  0
  1  2  1  0
  2  3  1  0
  3  4  1  0
  4  5  1  0
  4  6  1  0
  6  7  1  0
  1  8  1  0
  6  8  1  0
  7  9  1  0
  9 10  1  0
 10 11  1  0
 11 12  1  0
 12 13  1  0
 13 14  1  0
 14 15  1  0
 15 16  1  0
 13 17  1  0
 16 17  1  0
  2 18  1  0
 18 19  2  0
 14 20  1  0
 20 21  1  0
 21 22  2  3
 22 23  1  0
 22 24  1  0
 24 25  2  0
 15 26  1  0
 21 27  1  0
 26 27  1  0
 24 28  1  0
M  END

$$$$
No_598-/dssg/home/sw_qyf/PocketFlow/Model-Generation-Results/5HT2A_7WC7_rec_A_10.pdb/2024-01-01-03-54-21/
     RDKit          3D

 34 38  0  0  0  0  0  0  0  0999 V2000
  -24.1553  -17.8465  145.7021 C   0  0  0  0  0  0  0  0  0  0  0  0
  -24.2856  -16.6364  145.3494 C   0  0  0  0  0  0  0  0  0  0  0  0
  -25.0033  -15.6772  146.0737 C   0  0  0  0  0  0  0  0  0  0  0  0
  -25.6964  -16.1810  147.2049 C   0  0  0  0  0  0  0  0  0  0  0  0
  -24.8143  -18.3454  146.8324 C   0  0  0  0  0  0  0  0  0  0  0  0
  -25.5291  -17.4614  147.6374 C   0  0  0  0  0  0  0  0  0  0  0  0
  -23.6541  -16.0768  144.2055 N   0  0  0  0  0  0  0  0  0  0  0  0
  -25.1820  -14.2638  145.6423 C   0  0  0  0  0  0  0  0  0  0  0  0
  -24.4786  -13.7943  144.6613 C   0  0  0  0  0  0  0  0  0  0  0  0
  -23.6459  -14.7632  143.9232 C   0  0  0  0  0  0  0  0  0  0  0  0
  -26.3386  -13.6145  145.9648 C   0  0  0  0  0  0  0  0  0  0  0  0
  -26.2889  -12.2384  146.1629 C   0  0  0  0  0  0  0  0  0  0  0  0
  -27.2902  -11.4817  146.6217 C   0  0  0  0  0  0  0  0  0  0  0  0
  -28.5922  -12.0549  146.6927 C   0  0  0  0  0  0  0  0  0  0  0  0
  -28.6479  -13.4794  146.6122 C   0  0  0  0  0  0  0  0  0  0  0  0
  -27.5906  -14.2158  146.2173 C   0  0  0  0  0  0  0  0  0  0  0  0
  -29.8827  -14.0992  146.8295 N   0  0  0  0  0  0  0  0  0  0  0  0
  -30.4157  -14.4063  148.1653 C   0  0  0  0  0  0  0  0  0  0  0  0
  -31.2802  -13.5243  148.8741 C   0  0  0  0  0  0  0  0  0  0  0  0
  -31.7265  -13.8139  150.1290 C   0  0  0  0  0  0  0  0  0  0  0  0
  -31.3483  -15.0758  150.7605 C   0  0  0  0  0  0  0  0  0  0  0  0
  -30.4081  -15.8900  150.0400 C   0  0  0  0  0  0  0  0  0  0  0  0
  -29.9467  -15.5631  148.7799 C   0  0  0  0  0  0  0  0  0  0  0  0
  -32.6345  -12.9431  150.9118 C   0  0  0  0  0  0  0  0  0  0  0  0
  -32.2555  -12.0766  151.2885 F   0  0  0  0  0  0  0  0  0  0  0  0
  -33.1700  -13.8085  151.9158 F   0  0  0  0  0  0  0  0  0  0  0  0
  -33.5879  -12.6000  149.9763 F   0  0  0  0  0  0  0  0  0  0  0  0
  -29.0628  -16.4778  148.3846 N   0  0  0  0  0  0  0  0  0  0  0  0
  -28.7992  -17.5839  149.0372 C   0  0  0  0  0  0  0  0  0  0  0  0
  -29.2146  -17.8504  150.2749 N   0  0  0  0  0  0  0  0  0  0  0  0
  -30.0450  -17.0360  150.8455 C   0  0  0  0  0  0  0  0  0  0  0  0
  -25.0828  -11.5429  146.0334 N   0  0  0  0  0  0  0  0  0  0  0  0
  -30.5021  -17.2996  152.0698 N   0  0  0  0  0  0  0  0  0  0  0  0
  -24.4599  -10.7362  146.2702 O   0  0  0  0  0  0  0  0  0  0  0  0
  8 11  1  0
 15 17  1  0
 17 18  1  0
 20 24  1  0
 24 25  1  0
 24 26  1  0
 24 27  1  0
 12 32  1  0
 31 33  1  0
 32 34  2  0
 18 19  2  0
 19 20  1  0
 20 21  2  0
 21 22  1  0
 23 18  1  0
  1  2  2  0
  3  4  2  0
  4  6  1  0
  6  5  2  0
  5  1  1  0
 11 12  2  0
 12 13  1  0
 13 14  2  0
 14 15  1  0
 15 16  2  0
 16 11  1  0
 22 23  2  0
 23 28  1  0
 28 29  2  0
 29 30  1  0
 30 31  2  0
 31 22  1  0
  2  3  1  0
  3  8  1  0
  8  9  2  0
  9 10  1  0
 10  7  2  0
  7  2  1  0
M  END

$$$$
No_599-/dssg/home/sw_qyf/PocketFlow/Model-Generation-Results/5HT2A_7WC7_rec_A_10.pdb/2024-01-01-03-54-21/
     RDKit          3D

 10 10  0  0  0  0  0  0  0  0999 V2000
  -24.1553  -17.8465  145.7021 C   0  0  0  0  0  0  0  0  0  0  0  0
  -24.2856  -16.6364  145.3494 C   0  0  0  0  0  0  0  0  0  0  0  0
  -25.0033  -15.6772  146.0737 C   0  0  0  0  0  0  0  0  0  0  0  0
  -25.6964  -16.1810  147.2049 C   0  0  0  0  0  0  0  0  0  0  0  0
  -24.8143  -18.3454  146.8324 C   0  0  0  0  0  0  0  0  0  0  0  0
  -25.5292  -17.4614  147.6373 C   0  0  0  0  0  0  0  0  0  0  0  0
  -23.5978  -16.0422  144.1195 C   0  0  0  0  0  0  0  0  0  0  0  0
  -24.0691  -15.0409  143.5925 O   0  0  0  0  0  0  0  0  0  0  0  0
  -22.4695  -16.5843  143.8391 O   0  0  0  0  0  0  0  0  0  0  0  0
  -25.1559  -14.0009  145.7545 Cl  0  0  0  0  0  0  0  0  0  0  0  0
  2  7  1  0
  7  8  1  0
  7  9  2  0
  3 10  1  0
  1  2  2  0
  2  3  1  0
  3  4  2  0
  4  6  1  0
  6  5  2  0
  5  1  1  0
M  END

$$$$
No_600-/dssg/home/sw_qyf/PocketFlow/Model-Generation-Results/5HT2A_7WC7_rec_A_10.pdb/2024-01-01-03-54-21/
     RDKit          3D

 22 22  0  0  0  0  0  0  0  0999 V2000
  -24.1553  -17.8465  145.7021 C   0  0  0  0  0  0  0  0  0  0  0  0
  -23.9795  -18.4462  146.7426 C   0  0  0  0  0  0  0  0  0  0  0  0
  -23.2486  -17.2339  144.9771 C   0  0  0  0  0  0  0  0  0  0  0  0
  -22.6930  -18.2888  147.2822 N   0  0  0  0  0  0  0  0  0  0  0  0
  -23.6729  -16.2788  143.8990 C   0  0  0  0  0  0  0  0  0  0  0  0
  -24.8340  -15.4327  144.3424 C   0  0  0  0  0  0  0  0  0  0  0  0
  -24.9089  -14.0902  143.8612 C   0  0  0  0  0  0  0  0  0  0  0  0
  -26.0343  -13.3653  144.1957 C   0  0  0  0  0  0  0  0  0  0  0  0
  -26.5611  -12.5153  143.3147 C   0  0  0  0  0  0  0  0  0  0  0  0
  -27.6779  -11.6611  143.7457 C   0  0  0  0  0  0  0  0  0  0  0  0
  -28.3573  -10.6995  142.9729 C   0  0  0  0  0  0  0  0  0  0  0  0
  -29.4405   -9.9850  143.6116 C   0  0  0  0  0  0  0  0  0  0  0  0
  -30.1696   -9.0066  142.9251 C   0  0  0  0  0  0  0  0  0  0  0  0
  -29.6412   -8.5289  141.6799 C   0  0  0  0  0  0  0  0  0  0  0  0
  -28.6983   -9.2943  141.0182 C   0  0  0  0  0  0  0  0  0  0  0  0
  -27.9954  -10.3446  141.7347 C   0  0  0  0  0  0  0  0  0  0  0  0
  -28.2793   -8.9989  139.6758 C   0  0  0  0  0  0  0  0  0  0  0  0
  -28.8105   -7.8932  138.9850 C   0  0  0  0  0  0  0  0  0  0  0  0
  -27.5289   -9.9309  138.9188 C   0  0  0  0  0  0  0  0  0  0  0  0
  -29.8583  -10.3532  144.8374 F   0  0  0  0  0  0  0  0  0  0  0  0
  -28.4924   -7.8104  137.6969 N   0  0  0  0  0  0  0  0  0  0  0  0
  -31.2758   -8.2778  143.5562 C   0  0  0  0  0  0  0  0  0  0  0  0
  1  2  1  0
  1  3  2  3
  2  4  1  0
  3  5  1  0
  5  6  1  0
  6  7  2  3
  7  8  1  0
  8  9  1  0
  9 10  1  0
 10 11  2  3
 11 12  1  0
 12 13  1  0
 13 14  1  0
 14 15  1  0
 11 16  1  0
 15 16  1  0
 15 17  1  0
 17 18  2  3
 17 19  1  0
 12 20  1  0
 18 21  1  0
 13 22  1  0
M  END

$$$$
No_601-/dssg/home/sw_qyf/PocketFlow/Model-Generation-Results/5HT2A_7WC7_rec_A_10.pdb/2024-01-01-03-54-21/
     RDKit          3D

 35 37  0  0  0  0  0  0  0  0999 V2000
  -23.1746  -16.6014  144.8668 C   0  0  0  0  0  0  0  0  0  0  0  0
  -23.8963  -15.5346  144.7885 C   0  0  0  0  0  0  0  0  0  0  0  0
  -25.0304  -15.2549  144.5358 C   0  0  0  0  0  0  0  0  0  0  0  0
  -26.0482  -16.0541  145.3273 C   0  0  0  0  0  0  0  0  0  0  0  0
  -24.1314  -17.6118  145.6547 C   0  0  0  0  0  0  0  0  0  0  0  0
  -25.4664  -17.2664  145.8096 C   0  0  0  0  0  0  0  0  0  0  0  0
  -25.5852  -13.9177  144.0643 C   0  0  0  0  0  0  0  0  0  0  0  0
  -26.1752  -13.2039  144.6684 O   0  0  0  0  0  0  0  0  0  0  0  0
  -25.6427  -13.9674  142.7050 O   0  0  0  0  0  0  0  0  0  0  0  0
  -23.5929  -18.8789  146.1122 C   0  0  0  0  0  0  0  0  0  0  0  0
  -24.1541  -19.8920  146.0123 O   0  0  0  0  0  0  0  0  0  0  0  0
  -22.7178  -18.7087  147.1324 O   0  0  0  0  0  0  0  0  0  0  0  0
  -27.1276  -12.2384  144.1844 C   0  0  0  0  0  0  0  0  0  0  0  0
  -27.9824  -11.6959  145.1223 C   0  0  0  0  0  0  0  0  0  0  0  0
  -29.0097  -10.7655  144.7371 C   0  0  0  0  0  0  0  0  0  0  0  0
  -29.1516  -10.3053  143.4696 C   0  0  0  0  0  0  0  0  0  0  0  0
  -30.0306   -9.2728  143.1452 C   0  0  0  0  0  0  0  0  0  0  0  0
  -31.1661   -9.1315  144.0077 C   0  0  0  0  0  0  0  0  0  0  0  0
  -29.9919   -8.4650  141.9849 C   0  0  0  0  0  0  0  0  0  0  0  0
  -29.2927   -8.9251  140.9083 C   0  0  0  0  0  0  0  0  0  0  0  0
  -29.2103   -8.1745  139.7132 C   0  0  0  0  0  0  0  0  0  0  0  0
  -28.4057   -8.6433  138.6456 C   0  0  0  0  0  0  0  0  0  0  0  0
  -27.7176   -9.8311  138.7935 C   0  0  0  0  0  0  0  0  0  0  0  0
  -27.8152  -10.5864  139.9943 C   0  0  0  0  0  0  0  0  0  0  0  0
  -28.6144  -10.0682  141.0599 C   0  0  0  0  0  0  0  0  0  0  0  0
  -28.3502  -10.7311  142.3675 C   0  0  0  0  0  0  0  0  0  0  0  0
  -27.1202  -11.8675  140.0560 C   0  0  0  0  0  0  0  0  0  0  0  0
  -26.1727  -12.1185  139.3759 O   0  0  0  0  0  0  0  0  0  0  0  0
  -28.3649   -7.9813  137.5084 N   0  0  0  0  0  0  0  0  0  0  0  0
  -27.6199  -12.7604  140.9262 O   0  0  0  0  0  0  0  0  0  0  0  0
  -32.1745   -8.4844  143.7274 O   0  0  0  0  0  0  0  0  0  0  0  0
  -27.9095  -12.1163  146.5090 C   0  0  0  0  0  0  0  0  0  0  0  0
  -26.8608  -12.5027  146.9739 O   0  0  0  0  0  0  0  0  0  0  0  0
  -29.0793  -12.4595  147.1890 N   0  0  0  0  0  0  0  0  0  0  0  0
  -30.2960  -12.1694  146.8972 C   0  0  0  0  0  0  0  0  0  0  0  0
  3  7  1  0
  7  8  1  0
  7  9  2  0
  5 10  1  0
 10 11  1  0
 10 12  2  0
  8 13  1  0
 13 14  1  0
 14 15  2  3
 15 16  1  0
 17 18  1  0
 24 27  1  0
 27 28  1  0
 22 29  1  0
 27 30  2  0
 18 31  1  0
 14 32  1  0
 32 33  2  0
 32 34  1  0
 34 35  1  0
  1  2  2  0
  2  3  1  0
  3  4  2  0
  4  6  1  0
  6  5  2  0
  5  1  1  0
 16 17  2  0
 17 19  1  0
 19 20  2  0
 25 26  2  0
 26 16  1  0
 20 21  1  0
 21 22  2  0
 22 23  1  0
 23 24  2  0
 24 25  1  0
 25 20  1  0
M  END

$$$$
No_602-/dssg/home/sw_qyf/PocketFlow/Model-Generation-Results/5HT2A_7WC7_rec_A_10.pdb/2024-01-01-03-54-21/
     RDKit          3D

 35 38  0  0  0  0  0  0  0  0999 V2000
  -24.1553  -17.8465  145.7021 C   0  0  0  0  0  0  0  0  0  0  0  0
  -23.9795  -18.4462  146.7426 C   0  0  0  0  0  0  0  0  0  0  0  0
  -24.3577  -16.4380  145.7329 C   0  0  0  0  0  0  0  0  0  0  0  0
  -24.4745  -15.6012  144.5587 C   0  0  0  0  0  0  0  0  0  0  0  0
  -24.5845  -14.1656  144.8311 C   0  0  0  0  0  0  0  0  0  0  0  0
  -24.6908  -13.6330  146.1427 C   0  0  0  0  0  0  0  0  0  0  0  0
  -24.6742  -12.2578  146.3968 C   0  0  0  0  0  0  0  0  0  0  0  0
  -23.9827  -17.8753  148.0839 C   0  0  0  0  0  0  0  0  0  0  0  0
  -24.2674  -16.4832  148.1889 C   0  0  0  0  0  0  0  0  0  0  0  0
  -24.4278  -15.7419  147.0519 C   0  0  0  0  0  0  0  0  0  0  0  0
  -24.4371  -14.3380  147.2377 N   0  0  0  0  0  0  0  0  0  0  0  0
  -25.0534  -11.3578  145.2740 C   0  0  0  0  0  0  0  0  0  0  0  0
  -26.5625  -11.0086  145.1547 C   0  0  0  0  0  0  0  0  0  0  0  0
  -27.5021  -11.5637  145.8895 C   0  0  0  0  0  0  0  0  0  0  0  0
  -28.8424  -11.2167  145.7239 C   0  0  0  0  0  0  0  0  0  0  0  0
  -29.9269  -11.7022  146.5527 C   0  0  0  0  0  0  0  0  0  0  0  0
  -29.6146  -12.7041  147.4463 C   0  0  0  0  0  0  0  0  0  0  0  0
  -28.3289  -13.2849  147.4714 C   0  0  0  0  0  0  0  0  0  0  0  0
  -27.2774  -12.7554  146.8197 C   0  0  0  0  0  0  0  0  0  0  0  0
  -30.7301  -13.2535  148.2646 C   0  0  0  0  0  0  0  0  0  0  0  0
  -26.9054  -10.5212  143.8222 C   0  0  0  0  0  0  0  0  0  0  0  0
  -31.6084  -12.5088  148.6268 O   0  0  0  0  0  0  0  0  0  0  0  0
  -30.3403  -14.2035  149.1293 O   0  0  0  0  0  0  0  0  0  0  0  0
  -27.9393  -11.1308  143.1179 C   0  0  0  0  0  0  0  0  0  0  0  0
  -27.7835  -11.1585  141.7250 C   0  0  0  0  0  0  0  0  0  0  0  0
  -28.2333  -10.0289  140.9962 C   0  0  0  0  0  0  0  0  0  0  0  0
  -27.9700   -9.9277  139.5973 C   0  0  0  0  0  0  0  0  0  0  0  0
  -28.1190   -8.6158  138.9282 C   0  0  0  0  0  0  0  0  0  0  0  0
  -29.3165   -8.0690  139.2337 C   0  0  0  0  0  0  0  0  0  0  0  0
  -29.7373   -8.0670  140.6869 C   0  0  0  0  0  0  0  0  0  0  0  0
  -29.2939   -9.1634  141.4726 C   0  0  0  0  0  0  0  0  0  0  0  0
  -27.2627  -12.3267  141.1576 C   0  0  0  0  0  0  0  0  0  0  0  0
  -27.1706  -13.3220  141.8721 O   0  0  0  0  0  0  0  0  0  0  0  0
  -27.0632  -12.4378  139.8875 O   0  0  0  0  0  0  0  0  0  0  0  0
  -32.5721  -12.8334  149.5999 C   0  0  0  0  0  0  0  0  0  0  0  0
  3  4  1  0
  4  5  1  0
  5  6  1  0
  6  7  1  0
  6 11  1  0
 10 11  1  0
  7 12  1  0
 12 13  1  0
 17 20  1  0
 13 21  1  0
 20 22  1  0
 20 23  2  0
 21 24  1  0
 24 25  1  0
 25 32  1  0
 32 33  2  0
 32 34  1  0
 22 35  1  0
 25 26  1  0
 13 14  1  0
 26 27  2  0
 27 28  1  0
 28 29  2  0
 29 30  1  0
 30 31  2  0
 31 26  1  0
 14 15  2  0
 15 16  1  0
 16 17  2  0
 17 18  1  0
 18 19  2  0
 19 14  1  0
  1  2  2  0
  2  8  1  0
  8  9  2  0
  9 10  1  0
 10  3  2  0
  3  1  1  0
M  END

$$$$
No_603-/dssg/home/sw_qyf/PocketFlow/Model-Generation-Results/5HT2A_7WC7_rec_A_10.pdb/2024-01-01-03-54-21/
     RDKit          3D

 35 37  0  0  0  0  0  0  0  0999 V2000
  -23.1746  -16.6014  144.8668 C   0  0  0  0  0  0  0  0  0  0  0  0
  -23.8963  -15.5346  144.7885 C   0  0  0  0  0  0  0  0  0  0  0  0
  -23.6398  -14.5115  145.3281 C   0  0  0  0  0  0  0  0  0  0  0  0
  -24.4028  -13.2284  145.0157 C   0  0  0  0  0  0  0  0  0  0  0  0
  -23.8195  -12.0541  145.5896 C   0  0  0  0  0  0  0  0  0  0  0  0
  -25.7577  -13.3836  145.4533 O   0  0  0  0  0  0  0  0  0  0  0  0
  -26.6520  -12.9448  144.7345 C   0  0  0  0  0  0  0  0  0  0  0  0
  -27.0325  -11.4858  144.9955 C   0  0  0  0  0  0  0  0  0  0  0  0
  -27.6948  -10.7113  144.0565 C   0  0  0  0  0  0  0  0  0  0  0  0
  -28.6442   -9.8136  144.5950 C   0  0  0  0  0  0  0  0  0  0  0  0
  -29.9915   -9.9108  143.9611 C   0  0  0  0  0  0  0  0  0  0  0  0
  -30.1918   -8.9520  142.9098 C   0  0  0  0  0  0  0  0  0  0  0  0
  -29.4904   -8.9993  141.7300 C   0  0  0  0  0  0  0  0  0  0  0  0
  -28.7828  -10.0211  141.2369 C   0  0  0  0  0  0  0  0  0  0  0  0
  -28.3242  -10.0592  139.9998 C   0  0  0  0  0  0  0  0  0  0  0  0
  -28.5105   -8.8385  139.2986 C   0  0  0  0  0  0  0  0  0  0  0  0
  -27.9903   -8.6840  137.9227 C   0  0  0  0  0  0  0  0  0  0  0  0
  -29.6473   -7.9904  140.6572 C   0  0  0  0  0  0  0  0  0  0  0  0
  -31.3130   -7.9799  143.0965 C   0  0  0  0  0  0  0  0  0  0  0  0
  -23.7680  -17.7376  145.6474 C   0  0  0  0  0  0  0  0  0  0  0  0
  -24.7206  -17.2894  146.6044 C   0  0  0  0  0  0  0  0  0  0  0  0
  -24.2904  -17.4263  147.9952 C   0  0  0  0  0  0  0  0  0  0  0  0
  -25.1905  -17.0048  149.0362 C   0  0  0  0  0  0  0  0  0  0  0  0
  -26.4812  -16.5219  148.5991 C   0  0  0  0  0  0  0  0  0  0  0  0
  -26.7826  -16.3007  147.2876 C   0  0  0  0  0  0  0  0  0  0  0  0
  -25.8872  -16.7453  146.3089 C   0  0  0  0  0  0  0  0  0  0  0  0
  -28.1015  -15.6879  147.0242 C   0  0  0  0  0  0  0  0  0  0  0  0
  -29.0249  -15.2275  147.8768 C   0  0  0  0  0  0  0  0  0  0  0  0
  -30.1451  -14.4668  147.5010 C   0  0  0  0  0  0  0  0  0  0  0  0
  -30.0101  -13.7101  146.3008 C   0  0  0  0  0  0  0  0  0  0  0  0
  -28.7849  -13.6993  145.6590 C   0  0  0  0  0  0  0  0  0  0  0  0
  -27.8760  -14.7466  145.8914 C   0  0  0  0  0  0  0  0  0  0  0  0
  -22.5729  -11.6624  144.8846 C   0  0  0  0  0  0  0  0  0  0  0  0
  -27.5066  -11.0668  139.4191 C   0  0  0  0  0  0  0  0  0  0  0  0
  -26.3034  -11.5010  139.9992 C   0  0  0  0  0  0  0  0  0  0  0  0
  1  2  1  0
  2  3  1  0
  3  4  1  0
  4  5  1  0
  4  6  1  0
  6  7  1  0
  7  8  1  0
  8  9  1  0
  9 10  2  3
 10 11  1  0
 11 12  1  0
 12 13  2  3
 13 14  1  0
 14 15  2  0
 15 16  1  0
 16 17  2  0
 13 18  1  0
 16 18  1  0
 12 19  1  0
  1 20  1  0
 20 21  1  0
 25 27  1  0
  5 33  1  0
 15 34  1  0
 34 35  1  0
 27 28  2  0
 28 29  1  0
 29 30  2  0
 30 31  1  0
 31 32  2  0
 32 27  1  0
 21 22  2  0
 22 23  1  0
 23 24  2  0
 24 25  1  0
 25 26  2  0
 26 21  1  0
M  END

$$$$
No_604-/dssg/home/sw_qyf/PocketFlow/Model-Generation-Results/5HT2A_7WC7_rec_A_10.pdb/2024-01-01-03-54-21/
     RDKit          3D

 22 24  0  0  0  0  0  0  0  0999 V2000
  -24.1553  -17.8465  145.7021 C   0  0  0  0  0  0  0  0  0  0  0  0
  -24.2856  -16.6364  145.3494 C   0  0  0  0  0  0  0  0  0  0  0  0
  -25.0033  -15.6772  146.0737 C   0  0  0  0  0  0  0  0  0  0  0  0
  -25.1197  -14.2835  145.7299 C   0  0  0  0  0  0  0  0  0  0  0  0
  -24.2707  -13.8793  144.6500 C   0  0  0  0  0  0  0  0  0  0  0  0
  -24.8686  -18.3355  146.8179 C   0  0  0  0  0  0  0  0  0  0  0  0
  -24.2614  -12.4593  144.3479 C   0  0  0  0  0  0  0  0  0  0  0  0
  -24.7826  -11.7363  145.3299 C   0  0  0  0  0  0  0  0  0  0  0  0
  -25.6373  -12.0741  146.3554 C   0  0  0  0  0  0  0  0  0  0  0  0
  -25.7047  -13.4248  146.6272 C   0  0  0  0  0  0  0  0  0  0  0  0
  -25.4179  -16.2331  147.4191 C   0  0  0  0  0  0  0  0  0  0  0  0
  -25.3371  -17.4642  147.7606 C   0  0  0  0  0  0  0  0  0  0  0  0
  -23.7806  -16.2528  144.1727 O   0  0  0  0  0  0  0  0  0  0  0  0
  -23.7125  -14.8744  143.9156 C   0  0  0  0  0  0  0  0  0  0  0  0
  -23.6279  -18.8023  144.9089 O   0  0  0  0  0  0  0  0  0  0  0  0
  -26.3105  -11.1510  147.0850 O   0  0  0  0  0  0  0  0  0  0  0  0
  -25.7633  -17.8493  148.9831 O   0  0  0  0  0  0  0  0  0  0  0  0
  -24.8907  -17.3913  150.1412 C   0  0  0  0  0  0  0  0  0  0  0  0
  -23.5406  -17.0949  149.9794 C   0  0  0  0  0  0  0  0  0  0  0  0
  -22.6751  -16.8761  151.0509 C   0  0  0  0  0  0  0  0  0  0  0  0
  -21.3784  -16.5809  150.8119 C   0  0  0  0  0  0  0  0  0  0  0  0
  -20.3268  -16.0330  152.3428 Br  0  0  0  0  0  0  0  0  0  0  0  0
  3  4  1  0
  2 13  1  0
  5 14  1  0
 13 14  1  0
  1 15  1  0
  9 16  1  0
 12 17  1  0
 17 18  1  0
 18 19  1  0
 19 20  2  3
 20 21  1  0
 21 22  1  0
  1  2  2  0
  2  3  1  0
  3 11  2  0
 11 12  1  0
 12  6  2  0
  6  1  1  0
  4  5  2  0
  5  7  1  0
  7  8  2  0
  8  9  1  0
  9 10  2  0
 10  4  1  0
M  END

$$$$
No_605-/dssg/home/sw_qyf/PocketFlow/Model-Generation-Results/5HT2A_7WC7_rec_A_10.pdb/2024-01-01-03-54-21/
     RDKit          3D

 32 34  0  0  0  0  0  0  0  0999 V2000
  -23.1746  -16.6014  144.8668 C   0  0  0  0  0  0  0  0  0  0  0  0
  -23.7011  -17.0158  145.9774 C   0  0  0  0  0  0  0  0  0  0  0  0
  -23.7336  -18.2775  146.3737 C   0  0  0  0  0  0  0  0  0  0  0  0
  -24.1960  -18.6445  147.6858 C   0  0  0  0  0  0  0  0  0  0  0  0
  -24.7100  -17.6145  148.5486 C   0  0  0  0  0  0  0  0  0  0  0  0
  -24.7929  -16.2635  148.0870 C   0  0  0  0  0  0  0  0  0  0  0  0
  -24.2508  -15.9434  146.8891 C   0  0  0  0  0  0  0  0  0  0  0  0
  -23.2387  -15.3708  144.4144 O   0  0  0  0  0  0  0  0  0  0  0  0
  -24.1583  -14.6263  145.0214 C   0  0  0  0  0  0  0  0  0  0  0  0
  -24.4075  -14.6351  146.4295 C   0  0  0  0  0  0  0  0  0  0  0  0
  -23.7336  -13.0555  144.6416 C   0  0  0  0  0  0  0  0  0  0  0  0
  -22.4846  -13.0676  144.5096 O   0  0  0  0  0  0  0  0  0  0  0  0
  -23.2675  -19.2413  145.6958 F   0  0  0  0  0  0  0  0  0  0  0  0
  -24.5205  -12.0888  144.8073 N   0  0  0  0  0  0  0  0  0  0  0  0
  -25.3271  -11.8261  145.3444 C   0  0  0  0  0  0  0  0  0  0  0  0
  -26.3508  -10.6853  145.0314 C   0  0  0  0  0  0  0  0  0  0  0  0
  -27.4756  -10.9199  144.2631 C   0  0  0  0  0  0  0  0  0  0  0  0
  -28.2645   -9.7802  143.8097 C   0  0  0  0  0  0  0  0  0  0  0  0
  -28.9065   -9.7370  143.0138 C   0  0  0  0  0  0  0  0  0  0  0  0
  -29.8560   -8.6490  142.6524 C   0  0  0  0  0  0  0  0  0  0  0  0
  -31.2171   -8.7646  142.4823 C   0  0  0  0  0  0  0  0  0  0  0  0
  -31.7952   -9.2882  143.5435 C   0  0  0  0  0  0  0  0  0  0  0  0
  -28.9049  -10.7093  141.9205 C   0  0  0  0  0  0  0  0  0  0  0  0
  -27.9845  -11.8103  142.1573 C   0  0  0  0  0  0  0  0  0  0  0  0
  -27.2288  -11.8374  143.3182 C   0  0  0  0  0  0  0  0  0  0  0  0
  -29.6311   -7.4155  143.5872 C   0  0  0  0  0  0  0  0  0  0  0  0
  -29.3803   -7.8590  141.2321 C   0  0  0  0  0  0  0  0  0  0  0  0
  -28.8688   -8.5998  140.2217 C   0  0  0  0  0  0  0  0  0  0  0  0
  -28.6015   -7.9588  138.9901 C   0  0  0  0  0  0  0  0  0  0  0  0
  -27.8899   -8.6709  137.9837 C   0  0  0  0  0  0  0  0  0  0  0  0
  -27.8219  -10.0435  138.1929 C   0  0  0  0  0  0  0  0  0  0  0  0
  -27.9173  -10.6636  139.4324 C   0  0  0  0  0  0  0  0  0  0  0  0
  1  2  1  0
  1  8  1  0
  8  9  1  0
  7 10  1  0
  9 10  2  0
  9 11  1  0
 11 12  2  0
  3 13  1  0
 11 14  1  0
 14 15  1  0
 15 16  2  3
 16 17  1  0
 19 20  1  0
 20 21  1  0
 21 22  1  0
 20 26  1  0
 20 27  1  0
 27 28  2  3
 28 29  1  0
 29 30  2  3
 30 31  1  0
 31 32  2  0
 17 18  2  0
 18 19  1  0
 19 23  2  0
 23 24  1  0
 24 25  2  0
 25 17  1  0
  2  3  2  0
  3  4  1  0
  4  5  2  0
  5  6  1  0
  6  7  2  0
  7  2  1  0
M  END

$$$$
No_606-/dssg/home/sw_qyf/PocketFlow/Model-Generation-Results/5HT2A_7WC7_rec_A_10.pdb/2024-01-01-03-54-21/
     RDKit          3D

 35 37  0  0  0  0  0  0  0  0999 V2000
  -23.1746  -16.6014  144.8668 C   0  0  0  0  0  0  0  0  0  0  0  0
  -23.7011  -17.0158  145.9774 C   0  0  0  0  0  0  0  0  0  0  0  0
  -24.7095  -16.6222  146.3578 C   0  0  0  0  0  0  0  0  0  0  0  0
  -25.2589  -16.9410  147.8028 C   0  0  0  0  0  0  0  0  0  0  0  0
  -24.3234  -17.5558  148.6398 C   0  0  0  0  0  0  0  0  0  0  0  0
  -23.7919  -15.5148  144.2100 C   0  0  0  0  0  0  0  0  0  0  0  0
  -24.8968  -14.8816  144.7775 C   0  0  0  0  0  0  0  0  0  0  0  0
  -25.3730  -15.4146  145.9639 C   0  0  0  0  0  0  0  0  0  0  0  0
  -23.0874  -17.9598  148.1323 C   0  0  0  0  0  0  0  0  0  0  0  0
  -22.6999  -17.6999  146.8561 C   0  0  0  0  0  0  0  0  0  0  0  0
  -25.5936  -13.8202  144.0331 C   0  0  0  0  0  0  0  0  0  0  0  0
  -26.2740  -12.8354  144.8164 C   0  0  0  0  0  0  0  0  0  0  0  0
  -25.5319  -12.0923  145.5237 C   0  0  0  0  0  0  0  0  0  0  0  0
  -24.2505  -12.2355  145.8699 C   0  0  0  0  0  0  0  0  0  0  0  0
  -26.5519  -16.6159  148.2381 C   0  0  0  0  0  0  0  0  0  0  0  0
  -26.8990  -15.5488  147.9649 F   0  0  0  0  0  0  0  0  0  0  0  0
  -26.5752  -16.7529  149.6606 F   0  0  0  0  0  0  0  0  0  0  0  0
  -27.4331  -17.5254  147.7633 F   0  0  0  0  0  0  0  0  0  0  0  0
  -25.7956  -10.5993  144.9954 C   0  0  0  0  0  0  0  0  0  0  0  0
  -27.4262  -12.2333  143.9348 C   0  0  0  0  0  0  0  0  0  0  0  0
  -27.1999  -10.9081  144.2828 C   0  0  0  0  0  0  0  0  0  0  0  0
  -28.4398  -10.4270  145.1834 C   0  0  0  0  0  0  0  0  0  0  0  0
  -29.0805  -11.3668  145.9510 C   0  0  0  0  0  0  0  0  0  0  0  0
  -30.3638  -10.9888  146.5799 C   0  0  0  0  0  0  0  0  0  0  0  0
  -31.0003  -10.3246  145.9332 F   0  0  0  0  0  0  0  0  0  0  0  0
  -31.0187  -12.0241  147.1958 F   0  0  0  0  0  0  0  0  0  0  0  0
  -23.0940  -11.9552  145.0882 C   0  0  0  0  0  0  0  0  0  0  0  0
  -23.8973  -12.6087  147.3116 C   0  0  0  0  0  0  0  0  0  0  0  0
  -25.5582  -13.8694  142.8080 O   0  0  0  0  0  0  0  0  0  0  0  0
  -21.7836  -11.8540  145.2350 C   0  0  0  0  0  0  0  0  0  0  0  0
  -21.0679  -11.6757  144.0919 C   0  0  0  0  0  0  0  0  0  0  0  0
  -27.1787   -9.9819  143.0202 C   0  0  0  0  0  0  0  0  0  0  0  0
  -27.8578  -10.4420  141.8857 C   0  0  0  0  0  0  0  0  0  0  0  0
  -29.0417  -10.9948  141.9377 C   0  0  0  0  0  0  0  0  0  0  0  0
  -27.1788  -10.3759  140.6424 C   0  0  0  0  0  0  0  0  0  0  0  0
  7 11  1  0
 11 12  1  0
 12 13  1  0
 13 14  1  0
  4 15  1  0
 15 16  1  0
 15 17  1  0
 15 18  1  0
 13 19  1  0
 12 20  1  0
 19 21  1  0
 20 21  1  0
 21 22  1  0
 22 23  1  0
 23 24  1  0
 24 25  1  0
 24 26  1  0
 14 27  1  0
 14 28  1  0
 11 29  2  0
 27 30  2  3
 30 31  1  0
 21 32  1  0
 32 33  1  0
 33 34  2  0
 33 35  1  0
  1  2  2  0
  3  8  2  0
  8  7  1  0
  7  6  2  0
  6  1  1  0
  2  3  1  0
  3  4  1  0
  4  5  2  0
  5  9  1  0
  9 10  2  0
 10  2  1  0
M  END

$$$$
No_607-/dssg/home/sw_qyf/PocketFlow/Model-Generation-Results/5HT2A_7WC7_rec_A_10.pdb/2024-01-01-03-54-21/
     RDKit          3D

 32 36  0  0  0  0  0  0  0  0999 V2000
  -23.1746  -16.6014  144.8668 C   0  0  0  0  0  0  0  0  0  0  0  0
  -24.0189  -16.0564  145.8445 C   0  0  0  0  0  0  0  0  0  0  0  0
  -24.4850  -14.7380  145.6359 C   0  0  0  0  0  0  0  0  0  0  0  0
  -25.3334  -14.0797  146.6105 C   0  0  0  0  0  0  0  0  0  0  0  0
  -25.7120  -12.7595  146.4431 C   0  0  0  0  0  0  0  0  0  0  0  0
  -25.2808  -11.9605  145.3602 C   0  0  0  0  0  0  0  0  0  0  0  0
  -24.2994  -12.5741  144.5564 C   0  0  0  0  0  0  0  0  0  0  0  0
  -23.8450  -13.9153  144.6819 C   0  0  0  0  0  0  0  0  0  0  0  0
  -24.5228  -16.8277  146.9041 C   0  0  0  0  0  0  0  0  0  0  0  0
  -25.2756  -16.6956  147.7328 C   0  0  0  0  0  0  0  0  0  0  0  0
  -26.3276  -15.8175  147.8275 C   0  0  0  0  0  0  0  0  0  0  0  0
  -26.1518  -14.5145  147.4427 C   0  0  0  0  0  0  0  0  0  0  0  0
  -25.7232  -10.3403  145.1316 Cl  0  0  0  0  0  0  0  0  0  0  0  0
  -23.7701  -18.1125  147.0317 N   0  0  0  0  0  0  0  0  0  0  0  0
  -23.7807  -19.0837  146.3946 C   0  0  0  0  0  0  0  0  0  0  0  0
  -23.4487  -19.0176  145.0569 N   0  0  0  0  0  0  0  0  0  0  0  0
  -23.2575  -17.9211  144.5746 N   0  0  0  0  0  0  0  0  0  0  0  0
  -22.3494  -15.9776  144.3200 O   0  0  0  0  0  0  0  0  0  0  0  0
  -27.6496  -16.2119  148.4365 C   0  0  0  0  0  0  0  0  0  0  0  0
  -28.8386  -15.6243  148.0480 C   0  0  0  0  0  0  0  0  0  0  0  0
  -29.7433  -15.0962  148.9650 C   0  0  0  0  0  0  0  0  0  0  0  0
  -30.8050  -14.2208  148.5154 C   0  0  0  0  0  0  0  0  0  0  0  0
  -30.4812  -13.3599  147.7638 C   0  0  0  0  0  0  0  0  0  0  0  0
  -29.2855  -13.4599  146.8692 C   0  0  0  0  0  0  0  0  0  0  0  0
  -29.2158  -15.4250  146.6696 C   0  0  0  0  0  0  0  0  0  0  0  0
  -29.2525  -12.2337  146.1574 N   0  0  0  0  0  0  0  0  0  0  0  0
  -29.7904  -14.7083  146.1348 O   0  0  0  0  0  0  0  0  0  0  0  0
  -29.4688  -10.9924  146.6290 C   0  0  0  0  0  0  0  0  0  0  0  0
  -28.7075  -12.2710  144.7933 C   0  0  0  0  0  0  0  0  0  0  0  0
  -28.7505  -11.1705  143.9491 C   0  0  0  0  0  0  0  0  0  0  0  0
  -29.6599   -9.9320  145.8016 N   0  0  0  0  0  0  0  0  0  0  0  0
  -29.2006   -9.9487  144.6204 C   0  0  0  0  0  0  0  0  0  0  0  0
  1  2  1  0
  2  9  1  0
  9 10  2  0
 10 11  1  0
  4 12  1  0
 11 12  2  0
  6 13  1  0
  9 14  1  0
 14 15  1  0
 15 16  1  0
  1 17  1  0
 16 17  2  0
  1 18  2  0
 11 19  1  0
 19 20  1  0
 20 21  2  0
 21 22  1  0
 22 23  2  0
 23 24  1  0
 20 25  1  0
 24 26  1  0
 24 27  1  0
 25 27  1  0
 26 28  1  0
 26 29  1  0
 28 31  1  0
 30 32  1  0
  2  3  1  0
 31 32  1  0
 30 29  1  0
  3  4  2  0
  4  5  1  0
  5  6  2  0
  6  7  1  0
  7  8  2  0
  8  3  1  0
M  END

$$$$
No_608-/dssg/home/sw_qyf/PocketFlow/Model-Generation-Results/5HT2A_7WC7_rec_A_10.pdb/2024-01-01-03-54-21/
     RDKit          3D

 30 30  0  0  0  0  0  0  0  0999 V2000
  -23.1746  -16.6014  144.8668 C   0  0  0  0  0  0  0  0  0  0  0  0
  -23.8963  -15.5346  144.7885 C   0  0  0  0  0  0  0  0  0  0  0  0
  -23.6398  -14.5115  145.3281 C   0  0  0  0  0  0  0  0  0  0  0  0
  -24.3240  -13.3648  145.1281 C   0  0  0  0  0  0  0  0  0  0  0  0
  -25.5072  -13.2953  144.4353 C   0  0  0  0  0  0  0  0  0  0  0  0
  -26.3857  -12.2346  144.3607 C   0  0  0  0  0  0  0  0  0  0  0  0
  -27.7065  -12.3483  143.7415 C   0  0  0  0  0  0  0  0  0  0  0  0
  -28.5833  -11.2836  143.8797 C   0  0  0  0  0  0  0  0  0  0  0  0
  -29.3458  -11.2356  144.9720 C   0  0  0  0  0  0  0  0  0  0  0  0
  -30.2073  -10.1311  145.2391 N   0  0  0  0  0  0  0  0  0  0  0  0
  -28.8806  -11.8274  146.1294 O   0  0  0  0  0  0  0  0  0  0  0  0
  -22.5763  -16.7248  146.1798 C   0  0  0  0  0  0  0  0  0  0  0  0
  -23.3582  -17.3275  147.2053 C   0  0  0  0  0  0  0  0  0  0  0  0
  -24.6371  -17.7899  147.1252 C   0  0  0  0  0  0  0  0  0  0  0  0
  -25.3292  -17.0167  146.4810 F   0  0  0  0  0  0  0  0  0  0  0  0
  -24.6673  -19.0465  146.7441 F   0  0  0  0  0  0  0  0  0  0  0  0
  -29.4815  -11.0510  142.6682 C   0  0  0  0  0  0  0  0  0  0  0  0
  -28.6611  -10.6099  141.5133 C   0  0  0  0  0  0  0  0  0  0  0  0
  -28.7205   -9.3282  141.0906 C   0  0  0  0  0  0  0  0  0  0  0  0
  -29.2383   -9.0342  140.0247 C   0  0  0  0  0  0  0  0  0  0  0  0
  -29.1505   -7.4962  139.6370 C   0  0  0  0  0  0  0  0  0  0  0  0
  -28.1547  -11.6299  140.6941 C   0  0  0  0  0  0  0  0  0  0  0  0
  -27.5117  -11.3183  139.5255 C   0  0  0  0  0  0  0  0  0  0  0  0
  -26.6822  -12.4225  139.0205 C   0  0  0  0  0  0  0  0  0  0  0  0
  -25.6906  -12.3389  139.1956 O   0  0  0  0  0  0  0  0  0  0  0  0
  -27.2407  -12.6033  137.7927 O   0  0  0  0  0  0  0  0  0  0  0  0
  -29.4205   -6.7197  140.6617 N   0  0  0  0  0  0  0  0  0  0  0  0
  -29.2457   -7.0627  141.9888 C   0  0  0  0  0  0  0  0  0  0  0  0
  -29.0136   -8.3988  142.2692 N   0  0  0  0  0  0  0  0  0  0  0  0
  -25.1414  -17.8095  148.4594 F   0  0  0  0  0  0  0  0  0  0  0  0
  1  2  1  0
  2  3  2  3
  3  4  1  0
  4  5  2  3
  5  6  1  0
  6  7  1  0
  7  8  1  0
  8  9  1  0
  9 10  1  0
  9 11  2  0
  1 12  1  0
 12 13  2  3
 13 14  1  0
 14 15  1  0
 14 16  1  0
  8 17  1  0
 17 18  1  0
 18 19  1  0
 18 22  1  0
 22 23  2  3
 23 24  1  0
 24 25  1  0
 24 26  2  0
 14 30  1  0
 19 20  2  0
 20 21  1  0
 21 27  2  0
 27 28  1  0
 28 29  2  0
 29 19  1  0
M  END

$$$$
No_609-/dssg/home/sw_qyf/PocketFlow/Model-Generation-Results/5HT2A_7WC7_rec_A_10.pdb/2024-01-01-03-54-21/
     RDKit          3D

 20 22  0  0  0  0  0  0  0  0999 V2000
  -23.1746  -16.6014  144.8668 C   0  0  0  0  0  0  0  0  0  0  0  0
  -23.8963  -15.5346  144.7885 C   0  0  0  0  0  0  0  0  0  0  0  0
  -24.6479  -15.0447  145.8164 C   0  0  0  0  0  0  0  0  0  0  0  0
  -24.7862  -15.8388  146.9698 C   0  0  0  0  0  0  0  0  0  0  0  0
  -24.1323  -17.0288  147.0733 C   0  0  0  0  0  0  0  0  0  0  0  0
  -23.3328  -17.4298  146.0306 C   0  0  0  0  0  0  0  0  0  0  0  0
  -25.4239  -13.7422  145.7900 C   0  0  0  0  0  0  0  0  0  0  0  0
  -26.7272  -13.7506  145.7410 C   0  0  0  0  0  0  0  0  0  0  0  0
  -27.2848  -12.6515  145.6890 C   0  0  0  0  0  0  0  0  0  0  0  0
  -26.6453  -11.3387  145.5282 C   0  0  0  0  0  0  0  0  0  0  0  0
  -24.5874  -12.5521  145.8729 C   0  0  0  0  0  0  0  0  0  0  0  0
  -25.2423  -11.3771  145.7746 C   0  0  0  0  0  0  0  0  0  0  0  0
  -28.8427  -12.4345  145.6633 C   0  0  0  0  0  0  0  0  0  0  0  0
  -29.5161  -12.5474  146.9944 C   0  0  0  0  0  0  0  0  0  0  0  0
  -29.6418  -13.6622  147.7464 C   0  0  0  0  0  0  0  0  0  0  0  0
  -29.0353  -14.8930  147.4388 C   0  0  0  0  0  0  0  0  0  0  0  0
  -29.0866  -15.9014  148.4450 C   0  0  0  0  0  0  0  0  0  0  0  0
  -30.0488  -15.8204  149.4948 C   0  0  0  0  0  0  0  0  0  0  0  0
  -30.7408  -14.6534  149.7500 C   0  0  0  0  0  0  0  0  0  0  0  0
  -30.5818  -13.5514  148.9377 C   0  0  0  0  0  0  0  0  0  0  0  0
  3  7  1  0
  9 13  1  0
 13 14  1  0
 14 15  1  0
  7  8  2  0
  8  9  1  0
  9 10  2  0
 10 12  1  0
 12 11  2  0
 11  7  1  0
  1  2  2  0
  2  3  1  0
  3  4  2  0
  4  5  1  0
  5  6  2  0
  6  1  1  0
 15 16  2  0
 16 17  1  0
 17 18  2  0
 18 19  1  0
 19 20  2  0
 20 15  1  0
M  END

$$$$
No_610-/dssg/home/sw_qyf/PocketFlow/Model-Generation-Results/5HT2A_7WC7_rec_A_10.pdb/2024-01-01-03-54-21/
     RDKit          3D

 35 37  0  0  0  0  0  0  0  0999 V2000
  -24.1553  -17.8465  145.7021 C   0  0  0  0  0  0  0  0  0  0  0  0
  -23.9795  -18.4462  146.7426 C   0  0  0  0  0  0  0  0  0  0  0  0
  -23.2486  -17.2339  144.9771 C   0  0  0  0  0  0  0  0  0  0  0  0
  -22.6834  -18.2906  147.4267 C   0  0  0  0  0  0  0  0  0  0  0  0
  -22.2503  -17.3006  147.7420 N   0  0  0  0  0  0  0  0  0  0  0  0
  -23.8563  -16.0164  144.2667 C   0  0  0  0  0  0  0  0  0  0  0  0
  -25.0104  -15.3349  144.7978 C   0  0  0  0  0  0  0  0  0  0  0  0
  -25.3218  -14.0646  144.2630 C   0  0  0  0  0  0  0  0  0  0  0  0
  -26.7468  -13.7123  144.2672 C   0  0  0  0  0  0  0  0  0  0  0  0
  -27.4540  -14.0545  145.4459 C   0  0  0  0  0  0  0  0  0  0  0  0
  -27.1715  -15.2974  146.1031 C   0  0  0  0  0  0  0  0  0  0  0  0
  -25.8116  -15.8772  145.8794 C   0  0  0  0  0  0  0  0  0  0  0  0
  -28.0665  -15.9292  146.9987 C   0  0  0  0  0  0  0  0  0  0  0  0
  -29.1517  -15.2813  147.4827 C   0  0  0  0  0  0  0  0  0  0  0  0
  -29.7245  -14.1543  146.8545 C   0  0  0  0  0  0  0  0  0  0  0  0
  -28.7659  -13.4588  145.9472 C   0  0  0  0  0  0  0  0  0  0  0  0
  -29.0314  -12.0551  145.5411 C   0  0  0  0  0  0  0  0  0  0  0  0
  -29.5404  -11.1412  146.5143 C   0  0  0  0  0  0  0  0  0  0  0  0
  -28.9491  -11.6216  144.2401 C   0  0  0  0  0  0  0  0  0  0  0  0
  -29.5763  -10.4072  143.8403 C   0  0  0  0  0  0  0  0  0  0  0  0
  -29.8406  -10.0439  142.6478 C   0  0  0  0  0  0  0  0  0  0  0  0
  -30.7025   -8.9495  142.3672 C   0  0  0  0  0  0  0  0  0  0  0  0
  -30.1897   -7.8174  142.2123 C   0  0  0  0  0  0  0  0  0  0  0  0
  -29.6420   -7.3729  140.9165 C   0  0  0  0  0  0  0  0  0  0  0  0
  -29.4629   -8.4053  139.9931 C   0  0  0  0  0  0  0  0  0  0  0  0
  -28.8047   -8.0316  138.7764 C   0  0  0  0  0  0  0  0  0  0  0  0
  -29.8497  -11.7497  147.8405 C   0  0  0  0  0  0  0  0  0  0  0  0
  -28.0292   -8.9932  138.1009 C   0  0  0  0  0  0  0  0  0  0  0  0
  -30.1147  -13.1556  148.0004 C   0  0  0  0  0  0  0  0  0  0  0  0
  -32.0205   -9.1746  142.4236 O   0  0  0  0  0  0  0  0  0  0  0  0
  -28.5139  -10.1437  138.3143 C   0  0  0  0  0  0  0  0  0  0  0  0
  -27.8379  -11.2578  137.5797 C   0  0  0  0  0  0  0  0  0  0  0  0
  -27.6511  -17.0704  147.4926 O   0  0  0  0  0  0  0  0  0  0  0  0
  -30.9302  -13.5985  149.1150 C   0  0  0  0  0  0  0  0  0  0  0  0
  -31.8722  -12.7449  149.7502 C   0  0  0  0  0  0  0  0  0  0  0  0
  1  2  1  0
  1  3  2  3
  2  4  1  0
  4  5  1  0
  3  6  1  0
  6  7  2  3
  7  8  1  0
  8  9  1  0
  9 10  1  0
 10 11  1  0
  7 12  1  0
 11 12  1  0
 11 13  1  0
 13 14  1  0
 10 16  1  0
 17 19  1  0
 19 20  1  0
 20 21  1  0
 21 22  1  0
 22 23  1  0
 23 24  1  0
 24 25  1  0
 25 26  2  3
 26 28  1  0
 22 30  2  0
 28 31  2  3
 31 32  1  0
 13 33  2  0
 29 34  1  0
 34 35  1  0
 15 14  1  0
 15 16  2  0
 16 17  1  0
 17 18  2  0
 18 27  1  0
 27 29  2  0
 29 15  1  0
M  END

$$$$
No_611-/dssg/home/sw_qyf/PocketFlow/Model-Generation-Results/5HT2A_7WC7_rec_A_10.pdb/2024-01-01-03-54-21/
     RDKit          3D

 22 24  0  0  0  0  0  0  0  0999 V2000
  -24.1553  -17.8465  145.7021 C   0  0  0  0  0  0  0  0  0  0  0  0
  -24.2855  -16.6364  145.3494 C   0  0  0  0  0  0  0  0  0  0  0  0
  -25.0033  -15.6772  146.0737 C   0  0  0  0  0  0  0  0  0  0  0  0
  -24.8869  -14.2981  145.8377 C   0  0  0  0  0  0  0  0  0  0  0  0
  -25.3793  -13.2111  146.5917 C   0  0  0  0  0  0  0  0  0  0  0  0
  -24.9049  -18.3625  146.7784 C   0  0  0  0  0  0  0  0  0  0  0  0
  -25.6975  -17.5210  147.5112 C   0  0  0  0  0  0  0  0  0  0  0  0
  -25.7253  -16.1261  147.2550 C   0  0  0  0  0  0  0  0  0  0  0  0
  -24.2322  -13.8725  144.5906 C   0  0  0  0  0  0  0  0  0  0  0  0
  -25.1086  -11.8652  146.3231 C   0  0  0  0  0  0  0  0  0  0  0  0
  -23.9528  -14.6396  143.7029 O   0  0  0  0  0  0  0  0  0  0  0  0
  -24.5622  -11.5471  145.0733 C   0  0  0  0  0  0  0  0  0  0  0  0
  -24.1373  -12.4460  144.3182 C   0  0  0  0  0  0  0  0  0  0  0  0
  -23.8014  -15.9882  144.0756 C   0  0  0  0  0  0  0  0  0  0  0  0
  -25.7007  -10.8926  147.1044 O   0  0  0  0  0  0  0  0  0  0  0  0
  -23.5612  -18.7750  144.9298 O   0  0  0  0  0  0  0  0  0  0  0  0
  -26.3996  -15.3547  148.0567 O   0  0  0  0  0  0  0  0  0  0  0  0
  -23.6420  -20.0984  145.5076 C   0  0  0  0  0  0  0  0  0  0  0  0
  -24.7021  -20.5774  145.6960 O   0  0  0  0  0  0  0  0  0  0  0  0
  -22.5107  -20.3739  146.0741 O   0  0  0  0  0  0  0  0  0  0  0  0
  -25.5230  -19.4665  146.7619 O   0  0  0  0  0  0  0  0  0  0  0  0
  -26.6831  -19.3452  146.0309 C   0  0  0  0  0  0  0  0  0  0  0  0
  3  4  1  0
  9 11  1  0
  2 14  1  0
 11 14  1  0
 10 15  1  0
  1 16  1  0
  8 17  1  0
 16 18  1  0
 18 19  2  0
 18 20  1  0
  6 21  1  0
 21 22  1  0
  1  2  2  0
  2  3  1  0
  3  8  2  0
  8  7  1  0
  7  6  2  0
  6  1  1  0
  4  5  2  0
  5 10  1  0
 10 12  2  0
 12 13  1  0
 13  9  2  0
  9  4  1  0
M  END

$$$$
No_612-/dssg/home/sw_qyf/PocketFlow/Model-Generation-Results/5HT2A_7WC7_rec_A_10.pdb/2024-01-01-03-54-21/
     RDKit          3D

 35 36  0  0  0  0  0  0  0  0999 V2000
  -24.1553  -17.8465  145.7021 C   0  0  0  0  0  0  0  0  0  0  0  0
  -23.9795  -18.4462  146.7426 C   0  0  0  0  0  0  0  0  0  0  0  0
  -25.1196  -16.8106  145.6409 C   0  0  0  0  0  0  0  0  0  0  0  0
  -25.2440  -15.8776  144.5240 C   0  0  0  0  0  0  0  0  0  0  0  0
  -26.0733  -14.7284  144.7061 C   0  0  0  0  0  0  0  0  0  0  0  0
  -27.0964  -14.7050  145.6625 C   0  0  0  0  0  0  0  0  0  0  0  0
  -27.1695  -15.7244  146.6274 C   0  0  0  0  0  0  0  0  0  0  0  0
  -26.1636  -16.7589  146.5816 C   0  0  0  0  0  0  0  0  0  0  0  0
  -23.2664  -17.9144  147.6871 C   0  0  0  0  0  0  0  0  0  0  0  0
  -26.0013  -13.7719  143.6983 N   0  0  0  0  0  0  0  0  0  0  0  0
  -22.5115  -16.7624  147.6332 C   0  0  0  0  0  0  0  0  0  0  0  0
  -27.0803  -13.1594  143.2748 C   0  0  0  0  0  0  0  0  0  0  0  0
  -27.4069  -11.9546  143.9199 C   0  0  0  0  0  0  0  0  0  0  0  0
  -27.4436  -11.7182  145.2280 C   0  0  0  0  0  0  0  0  0  0  0  0
  -27.9691  -10.7975  143.1271 C   0  0  0  0  0  0  0  0  0  0  0  0
  -29.2647  -10.6858  143.0903 C   0  0  0  0  0  0  0  0  0  0  0  0
  -29.8274   -9.3368  142.8198 C   0  0  0  0  0  0  0  0  0  0  0  0
  -29.3546   -8.5173  141.8672 C   0  0  0  0  0  0  0  0  0  0  0  0
  -29.8961   -7.1682  141.7127 C   0  0  0  0  0  0  0  0  0  0  0  0
  -29.1290   -6.3056  140.8688 C   0  0  0  0  0  0  0  0  0  0  0  0
  -29.3913   -4.9193  141.1102 C   0  0  0  0  0  0  0  0  0  0  0  0
  -28.5224   -4.3757  142.1310 C   0  0  0  0  0  0  0  0  0  0  0  0
  -28.6132   -2.9553  142.3185 C   0  0  0  0  0  0  0  0  0  0  0  0
  -31.1334   -9.0398  143.3983 C   0  0  0  0  0  0  0  0  0  0  0  0
  -31.7395   -7.9004  143.4118 O   0  0  0  0  0  0  0  0  0  0  0  0
  -28.4641  -11.3508  146.0477 C   0  0  0  0  0  0  0  0  0  0  0  0
  -29.1336  -12.2543  146.9052 C   0  0  0  0  0  0  0  0  0  0  0  0
  -30.3774  -11.8288  147.5348 C   0  0  0  0  0  0  0  0  0  0  0  0
  -30.6142  -12.3558  148.6754 F   0  0  0  0  0  0  0  0  0  0  0  0
  -31.1650  -11.1090  146.9763 F   0  0  0  0  0  0  0  0  0  0  0  0
  -31.0889   -6.9697  142.4791 C   0  0  0  0  0  0  0  0  0  0  0  0
  -22.9358  -16.0948  148.4257 C   0  0  0  0  0  0  0  0  0  0  0  0
  -28.2119  -15.7068  147.6655 C   0  0  0  0  0  0  0  0  0  0  0  0
  -28.0168  -16.3704  148.8567 C   0  0  0  0  0  0  0  0  0  0  0  0
  -29.2067  -16.5759  149.7319 C   0  0  0  0  0  0  0  0  0  0  0  0
  1  2  2  3
  1  3  1  0
  2  9  1  0
  5 10  1  0
  9 11  2  3
 10 12  1  0
 12 13  1  0
 13 14  2  3
 13 15  1  0
 15 16  1  0
 16 17  1  0
 17 18  2  0
 18 19  1  0
 19 20  1  0
 20 21  1  0
 21 22  1  0
 22 23  1  0
 17 24  1  0
 24 25  1  0
 14 26  1  0
 26 27  2  3
 27 28  1  0
 28 29  1  0
 28 30  1  0
 19 31  1  0
 25 31  1  0
 11 32  1  0
  7 33  1  0
 33 34  2  3
 34 35  1  0
  3  4  2  0
  4  5  1  0
  5  6  2  0
  6  7  1  0
  7  8  2  0
  8  3  1  0
M  END

$$$$
No_613-/dssg/home/sw_qyf/PocketFlow/Model-Generation-Results/5HT2A_7WC7_rec_A_10.pdb/2024-01-01-03-54-21/
     RDKit          3D

 35 39  0  0  0  0  0  0  0  0999 V2000
  -24.1553  -17.8465  145.7021 C   0  0  0  0  0  0  0  0  0  0  0  0
  -24.2856  -16.6364  145.3494 C   0  0  0  0  0  0  0  0  0  0  0  0
  -25.0033  -15.6772  146.0737 C   0  0  0  0  0  0  0  0  0  0  0  0
  -25.6964  -16.1810  147.2049 C   0  0  0  0  0  0  0  0  0  0  0  0
  -24.8143  -18.3454  146.8324 C   0  0  0  0  0  0  0  0  0  0  0  0
  -25.5292  -17.4614  147.6373 C   0  0  0  0  0  0  0  0  0  0  0  0
  -23.6541  -16.0768  144.2055 N   0  0  0  0  0  0  0  0  0  0  0  0
  -25.1820  -14.2638  145.6423 C   0  0  0  0  0  0  0  0  0  0  0  0
  -25.4260  -13.4101  146.1129 C   0  0  0  0  0  0  0  0  0  0  0  0
  -25.5141  -11.9733  145.6976 C   0  0  0  0  0  0  0  0  0  0  0  0
  -26.3065  -11.3242  145.1955 C   0  0  0  0  0  0  0  0  0  0  0  0
  -27.6997  -11.6381  145.1622 C   0  0  0  0  0  0  0  0  0  0  0  0
  -28.6865  -10.7073  144.5514 C   0  0  0  0  0  0  0  0  0  0  0  0
  -30.0610  -10.8482  144.6586 C   0  0  0  0  0  0  0  0  0  0  0  0
  -24.4480  -14.0941  144.2968 C   0  0  0  0  0  0  0  0  0  0  0  0
  -23.7146  -15.0466  143.7315 N   0  0  0  0  0  0  0  0  0  0  0  0
  -30.7273   -9.7910  144.2817 N   0  0  0  0  0  0  0  0  0  0  0  0
  -30.1991   -8.9109  143.4161 C   0  0  0  0  0  0  0  0  0  0  0  0
  -28.8595   -8.8282  143.1227 C   0  0  0  0  0  0  0  0  0  0  0  0
  -28.0281   -9.7316  143.7156 C   0  0  0  0  0  0  0  0  0  0  0  0
  -31.1284   -7.8007  142.8469 C   0  0  0  0  0  0  0  0  0  0  0  0
  -32.2563   -7.9257  143.0557 O   0  0  0  0  0  0  0  0  0  0  0  0
  -30.5594   -6.9622  141.9652 O   0  0  0  0  0  0  0  0  0  0  0  0
  -25.9194  -10.1745  144.5807 O   0  0  0  0  0  0  0  0  0  0  0  0
  -26.7534   -9.3950  143.8588 C   0  0  0  0  0  0  0  0  0  0  0  0
  -30.0728   -7.4456  140.7782 C   0  0  0  0  0  0  0  0  0  0  0  0
  -30.6364   -8.3535  140.0007 C   0  0  0  0  0  0  0  0  0  0  0  0
  -29.9883   -8.6096  138.8461 C   0  0  0  0  0  0  0  0  0  0  0  0
  -28.6197   -8.2522  138.5798 C   0  0  0  0  0  0  0  0  0  0  0  0
  -27.9649   -8.6971  137.4761 C   0  0  0  0  0  0  0  0  0  0  0  0
  -28.8368   -6.7258  140.4693 C   0  0  0  0  0  0  0  0  0  0  0  0
  -28.0838   -7.2185  139.4378 C   0  0  0  0  0  0  0  0  0  0  0  0
  -28.1686  -12.6419  145.8274 O   0  0  0  0  0  0  0  0  0  0  0  0
  -28.9804  -12.5878  146.9072 C   0  0  0  0  0  0  0  0  0  0  0  0
  -29.5405  -13.8061  147.4008 C   0  0  0  0  0  0  0  0  0  0  0  0
  1  2  1  0
  2  3  2  0
  3  4  1  0
  1  5  2  0
  4  6  2  0
  5  6  1  0
  2  7  1  0
  3  8  1  0
  8  9  2  3
  9 10  1  0
 10 11  2  3
 11 12  1  0
 12 13  2  0
 13 14  1  0
  8 15  1  0
  7 16  1  0
 15 16  1  0
 14 17  1  0
 17 18  1  0
 18 19  2  0
 13 20  1  0
 19 20  1  0
 18 21  1  0
 21 22  2  0
 21 23  1  0
 11 24  1  0
 20 25  1  0
 24 25  1  0
 23 26  1  0
 26 27  2  0
 27 28  1  0
 28 29  2  0
 29 30  1  0
 26 31  1  0
 29 32  1  0
 31 32  2  0
 12 33  1  0
 33 34  1  0
 34 35  2  0
M  END

$$$$
No_614-/dssg/home/sw_qyf/PocketFlow/Model-Generation-Results/5HT2A_7WC7_rec_A_10.pdb/2024-01-01-03-54-21/
     RDKit          3D

 29 30  0  0  0  0  0  0  0  0999 V2000
  -23.1746  -16.6014  144.8668 C   0  0  0  0  0  0  0  0  0  0  0  0
  -23.8963  -15.5346  144.7885 C   0  0  0  0  0  0  0  0  0  0  0  0
  -24.5755  -15.0383  145.9043 C   0  0  0  0  0  0  0  0  0  0  0  0
  -25.0618  -13.6819  146.0347 C   0  0  0  0  0  0  0  0  0  0  0  0
  -25.4099  -13.0255  144.9749 C   0  0  0  0  0  0  0  0  0  0  0  0
  -23.3396  -17.4928  145.9678 C   0  0  0  0  0  0  0  0  0  0  0  0
  -23.9481  -17.0532  147.1503 C   0  0  0  0  0  0  0  0  0  0  0  0
  -24.0639  -17.8555  148.3024 C   0  0  0  0  0  0  0  0  0  0  0  0
  -24.6085  -15.7677  147.1490 C   0  0  0  0  0  0  0  0  0  0  0  0
  -26.4299  -12.3904  145.0076 C   0  0  0  0  0  0  0  0  0  0  0  0
  -27.4876  -12.6546  145.8275 C   0  0  0  0  0  0  0  0  0  0  0  0
  -28.6456  -11.7805  146.0118 C   0  0  0  0  0  0  0  0  0  0  0  0
  -28.8754  -10.7279  145.1412 C   0  0  0  0  0  0  0  0  0  0  0  0
  -27.8924  -10.3985  144.2263 C   0  0  0  0  0  0  0  0  0  0  0  0
  -26.7608  -11.1272  144.2090 C   0  0  0  0  0  0  0  0  0  0  0  0
  -24.5023  -17.1118  149.5952 C   0  0  0  0  0  0  0  0  0  0  0  0
  -30.2084   -9.9865  145.2207 C   0  0  0  0  0  0  0  0  0  0  0  0
  -30.2896   -8.9429  144.5896 O   0  0  0  0  0  0  0  0  0  0  0  0
  -31.2365   -8.9056  143.5469 C   0  0  0  0  0  0  0  0  0  0  0  0
  -30.6158   -8.7167  142.2664 C   0  0  0  0  0  0  0  0  0  0  0  0
  -29.5273   -9.5093  141.9302 C   0  0  0  0  0  0  0  0  0  0  0  0
  -28.8566   -9.5114  140.7644 C   0  0  0  0  0  0  0  0  0  0  0  0
  -27.8994  -10.5195  140.3458 C   0  0  0  0  0  0  0  0  0  0  0  0
  -27.3107  -10.4469  139.0827 C   0  0  0  0  0  0  0  0  0  0  0  0
  -27.6023   -9.3199  138.3291 C   0  0  0  0  0  0  0  0  0  0  0  0
  -28.9756   -8.4508  139.8055 C   0  0  0  0  0  0  0  0  0  0  0  0
  -28.3763   -8.3216  138.6742 C   0  0  0  0  0  0  0  0  0  0  0  0
  -29.8406   -7.4435  140.4441 N   0  0  0  0  0  0  0  0  0  0  0  0
  -28.5568   -7.3214  137.8777 F   0  0  0  0  0  0  0  0  0  0  0  0
  3  4  1  0
  4  5  2  3
  7  8  1  0
  5 10  1  0
  8 16  1  0
 13 17  1  0
 17 18  1  0
 18 19  1  0
 19 20  1  0
 20 21  2  3
 21 22  1  0
 22 23  1  0
 23 24  2  3
 24 25  1  0
 22 26  1  0
 25 27  2  3
 26 28  1  0
 27 29  1  0
 10 11  2  0
 11 12  1  0
 12 13  2  0
 13 14  1  0
 14 15  2  0
 15 10  1  0
  1  2  2  0
  2  3  1  0
  3  9  2  0
  9  7  1  0
  7  6  2  0
  6  1  1  0
M  END

$$$$
No_615-/dssg/home/sw_qyf/PocketFlow/Model-Generation-Results/5HT2A_7WC7_rec_A_10.pdb/2024-01-01-03-54-21/
     RDKit          3D

 19 18  0  0  0  0  0  0  0  0999 V2000
  -23.1746  -16.6014  144.8668 C   0  0  0  0  0  0  0  0  0  0  0  0
  -23.8963  -15.5346  144.7885 C   0  0  0  0  0  0  0  0  0  0  0  0
  -25.0303  -15.2549  144.5358 C   0  0  0  0  0  0  0  0  0  0  0  0
  -25.6045  -13.9524  144.2294 C   0  0  0  0  0  0  0  0  0  0  0  0
  -26.9716  -13.7632  143.8495 C   0  0  0  0  0  0  0  0  0  0  0  0
  -27.2940  -12.4851  143.3751 C   0  0  0  0  0  0  0  0  0  0  0  0
  -27.9155  -12.3161  142.1844 C   0  0  0  0  0  0  0  0  0  0  0  0
  -27.4371  -12.9667  141.0345 C   0  0  0  0  0  0  0  0  0  0  0  0
  -27.1676  -12.1408  139.8881 C   0  0  0  0  0  0  0  0  0  0  0  0
  -27.3268  -10.7566  140.0654 C   0  0  0  0  0  0  0  0  0  0  0  0
  -28.5611  -10.1274  139.6099 C   0  0  0  0  0  0  0  0  0  0  0  0
  -28.8320   -9.0309  140.5683 C   0  0  0  0  0  0  0  0  0  0  0  0
  -29.3522   -7.8025  140.2162 C   0  0  0  0  0  0  0  0  0  0  0  0
  -29.6583   -6.8454  141.2879 C   0  0  0  0  0  0  0  0  0  0  0  0
  -29.3564   -5.7978  141.4954 C   0  0  0  0  0  0  0  0  0  0  0  0
  -29.2980   -5.2411  142.9937 C   0  0  0  0  0  0  0  0  0  0  0  0
  -28.7429   -3.9945  143.2315 C   0  0  0  0  0  0  0  0  0  0  0  0
  -28.5902   -3.0440  142.2043 C   0  0  0  0  0  0  0  0  0  0  0  0
  -28.8356   -3.4986  140.8535 C   0  0  0  0  0  0  0  0  0  0  0  0
  1  2  1  0
  2  3  2  3
  3  4  1  0
  4  5  1  0
  5  6  1  0
  6  7  1  0
  7  8  1  0
  8  9  1  0
  9 10  1  0
 10 11  1  0
 11 12  1  0
 12 13  1  0
 13 14  2  3
 14 15  1  0
 15 16  2  3
 16 17  1  0
 17 18  2  3
 18 19  1  0
M  END

$$$$
No_616-/dssg/home/sw_qyf/PocketFlow/Model-Generation-Results/5HT2A_7WC7_rec_A_10.pdb/2024-01-01-03-54-21/
     RDKit          3D

  9  9  0  0  0  0  0  0  0  0999 V2000
  -23.1746  -16.6014  144.8668 C   0  0  0  0  0  0  0  0  0  0  0  0
  -23.7011  -17.0158  145.9774 C   0  0  0  0  0  0  0  0  0  0  0  0
  -24.7096  -16.6222  146.3577 C   0  0  0  0  0  0  0  0  0  0  0  0
  -25.4819  -15.5594  145.8226 C   0  0  0  0  0  0  0  0  0  0  0  0
  -26.6929  -14.9922  146.4004 C   0  0  0  0  0  0  0  0  0  0  0  0
  -27.2819  -13.8194  145.9771 C   0  0  0  0  0  0  0  0  0  0  0  0
  -26.6235  -13.1464  144.8958 C   0  0  0  0  0  0  0  0  0  0  0  0
  -25.4358  -13.6103  144.4028 C   0  0  0  0  0  0  0  0  0  0  0  0
  -24.8537  -14.7723  144.8378 C   0  0  0  0  0  0  0  0  0  0  0  0
  1  2  1  0
  2  3  2  3
  3  4  1  0
  4  5  2  0
  5  6  1  0
  6  7  2  0
  7  8  1  0
  8  9  2  0
  9  4  1  0
M  END

$$$$
No_617-/dssg/home/sw_qyf/PocketFlow/Model-Generation-Results/5HT2A_7WC7_rec_A_10.pdb/2024-01-01-03-54-21/
     RDKit          3D

 25 26  0  0  0  0  0  0  0  0999 V2000
  -23.1746  -16.6014  144.8668 C   0  0  0  0  0  0  0  0  0  0  0  0
  -23.8963  -15.5346  144.7885 C   0  0  0  0  0  0  0  0  0  0  0  0
  -23.6398  -14.5115  145.3281 C   0  0  0  0  0  0  0  0  0  0  0  0
  -24.3866  -13.2477  145.3906 C   0  0  0  0  0  0  0  0  0  0  0  0
  -25.0997  -12.9261  146.0435 C   0  0  0  0  0  0  0  0  0  0  0  0
  -25.8480  -11.5691  146.0322 C   0  0  0  0  0  0  0  0  0  0  0  0
  -25.6519  -10.8420  144.8686 C   0  0  0  0  0  0  0  0  0  0  0  0
  -24.5262  -11.1563  144.1461 C   0  0  0  0  0  0  0  0  0  0  0  0
  -23.9255  -12.4010  144.3594 C   0  0  0  0  0  0  0  0  0  0  0  0
  -23.4238  -17.7052  145.7521 C   0  0  0  0  0  0  0  0  0  0  0  0
  -23.6027  -17.2362  147.0620 C   0  0  0  0  0  0  0  0  0  0  0  0
  -24.1208  -17.6279  148.0032 C   0  0  0  0  0  0  0  0  0  0  0  0
  -24.4990  -17.1282  149.0258 C   0  0  0  0  0  0  0  0  0  0  0  0
  -24.9506  -17.8093  150.2581 C   0  0  0  0  0  0  0  0  0  0  0  0
  -26.2017   -9.7839  144.5006 F   0  0  0  0  0  0  0  0  0  0  0  0
  -23.4052  -18.9056  145.4979 O   0  0  0  0  0  0  0  0  0  0  0  0
  -25.9407  -17.5209  150.9601 C   0  0  0  0  0  0  0  0  0  0  0  0
  -27.1006  -18.3259  150.7991 C   0  0  0  0  0  0  0  0  0  0  0  0
  -27.7088  -18.2765  152.1618 C   0  0  0  0  0  0  0  0  0  0  0  0
  -28.4321  -19.2540  152.4634 C   0  0  0  0  0  0  0  0  0  0  0  0
  -29.1887  -19.2485  153.7733 C   0  0  0  0  0  0  0  0  0  0  0  0
  -29.7548  -19.9322  154.3520 C   0  0  0  0  0  0  0  0  0  0  0  0
  -29.6423  -21.2032  154.1187 C   0  0  0  0  0  0  0  0  0  0  0  0
  -28.8521  -21.6001  152.9821 C   0  0  0  0  0  0  0  0  0  0  0  0
  -28.2298  -20.6135  152.2927 C   0  0  0  0  0  0  0  0  0  0  0  0
  1  2  1  0
  2  3  2  3
  3  4  1  0
  1 10  1  0
 10 11  1  0
 11 12  1  0
 12 13  2  3
 13 14  1  0
  7 15  1  0
 10 16  2  0
 14 17  1  0
 17 18  1  0
 18 19  1  0
 19 20  1  0
 20 21  2  0
 21 22  1  0
 22 23  2  0
 23 24  1  0
 24 25  2  0
 25 20  1  0
  4  5  2  0
  5  6  1  0
  6  7  2  0
  7  8  1  0
  8  9  2  0
  9  4  1  0
M  END

$$$$
No_618-/dssg/home/sw_qyf/PocketFlow/Model-Generation-Results/5HT2A_7WC7_rec_A_10.pdb/2024-01-01-03-54-21/
     RDKit          3D

 19 18  0  0  0  0  0  0  0  0999 V2000
  -23.1746  -16.6014  144.8668 C   0  0  0  0  0  0  0  0  0  0  0  0
  -23.8963  -15.5346  144.7885 C   0  0  0  0  0  0  0  0  0  0  0  0
  -23.6398  -14.5115  145.3281 C   0  0  0  0  0  0  0  0  0  0  0  0
  -24.3240  -13.3648  145.1281 C   0  0  0  0  0  0  0  0  0  0  0  0
  -23.8303  -12.0965  145.7921 C   0  0  0  0  0  0  0  0  0  0  0  0
  -25.3060  -13.1626  144.3111 O   0  0  0  0  0  0  0  0  0  0  0  0
  -23.5864  -17.8093  144.8020 C   0  0  0  0  0  0  0  0  0  0  0  0
  -24.6784  -18.0443  145.8821 C   0  0  0  0  0  0  0  0  0  0  0  0
  -24.5175  -19.1022  146.7767 C   0  0  0  0  0  0  0  0  0  0  0  0
  -26.4700  -12.5913  144.8053 C   0  0  0  0  0  0  0  0  0  0  0  0
  -26.6799  -11.2916  144.1911 C   0  0  0  0  0  0  0  0  0  0  0  0
  -28.0606  -10.6712  144.4933 C   0  0  0  0  0  0  0  0  0  0  0  0
  -28.5961   -9.7174  143.6508 C   0  0  0  0  0  0  0  0  0  0  0  0
  -29.6256   -9.9686  142.9253 C   0  0  0  0  0  0  0  0  0  0  0  0
  -30.5796   -9.0149  142.5792 C   0  0  0  0  0  0  0  0  0  0  0  0
  -31.9502   -9.2601  142.4185 C   0  0  0  0  0  0  0  0  0  0  0  0
  -30.1423   -7.6358  142.1954 C   0  0  0  0  0  0  0  0  0  0  0  0
  -29.8572   -6.7875  142.6484 C   0  0  0  0  0  0  0  0  0  0  0  0
  -29.3333   -5.5550  142.0595 N   0  0  0  0  0  0  0  0  0  0  0  0
  1  2  1  0
  2  3  2  3
  3  4  1  0
  4  5  1  0
  4  6  1  0
  1  7  2  3
  7  8  1  0
  8  9  2  0
  6 10  1  0
 10 11  1  0
 11 12  1  0
 12 13  1  0
 13 14  2  3
 14 15  1  0
 15 16  1  0
 15 17  1  0
 17 18  2  3
 18 19  1  0
M  END

$$$$
No_619-/dssg/home/sw_qyf/PocketFlow/Model-Generation-Results/5HT2A_7WC7_rec_A_10.pdb/2024-01-01-03-54-21/
     RDKit          3D

 20 21  0  0  0  0  0  0  0  0999 V2000
  -23.1746  -16.6014  144.8668 C   0  0  0  0  0  0  0  0  0  0  0  0
  -23.8963  -15.5346  144.7885 C   0  0  0  0  0  0  0  0  0  0  0  0
  -24.6479  -15.0447  145.8164 C   0  0  0  0  0  0  0  0  0  0  0  0
  -24.7862  -15.8388  146.9698 C   0  0  0  0  0  0  0  0  0  0  0  0
  -24.1166  -17.0524  147.0353 C   0  0  0  0  0  0  0  0  0  0  0  0
  -23.3137  -17.4410  145.9820 C   0  0  0  0  0  0  0  0  0  0  0  0
  -25.4262  -13.7479  145.7890 C   0  0  0  0  0  0  0  0  0  0  0  0
  -24.7157  -12.7136  146.0852 C   0  0  0  0  0  0  0  0  0  0  0  0
  -25.3101  -11.3838  146.0425 C   0  0  0  0  0  0  0  0  0  0  0  0
  -26.6131  -11.2668  145.4660 C   0  0  0  0  0  0  0  0  0  0  0  0
  -27.3107  -12.4053  145.1734 C   0  0  0  0  0  0  0  0  0  0  0  0
  -26.7192  -13.6870  145.3534 C   0  0  0  0  0  0  0  0  0  0  0  0
  -24.1617  -17.8564  148.3245 C   0  0  0  0  0  0  0  0  0  0  0  0
  -23.3682  -17.3023  149.4647 C   0  0  0  0  0  0  0  0  0  0  0  0
  -23.9725  -17.0679  150.7421 C   0  0  0  0  0  0  0  0  0  0  0  0
  -23.8595  -14.7006  143.7167 O   0  0  0  0  0  0  0  0  0  0  0  0
  -27.5742  -15.0863  144.9378 Cl  0  0  0  0  0  0  0  0  0  0  0  0
  -23.2377  -16.7330  151.7612 O   0  0  0  0  0  0  0  0  0  0  0  0
  -25.2674  -17.0133  150.7875 O   0  0  0  0  0  0  0  0  0  0  0  0
  -23.4590  -12.6462  146.6026 O   0  0  0  0  0  0  0  0  0  0  0  0
  3  7  1  0
  5 13  1  0
 13 14  1  0
 14 15  1  0
  2 16  1  0
 12 17  1  0
 15 18  1  0
 15 19  2  0
  8 20  1  0
  1  2  2  0
  2  3  1  0
  3  4  2  0
  4  5  1  0
  5  6  2  0
  6  1  1  0
  7  8  2  0
  8  9  1  0
  9 10  2  0
 10 11  1  0
 11 12  2  0
 12  7  1  0
M  END

$$$$
No_620-/dssg/home/sw_qyf/PocketFlow/Model-Generation-Results/5HT2A_7WC7_rec_A_10.pdb/2024-01-01-03-54-21/
     RDKit          3D

 16 17  0  0  0  0  0  0  0  0999 V2000
  -24.1553  -17.8465  145.7021 C   0  0  0  0  0  0  0  0  0  0  0  0
  -24.6364  -17.2931  146.7091 C   0  0  0  0  0  0  0  0  0  0  0  0
  -24.5709  -15.9334  146.8074 C   0  0  0  0  0  0  0  0  0  0  0  0
  -24.2378  -15.1233  145.7159 C   0  0  0  0  0  0  0  0  0  0  0  0
  -23.7252  -15.7878  144.6028 C   0  0  0  0  0  0  0  0  0  0  0  0
  -23.7316  -17.0968  144.6427 N   0  0  0  0  0  0  0  0  0  0  0  0
  -24.0429  -19.2100  145.5627 N   0  0  0  0  0  0  0  0  0  0  0  0
  -24.3624  -13.6736  146.0089 C   0  0  0  0  0  0  0  0  0  0  0  0
  -23.4004  -12.8459  145.5071 C   0  0  0  0  0  0  0  0  0  0  0  0
  -23.7071  -11.4046  145.3063 C   0  0  0  0  0  0  0  0  0  0  0  0
  -25.1178  -11.3097  145.0816 C   0  0  0  0  0  0  0  0  0  0  0  0
  -26.0975  -12.0296  145.6737 C   0  0  0  0  0  0  0  0  0  0  0  0
  -25.7591  -13.3680  145.9661 C   0  0  0  0  0  0  0  0  0  0  0  0
  -27.4979  -11.6067  145.7874 C   0  0  0  0  0  0  0  0  0  0  0  0
  -28.0634  -10.7163  144.9261 C   0  0  0  0  0  0  0  0  0  0  0  0
  -27.4002   -9.9837  143.9660 C   0  0  0  0  0  0  0  0  0  0  0  0
  1  7  1  0
  4  8  1  0
 12 14  1  0
 14 15  1  0
 15 16  3  0
  1  2  2  0
  2  3  1  0
  3  4  2  0
  4  5  1  0
  5  6  2  0
  6  1  1  0
  8  9  2  0
  9 10  1  0
 10 11  2  0
 11 12  1  0
 12 13  2  0
 13  8  1  0
M  END

$$$$
No_621-/dssg/home/sw_qyf/PocketFlow/Model-Generation-Results/5HT2A_7WC7_rec_A_10.pdb/2024-01-01-03-54-21/
     RDKit          3D

 35 37  0  0  0  0  0  0  0  0999 V2000
  -23.1746  -16.6014  144.8668 C   0  0  0  0  0  0  0  0  0  0  0  0
  -23.8963  -15.5346  144.7885 C   0  0  0  0  0  0  0  0  0  0  0  0
  -23.4976  -14.2961  145.1226 C   0  0  0  0  0  0  0  0  0  0  0  0
  -23.9189  -13.0599  144.7480 C   0  0  0  0  0  0  0  0  0  0  0  0
  -25.1117  -12.5951  145.3025 C   0  0  0  0  0  0  0  0  0  0  0  0
  -25.9316  -11.8273  144.5244 C   0  0  0  0  0  0  0  0  0  0  0  0
  -26.8950  -10.8705  145.2920 C   0  0  0  0  0  0  0  0  0  0  0  0
  -27.7855  -10.0701  144.6093 C   0  0  0  0  0  0  0  0  0  0  0  0
  -28.9570  -10.7824  144.0399 C   0  0  0  0  0  0  0  0  0  0  0  0
  -29.5132  -10.1100  142.9705 C   0  0  0  0  0  0  0  0  0  0  0  0
  -29.3830   -8.9384  142.6880 C   0  0  0  0  0  0  0  0  0  0  0  0
  -29.9893   -8.2613  141.5812 C   0  0  0  0  0  0  0  0  0  0  0  0
  -30.1293   -7.7609  140.6928 C   0  0  0  0  0  0  0  0  0  0  0  0
  -29.3423   -6.6401  140.1789 C   0  0  0  0  0  0  0  0  0  0  0  0
  -23.7399  -17.7591  145.1914 C   0  0  0  0  0  0  0  0  0  0  0  0
  -24.9201  -17.7486  146.0723 C   0  0  0  0  0  0  0  0  0  0  0  0
  -25.8102  -16.6802  146.0728 C   0  0  0  0  0  0  0  0  0  0  0  0
  -25.2416  -15.4492  145.5535 C   0  0  0  0  0  0  0  0  0  0  0  0
  -27.1050  -16.7391  146.6335 C   0  0  0  0  0  0  0  0  0  0  0  0
  -27.3073  -16.3070  147.9495 C   0  0  0  0  0  0  0  0  0  0  0  0
  -28.5772  -16.0727  148.5253 C   0  0  0  0  0  0  0  0  0  0  0  0
  -29.4791  -15.1364  147.8173 C   0  0  0  0  0  0  0  0  0  0  0  0
  -29.3395  -14.7867  146.5227 C   0  0  0  0  0  0  0  0  0  0  0  0
  -28.1442  -15.4556  145.9740 C   0  0  0  0  0  0  0  0  0  0  0  0
  -30.2131  -14.1618  148.7137 C   0  0  0  0  0  0  0  0  0  0  0  0
  -30.8901  -14.4785  149.8974 C   0  0  0  0  0  0  0  0  0  0  0  0
  -31.7988  -13.6235  150.5039 C   0  0  0  0  0  0  0  0  0  0  0  0
  -32.0539  -12.3634  149.9560 C   0  0  0  0  0  0  0  0  0  0  0  0
  -33.0180  -11.5064  150.5401 C   0  0  0  0  0  0  0  0  0  0  0  0
  -30.4434  -12.8380  148.2136 C   0  0  0  0  0  0  0  0  0  0  0  0
  -31.3348  -12.0287  148.7926 C   0  0  0  0  0  0  0  0  0  0  0  0
  -33.9944  -10.9461  149.9615 N   0  0  0  0  0  0  0  0  0  0  0  0
  -32.7202  -11.0700  151.8094 O   0  0  0  0  0  0  0  0  0  0  0  0
  -22.9462  -12.0397  145.1421 O   0  0  0  0  0  0  0  0  0  0  0  0
  -30.5030  -10.8233  142.2854 O   0  0  0  0  0  0  0  0  0  0  0  0
  2  3  1  0
  3  4  1  0
  4  5  1  0
  5  6  2  3
  6  7  1  0
  7  8  1  0
  8  9  1  0
  9 10  1  0
 10 11  2  3
 11 12  1  0
 12 13  3  0
 13 14  1  0
 17 19  1  0
 22 25  1  0
 28 29  1  0
 29 32  1  0
 29 33  2  0
  4 34  1  0
 10 35  1  0
  1  2  2  0
  2 18  1  0
 18 17  2  0
 17 16  1  0
 16 15  2  0
 15  1  1  0
 19 20  2  0
 20 21  1  0
 21 22  2  0
 22 23  1  0
 23 24  2  0
 24 19  1  0
 25 26  2  0
 26 27  1  0
 27 28  2  0
 28 31  1  0
 31 30  2  0
 30 25  1  0
M  END

$$$$
No_622-/dssg/home/sw_qyf/PocketFlow/Model-Generation-Results/5HT2A_7WC7_rec_A_10.pdb/2024-01-01-03-54-21/
     RDKit          3D

 27 29  0  0  0  0  0  0  0  0999 V2000
  -24.1553  -17.8465  145.7021 C   0  0  0  0  0  0  0  0  0  0  0  0
  -24.2855  -16.6364  145.3494 C   0  0  0  0  0  0  0  0  0  0  0  0
  -25.0033  -15.6772  146.0737 C   0  0  0  0  0  0  0  0  0  0  0  0
  -24.8869  -14.2981  145.8377 C   0  0  0  0  0  0  0  0  0  0  0  0
  -24.0151  -13.8866  144.8228 C   0  0  0  0  0  0  0  0  0  0  0  0
  -23.7376  -12.4867  144.6569 C   0  0  0  0  0  0  0  0  0  0  0  0
  -23.5698  -11.9568  145.9469 C   0  0  0  0  0  0  0  0  0  0  0  0
  -25.0211  -18.3514  146.7048 C   0  0  0  0  0  0  0  0  0  0  0  0
  -25.7945  -17.5541  147.4788 C   0  0  0  0  0  0  0  0  0  0  0  0
  -25.7477  -16.2092  147.2826 C   0  0  0  0  0  0  0  0  0  0  0  0
  -24.5470  -12.2637  147.0666 C   0  0  0  0  0  0  0  0  0  0  0  0
  -24.7228  -13.6637  147.1466 C   0  0  0  0  0  0  0  0  0  0  0  0
  -24.1549  -16.2261  144.0755 N   0  0  0  0  0  0  0  0  0  0  0  0
  -23.7386  -14.8630  143.8635 C   0  0  0  0  0  0  0  0  0  0  0  0
  -26.3655  -13.9049  145.3584 C   0  0  0  0  0  0  0  0  0  0  0  0
  -26.8057  -12.5871  145.7040 C   0  0  0  0  0  0  0  0  0  0  0  0
  -28.1280  -12.0969  145.1209 C   0  0  0  0  0  0  0  0  0  0  0  0
  -28.1388  -10.8659  144.4535 C   0  0  0  0  0  0  0  0  0  0  0  0
  -29.3530  -10.1557  144.2829 C   0  0  0  0  0  0  0  0  0  0  0  0
  -29.7104   -9.3962  143.1972 C   0  0  0  0  0  0  0  0  0  0  0  0
  -30.3689   -8.2091  143.3578 C   0  0  0  0  0  0  0  0  0  0  0  0
  -30.9899   -7.6492  142.1243 C   0  0  0  0  0  0  0  0  0  0  0  0
  -29.3181   -9.9087  141.9016 C   0  0  0  0  0  0  0  0  0  0  0  0
  -29.0568  -11.2624  141.7152 C   0  0  0  0  0  0  0  0  0  0  0  0
  -27.8731  -11.5136  140.8270 C   0  0  0  0  0  0  0  0  0  0  0  0
  -27.7230  -12.8421  140.2857 C   0  0  0  0  0  0  0  0  0  0  0  0
  -26.5855  -12.9613  139.4506 C   0  0  0  0  0  0  0  0  0  0  0  0
  3  4  1  0
  4  5  1  0
  5  6  1  0
  6  7  1  0
  7 11  1  0
  4 12  1  0
 11 12  1  0
  2 13  1  0
  5 14  1  0
  4 15  1  0
 15 16  1  0
 16 17  1  0
 17 18  1  0
 18 19  1  0
 19 20  1  0
 20 21  1  0
 21 22  1  0
 20 23  1  0
 23 24  2  3
 24 25  1  0
 25 26  2  3
 26 27  1  0
 13 14  1  0
  1  2  2  0
  2  3  1  0
  3 10  2  0
 10  9  1  0
  9  8  2  0
  8  1  1  0
M  END

$$$$
No_623-/dssg/home/sw_qyf/PocketFlow/Model-Generation-Results/5HT2A_7WC7_rec_A_10.pdb/2024-01-01-03-54-21/
     RDKit          3D

 35 38  0  0  0  0  0  0  0  0999 V2000
  -24.1553  -17.8465  145.7021 C   0  0  0  0  0  0  0  0  0  0  0  0
  -24.6364  -17.2931  146.7091 C   0  0  0  0  0  0  0  0  0  0  0  0
  -25.8608  -16.5592  146.5934 C   0  0  0  0  0  0  0  0  0  0  0  0
  -26.1843  -15.8250  145.5637 C   0  0  0  0  0  0  0  0  0  0  0  0
  -27.4270  -15.0962  145.4828 C   0  0  0  0  0  0  0  0  0  0  0  0
  -24.2482  -16.9462  144.4822 C   0  0  0  0  0  0  0  0  0  0  0  0
  -25.3027  -16.0492  144.4960 C   0  0  0  0  0  0  0  0  0  0  0  0
  -28.2564  -15.1610  146.6265 C   0  0  0  0  0  0  0  0  0  0  0  0
  -29.4370  -14.3408  146.6761 C   0  0  0  0  0  0  0  0  0  0  0  0
  -29.4023  -13.0579  147.2032 C   0  0  0  0  0  0  0  0  0  0  0  0
  -30.4939  -12.2643  147.5367 C   0  0  0  0  0  0  0  0  0  0  0  0
  -27.9126  -16.0758  147.7250 C   0  0  0  0  0  0  0  0  0  0  0  0
  -26.7226  -16.6693  147.8222 C   0  0  0  0  0  0  0  0  0  0  0  0
  -28.2995  -12.1770  146.5396 C   0  0  0  0  0  0  0  0  0  0  0  0
  -28.4470  -11.2941  145.4472 C   0  0  0  0  0  0  0  0  0  0  0  0
  -27.4630  -10.7275  144.7070 C   0  0  0  0  0  0  0  0  0  0  0  0
  -27.8196   -9.6952  143.8101 C   0  0  0  0  0  0  0  0  0  0  0  0
  -29.1796   -9.5310  143.4418 C   0  0  0  0  0  0  0  0  0  0  0  0
  -30.1601  -10.1986  144.2755 C   0  0  0  0  0  0  0  0  0  0  0  0
  -29.8334  -11.0077  145.2059 C   0  0  0  0  0  0  0  0  0  0  0  0
  -31.1992  -12.7844  148.5473 O   0  0  0  0  0  0  0  0  0  0  0  0
  -29.4957   -8.5374  142.4616 C   0  0  0  0  0  0  0  0  0  0  0  0
  -29.9082   -7.3057  142.6578 C   0  0  0  0  0  0  0  0  0  0  0  0
  -29.2086   -8.8830  141.0730 C   0  0  0  0  0  0  0  0  0  0  0  0
  -29.0003   -7.9576  140.1808 C   0  0  0  0  0  0  0  0  0  0  0  0
  -28.7698   -8.3216  138.8102 C   0  0  0  0  0  0  0  0  0  0  0  0
  -28.1617   -9.5069  138.5586 C   0  0  0  0  0  0  0  0  0  0  0  0
  -28.1093  -10.4879  139.6031 C   0  0  0  0  0  0  0  0  0  0  0  0
  -27.6044  -11.7724  139.4249 C   0  0  0  0  0  0  0  0  0  0  0  0
  -28.5428  -10.1581  140.8836 C   0  0  0  0  0  0  0  0  0  0  0  0
  -26.3742  -12.0713  139.6537 N   0  0  0  0  0  0  0  0  0  0  0  0
  -28.4731  -12.7091  139.2603 O   0  0  0  0  0  0  0  0  0  0  0  0
  -23.9671  -17.6055  148.1304 C   0  0  0  0  0  0  0  0  0  0  0  0
  -23.2279  -16.4433  148.7689 C   0  0  0  0  0  0  0  0  0  0  0  0
  -26.0339  -10.9514  145.0223 C   0  0  0  0  0  0  0  0  0  0  0  0
  8  9  1  0
  9 10  2  3
 10 11  1  0
 10 14  1  0
 14 15  1  0
 11 21  1  0
 18 22  1  0
 22 23  2  0
 22 24  1  0
 28 29  1  0
 29 31  1  0
 29 32  2  0
  2 33  1  0
 33 34  1  0
 16 35  1  0
 15 16  2  0
 16 17  1  0
 17 18  2  0
 18 19  1  0
 19 20  2  0
 20 15  1  0
 24 25  2  0
 25 26  1  0
 26 27  2  0
 27 28  1  0
 28 30  2  0
 30 24  1  0
  4  5  2  0
  5  8  1  0
  8 12  2  0
 12 13  1  0
 13  3  2  0
  1  2  2  0
  2  3  1  0
  3  4  1  0
  4  7  1  0
  7  6  2  0
  6  1  1  0
M  END

$$$$
No_624-/dssg/home/sw_qyf/PocketFlow/Model-Generation-Results/5HT2A_7WC7_rec_A_10.pdb/2024-01-01-03-54-21/
     RDKit          3D

 18 20  0  0  0  0  0  0  0  0999 V2000
  -23.1746  -16.6014  144.8668 C   0  0  0  0  0  0  0  0  0  0  0  0
  -23.7011  -17.0158  145.9774 C   0  0  0  0  0  0  0  0  0  0  0  0
  -24.2134  -16.0722  146.8877 C   0  0  0  0  0  0  0  0  0  0  0  0
  -23.3742  -15.2706  144.3922 C   0  0  0  0  0  0  0  0  0  0  0  0
  -24.0846  -14.3987  145.1779 C   0  0  0  0  0  0  0  0  0  0  0  0
  -24.4951  -14.7184  146.4593 C   0  0  0  0  0  0  0  0  0  0  0  0
  -24.2291  -13.0228  144.8313 N   0  0  0  0  0  0  0  0  0  0  0  0
  -24.2181  -12.0173  145.7673 C   0  0  0  0  0  0  0  0  0  0  0  0
  -25.2105  -12.3420  146.8642 C   0  0  0  0  0  0  0  0  0  0  0  0
  -25.0525  -13.7298  147.3587 C   0  0  0  0  0  0  0  0  0  0  0  0
  -23.4603  -18.6516  146.4904 Cl  0  0  0  0  0  0  0  0  0  0  0  0
  -24.1826  -10.8337  145.3359 O   0  0  0  0  0  0  0  0  0  0  0  0
  -24.7194  -16.5459  148.2738 C   0  0  0  0  0  0  0  0  0  0  0  0
  -23.7576  -16.8554  149.2228 C   0  0  0  0  0  0  0  0  0  0  0  0
  -24.2396  -17.2869  150.5232 C   0  0  0  0  0  0  0  0  0  0  0  0
  -25.6349  -17.5718  150.6847 C   0  0  0  0  0  0  0  0  0  0  0  0
  -26.5425  -17.1674  149.6943 C   0  0  0  0  0  0  0  0  0  0  0  0
  -26.0746  -16.6911  148.4151 C   0  0  0  0  0  0  0  0  0  0  0  0
  5  7  1  0
  7  8  1  0
  8  9  1  0
  6 10  1  0
  2 11  1  0
  8 12  2  0
  3 13  1  0
 10  9  1  0
 13 14  2  0
 14 15  1  0
 15 16  2  0
 16 17  1  0
 17 18  2  0
 18 13  1  0
  1  2  2  0
  2  3  1  0
  3  6  2  0
  6  5  1  0
  5  4  2  0
  4  1  1  0
M  END

$$$$
No_625-/dssg/home/sw_qyf/PocketFlow/Model-Generation-Results/5HT2A_7WC7_rec_A_10.pdb/2024-01-01-03-54-21/
     RDKit          3D

 35 38  0  0  0  0  0  0  0  0999 V2000
  -23.1746  -16.6014  144.8668 C   0  0  0  0  0  0  0  0  0  0  0  0
  -24.0189  -16.0564  145.8445 C   0  0  0  0  0  0  0  0  0  0  0  0
  -24.4145  -16.8299  146.9062 C   0  0  0  0  0  0  0  0  0  0  0  0
  -23.8925  -17.9780  147.0944 C   0  0  0  0  0  0  0  0  0  0  0  0
  -23.0516  -18.5662  146.1819 C   0  0  0  0  0  0  0  0  0  0  0  0
  -22.7171  -17.7851  145.1421 N   0  0  0  0  0  0  0  0  0  0  0  0
  -24.6298  -14.6625  145.5792 C   0  0  0  0  0  0  0  0  0  0  0  0
  -25.8607  -14.3534  145.9466 C   0  0  0  0  0  0  0  0  0  0  0  0
  -26.3564  -13.0571  145.6872 C   0  0  0  0  0  0  0  0  0  0  0  0
  -25.4744  -12.0626  145.2712 C   0  0  0  0  0  0  0  0  0  0  0  0
  -24.1025  -12.3959  145.0434 C   0  0  0  0  0  0  0  0  0  0  0  0
  -23.6795  -13.6376  145.1671 C   0  0  0  0  0  0  0  0  0  0  0  0
  -27.7316  -12.6832  146.1178 C   0  0  0  0  0  0  0  0  0  0  0  0
  -28.3362  -11.5480  145.5999 C   0  0  0  0  0  0  0  0  0  0  0  0
  -29.7169  -11.2811  145.9852 C   0  0  0  0  0  0  0  0  0  0  0  0
  -30.2000  -11.9476  147.0335 N   0  0  0  0  0  0  0  0  0  0  0  0
  -29.5723  -12.9926  147.6268 C   0  0  0  0  0  0  0  0  0  0  0  0
  -28.2950  -13.3620  147.2033 C   0  0  0  0  0  0  0  0  0  0  0  0
  -30.3186  -10.2624  145.5430 O   0  0  0  0  0  0  0  0  0  0  0  0
  -30.2423  -13.7204  148.5779 N   0  0  0  0  0  0  0  0  0  0  0  0
  -27.6467  -10.5366  144.2165 Br  0  0  0  0  0  0  0  0  0  0  0  0
  -25.2986  -16.1928  147.6715 O   0  0  0  0  0  0  0  0  0  0  0  0
  -25.9307  -17.1684  148.6592 C   0  0  0  0  0  0  0  0  0  0  0  0
  -25.1562  -17.3482  149.8031 C   0  0  0  0  0  0  0  0  0  0  0  0
  -24.0571  -16.5003  150.1006 C   0  0  0  0  0  0  0  0  0  0  0  0
  -22.9821  -17.0541  150.9875 C   0  0  0  0  0  0  0  0  0  0  0  0
  -21.7599  -16.9190  150.5317 O   0  0  0  0  0  0  0  0  0  0  0  0
  -22.8593  -16.0109  143.8756 O   0  0  0  0  0  0  0  0  0  0  0  0
  -31.2185  -13.1380  149.3407 C   0  0  0  0  0  0  0  0  0  0  0  0
  -31.7485  -13.8441  150.4495 C   0  0  0  0  0  0  0  0  0  0  0  0
  -32.7873  -13.3032  151.2392 C   0  0  0  0  0  0  0  0  0  0  0  0
  -33.2012  -12.0020  150.9330 C   0  0  0  0  0  0  0  0  0  0  0  0
  -32.7085  -11.3241  149.8315 C   0  0  0  0  0  0  0  0  0  0  0  0
  -31.7364  -11.8356  149.0905 C   0  0  0  0  0  0  0  0  0  0  0  0
  -31.2813  -15.2063  150.7713 C   0  0  0  0  0  0  0  0  0  0  0  0
  1  2  1  0
  2  3  1  0
  4  5  1  0
  1  6  1  0
  5  6  1  0
  2  7  1  0
  9 13  1  0
 15 19  1  0
 17 20  1  0
 14 21  1  0
  3 22  1  0
 22 23  1  0
 23 24  1  0
 24 25  1  0
 25 26  1  0
 26 27  1  0
  1 28  2  0
 20 29  1  0
 30 35  1  0
  3  4  1  0
 29 30  2  0
 30 31  1  0
 31 32  2  0
 32 33  1  0
 33 34  2  0
 34 29  1  0
 13 14  2  0
 14 15  1  0
 15 16  2  0
 16 17  1  0
 17 18  2  0
 18 13  1  0
  7  8  2  0
  8  9  1  0
  9 10  2  0
 10 11  1  0
 11 12  2  0
 12  7  1  0
M  END

$$$$
No_626-/dssg/home/sw_qyf/PocketFlow/Model-Generation-Results/5HT2A_7WC7_rec_A_10.pdb/2024-01-01-03-54-21/
     RDKit          3D

 35 38  0  0  0  0  0  0  0  0999 V2000
  -24.1553  -17.8465  145.7021 C   0  0  0  0  0  0  0  0  0  0  0  0
  -24.6364  -17.2931  146.7091 C   0  0  0  0  0  0  0  0  0  0  0  0
  -25.8608  -16.5591  146.5933 C   0  0  0  0  0  0  0  0  0  0  0  0
  -26.9933  -16.9082  147.1889 C   0  0  0  0  0  0  0  0  0  0  0  0
  -28.2350  -16.1839  146.8943 C   0  0  0  0  0  0  0  0  0  0  0  0
  -28.1591  -14.9305  146.2109 C   0  0  0  0  0  0  0  0  0  0  0  0
  -26.9098  -14.5235  145.6600 C   0  0  0  0  0  0  0  0  0  0  0  0
  -25.7460  -15.3613  145.8720 C   0  0  0  0  0  0  0  0  0  0  0  0
  -26.8049  -13.2838  144.9023 C   0  0  0  0  0  0  0  0  0  0  0  0
  -26.5767  -13.3509  143.6471 C   0  0  0  0  0  0  0  0  0  0  0  0
  -27.1698  -12.4527  142.6849 C   0  0  0  0  0  0  0  0  0  0  0  0
  -27.7422  -11.2353  143.1192 C   0  0  0  0  0  0  0  0  0  0  0  0
  -27.8955  -11.1543  144.5896 C   0  0  0  0  0  0  0  0  0  0  0  0
  -28.4632   -9.8734  145.0787 C   0  0  0  0  0  0  0  0  0  0  0  0
  -27.3569  -12.1113  145.4691 C   0  0  0  0  0  0  0  0  0  0  0  0
  -23.9946  -17.4384  148.0671 C   0  0  0  0  0  0  0  0  0  0  0  0
  -24.5752  -17.1657  149.2594 C   0  0  0  0  0  0  0  0  0  0  0  0
  -23.8683  -17.2720  150.4828 C   0  0  0  0  0  0  0  0  0  0  0  0
  -22.4555  -17.3178  150.4231 C   0  0  0  0  0  0  0  0  0  0  0  0
  -21.8522  -17.0847  149.2181 C   0  0  0  0  0  0  0  0  0  0  0  0
  -22.5666  -17.2928  148.0252 C   0  0  0  0  0  0  0  0  0  0  0  0
  -27.0757  -12.7355  141.2675 C   0  0  0  0  0  0  0  0  0  0  0  0
  -27.0911  -11.7389  140.3729 C   0  0  0  0  0  0  0  0  0  0  0  0
  -26.9429  -12.0443  138.9433 C   0  0  0  0  0  0  0  0  0  0  0  0
  -27.9446  -11.3886  138.0714 C   0  0  0  0  0  0  0  0  0  0  0  0
  -29.2555   -9.1247  144.1615 C   0  0  0  0  0  0  0  0  0  0  0  0
  -30.6171   -9.2753  144.0952 C   0  0  0  0  0  0  0  0  0  0  0  0
  -31.3922   -8.4704  143.2424 C   0  0  0  0  0  0  0  0  0  0  0  0
  -30.7043   -7.7672  142.2458 C   0  0  0  0  0  0  0  0  0  0  0  0
  -29.3317   -7.6952  142.1557 C   0  0  0  0  0  0  0  0  0  0  0  0
  -28.5970   -8.4200  143.1295 C   0  0  0  0  0  0  0  0  0  0  0  0
  -27.8731   -9.9807  137.9783 C   0  0  0  0  0  0  0  0  0  0  0  0
  -28.7822   -9.2120  137.2512 C   0  0  0  0  0  0  0  0  0  0  0  0
  -28.5827   -7.9297  137.3452 O   0  0  0  0  0  0  0  0  0  0  0  0
  -27.0486  -13.9884  140.9200 O   0  0  0  0  0  0  0  0  0  0  0  0
  1  2  1  0
  2  3  1  0
  7  9  1  0
 13 14  1  0
  2 16  1  0
 11 22  1  0
 22 23  1  0
 23 24  1  0
 24 25  1  0
 14 26  1  0
 25 32  1  0
 32 33  1  0
 33 34  1  0
 22 35  2  0
 26 27  2  0
 27 28  1  0
 28 29  2  0
 29 30  1  0
 30 31  2  0
 31 26  1  0
  3  4  2  0
  4  5  1  0
  5  6  2  0
  6  7  1  0
  7  8  2  0
  8  3  1  0
  9 10  2  0
 10 11  1  0
 11 12  2  0
 12 13  1  0
 13 15  2  0
 15  9  1  0
 16 17  2  0
 17 18  1  0
 18 19  2  0
 19 20  1  0
 20 21  2  0
 21 16  1  0
M  END

$$$$
No_627-/dssg/home/sw_qyf/PocketFlow/Model-Generation-Results/5HT2A_7WC7_rec_A_10.pdb/2024-01-01-03-54-21/
     RDKit          3D

 12 13  0  0  0  0  0  0  0  0999 V2000
  -23.1746  -16.6014  144.8668 C   0  0  0  0  0  0  0  0  0  0  0  0
  -23.7011  -17.0158  145.9774 C   0  0  0  0  0  0  0  0  0  0  0  0
  -23.7336  -18.2775  146.3737 C   0  0  0  0  0  0  0  0  0  0  0  0
  -24.1960  -18.6445  147.6858 C   0  0  0  0  0  0  0  0  0  0  0  0
  -24.7100  -17.6145  148.5486 C   0  0  0  0  0  0  0  0  0  0  0  0
  -24.7929  -16.2635  148.0870 C   0  0  0  0  0  0  0  0  0  0  0  0
  -24.2508  -15.9434  146.8891 C   0  0  0  0  0  0  0  0  0  0  0  0
  -23.2387  -15.3709  144.4144 O   0  0  0  0  0  0  0  0  0  0  0  0
  -24.1583  -14.6263  145.0214 C   0  0  0  0  0  0  0  0  0  0  0  0
  -24.2687  -13.2181  144.4900 C   0  0  0  0  0  0  0  0  0  0  0  0
  -24.4398  -14.6374  146.3387 C   0  0  0  0  0  0  0  0  0  0  0  0
  -23.1910  -12.5619  144.8093 O   0  0  0  0  0  0  0  0  0  0  0  0
  1  2  1  0
  1  8  1  0
  8  9  1  0
  9 10  1  0
  7 11  1  0
  9 11  1  0
 10 12  1  0
  2  3  2  0
  3  4  1  0
  4  5  2  0
  5  6  1  0
  6  7  2  0
  7  2  1  0
M  END

$$$$
No_628-/dssg/home/sw_qyf/PocketFlow/Model-Generation-Results/5HT2A_7WC7_rec_A_10.pdb/2024-01-01-03-54-21/
     RDKit          3D

 32 33  0  0  0  0  0  0  0  0999 V2000
  -24.1553  -17.8465  145.7021 C   0  0  0  0  0  0  0  0  0  0  0  0
  -23.9795  -18.4462  146.7426 C   0  0  0  0  0  0  0  0  0  0  0  0
  -25.1593  -16.8262  145.6925 C   0  0  0  0  0  0  0  0  0  0  0  0
  -25.3302  -15.8818  144.5925 C   0  0  0  0  0  0  0  0  0  0  0  0
  -24.4570  -18.1009  148.0274 C   0  0  0  0  0  0  0  0  0  0  0  0
  -25.3496  -17.0286  148.1023 C   0  0  0  0  0  0  0  0  0  0  0  0
  -25.5669  -16.2449  146.9641 C   0  0  0  0  0  0  0  0  0  0  0  0
  -25.1576  -14.4266  144.8319 C   0  0  0  0  0  0  0  0  0  0  0  0
  -25.8827  -13.8502  145.7954 C   0  0  0  0  0  0  0  0  0  0  0  0
  -25.8981  -12.4436  146.0214 C   0  0  0  0  0  0  0  0  0  0  0  0
  -26.3920  -11.6427  145.0040 C   0  0  0  0  0  0  0  0  0  0  0  0
  -27.3206  -12.1622  144.2001 C   0  0  0  0  0  0  0  0  0  0  0  0
  -26.0220  -14.7876  146.9382 C   0  0  0  0  0  0  0  0  0  0  0  0
  -27.8484  -11.3149  143.1835 C   0  0  0  0  0  0  0  0  0  0  0  0
  -28.6862  -10.2458  143.5419 C   0  0  0  0  0  0  0  0  0  0  0  0
  -29.2570   -9.3526  142.6709 C   0  0  0  0  0  0  0  0  0  0  0  0
  -30.1076   -8.3129  143.0251 C   0  0  0  0  0  0  0  0  0  0  0  0
  -31.2609   -8.7357  143.8501 C   0  0  0  0  0  0  0  0  0  0  0  0
  -29.5092   -7.0215  143.3167 C   0  0  0  0  0  0  0  0  0  0  0  0
  -26.4518  -17.2455  148.8136 O   0  0  0  0  0  0  0  0  0  0  0  0
  -29.9630   -5.7898  142.6753 C   0  0  0  0  0  0  0  0  0  0  0  0
  -28.7094   -5.2210  141.9120 C   0  0  0  0  0  0  0  0  0  0  0  0
  -29.1678   -3.9349  141.2714 C   0  0  0  0  0  0  0  0  0  0  0  0
  -25.3334  -13.6939  143.6083 O   0  0  0  0  0  0  0  0  0  0  0  0
  -28.9432   -9.7083  141.2667 C   0  0  0  0  0  0  0  0  0  0  0  0
  -27.9929   -9.5912  140.8014 C   0  0  0  0  0  0  0  0  0  0  0  0
  -27.9765   -9.5779  139.2689 C   0  0  0  0  0  0  0  0  0  0  0  0
  -28.2792   -9.4481  138.2681 N   0  0  0  0  0  0  0  0  0  0  0  0
  -31.1010   -9.1897  144.9073 O   0  0  0  0  0  0  0  0  0  0  0  0
  -32.4320   -8.4060  143.4731 O   0  0  0  0  0  0  0  0  0  0  0  0
  -23.6984  -18.2323  144.5678 O   0  0  0  0  0  0  0  0  0  0  0  0
  -25.2597  -10.9843  144.3618 O   0  0  0  0  0  0  0  0  0  0  0  0
  3  4  1  0
  4  8  1  0
  8  9  1  0
  9 10  1  0
 10 11  1  0
 11 12  1  0
  7 13  1  0
  9 13  1  0
 12 14  1  0
 14 15  1  0
 15 16  2  3
 16 17  1  0
 17 18  1  0
 17 19  1  0
  6 20  1  0
 19 21  1  0
 21 22  1  0
 22 23  1  0
  8 24  1  0
 16 25  1  0
 25 26  2  3
 26 27  1  0
 27 28  3  0
 18 29  1  0
 18 30  2  0
  1 31  1  0
 11 32  1  0
  1  2  2  0
  2  5  1  0
  5  6  2  0
  6  7  1  0
  7  3  2  0
  3  1  1  0
M  END

$$$$
No_629-/dssg/home/sw_qyf/PocketFlow/Model-Generation-Results/5HT2A_7WC7_rec_A_10.pdb/2024-01-01-03-54-21/
     RDKit          3D

 19 19  0  0  0  0  0  0  0  0999 V2000
  -23.1746  -16.6014  144.8668 C   0  0  0  0  0  0  0  0  0  0  0  0
  -23.7011  -17.0158  145.9774 C   0  0  0  0  0  0  0  0  0  0  0  0
  -24.2593  -16.1244  146.9100 C   0  0  0  0  0  0  0  0  0  0  0  0
  -24.5135  -14.7390  146.5020 C   0  0  0  0  0  0  0  0  0  0  0  0
  -24.1060  -14.3555  145.2328 C   0  0  0  0  0  0  0  0  0  0  0  0
  -23.4049  -15.2534  144.4663 C   0  0  0  0  0  0  0  0  0  0  0  0
  -24.2569  -12.9095  144.8967 C   0  0  0  0  0  0  0  0  0  0  0  0
  -23.2771  -12.0877  145.6107 C   0  0  0  0  0  0  0  0  0  0  0  0
  -23.5653  -18.4620  146.4382 C   0  0  0  0  0  0  0  0  0  0  0  0
  -22.5305  -18.7060  147.0607 F   0  0  0  0  0  0  0  0  0  0  0  0
  -24.6240  -18.6510  147.3748 F   0  0  0  0  0  0  0  0  0  0  0  0
  -23.6963  -19.3063  145.4718 F   0  0  0  0  0  0  0  0  0  0  0  0
  -25.6369  -12.4249  145.1886 C   0  0  0  0  0  0  0  0  0  0  0  0
  -26.4588  -12.5204  144.1375 C   0  0  0  0  0  0  0  0  0  0  0  0
  -27.0928  -11.3950  143.6813 C   0  0  0  0  0  0  0  0  0  0  0  0
  -28.4698  -11.4188  144.0958 F   0  0  0  0  0  0  0  0  0  0  0  0
  -26.5491  -10.3335  144.3665 F   0  0  0  0  0  0  0  0  0  0  0  0
  -25.9907  -13.3343  143.0644 O   0  0  0  0  0  0  0  0  0  0  0  0
  -27.1259  -11.1284  142.3842 F   0  0  0  0  0  0  0  0  0  0  0  0
  5  7  1  0
  7  8  1  0
  2  9  1  0
  9 10  1  0
  9 11  1  0
  9 12  1  0
  7 13  1  0
 13 14  1  0
 14 15  1  0
 15 16  1  0
 15 17  1  0
 14 18  1  0
 15 19  1  0
  1  2  2  0
  2  3  1  0
  3  4  2  0
  4  5  1  0
  5  6  2  0
  6  1  1  0
M  END

$$$$
No_630-/dssg/home/sw_qyf/PocketFlow/Model-Generation-Results/5HT2A_7WC7_rec_A_10.pdb/2024-01-01-03-54-21/
     RDKit          3D

 27 29  0  0  0  0  0  0  0  0999 V2000
  -24.1553  -17.8465  145.7021 C   0  0  0  0  0  0  0  0  0  0  0  0
  -24.6364  -17.2931  146.7091 C   0  0  0  0  0  0  0  0  0  0  0  0
  -24.5709  -15.9334  146.8074 C   0  0  0  0  0  0  0  0  0  0  0  0
  -24.2379  -15.1233  145.7159 C   0  0  0  0  0  0  0  0  0  0  0  0
  -23.7251  -15.7878  144.6028 C   0  0  0  0  0  0  0  0  0  0  0  0
  -23.7316  -17.0968  144.6427 N   0  0  0  0  0  0  0  0  0  0  0  0
  -24.0429  -19.2100  145.5627 N   0  0  0  0  0  0  0  0  0  0  0  0
  -24.2583  -13.6039  145.8466 C   0  0  0  0  0  0  0  0  0  0  0  0
  -25.2955  -12.9745  145.1715 C   0  0  0  0  0  0  0  0  0  0  0  0
  -25.9295  -12.1147  145.7208 C   0  0  0  0  0  0  0  0  0  0  0  0
  -27.0273  -11.3390  145.1166 C   0  0  0  0  0  0  0  0  0  0  0  0
  -27.7784  -10.6186  145.4212 C   0  0  0  0  0  0  0  0  0  0  0  0
  -28.8017  -10.1662  144.5157 C   0  0  0  0  0  0  0  0  0  0  0  0
  -28.6106  -10.3014  143.2214 C   0  0  0  0  0  0  0  0  0  0  0  0
  -27.6452  -11.1094  142.7418 C   0  0  0  0  0  0  0  0  0  0  0  0
  -26.8556  -11.7729  143.7177 C   0  0  0  0  0  0  0  0  0  0  0  0
  -29.7259   -9.7747  142.3029 C   0  0  0  0  0  0  0  0  0  0  0  0
  -30.8881   -9.8940  142.7292 O   0  0  0  0  0  0  0  0  0  0  0  0
  -29.3846   -9.4734  141.1635 F   0  0  0  0  0  0  0  0  0  0  0  0
  -25.6091  -13.2351  143.8064 C   0  0  0  0  0  0  0  0  0  0  0  0
  -31.7771   -9.8266  141.9170 F   0  0  0  0  0  0  0  0  0  0  0  0
  -27.5189  -11.6073  141.6131 F   0  0  0  0  0  0  0  0  0  0  0  0
  -24.9494  -18.1485  147.9164 C   0  0  0  0  0  0  0  0  0  0  0  0
  -25.1615  -17.3361  148.9088 F   0  0  0  0  0  0  0  0  0  0  0  0
  -23.9127  -18.8869  148.2888 F   0  0  0  0  0  0  0  0  0  0  0  0
  -25.7307  -11.7712  147.1143 O   0  0  0  0  0  0  0  0  0  0  0  0
  -25.8893  -18.8481  147.5675 F   0  0  0  0  0  0  0  0  0  0  0  0
  1  7  1  0
  4  8  1  0
  8  9  2  3
  9 10  1  0
 10 11  1  0
 14 17  1  0
 17 18  1  0
 17 19  1  0
  9 20  1  0
 16 20  1  0
 18 21  1  0
 15 22  1  0
  2 23  1  0
 23 24  1  0
 23 25  1  0
 10 26  2  0
 23 27  1  0
 11 12  2  0
 12 13  1  0
 13 14  2  0
 14 15  1  0
 15 16  2  0
 16 11  1  0
  1  2  2  0
  2  3  1  0
  3  4  2  0
  4  5  1  0
  5  6  2  0
  6  1  1  0
M  END

$$$$
No_631-/dssg/home/sw_qyf/PocketFlow/Model-Generation-Results/5HT2A_7WC7_rec_A_10.pdb/2024-01-01-03-54-21/
     RDKit          3D

 35 37  0  0  0  0  0  0  0  0999 V2000
  -24.1553  -17.8465  145.7021 C   0  0  0  0  0  0  0  0  0  0  0  0
  -24.6364  -17.2931  146.7091 C   0  0  0  0  0  0  0  0  0  0  0  0
  -25.8608  -16.5592  146.5934 C   0  0  0  0  0  0  0  0  0  0  0  0
  -25.9533  -15.5604  145.6681 C   0  0  0  0  0  0  0  0  0  0  0  0
  -27.0179  -14.6632  145.5500 C   0  0  0  0  0  0  0  0  0  0  0  0
  -27.8199  -14.2508  146.5176 C   0  0  0  0  0  0  0  0  0  0  0  0
  -28.7252  -13.1756  146.4627 C   0  0  0  0  0  0  0  0  0  0  0  0
  -28.5429  -12.1695  145.4547 C   0  0  0  0  0  0  0  0  0  0  0  0
  -27.6349  -12.4647  144.4421 C   0  0  0  0  0  0  0  0  0  0  0  0
  -23.9471  -16.8166  144.5872 C   0  0  0  0  0  0  0  0  0  0  0  0
  -25.0680  -15.8283  144.5450 C   0  0  0  0  0  0  0  0  0  0  0  0
  -26.8043  -13.6145  144.4617 C   0  0  0  0  0  0  0  0  0  0  0  0
  -29.4575  -11.0223  145.3797 C   0  0  0  0  0  0  0  0  0  0  0  0
  -29.3442  -10.1187  144.4250 N   0  0  0  0  0  0  0  0  0  0  0  0
  -28.2354   -9.8743  143.7809 C   0  0  0  0  0  0  0  0  0  0  0  0
  -28.3270   -9.0424  142.7440 C   0  0  0  0  0  0  0  0  0  0  0  0
  -29.2308   -7.9054  142.9764 C   0  0  0  0  0  0  0  0  0  0  0  0
  -29.2227   -6.8096  142.0578 C   0  0  0  0  0  0  0  0  0  0  0  0
  -29.3788   -7.0657  140.6308 C   0  0  0  0  0  0  0  0  0  0  0  0
  -29.5912   -8.3109  140.2760 C   0  0  0  0  0  0  0  0  0  0  0  0
  -28.9184   -9.2615  141.0418 C   0  0  0  0  0  0  0  0  0  0  0  0
  -30.1154  -10.7503  146.4861 O   0  0  0  0  0  0  0  0  0  0  0  0
  -28.4637  -10.6186  140.6783 C   0  0  0  0  0  0  0  0  0  0  0  0
  -27.6460  -10.7771  139.6180 C   0  0  0  0  0  0  0  0  0  0  0  0
  -27.3297  -12.0974  139.1542 C   0  0  0  0  0  0  0  0  0  0  0  0
  -26.3850  -12.1873  138.1286 C   0  0  0  0  0  0  0  0  0  0  0  0
  -23.6183  -16.5245  147.7117 C   0  0  0  0  0  0  0  0  0  0  0  0
  -23.0045  -17.6675  148.5286 C   0  0  0  0  0  0  0  0  0  0  0  0
  -22.8073  -17.1522  149.7526 O   0  0  0  0  0  0  0  0  0  0  0  0
  -23.8582  -19.1696  145.5629 C   0  0  0  0  0  0  0  0  0  0  0  0
  -29.4571   -5.5007  142.5953 N   0  0  0  0  0  0  0  0  0  0  0  0
  -28.8608   -4.3420  142.2064 C   0  0  0  0  0  0  0  0  0  0  0  0
  -29.0913   -3.2333  143.1357 C   0  0  0  0  0  0  0  0  0  0  0  0
  -29.2859   -1.9359  142.7107 C   0  0  0  0  0  0  0  0  0  0  0  0
  -29.4921   -0.9175  143.6937 C   0  0  0  0  0  0  0  0  0  0  0  0
  1  2  1  0
  2  3  1  0
  3  4  1  0
  4  5  1  0
  1 10  1  0
  4 11  1  0
 10 11  1  0
  8 13  1  0
 13 14  1  0
 14 15  1  0
 13 22  2  0
 21 23  1  0
 23 24  1  0
 24 25  2  3
 25 26  1  0
  2 27  1  0
 27 28  1  0
 28 29  1  0
  1 30  1  0
 18 31  1  0
 31 32  1  0
 32 33  1  0
 33 34  2  3
 34 35  1  0
 15 16  1  0
  5  6  2  0
  6  7  1  0
  7  8  2  0
  8  9  1  0
  9 12  2  0
 12  5  1  0
 16 17  2  0
 17 18  1  0
 18 19  2  0
 19 20  1  0
 20 21  2  0
 21 16  1  0
M  END

$$$$
No_632-/dssg/home/sw_qyf/PocketFlow/Model-Generation-Results/5HT2A_7WC7_rec_A_10.pdb/2024-01-01-03-54-21/
     RDKit          3D

 11 12  0  0  0  0  0  0  0  0999 V2000
  -23.8042  -18.1535  145.4053 O   0  0  0  0  0  0  0  0  0  0  0  0
  -24.1154  -17.4458  146.3749 C   0  0  0  0  0  0  0  0  0  0  0  0
  -24.6243  -16.1272  146.0156 C   0  0  0  0  0  0  0  0  0  0  0  0
  -25.5207  -15.3857  146.7948 C   0  0  0  0  0  0  0  0  0  0  0  0
  -26.0995  -16.1090  147.8950 C   0  0  0  0  0  0  0  0  0  0  0  0
  -25.5086  -17.2493  148.4501 C   0  0  0  0  0  0  0  0  0  0  0  0
  -24.6507  -17.9966  147.6051 C   0  0  0  0  0  0  0  0  0  0  0  0
  -24.1421  -15.5761  144.7742 C   0  0  0  0  0  0  0  0  0  0  0  0
  -24.4810  -14.2112  144.4423 C   0  0  0  0  0  0  0  0  0  0  0  0
  -25.4736  -13.5630  145.2047 C   0  0  0  0  0  0  0  0  0  0  0  0
  -25.9599  -14.0870  146.5280 C   0  0  0  0  0  0  0  0  0  0  0  0
  1  2  1  0
  2  3  2  0
  4  5  2  0
  5  6  1  0
  6  7  2  0
  7  2  1  0
  3  4  1  0
  4 11  1  0
 11 10  2  0
 10  9  1  0
  9  8  2  0
  8  3  1  0
M  END

$$$$
No_633-/dssg/home/sw_qyf/PocketFlow/Model-Generation-Results/5HT2A_7WC7_rec_A_10.pdb/2024-01-01-03-54-21/
     RDKit          3D

 20 21  0  0  0  0  0  0  0  0999 V2000
  -23.1746  -16.6014  144.8668 C   0  0  0  0  0  0  0  0  0  0  0  0
  -23.8963  -15.5346  144.7885 C   0  0  0  0  0  0  0  0  0  0  0  0
  -25.0304  -15.2549  144.5358 C   0  0  0  0  0  0  0  0  0  0  0  0
  -25.6045  -13.9524  144.2294 C   0  0  0  0  0  0  0  0  0  0  0  0
  -26.9716  -13.7632  143.8495 C   0  0  0  0  0  0  0  0  0  0  0  0
  -27.3295  -12.4807  143.5253 C   0  0  0  0  0  0  0  0  0  0  0  0
  -28.4741  -11.9583  144.0043 C   0  0  0  0  0  0  0  0  0  0  0  0
  -29.0229  -10.6960  143.4867 C   0  0  0  0  0  0  0  0  0  0  0  0
  -28.8557  -10.3510  142.2076 C   0  0  0  0  0  0  0  0  0  0  0  0
  -27.7965  -10.9816  141.4800 C   0  0  0  0  0  0  0  0  0  0  0  0
  -27.3016  -12.2263  142.0262 C   0  0  0  0  0  0  0  0  0  0  0  0
  -29.5295   -9.1795  141.6938 C   0  0  0  0  0  0  0  0  0  0  0  0
  -30.7357   -8.6698  142.2881 C   0  0  0  0  0  0  0  0  0  0  0  0
  -29.0332   -8.4728  140.5714 C   0  0  0  0  0  0  0  0  0  0  0  0
  -29.5101   -7.2717  140.1721 C   0  0  0  0  0  0  0  0  0  0  0  0
  -31.4119   -9.3050  143.3906 C   0  0  0  0  0  0  0  0  0  0  0  0
  -23.8927  -17.7191  145.6427 C   0  0  0  0  0  0  0  0  0  0  0  0
  -23.2933  -18.8618  146.0190 C   0  0  0  0  0  0  0  0  0  0  0  0
  -25.2470  -17.4204  146.0311 C   0  0  0  0  0  0  0  0  0  0  0  0
  -25.8694  -16.2063  145.5046 C   0  0  0  0  0  0  0  0  0  0  0  0
  3  4  1  0
  4  5  1  0
  5  6  1  0
  9 12  1  0
 12 13  1  0
 12 14  1  0
 14 15  2  0
 13 16  1  0
 17 18  1  0
  1  2  2  0
  2  3  1  0
  3 20  2  0
 20 19  1  0
 19 17  2  0
 17  1  1  0
  6  7  2  0
  7  8  1  0
  8  9  2  0
  9 10  1  0
 10 11  2  0
 11  6  1  0
M  END

$$$$
No_634-/dssg/home/sw_qyf/PocketFlow/Model-Generation-Results/5HT2A_7WC7_rec_A_10.pdb/2024-01-01-03-54-21/
     RDKit          3D

 35 38  0  0  0  0  0  0  0  0999 V2000
  -24.1553  -17.8465  145.7021 C   0  0  0  0  0  0  0  0  0  0  0  0
  -23.9795  -18.4462  146.7426 C   0  0  0  0  0  0  0  0  0  0  0  0
  -25.1196  -16.8106  145.6408 C   0  0  0  0  0  0  0  0  0  0  0  0
  -25.9237  -16.5070  146.7422 C   0  0  0  0  0  0  0  0  0  0  0  0
  -26.9588  -15.5563  146.6457 C   0  0  0  0  0  0  0  0  0  0  0  0
  -26.8349  -14.5437  145.7143 C   0  0  0  0  0  0  0  0  0  0  0  0
  -26.1353  -13.8172  145.6349 C   0  0  0  0  0  0  0  0  0  0  0  0
  -25.3218  -13.3266  145.9602 C   0  0  0  0  0  0  0  0  0  0  0  0
  -24.7139  -12.1464  145.3087 C   0  0  0  0  0  0  0  0  0  0  0  0
  -24.6686  -18.2266  147.9543 C   0  0  0  0  0  0  0  0  0  0  0  0
  -25.7134  -17.2508  147.9172 C   0  0  0  0  0  0  0  0  0  0  0  0
  -25.7177  -11.6326  144.6368 N   0  0  0  0  0  0  0  0  0  0  0  0
  -26.7201  -12.5088  144.7198 C   0  0  0  0  0  0  0  0  0  0  0  0
  -27.9328  -12.3936  143.9749 C   0  0  0  0  0  0  0  0  0  0  0  0
  -27.7673  -11.9205  142.5584 C   0  0  0  0  0  0  0  0  0  0  0  0
  -27.6744  -12.1137  141.5265 C   0  0  0  0  0  0  0  0  0  0  0  0
  -27.7262  -13.5227  141.0583 C   0  0  0  0  0  0  0  0  0  0  0  0
  -27.7865  -11.2233  140.3636 C   0  0  0  0  0  0  0  0  0  0  0  0
  -27.3378  -11.5367  139.0748 C   0  0  0  0  0  0  0  0  0  0  0  0
  -28.2444   -9.8557  140.6277 C   0  0  0  0  0  0  0  0  0  0  0  0
  -28.1936   -8.8554  139.7069 C   0  0  0  0  0  0  0  0  0  0  0  0
  -28.7868   -7.5998  139.8750 C   0  0  0  0  0  0  0  0  0  0  0  0
  -29.4793   -7.3438  141.1010 C   0  0  0  0  0  0  0  0  0  0  0  0
  -29.5267   -8.3020  142.0772 C   0  0  0  0  0  0  0  0  0  0  0  0
  -28.9670   -9.5605  141.8779 C   0  0  0  0  0  0  0  0  0  0  0  0
  -28.1175  -10.2335  143.0290 C   0  0  0  0  0  0  0  0  0  0  0  0
  -28.2455  -16.0412  147.1414 C   0  0  0  0  0  0  0  0  0  0  0  0
  -28.3877  -17.0930  147.5148 F   0  0  0  0  0  0  0  0  0  0  0  0
  -29.2940  -15.0630  147.2321 C   0  0  0  0  0  0  0  0  0  0  0  0
  -29.5222  -14.1839  148.3149 C   0  0  0  0  0  0  0  0  0  0  0  0
  -30.3210  -13.0574  148.2124 C   0  0  0  0  0  0  0  0  0  0  0  0
  -30.0075  -12.0589  147.1480 C   0  0  0  0  0  0  0  0  0  0  0  0
  -30.7951  -11.0903  146.8992 O   0  0  0  0  0  0  0  0  0  0  0  0
  -28.8369  -12.0746  146.6090 O   0  0  0  0  0  0  0  0  0  0  0  0
  -24.0134  -11.2209  146.2724 C   0  0  0  0  0  0  0  0  0  0  0  0
  4  5  1  0
  5  6  1  0
  6  7  1  0
  7  8  2  0
  8  9  1  0
  9 12  1  0
  7 13  1  0
 12 13  1  0
 13 14  1  0
 14 15  1  0
 15 16  1  0
 16 17  2  0
 16 18  1  0
 18 19  1  0
 18 20  1  0
 15 26  1  0
 25 26  1  0
  5 27  1  0
 27 28  1  0
 27 29  1  0
 29 30  2  3
 30 31  1  0
 31 32  1  0
 32 33  2  0
 32 34  1  0
  9 35  1  0
  1  2  2  0
  2 10  1  0
 10 11  2  0
 11  4  1  0
  4  3  2  0
  3  1  1  0
 20 21  2  0
 21 22  1  0
 22 23  2  0
 23 24  1  0
 24 25  2  0
 25 20  1  0
M  END

$$$$
No_635-/dssg/home/sw_qyf/PocketFlow/Model-Generation-Results/5HT2A_7WC7_rec_A_10.pdb/2024-01-01-03-54-21/
     RDKit          3D

 15 16  0  0  0  0  0  0  0  0999 V2000
  -24.1553  -17.8465  145.7021 C   0  0  0  0  0  0  0  0  0  0  0  0
  -23.9795  -18.4462  146.7426 C   0  0  0  0  0  0  0  0  0  0  0  0
  -25.1593  -16.8262  145.6925 C   0  0  0  0  0  0  0  0  0  0  0  0
  -26.3426  -16.9003  146.3448 C   0  0  0  0  0  0  0  0  0  0  0  0
  -24.9078  -18.3640  147.8289 C   0  0  0  0  0  0  0  0  0  0  0  0
  -26.0312  -17.5122  147.7122 C   0  0  0  0  0  0  0  0  0  0  0  0
  -27.4996  -16.1150  146.1993 C   0  0  0  0  0  0  0  0  0  0  0  0
  -27.8218  -14.9874  146.4482 C   0  0  0  0  0  0  0  0  0  0  0  0
  -29.0473  -14.3764  146.6517 C   0  0  0  0  0  0  0  0  0  0  0  0
  -29.2693  -12.9876  146.8273 C   0  0  0  0  0  0  0  0  0  0  0  0
  -30.4579  -12.3003  147.1020 C   0  0  0  0  0  0  0  0  0  0  0  0
  -26.7027  -13.8476  146.3851 C   0  0  0  0  0  0  0  0  0  0  0  0
  -26.9264  -12.4827  146.5412 C   0  0  0  0  0  0  0  0  0  0  0  0
  -28.1290  -12.0391  146.7610 C   0  0  0  0  0  0  0  0  0  0  0  0
  -31.0038  -12.4344  148.2786 O   0  0  0  0  0  0  0  0  0  0  0  0
  4  7  1  0
 10 11  1  0
 11 15  1  0
  7  8  1  0
  8  9  2  0
  9 10  1  0
 10 14  2  0
 14 13  1  0
 13 12  2  0
 12  8  1  0
  1  2  2  0
  2  5  1  0
  5  6  2  0
  6  4  1  0
  4  3  2  0
  3  1  1  0
M  END

$$$$
No_636-/dssg/home/sw_qyf/PocketFlow/Model-Generation-Results/5HT2A_7WC7_rec_A_10.pdb/2024-01-01-03-54-21/
     RDKit          3D

  9  8  0  0  0  0  0  0  0  0999 V2000
  -23.1746  -16.6014  144.8668 C   0  0  0  0  0  0  0  0  0  0  0  0
  -24.0189  -16.0564  145.8445 C   0  0  0  0  0  0  0  0  0  0  0  0
  -24.4145  -16.8299  146.9062 C   0  0  0  0  0  0  0  0  0  0  0  0
  -23.8925  -17.9780  147.0944 C   0  0  0  0  0  0  0  0  0  0  0  0
  -24.4583  -14.6154  145.6463 C   0  0  0  0  0  0  0  0  0  0  0  0
  -25.4103  -14.0649  146.5111 C   0  0  0  0  0  0  0  0  0  0  0  0
  -25.7806  -12.7243  146.3180 C   0  0  0  0  0  0  0  0  0  0  0  0
  -25.1710  -11.9166  145.3584 C   0  0  0  0  0  0  0  0  0  0  0  0
  -24.0967  -12.4713  144.6461 C   0  0  0  0  0  0  0  0  0  0  0  0
  1  2  1  0
  2  3  1  0
  3  4  1  0
  2  5  1  0
  5  6  2  3
  6  7  1  0
  7  8  2  3
  8  9  1  0
M  END

$$$$
No_637-/dssg/home/sw_qyf/PocketFlow/Model-Generation-Results/5HT2A_7WC7_rec_A_10.pdb/2024-01-01-03-54-21/
     RDKit          3D

 31 33  0  0  0  0  0  0  0  0999 V2000
  -24.1553  -17.8465  145.7021 C   0  0  0  0  0  0  0  0  0  0  0  0
  -23.9795  -18.4462  146.7426 C   0  0  0  0  0  0  0  0  0  0  0  0
  -25.1196  -16.8106  145.6408 C   0  0  0  0  0  0  0  0  0  0  0  0
  -25.9237  -16.5070  146.7422 C   0  0  0  0  0  0  0  0  0  0  0  0
  -25.6627  -17.1841  147.9274 C   0  0  0  0  0  0  0  0  0  0  0  0
  -24.6813  -18.1540  148.0079 C   0  0  0  0  0  0  0  0  0  0  0  0
  -26.9717  -15.4553  146.6645 C   0  0  0  0  0  0  0  0  0  0  0  0
  -26.7557  -14.3988  145.8959 C   0  0  0  0  0  0  0  0  0  0  0  0
  -25.5335  -14.1137  145.2434 C   0  0  0  0  0  0  0  0  0  0  0  0
  -24.7244  -15.3822  144.8755 C   0  0  0  0  0  0  0  0  0  0  0  0
  -27.6901  -13.2342  145.8648 C   0  0  0  0  0  0  0  0  0  0  0  0
  -27.4244  -12.0910  145.1072 C   0  0  0  0  0  0  0  0  0  0  0  0
  -27.7962  -11.9220  144.0773 C   0  0  0  0  0  0  0  0  0  0  0  0
  -27.7504  -10.5285  143.3631 C   0  0  0  0  0  0  0  0  0  0  0  0
  -28.8162   -9.9709  143.2020 C   0  0  0  0  0  0  0  0  0  0  0  0
  -29.1686   -9.1736  142.0457 C   0  0  0  0  0  0  0  0  0  0  0  0
  -30.0825   -8.1616  141.9527 C   0  0  0  0  0  0  0  0  0  0  0  0
  -30.8681   -8.0793  142.7062 C   0  0  0  0  0  0  0  0  0  0  0  0
  -30.9288   -8.7581  143.9916 C   0  0  0  0  0  0  0  0  0  0  0  0
  -29.8877   -9.6100  144.3093 C   0  0  0  0  0  0  0  0  0  0  0  0
  -28.8824  -13.2890  146.6636 C   0  0  0  0  0  0  0  0  0  0  0  0
  -29.6081  -14.3580  147.0219 C   0  0  0  0  0  0  0  0  0  0  0  0
  -30.1047   -7.5319  140.5547 C   0  0  0  0  0  0  0  0  0  0  0  0
  -28.6995   -7.3267  139.9864 C   0  0  0  0  0  0  0  0  0  0  0  0
  -23.8318  -15.4273  144.0620 F   0  0  0  0  0  0  0  0  0  0  0  0
  -28.6671   -8.1351  138.6519 C   0  0  0  0  0  0  0  0  0  0  0  0
  -28.4924   -9.4895  138.8571 C   0  0  0  0  0  0  0  0  0  0  0  0
  -27.4895   -9.9708  139.8538 C   0  0  0  0  0  0  0  0  0  0  0  0
  -26.7574  -11.1232  139.3921 C   0  0  0  0  0  0  0  0  0  0  0  0
  -27.6458  -12.2713  139.1599 C   0  0  0  0  0  0  0  0  0  0  0  0
  -30.8137  -14.0651  147.7172 N   0  0  0  0  0  0  0  0  0  0  0  0
  8 11  1  0
 11 12  1  0
 12 13  2  3
 13 14  1  0
 14 15  1  0
 11 21  1  0
 21 22  2  3
 17 23  1  0
 23 24  1  0
 10 25  1  0
 24 26  1  0
 26 27  1  0
 27 28  1  0
 28 29  1  0
 29 30  1  0
 22 31  1  0
  4  7  2  0
  7  8  1  0
  8  9  2  0
  9 10  1  0
 10  3  2  0
  1  2  2  0
  2  6  1  0
  6  5  2  0
  5  4  1  0
  4  3  1  0
  3  1  1  0
 15 16  2  0
 16 17  1  0
 17 18  2  0
 18 19  1  0
 19 20  2  0
 20 15  1  0
M  END

$$$$
No_638-/dssg/home/sw_qyf/PocketFlow/Model-Generation-Results/5HT2A_7WC7_rec_A_10.pdb/2024-01-01-03-54-21/
     RDKit          3D

 32 35  0  0  0  0  0  0  0  0999 V2000
  -23.1746  -16.6014  144.8668 C   0  0  0  0  0  0  0  0  0  0  0  0
  -24.0189  -16.0564  145.8445 C   0  0  0  0  0  0  0  0  0  0  0  0
  -24.4850  -14.7380  145.6359 C   0  0  0  0  0  0  0  0  0  0  0  0
  -24.0208  -14.0081  144.6269 C   0  0  0  0  0  0  0  0  0  0  0  0
  -24.4092  -12.5999  144.5318 C   0  0  0  0  0  0  0  0  0  0  0  0
  -25.4740  -12.1564  145.3988 C   0  0  0  0  0  0  0  0  0  0  0  0
  -26.0026  -12.9757  146.4473 C   0  0  0  0  0  0  0  0  0  0  0  0
  -25.5310  -14.3126  146.5215 C   0  0  0  0  0  0  0  0  0  0  0  0
  -25.0054  -16.9889  146.4569 C   0  0  0  0  0  0  0  0  0  0  0  0
  -26.0634  -16.8083  146.9317 C   0  0  0  0  0  0  0  0  0  0  0  0
  -26.4110  -15.2513  147.1915 C   0  0  0  0  0  0  0  0  0  0  0  0
  -25.9351  -10.7691  145.2921 C   0  0  0  0  0  0  0  0  0  0  0  0
  -27.0058  -10.5603  144.5289 N   0  0  0  0  0  0  0  0  0  0  0  0
  -28.2074  -10.9503  144.8611 C   0  0  0  0  0  0  0  0  0  0  0  0
  -29.3151  -10.3478  144.1577 C   0  0  0  0  0  0  0  0  0  0  0  0
  -29.0191   -9.5717  143.0838 C   0  0  0  0  0  0  0  0  0  0  0  0
  -29.9790   -8.6915  142.5568 C   0  0  0  0  0  0  0  0  0  0  0  0
  -29.7481   -7.9078  141.3967 C   0  0  0  0  0  0  0  0  0  0  0  0
  -29.0588   -8.5360  140.3473 C   0  0  0  0  0  0  0  0  0  0  0  0
  -28.2025   -9.6404  140.6350 C   0  0  0  0  0  0  0  0  0  0  0  0
  -28.3303  -10.2527  141.9863 C   0  0  0  0  0  0  0  0  0  0  0  0
  -28.6633   -7.8223  139.1594 C   0  0  0  0  0  0  0  0  0  0  0  0
  -28.0016   -8.4835  138.1104 C   0  0  0  0  0  0  0  0  0  0  0  0
  -28.5891   -9.5271  137.8829 C   0  0  0  0  0  0  0  0  0  0  0  0
  -27.8326  -10.3230  137.3587 C   0  0  0  0  0  0  0  0  0  0  0  0
  -28.3407  -11.6465  136.7987 C   0  0  0  0  0  0  0  0  0  0  0  0
  -31.2489   -8.4412  143.3241 C   0  0  0  0  0  0  0  0  0  0  0  0
  -31.3750   -8.5101  144.5607 O   0  0  0  0  0  0  0  0  0  0  0  0
  -32.3581   -8.4198  142.5537 O   0  0  0  0  0  0  0  0  0  0  0  0
  -24.5303  -18.4572  146.3625 C   0  0  0  0  0  0  0  0  0  0  0  0
  -23.5777  -19.0780  145.6594 C   0  0  0  0  0  0  0  0  0  0  0  0
  -22.7736  -18.1078  144.9372 C   0  0  0  0  0  0  0  0  0  0  0  0
  6 12  1  0
 12 13  1  0
 13 14  1  0
 14 15  2  3
 15 16  1  0
 19 22  1  0
 22 23  2  3
 23 24  1  0
 24 25  1  0
 25 26  1  0
 17 27  1  0
 27 28  2  0
 27 29  1  0
  1  2  2  0
  9 30  2  0
 30 31  1  0
 31 32  2  0
 32  1  1  0
  2  3  1  0
  8 11  1  0
 11 10  2  0
 10  9  1  0
  9  2  1  0
  3  4  2  0
  4  5  1  0
  5  6  2  0
  6  7  1  0
  7  8  2  0
  8  3  1  0
 16 17  2  0
 17 18  1  0
 18 19  2  0
 19 20  1  0
 20 21  2  0
 21 16  1  0
M  END

$$$$
No_639-/dssg/home/sw_qyf/PocketFlow/Model-Generation-Results/5HT2A_7WC7_rec_A_10.pdb/2024-01-01-03-54-21/
     RDKit          3D

 14 14  0  0  0  0  0  0  0  0999 V2000
  -23.1746  -16.6014  144.8668 C   0  0  0  0  0  0  0  0  0  0  0  0
  -24.0189  -16.0564  145.8445 C   0  0  0  0  0  0  0  0  0  0  0  0
  -24.4145  -16.8299  146.9062 C   0  0  0  0  0  0  0  0  0  0  0  0
  -25.2730  -16.2838  147.9150 C   0  0  0  0  0  0  0  0  0  0  0  0
  -26.0161  -15.1622  147.5289 C   0  0  0  0  0  0  0  0  0  0  0  0
  -24.5617  -14.6879  145.6601 C   0  0  0  0  0  0  0  0  0  0  0  0
  -25.6208  -14.2874  146.5799 C   0  0  0  0  0  0  0  0  0  0  0  0
  -24.1037  -13.8092  144.6818 C   0  0  0  0  0  0  0  0  0  0  0  0
  -23.1031  -14.0212  144.0014 O   0  0  0  0  0  0  0  0  0  0  0  0
  -23.8504  -18.1463  147.1463 C   0  0  0  0  0  0  0  0  0  0  0  0
  -23.2089  -18.4642  148.1289 O   0  0  0  0  0  0  0  0  0  0  0  0
  -24.3041  -19.1023  146.3478 O   0  0  0  0  0  0  0  0  0  0  0  0
  -24.4246  -12.5340  144.8295 O   0  0  0  0  0  0  0  0  0  0  0  0
  -26.0670  -13.1119  146.5709 F   0  0  0  0  0  0  0  0  0  0  0  0
  1  2  1  0
  2  3  1  0
  3  4  1  0
  4  5  1  0
  2  6  1  0
  5  7  1  0
  6  7  1  0
  6  8  1  0
  8  9  1  0
  3 10  1  0
 10 11  2  0
 10 12  1  0
  8 13  2  0
  7 14  1  0
M  END

$$$$
No_640-/dssg/home/sw_qyf/PocketFlow/Model-Generation-Results/5HT2A_7WC7_rec_A_10.pdb/2024-01-01-03-54-21/
     RDKit          3D

 35 36  0  0  0  0  0  0  0  0999 V2000
  -23.1746  -16.6014  144.8668 C   0  0  0  0  0  0  0  0  0  0  0  0
  -23.8963  -15.5346  144.7885 C   0  0  0  0  0  0  0  0  0  0  0  0
  -25.0304  -15.2549  144.5358 C   0  0  0  0  0  0  0  0  0  0  0  0
  -26.0482  -16.0541  145.3273 C   0  0  0  0  0  0  0  0  0  0  0  0
  -24.1314  -17.6118  145.6547 C   0  0  0  0  0  0  0  0  0  0  0  0
  -25.4664  -17.2664  145.8096 C   0  0  0  0  0  0  0  0  0  0  0  0
  -25.6084  -13.9399  144.0495 C   0  0  0  0  0  0  0  0  0  0  0  0
  -25.7993  -13.9711  142.8418 O   0  0  0  0  0  0  0  0  0  0  0  0
  -23.5778  -18.8808  146.0901 C   0  0  0  0  0  0  0  0  0  0  0  0
  -24.2016  -19.8824  146.0391 O   0  0  0  0  0  0  0  0  0  0  0  0
  -22.6408  -18.7447  147.0610 O   0  0  0  0  0  0  0  0  0  0  0  0
  -26.1754  -12.9865  144.7972 N   0  0  0  0  0  0  0  0  0  0  0  0
  -26.8882  -11.9344  144.2978 C   0  0  0  0  0  0  0  0  0  0  0  0
  -27.6869  -12.0877  143.2947 C   0  0  0  0  0  0  0  0  0  0  0  0
  -28.5464  -10.9644  142.8971 C   0  0  0  0  0  0  0  0  0  0  0  0
  -29.1054  -10.7862  141.6494 C   0  0  0  0  0  0  0  0  0  0  0  0
  -29.3085   -9.6016  141.3926 C   0  0  0  0  0  0  0  0  0  0  0  0
  -29.5455   -8.5130  142.3552 C   0  0  0  0  0  0  0  0  0  0  0  0
  -29.1950   -8.7793  143.6351 C   0  0  0  0  0  0  0  0  0  0  0  0
  -28.6642   -9.9808  144.0092 C   0  0  0  0  0  0  0  0  0  0  0  0
  -30.0871   -7.2144  141.8993 C   0  0  0  0  0  0  0  0  0  0  0  0
  -29.4689   -6.5195  141.4502 O   0  0  0  0  0  0  0  0  0  0  0  0
  -31.3549   -7.1442  142.2458 O   0  0  0  0  0  0  0  0  0  0  0  0
  -27.4266  -15.8105  145.5101 C   0  0  0  0  0  0  0  0  0  0  0  0
  -27.7933  -15.0705  146.7615 C   0  0  0  0  0  0  0  0  0  0  0  0
  -29.0942  -14.6485  147.0772 C   0  0  0  0  0  0  0  0  0  0  0  0
  -29.4971  -13.3972  147.4072 C   0  0  0  0  0  0  0  0  0  0  0  0
  -30.8251  -13.0232  147.7055 C   0  0  0  0  0  0  0  0  0  0  0  0
  -30.9836  -11.6717  148.2824 C   0  0  0  0  0  0  0  0  0  0  0  0
  -28.4794  -12.3127  147.3190 C   0  0  0  0  0  0  0  0  0  0  0  0
  -32.2148  -11.5054  148.9673 C   0  0  0  0  0  0  0  0  0  0  0  0
  -33.2937  -11.9943  148.8731 C   0  0  0  0  0  0  0  0  0  0  0  0
  -34.4163  -11.6117  149.7463 C   0  0  0  0  0  0  0  0  0  0  0  0
  -34.0373  -10.6128  150.7133 C   0  0  0  0  0  0  0  0  0  0  0  0
  -32.7771   -9.9661  150.8599 C   0  0  0  0  0  0  0  0  0  0  0  0
  3  7  1  0
  7  8  1  0
  5  9  1  0
  9 10  2  0
  9 11  1  0
  7 12  2  3
 12 13  1  0
 13 14  1  0
 18 21  1  0
 21 22  1  0
 21 23  2  0
  4 24  1  0
 24 25  1  0
 25 26  1  0
 26 27  2  3
 27 28  1  0
 28 29  2  3
 27 30  1  0
 29 31  1  0
 31 32  2  3
 32 33  1  0
 33 34  2  3
 34 35  1  0
 14 15  1  0
 15 16  2  0
 16 17  1  0
 17 18  2  0
 18 19  1  0
 19 20  2  0
 20 15  1  0
  1  2  2  0
  2  3  1  0
  3  4  2  0
  4  6  1  0
  6  5  2  0
  5  1  1  0
M  END

$$$$
No_641-/dssg/home/sw_qyf/PocketFlow/Model-Generation-Results/5HT2A_7WC7_rec_A_10.pdb/2024-01-01-03-54-21/
     RDKit          3D

 35 39  0  0  0  0  0  0  0  0999 V2000
  -23.8998  -17.8495  145.5131 N   0  0  0  0  0  0  0  0  0  0  0  0
  -24.2949  -16.6890  145.5199 C   0  0  0  0  0  0  0  0  0  0  0  0
  -24.1189  -15.7572  144.5004 C   0  0  0  0  0  0  0  0  0  0  0  0
  -24.5682  -14.4396  144.6345 C   0  0  0  0  0  0  0  0  0  0  0  0
  -24.2025  -13.4340  143.6821 C   0  0  0  0  0  0  0  0  0  0  0  0
  -24.8751  -16.1866  146.7790 C   0  0  0  0  0  0  0  0  0  0  0  0
  -25.3783  -14.8759  146.9333 C   0  0  0  0  0  0  0  0  0  0  0  0
  -25.0952  -13.9383  145.9364 C   0  0  0  0  0  0  0  0  0  0  0  0
  -24.0195  -18.7885  146.4825 C   0  0  0  0  0  0  0  0  0  0  0  0
  -24.5964  -18.4215  147.6599 N   0  0  0  0  0  0  0  0  0  0  0  0
  -25.0193  -17.1915  147.8955 C   0  0  0  0  0  0  0  0  0  0  0  0
  -25.5489  -16.8614  149.0335 F   0  0  0  0  0  0  0  0  0  0  0  0
  -25.4516  -12.5424  146.1263 C   0  0  0  0  0  0  0  0  0  0  0  0
  -25.6220  -11.6185  145.1896 C   0  0  0  0  0  0  0  0  0  0  0  0
  -24.7523  -11.9836  143.9588 C   0  0  0  0  0  0  0  0  0  0  0  0
  -26.9812  -11.1857  144.9105 C   0  0  0  0  0  0  0  0  0  0  0  0
  -27.2981  -10.1143  144.0668 C   0  0  0  0  0  0  0  0  0  0  0  0
  -28.5987   -9.6362  143.8452 C   0  0  0  0  0  0  0  0  0  0  0  0
  -29.6453  -10.1704  144.6712 C   0  0  0  0  0  0  0  0  0  0  0  0
  -29.3025  -11.2209  145.6295 C   0  0  0  0  0  0  0  0  0  0  0  0
  -28.0168  -11.6511  145.7810 C   0  0  0  0  0  0  0  0  0  0  0  0
  -28.9658   -8.6549  142.9153 C   0  0  0  0  0  0  0  0  0  0  0  0
  -28.6223   -8.4554  141.8637 C   0  0  0  0  0  0  0  0  0  0  0  0
  -29.4641   -8.0982  140.8102 C   0  0  0  0  0  0  0  0  0  0  0  0
  -28.9787   -7.8901  139.4532 C   0  0  0  0  0  0  0  0  0  0  0  0
  -28.5167   -9.0069  138.7437 C   0  0  0  0  0  0  0  0  0  0  0  0
  -28.4637   -8.8864  137.3306 C   0  0  0  0  0  0  0  0  0  0  0  0
  -30.8213   -7.9012  141.0183 C   0  0  0  0  0  0  0  0  0  0  0  0
  -29.0456   -9.9698  136.5860 C   0  0  0  0  0  0  0  0  0  0  0  0
  -29.2676   -9.7261  135.2049 C   0  0  0  0  0  0  0  0  0  0  0  0
  -30.3049  -11.7294  146.4192 O   0  0  0  0  0  0  0  0  0  0  0  0
  -29.8430  -12.2433  147.7224 C   0  0  0  0  0  0  0  0  0  0  0  0
  -31.3203   -7.9187  142.4802 C   0  0  0  0  0  0  0  0  0  0  0  0
  -30.3814   -8.4230  143.3958 C   0  0  0  0  0  0  0  0  0  0  0  0
  -30.3218  -13.6393  147.9879 C   0  0  0  0  0  0  0  0  0  0  0  0
 11 12  1  0
 14 16  1  0
 18 22  1  0
 25 26  1  0
 26 27  1  0
 27 29  2  3
 29 30  1  0
 20 31  1  0
 31 32  1  0
 32 35  1  0
 25 24  1  0
 22 23  2  0
 23 24  1  0
 24 28  2  0
 28 33  1  0
 33 34  2  0
 34 22  1  0
  4  5  1  0
  5 15  2  0
 15 14  1  0
 14 13  2  0
 13  8  1  0
  1  2  2  0
  6 11  2  0
 11 10  1  0
 10  9  2  0
  9  1  1  0
  2  3  1  0
  3  4  2  0
  4  8  1  0
  8  7  2  0
  7  6  1  0
  6  2  1  0
 16 17  2  0
 17 18  1  0
 18 19  2  0
 19 20  1  0
 20 21  2  0
 21 16  1  0
M  END

$$$$
No_642-/dssg/home/sw_qyf/PocketFlow/Model-Generation-Results/5HT2A_7WC7_rec_A_10.pdb/2024-01-01-03-54-21/
     RDKit          3D

 24 26  0  0  0  0  0  0  0  0999 V2000
  -24.1553  -17.8465  145.7021 C   0  0  0  0  0  0  0  0  0  0  0  0
  -24.2856  -16.6364  145.3494 C   0  0  0  0  0  0  0  0  0  0  0  0
  -25.0033  -15.6772  146.0737 C   0  0  0  0  0  0  0  0  0  0  0  0
  -24.8869  -14.2981  145.8377 C   0  0  0  0  0  0  0  0  0  0  0  0
  -24.0151  -13.8866  144.8228 C   0  0  0  0  0  0  0  0  0  0  0  0
  -23.7376  -12.4867  144.6569 C   0  0  0  0  0  0  0  0  0  0  0  0
  -24.9439  -18.3800  146.7110 C   0  0  0  0  0  0  0  0  0  0  0  0
  -25.7030  -17.5609  147.4935 C   0  0  0  0  0  0  0  0  0  0  0  0
  -25.6992  -16.2301  147.2795 C   0  0  0  0  0  0  0  0  0  0  0  0
  -24.4812  -11.5984  145.4599 C   0  0  0  0  0  0  0  0  0  0  0  0
  -25.3714  -13.2548  146.6944 C   0  0  0  0  0  0  0  0  0  0  0  0
  -25.2186  -11.9616  146.5254 C   0  0  0  0  0  0  0  0  0  0  0  0
  -23.6578  -16.1839  144.2826 F   0  0  0  0  0  0  0  0  0  0  0  0
  -23.5039  -18.7536  144.9063 O   0  0  0  0  0  0  0  0  0  0  0  0
  -25.8873  -11.0134  147.2532 O   0  0  0  0  0  0  0  0  0  0  0  0
  -26.8555  -15.5715  147.6596 O   0  0  0  0  0  0  0  0  0  0  0  0
  -28.0270  -15.5757  147.1989 C   0  0  0  0  0  0  0  0  0  0  0  0
  -28.8956  -14.4801  147.3567 C   0  0  0  0  0  0  0  0  0  0  0  0
  -30.2397  -14.3183  147.0870 C   0  0  0  0  0  0  0  0  0  0  0  0
  -30.8776  -13.1601  147.6268 C   0  0  0  0  0  0  0  0  0  0  0  0
  -30.1706  -11.9241  147.6551 C   0  0  0  0  0  0  0  0  0  0  0  0
  -28.7285  -11.9953  147.5591 C   0  0  0  0  0  0  0  0  0  0  0  0
  -28.0976  -13.2263  147.3288 C   0  0  0  0  0  0  0  0  0  0  0  0
  -28.5364  -16.6598  146.8074 O   0  0  0  0  0  0  0  0  0  0  0  0
  3  4  1  0
  2 13  1  0
  1 14  1  0
 12 15  1  0
  9 16  1  0
 16 17  1  0
 17 18  1  0
 17 24  2  0
 18 19  2  0
 19 20  1  0
 20 21  2  0
 21 22  1  0
 22 23  2  0
 23 18  1  0
  1  2  2  0
  2  3  1  0
  3  9  2  0
  9  8  1  0
  8  7  2  0
  7  1  1  0
  4  5  2  0
  5  6  1  0
  6 10  2  0
 10 12  1  0
 12 11  2  0
 11  4  1  0
M  END

$$$$
No_643-/dssg/home/sw_qyf/PocketFlow/Model-Generation-Results/5HT2A_7WC7_rec_A_10.pdb/2024-01-01-03-54-21/
     RDKit          3D

 35 38  0  0  0  0  0  0  0  0999 V2000
  -24.1553  -17.8465  145.7021 C   0  0  0  0  0  0  0  0  0  0  0  0
  -24.2856  -16.6364  145.3494 C   0  0  0  0  0  0  0  0  0  0  0  0
  -24.7211  -15.5955  146.2116 C   0  0  0  0  0  0  0  0  0  0  0  0
  -25.1321  -16.0374  147.5372 C   0  0  0  0  0  0  0  0  0  0  0  0
  -24.5141  -18.2630  147.0046 C   0  0  0  0  0  0  0  0  0  0  0  0
  -24.9573  -17.2963  147.9769 C   0  0  0  0  0  0  0  0  0  0  0  0
  -24.8685  -14.2486  145.6123 C   0  0  0  0  0  0  0  0  0  0  0  0
  -24.1571  -13.7673  144.7647 C   0  0  0  0  0  0  0  0  0  0  0  0
  -23.0609  -14.5085  144.2172 C   0  0  0  0  0  0  0  0  0  0  0  0
  -23.2445  -15.9715  144.3522 C   0  0  0  0  0  0  0  0  0  0  0  0
  -22.1612  -14.0469  143.4127 O   0  0  0  0  0  0  0  0  0  0  0  0
  -25.3223  -17.6812  149.3786 C   0  0  0  0  0  0  0  0  0  0  0  0
  -26.3211  -18.2390  149.5448 F   0  0  0  0  0  0  0  0  0  0  0  0
  -25.2248  -16.4877  150.1668 F   0  0  0  0  0  0  0  0  0  0  0  0
  -24.1720  -18.3095  149.9260 F   0  0  0  0  0  0  0  0  0  0  0  0
  -25.7635  -13.2829  146.5022 C   0  0  0  0  0  0  0  0  0  0  0  0
  -25.7599  -11.9131  146.1904 C   0  0  0  0  0  0  0  0  0  0  0  0
  -25.2451  -11.4727  144.9787 C   0  0  0  0  0  0  0  0  0  0  0  0
  -24.1895  -12.3509  144.3565 C   0  0  0  0  0  0  0  0  0  0  0  0
  -25.9476  -10.8169  144.1902 O   0  0  0  0  0  0  0  0  0  0  0  0
  -26.9076  -10.5440  143.8632 C   0  0  0  0  0  0  0  0  0  0  0  0
  -27.8268  -11.5462  143.5152 C   0  0  0  0  0  0  0  0  0  0  0  0
  -28.6578  -11.1841  142.3999 C   0  0  0  0  0  0  0  0  0  0  0  0
  -28.1600  -11.3121  141.0688 C   0  0  0  0  0  0  0  0  0  0  0  0
  -27.9129  -10.1464  140.2883 C   0  0  0  0  0  0  0  0  0  0  0  0
  -27.4211  -10.2992  138.9373 C   0  0  0  0  0  0  0  0  0  0  0  0
  -27.4186  -11.5831  138.4663 C   0  0  0  0  0  0  0  0  0  0  0  0
  -27.9964  -12.5066  140.3975 C   0  0  0  0  0  0  0  0  0  0  0  0
  -27.7027  -12.7031  139.2160 C   0  0  0  0  0  0  0  0  0  0  0  0
  -29.8519  -10.4464  142.6469 C   0  0  0  0  0  0  0  0  0  0  0  0
  -29.9892   -9.5017  143.7013 C   0  0  0  0  0  0  0  0  0  0  0  0
  -31.1423   -8.6943  143.7731 C   0  0  0  0  0  0  0  0  0  0  0  0
  -31.2783   -7.9116  142.7574 O   0  0  0  0  0  0  0  0  0  0  0  0
  -30.4609   -8.1330  141.6613 C   0  0  0  0  0  0  0  0  0  0  0  0
  -30.3198   -7.0496  140.6839 C   0  0  0  0  0  0  0  0  0  0  0  0
  3  7  1  0
  8  9  1  0
  2 10  1  0
  9 10  1  0
  9 11  1  0
  6 12  1  0
 12 13  1  0
 12 14  1  0
 12 15  1  0
 18 20  1  0
 20 21  1  0
 21 22  1  0
 22 23  1  0
 23 24  1  0
 23 30  1  0
 30 31  1  0
 31 32  1  0
 32 33  1  0
 33 34  1  0
 34 35  1  0
  7  8  2  0
  8 19  1  0
 19 18  2  0
 18 17  1  0
 17 16  2  0
 16  7  1  0
  1  2  2  0
  2  3  1  0
  3  4  2  0
  4  6  1  0
  6  5  2  0
  5  1  1  0
 24 25  2  0
 25 26  1  0
 26 27  2  0
 27 29  1  0
 29 28  2  0
 28 24  1  0
M  END

$$$$
No_644-/dssg/home/sw_qyf/PocketFlow/Model-Generation-Results/5HT2A_7WC7_rec_A_10.pdb/2024-01-01-03-54-21/
     RDKit          3D

 27 30  0  0  0  0  0  0  0  0999 V2000
  -24.1553  -17.8465  145.7021 C   0  0  0  0  0  0  0  0  0  0  0  0
  -24.6364  -17.2931  146.7091 C   0  0  0  0  0  0  0  0  0  0  0  0
  -25.8608  -16.5591  146.5933 C   0  0  0  0  0  0  0  0  0  0  0  0
  -25.9533  -15.5604  145.6681 C   0  0  0  0  0  0  0  0  0  0  0  0
  -27.0179  -14.6632  145.5500 C   0  0  0  0  0  0  0  0  0  0  0  0
  -24.0512  -16.8635  144.5478 C   0  0  0  0  0  0  0  0  0  0  0  0
  -25.0351  -15.8697  144.5502 C   0  0  0  0  0  0  0  0  0  0  0  0
  -26.8557  -13.4925  144.7844 C   0  0  0  0  0  0  0  0  0  0  0  0
  -26.3150  -13.4758  143.6080 C   0  0  0  0  0  0  0  0  0  0  0  0
  -26.9582  -12.8105  142.5653 C   0  0  0  0  0  0  0  0  0  0  0  0
  -27.7116  -11.6347  142.7166 C   0  0  0  0  0  0  0  0  0  0  0  0
  -28.3879  -10.9853  141.7479 C   0  0  0  0  0  0  0  0  0  0  0  0
  -29.2326   -9.8493  141.9934 C   0  0  0  0  0  0  0  0  0  0  0  0
  -29.4881   -9.5794  143.3804 C   0  0  0  0  0  0  0  0  0  0  0  0
  -28.8459  -10.3046  144.4236 C   0  0  0  0  0  0  0  0  0  0  0  0
  -27.9514  -11.3408  144.0917 C   0  0  0  0  0  0  0  0  0  0  0  0
  -27.7413  -12.3388  145.1412 C   0  0  0  0  0  0  0  0  0  0  0  0
  -28.2121  -11.2356  140.4743 F   0  0  0  0  0  0  0  0  0  0  0  0
  -24.6969  -18.3056  148.0289 C   0  0  0  0  0  0  0  0  0  0  0  0
  -30.3783   -8.4245  143.7230 C   0  0  0  0  0  0  0  0  0  0  0  0
  -30.8987   -7.7480  142.5789 C   0  0  0  0  0  0  0  0  0  0  0  0
  -29.8401   -7.1675  141.7442 C   0  0  0  0  0  0  0  0  0  0  0  0
  -29.4694   -7.9774  140.5591 C   0  0  0  0  0  0  0  0  0  0  0  0
  -28.7569   -9.1679  140.9298 C   0  0  0  0  0  0  0  0  0  0  0  0
  -28.7989   -7.0910  139.4844 C   0  0  0  0  0  0  0  0  0  0  0  0
  -28.2841   -7.9103  138.3194 C   0  0  0  0  0  0  0  0  0  0  0  0
  -27.6920   -9.2001  138.7277 C   0  0  0  0  0  0  0  0  0  0  0  0
  1  2  1  0
  2  3  1  0
  3  4  1  0
  4  5  2  3
  1  6  1  0
  4  7  1  0
  6  7  1  0
  5  8  1  0
 12 18  1  0
  2 19  1  0
 14 20  1  0
 20 21  1  0
 21 22  1  0
 22 23  1  0
 13 24  1  0
 23 24  1  0
 23 25  1  0
 25 26  1  0
 26 27  1  0
 11 12  1  0
 12 13  2  0
 13 14  1  0
 14 15  2  0
 15 16  1  0
  8  9  2  0
  9 10  1  0
 10 11  2  0
 11 16  1  0
 16 17  2  0
 17  8  1  0
M  END

$$$$
No_645-/dssg/home/sw_qyf/PocketFlow/Model-Generation-Results/5HT2A_7WC7_rec_A_10.pdb/2024-01-01-03-54-21/
     RDKit          3D

 12 13  0  0  0  0  0  0  0  0999 V2000
  -23.1746  -16.6014  144.8668 C   0  0  0  0  0  0  0  0  0  0  0  0
  -23.8963  -15.5346  144.7885 C   0  0  0  0  0  0  0  0  0  0  0  0
  -24.5755  -15.0383  145.9043 C   0  0  0  0  0  0  0  0  0  0  0  0
  -25.0618  -13.6819  146.0347 C   0  0  0  0  0  0  0  0  0  0  0  0
  -26.1212  -13.2239  146.2655 C   0  0  0  0  0  0  0  0  0  0  0  0
  -26.4710  -11.8231  146.0586 C   0  0  0  0  0  0  0  0  0  0  0  0
  -23.4391  -17.5341  145.9737 C   0  0  0  0  0  0  0  0  0  0  0  0
  -24.0327  -17.0461  147.2010 C   0  0  0  0  0  0  0  0  0  0  0  0
  -24.6228  -15.7725  147.1730 C   0  0  0  0  0  0  0  0  0  0  0  0
  -25.4604  -10.9952  145.4366 C   0  0  0  0  0  0  0  0  0  0  0  0
  -24.0713  -12.6848  145.3680 C   0  0  0  0  0  0  0  0  0  0  0  0
  -24.3399  -11.4473  145.1723 N   0  0  0  0  0  0  0  0  0  0  0  0
  3  4  1  0
  1  2  2  0
  2  3  1  0
  3  9  2  0
  9  8  1  0
  8  7  2  0
  7  1  1  0
  4  5  2  0
  5  6  1  0
  6 10  2  0
 10 12  1  0
 12 11  2  0
 11  4  1  0
M  END

$$$$
No_646-/dssg/home/sw_qyf/PocketFlow/Model-Generation-Results/5HT2A_7WC7_rec_A_10.pdb/2024-01-01-03-54-21/
     RDKit          3D

 21 22  0  0  0  0  0  0  0  0999 V2000
  -23.8931  -18.2534  145.3804 F   0  0  0  0  0  0  0  0  0  0  0  0
  -24.3394  -17.2619  146.1054 C   0  0  0  0  0  0  0  0  0  0  0  0
  -24.5544  -17.4430  147.4759 C   0  0  0  0  0  0  0  0  0  0  0  0
  -24.5412  -15.9711  145.4988 C   0  0  0  0  0  0  0  0  0  0  0  0
  -24.9437  -14.8222  146.2134 C   0  0  0  0  0  0  0  0  0  0  0  0
  -24.9885  -16.2217  148.2368 C   0  0  0  0  0  0  0  0  0  0  0  0
  -25.1645  -14.9721  147.6485 C   0  0  0  0  0  0  0  0  0  0  0  0
  -24.7162  -13.5782  145.5797 C   0  0  0  0  0  0  0  0  0  0  0  0
  -24.0040  -13.3443  144.5427 C   0  0  0  0  0  0  0  0  0  0  0  0
  -25.5065  -12.4626  146.1537 C   0  0  0  0  0  0  0  0  0  0  0  0
  -25.8175  -11.2714  145.4500 C   0  0  0  0  0  0  0  0  0  0  0  0
  -27.1219  -11.1559  144.9436 C   0  0  0  0  0  0  0  0  0  0  0  0
  -27.4592  -10.1327  144.0249 C   0  0  0  0  0  0  0  0  0  0  0  0
  -28.8126   -9.9373  143.6185 C   0  0  0  0  0  0  0  0  0  0  0  0
  -29.1763   -9.1772  142.5363 C   0  0  0  0  0  0  0  0  0  0  0  0
  -29.8583   -8.0287  142.7210 C   0  0  0  0  0  0  0  0  0  0  0  0
  -29.8722   -6.9979  141.7166 C   0  0  0  0  0  0  0  0  0  0  0  0
  -29.5627   -7.3351  140.3950 C   0  0  0  0  0  0  0  0  0  0  0  0
  -28.8554   -8.5474  140.1864 C   0  0  0  0  0  0  0  0  0  0  0  0
  -28.5626   -9.3452  141.2775 C   0  0  0  0  0  0  0  0  0  0  0  0
  -28.3413   -8.8176  138.8614 C   0  0  0  0  0  0  0  0  0  0  0  0
  1  2  1  0
  5  8  1  0
  8  9  2  0
  8 10  1  0
 10 11  1  0
 11 12  1  0
 12 13  1  0
 13 14  2  3
 14 15  1  0
 19 21  1  0
 15 16  2  0
 16 17  1  0
 17 18  2  0
 18 19  1  0
 19 20  2  0
 20 15  1  0
  2  3  2  0
  3  6  1  0
  6  7  2  0
  7  5  1  0
  5  4  2  0
  4  2  1  0
M  END

$$$$
No_647-/dssg/home/sw_qyf/PocketFlow/Model-Generation-Results/5HT2A_7WC7_rec_A_10.pdb/2024-01-01-03-54-21/
     RDKit          3D

 35 38  0  0  0  0  0  0  0  0999 V2000
  -24.1553  -17.8465  145.7021 C   0  0  0  0  0  0  0  0  0  0  0  0
  -24.6364  -17.2931  146.7091 C   0  0  0  0  0  0  0  0  0  0  0  0
  -25.8608  -16.5592  146.5934 C   0  0  0  0  0  0  0  0  0  0  0  0
  -25.9533  -15.5604  145.6681 C   0  0  0  0  0  0  0  0  0  0  0  0
  -27.0678  -14.6961  145.5542 C   0  0  0  0  0  0  0  0  0  0  0  0
  -24.0556  -16.8606  144.5402 C   0  0  0  0  0  0  0  0  0  0  0  0
  -24.5365  -15.5754  144.8855 C   0  0  0  0  0  0  0  0  0  0  0  0
  -26.9469  -13.4904  146.2456 C   0  0  0  0  0  0  0  0  0  0  0  0
  -25.7628  -12.7476  146.3560 C   0  0  0  0  0  0  0  0  0  0  0  0
  -24.5400  -13.1430  145.8770 C   0  0  0  0  0  0  0  0  0  0  0  0
  -23.9647  -14.2534  144.7602 C   0  0  0  0  0  0  0  0  0  0  0  0
  -23.1531  -13.8973  143.9675 O   0  0  0  0  0  0  0  0  0  0  0  0
  -28.2039  -12.7800  146.6793 C   0  0  0  0  0  0  0  0  0  0  0  0
  -29.0503  -13.3362  147.4933 C   0  0  0  0  0  0  0  0  0  0  0  0
  -30.2354  -12.7097  147.9898 C   0  0  0  0  0  0  0  0  0  0  0  0
  -30.5136  -11.4523  147.4018 C   0  0  0  0  0  0  0  0  0  0  0  0
  -29.7065  -10.9604  146.3519 C   0  0  0  0  0  0  0  0  0  0  0  0
  -28.5688  -11.5977  145.9973 C   0  0  0  0  0  0  0  0  0  0  0  0
  -31.2683  -13.3989  149.2269 P   0  0  0  0  0  0  0  0  0  0  0  0
  -30.6674  -14.6308  149.5007 O   0  0  0  0  0  0  0  0  0  0  0  0
  -30.9998  -12.4479  150.3990 O   0  0  0  0  0  0  0  0  0  0  0  0
  -32.6221  -13.4141  148.7972 O   0  0  0  0  0  0  0  0  0  0  0  0
  -23.4716  -19.0820  145.5896 C   0  0  0  0  0  0  0  0  0  0  0  0
  -23.3839  -12.3597  146.2584 O   0  0  0  0  0  0  0  0  0  0  0  0
  -30.0746   -9.7812  145.7837 O   0  0  0  0  0  0  0  0  0  0  0  0
  -30.3473   -9.7646  144.3845 C   0  0  0  0  0  0  0  0  0  0  0  0
  -29.2532  -10.0611  143.5655 C   0  0  0  0  0  0  0  0  0  0  0  0
  -29.3940  -10.0483  142.2032 C   0  0  0  0  0  0  0  0  0  0  0  0
  -30.3675   -9.2097  141.6000 C   0  0  0  0  0  0  0  0  0  0  0  0
  -30.1943   -8.6144  140.3564 C   0  0  0  0  0  0  0  0  0  0  0  0
  -29.0006   -8.8234  139.6241 C   0  0  0  0  0  0  0  0  0  0  0  0
  -28.0604   -9.7920  140.1420 C   0  0  0  0  0  0  0  0  0  0  0  0
  -28.1952  -10.2840  141.4705 C   0  0  0  0  0  0  0  0  0  0  0  0
  -28.7602   -8.2462  138.3268 C   0  0  0  0  0  0  0  0  0  0  0  0
  -27.8974   -7.3526  138.0218 N   0  0  0  0  0  0  0  0  0  0  0  0
  4  5  1  0
  5  8  1  0
  8  9  2  0
  9 10  1  0
  7 11  1  0
 10 11  1  0
 11 12  2  0
  8 13  1  0
 15 19  1  0
 19 20  1  0
 19 21  1  0
 19 22  1  0
  1 23  1  0
 10 24  1  0
 17 25  1  0
 25 26  1  0
 26 27  1  0
 31 34  1  0
 34 35  1  0
 27 28  1  0
 28 29  2  0
 29 30  1  0
 30 31  2  0
 31 32  1  0
 32 33  2  0
 33 28  1  0
 13 14  2  0
 14 15  1  0
 15 16  2  0
 16 17  1  0
 17 18  2  0
 18 13  1  0
  1  2  2  0
  2  3  1  0
  3  4  2  0
  4  7  1  0
  7  6  2  0
  6  1  1  0
M  END

$$$$
No_648-/dssg/home/sw_qyf/PocketFlow/Model-Generation-Results/5HT2A_7WC7_rec_A_10.pdb/2024-01-01-03-54-21/
     RDKit          3D

 19 20  0  0  0  0  0  0  0  0999 V2000
  -23.8042  -18.1535  145.4053 O   0  0  0  0  0  0  0  0  0  0  0  0
  -24.3135  -17.1214  145.8338 C   0  0  0  0  0  0  0  0  0  0  0  0
  -24.4856  -15.9950  145.0258 C   0  0  0  0  0  0  0  0  0  0  0  0
  -25.3951  -14.9381  145.2879 C   0  0  0  0  0  0  0  0  0  0  0  0
  -25.2282  -13.6469  144.8697 C   0  0  0  0  0  0  0  0  0  0  0  0
  -26.0715  -12.5735  145.2551 C   0  0  0  0  0  0  0  0  0  0  0  0
  -27.3377  -12.9360  145.7230 C   0  0  0  0  0  0  0  0  0  0  0  0
  -28.3028  -11.8834  146.0905 C   0  0  0  0  0  0  0  0  0  0  0  0
  -29.5725  -12.2409  146.7148 C   0  0  0  0  0  0  0  0  0  0  0  0
  -30.4025  -11.2313  147.2199 C   0  0  0  0  0  0  0  0  0  0  0  0
  -29.8401  -13.5643  147.0774 C   0  0  0  0  0  0  0  0  0  0  0  0
  -28.9284  -14.5794  146.8771 C   0  0  0  0  0  0  0  0  0  0  0  0
  -27.6792  -14.2608  146.1779 C   0  0  0  0  0  0  0  0  0  0  0  0
  -26.7198  -15.3184  145.9089 C   0  0  0  0  0  0  0  0  0  0  0  0
  -24.8251  -17.0976  147.0559 O   0  0  0  0  0  0  0  0  0  0  0  0
  -23.9155  -16.0044  143.8000 O   0  0  0  0  0  0  0  0  0  0  0  0
  -25.6521  -11.2257  145.0310 C   0  0  0  0  0  0  0  0  0  0  0  0
  -25.6236  -10.6202  144.1722 O   0  0  0  0  0  0  0  0  0  0  0  0
  -25.7636  -10.6175  146.4329 O   0  0  0  0  0  0  0  0  0  0  0  0
  1  2  1  0
  2  3  1  0
  3  4  1  0
  9 10  1  0
  2 15  2  0
  3 16  1  0
  6 17  1  0
 17 18  2  0
 17 19  1  0
  7  8  1  0
  8  9  2  0
  9 11  1  0
 11 12  2  0
 12 13  1  0
  4  5  2  0
  5  6  1  0
  6  7  2  0
  7 13  1  0
 13 14  2  0
 14  4  1  0
M  END

$$$$
No_649-/dssg/home/sw_qyf/PocketFlow/Model-Generation-Results/5HT2A_7WC7_rec_A_10.pdb/2024-01-01-03-54-21/
     RDKit          3D

 12 13  0  0  0  0  0  0  0  0999 V2000
  -24.1553  -17.8465  145.7021 C   0  0  0  0  0  0  0  0  0  0  0  0
  -24.2856  -16.6364  145.3494 C   0  0  0  0  0  0  0  0  0  0  0  0
  -25.0033  -15.6772  146.0737 C   0  0  0  0  0  0  0  0  0  0  0  0
  -25.1197  -14.2835  145.7299 C   0  0  0  0  0  0  0  0  0  0  0  0
  -25.8358  -13.3153  146.4318 C   0  0  0  0  0  0  0  0  0  0  0  0
  -24.7888  -18.3277  146.8665 C   0  0  0  0  0  0  0  0  0  0  0  0
  -25.5122  -17.4897  147.6544 C   0  0  0  0  0  0  0  0  0  0  0  0
  -25.6629  -16.1113  147.2980 C   0  0  0  0  0  0  0  0  0  0  0  0
  -25.7516  -11.9698  146.1143 C   0  0  0  0  0  0  0  0  0  0  0  0
  -24.9390  -11.5123  145.0695 C   0  0  0  0  0  0  0  0  0  0  0  0
  -24.2364  -13.7834  144.6404 C   0  0  0  0  0  0  0  0  0  0  0  0
  -24.0393  -12.7323  144.4874 N   0  0  0  0  0  0  0  0  0  0  0  0
  3  4  1  0
  1  2  2  0
  2  3  1  0
  3  8  2  0
  8  7  1  0
  7  6  2  0
  6  1  1  0
  4  5  2  0
  5  9  1  0
  9 10  2  0
 10 12  1  0
 12 11  2  0
 11  4  1  0
M  END

$$$$
No_650-/dssg/home/sw_qyf/PocketFlow/Model-Generation-Results/5HT2A_7WC7_rec_A_10.pdb/2024-01-01-03-54-21/
     RDKit          3D

 35 40  0  0  0  0  0  0  0  0999 V2000
  -23.8042  -18.1535  145.4053 O   0  0  0  0  0  0  0  0  0  0  0  0
  -23.9974  -18.3151  146.4113 C   0  0  0  0  0  0  0  0  0  0  0  0
  -23.4927  -17.5000  147.5242 C   0  0  0  0  0  0  0  0  0  0  0  0
  -24.3929  -16.8101  148.4296 C   0  0  0  0  0  0  0  0  0  0  0  0
  -25.4441  -16.2058  147.8124 C   0  0  0  0  0  0  0  0  0  0  0  0
  -25.3263  -15.0986  147.1205 C   0  0  0  0  0  0  0  0  0  0  0  0
  -26.3895  -14.3613  146.5450 C   0  0  0  0  0  0  0  0  0  0  0  0
  -26.2568  -13.2336  145.6962 C   0  0  0  0  0  0  0  0  0  0  0  0
  -27.2891  -12.5408  145.0904 C   0  0  0  0  0  0  0  0  0  0  0  0
  -28.4332  -12.3413  145.9323 C   0  0  0  0  0  0  0  0  0  0  0  0
  -28.8854  -13.4606  146.7444 C   0  0  0  0  0  0  0  0  0  0  0  0
  -27.7678  -14.3733  147.1212 C   0  0  0  0  0  0  0  0  0  0  0  0
  -29.4259  -11.2783  145.6786 C   0  0  0  0  0  0  0  0  0  0  0  0
  -29.3713  -10.4407  144.5678 C   0  0  0  0  0  0  0  0  0  0  0  0
  -28.3058  -10.4753  143.7384 C   0  0  0  0  0  0  0  0  0  0  0  0
  -27.2182  -11.4877  144.0559 C   0  0  0  0  0  0  0  0  0  0  0  0
  -30.4880   -9.5346  144.3428 C   0  0  0  0  0  0  0  0  0  0  0  0
  -30.4773   -8.5975  143.2533 C   0  0  0  0  0  0  0  0  0  0  0  0
  -29.4269   -8.5490  142.3800 C   0  0  0  0  0  0  0  0  0  0  0  0
  -28.3520   -9.5689  142.5434 C   0  0  0  0  0  0  0  0  0  0  0  0
  -29.4112   -7.7288  141.1949 C   0  0  0  0  0  0  0  0  0  0  0  0
  -28.7015   -8.1122  140.0502 C   0  0  0  0  0  0  0  0  0  0  0  0
  -29.2142   -7.9042  138.7312 C   0  0  0  0  0  0  0  0  0  0  0  0
  -28.5063   -8.5496  137.6891 C   0  0  0  0  0  0  0  0  0  0  0  0
  -30.1195  -14.1095  146.5663 C   0  0  0  0  0  0  0  0  0  0  0  0
  -27.7585   -9.6693  138.0708 C   0  0  0  0  0  0  0  0  0  0  0  0
  -27.3976  -10.0362  139.3601 C   0  0  0  0  0  0  0  0  0  0  0  0
  -27.9873   -9.2504  140.4357 C   0  0  0  0  0  0  0  0  0  0  0  0
  -27.6622   -9.9450  141.4710 C   0  0  0  0  0  0  0  0  0  0  0  0
  -26.5170  -11.1280  139.5129 C   0  0  0  0  0  0  0  0  0  0  0  0
  -27.1840  -12.2874  139.7244 O   0  0  0  0  0  0  0  0  0  0  0  0
  -24.8290  -12.9612  145.1905 C   0  0  0  0  0  0  0  0  0  0  0  0
  -24.2298  -13.9992  144.4851 C   0  0  0  0  0  0  0  0  0  0  0  0
  -23.9369  -15.2391  145.1963 C   0  0  0  0  0  0  0  0  0  0  0  0
  -24.7504  -15.3010  146.2353 C   0  0  0  0  0  0  0  0  0  0  0  0
  1  2  2  0
  2  3  1  0
  3  4  1  0
  4  5  1  0
  5  6  1  0
  6  7  1  0
 19 21  1  0
 21 22  1  0
 11 25  1  0
 20 29  1  0
 28 29  1  0
 27 30  1  0
 30 31  1  0
  8 32  1  0
 32 33  1  0
 33 34  2  0
  6 35  1  0
 34 35  1  0
 10 13  2  0
 13 14  1  0
 15 16  1  0
 16  9  2  0
 14 15  2  0
 15 20  1  0
 20 19  2  0
 19 18  1  0
 18 17  2  0
 17 14  1  0
 22 23  2  0
 23 24  1  0
 24 26  2  0
 26 27  1  0
 27 28  2  0
 28 22  1  0
  7  8  2  0
  8  9  1  0
  9 10  1  0
 10 11  1  0
 11 12  2  0
 12  7  1  0
M  END

$$$$
No_651-/dssg/home/sw_qyf/PocketFlow/Model-Generation-Results/5HT2A_7WC7_rec_A_10.pdb/2024-01-01-03-54-21/
     RDKit          3D

 30 32  0  0  0  0  0  0  0  0999 V2000
  -23.1746  -16.6014  144.8668 C   0  0  0  0  0  0  0  0  0  0  0  0
  -24.0189  -16.0564  145.8445 C   0  0  0  0  0  0  0  0  0  0  0  0
  -25.3176  -15.9168  145.6822 C   0  0  0  0  0  0  0  0  0  0  0  0
  -25.8933  -14.7450  145.0632 C   0  0  0  0  0  0  0  0  0  0  0  0
  -25.2602  -14.1168  144.0897 C   0  0  0  0  0  0  0  0  0  0  0  0
  -26.0640  -13.2036  143.2811 C   0  0  0  0  0  0  0  0  0  0  0  0
  -26.1808  -16.8953  146.3423 C   0  0  0  0  0  0  0  0  0  0  0  0
  -27.6334  -16.6868  146.2368 C   0  0  0  0  0  0  0  0  0  0  0  0
  -27.9824  -15.4299  146.5777 C   0  0  0  0  0  0  0  0  0  0  0  0
  -27.3227  -14.2511  146.2989 C   0  0  0  0  0  0  0  0  0  0  0  0
  -26.8355  -12.2548  144.0868 C   0  0  0  0  0  0  0  0  0  0  0  0
  -27.7076  -11.5255  143.2176 C   0  0  0  0  0  0  0  0  0  0  0  0
  -27.9685  -11.7150  141.9706 C   0  0  0  0  0  0  0  0  0  0  0  0
  -27.2622  -12.7641  141.2722 C   0  0  0  0  0  0  0  0  0  0  0  0
  -26.4023  -13.5492  142.0240 C   0  0  0  0  0  0  0  0  0  0  0  0
  -27.5354  -13.0305  139.6571 Cl  0  0  0  0  0  0  0  0  0  0  0  0
  -28.8556  -10.9116  141.1406 C   0  0  0  0  0  0  0  0  0  0  0  0
  -28.7331   -9.3520  141.3856 C   0  0  0  0  0  0  0  0  0  0  0  0
  -29.0611   -8.4978  140.3944 C   0  0  0  0  0  0  0  0  0  0  0  0
  -28.9749   -8.7458  139.0690 C   0  0  0  0  0  0  0  0  0  0  0  0
  -27.6061   -8.7617  138.5193 C   0  0  0  0  0  0  0  0  0  0  0  0
  -29.8368   -7.3211  140.8543 C   0  0  0  0  0  0  0  0  0  0  0  0
  -29.6029   -6.7556  142.1617 C   0  0  0  0  0  0  0  0  0  0  0  0
  -29.3445   -7.7296  143.1918 C   0  0  0  0  0  0  0  0  0  0  0  0
  -28.6759   -8.9733  142.8210 C   0  0  0  0  0  0  0  0  0  0  0  0
  -29.3852  -15.1476  147.1454 C   0  0  0  0  0  0  0  0  0  0  0  0
  -29.5777  -13.8004  147.6189 C   0  0  0  0  0  0  0  0  0  0  0  0
  -30.1958  -12.9804  146.9982 C   0  0  0  0  0  0  0  0  0  0  0  0
  -30.2484  -11.5136  147.4729 C   0  0  0  0  0  0  0  0  0  0  0  0
  -30.5105  -10.6834  146.6329 O   0  0  0  0  0  0  0  0  0  0  0  0
  1  2  1  0
  2  3  1  0
  5  6  1  0
 14 16  1  0
 13 17  1  0
 17 18  1  0
 19 20  1  0
 20 21  1  0
  9 26  1  0
 26 27  1  0
 27 28  1  0
 28 29  3  0
 29 30  1  0
  5  4  1  0
  3  4  2  0
  4 10  1  0
 10  9  2  0
  9  8  1  0
  8  7  2  0
  7  3  1  0
 18 19  2  0
 19 22  1  0
 22 23  2  0
 23 24  1  0
 24 25  2  0
 25 18  1  0
  6 11  2  0
 11 12  1  0
 12 13  2  0
 13 14  1  0
 14 15  2  0
 15  6  1  0
M  END

$$$$
No_652-/dssg/home/sw_qyf/PocketFlow/Model-Generation-Results/5HT2A_7WC7_rec_A_10.pdb/2024-01-01-03-54-21/
     RDKit          3D

 24 25  0  0  0  0  0  0  0  0999 V2000
  -23.1746  -16.6014  144.8668 C   0  0  0  0  0  0  0  0  0  0  0  0
  -23.8963  -15.5346  144.7885 C   0  0  0  0  0  0  0  0  0  0  0  0
  -24.5755  -15.0383  145.9043 C   0  0  0  0  0  0  0  0  0  0  0  0
  -25.3266  -13.7882  145.9354 C   0  0  0  0  0  0  0  0  0  0  0  0
  -23.3054  -17.4825  145.9483 C   0  0  0  0  0  0  0  0  0  0  0  0
  -23.9717  -17.0786  147.1155 C   0  0  0  0  0  0  0  0  0  0  0  0
  -24.6279  -15.8542  147.1153 C   0  0  0  0  0  0  0  0  0  0  0  0
  -26.2636  -13.4205  145.9056 C   0  0  0  0  0  0  0  0  0  0  0  0
  -26.9606  -12.3625  145.7182 C   0  0  0  0  0  0  0  0  0  0  0  0
  -26.0891  -11.1773  145.4258 C   0  0  0  0  0  0  0  0  0  0  0  0
  -24.6978  -11.4528  145.4668 C   0  0  0  0  0  0  0  0  0  0  0  0
  -24.2497  -12.7099  145.6429 C   0  0  0  0  0  0  0  0  0  0  0  0
  -28.4020  -11.9812  145.8585 C   0  0  0  0  0  0  0  0  0  0  0  0
  -29.2587  -12.1067  146.8547 Cl  0  0  0  0  0  0  0  0  0  0  0  0
  -28.9634  -11.3490  144.5766 C   0  0  0  0  0  0  0  0  0  0  0  0
  -28.3259  -11.3001  143.3998 C   0  0  0  0  0  0  0  0  0  0  0  0
  -28.9014  -10.6676  142.3060 C   0  0  0  0  0  0  0  0  0  0  0  0
  -28.2647  -10.5548  141.0415 C   0  0  0  0  0  0  0  0  0  0  0  0
  -27.5366  -11.6448  140.5164 C   0  0  0  0  0  0  0  0  0  0  0  0
  -26.9815  -11.5751  139.2597 C   0  0  0  0  0  0  0  0  0  0  0  0
  -26.4241  -12.7323  138.8389 N   0  0  0  0  0  0  0  0  0  0  0  0
  -28.3389   -9.3695  140.2830 C   0  0  0  0  0  0  0  0  0  0  0  0
  -29.0577   -8.2613  140.7609 C   0  0  0  0  0  0  0  0  0  0  0  0
  -29.3536   -7.1849  139.9145 C   0  0  0  0  0  0  0  0  0  0  0  0
  3  4  1  0
  9 13  1  0
 13 14  1  0
 13 15  1  0
 15 16  1  0
 16 17  2  3
 17 18  1  0
 18 19  2  3
 19 20  1  0
 20 21  1  0
 18 22  1  0
 22 23  2  3
 23 24  1  0
  4  8  2  0
  8  9  1  0
  9 10  2  0
 10 11  1  0
 11 12  2  0
 12  4  1  0
  1  2  2  0
  2  3  1  0
  3  7  2  0
  7  6  1  0
  6  5  2  0
  5  1  1  0
M  END

$$$$
No_653-/dssg/home/sw_qyf/PocketFlow/Model-Generation-Results/5HT2A_7WC7_rec_A_10.pdb/2024-01-01-03-54-21/
     RDKit          3D

  7  7  0  0  0  0  0  0  0  0999 V2000
  -23.1746  -16.6014  144.8668 C   0  0  0  0  0  0  0  0  0  0  0  0
  -24.0189  -16.0564  145.8445 C   0  0  0  0  0  0  0  0  0  0  0  0
  -24.4145  -16.8299  146.9062 C   0  0  0  0  0  0  0  0  0  0  0  0
  -25.2730  -16.2838  147.9150 C   0  0  0  0  0  0  0  0  0  0  0  0
  -25.7919  -14.9951  147.6737 C   0  0  0  0  0  0  0  0  0  0  0  0
  -24.6241  -14.7653  145.5280 C   0  0  0  0  0  0  0  0  0  0  0  0
  -25.4753  -14.2286  146.6274 C   0  0  0  0  0  0  0  0  0  0  0  0
  1  2  1  0
  2  3  2  0
  3  4  1  0
  4  5  2  0
  5  7  1  0
  7  6  2  0
  6  2  1  0
M  END

$$$$
No_654-/dssg/home/sw_qyf/PocketFlow/Model-Generation-Results/5HT2A_7WC7_rec_A_10.pdb/2024-01-01-03-54-21/
     RDKit          3D

 21 21  0  0  0  0  0  0  0  0999 V2000
  -23.1746  -16.6014  144.8668 C   0  0  0  0  0  0  0  0  0  0  0  0
  -23.7011  -17.0158  145.9774 C   0  0  0  0  0  0  0  0  0  0  0  0
  -24.2134  -16.0722  146.8877 C   0  0  0  0  0  0  0  0  0  0  0  0
  -24.7882  -16.3410  148.2078 C   0  0  0  0  0  0  0  0  0  0  0  0
  -23.7349  -15.3292  144.4136 C   0  0  0  0  0  0  0  0  0  0  0  0
  -24.3378  -14.3452  145.1945 C   0  0  0  0  0  0  0  0  0  0  0  0
  -24.6620  -14.7669  146.5317 C   0  0  0  0  0  0  0  0  0  0  0  0
  -24.0852  -17.2237  149.1116 C   0  0  0  0  0  0  0  0  0  0  0  0
  -24.5707  -17.4674  150.4238 C   0  0  0  0  0  0  0  0  0  0  0  0
  -24.6128  -12.9882  144.7520 C   0  0  0  0  0  0  0  0  0  0  0  0
  -24.9316  -12.0861  145.9087 C   0  0  0  0  0  0  0  0  0  0  0  0
  -26.2365  -11.3718  145.6371 C   0  0  0  0  0  0  0  0  0  0  0  0
  -26.9262  -11.7254  144.5308 C   0  0  0  0  0  0  0  0  0  0  0  0
  -28.3675  -11.8694  144.6983 C   0  0  0  0  0  0  0  0  0  0  0  0
  -28.7855  -12.2037  146.0533 C   0  0  0  0  0  0  0  0  0  0  0  0
  -29.6212  -13.1026  146.2688 C   0  0  0  0  0  0  0  0  0  0  0  0
  -30.1392  -13.1451  147.7554 C   0  0  0  0  0  0  0  0  0  0  0  0
  -30.3304  -14.1496  148.4318 O   0  0  0  0  0  0  0  0  0  0  0  0
  -23.3476  -18.3815  146.5600 C   0  0  0  0  0  0  0  0  0  0  0  0
  -30.4006  -11.9682  148.3496 O   0  0  0  0  0  0  0  0  0  0  0  0
  -23.3885  -18.7074  147.8357 O   0  0  0  0  0  0  0  0  0  0  0  0
  1  2  1  0
  2  3  1  0
  3  4  2  3
  1  5  1  0
  5  6  1  0
  3  7  1  0
  6  7  1  0
  4  8  1  0
  8  9  2  0
  6 10  1  0
 10 11  1  0
 11 12  1  0
 12 13  1  0
 13 14  1  0
 14 15  1  0
 15 16  1  0
 16 17  1  0
 17 18  1  0
  2 19  1  0
 17 20  2  0
 19 21  2  0
M  END

$$$$
No_655-/dssg/home/sw_qyf/PocketFlow/Model-Generation-Results/5HT2A_7WC7_rec_A_10.pdb/2024-01-01-03-54-21/
     RDKit          3D

 11 12  0  0  0  0  0  0  0  0999 V2000
  -24.1553  -17.8465  145.7021 C   0  0  0  0  0  0  0  0  0  0  0  0
  -24.2856  -16.6364  145.3494 C   0  0  0  0  0  0  0  0  0  0  0  0
  -24.7211  -15.5955  146.2115 C   0  0  0  0  0  0  0  0  0  0  0  0
  -25.1322  -16.0374  147.5372 C   0  0  0  0  0  0  0  0  0  0  0  0
  -24.5163  -18.2968  146.9928 C   0  0  0  0  0  0  0  0  0  0  0  0
  -24.9534  -17.3074  147.9886 C   0  0  0  0  0  0  0  0  0  0  0  0
  -24.8651  -14.1840  145.8143 C   0  0  0  0  0  0  0  0  0  0  0  0
  -24.0216  -13.6960  144.9078 C   0  0  0  0  0  0  0  0  0  0  0  0
  -23.6060  -12.2925  145.0920 C   0  0  0  0  0  0  0  0  0  0  0  0
  -24.4811  -11.4539  145.8638 C   0  0  0  0  0  0  0  0  0  0  0  0
  -24.7602  -13.0078  147.0115 C   0  0  0  0  0  0  0  0  0  0  0  0
  3  7  1  0
  7  8  1  0
  8  9  2  0
  9 10  1  0
  7 11  1  0
 10 11  1  0
  1  2  2  0
  2  3  1  0
  3  4  2  0
  4  6  1  0
  6  5  2  0
  5  1  1  0
M  END

$$$$
No_656-/dssg/home/sw_qyf/PocketFlow/Model-Generation-Results/5HT2A_7WC7_rec_A_10.pdb/2024-01-01-03-54-21/
     RDKit          3D

 19 21  0  0  0  0  0  0  0  0999 V2000
  -24.1553  -17.8465  145.7021 C   0  0  0  0  0  0  0  0  0  0  0  0
  -23.9795  -18.4462  146.7426 C   0  0  0  0  0  0  0  0  0  0  0  0
  -25.1196  -16.8106  145.6408 C   0  0  0  0  0  0  0  0  0  0  0  0
  -25.9237  -16.5070  146.7422 C   0  0  0  0  0  0  0  0  0  0  0  0
  -26.9588  -15.5563  146.6457 C   0  0  0  0  0  0  0  0  0  0  0  0
  -26.8789  -14.5817  146.1458 C   0  0  0  0  0  0  0  0  0  0  0  0
  -25.7928  -14.4111  145.0645 C   0  0  0  0  0  0  0  0  0  0  0  0
  -24.9038  -15.5147  144.9034 C   0  0  0  0  0  0  0  0  0  0  0  0
  -24.8290  -18.3248  147.9061 C   0  0  0  0  0  0  0  0  0  0  0  0
  -25.8462  -17.4229  147.8671 C   0  0  0  0  0  0  0  0  0  0  0  0
  -27.7910  -13.3503  146.1786 C   0  0  0  0  0  0  0  0  0  0  0  0
  -27.4726  -12.0118  145.7975 C   0  0  0  0  0  0  0  0  0  0  0  0
  -28.5232  -11.0716  145.7453 C   0  0  0  0  0  0  0  0  0  0  0  0
  -29.7804  -11.3323  146.3528 C   0  0  0  0  0  0  0  0  0  0  0  0
  -29.9359  -12.5352  146.9905 C   0  0  0  0  0  0  0  0  0  0  0  0
  -29.0275  -13.5546  146.9175 C   0  0  0  0  0  0  0  0  0  0  0  0
  -23.7384  -15.4300  143.6991 Cl  0  0  0  0  0  0  0  0  0  0  0  0
  -30.6774  -10.3743  146.4209 O   0  0  0  0  0  0  0  0  0  0  0  0
  -25.9767  -11.5860  145.1514 Cl  0  0  0  0  0  0  0  0  0  0  0  0
  6 11  1  0
  8 17  1  0
 14 18  1  0
 12 19  1  0
 11 12  2  0
 12 13  1  0
 13 14  2  0
 14 15  1  0
 15 16  2  0
 16 11  1  0
  4  5  2  0
  5  6  1  0
  6  7  2  0
  7  8  1  0
  8  3  2  0
  1  2  2  0
  2  9  1  0
  9 10  2  0
 10  4  1  0
  4  3  1  0
  3  1  1  0
M  END

$$$$
No_657-/dssg/home/sw_qyf/PocketFlow/Model-Generation-Results/5HT2A_7WC7_rec_A_10.pdb/2024-01-01-03-54-21/
     RDKit          3D

 10 10  0  0  0  0  0  0  0  0999 V2000
  -24.1553  -17.8465  145.7021 C   0  0  0  0  0  0  0  0  0  0  0  0
  -24.6364  -17.2931  146.7091 C   0  0  0  0  0  0  0  0  0  0  0  0
  -24.0780  -17.2921  147.9389 C   0  0  0  0  0  0  0  0  0  0  0  0
  -24.3226  -16.7243  148.9587 C   0  0  0  0  0  0  0  0  0  0  0  0
  -25.7690  -16.1910  149.0219 C   0  0  0  0  0  0  0  0  0  0  0  0
  -26.5042  -16.3022  147.8715 C   0  0  0  0  0  0  0  0  0  0  0  0
  -25.9312  -16.8728  146.7789 C   0  0  0  0  0  0  0  0  0  0  0  0
  -24.7913  -17.4507  144.7140 F   0  0  0  0  0  0  0  0  0  0  0  0
  -22.8537  -17.2827  145.4040 F   0  0  0  0  0  0  0  0  0  0  0  0
  -23.9462  -19.1544  145.6652 F   0  0  0  0  0  0  0  0  0  0  0  0
  1  2  1  0
  1  8  1  0
  1  9  1  0
  1 10  1  0
  2  3  2  0
  3  4  1  0
  4  5  2  0
  5  6  1  0
  6  7  2  0
  7  2  1  0
M  END

$$$$
No_658-/dssg/home/sw_qyf/PocketFlow/Model-Generation-Results/5HT2A_7WC7_rec_A_10.pdb/2024-01-01-03-54-21/
     RDKit          3D

 21 22  0  0  0  0  0  0  0  0999 V2000
  -23.1746  -16.6014  144.8668 C   0  0  0  0  0  0  0  0  0  0  0  0
  -24.0189  -16.0564  145.8445 C   0  0  0  0  0  0  0  0  0  0  0  0
  -24.4145  -16.8299  146.9062 C   0  0  0  0  0  0  0  0  0  0  0  0
  -25.2730  -16.2838  147.9150 C   0  0  0  0  0  0  0  0  0  0  0  0
  -25.7919  -14.9951  147.6737 C   0  0  0  0  0  0  0  0  0  0  0  0
  -24.6241  -14.7653  145.5280 C   0  0  0  0  0  0  0  0  0  0  0  0
  -24.2564  -13.9145  144.5287 C   0  0  0  0  0  0  0  0  0  0  0  0
  -25.4803  -14.2001  146.6501 C   0  0  0  0  0  0  0  0  0  0  0  0
  -23.7024  -12.8211  144.8329 O   0  0  0  0  0  0  0  0  0  0  0  0
  -23.9088  -18.1796  147.0906 C   0  0  0  0  0  0  0  0  0  0  0  0
  -23.5094  -18.9759  146.2027 O   0  0  0  0  0  0  0  0  0  0  0  0
  -25.9778  -12.8298  146.5349 C   0  0  0  0  0  0  0  0  0  0  0  0
  -27.2248  -12.6209  146.9795 Cl  0  0  0  0  0  0  0  0  0  0  0  0
  -25.4707  -12.0590  145.3763 C   0  0  0  0  0  0  0  0  0  0  0  0
  -26.3219  -10.9748  145.4186 O   0  0  0  0  0  0  0  0  0  0  0  0
  -22.7590  -12.5059  145.4688 C   0  0  0  0  0  0  0  0  0  0  0  0
  -25.2449  -11.8725  144.3970 C   0  0  0  0  0  0  0  0  0  0  0  0
  -25.0952  -10.1245  144.5696 C   0  0  0  0  0  0  0  0  0  0  0  0
  -25.7016  -12.2462  143.3856 O   0  0  0  0  0  0  0  0  0  0  0  0
  -23.6636  -18.5334  148.3427 O   0  0  0  0  0  0  0  0  0  0  0  0
  -21.8014  -11.7614  144.5669 C   0  0  0  0  0  0  0  0  0  0  0  0
  1  2  1  0
  6  7  1  0
  7  9  1  0
  3 10  1  0
 10 11  2  0
  8 12  1  0
 12 13  1  0
 12 14  1  0
 14 15  1  0
  9 16  1  0
 14 17  1  0
 15 18  1  0
 17 18  1  0
 17 19  2  0
 10 20  1  0
 16 21  1  0
  2  3  2  0
  3  4  1  0
  4  5  2  0
  5  8  1  0
  8  6  2  0
  6  2  1  0
M  END

$$$$
No_659-/dssg/home/sw_qyf/PocketFlow/Model-Generation-Results/5HT2A_7WC7_rec_A_10.pdb/2024-01-01-03-54-21/
     RDKit          3D

 24 27  0  0  0  0  0  0  0  0999 V2000
  -24.1553  -17.8465  145.7021 C   0  0  0  0  0  0  0  0  0  0  0  0
  -23.9795  -18.4462  146.7426 C   0  0  0  0  0  0  0  0  0  0  0  0
  -24.2723  -16.4220  145.8037 C   0  0  0  0  0  0  0  0  0  0  0  0
  -24.9934  -15.8374  146.8363 C   0  0  0  0  0  0  0  0  0  0  0  0
  -25.2878  -14.4778  146.8072 C   0  0  0  0  0  0  0  0  0  0  0  0
  -24.4015  -18.0073  148.0208 C   0  0  0  0  0  0  0  0  0  0  0  0
  -24.7473  -16.6561  148.1531 C   0  0  0  0  0  0  0  0  0  0  0  0
  -25.6702  -13.8996  145.7296 C   0  0  0  0  0  0  0  0  0  0  0  0
  -24.6305  -13.5917  144.8257 C   0  0  0  0  0  0  0  0  0  0  0  0
  -23.9177  -14.6654  144.1118 C   0  0  0  0  0  0  0  0  0  0  0  0
  -24.0007  -15.6543  144.6136 C   0  0  0  0  0  0  0  0  0  0  0  0
  -26.4484  -12.5315  146.0074 C   0  0  0  0  0  0  0  0  0  0  0  0
  -27.1241  -11.8616  145.0156 C   0  0  0  0  0  0  0  0  0  0  0  0
  -28.2128  -12.4198  144.5359 C   0  0  0  0  0  0  0  0  0  0  0  0
  -29.0386  -11.3772  144.1943 C   0  0  0  0  0  0  0  0  0  0  0  0
  -28.5536  -10.1729  143.6295 C   0  0  0  0  0  0  0  0  0  0  0  0
  -27.2810   -9.7994  144.0407 C   0  0  0  0  0  0  0  0  0  0  0  0
  -26.5696  -10.5707  144.7745 C   0  0  0  0  0  0  0  0  0  0  0  0
  -29.4567   -9.1970  142.9863 C   0  0  0  0  0  0  0  0  0  0  0  0
  -30.0049   -9.3884  142.0667 C   0  0  0  0  0  0  0  0  0  0  0  0
  -30.7363   -8.3107  141.4164 C   0  0  0  0  0  0  0  0  0  0  0  0
  -30.7346   -7.0503  142.0599 C   0  0  0  0  0  0  0  0  0  0  0  0
  -30.0419   -6.8846  143.2168 C   0  0  0  0  0  0  0  0  0  0  0  0
  -29.3485   -7.8898  143.6618 C   0  0  0  0  0  0  0  0  0  0  0  0
  1  2  1  0
  1  3  1  0
  3  4  1  0
  4  5  2  0
  2  6  1  0
  4  7  1  0
  6  7  1  0
  5  8  1  0
  8  9  2  0
  9 10  1  0
  3 11  1  0
 10 11  2  0
  8 12  1  0
 12 13  1  0
 16 19  1  0
 13 14  2  0
 14 15  1  0
 15 16  2  0
 16 17  1  0
 17 18  2  0
 18 13  1  0
 19 20  2  0
 20 21  1  0
 21 22  2  0
 22 23  1  0
 23 24  2  0
 24 19  1  0
M  END

$$$$
No_660-/dssg/home/sw_qyf/PocketFlow/Model-Generation-Results/5HT2A_7WC7_rec_A_10.pdb/2024-01-01-03-54-21/
     RDKit          3D

 23 25  0  0  0  0  0  0  0  0999 V2000
  -24.1553  -17.8465  145.7021 C   0  0  0  0  0  0  0  0  0  0  0  0
  -23.9795  -18.4462  146.7426 C   0  0  0  0  0  0  0  0  0  0  0  0
  -24.3577  -16.4380  145.7329 C   0  0  0  0  0  0  0  0  0  0  0  0
  -24.6120  -15.7738  146.9649 C   0  0  0  0  0  0  0  0  0  0  0  0
  -24.4666  -16.5590  148.1483 C   0  0  0  0  0  0  0  0  0  0  0  0
  -24.1608  -17.8621  148.1048 C   0  0  0  0  0  0  0  0  0  0  0  0
  -24.4723  -15.5994  144.5525 C   0  0  0  0  0  0  0  0  0  0  0  0
  -23.7346  -14.3314  144.5525 C   0  0  0  0  0  0  0  0  0  0  0  0
  -24.4532  -13.1874  145.1102 C   0  0  0  0  0  0  0  0  0  0  0  0
  -25.7496  -13.0273  145.2173 C   0  0  0  0  0  0  0  0  0  0  0  0
  -26.3172  -11.8400  145.6397 C   0  0  0  0  0  0  0  0  0  0  0  0
  -27.6775  -11.5907  145.8041 C   0  0  0  0  0  0  0  0  0  0  0  0
  -28.6198  -12.3164  146.7078 C   0  0  0  0  0  0  0  0  0  0  0  0
  -29.9732  -11.8948  146.6977 C   0  0  0  0  0  0  0  0  0  0  0  0
  -30.2987  -10.8858  145.8893 N   0  0  0  0  0  0  0  0  0  0  0  0
  -29.4905  -10.2401  145.0307 C   0  0  0  0  0  0  0  0  0  0  0  0
  -28.1525  -10.6554  145.0188 N   0  0  0  0  0  0  0  0  0  0  0  0
  -29.9494   -9.3297  144.3144 F   0  0  0  0  0  0  0  0  0  0  0  0
  -23.5708  -11.9598  145.4627 C   0  0  0  0  0  0  0  0  0  0  0  0
  -25.4328  -10.7494  146.0574 C   0  0  0  0  0  0  0  0  0  0  0  0
  -22.2031  -12.1291  145.3313 N   0  0  0  0  0  0  0  0  0  0  0  0
  -24.2758  -10.8805  145.9048 C   0  0  0  0  0  0  0  0  0  0  0  0
  -30.7848  -12.4253  147.5124 F   0  0  0  0  0  0  0  0  0  0  0  0
  3  7  1  0
  7  8  1  0
 11 12  1  0
 16 18  1  0
 19 21  1  0
 14 23  1  0
  8  9  1  0
 12 13  2  0
 13 14  1  0
 14 15  2  0
 15 16  1  0
 16 17  2  0
 17 12  1  0
  1  2  2  0
  2  6  1  0
  6  5  2  0
  5  4  1  0
  4  3  2  0
  3  1  1  0
  9 10  2  0
 10 11  1  0
 11 20  2  0
 20 22  1  0
 22 19  2  0
 19  9  1  0
M  END

$$$$
No_661-/dssg/home/sw_qyf/PocketFlow/Model-Generation-Results/5HT2A_7WC7_rec_A_10.pdb/2024-01-01-03-54-21/
     RDKit          3D

 30 32  0  0  0  0  0  0  0  0999 V2000
  -23.1746  -16.6014  144.8668 C   0  0  0  0  0  0  0  0  0  0  0  0
  -23.7011  -17.0158  145.9774 C   0  0  0  0  0  0  0  0  0  0  0  0
  -23.7336  -18.2775  146.3737 C   0  0  0  0  0  0  0  0  0  0  0  0
  -23.8112  -15.3695  144.2738 C   0  0  0  0  0  0  0  0  0  0  0  0
  -24.2192  -14.3645  145.3045 C   0  0  0  0  0  0  0  0  0  0  0  0
  -24.1794  -12.9654  144.9287 C   0  0  0  0  0  0  0  0  0  0  0  0
  -25.2861  -12.2326  144.9904 C   0  0  0  0  0  0  0  0  0  0  0  0
  -25.9935  -12.3221  146.2443 C   0  0  0  0  0  0  0  0  0  0  0  0
  -26.3179  -13.6972  146.5536 C   0  0  0  0  0  0  0  0  0  0  0  0
  -25.1909  -14.6719  146.3669 C   0  0  0  0  0  0  0  0  0  0  0  0
  -24.0507  -18.6075  147.5895 O   0  0  0  0  0  0  0  0  0  0  0  0
  -25.3611  -16.1981  146.5768 C   0  0  0  0  0  0  0  0  0  0  0  0
  -27.2859  -11.5465  146.1748 O   0  0  0  0  0  0  0  0  0  0  0  0
  -23.3977  -19.1908  145.6484 O   0  0  0  0  0  0  0  0  0  0  0  0
  -28.0948  -11.5321  145.4543 C   0  0  0  0  0  0  0  0  0  0  0  0
  -28.0705  -10.7190  144.2856 C   0  0  0  0  0  0  0  0  0  0  0  0
  -29.0669  -10.0047  143.8521 C   0  0  0  0  0  0  0  0  0  0  0  0
  -29.0853   -9.2184  142.6428 C   0  0  0  0  0  0  0  0  0  0  0  0
  -29.8501   -8.0763  142.4661 C   0  0  0  0  0  0  0  0  0  0  0  0
  -29.7739   -7.2822  141.3129 C   0  0  0  0  0  0  0  0  0  0  0  0
  -29.1784   -7.7465  140.1584 C   0  0  0  0  0  0  0  0  0  0  0  0
  -28.5273   -8.9979  140.2348 C   0  0  0  0  0  0  0  0  0  0  0  0
  -28.4602   -9.7809  141.4535 C   0  0  0  0  0  0  0  0  0  0  0  0
  -27.8000   -9.5979  139.0771 C   0  0  0  0  0  0  0  0  0  0  0  0
  -27.7231   -8.8859  138.2178 F   0  0  0  0  0  0  0  0  0  0  0  0
  -28.3577  -10.8343  138.8268 F   0  0  0  0  0  0  0  0  0  0  0  0
  -29.4235   -9.0354  144.9077 O   0  0  0  0  0  0  0  0  0  0  0  0
  -26.4916  -10.0003  139.5368 F   0  0  0  0  0  0  0  0  0  0  0  0
  -29.2217  -12.1550  145.6847 O   0  0  0  0  0  0  0  0  0  0  0  0
  -23.0556  -12.4624  145.7487 O   0  0  0  0  0  0  0  0  0  0  0  0
  1  2  1  0
  2  3  1  0
  1  4  1  0
  4  5  1  0
  5  6  1  0
  6  7  1  0
  7  8  1  0
  8  9  1  0
  5 10  1  0
  9 10  1  0
  3 11  1  0
  2 12  1  0
 10 12  1  0
  8 13  1  0
  3 14  2  0
 13 15  1  0
 15 16  1  0
 16 17  2  3
 17 18  1  0
 22 24  1  0
 24 25  1  0
 24 26  1  0
 17 27  1  0
 24 28  1  0
 15 29  2  0
  6 30  1  0
 18 19  2  0
 19 20  1  0
 20 21  2  0
 21 22  1  0
 22 23  2  0
 23 18  1  0
M  END

$$$$
No_662-/dssg/home/sw_qyf/PocketFlow/Model-Generation-Results/5HT2A_7WC7_rec_A_10.pdb/2024-01-01-03-54-21/
     RDKit          3D

 29 31  0  0  0  0  0  0  0  0999 V2000
  -24.1553  -17.8465  145.7021 C   0  0  0  0  0  0  0  0  0  0  0  0
  -23.9795  -18.4462  146.7426 C   0  0  0  0  0  0  0  0  0  0  0  0
  -25.1593  -16.8262  145.6925 C   0  0  0  0  0  0  0  0  0  0  0  0
  -24.9465  -15.5960  144.9952 C   0  0  0  0  0  0  0  0  0  0  0  0
  -23.7067  -15.3931  144.3087 C   0  0  0  0  0  0  0  0  0  0  0  0
  -23.5046  -14.0224  143.7992 C   0  0  0  0  0  0  0  0  0  0  0  0
  -24.5791  -13.2612  144.1504 N   0  0  0  0  0  0  0  0  0  0  0  0
  -25.4777  -14.0904  144.8854 C   0  0  0  0  0  0  0  0  0  0  0  0
  -23.3540  -17.7471  147.8507 C   0  0  0  0  0  0  0  0  0  0  0  0
  -24.2335  -16.8040  148.5974 C   0  0  0  0  0  0  0  0  0  0  0  0
  -24.6604  -17.1630  149.8894 C   0  0  0  0  0  0  0  0  0  0  0  0
  -25.8832  -13.6001  146.2911 C   0  0  0  0  0  0  0  0  0  0  0  0
  -27.2189  -13.4872  146.6821 C   0  0  0  0  0  0  0  0  0  0  0  0
  -28.0292  -12.8612  145.9454 C   0  0  0  0  0  0  0  0  0  0  0  0
  -27.8249  -11.7429  145.0335 C   0  0  0  0  0  0  0  0  0  0  0  0
  -28.8829  -10.9589  144.5074 C   0  0  0  0  0  0  0  0  0  0  0  0
  -28.7288  -10.1654  143.4172 C   0  0  0  0  0  0  0  0  0  0  0  0
  -29.7260   -9.2739  143.0278 C   0  0  0  0  0  0  0  0  0  0  0  0
  -29.8106   -8.7411  141.7898 C   0  0  0  0  0  0  0  0  0  0  0  0
  -30.7137   -7.6888  141.4762 C   0  0  0  0  0  0  0  0  0  0  0  0
  -28.8995   -9.1388  140.7393 C   0  0  0  0  0  0  0  0  0  0  0  0
  -28.7452   -8.5813  139.5322 C   0  0  0  0  0  0  0  0  0  0  0  0
  -27.9018   -9.0149  138.5627 C   0  0  0  0  0  0  0  0  0  0  0  0
  -27.2120  -10.2304  138.9751 C   0  0  0  0  0  0  0  0  0  0  0  0
  -27.3729  -10.8903  140.1867 C   0  0  0  0  0  0  0  0  0  0  0  0
  -28.2139  -10.3238  141.0980 C   0  0  0  0  0  0  0  0  0  0  0  0
  -28.0129  -10.8534  142.3047 C   0  0  0  0  0  0  0  0  0  0  0  0
  -29.9189  -10.7858  145.3875 O   0  0  0  0  0  0  0  0  0  0  0  0
  -23.6974  -17.2884  150.8982 C   0  0  0  0  0  0  0  0  0  0  0  0
  1  2  1  0
  1  3  1  0
  3  4  2  3
  4  5  1  0
  5  6  1  0
  6  7  1  0
  4  8  1  0
  7  8  1  0
  2  9  1  0
  9 10  1  0
 10 11  2  3
  8 12  1  0
 12 13  1  0
 13 14  2  3
 14 15  1  0
 15 16  2  3
 16 17  1  0
 17 18  1  0
 18 19  1  0
 19 20  2  0
 19 21  1  0
 17 27  1  0
 26 27  1  0
 16 28  1  0
 11 29  1  0
 21 22  2  0
 22 23  1  0
 23 24  2  0
 24 25  1  0
 25 26  2  0
 26 21  1  0
M  END

$$$$
No_663-/dssg/home/sw_qyf/PocketFlow/Model-Generation-Results/5HT2A_7WC7_rec_A_10.pdb/2024-01-01-03-54-21/
     RDKit          3D

 15 17  0  0  0  0  0  0  0  0999 V2000
  -23.1746  -16.6014  144.8668 C   0  0  0  0  0  0  0  0  0  0  0  0
  -23.7011  -17.0158  145.9774 C   0  0  0  0  0  0  0  0  0  0  0  0
  -23.7336  -18.2775  146.3737 C   0  0  0  0  0  0  0  0  0  0  0  0
  -24.1960  -18.6445  147.6858 C   0  0  0  0  0  0  0  0  0  0  0  0
  -24.7100  -17.6145  148.5486 C   0  0  0  0  0  0  0  0  0  0  0  0
  -24.7929  -16.2635  148.0870 C   0  0  0  0  0  0  0  0  0  0  0  0
  -24.2508  -15.9434  146.8891 C   0  0  0  0  0  0  0  0  0  0  0  0
  -23.2387  -15.3708  144.4144 O   0  0  0  0  0  0  0  0  0  0  0  0
  -24.1583  -14.6263  145.0214 C   0  0  0  0  0  0  0  0  0  0  0  0
  -24.4075  -14.6351  146.4295 C   0  0  0  0  0  0  0  0  0  0  0  0
  -23.7336  -13.0555  144.6416 C   0  0  0  0  0  0  0  0  0  0  0  0
  -23.6997  -12.2312  145.7896 N   0  0  0  0  0  0  0  0  0  0  0  0
  -23.2639  -19.2611  145.6907 O   0  0  0  0  0  0  0  0  0  0  0  0
  -24.2467  -12.5460  147.0084 C   0  0  0  0  0  0  0  0  0  0  0  0
  -24.5091  -13.6781  147.3356 C   0  0  0  0  0  0  0  0  0  0  0  0
  1  2  1  0
  1  8  1  0
  8  9  1  0
  7 10  1  0
  3 13  1  0
  2  3  2  0
  3  4  1  0
  4  5  2  0
  5  6  1  0
  6  7  2  0
  7  2  1  0
  9 10  2  0
 10 15  1  0
 15 14  2  0
 14 12  1  0
 12 11  2  0
 11  9  1  0
M  END

$$$$
No_664-/dssg/home/sw_qyf/PocketFlow/Model-Generation-Results/5HT2A_7WC7_rec_A_10.pdb/2024-01-01-03-54-21/
     RDKit          3D

 34 37  0  0  0  0  0  0  0  0999 V2000
  -24.1553  -17.8465  145.7021 C   0  0  0  0  0  0  0  0  0  0  0  0
  -24.2855  -16.6364  145.3494 C   0  0  0  0  0  0  0  0  0  0  0  0
  -24.7211  -15.5955  146.2116 C   0  0  0  0  0  0  0  0  0  0  0  0
  -24.8538  -14.2010  145.8739 C   0  0  0  0  0  0  0  0  0  0  0  0
  -24.1440  -13.8321  144.7074 C   0  0  0  0  0  0  0  0  0  0  0  0
  -24.0661  -12.5356  144.4304 N   0  0  0  0  0  0  0  0  0  0  0  0
  -24.6157  -18.2704  146.9610 C   0  0  0  0  0  0  0  0  0  0  0  0
  -25.1305  -17.4023  147.9249 C   0  0  0  0  0  0  0  0  0  0  0  0
  -25.2112  -15.9965  147.5628 C   0  0  0  0  0  0  0  0  0  0  0  0
  -26.2247  -13.5646  145.9577 C   0  0  0  0  0  0  0  0  0  0  0  0
  -26.2074  -12.1421  146.0162 C   0  0  0  0  0  0  0  0  0  0  0  0
  -25.2963  -11.6703  144.7676 C   0  0  0  0  0  0  0  0  0  0  0  0
  -27.4549  -11.4943  145.9146 O   0  0  0  0  0  0  0  0  0  0  0  0
  -28.3397  -11.9272  145.0982 C   0  0  0  0  0  0  0  0  0  0  0  0
  -29.4421  -10.8472  144.9506 C   0  0  0  0  0  0  0  0  0  0  0  0
  -29.6250  -10.1382  143.7590 C   0  0  0  0  0  0  0  0  0  0  0  0
  -30.6370   -9.1356  143.6958 C   0  0  0  0  0  0  0  0  0  0  0  0
  -30.8409   -8.5600  142.3346 C   0  0  0  0  0  0  0  0  0  0  0  0
  -29.5150   -7.9622  141.8237 C   0  0  0  0  0  0  0  0  0  0  0  0
  -29.5137   -6.7178  141.2265 C   0  0  0  0  0  0  0  0  0  0  0  0
  -29.5311   -6.7004  139.7933 C   0  0  0  0  0  0  0  0  0  0  0  0
  -23.5204  -14.4852  143.9454 O   0  0  0  0  0  0  0  0  0  0  0  0
  -29.6698   -8.0333  139.2820 C   0  0  0  0  0  0  0  0  0  0  0  0
  -28.3331   -8.6158  139.0904 C   0  0  0  0  0  0  0  0  0  0  0  0
  -27.7216   -8.5510  137.9200 C   0  0  0  0  0  0  0  0  0  0  0  0
  -27.9013   -9.5847  140.0897 C   0  0  0  0  0  0  0  0  0  0  0  0
  -28.0803  -10.8349  140.0382 C   0  0  0  0  0  0  0  0  0  0  0  0
  -27.6340  -11.7777  141.0148 C   0  0  0  0  0  0  0  0  0  0  0  0
  -27.3828  -13.1133  140.7406 C   0  0  0  0  0  0  0  0  0  0  0  0
  -26.8967  -13.9138  141.9660 C   0  0  0  0  0  0  0  0  0  0  0  0
  -27.1318  -13.3042  143.3002 C   0  0  0  0  0  0  0  0  0  0  0  0
  -27.6566  -11.8265  142.8782 C   0  0  0  0  0  0  0  0  0  0  0  0
  -28.2393  -12.8043  144.3869 O   0  0  0  0  0  0  0  0  0  0  0  0
  -30.6628  -11.5570  145.4591 O   0  0  0  0  0  0  0  0  0  0  0  0
  3  4  1  0
  4  5  1  0
  5  6  1  0
  4 10  1  0
 10 11  1  0
  6 12  1  0
 11 12  1  0
 11 13  1  0
 13 14  1  0
 14 15  1  0
 15 16  1  0
 16 17  1  0
 17 18  1  0
 18 19  1  0
 19 20  1  0
 20 21  1  0
  5 22  2  0
 21 23  1  0
 23 24  1  0
 24 25  2  0
 24 26  1  0
 26 27  2  3
 27 28  1  0
 28 29  1  0
 29 30  1  0
 30 31  2  0
 28 32  1  0
 31 32  1  0
 14 33  1  0
 31 33  1  0
 15 34  1  0
  1  2  2  0
  2  3  1  0
  3  9  2  0
  9  8  1  0
  8  7  2  0
  7  1  1  0
M  END

$$$$
No_665-/dssg/home/sw_qyf/PocketFlow/Model-Generation-Results/5HT2A_7WC7_rec_A_10.pdb/2024-01-01-03-54-21/
     RDKit          3D

 27 30  0  0  0  0  0  0  0  0999 V2000
  -24.1553  -17.8465  145.7021 C   0  0  0  0  0  0  0  0  0  0  0  0
  -24.2856  -16.6364  145.3494 C   0  0  0  0  0  0  0  0  0  0  0  0
  -23.7824  -15.9602  144.3553 C   0  0  0  0  0  0  0  0  0  0  0  0
  -24.0538  -14.4894  144.2905 C   0  0  0  0  0  0  0  0  0  0  0  0
  -25.2651  -14.0120  144.8647 C   0  0  0  0  0  0  0  0  0  0  0  0
  -25.9384  -14.8464  145.8241 C   0  0  0  0  0  0  0  0  0  0  0  0
  -25.5690  -16.1917  145.9202 C   0  0  0  0  0  0  0  0  0  0  0  0
  -23.8599  -18.2252  146.9229 C   0  0  0  0  0  0  0  0  0  0  0  0
  -24.5917  -17.6261  147.9663 C   0  0  0  0  0  0  0  0  0  0  0  0
  -24.3630  -17.8274  149.4040 C   0  0  0  0  0  0  0  0  0  0  0  0
  -25.3519  -16.3362  147.5851 C   0  0  0  0  0  0  0  0  0  0  0  0
  -27.4918  -14.6719  145.5992 C   0  0  0  0  0  0  0  0  0  0  0  0
  -27.9818  -13.3070  145.7214 C   0  0  0  0  0  0  0  0  0  0  0  0
  -27.6236  -12.2884  144.8954 C   0  0  0  0  0  0  0  0  0  0  0  0
  -28.1193  -10.9865  145.1467 C   0  0  0  0  0  0  0  0  0  0  0  0
  -27.8179   -9.9012  144.2361 C   0  0  0  0  0  0  0  0  0  0  0  0
  -28.7087   -8.8432  144.2094 C   0  0  0  0  0  0  0  0  0  0  0  0
  -28.4816   -7.8743  143.1469 C   0  0  0  0  0  0  0  0  0  0  0  0
  -29.0232  -13.0117  146.7187 C   0  0  0  0  0  0  0  0  0  0  0  0
  -29.6007  -11.7546  146.8970 C   0  0  0  0  0  0  0  0  0  0  0  0
  -29.1969  -10.7306  146.0244 C   0  0  0  0  0  0  0  0  0  0  0  0
  -22.9037  -17.1319  150.1495 Cl  0  0  0  0  0  0  0  0  0  0  0  0
  -23.1367  -13.6282  143.8704 O   0  0  0  0  0  0  0  0  0  0  0  0
  -29.4957   -7.3592  142.3574 C   0  0  0  0  0  0  0  0  0  0  0  0
  -30.7389   -7.8770  142.3930 C   0  0  0  0  0  0  0  0  0  0  0  0
  -31.0860   -8.8269  143.4353 C   0  0  0  0  0  0  0  0  0  0  0  0
  -30.0356   -9.4713  144.1841 C   0  0  0  0  0  0  0  0  0  0  0  0
  9 10  1  0
  6 12  1  0
 12 13  1  0
 15 16  1  0
 10 22  1  0
  4 23  1  0
 16 17  1  0
  2  3  1  0
  3  4  2  0
  4  5  1  0
  5  6  2  0
  6  7  1  0
  1  2  2  0
  2  7  1  0
  7 11  2  0
 11  9  1  0
  9  8  2  0
  8  1  1  0
 17 18  2  0
 18 24  1  0
 24 25  2  0
 25 26  1  0
 26 27  2  0
 27 17  1  0
 13 14  2  0
 14 15  1  0
 15 21  2  0
 21 20  1  0
 20 19  2  0
 19 13  1  0
M  END

$$$$
No_666-/dssg/home/sw_qyf/PocketFlow/Model-Generation-Results/5HT2A_7WC7_rec_A_10.pdb/2024-01-01-03-54-21/
     RDKit          3D

 27 29  0  0  0  0  0  0  0  0999 V2000
  -23.1746  -16.6014  144.8668 C   0  0  0  0  0  0  0  0  0  0  0  0
  -23.7011  -17.0158  145.9774 C   0  0  0  0  0  0  0  0  0  0  0  0
  -24.7096  -16.6222  146.3577 C   0  0  0  0  0  0  0  0  0  0  0  0
  -25.2851  -16.9369  147.7686 C   0  0  0  0  0  0  0  0  0  0  0  0
  -24.3692  -17.4278  148.6468 C   0  0  0  0  0  0  0  0  0  0  0  0
  -23.7741  -15.5056  144.2314 C   0  0  0  0  0  0  0  0  0  0  0  0
  -24.8845  -14.8641  144.7792 C   0  0  0  0  0  0  0  0  0  0  0  0
  -25.3697  -15.4007  145.9549 C   0  0  0  0  0  0  0  0  0  0  0  0
  -24.7806  -17.5553  150.0665 C   0  0  0  0  0  0  0  0  0  0  0  0
  -25.5309  -13.7292  144.1007 C   0  0  0  0  0  0  0  0  0  0  0  0
  -26.2036  -12.7954  145.0107 C   0  0  0  0  0  0  0  0  0  0  0  0
  -27.5578  -12.4865  144.6622 C   0  0  0  0  0  0  0  0  0  0  0  0
  -27.8618  -11.0575  144.7556 C   0  0  0  0  0  0  0  0  0  0  0  0
  -29.1846  -10.5758  144.4184 C   0  0  0  0  0  0  0  0  0  0  0  0
  -29.3969   -9.8865  143.2894 C   0  0  0  0  0  0  0  0  0  0  0  0
  -29.7139   -9.0159  142.7471 C   0  0  0  0  0  0  0  0  0  0  0  0
  -29.6477   -8.5021  141.3588 C   0  0  0  0  0  0  0  0  0  0  0  0
  -30.3256   -7.3825  140.7882 C   0  0  0  0  0  0  0  0  0  0  0  0
  -28.6862   -9.2624  140.5479 C   0  0  0  0  0  0  0  0  0  0  0  0
  -28.4180   -9.0236  139.2715 C   0  0  0  0  0  0  0  0  0  0  0  0
  -28.3824  -10.5159  142.1712 C   0  0  0  0  0  0  0  0  0  0  0  0
  -28.0831  -10.2397  141.0022 C   0  0  0  0  0  0  0  0  0  0  0  0
  -28.9504   -7.8307  138.5889 C   0  0  0  0  0  0  0  0  0  0  0  0
  -28.6108   -7.6334  137.3343 N   0  0  0  0  0  0  0  0  0  0  0  0
  -29.9760   -7.0534  139.3259 C   0  0  0  0  0  0  0  0  0  0  0  0
  -30.1051  -10.5559  145.3781 O   0  0  0  0  0  0  0  0  0  0  0  0
  -26.3348  -17.8472  147.6639 F   0  0  0  0  0  0  0  0  0  0  0  0
  3  4  1  0
  4  5  2  3
  5  9  1  0
  7 10  1  0
 10 11  1  0
 11 12  1  0
 12 13  1  0
 13 14  1  0
 14 15  2  3
 15 16  1  0
 16 17  1  0
 15 21  1  0
 19 22  1  0
 21 22  1  0
 23 24  1  0
 14 26  1  0
  4 27  1  0
 17 18  2  0
 18 25  1  0
 25 23  2  0
 23 20  1  0
 20 19  2  0
 19 17  1  0
  1  2  2  0
  2  3  1  0
  3  8  2  0
  8  7  1  0
  7  6  2  0
  6  1  1  0
M  END

$$$$
No_667-/dssg/home/sw_qyf/PocketFlow/Model-Generation-Results/5HT2A_7WC7_rec_A_10.pdb/2024-01-01-03-54-21/
     RDKit          3D

 30 32  0  0  0  0  0  0  0  0999 V2000
  -23.1746  -16.6014  144.8668 C   0  0  0  0  0  0  0  0  0  0  0  0
  -24.0189  -16.0564  145.8445 C   0  0  0  0  0  0  0  0  0  0  0  0
  -24.4145  -16.8299  146.9062 C   0  0  0  0  0  0  0  0  0  0  0  0
  -23.8925  -17.9780  147.0944 C   0  0  0  0  0  0  0  0  0  0  0  0
  -23.0516  -18.5662  146.1819 C   0  0  0  0  0  0  0  0  0  0  0  0
  -22.8569  -15.7742  143.8604 N   0  0  0  0  0  0  0  0  0  0  0  0
  -22.7202  -17.8296  145.1565 N   0  0  0  0  0  0  0  0  0  0  0  0
  -24.5609  -14.6709  145.5991 C   0  0  0  0  0  0  0  0  0  0  0  0
  -24.1481  -13.9127  144.6067 C   0  0  0  0  0  0  0  0  0  0  0  0
  -23.2132  -14.5313  143.7326 C   0  0  0  0  0  0  0  0  0  0  0  0
  -25.5303  -14.1032  146.6757 C   0  0  0  0  0  0  0  0  0  0  0  0
  -26.6613  -13.4494  146.1500 C   0  0  0  0  0  0  0  0  0  0  0  0
  -26.5548  -12.1703  145.7337 C   0  0  0  0  0  0  0  0  0  0  0  0
  -27.7387  -11.4331  145.2568 C   0  0  0  0  0  0  0  0  0  0  0  0
  -27.6877  -10.6580  144.1390 C   0  0  0  0  0  0  0  0  0  0  0  0
  -28.8402  -10.2041  143.4633 C   0  0  0  0  0  0  0  0  0  0  0  0
  -29.0543   -9.0950  142.9832 C   0  0  0  0  0  0  0  0  0  0  0  0
  -29.6098   -8.0676  143.0257 C   0  0  0  0  0  0  0  0  0  0  0  0
  -29.5790   -6.8918  142.0910 C   0  0  0  0  0  0  0  0  0  0  0  0
  -29.4397   -5.5884  142.4862 C   0  0  0  0  0  0  0  0  0  0  0  0
  -29.5447   -7.1919  140.7117 C   0  0  0  0  0  0  0  0  0  0  0  0
  -29.4013   -5.2593  143.7890 N   0  0  0  0  0  0  0  0  0  0  0  0
  -28.5970   -6.6617  140.0177 N   0  0  0  0  0  0  0  0  0  0  0  0
  -30.5507   -7.7611  140.1670 O   0  0  0  0  0  0  0  0  0  0  0  0
  -27.8949  -14.0745  146.2083 C   0  0  0  0  0  0  0  0  0  0  0  0
  -29.0606  -13.2933  146.5957 C   0  0  0  0  0  0  0  0  0  0  0  0
  -28.9931  -11.9898  145.7315 C   0  0  0  0  0  0  0  0  0  0  0  0
  -30.2353  -13.6367  147.1848 C   0  0  0  0  0  0  0  0  0  0  0  0
  -30.0342  -13.8322  148.5248 O   0  0  0  0  0  0  0  0  0  0  0  0
  -26.5218  -10.0635  143.8892 O   0  0  0  0  0  0  0  0  0  0  0  0
  8 11  1  0
 11 12  1  0
 14 15  1  0
 15 16  1  0
 16 17  1  0
 17 18  2  3
 18 19  1  0
 19 20  2  3
 19 21  1  0
 20 22  1  0
 21 23  1  0
 21 24  2  0
 26 28  1  0
 28 29  1  0
 15 30  2  0
  2  3  2  0
  3  4  1  0
  4  5  2  0
  5  7  1  0
  7  1  2  0
 12 13  2  0
 13 14  1  0
 14 27  2  0
 27 26  1  0
 26 25  2  0
 25 12  1  0
  1  2  1  0
  2  8  1  0
  8  9  2  0
  9 10  1  0
 10  6  2  0
  6  1  1  0
M  END

$$$$
No_668-/dssg/home/sw_qyf/PocketFlow/Model-Generation-Results/5HT2A_7WC7_rec_A_10.pdb/2024-01-01-03-54-21/
     RDKit          3D

 35 38  0  0  0  0  0  0  0  0999 V2000
  -23.1746  -16.6014  144.8668 C   0  0  0  0  0  0  0  0  0  0  0  0
  -24.0189  -16.0564  145.8445 C   0  0  0  0  0  0  0  0  0  0  0  0
  -24.4850  -14.7380  145.6359 C   0  0  0  0  0  0  0  0  0  0  0  0
  -24.0208  -14.0081  144.6269 C   0  0  0  0  0  0  0  0  0  0  0  0
  -23.3686  -12.7461  145.1561 C   0  0  0  0  0  0  0  0  0  0  0  0
  -24.3490  -16.8813  146.9924 C   0  0  0  0  0  0  0  0  0  0  0  0
  -23.4627  -17.6777  147.5515 C   0  0  0  0  0  0  0  0  0  0  0  0
  -24.0363  -12.0468  146.1662 C   0  0  0  0  0  0  0  0  0  0  0  0
  -24.8527  -12.8643  147.1525 C   0  0  0  0  0  0  0  0  0  0  0  0
  -25.0525  -14.1839  146.8415 C   0  0  0  0  0  0  0  0  0  0  0  0
  -22.5959  -18.3202  146.6035 C   0  0  0  0  0  0  0  0  0  0  0  0
  -22.3334  -17.7930  145.4422 N   0  0  0  0  0  0  0  0  0  0  0  0
  -24.3160  -14.1200  143.4772 O   0  0  0  0  0  0  0  0  0  0  0  0
  -22.3603  -12.1772  144.5381 O   0  0  0  0  0  0  0  0  0  0  0  0
  -25.7537  -17.5969  146.7310 C   0  0  0  0  0  0  0  0  0  0  0  0
  -26.9251  -16.8296  147.1794 C   0  0  0  0  0  0  0  0  0  0  0  0
  -27.1598  -16.6740  148.4196 C   0  0  0  0  0  0  0  0  0  0  0  0
  -28.4547  -16.0354  148.8714 C   0  0  0  0  0  0  0  0  0  0  0  0
  -29.2825  -15.4309  147.8766 C   0  0  0  0  0  0  0  0  0  0  0  0
  -30.3818  -14.5601  148.1734 C   0  0  0  0  0  0  0  0  0  0  0  0
  -30.4013  -13.8978  149.4507 C   0  0  0  0  0  0  0  0  0  0  0  0
  -27.8835  -16.4412  146.1641 C   0  0  0  0  0  0  0  0  0  0  0  0
  -29.0034  -15.6278  146.5368 C   0  0  0  0  0  0  0  0  0  0  0  0
  -31.4054  -12.9654  149.7772 C   0  0  0  0  0  0  0  0  0  0  0  0
  -32.1739  -12.4092  148.7526 C   0  0  0  0  0  0  0  0  0  0  0  0
  -33.2399  -11.6013  149.2440 C   0  0  0  0  0  0  0  0  0  0  0  0
  -33.2388  -11.0731  150.5879 C   0  0  0  0  0  0  0  0  0  0  0  0
  -32.3346  -11.6496  151.5377 C   0  0  0  0  0  0  0  0  0  0  0  0
  -31.5038  -12.6231  151.2013 C   0  0  0  0  0  0  0  0  0  0  0  0
  -25.7914  -18.6821  146.2259 O   0  0  0  0  0  0  0  0  0  0  0  0
  -32.5257  -11.2511  152.8636 O   0  0  0  0  0  0  0  0  0  0  0  0
  -33.3654  -11.9141  153.7868 C   0  0  0  0  0  0  0  0  0  0  0  0
  -33.2360  -11.2075  155.0789 C   0  0  0  0  0  0  0  0  0  0  0  0
  -32.3925  -10.2830  155.1116 O   0  0  0  0  0  0  0  0  0  0  0  0
  -32.2973   -9.5318  156.4061 C   0  0  0  0  0  0  0  0  0  0  0  0
  2  3  1  0
  3  4  1  0
  4  5  1  0
  5  8  1  0
  3 10  1  0
  9 10  1  0
  4 13  2  0
  5 14  1  0
  6 15  1  0
 15 16  1  0
 19 20  1  0
 20 21  2  3
 21 24  1  0
 15 30  2  0
 28 31  1  0
 31 32  1  0
 32 33  1  0
 33 34  1  0
 34 35  1  0
  9  8  1  0
 24 25  2  0
 25 26  1  0
 26 27  2  0
 27 28  1  0
 28 29  2  0
 29 24  1  0
 16 17  2  0
 17 18  1  0
 18 19  2  0
 19 23  1  0
 23 22  2  0
 22 16  1  0
  1  2  2  0
  2  6  1  0
  6  7  2  0
  7 11  1  0
 11 12  2  0
 12  1  1  0
M  END

$$$$
No_669-/dssg/home/sw_qyf/PocketFlow/Model-Generation-Results/5HT2A_7WC7_rec_A_10.pdb/2024-01-01-03-54-21/
     RDKit          3D

 24 27  0  0  0  0  0  0  0  0999 V2000
  -24.1553  -17.8465  145.7021 C   0  0  0  0  0  0  0  0  0  0  0  0
  -23.9795  -18.4462  146.7426 C   0  0  0  0  0  0  0  0  0  0  0  0
  -24.3577  -16.4380  145.7329 C   0  0  0  0  0  0  0  0  0  0  0  0
  -24.6120  -15.7738  146.9649 C   0  0  0  0  0  0  0  0  0  0  0  0
  -24.9231  -14.3801  146.9818 C   0  0  0  0  0  0  0  0  0  0  0  0
  -24.7000  -13.5386  145.9026 C   0  0  0  0  0  0  0  0  0  0  0  0
  -24.3040  -14.2591  144.6919 C   0  0  0  0  0  0  0  0  0  0  0  0
  -24.0686  -15.5858  144.7159 C   0  0  0  0  0  0  0  0  0  0  0  0
  -24.2699  -17.9243  148.0903 C   0  0  0  0  0  0  0  0  0  0  0  0
  -24.4993  -16.5231  148.2386 C   0  0  0  0  0  0  0  0  0  0  0  0
  -24.9336  -12.1325  145.9407 C   0  0  0  0  0  0  0  0  0  0  0  0
  -26.1891  -11.6133  145.3594 C   0  0  0  0  0  0  0  0  0  0  0  0
  -27.3512  -11.9303  145.9964 C   0  0  0  0  0  0  0  0  0  0  0  0
  -28.5756  -11.4060  145.4893 C   0  0  0  0  0  0  0  0  0  0  0  0
  -28.6015  -10.4963  144.4074 C   0  0  0  0  0  0  0  0  0  0  0  0
  -27.2914  -10.1607  143.8911 C   0  0  0  0  0  0  0  0  0  0  0  0
  -26.1196  -10.6429  144.4110 C   0  0  0  0  0  0  0  0  0  0  0  0
  -29.7809   -9.8888  143.8779 C   0  0  0  0  0  0  0  0  0  0  0  0
  -30.3790   -8.8950  144.6003 C   0  0  0  0  0  0  0  0  0  0  0  0
  -30.1618  -10.2653  142.6003 C   0  0  0  0  0  0  0  0  0  0  0  0
  -31.3830   -9.7210  142.0963 C   0  0  0  0  0  0  0  0  0  0  0  0
  -31.5378   -8.2214  144.0731 C   0  0  0  0  0  0  0  0  0  0  0  0
  -31.9592   -8.6488  142.8050 C   0  0  0  0  0  0  0  0  0  0  0  0
  -30.0292  -11.9041  146.2331 Cl  0  0  0  0  0  0  0  0  0  0  0  0
  6 11  1  0
 11 12  1  0
 15 18  1  0
 14 24  1  0
 12 13  2  0
 13 14  1  0
 14 15  2  0
 15 16  1  0
 16 17  2  0
 17 12  1  0
 18 19  2  0
 19 22  1  0
 22 23  2  0
 23 21  1  0
 21 20  2  0
 20 18  1  0
  4  5  2  0
  5  6  1  0
  6  7  2  0
  7  8  1  0
  8  3  2  0
  1  2  2  0
  2  9  1  0
  9 10  2  0
 10  4  1  0
  4  3  1  0
  3  1  1  0
M  END

$$$$
No_670-/dssg/home/sw_qyf/PocketFlow/Model-Generation-Results/5HT2A_7WC7_rec_A_10.pdb/2024-01-01-03-54-21/
     RDKit          3D

 26 26  0  0  0  0  0  0  0  0999 V2000
  -23.1746  -16.6014  144.8668 C   0  0  0  0  0  0  0  0  0  0  0  0
  -23.8963  -15.5346  144.7885 C   0  0  0  0  0  0  0  0  0  0  0  0
  -23.6398  -14.5115  145.3281 C   0  0  0  0  0  0  0  0  0  0  0  0
  -24.3866  -13.2477  145.3906 C   0  0  0  0  0  0  0  0  0  0  0  0
  -25.6595  -13.1543  144.8974 C   0  0  0  0  0  0  0  0  0  0  0  0
  -26.4904  -12.0231  145.0331 C   0  0  0  0  0  0  0  0  0  0  0  0
  -25.7919  -10.8526  145.3115 C   0  0  0  0  0  0  0  0  0  0  0  0
  -24.4511  -10.9294  145.6333 C   0  0  0  0  0  0  0  0  0  0  0  0
  -23.7336  -12.0675  145.5805 C   0  0  0  0  0  0  0  0  0  0  0  0
  -23.3541  -17.7093  145.7198 C   0  0  0  0  0  0  0  0  0  0  0  0
  -22.7001  -17.5312  146.7401 F   0  0  0  0  0  0  0  0  0  0  0  0
  -24.7222  -17.7617  146.0733 F   0  0  0  0  0  0  0  0  0  0  0  0
  -27.9302  -12.0124  144.7457 C   0  0  0  0  0  0  0  0  0  0  0  0
  -28.8054  -11.0547  145.4855 C   0  0  0  0  0  0  0  0  0  0  0  0
  -29.5723  -10.1769  144.7314 C   0  0  0  0  0  0  0  0  0  0  0  0
  -29.2512   -9.6175  143.5606 C   0  0  0  0  0  0  0  0  0  0  0  0
  -30.0997   -8.7019  142.9478 C   0  0  0  0  0  0  0  0  0  0  0  0
  -31.4087   -8.4857  143.5018 C   0  0  0  0  0  0  0  0  0  0  0  0
  -29.7719   -7.8786  141.7899 C   0  0  0  0  0  0  0  0  0  0  0  0
  -29.9810   -8.4230  140.5164 C   0  0  0  0  0  0  0  0  0  0  0  0
  -29.2285   -7.7613  139.4282 C   0  0  0  0  0  0  0  0  0  0  0  0
  -28.4422   -8.5646  138.5934 C   0  0  0  0  0  0  0  0  0  0  0  0
  -27.9879   -7.9730  137.6045 F   0  0  0  0  0  0  0  0  0  0  0  0
  -28.0842   -9.6873  138.8787 F   0  0  0  0  0  0  0  0  0  0  0  0
  -32.2256   -7.7993  143.0172 O   0  0  0  0  0  0  0  0  0  0  0  0
  -31.5579   -8.8125  144.7747 O   0  0  0  0  0  0  0  0  0  0  0  0
  1  2  1  0
  2  3  2  3
  3  4  1  0
  1 10  1  0
 10 11  1  0
 10 12  1  0
  6 13  1  0
 13 14  1  0
 14 15  1  0
 15 16  1  0
 16 17  2  3
 17 18  1  0
 17 19  1  0
 19 20  1  0
 20 21  1  0
 21 22  1  0
 22 23  1  0
 22 24  1  0
 18 25  1  0
 18 26  2  0
  4  5  2  0
  5  6  1  0
  6  7  2  0
  7  8  1  0
  8  9  2  0
  9  4  1  0
M  END

$$$$
No_671-/dssg/home/sw_qyf/PocketFlow/Model-Generation-Results/5HT2A_7WC7_rec_A_10.pdb/2024-01-01-03-54-21/
     RDKit          3D

 10 10  0  0  0  0  0  0  0  0999 V2000
  -24.1553  -17.8465  145.7021 C   0  0  0  0  0  0  0  0  0  0  0  0
  -24.2856  -16.6364  145.3494 C   0  0  0  0  0  0  0  0  0  0  0  0
  -25.0033  -15.6772  146.0737 C   0  0  0  0  0  0  0  0  0  0  0  0
  -25.1197  -14.2835  145.7299 C   0  0  0  0  0  0  0  0  0  0  0  0
  -24.2707  -13.8793  144.6500 C   0  0  0  0  0  0  0  0  0  0  0  0
  -24.8686  -18.3355  146.8179 C   0  0  0  0  0  0  0  0  0  0  0  0
  -25.6154  -17.5363  147.5807 C   0  0  0  0  0  0  0  0  0  0  0  0
  -25.7525  -16.1597  147.2668 C   0  0  0  0  0  0  0  0  0  0  0  0
  -23.5198  -14.7862  144.0324 F   0  0  0  0  0  0  0  0  0  0  0  0
  -25.0988  -13.2765  143.6854 F   0  0  0  0  0  0  0  0  0  0  0  0
  3  4  1  0
  4  5  2  3
  5  9  1  0
  5 10  1  0
  1  2  2  0
  2  3  1  0
  3  8  2  0
  8  7  1  0
  7  6  2  0
  6  1  1  0
M  END

$$$$
No_672-/dssg/home/sw_qyf/PocketFlow/Model-Generation-Results/5HT2A_7WC7_rec_A_10.pdb/2024-01-01-03-54-21/
     RDKit          3D

 27 30  0  0  0  0  0  0  0  0999 V2000
  -23.1746  -16.6014  144.8668 C   0  0  0  0  0  0  0  0  0  0  0  0
  -23.8963  -15.5346  144.7885 C   0  0  0  0  0  0  0  0  0  0  0  0
  -25.0304  -15.2549  144.5358 C   0  0  0  0  0  0  0  0  0  0  0  0
  -25.6045  -13.9524  144.2294 C   0  0  0  0  0  0  0  0  0  0  0  0
  -24.8624  -12.8904  144.6738 C   0  0  0  0  0  0  0  0  0  0  0  0
  -23.5278  -13.1645  145.1476 C   0  0  0  0  0  0  0  0  0  0  0  0
  -23.0570  -14.3847  145.1774 N   0  0  0  0  0  0  0  0  0  0  0  0
  -22.7388  -12.1864  145.5080 F   0  0  0  0  0  0  0  0  0  0  0  0
  -23.6763  -17.7081  145.8630 C   0  0  0  0  0  0  0  0  0  0  0  0
  -23.6633  -17.2335  147.1299 C   0  0  0  0  0  0  0  0  0  0  0  0
  -24.9252  -17.4103  147.9549 C   0  0  0  0  0  0  0  0  0  0  0  0
  -24.8207  -17.0185  149.3483 C   0  0  0  0  0  0  0  0  0  0  0  0
  -26.0415  -16.8757  150.0709 C   0  0  0  0  0  0  0  0  0  0  0  0
  -27.2638  -17.0803  149.4062 C   0  0  0  0  0  0  0  0  0  0  0  0
  -27.2745  -17.0018  147.9519 C   0  0  0  0  0  0  0  0  0  0  0  0
  -28.4827  -17.0054  147.2645 C   0  0  0  0  0  0  0  0  0  0  0  0
  -26.0996  -17.2745  147.2752 C   0  0  0  0  0  0  0  0  0  0  0  0
  -27.0075  -13.6983  143.8829 C   0  0  0  0  0  0  0  0  0  0  0  0
  -27.0552  -13.1456  142.5443 C   0  0  0  0  0  0  0  0  0  0  0  0
  -27.0058  -14.0512  141.4259 C   0  0  0  0  0  0  0  0  0  0  0  0
  -26.9440  -13.0799  140.3007 C   0  0  0  0  0  0  0  0  0  0  0  0
  -26.2535  -13.2568  139.1447 C   0  0  0  0  0  0  0  0  0  0  0  0
  -25.7893  -12.0245  138.6091 C   0  0  0  0  0  0  0  0  0  0  0  0
  -26.5879  -10.8556  138.8944 C   0  0  0  0  0  0  0  0  0  0  0  0
  -27.4492  -10.8167  140.0529 C   0  0  0  0  0  0  0  0  0  0  0  0
  -27.5818  -11.8947  140.7995 C   0  0  0  0  0  0  0  0  0  0  0  0
  -27.4963  -11.9161  142.2690 N   0  0  0  0  0  0  0  0  0  0  0  0
  1  2  1  0
  6  8  1  0
  1  9  1  0
  9 10  1  0
 15 16  1  0
  4 18  1  0
 18 19  1  0
 19 20  1  0
 19 27  1  0
 26 27  1  0
 10 11  1  0
 20 21  1  0
  2  3  2  0
  3  4  1  0
  4  5  2  0
  5  6  1  0
  6  7  2  0
  7  2  1  0
 11 12  2  0
 12 13  1  0
 13 14  2  0
 14 15  1  0
 15 17  2  0
 17 11  1  0
 21 22  2  0
 22 23  1  0
 23 24  2  0
 24 25  1  0
 25 26  2  0
 26 21  1  0
M  END

$$$$
No_673-/dssg/home/sw_qyf/PocketFlow/Model-Generation-Results/5HT2A_7WC7_rec_A_10.pdb/2024-01-01-03-54-21/
     RDKit          3D

 15 17  0  0  0  0  0  0  0  0999 V2000
  -24.1553  -17.8465  145.7021 C   0  0  0  0  0  0  0  0  0  0  0  0
  -23.9795  -18.4462  146.7426 C   0  0  0  0  0  0  0  0  0  0  0  0
  -25.1196  -16.8106  145.6408 C   0  0  0  0  0  0  0  0  0  0  0  0
  -25.2440  -15.8776  144.5240 C   0  0  0  0  0  0  0  0  0  0  0  0
  -25.1544  -14.5048  144.8371 C   0  0  0  0  0  0  0  0  0  0  0  0
  -24.3153  -13.6969  144.0900 C   0  0  0  0  0  0  0  0  0  0  0  0
  -23.7170  -12.5643  145.0074 C   0  0  0  0  0  0  0  0  0  0  0  0
  -22.5246  -12.1226  144.8489 N   0  0  0  0  0  0  0  0  0  0  0  0
  -24.5566  -18.0795  148.0049 C   0  0  0  0  0  0  0  0  0  0  0  0
  -25.4609  -17.0135  148.0816 C   0  0  0  0  0  0  0  0  0  0  0  0
  -25.6132  -16.2301  146.8944 C   0  0  0  0  0  0  0  0  0  0  0  0
  -26.2303  -14.9570  146.9284 C   0  0  0  0  0  0  0  0  0  0  0  0
  -25.7740  -13.9996  146.0893 C   0  0  0  0  0  0  0  0  0  0  0  0
  -24.5363  -11.9536  146.0236 C   0  0  0  0  0  0  0  0  0  0  0  0
  -25.6998  -12.5850  146.3031 C   0  0  0  0  0  0  0  0  0  0  0  0
  5  6  1  0
  6  7  1  0
  7  8  1  0
  7 14  1  0
 13 15  1  0
 14 15  1  0
  3  4  2  0
  4  5  1  0
  5 13  2  0
 13 12  1  0
 12 11  2  0
  1  2  2  0
  2  9  1  0
  9 10  2  0
 10 11  1  0
 11  3  1  0
  3  1  1  0
M  END

$$$$
No_674-/dssg/home/sw_qyf/PocketFlow/Model-Generation-Results/5HT2A_7WC7_rec_A_10.pdb/2024-01-01-03-54-21/
     RDKit          3D

 28 30  0  0  0  0  0  0  0  0999 V2000
  -23.1746  -16.6014  144.8668 C   0  0  0  0  0  0  0  0  0  0  0  0
  -23.7011  -17.0158  145.9774 C   0  0  0  0  0  0  0  0  0  0  0  0
  -24.2134  -16.0722  146.8877 C   0  0  0  0  0  0  0  0  0  0  0  0
  -23.3742  -15.2706  144.3922 C   0  0  0  0  0  0  0  0  0  0  0  0
  -24.0445  -14.2973  145.2608 C   0  0  0  0  0  0  0  0  0  0  0  0
  -24.4773  -14.7066  146.5258 C   0  0  0  0  0  0  0  0  0  0  0  0
  -24.1815  -12.8836  144.8776 C   0  0  0  0  0  0  0  0  0  0  0  0
  -24.6825  -12.0934  145.6952 C   0  0  0  0  0  0  0  0  0  0  0  0
  -26.1680  -11.8568  145.5592 C   0  0  0  0  0  0  0  0  0  0  0  0
  -26.6920  -10.8412  144.7938 C   0  0  0  0  0  0  0  0  0  0  0  0
  -27.7360  -11.0268  143.9590 C   0  0  0  0  0  0  0  0  0  0  0  0
  -27.6512  -11.4692  142.7306 C   0  0  0  0  0  0  0  0  0  0  0  0
  -28.3983  -11.0042  141.6668 C   0  0  0  0  0  0  0  0  0  0  0  0
  -29.4855  -10.1381  141.9344 C   0  0  0  0  0  0  0  0  0  0  0  0
  -30.2257   -9.4746  140.9550 C   0  0  0  0  0  0  0  0  0  0  0  0
  -28.9996  -10.2689  144.2764 C   0  0  0  0  0  0  0  0  0  0  0  0
  -29.7562   -9.7105  143.2579 C   0  0  0  0  0  0  0  0  0  0  0  0
  -30.0143   -7.9117  141.0262 C   0  0  0  0  0  0  0  0  0  0  0  0
  -29.4505   -7.2594  139.8773 C   0  0  0  0  0  0  0  0  0  0  0  0
  -23.5701  -18.3242  146.4338 N   0  0  0  0  0  0  0  0  0  0  0  0
  -29.1493   -8.0644  138.7778 C   0  0  0  0  0  0  0  0  0  0  0  0
  -27.7719   -8.0309  138.3158 C   0  0  0  0  0  0  0  0  0  0  0  0
  -26.9675  -12.5531  146.2790 O   0  0  0  0  0  0  0  0  0  0  0  0
  -30.5964   -8.7264  143.4983 N   0  0  0  0  0  0  0  0  0  0  0  0
  -30.7291   -7.6599  142.4881 C   0  0  0  0  0  0  0  0  0  0  0  0
  -28.1852  -11.5273  140.3366 C   0  0  0  0  0  0  0  0  0  0  0  0
  -28.0341  -12.8742  140.0953 C   0  0  0  0  0  0  0  0  0  0  0  0
  -27.6310  -13.0631  138.7974 N   0  0  0  0  0  0  0  0  0  0  0  0
  5  7  1  0
  7  8  1  0
  8  9  1  0
  9 10  1  0
 10 11  1  0
 18 19  1  0
  2 20  1  0
 19 21  1  0
 21 22  2  0
  9 23  2  0
 13 26  1  0
 26 27  2  3
 27 28  1  0
 14 15  1  0
 15 18  2  0
 18 25  1  0
 25 24  2  0
 24 17  1  0
  1  2  2  0
  2  3  1  0
  3  6  2  0
  6  5  1  0
  5  4  2  0
  4  1  1  0
 11 12  2  0
 12 13  1  0
 13 14  2  0
 14 17  1  0
 17 16  2  0
 16 11  1  0
M  END

$$$$
No_675-/dssg/home/sw_qyf/PocketFlow/Model-Generation-Results/5HT2A_7WC7_rec_A_10.pdb/2024-01-01-03-54-21/
     RDKit          3D

 12 13  0  0  0  0  0  0  0  0999 V2000
  -24.1553  -17.8465  145.7021 C   0  0  0  0  0  0  0  0  0  0  0  0
  -24.6364  -17.2931  146.7091 C   0  0  0  0  0  0  0  0  0  0  0  0
  -24.0780  -17.2921  147.9389 C   0  0  0  0  0  0  0  0  0  0  0  0
  -22.7158  -17.6979  148.0096 C   0  0  0  0  0  0  0  0  0  0  0  0
  -22.1536  -18.1706  146.8775 N   0  0  0  0  0  0  0  0  0  0  0  0
  -22.7983  -18.2156  145.7533 C   0  0  0  0  0  0  0  0  0  0  0  0
  -26.1010  -16.8164  146.6897 C   0  0  0  0  0  0  0  0  0  0  0  0
  -27.0880  -17.3598  147.3912 N   0  0  0  0  0  0  0  0  0  0  0  0
  -28.1784  -16.5033  147.6555 C   0  0  0  0  0  0  0  0  0  0  0  0
  -28.3352  -15.3616  146.9378 C   0  0  0  0  0  0  0  0  0  0  0  0
  -27.3523  -14.7964  146.2189 C   0  0  0  0  0  0  0  0  0  0  0  0
  -26.1582  -15.5270  146.0837 C   0  0  0  0  0  0  0  0  0  0  0  0
  2  7  1  0
  1  2  2  0
  2  3  1  0
  3  4  2  0
  4  5  1  0
  5  6  2  0
  6  1  1  0
  7  8  2  0
  8  9  1  0
  9 10  2  0
 10 11  1  0
 11 12  2  0
 12  7  1  0
M  END

$$$$
No_676-/dssg/home/sw_qyf/PocketFlow/Model-Generation-Results/5HT2A_7WC7_rec_A_10.pdb/2024-01-01-03-54-21/
     RDKit          3D

 35 38  0  0  0  0  0  0  0  0999 V2000
  -23.1746  -16.6014  144.8668 C   0  0  0  0  0  0  0  0  0  0  0  0
  -24.0189  -16.0564  145.8445 C   0  0  0  0  0  0  0  0  0  0  0  0
  -24.4850  -14.7380  145.6359 C   0  0  0  0  0  0  0  0  0  0  0  0
  -25.2717  -14.0560  146.5949 C   0  0  0  0  0  0  0  0  0  0  0  0
  -26.3551  -13.4282  146.0390 C   0  0  0  0  0  0  0  0  0  0  0  0
  -26.1863  -12.4524  145.0885 C   0  0  0  0  0  0  0  0  0  0  0  0
  -25.3196  -13.0078  144.0377 C   0  0  0  0  0  0  0  0  0  0  0  0
  -24.1861  -13.7638  144.5668 C   0  0  0  0  0  0  0  0  0  0  0  0
  -27.4526  -11.7548  144.6041 C   0  0  0  0  0  0  0  0  0  0  0  0
  -27.3688  -10.4741  144.0982 C   0  0  0  0  0  0  0  0  0  0  0  0
  -28.6001   -9.8242  143.6613 C   0  0  0  0  0  0  0  0  0  0  0  0
  -25.0283  -17.0143  146.3337 C   0  0  0  0  0  0  0  0  0  0  0  0
  -28.8411   -9.7420  142.3230 C   0  0  0  0  0  0  0  0  0  0  0  0
  -29.9545   -8.9008  141.9064 C   0  0  0  0  0  0  0  0  0  0  0  0
  -30.9834   -8.5794  142.8711 C   0  0  0  0  0  0  0  0  0  0  0  0
  -30.7313   -8.8589  144.2341 C   0  0  0  0  0  0  0  0  0  0  0  0
  -29.5701   -9.5521  144.6691 C   0  0  0  0  0  0  0  0  0  0  0  0
  -24.7154  -17.4251  147.7030 C   0  0  0  0  0  0  0  0  0  0  0  0
  -25.4402  -16.8516  148.8239 C   0  0  0  0  0  0  0  0  0  0  0  0
  -25.1047  -17.1663  150.1881 C   0  0  0  0  0  0  0  0  0  0  0  0
  -28.0060  -10.1592  141.3109 C   0  0  0  0  0  0  0  0  0  0  0  0
  -27.8758   -9.5483  140.1086 C   0  0  0  0  0  0  0  0  0  0  0  0
  -27.1449  -10.2077  139.0244 C   0  0  0  0  0  0  0  0  0  0  0  0
  -26.6094  -11.4764  139.3477 C   0  0  0  0  0  0  0  0  0  0  0  0
  -27.0151  -12.2343  140.5005 C   0  0  0  0  0  0  0  0  0  0  0  0
  -27.7590  -11.5420  141.5374 C   0  0  0  0  0  0  0  0  0  0  0  0
  -26.6498  -13.4625  140.6806 F   0  0  0  0  0  0  0  0  0  0  0  0
  -23.6442  -17.1000  150.5269 C   0  0  0  0  0  0  0  0  0  0  0  0
  -22.7426  -16.5977  149.6694 C   0  0  0  0  0  0  0  0  0  0  0  0
  -22.9084  -17.0130  148.2773 C   0  0  0  0  0  0  0  0  0  0  0  0
  -24.5890  -18.9596  147.7581 C   0  0  0  0  0  0  0  0  0  0  0  0
  -26.0183  -17.3142  145.8133 O   0  0  0  0  0  0  0  0  0  0  0  0
  -25.3098  -11.1843  145.5766 C   0  0  0  0  0  0  0  0  0  0  0  0
  -25.9874  -12.1641  138.4301 O   0  0  0  0  0  0  0  0  0  0  0  0
  -32.0498   -7.9532  142.5001 O   0  0  0  0  0  0  0  0  0  0  0  0
  1  2  1  0
  2  3  1  0
  3  4  1  0
  4  5  1  0
  5  6  1  0
  6  7  1  0
  3  8  1  0
  7  8  1  0
  6  9  1  0
  9 10  2  3
 10 11  1  0
  2 12  1  0
 12 18  1  0
 18 19  1  0
 13 21  1  0
 25 27  1  0
 20 28  1  0
 18 30  1  0
 29 30  1  0
 18 31  1  0
 12 32  2  0
  6 33  1  0
 24 34  1  0
 15 35  1  0
 19 20  1  0
 28 29  1  0
 11 13  1  0
 13 14  2  0
 14 15  1  0
 15 16  2  0
 16 17  1  0
 17 11  2  0
 21 22  2  0
 22 23  1  0
 23 24  2  0
 24 25  1  0
 25 26  2  0
 26 21  1  0
M  END

$$$$
No_677-/dssg/home/sw_qyf/PocketFlow/Model-Generation-Results/5HT2A_7WC7_rec_A_10.pdb/2024-01-01-03-54-21/
     RDKit          3D

 19 21  0  0  0  0  0  0  0  0999 V2000
  -24.1553  -17.8465  145.7021 C   0  0  0  0  0  0  0  0  0  0  0  0
  -24.2856  -16.6364  145.3494 C   0  0  0  0  0  0  0  0  0  0  0  0
  -24.7211  -15.5955  146.2115 C   0  0  0  0  0  0  0  0  0  0  0  0
  -24.8539  -14.2010  145.8739 C   0  0  0  0  0  0  0  0  0  0  0  0
  -24.1440  -13.8321  144.7074 C   0  0  0  0  0  0  0  0  0  0  0  0
  -23.4275  -14.8130  143.9942 C   0  0  0  0  0  0  0  0  0  0  0  0
  -23.5366  -16.0900  144.3641 N   0  0  0  0  0  0  0  0  0  0  0  0
  -23.4871  -18.3821  146.7583 C   0  0  0  0  0  0  0  0  0  0  0  0
  -22.9826  -17.3528  147.5847 N   0  0  0  0  0  0  0  0  0  0  0  0
  -23.9225  -16.1595  147.6468 C   0  0  0  0  0  0  0  0  0  0  0  0
  -23.2548  -12.7080  145.1051 O   0  0  0  0  0  0  0  0  0  0  0  0
  -23.2258  -11.4597  145.0403 C   0  0  0  0  0  0  0  0  0  0  0  0
  -25.8197  -13.5458  146.6989 C   0  0  0  0  0  0  0  0  0  0  0  0
  -27.1818  -13.8218  146.3882 C   0  0  0  0  0  0  0  0  0  0  0  0
  -27.6286  -14.9702  146.2183 C   0  0  0  0  0  0  0  0  0  0  0  0
  -28.9821  -15.3650  146.4484 C   0  0  0  0  0  0  0  0  0  0  0  0
  -29.9085  -14.3393  146.8649 C   0  0  0  0  0  0  0  0  0  0  0  0
  -29.3573  -13.1265  147.0490 C   0  0  0  0  0  0  0  0  0  0  0  0
  -27.9809  -12.7720  146.8922 C   0  0  0  0  0  0  0  0  0  0  0  0
  3  4  1  0
  4  5  1  0
  5  6  1  0
  2  7  1  0
  6  7  1  0
  5 11  1  0
 11 12  1  0
  4 13  1  0
 13 14  1  0
 14 15  2  0
 15 16  1  0
 16 17  2  0
 17 18  1  0
 18 19  2  0
 19 14  1  0
  1  2  2  0
  2  3  1  0
  3 10  2  0
 10  9  1  0
  9  8  2  0
  8  1  1  0
M  END

$$$$
No_678-/dssg/home/sw_qyf/PocketFlow/Model-Generation-Results/5HT2A_7WC7_rec_A_10.pdb/2024-01-01-03-54-21/
     RDKit          3D

 35 38  0  0  0  0  0  0  0  0999 V2000
  -23.1746  -16.6014  144.8668 C   0  0  0  0  0  0  0  0  0  0  0  0
  -23.8963  -15.5346  144.7885 C   0  0  0  0  0  0  0  0  0  0  0  0
  -25.3063  -15.4625  144.8521 C   0  0  0  0  0  0  0  0  0  0  0  0
  -26.0192  -14.2249  144.6050 C   0  0  0  0  0  0  0  0  0  0  0  0
  -25.4319  -13.0993  144.6846 C   0  0  0  0  0  0  0  0  0  0  0  0
  -23.9681  -13.0504  144.8679 C   0  0  0  0  0  0  0  0  0  0  0  0
  -23.2292  -14.2510  144.8504 C   0  0  0  0  0  0  0  0  0  0  0  0
  -23.4121  -17.3614  145.8689 O   0  0  0  0  0  0  0  0  0  0  0  0
  -26.1657  -11.8095  144.6513 C   0  0  0  0  0  0  0  0  0  0  0  0
  -27.0347  -11.5149  143.7217 N   0  0  0  0  0  0  0  0  0  0  0  0
  -27.8466  -10.4247  143.7797 C   0  0  0  0  0  0  0  0  0  0  0  0
  -29.0415  -10.4839  143.2934 C   0  0  0  0  0  0  0  0  0  0  0  0
  -29.9059   -9.3411  143.1651 C   0  0  0  0  0  0  0  0  0  0  0  0
  -29.5016   -8.2551  142.3339 C   0  0  0  0  0  0  0  0  0  0  0  0
  -28.9827   -8.5123  141.1014 C   0  0  0  0  0  0  0  0  0  0  0  0
  -28.3147   -9.5587  140.6994 C   0  0  0  0  0  0  0  0  0  0  0  0
  -27.7175   -9.6489  139.4640 C   0  0  0  0  0  0  0  0  0  0  0  0
  -27.0404  -10.8567  139.1117 C   0  0  0  0  0  0  0  0  0  0  0  0
  -27.4233  -12.0622  139.8761 C   0  0  0  0  0  0  0  0  0  0  0  0
  -28.2021  -11.9982  141.0263 C   0  0  0  0  0  0  0  0  0  0  0  0
  -28.6896  -10.7899  141.4330 C   0  0  0  0  0  0  0  0  0  0  0  0
  -24.5642  -17.6785  146.3241 C   0  0  0  0  0  0  0  0  0  0  0  0
  -24.5858  -17.6382  147.7739 C   0  0  0  0  0  0  0  0  0  0  0  0
  -24.5960  -16.3303  148.4352 C   0  0  0  0  0  0  0  0  0  0  0  0
  -25.9057  -11.0073  145.6885 O   0  0  0  0  0  0  0  0  0  0  0  0
  -31.2153   -9.2508  144.2252 Cl  0  0  0  0  0  0  0  0  0  0  0  0
  -29.0559   -7.2850  140.1602 C   0  0  0  0  0  0  0  0  0  0  0  0
  -23.1808  -18.1192  148.2241 N   0  0  0  0  0  0  0  0  0  0  0  0
  -28.8237   -7.4218  138.9568 N   0  0  0  0  0  0  0  0  0  0  0  0
  -27.9151   -8.5427  138.6027 C   0  0  0  0  0  0  0  0  0  0  0  0
  -23.2821  -11.9241  144.8694 F   0  0  0  0  0  0  0  0  0  0  0  0
  -27.4926  -14.3658  144.5770 C   0  0  0  0  0  0  0  0  0  0  0  0
  -29.6868   -6.2028  140.5431 O   0  0  0  0  0  0  0  0  0  0  0  0
  -24.9497  -18.8344  145.8649 O   0  0  0  0  0  0  0  0  0  0  0  0
  -27.9707  -14.6516  146.0101 C   0  0  0  0  0  0  0  0  0  0  0  0
  1  8  1  0
  5  9  1  0
  9 10  1  0
 10 11  1  0
 11 12  1  0
  8 22  1  0
 22 23  1  0
 23 24  1  0
  9 25  2  0
 13 26  1  0
 15 27  1  0
 23 28  1  0
 27 29  1  0
 17 30  1  0
 29 30  1  0
  6 31  1  0
  4 32  1  0
 27 33  2  0
 22 34  1  0
 32 35  1  0
  1  2  1  0
  2  3  2  0
  3  4  1  0
  4  5  2  0
  5  6  1  0
  6  7  2  0
  7  2  1  0
 12 13  2  0
 13 14  1  0
 14 15  2  0
 15 16  1  0
 21 12  1  0
 16 17  2  0
 17 18  1  0
 18 19  2  0
 19 20  1  0
 20 21  2  0
 21 16  1  0
M  END

$$$$
No_679-/dssg/home/sw_qyf/PocketFlow/Model-Generation-Results/5HT2A_7WC7_rec_A_10.pdb/2024-01-01-03-54-21/
     RDKit          3D

 35 37  0  0  0  0  0  0  0  0999 V2000
  -23.1746  -16.6014  144.8668 C   0  0  0  0  0  0  0  0  0  0  0  0
  -23.7011  -17.0158  145.9774 C   0  0  0  0  0  0  0  0  0  0  0  0
  -24.7096  -16.6222  146.3577 C   0  0  0  0  0  0  0  0  0  0  0  0
  -25.4819  -15.5594  145.8226 C   0  0  0  0  0  0  0  0  0  0  0  0
  -24.9841  -15.0030  144.6879 C   0  0  0  0  0  0  0  0  0  0  0  0
  -23.7823  -15.5257  144.1978 C   0  0  0  0  0  0  0  0  0  0  0  0
  -25.6365  -13.8825  143.9609 C   0  0  0  0  0  0  0  0  0  0  0  0
  -26.6267  -13.3804  144.5648 O   0  0  0  0  0  0  0  0  0  0  0  0
  -26.6117  -11.9856  144.5856 C   0  0  0  0  0  0  0  0  0  0  0  0
  -27.7770  -11.4359  143.7670 C   0  0  0  0  0  0  0  0  0  0  0  0
  -28.7835  -10.8528  144.4426 C   0  0  0  0  0  0  0  0  0  0  0  0
  -29.8686  -10.1640  143.7211 C   0  0  0  0  0  0  0  0  0  0  0  0
  -29.7599  -10.1008  142.3366 C   0  0  0  0  0  0  0  0  0  0  0  0
  -28.6975  -10.7450  141.7203 C   0  0  0  0  0  0  0  0  0  0  0  0
  -27.7144  -11.3843  142.4571 C   0  0  0  0  0  0  0  0  0  0  0  0
  -22.8343  -18.4083  146.7464 Cl  0  0  0  0  0  0  0  0  0  0  0  0
  -25.3408  -11.2709  144.5408 C   0  0  0  0  0  0  0  0  0  0  0  0
  -30.8267   -9.5679  144.4547 O   0  0  0  0  0  0  0  0  0  0  0  0
  -28.5479  -10.6953  140.2344 C   0  0  0  0  0  0  0  0  0  0  0  0
  -27.8773  -11.7767  139.6230 C   0  0  0  0  0  0  0  0  0  0  0  0
  -27.6785  -11.7396  138.2153 C   0  0  0  0  0  0  0  0  0  0  0  0
  -30.7347   -9.5071  141.7281 F   0  0  0  0  0  0  0  0  0  0  0  0
  -24.2574  -11.9198  144.9453 O   0  0  0  0  0  0  0  0  0  0  0  0
  -25.4146  -17.1632  147.7651 C   0  0  0  0  0  0  0  0  0  0  0  0
  -24.6574  -17.9648  148.2059 F   0  0  0  0  0  0  0  0  0  0  0  0
  -25.5517  -16.0078  148.5161 F   0  0  0  0  0  0  0  0  0  0  0  0
  -26.6223  -17.5041  147.4332 F   0  0  0  0  0  0  0  0  0  0  0  0
  -27.8295   -9.4192  139.7755 C   0  0  0  0  0  0  0  0  0  0  0  0
  -28.1307   -9.0935  138.3635 C   0  0  0  0  0  0  0  0  0  0  0  0
  -28.1168  -10.3692  137.5684 C   0  0  0  0  0  0  0  0  0  0  0  0
  -28.4649   -7.9003  137.8455 C   0  0  0  0  0  0  0  0  0  0  0  0
  -23.0143  -11.6834  144.6655 C   0  0  0  0  0  0  0  0  0  0  0  0
  -22.0804  -12.6261  145.4944 C   0  0  0  0  0  0  0  0  0  0  0  0
  -25.4573  -13.8475  142.7859 O   0  0  0  0  0  0  0  0  0  0  0  0
  -28.8809   -7.0599  138.7102 O   0  0  0  0  0  0  0  0  0  0  0  0
  5  7  1  0
  7  8  1  0
  8  9  1  0
  9 10  1  0
  2 16  1  0
  9 17  1  0
 12 18  1  0
 14 19  1  0
 13 22  1  0
 17 23  1  0
  3 24  1  0
 24 25  1  0
 24 26  1  0
 24 27  1  0
 29 31  1  0
 23 32  1  0
 32 33  1  0
  7 34  2  0
 31 35  1  0
  1  2  2  0
  2  3  1  0
  3  4  2  0
  4  5  1  0
  5  6  2  0
  6  1  1  0
 19 20  2  0
 20 21  1  0
 21 30  2  0
 30 29  1  0
 29 28  2  0
 28 19  1  0
 10 11  2  0
 11 12  1  0
 12 13  2  0
 13 14  1  0
 14 15  2  0
 15 10  1  0
M  END

$$$$
No_680-/dssg/home/sw_qyf/PocketFlow/Model-Generation-Results/5HT2A_7WC7_rec_A_10.pdb/2024-01-01-03-54-21/
     RDKit          3D

 21 21  0  0  0  0  0  0  0  0999 V2000
  -24.1553  -17.8465  145.7021 C   0  0  0  0  0  0  0  0  0  0  0  0
  -23.9795  -18.4462  146.7426 C   0  0  0  0  0  0  0  0  0  0  0  0
  -25.1593  -16.8262  145.6925 C   0  0  0  0  0  0  0  0  0  0  0  0
  -26.3426  -16.9003  146.3448 C   0  0  0  0  0  0  0  0  0  0  0  0
  -27.5316  -16.4146  145.9922 C   0  0  0  0  0  0  0  0  0  0  0  0
  -24.9327  -18.4032  147.8082 C   0  0  0  0  0  0  0  0  0  0  0  0
  -26.0965  -17.6628  147.6170 C   0  0  0  0  0  0  0  0  0  0  0  0
  -28.5551  -16.1434  146.9967 C   0  0  0  0  0  0  0  0  0  0  0  0
  -29.4438  -14.9483  146.9235 C   0  0  0  0  0  0  0  0  0  0  0  0
  -28.8422  -13.6997  147.4964 C   0  0  0  0  0  0  0  0  0  0  0  0
  -29.7434  -12.5971  147.7110 C   0  0  0  0  0  0  0  0  0  0  0  0
  -31.0662  -12.7311  147.7267 C   0  0  0  0  0  0  0  0  0  0  0  0
  -31.4333  -12.9601  149.1350 C   0  0  0  0  0  0  0  0  0  0  0  0
  -32.7256  -12.5844  149.5766 C   0  0  0  0  0  0  0  0  0  0  0  0
  -32.9920  -12.8652  150.7620 N   0  0  0  0  0  0  0  0  0  0  0  0
  -24.9510  -15.5097  144.8955 C   0  0  0  0  0  0  0  0  0  0  0  0
  -25.8257  -14.5094  144.9000 C   0  0  0  0  0  0  0  0  0  0  0  0
  -25.4969  -13.2327  144.4105 C   0  0  0  0  0  0  0  0  0  0  0  0
  -25.4137  -12.3626  145.2108 N   0  0  0  0  0  0  0  0  0  0  0  0
  -24.4408  -12.2135  146.1761 C   0  0  0  0  0  0  0  0  0  0  0  0
  -23.1183  -12.6236  145.9113 C   0  0  0  0  0  0  0  0  0  0  0  0
  1  2  1  0
  1  3  1  0
  3  4  1  0
  4  5  2  3
  2  6  1  0
  4  7  1  0
  6  7  1  0
  5  8  1  0
  8  9  1  0
  9 10  1  0
 10 11  1  0
 11 12  1  0
 12 13  1  0
 13 14  1  0
 14 15  1  0
  3 16  1  0
 16 17  1  0
 17 18  2  3
 18 19  1  0
 19 20  2  3
 20 21  1  0
M  END

$$$$
No_681-/dssg/home/sw_qyf/PocketFlow/Model-Generation-Results/5HT2A_7WC7_rec_A_10.pdb/2024-01-01-03-54-21/
     RDKit          3D

 35 38  0  0  0  0  0  0  0  0999 V2000
  -24.1553  -17.8465  145.7021 C   0  0  0  0  0  0  0  0  0  0  0  0
  -23.9795  -18.4462  146.7426 C   0  0  0  0  0  0  0  0  0  0  0  0
  -25.1196  -16.8105  145.6408 C   0  0  0  0  0  0  0  0  0  0  0  0
  -25.9236  -16.5070  146.7422 C   0  0  0  0  0  0  0  0  0  0  0  0
  -26.9588  -15.5563  146.6457 C   0  0  0  0  0  0  0  0  0  0  0  0
  -26.8349  -14.5437  145.7143 C   0  0  0  0  0  0  0  0  0  0  0  0
  -27.7742  -13.4711  145.6231 C   0  0  0  0  0  0  0  0  0  0  0  0
  -27.5753  -12.3030  144.8052 C   0  0  0  0  0  0  0  0  0  0  0  0
  -24.6643  -18.2145  147.9637 C   0  0  0  0  0  0  0  0  0  0  0  0
  -25.6572  -17.1593  147.9448 C   0  0  0  0  0  0  0  0  0  0  0  0
  -28.1364  -11.0717  145.1724 C   0  0  0  0  0  0  0  0  0  0  0  0
  -29.5084  -11.1347  145.6803 C   0  0  0  0  0  0  0  0  0  0  0  0
  -30.1677   -9.9955  145.7980 N   0  0  0  0  0  0  0  0  0  0  0  0
  -29.8827  -12.1558  146.3904 O   0  0  0  0  0  0  0  0  0  0  0  0
  -25.1670  -15.8824  144.4792 C   0  0  0  0  0  0  0  0  0  0  0  0
  -26.0810  -14.7716  144.5542 C   0  0  0  0  0  0  0  0  0  0  0  0
  -27.7098   -9.8351  144.4868 C   0  0  0  0  0  0  0  0  0  0  0  0
  -27.5676   -9.8180  143.1765 C   0  0  0  0  0  0  0  0  0  0  0  0
  -27.5163  -11.0075  142.4268 C   0  0  0  0  0  0  0  0  0  0  0  0
  -27.3775  -12.3040  143.2909 C   0  0  0  0  0  0  0  0  0  0  0  0
  -27.6741  -11.1751  141.1133 C   0  0  0  0  0  0  0  0  0  0  0  0
  -27.4404  -10.1951  140.2289 C   0  0  0  0  0  0  0  0  0  0  0  0
  -27.9594   -9.9223  139.0778 C   0  0  0  0  0  0  0  0  0  0  0  0
  -28.2170   -8.5927  138.6670 C   0  0  0  0  0  0  0  0  0  0  0  0
  -29.3321   -7.9366  139.1341 C   0  0  0  0  0  0  0  0  0  0  0  0
  -29.8394   -8.3580  140.3843 C   0  0  0  0  0  0  0  0  0  0  0  0
  -30.2879   -7.7397  141.4571 C   0  0  0  0  0  0  0  0  0  0  0  0
  -30.8943   -8.3989  142.5744 C   0  0  0  0  0  0  0  0  0  0  0  0
  -31.0550   -9.8167  142.4616 C   0  0  0  0  0  0  0  0  0  0  0  0
  -30.4731  -10.4759  141.4952 N   0  0  0  0  0  0  0  0  0  0  0  0
  -29.8549   -9.8340  140.4961 C   0  0  0  0  0  0  0  0  0  0  0  0
  -31.5535   -7.6490  143.6990 C   0  0  0  0  0  0  0  0  0  0  0  0
  -26.3655  -16.8455  149.0666 O   0  0  0  0  0  0  0  0  0  0  0  0
  -27.6505   -8.0463  137.6299 F   0  0  0  0  0  0  0  0  0  0  0  0
  -29.6356  -10.4389  139.6156 O   0  0  0  0  0  0  0  0  0  0  0  0
  1  3  1  0
  3  4  1  0
  4  5  1  0
  5  6  1  0
  6  7  2  3
  7  8  1  0
  2  9  1  0
  4 10  1  0
  9 10  1  0
 11 12  1  0
 12 13  1  0
 12 14  2  0
  3 15  1  0
  6 16  1  0
 15 16  1  0
 19 21  1  0
 21 22  2  3
 22 23  1  0
 23 24  1  0
 24 25  1  0
 25 26  1  0
 28 32  1  0
 10 33  2  0
 24 34  1  0
 31 35  1  0
  1  2  1  0
  8 11  2  0
 11 17  1  0
 17 18  2  0
 18 19  1  0
 19 20  2  0
 20  8  1  0
 26 27  2  0
 27 28  1  0
 28 29  2  0
 29 30  1  0
 30 31  2  0
 31 26  1  0
M  END

$$$$
No_682-/dssg/home/sw_qyf/PocketFlow/Model-Generation-Results/5HT2A_7WC7_rec_A_10.pdb/2024-01-01-03-54-21/
     RDKit          3D

  8  8  0  0  0  0  0  0  0  0999 V2000
  -23.1746  -16.6014  144.8668 C   0  0  0  0  0  0  0  0  0  0  0  0
  -23.7011  -17.0158  145.9774 C   0  0  0  0  0  0  0  0  0  0  0  0
  -24.2134  -16.0722  146.8877 C   0  0  0  0  0  0  0  0  0  0  0  0
  -24.7882  -16.3410  148.2078 C   0  0  0  0  0  0  0  0  0  0  0  0
  -23.5800  -15.2232  144.4665 C   0  0  0  0  0  0  0  0  0  0  0  0
  -24.2035  -14.2633  145.2990 C   0  0  0  0  0  0  0  0  0  0  0  0
  -24.5441  -14.6899  146.5406 C   0  0  0  0  0  0  0  0  0  0  0  0
  -25.1941  -17.4092  148.6570 N   0  0  0  0  0  0  0  0  0  0  0  0
  3  4  1  0
  4  8  1  0
  1  2  2  0
  2  3  1  0
  3  7  2  0
  7  6  1  0
  6  5  2  0
  5  1  1  0
M  END

$$$$
No_683-/dssg/home/sw_qyf/PocketFlow/Model-Generation-Results/5HT2A_7WC7_rec_A_10.pdb/2024-01-01-03-54-21/
     RDKit          3D

 35 37  0  0  0  0  0  0  0  0999 V2000
  -23.1746  -16.6014  144.8668 C   0  0  0  0  0  0  0  0  0  0  0  0
  -23.8963  -15.5346  144.7885 C   0  0  0  0  0  0  0  0  0  0  0  0
  -23.6398  -14.5115  145.3281 C   0  0  0  0  0  0  0  0  0  0  0  0
  -24.3240  -13.3648  145.1281 C   0  0  0  0  0  0  0  0  0  0  0  0
  -23.8303  -12.0965  145.7921 C   0  0  0  0  0  0  0  0  0  0  0  0
  -25.3060  -13.1626  144.3111 O   0  0  0  0  0  0  0  0  0  0  0  0
  -23.6153  -17.8026  145.6028 C   0  0  0  0  0  0  0  0  0  0  0  0
  -23.5839  -17.5337  146.9891 C   0  0  0  0  0  0  0  0  0  0  0  0
  -24.7849  -17.6004  147.7852 C   0  0  0  0  0  0  0  0  0  0  0  0
  -24.7403  -17.1517  149.1001 C   0  0  0  0  0  0  0  0  0  0  0  0
  -23.5437  -17.3036  149.8173 C   0  0  0  0  0  0  0  0  0  0  0  0
  -22.2887  -17.1886  149.1549 C   0  0  0  0  0  0  0  0  0  0  0  0
  -22.3806  -17.4563  147.8294 C   0  0  0  0  0  0  0  0  0  0  0  0
  -26.4555  -12.5533  144.7941 C   0  0  0  0  0  0  0  0  0  0  0  0
  -26.8848  -12.8813  145.8697 C   0  0  0  0  0  0  0  0  0  0  0  0
  -28.1932  -12.2587  146.4052 C   0  0  0  0  0  0  0  0  0  0  0  0
  -28.9427  -11.4075  145.5526 C   0  0  0  0  0  0  0  0  0  0  0  0
  -28.3743  -11.1783  144.2446 C   0  0  0  0  0  0  0  0  0  0  0  0
  -27.2052  -11.7825  143.8322 C   0  0  0  0  0  0  0  0  0  0  0  0
  -29.1866  -10.3484  143.3007 C   0  0  0  0  0  0  0  0  0  0  0  0
  -29.1506  -10.4065  142.0499 C   0  0  0  0  0  0  0  0  0  0  0  0
  -28.4488  -11.4017  141.2754 C   0  0  0  0  0  0  0  0  0  0  0  0
  -27.8484  -11.0244  140.0468 C   0  0  0  0  0  0  0  0  0  0  0  0
  -26.9983  -11.8997  139.3084 C   0  0  0  0  0  0  0  0  0  0  0  0
  -27.9386   -9.6689  139.5205 C   0  0  0  0  0  0  0  0  0  0  0  0
  -27.3563   -9.3444  138.3199 C   0  0  0  0  0  0  0  0  0  0  0  0
  -30.0365  -10.9527  145.9630 F   0  0  0  0  0  0  0  0  0  0  0  0
  -27.2262  -13.0737  139.8261 F   0  0  0  0  0  0  0  0  0  0  0  0
  -25.6728  -11.6147  139.4388 F   0  0  0  0  0  0  0  0  0  0  0  0
  -27.3178  -12.0431  138.0513 F   0  0  0  0  0  0  0  0  0  0  0  0
  -27.5773   -7.9842  137.8629 C   0  0  0  0  0  0  0  0  0  0  0  0
  -28.5682   -7.2522  138.6463 C   0  0  0  0  0  0  0  0  0  0  0  0
  -28.8068   -8.5314  139.9721 C   0  0  0  0  0  0  0  0  0  0  0  0
  -26.0689  -17.6040  147.1039 C   0  0  0  0  0  0  0  0  0  0  0  0
  -27.0929  -16.6243  147.4106 C   0  0  0  0  0  0  0  0  0  0  0  0
  1  2  1  0
  2  3  2  3
  3  4  1  0
  4  5  1  0
  4  6  1  0
  1  7  1  0
  7  8  1  0
  6 14  1  0
 18 20  1  0
 20 21  2  3
 21 22  1  0
 22 23  2  3
 23 24  1  0
 23 25  1  0
 25 26  1  0
 17 27  1  0
 24 28  1  0
 24 29  1  0
 24 30  1  0
 26 31  2  0
 31 32  1  0
 25 33  1  0
 32 33  1  0
  9 34  1  0
 34 35  1  0
 14 15  2  0
 15 16  1  0
 16 17  2  0
 17 18  1  0
 18 19  2  0
 19 14  1  0
  8  9  2  0
  9 10  1  0
 10 11  2  0
 11 12  1  0
 12 13  2  0
 13  8  1  0
M  END

$$$$
No_684-/dssg/home/sw_qyf/PocketFlow/Model-Generation-Results/5HT2A_7WC7_rec_A_10.pdb/2024-01-01-03-54-21/
     RDKit          3D

 24 24  0  0  0  0  0  0  0  0999 V2000
  -23.1746  -16.6014  144.8668 C   0  0  0  0  0  0  0  0  0  0  0  0
  -23.8963  -15.5346  144.7885 C   0  0  0  0  0  0  0  0  0  0  0  0
  -23.6398  -14.5115  145.3281 C   0  0  0  0  0  0  0  0  0  0  0  0
  -24.3240  -13.3648  145.1281 C   0  0  0  0  0  0  0  0  0  0  0  0
  -23.8303  -12.0965  145.7921 C   0  0  0  0  0  0  0  0  0  0  0  0
  -25.3060  -13.1626  144.3111 O   0  0  0  0  0  0  0  0  0  0  0  0
  -23.5864  -17.8093  144.8020 C   0  0  0  0  0  0  0  0  0  0  0  0
  -23.9629  -18.5038  146.0723 C   0  0  0  0  0  0  0  0  0  0  0  0
  -24.5884  -18.1385  146.9701 N   0  0  0  0  0  0  0  0  0  0  0  0
  -24.5681  -16.8522  147.4947 C   0  0  0  0  0  0  0  0  0  0  0  0
  -24.0307  -16.8784  149.0188 C   0  0  0  0  0  0  0  0  0  0  0  0
  -24.4476  -17.4433  149.9256 C   0  0  0  0  0  0  0  0  0  0  0  0
  -25.6809  -17.9139  150.0110 F   0  0  0  0  0  0  0  0  0  0  0  0
  -23.8520  -19.9693  145.9073 N   0  0  0  0  0  0  0  0  0  0  0  0
  -23.7429  -17.7397  151.0209 F   0  0  0  0  0  0  0  0  0  0  0  0
  -26.4575  -12.5444  144.7794 C   0  0  0  0  0  0  0  0  0  0  0  0
  -27.5576  -12.9149  144.3144 C   0  0  0  0  0  0  0  0  0  0  0  0
  -27.3861  -13.2788  143.0946 C   0  0  0  0  0  0  0  0  0  0  0  0
  -27.6297  -12.5851  141.8728 C   0  0  0  0  0  0  0  0  0  0  0  0
  -27.2761  -13.0780  140.5849 C   0  0  0  0  0  0  0  0  0  0  0  0
  -27.5815  -12.2748  139.5313 C   0  0  0  0  0  0  0  0  0  0  0  0
  -27.9312  -10.8887  139.7121 C   0  0  0  0  0  0  0  0  0  0  0  0
  -28.2250  -10.3866  141.0358 C   0  0  0  0  0  0  0  0  0  0  0  0
  -27.9638  -11.2630  142.1279 C   0  0  0  0  0  0  0  0  0  0  0  0
  1  2  1  0
  2  3  2  3
  3  4  1  0
  4  5  1  0
  4  6  1  0
  1  7  2  3
  7  8  1  0
  8  9  1  0
  9 10  1  0
 10 11  1  0
 11 12  2  3
 12 13  1  0
  8 14  1  0
 12 15  1  0
  6 16  1  0
 16 17  1  0
 17 18  1  0
 18 19  1  0
 19 20  2  0
 20 21  1  0
 21 22  2  0
 22 23  1  0
 23 24  2  0
 24 19  1  0
M  END

$$$$
No_685-/dssg/home/sw_qyf/PocketFlow/Model-Generation-Results/5HT2A_7WC7_rec_A_10.pdb/2024-01-01-03-54-21/
     RDKit          3D

 29 32  0  0  0  0  0  0  0  0999 V2000
  -24.1553  -17.8465  145.7021 C   0  0  0  0  0  0  0  0  0  0  0  0
  -24.2855  -16.6364  145.3494 C   0  0  0  0  0  0  0  0  0  0  0  0
  -24.7838  -15.7223  145.8474 C   0  0  0  0  0  0  0  0  0  0  0  0
  -24.8736  -14.2869  145.3929 C   0  0  0  0  0  0  0  0  0  0  0  0
  -25.5953  -13.2445  145.9611 C   0  0  0  0  0  0  0  0  0  0  0  0
  -26.7743  -13.6783  146.7024 C   0  0  0  0  0  0  0  0  0  0  0  0
  -24.9212  -18.2158  146.8547 C   0  0  0  0  0  0  0  0  0  0  0  0
  -25.5603  -17.2550  147.6121 C   0  0  0  0  0  0  0  0  0  0  0  0
  -25.5731  -15.9101  147.1088 C   0  0  0  0  0  0  0  0  0  0  0  0
  -27.7581  -12.7284  147.0069 C   0  0  0  0  0  0  0  0  0  0  0  0
  -29.1119  -13.1040  147.2795 C   0  0  0  0  0  0  0  0  0  0  0  0
  -29.3847  -14.4308  147.5755 C   0  0  0  0  0  0  0  0  0  0  0  0
  -28.3397  -15.3950  147.3322 C   0  0  0  0  0  0  0  0  0  0  0  0
  -27.1020  -14.9836  146.8645 C   0  0  0  0  0  0  0  0  0  0  0  0
  -23.9931  -13.9321  144.2604 C   0  0  0  0  0  0  0  0  0  0  0  0
  -22.9195  -13.1673  144.4638 O   0  0  0  0  0  0  0  0  0  0  0  0
  -30.0751  -12.1420  147.5949 N   0  0  0  0  0  0  0  0  0  0  0  0
  -30.2658  -11.0958  146.7433 C   0  0  0  0  0  0  0  0  0  0  0  0
  -31.0056  -12.2775  148.6419 C   0  0  0  0  0  0  0  0  0  0  0  0
  -32.3508  -12.1778  148.4912 C   0  0  0  0  0  0  0  0  0  0  0  0
  -32.9451  -11.3136  149.5832 C   0  0  0  0  0  0  0  0  0  0  0  0
  -33.0493  -12.0343  150.7123 C   0  0  0  0  0  0  0  0  0  0  0  0
  -31.7036  -12.7194  151.0610 C   0  0  0  0  0  0  0  0  0  0  0  0
  -31.1812  -13.3002  149.8978 C   0  0  0  0  0  0  0  0  0  0  0  0
  -33.1035  -11.0275  151.8845 O   0  0  0  0  0  0  0  0  0  0  0  0
  -23.4687  -16.4057  144.1759 O   0  0  0  0  0  0  0  0  0  0  0  0
  -23.5010  -18.8882  145.1522 O   0  0  0  0  0  0  0  0  0  0  0  0
  -28.5595  -16.6770  147.5723 O   0  0  0  0  0  0  0  0  0  0  0  0
  -25.2955  -12.0305  145.8621 O   0  0  0  0  0  0  0  0  0  0  0  0
  3  4  1  0
  4  5  1  0
  5  6  1  0
  9 14  1  0
  4 15  1  0
 15 16  1  0
 11 17  1  0
 17 18  1  0
 17 19  1  0
 19 20  1  0
 20 21  1  0
 21 22  1  0
 22 23  1  0
 19 24  1  0
 23 24  1  0
 22 25  1  0
  2 26  1  0
  1 27  1  0
 13 28  1  0
  5 29  2  0
  1  2  2  0
  2  3  1  0
  3  9  2  0
  9  8  1  0
  8  7  2  0
  7  1  1  0
  6 10  2  0
 10 11  1  0
 11 12  2  0
 12 13  1  0
 13 14  2  0
 14  6  1  0
M  END

$$$$
No_686-/dssg/home/sw_qyf/PocketFlow/Model-Generation-Results/5HT2A_7WC7_rec_A_10.pdb/2024-01-01-03-54-21/
     RDKit          3D

  9  9  0  0  0  0  0  0  0  0999 V2000
  -24.1553  -17.8465  145.7021 C   0  0  0  0  0  0  0  0  0  0  0  0
  -24.2856  -16.6364  145.3494 C   0  0  0  0  0  0  0  0  0  0  0  0
  -24.7211  -15.5955  146.2115 C   0  0  0  0  0  0  0  0  0  0  0  0
  -25.1322  -16.0374  147.5372 C   0  0  0  0  0  0  0  0  0  0  0  0
  -24.5163  -18.2968  146.9928 C   0  0  0  0  0  0  0  0  0  0  0  0
  -24.9534  -17.3074  147.9886 C   0  0  0  0  0  0  0  0  0  0  0  0
  -24.8795  -14.1918  145.8039 C   0  0  0  0  0  0  0  0  0  0  0  0
  -25.6511  -13.2777  146.3865 C   0  0  0  0  0  0  0  0  0  0  0  0
  -25.6393  -11.9359  145.9978 C   0  0  0  0  0  0  0  0  0  0  0  0
  3  7  1  0
  7  8  2  3
  8  9  1  0
  1  2  2  0
  2  3  1  0
  3  4  2  0
  4  6  1  0
  6  5  2  0
  5  1  1  0
M  END

$$$$
No_687-/dssg/home/sw_qyf/PocketFlow/Model-Generation-Results/5HT2A_7WC7_rec_A_10.pdb/2024-01-01-03-54-21/
     RDKit          3D

 33 34  0  0  0  0  0  0  0  0999 V2000
  -23.1746  -16.6014  144.8668 C   0  0  0  0  0  0  0  0  0  0  0  0
  -23.8963  -15.5346  144.7885 C   0  0  0  0  0  0  0  0  0  0  0  0
  -24.5755  -15.0383  145.9043 C   0  0  0  0  0  0  0  0  0  0  0  0
  -25.6726  -15.0536  146.1073 C   0  0  0  0  0  0  0  0  0  0  0  0
  -26.3714  -16.1134  146.6378 C   0  0  0  0  0  0  0  0  0  0  0  0
  -27.8211  -16.0893  146.8098 C   0  0  0  0  0  0  0  0  0  0  0  0
  -28.4397  -14.9216  146.4495 C   0  0  0  0  0  0  0  0  0  0  0  0
  -27.8363  -13.8028  145.9866 C   0  0  0  0  0  0  0  0  0  0  0  0
  -26.4525  -13.7520  145.8369 C   0  0  0  0  0  0  0  0  0  0  0  0
  -23.1795  -17.3788  146.0464 C   0  0  0  0  0  0  0  0  0  0  0  0
  -24.3120  -17.7072  146.6725 C   0  0  0  0  0  0  0  0  0  0  0  0
  -25.4404  -16.9246  147.1821 C   0  0  0  0  0  0  0  0  0  0  0  0
  -28.6012  -12.5564  145.7054 C   0  0  0  0  0  0  0  0  0  0  0  0
  -28.2169  -11.5931  144.7860 C   0  0  0  0  0  0  0  0  0  0  0  0
  -28.5466  -11.1235  143.9634 C   0  0  0  0  0  0  0  0  0  0  0  0
  -28.0095  -10.1737  142.9618 C   0  0  0  0  0  0  0  0  0  0  0  0
  -28.6794   -9.5806  141.9529 C   0  0  0  0  0  0  0  0  0  0  0  0
  -29.7979   -8.7211  142.1414 C   0  0  0  0  0  0  0  0  0  0  0  0
  -30.8136   -8.7903  143.0769 C   0  0  0  0  0  0  0  0  0  0  0  0
  -30.2269   -7.9439  140.8602 C   0  0  0  0  0  0  0  0  0  0  0  0
  -29.0976   -7.1933  140.2695 C   0  0  0  0  0  0  0  0  0  0  0  0
  -30.7397   -8.1193  144.0952 O   0  0  0  0  0  0  0  0  0  0  0  0
  -31.7446   -9.6740  142.9568 O   0  0  0  0  0  0  0  0  0  0  0  0
  -25.0335  -16.4219  148.6245 C   0  0  0  0  0  0  0  0  0  0  0  0
  -24.7740  -19.0314  146.6587 O   0  0  0  0  0  0  0  0  0  0  0  0
  -29.1009   -7.5166  138.8332 C   0  0  0  0  0  0  0  0  0  0  0  0
  -28.2629   -8.7090  138.5196 C   0  0  0  0  0  0  0  0  0  0  0  0
  -28.5256   -9.4475  137.3865 C   0  0  0  0  0  0  0  0  0  0  0  0
  -29.4988  -12.0073  147.0482 Cl  0  0  0  0  0  0  0  0  0  0  0  0
  -28.4584  -10.8531  137.4629 C   0  0  0  0  0  0  0  0  0  0  0  0
  -27.6727  -11.4990  138.4605 C   0  0  0  0  0  0  0  0  0  0  0  0
  -27.8856  -12.8577  138.7620 C   0  0  0  0  0  0  0  0  0  0  0  0
  -27.1856  -13.1915  140.0086 C   0  0  0  0  0  0  0  0  0  0  0  0
  1  2  1  0
  2  3  1  0
  3  4  1  0
  1 10  1  0
 10 11  1  0
  5 12  1  0
 11 12  1  0
  8 13  1  0
 13 14  1  0
 14 15  2  3
 15 16  1  0
 16 17  1  0
 17 18  2  3
 18 19  1  0
 18 20  1  0
 20 21  1  0
 19 22  2  0
 19 23  1  0
 12 24  1  0
 11 25  2  0
 21 26  1  0
 26 27  1  0
 27 28  1  0
 13 29  1  0
 28 30  1  0
 30 31  2  3
 31 32  1  0
 32 33  2  0
  4  5  2  0
  5  6  1  0
  6  7  2  0
  7  8  1  0
  8  9  2  0
  9  4  1  0
M  END

$$$$
No_688-/dssg/home/sw_qyf/PocketFlow/Model-Generation-Results/5HT2A_7WC7_rec_A_10.pdb/2024-01-01-03-54-21/
     RDKit          3D

 17 18  0  0  0  0  0  0  0  0999 V2000
  -24.1553  -17.8465  145.7021 C   0  0  0  0  0  0  0  0  0  0  0  0
  -23.9795  -18.4462  146.7426 C   0  0  0  0  0  0  0  0  0  0  0  0
  -24.3577  -16.4380  145.7329 C   0  0  0  0  0  0  0  0  0  0  0  0
  -24.4745  -15.6012  144.5587 C   0  0  0  0  0  0  0  0  0  0  0  0
  -24.5845  -14.1656  144.8311 C   0  0  0  0  0  0  0  0  0  0  0  0
  -24.5949  -13.6004  146.1552 C   0  0  0  0  0  0  0  0  0  0  0  0
  -24.6385  -14.5583  147.2781 C   0  0  0  0  0  0  0  0  0  0  0  0
  -24.4574  -15.8660  147.0890 C   0  0  0  0  0  0  0  0  0  0  0  0
  -24.0467  -17.9886  148.0743 C   0  0  0  0  0  0  0  0  0  0  0  0
  -24.2519  -16.6340  148.3261 C   0  0  0  0  0  0  0  0  0  0  0  0
  -24.7090  -12.1535  146.2839 C   0  0  0  0  0  0  0  0  0  0  0  0
  -24.7396  -11.7161  147.4757 F   0  0  0  0  0  0  0  0  0  0  0  0
  -25.8559  -11.6937  145.6308 F   0  0  0  0  0  0  0  0  0  0  0  0
  -23.6178  -11.6571  145.6192 F   0  0  0  0  0  0  0  0  0  0  0  0
  -24.6783  -13.3944  143.8514 F   0  0  0  0  0  0  0  0  0  0  0  0
  -23.8039  -19.8273  146.6910 O   0  0  0  0  0  0  0  0  0  0  0  0
  -23.5808  -20.1956  145.3796 C   0  0  0  0  0  0  0  0  0  0  0  0
  6 11  1  0
 11 12  1  0
 11 13  1  0
 11 14  1  0
  5 15  1  0
  2 16  1  0
 16 17  1  0
  1  2  2  0
  2  9  1  0
  9 10  2  0
 10  8  1  0
  3  1  1  0
  3  4  2  0
  4  5  1  0
  5  6  2  0
  6  7  1  0
  7  8  2  0
  8  3  1  0
M  END

$$$$
No_689-/dssg/home/sw_qyf/PocketFlow/Model-Generation-Results/5HT2A_7WC7_rec_A_10.pdb/2024-01-01-03-54-21/
     RDKit          3D

 35 38  0  0  0  0  0  0  0  0999 V2000
  -23.1746  -16.6014  144.8668 C   0  0  0  0  0  0  0  0  0  0  0  0
  -23.7011  -17.0158  145.9774 C   0  0  0  0  0  0  0  0  0  0  0  0
  -24.2134  -16.0722  146.8877 C   0  0  0  0  0  0  0  0  0  0  0  0
  -24.5407  -14.7704  146.3552 C   0  0  0  0  0  0  0  0  0  0  0  0
  -24.9626  -13.7061  147.1333 C   0  0  0  0  0  0  0  0  0  0  0  0
  -23.3779  -15.3434  144.3588 C   0  0  0  0  0  0  0  0  0  0  0  0
  -23.9101  -14.3616  145.1708 C   0  0  0  0  0  0  0  0  0  0  0  0
  -25.0686  -12.3938  146.5604 C   0  0  0  0  0  0  0  0  0  0  0  0
  -24.6021  -12.1160  145.2546 C   0  0  0  0  0  0  0  0  0  0  0  0
  -23.9663  -13.1377  144.5827 C   0  0  0  0  0  0  0  0  0  0  0  0
  -23.5428  -18.4337  146.5092 C   0  0  0  0  0  0  0  0  0  0  0  0
  -22.6334  -18.9001  146.8555 O   0  0  0  0  0  0  0  0  0  0  0  0
  -24.7793  -19.1222  146.4749 N   0  0  0  0  0  0  0  0  0  0  0  0
  -24.7189  -10.8769  144.8343 O   0  0  0  0  0  0  0  0  0  0  0  0
  -24.6937  -16.3958  148.1100 O   0  0  0  0  0  0  0  0  0  0  0  0
  -25.9825  -16.7130  148.4092 C   0  0  0  0  0  0  0  0  0  0  0  0
  -27.0730  -16.2038  147.7663 C   0  0  0  0  0  0  0  0  0  0  0  0
  -28.3421  -16.4715  148.1388 C   0  0  0  0  0  0  0  0  0  0  0  0
  -29.4355  -15.8559  147.4694 C   0  0  0  0  0  0  0  0  0  0  0  0
  -29.1449  -14.6283  146.7280 C   0  0  0  0  0  0  0  0  0  0  0  0
  -27.8668  -14.3671  146.3186 C   0  0  0  0  0  0  0  0  0  0  0  0
  -26.7779  -15.1007  146.9210 C   0  0  0  0  0  0  0  0  0  0  0  0
  -27.6851  -13.2839  145.3921 C   0  0  0  0  0  0  0  0  0  0  0  0
  -27.2376  -13.5576  144.0919 C   0  0  0  0  0  0  0  0  0  0  0  0
  -27.3733  -12.5470  143.0707 C   0  0  0  0  0  0  0  0  0  0  0  0
  -27.9854  -11.3012  143.3579 C   0  0  0  0  0  0  0  0  0  0  0  0
  -28.4401  -11.0633  144.7443 C   0  0  0  0  0  0  0  0  0  0  0  0
  -28.3266  -12.0141  145.7201 C   0  0  0  0  0  0  0  0  0  0  0  0
  -28.1319  -10.3289  142.3407 C   0  0  0  0  0  0  0  0  0  0  0  0
  -29.0047   -9.2736  142.5014 N   0  0  0  0  0  0  0  0  0  0  0  0
  -29.7273   -8.8245  141.7556 C   0  0  0  0  0  0  0  0  0  0  0  0
  -29.8826   -8.9256  140.5972 F   0  0  0  0  0  0  0  0  0  0  0  0
  -30.8366   -7.8216  142.3421 C   0  0  0  0  0  0  0  0  0  0  0  0
  -31.5369   -8.4201  143.5099 C   0  0  0  0  0  0  0  0  0  0  0  0
  -27.3911  -10.2451  141.3866 O   0  0  0  0  0  0  0  0  0  0  0  0
  2 11  1  0
 11 12  2  0
 11 13  1  0
  9 14  1  0
  3 15  1  0
 15 16  1  0
 16 17  1  0
 21 23  1  0
 26 29  1  0
 29 30  1  0
 30 31  1  0
 31 32  1  0
 31 33  1  0
 33 34  1  0
 29 35  2  0
 17 18  2  0
 18 19  1  0
 19 20  2  0
 20 21  1  0
 21 22  2  0
 22 17  1  0
  4  5  1  0
  5  8  2  0
  8  9  1  0
  9 10  2  0
 10  7  1  0
 23 24  2  0
 24 25  1  0
 25 26  2  0
 26 27  1  0
 27 28  2  0
 28 23  1  0
  1  2  2  0
  2  3  1  0
  3  4  2  0
  4  7  1  0
  7  6  2  0
  6  1  1  0
M  END

$$$$
No_690-/dssg/home/sw_qyf/PocketFlow/Model-Generation-Results/5HT2A_7WC7_rec_A_10.pdb/2024-01-01-03-54-21/
     RDKit          3D

  7  7  0  0  0  0  0  0  0  0999 V2000
  -23.1746  -16.6014  144.8668 C   0  0  0  0  0  0  0  0  0  0  0  0
  -24.0189  -16.0564  145.8445 C   0  0  0  0  0  0  0  0  0  0  0  0
  -24.4145  -16.8299  146.9062 C   0  0  0  0  0  0  0  0  0  0  0  0
  -25.2730  -16.2838  147.9150 C   0  0  0  0  0  0  0  0  0  0  0  0
  -25.7919  -14.9951  147.6737 C   0  0  0  0  0  0  0  0  0  0  0  0
  -24.5377  -14.6789  145.6474 C   0  0  0  0  0  0  0  0  0  0  0  0
  -25.4158  -14.1968  146.6885 C   0  0  0  0  0  0  0  0  0  0  0  0
  1  2  1  0
  2  3  2  0
  3  4  1  0
  4  5  2  0
  5  7  1  0
  7  6  2  0
  6  2  1  0
M  END

$$$$
No_691-/dssg/home/sw_qyf/PocketFlow/Model-Generation-Results/5HT2A_7WC7_rec_A_10.pdb/2024-01-01-03-54-21/
     RDKit          3D

 35 38  0  0  0  0  0  0  0  0999 V2000
  -24.1553  -17.8465  145.7021 C   0  0  0  0  0  0  0  0  0  0  0  0
  -24.2856  -16.6364  145.3494 C   0  0  0  0  0  0  0  0  0  0  0  0
  -24.7837  -15.7223  145.8474 C   0  0  0  0  0  0  0  0  0  0  0  0
  -25.6062  -15.9757  147.0426 C   0  0  0  0  0  0  0  0  0  0  0  0
  -24.8437  -18.2127  146.8988 C   0  0  0  0  0  0  0  0  0  0  0  0
  -25.5337  -17.2397  147.5874 C   0  0  0  0  0  0  0  0  0  0  0  0
  -24.9314  -14.2305  145.3905 C   0  0  0  0  0  0  0  0  0  0  0  0
  -25.8255  -13.3787  145.9376 C   0  0  0  0  0  0  0  0  0  0  0  0
  -26.5233  -12.5251  145.1842 C   0  0  0  0  0  0  0  0  0  0  0  0
  -26.5192  -11.1460  145.5637 C   0  0  0  0  0  0  0  0  0  0  0  0
  -27.1362  -10.1629  144.8310 C   0  0  0  0  0  0  0  0  0  0  0  0
  -28.0759  -10.4336  143.9834 C   0  0  0  0  0  0  0  0  0  0  0  0
  -28.1783  -11.8483  143.6424 C   0  0  0  0  0  0  0  0  0  0  0  0
  -27.4975  -12.7962  144.2956 C   0  0  0  0  0  0  0  0  0  0  0  0
  -28.8432   -9.4024  143.2933 C   0  0  0  0  0  0  0  0  0  0  0  0
  -29.8185   -8.6964  143.9216 C   0  0  0  0  0  0  0  0  0  0  0  0
  -30.6582   -7.7796  143.1696 C   0  0  0  0  0  0  0  0  0  0  0  0
  -30.5842   -7.9080  141.8404 C   0  0  0  0  0  0  0  0  0  0  0  0
  -29.6828   -8.6336  141.1495 C   0  0  0  0  0  0  0  0  0  0  0  0
  -28.8158   -9.4548  141.9002 C   0  0  0  0  0  0  0  0  0  0  0  0
  -23.5232  -13.5551  145.2168 C   0  0  0  0  0  0  0  0  0  0  0  0
  -22.9463  -13.5164  143.9256 C   0  0  0  0  0  0  0  0  0  0  0  0
  -29.4139   -8.4193  139.7331 C   0  0  0  0  0  0  0  0  0  0  0  0
  -29.9799   -7.3560  139.0004 C   0  0  0  0  0  0  0  0  0  0  0  0
  -28.4069   -9.2022  139.0924 C   0  0  0  0  0  0  0  0  0  0  0  0
  -27.6406  -10.0408  139.7662 N   0  0  0  0  0  0  0  0  0  0  0  0
  -26.6945  -10.8614  139.1910 C   0  0  0  0  0  0  0  0  0  0  0  0
  -28.1617   -9.0015  137.9400 O   0  0  0  0  0  0  0  0  0  0  0  0
  -27.7967  -10.1742  141.2718 C   0  0  0  0  0  0  0  0  0  0  0  0
  -23.5655  -16.4163  144.0933 O   0  0  0  0  0  0  0  0  0  0  0  0
  -27.0359  -12.3139  139.3218 C   0  0  0  0  0  0  0  0  0  0  0  0
  -28.1762  -12.5753  139.7074 O   0  0  0  0  0  0  0  0  0  0  0  0
  -26.0321  -13.0637  139.6077 O   0  0  0  0  0  0  0  0  0  0  0  0
  -21.8227  -12.7949  143.9457 O   0  0  0  0  0  0  0  0  0  0  0  0
  -23.5557  -18.9173  145.0998 O   0  0  0  0  0  0  0  0  0  0  0  0
  3  7  1  0
  7  8  1  0
  8  9  1  0
 12 15  1  0
  7 21  1  0
 21 22  1  0
 19 23  1  0
 23 24  2  0
 23 25  1  0
 25 26  1  0
 26 27  1  0
 25 28  2  0
 20 29  1  0
 26 29  1  0
  2 30  1  0
 27 31  1  0
 31 32  1  0
 31 33  1  0
 22 34  1  0
  1 35  1  0
 15 16  2  0
 16 17  1  0
 17 18  2  0
 18 19  1  0
 19 20  2  0
 20 15  1  0
  1  2  2  0
  2  3  1  0
  3  4  2  0
  4  6  1  0
  6  5  2  0
  5  1  1  0
  9 10  2  0
 10 11  1  0
 11 12  2  0
 12 13  1  0
 13 14  2  0
 14  9  1  0
M  END

$$$$
No_692-/dssg/home/sw_qyf/PocketFlow/Model-Generation-Results/5HT2A_7WC7_rec_A_10.pdb/2024-01-01-03-54-21/
     RDKit          3D

 33 35  0  0  0  0  0  0  0  0999 V2000
  -24.1553  -17.8465  145.7021 C   0  0  0  0  0  0  0  0  0  0  0  0
  -23.9795  -18.4462  146.7426 C   0  0  0  0  0  0  0  0  0  0  0  0
  -24.2723  -16.4220  145.8037 C   0  0  0  0  0  0  0  0  0  0  0  0
  -24.0151  -15.5895  144.6874 C   0  0  0  0  0  0  0  0  0  0  0  0
  -24.0834  -17.9646  148.0883 C   0  0  0  0  0  0  0  0  0  0  0  0
  -24.2949  -16.5690  148.2409 C   0  0  0  0  0  0  0  0  0  0  0  0
  -24.3289  -15.7594  147.1024 C   0  0  0  0  0  0  0  0  0  0  0  0
  -24.5972  -14.4448  144.4660 C   0  0  0  0  0  0  0  0  0  0  0  0
  -25.6595  -14.0520  144.9521 C   0  0  0  0  0  0  0  0  0  0  0  0
  -26.2791  -12.7356  144.6620 C   0  0  0  0  0  0  0  0  0  0  0  0
  -26.0331  -11.6252  145.3972 C   0  0  0  0  0  0  0  0  0  0  0  0
  -26.5783  -10.3162  145.1001 C   0  0  0  0  0  0  0  0  0  0  0  0
  -27.4969  -10.1883  144.0636 C   0  0  0  0  0  0  0  0  0  0  0  0
  -27.8582  -11.4432  143.4212 C   0  0  0  0  0  0  0  0  0  0  0  0
  -27.2883  -12.6377  143.6774 C   0  0  0  0  0  0  0  0  0  0  0  0
  -28.2435   -8.9970  143.8045 C   0  0  0  0  0  0  0  0  0  0  0  0
  -29.0406   -8.9141  142.6565 C   0  0  0  0  0  0  0  0  0  0  0  0
  -30.0281   -7.9526  142.5260 C   0  0  0  0  0  0  0  0  0  0  0  0
  -31.2221   -8.1511  141.8527 C   0  0  0  0  0  0  0  0  0  0  0  0
  -23.0801  -16.0832  143.8439 O   0  0  0  0  0  0  0  0  0  0  0  0
  -28.8059   -9.6439  141.4339 C   0  0  0  0  0  0  0  0  0  0  0  0
  -28.7775  -10.9804  141.3245 C   0  0  0  0  0  0  0  0  0  0  0  0
  -27.8127  -11.6920  142.1255 C   0  0  0  0  0  0  0  0  0  0  0  0
  -25.2201  -11.6697  146.5235 O   0  0  0  0  0  0  0  0  0  0  0  0
  -29.8670   -6.5641  143.0679 C   0  0  0  0  0  0  0  0  0  0  0  0
  -27.0363  -12.5706  141.3206 O   0  0  0  0  0  0  0  0  0  0  0  0
  -27.3070  -13.8678  141.2318 C   0  0  0  0  0  0  0  0  0  0  0  0
  -32.2699   -8.5168  142.6401 O   0  0  0  0  0  0  0  0  0  0  0  0
  -24.0894  -13.6638  143.5365 O   0  0  0  0  0  0  0  0  0  0  0  0
  -28.9263   -5.6646  142.3309 C   0  0  0  0  0  0  0  0  0  0  0  0
  -29.2381   -5.3278  141.0055 C   0  0  0  0  0  0  0  0  0  0  0  0
  -29.1757   -6.4127  140.1266 C   0  0  0  0  0  0  0  0  0  0  0  0
  -30.3530   -7.4764  139.8862 Cl  0  0  0  0  0  0  0  0  0  0  0  0
  4  8  1  0
  8  9  2  3
  9 10  1  0
 13 16  1  0
 16 17  2  0
 17 18  1  0
 18 19  1  0
  4 20  1  0
 17 21  1  0
 21 22  2  0
 14 23  1  0
 22 23  1  0
 11 24  1  0
 18 25  1  0
 23 26  1  0
 26 27  1  0
 19 28  1  0
  8 29  1  0
 25 30  1  0
 30 31  1  0
 31 32  1  0
 32 33  1  0
  4  3  1  0
  1  2  2  0
  2  5  1  0
  5  6  2  0
  6  7  1  0
  7  3  2  0
  3  1  1  0
 10 11  2  0
 11 12  1  0
 12 13  2  0
 13 14  1  0
 14 15  2  0
 15 10  1  0
M  END

$$$$
No_693-/dssg/home/sw_qyf/PocketFlow/Model-Generation-Results/5HT2A_7WC7_rec_A_10.pdb/2024-01-01-03-54-21/
     RDKit          3D

 19 21  0  0  0  0  0  0  0  0999 V2000
  -24.1553  -17.8465  145.7021 C   0  0  0  0  0  0  0  0  0  0  0  0
  -24.2855  -16.6364  145.3494 C   0  0  0  0  0  0  0  0  0  0  0  0
  -25.0033  -15.6772  146.0737 C   0  0  0  0  0  0  0  0  0  0  0  0
  -24.8869  -14.2981  145.8377 C   0  0  0  0  0  0  0  0  0  0  0  0
  -24.0151  -13.8866  144.8228 C   0  0  0  0  0  0  0  0  0  0  0  0
  -24.9248  -18.3616  146.7606 C   0  0  0  0  0  0  0  0  0  0  0  0
  -23.8442  -12.4522  144.5893 C   0  0  0  0  0  0  0  0  0  0  0  0
  -25.6815  -17.5385  147.5289 C   0  0  0  0  0  0  0  0  0  0  0  0
  -25.6699  -16.1890  147.3124 C   0  0  0  0  0  0  0  0  0  0  0  0
  -24.6139  -11.5586  145.3494 C   0  0  0  0  0  0  0  0  0  0  0  0
  -25.5389  -11.9560  146.3204 C   0  0  0  0  0  0  0  0  0  0  0  0
  -25.6419  -13.3524  146.6082 C   0  0  0  0  0  0  0  0  0  0  0  0
  -23.6206  -16.1777  144.2450 N   0  0  0  0  0  0  0  0  0  0  0  0
  -23.4198  -14.8045  144.0524 C   0  0  0  0  0  0  0  0  0  0  0  0
  -26.4951  -10.7677  147.1293 Cl  0  0  0  0  0  0  0  0  0  0  0  0
  -23.4527  -18.8675  145.1375 N   0  0  0  0  0  0  0  0  0  0  0  0
  -23.3118  -20.0755  145.8725 C   0  0  0  0  0  0  0  0  0  0  0  0
  -22.4076  -20.5351  146.0124 O   0  0  0  0  0  0  0  0  0  0  0  0
  -24.3736  -20.9123  145.8316 O   0  0  0  0  0  0  0  0  0  0  0  0
 11 15  1  0
  1 16  1  0
 16 17  1  0
 17 18  2  0
 17 19  1  0
  1  2  2  0
  3  9  2  0
  9  8  1  0
  8  6  2  0
  6  1  1  0
  2  3  1  0
  3  4  1  0
  5 14  1  0
 14 13  2  0
 13  2  1  0
  4  5  2  0
  5  7  1  0
  7 10  2  0
 10 11  1  0
 11 12  2  0
 12  4  1  0
M  END

$$$$
No_694-/dssg/home/sw_qyf/PocketFlow/Model-Generation-Results/5HT2A_7WC7_rec_A_10.pdb/2024-01-01-03-54-21/
     RDKit          3D

 34 36  0  0  0  0  0  0  0  0999 V2000
  -24.1553  -17.8465  145.7021 C   0  0  0  0  0  0  0  0  0  0  0  0
  -23.9795  -18.4462  146.7426 C   0  0  0  0  0  0  0  0  0  0  0  0
  -24.3577  -16.4380  145.7329 C   0  0  0  0  0  0  0  0  0  0  0  0
  -24.4745  -15.6012  144.5587 C   0  0  0  0  0  0  0  0  0  0  0  0
  -24.5845  -14.1656  144.8311 C   0  0  0  0  0  0  0  0  0  0  0  0
  -23.7823  -13.3256  144.1226 C   0  0  0  0  0  0  0  0  0  0  0  0
  -23.9683  -17.9031  148.0916 C   0  0  0  0  0  0  0  0  0  0  0  0
  -24.1748  -16.4768  148.1900 C   0  0  0  0  0  0  0  0  0  0  0  0
  -24.3712  -15.7478  147.0575 C   0  0  0  0  0  0  0  0  0  0  0  0
  -22.3094  -13.7533  144.4781 C   0  0  0  0  0  0  0  0  0  0  0  0
  -25.9883  -13.6648  145.1200 C   0  0  0  0  0  0  0  0  0  0  0  0
  -26.4943  -12.6755  144.5127 C   0  0  0  0  0  0  0  0  0  0  0  0
  -27.7728  -12.1134  144.8297 C   0  0  0  0  0  0  0  0  0  0  0  0
  -28.3656  -10.9116  144.2829 C   0  0  0  0  0  0  0  0  0  0  0  0
  -27.9138  -10.3522  143.1874 C   0  0  0  0  0  0  0  0  0  0  0  0
  -28.7720  -10.3510  142.1360 C   0  0  0  0  0  0  0  0  0  0  0  0
  -29.2331   -9.0452  141.7359 C   0  0  0  0  0  0  0  0  0  0  0  0
  -29.9422   -8.2230  142.5547 C   0  0  0  0  0  0  0  0  0  0  0  0
  -31.0454   -8.7061  143.3048 C   0  0  0  0  0  0  0  0  0  0  0  0
  -28.9159   -8.6374  140.3784 C   0  0  0  0  0  0  0  0  0  0  0  0
  -29.4969   -7.4455  139.8614 C   0  0  0  0  0  0  0  0  0  0  0  0
  -28.0747   -9.3566  139.5313 C   0  0  0  0  0  0  0  0  0  0  0  0
  -27.9667   -8.9953  138.2643 N   0  0  0  0  0  0  0  0  0  0  0  0
  -31.8605   -9.3801  143.0266 O   0  0  0  0  0  0  0  0  0  0  0  0
  -27.0975  -10.6585  140.0241 Cl  0  0  0  0  0  0  0  0  0  0  0  0
  -22.0671  -14.0426  143.2601 C   0  0  0  0  0  0  0  0  0  0  0  0
  -28.1216  -12.3971  146.2678 C   0  0  0  0  0  0  0  0  0  0  0  0
  -28.9745  -11.6225  147.0032 C   0  0  0  0  0  0  0  0  0  0  0  0
  -29.8642  -10.7583  146.2841 C   0  0  0  0  0  0  0  0  0  0  0  0
  -29.5089  -10.3121  145.0250 C   0  0  0  0  0  0  0  0  0  0  0  0
  -31.2110   -7.9185  144.4336 O   0  0  0  0  0  0  0  0  0  0  0  0
  -28.5092   -7.8847  137.7543 C   0  0  0  0  0  0  0  0  0  0  0  0
  -29.3184   -7.1937  138.5918 N   0  0  0  0  0  0  0  0  0  0  0  0
  -29.5763  -12.1877  148.5906 Cl  0  0  0  0  0  0  0  0  0  0  0  0
  3  4  1  0
  4  5  1  0
  5  6  1  0
  6 10  1  0
  5 11  1  0
 11 12  2  3
 12 13  1  0
 14 15  1  0
 15 16  1  0
 16 17  1  0
 17 18  2  3
 18 19  1  0
 17 20  1  0
 19 24  1  0
 22 25  1  0
 10 26  1  0
 19 31  2  0
 28 34  1  0
 13 14  2  0
 14 30  1  0
 30 29  2  0
 29 28  1  0
 28 27  2  0
 27 13  1  0
 20 21  2  0
 21 33  1  0
 33 32  2  0
 32 23  1  0
 23 22  2  0
 22 20  1  0
  1  2  2  0
  2  7  1  0
  7  8  2  0
  8  9  1  0
  9  3  2  0
  3  1  1  0
M  END

$$$$
No_695-/dssg/home/sw_qyf/PocketFlow/Model-Generation-Results/5HT2A_7WC7_rec_A_10.pdb/2024-01-01-03-54-21/
     RDKit          3D

 35 38  0  0  0  0  0  0  0  0999 V2000
  -23.1746  -16.6014  144.8668 C   0  0  0  0  0  0  0  0  0  0  0  0
  -24.0189  -16.0564  145.8445 C   0  0  0  0  0  0  0  0  0  0  0  0
  -24.4145  -16.8299  146.9062 C   0  0  0  0  0  0  0  0  0  0  0  0
  -25.2730  -16.2838  147.9150 C   0  0  0  0  0  0  0  0  0  0  0  0
  -26.0161  -15.1622  147.5289 C   0  0  0  0  0  0  0  0  0  0  0  0
  -24.6387  -14.7196  145.5888 C   0  0  0  0  0  0  0  0  0  0  0  0
  -25.2696  -14.2495  146.4528 C   0  0  0  0  0  0  0  0  0  0  0  0
  -24.1143  -13.9075  144.5468 C   0  0  0  0  0  0  0  0  0  0  0  0
  -24.8707  -13.6071  143.7223 O   0  0  0  0  0  0  0  0  0  0  0  0
  -23.9582  -18.2040  147.1285 C   0  0  0  0  0  0  0  0  0  0  0  0
  -23.2147  -18.8068  146.1341 C   0  0  0  0  0  0  0  0  0  0  0  0
  -22.8560  -18.0699  145.0110 C   0  0  0  0  0  0  0  0  0  0  0  0
  -22.8376  -13.4618  144.5183 O   0  0  0  0  0  0  0  0  0  0  0  0
  -25.5979  -16.9419  149.1811 C   0  0  0  0  0  0  0  0  0  0  0  0
  -24.7515  -17.0384  150.1078 O   0  0  0  0  0  0  0  0  0  0  0  0
  -26.8232  -17.2794  149.3706 O   0  0  0  0  0  0  0  0  0  0  0  0
  -25.9550  -12.8758  146.4168 C   0  0  0  0  0  0  0  0  0  0  0  0
  -27.3001  -12.5708  146.2315 C   0  0  0  0  0  0  0  0  0  0  0  0
  -28.3006  -13.1903  146.7875 C   0  0  0  0  0  0  0  0  0  0  0  0
  -29.6338  -12.5884  146.7340 C   0  0  0  0  0  0  0  0  0  0  0  0
  -29.7955  -11.3659  146.0478 C   0  0  0  0  0  0  0  0  0  0  0  0
  -28.6990  -10.7525  145.4169 C   0  0  0  0  0  0  0  0  0  0  0  0
  -27.4486  -11.3322  145.5231 C   0  0  0  0  0  0  0  0  0  0  0  0
  -30.7685  -13.3108  147.8086 Cl  0  0  0  0  0  0  0  0  0  0  0  0
  -29.0083   -9.5923  144.5843 C   0  0  0  0  0  0  0  0  0  0  0  0
  -30.2554   -9.2511  144.2168 C   0  0  0  0  0  0  0  0  0  0  0  0
  -31.1616   -9.8500  143.7054 C   0  0  0  0  0  0  0  0  0  0  0  0
  -32.3472   -9.2637  143.1422 C   0  0  0  0  0  0  0  0  0  0  0  0
  -31.9522   -8.5487  142.0914 N   0  0  0  0  0  0  0  0  0  0  0  0
  -30.7140   -7.9931  142.2314 C   0  0  0  0  0  0  0  0  0  0  0  0
  -29.7732   -7.7294  141.1408 C   0  0  0  0  0  0  0  0  0  0  0  0
  -29.3987   -6.4569  140.6988 C   0  0  0  0  0  0  0  0  0  0  0  0
  -30.3179   -7.9265  143.5190 N   0  0  0  0  0  0  0  0  0  0  0  0
  -29.2557   -8.7922  140.3714 C   0  0  0  0  0  0  0  0  0  0  0  0
  -28.4210   -8.6010  139.2964 C   0  0  0  0  0  0  0  0  0  0  0  0
  6  8  1  0
  8  9  2  0
  8 13  1  0
  4 14  1  0
 14 15  2  0
 14 16  1  0
  7 17  1  0
 17 18  1  0
 20 24  1  0
 22 25  1  0
 25 26  1  0
 30 31  1  0
 31 32  1  0
 31 34  1  0
 34 35  2  0
  1  2  2  0
  3 10  2  0
 10 11  1  0
 11 12  2  0
 12  1  1  0
  2  3  1  0
  3  4  1  0
  4  5  2  0
  5  7  1  0
  7  6  2  0
  6  2  1  0
 26 27  2  0
 27 28  1  0
 28 29  2  0
 29 30  1  0
 30 33  2  0
 33 26  1  0
 18 19  2  0
 19 20  1  0
 20 21  2  0
 21 22  1  0
 22 23  2  0
 23 18  1  0
M  END

$$$$
No_696-/dssg/home/sw_qyf/PocketFlow/Model-Generation-Results/5HT2A_7WC7_rec_A_10.pdb/2024-01-01-03-54-21/
     RDKit          3D

 32 33  0  0  0  0  0  0  0  0999 V2000
  -24.1553  -17.8465  145.7021 C   0  0  0  0  0  0  0  0  0  0  0  0
  -23.9795  -18.4462  146.7426 C   0  0  0  0  0  0  0  0  0  0  0  0
  -25.1593  -16.8262  145.6925 C   0  0  0  0  0  0  0  0  0  0  0  0
  -24.9465  -15.5961  144.9952 C   0  0  0  0  0  0  0  0  0  0  0  0
  -25.8339  -14.4742  145.0599 C   0  0  0  0  0  0  0  0  0  0  0  0
  -27.0182  -14.6297  145.8322 C   0  0  0  0  0  0  0  0  0  0  0  0
  -27.2859  -15.8685  146.4498 C   0  0  0  0  0  0  0  0  0  0  0  0
  -26.3483  -16.9196  146.4585 C   0  0  0  0  0  0  0  0  0  0  0  0
  -27.9961  -13.5424  145.8419 C   0  0  0  0  0  0  0  0  0  0  0  0
  -29.0217  -13.4392  146.8473 C   0  0  0  0  0  0  0  0  0  0  0  0
  -29.8025  -12.2563  146.9675 C   0  0  0  0  0  0  0  0  0  0  0  0
  -30.6782  -12.0647  148.0095 N   0  0  0  0  0  0  0  0  0  0  0  0
  -29.7151  -11.2640  146.1415 O   0  0  0  0  0  0  0  0  0  0  0  0
  -23.9825  -17.6743  148.0543 C   0  0  0  0  0  0  0  0  0  0  0  0
  -24.0716  -17.2386  148.9756 C   0  0  0  0  0  0  0  0  0  0  0  0
  -24.0022  -16.8485  150.4250 C   0  0  0  0  0  0  0  0  0  0  0  0
  -23.7881  -15.4147  144.2708 N   0  0  0  0  0  0  0  0  0  0  0  0
  -25.5763  -13.2912  144.3222 C   0  0  0  0  0  0  0  0  0  0  0  0
  -25.2284  -13.6116  143.2462 F   0  0  0  0  0  0  0  0  0  0  0  0
  -24.4887  -12.5537  144.8870 F   0  0  0  0  0  0  0  0  0  0  0  0
  -26.5258  -12.3791  144.2646 F   0  0  0  0  0  0  0  0  0  0  0  0
  -23.7231  -18.0929  144.5950 O   0  0  0  0  0  0  0  0  0  0  0  0
  -30.7809  -13.0340  149.0513 C   0  0  0  0  0  0  0  0  0  0  0  0
  -30.2661  -14.3463  148.7549 C   0  0  0  0  0  0  0  0  0  0  0  0
  -29.2727  -14.5039  147.7663 C   0  0  0  0  0  0  0  0  0  0  0  0
  -31.7644  -12.8873  149.9772 N   0  0  0  0  0  0  0  0  0  0  0  0
  -32.3007  -11.6374  150.2482 C   0  0  0  0  0  0  0  0  0  0  0  0
  -33.0857  -11.5698  151.5396 C   0  0  0  0  0  0  0  0  0  0  0  0
  -33.3762  -10.6001  152.0464 O   0  0  0  0  0  0  0  0  0  0  0  0
  -33.1385  -12.6667  152.2033 O   0  0  0  0  0  0  0  0  0  0  0  0
  -22.8450  -16.7976  151.0459 N   0  0  0  0  0  0  0  0  0  0  0  0
  -25.1361  -16.9849  151.1180 O   0  0  0  0  0  0  0  0  0  0  0  0
  1  2  1  0
  1  3  1  0
  6  9  1  0
 10 11  1  0
 11 12  1  0
 11 13  2  0
  2 14  1  0
 14 15  3  0
 15 16  1  0
  4 17  1  0
  5 18  1  0
 18 19  1  0
 18 20  1  0
 18 21  1  0
  1 22  2  0
 12 23  1  0
 10 25  1  0
 24 25  1  0
 23 26  1  0
 26 27  1  0
 27 28  2  3
 28 29  1  0
 28 30  1  0
 16 31  1  0
 16 32  2  0
  9 10  1  0
 24 23  1  0
  3  4  2  0
  4  5  1  0
  5  6  2  0
  6  7  1  0
  7  8  2  0
  8  3  1  0
M  END

$$$$
No_697-/dssg/home/sw_qyf/PocketFlow/Model-Generation-Results/5HT2A_7WC7_rec_A_10.pdb/2024-01-01-03-54-21/
     RDKit          3D

 24 25  0  0  0  0  0  0  0  0999 V2000
  -23.1746  -16.6014  144.8668 C   0  0  0  0  0  0  0  0  0  0  0  0
  -23.8963  -15.5346  144.7885 C   0  0  0  0  0  0  0  0  0  0  0  0
  -24.5755  -15.0383  145.9043 C   0  0  0  0  0  0  0  0  0  0  0  0
  -24.8345  -15.9108  146.9141 C   0  0  0  0  0  0  0  0  0  0  0  0
  -24.2398  -17.1433  146.9649 C   0  0  0  0  0  0  0  0  0  0  0  0
  -23.4221  -17.5266  145.9093 C   0  0  0  0  0  0  0  0  0  0  0  0
  -25.2512  -13.6667  145.8878 C   0  0  0  0  0  0  0  0  0  0  0  0
  -24.5224  -12.6898  145.5986 C   0  0  0  0  0  0  0  0  0  0  0  0
  -25.0421  -11.3158  145.5200 C   0  0  0  0  0  0  0  0  0  0  0  0
  -26.4693  -11.1891  145.6608 C   0  0  0  0  0  0  0  0  0  0  0  0
  -27.2168  -12.2972  146.1095 C   0  0  0  0  0  0  0  0  0  0  0  0
  -26.6236  -13.5906  146.1745 C   0  0  0  0  0  0  0  0  0  0  0  0
  -28.6716  -12.0815  146.3070 C   0  0  0  0  0  0  0  0  0  0  0  0
  -28.9914  -12.2984  147.5629 F   0  0  0  0  0  0  0  0  0  0  0  0
  -29.0685  -10.7378  146.0842 F   0  0  0  0  0  0  0  0  0  0  0  0
  -29.3868  -12.8315  145.5112 F   0  0  0  0  0  0  0  0  0  0  0  0
  -24.3459  -18.0660  148.1409 C   0  0  0  0  0  0  0  0  0  0  0  0
  -23.3071  -18.1117  148.9399 F   0  0  0  0  0  0  0  0  0  0  0  0
  -25.4079  -17.4738  148.9546 F   0  0  0  0  0  0  0  0  0  0  0  0
  -23.0419  -12.7097  145.2987 C   0  0  0  0  0  0  0  0  0  0  0  0
  -22.5823  -11.9388  144.0965 C   0  0  0  0  0  0  0  0  0  0  0  0
  -24.6755  -19.2090  147.7216 F   0  0  0  0  0  0  0  0  0  0  0  0
  -21.3842  -12.3911  143.6850 O   0  0  0  0  0  0  0  0  0  0  0  0
  -23.0165  -10.8156  144.0811 O   0  0  0  0  0  0  0  0  0  0  0  0
  3  7  1  0
 11 13  1  0
 13 14  1  0
 13 15  1  0
 13 16  1  0
  5 17  1  0
 17 18  1  0
 17 19  1  0
  8 20  1  0
 20 21  1  0
 17 22  1  0
 21 23  1  0
 21 24  2  0
  1  2  2  0
  2  3  1  0
  3  4  2  0
  4  5  1  0
  5  6  2  0
  6  1  1  0
  7  8  2  0
  8  9  1  0
  9 10  2  0
 10 11  1  0
 11 12  2  0
 12  7  1  0
M  END

$$$$
No_698-/dssg/home/sw_qyf/PocketFlow/Model-Generation-Results/5HT2A_7WC7_rec_A_10.pdb/2024-01-01-03-54-21/
     RDKit          3D

 21 22  0  0  0  0  0  0  0  0999 V2000
  -24.1553  -17.8465  145.7021 C   0  0  0  0  0  0  0  0  0  0  0  0
  -24.6364  -17.2931  146.7091 C   0  0  0  0  0  0  0  0  0  0  0  0
  -25.8608  -16.5592  146.5934 C   0  0  0  0  0  0  0  0  0  0  0  0
  -25.9088  -15.1597  146.9911 C   0  0  0  0  0  0  0  0  0  0  0  0
  -24.6057  -14.5448  146.9210 C   0  0  0  0  0  0  0  0  0  0  0  0
  -24.4123  -13.6315  145.8036 C   0  0  0  0  0  0  0  0  0  0  0  0
  -23.2586  -13.5987  145.0920 C   0  0  0  0  0  0  0  0  0  0  0  0
  -25.4791  -12.7118  145.5281 C   0  0  0  0  0  0  0  0  0  0  0  0
  -26.3720  -12.8211  144.9438 C   0  0  0  0  0  0  0  0  0  0  0  0
  -27.3187  -12.2566  144.8277 C   0  0  0  0  0  0  0  0  0  0  0  0
  -28.6870  -12.5704  144.3596 C   0  0  0  0  0  0  0  0  0  0  0  0
  -22.7921  -12.3044  144.6403 C   0  0  0  0  0  0  0  0  0  0  0  0
  -27.1917  -10.6936  144.9459 C   0  0  0  0  0  0  0  0  0  0  0  0
  -25.9544  -10.2297  145.3618 C   0  0  0  0  0  0  0  0  0  0  0  0
  -24.9987  -11.2685  145.7582 C   0  0  0  0  0  0  0  0  0  0  0  0
  -26.9967  -17.3521  147.2511 C   0  0  0  0  0  0  0  0  0  0  0  0
  -28.2269  -16.4664  147.4908 C   0  0  0  0  0  0  0  0  0  0  0  0
  -28.3452  -15.1967  146.9927 C   0  0  0  0  0  0  0  0  0  0  0  0
  -27.0948  -14.4046  147.1794 C   0  0  0  0  0  0  0  0  0  0  0  0
  -23.0438  -18.7835  145.8696 C   0  0  0  0  0  0  0  0  0  0  0  0
  -23.0467  -18.9073  147.1190 C   0  0  0  0  0  0  0  0  0  0  0  0
  1  2  1  0
  2  3  1  0
  4  5  1  0
  5  6  1  0
  6  7  2  3
  6  8  1  0
 10 11  1  0
  7 12  1  0
  1 20  2  3
 20 21  1  0
  3  4  2  0
  4 19  1  0
 19 18  2  0
 18 17  1  0
 17 16  2  0
 16  3  1  0
  8  9  2  0
  9 10  1  0
 10 13  2  0
 13 14  1  0
 14 15  2  0
 15  8  1  0
M  END

$$$$
No_699-/dssg/home/sw_qyf/PocketFlow/Model-Generation-Results/5HT2A_7WC7_rec_A_10.pdb/2024-01-01-03-54-21/
     RDKit          3D

 32 35  0  0  0  0  0  0  0  0999 V2000
  -23.1746  -16.6014  144.8668 C   0  0  0  0  0  0  0  0  0  0  0  0
  -24.0189  -16.0564  145.8445 C   0  0  0  0  0  0  0  0  0  0  0  0
  -24.4145  -16.8299  146.9062 C   0  0  0  0  0  0  0  0  0  0  0  0
  -25.2273  -16.2787  147.9854 C   0  0  0  0  0  0  0  0  0  0  0  0
  -25.7358  -15.0095  147.7773 C   0  0  0  0  0  0  0  0  0  0  0  0
  -25.3901  -14.2337  146.6672 C   0  0  0  0  0  0  0  0  0  0  0  0
  -24.5390  -14.7030  145.7350 C   0  0  0  0  0  0  0  0  0  0  0  0
  -24.1465  -13.8569  144.6317 C   0  0  0  0  0  0  0  0  0  0  0  0
  -24.8498  -13.1443  144.0082 C   0  0  0  0  0  0  0  0  0  0  0  0
  -25.9122  -12.4896  144.7973 C   0  0  0  0  0  0  0  0  0  0  0  0
  -26.8655  -11.5527  144.2452 C   0  0  0  0  0  0  0  0  0  0  0  0
  -26.5357  -10.5022  143.9931 C   0  0  0  0  0  0  0  0  0  0  0  0
  -26.2715  -13.1584  146.1616 C   0  0  0  0  0  0  0  0  0  0  0  0
  -27.4554   -9.5791  144.2411 C   0  0  0  0  0  0  0  0  0  0  0  0
  -28.7311   -9.8313  143.9067 C   0  0  0  0  0  0  0  0  0  0  0  0
  -29.7906   -8.8461  144.0497 C   0  0  0  0  0  0  0  0  0  0  0  0
  -28.2951  -11.5993  144.4925 C   0  0  0  0  0  0  0  0  0  0  0  0
  -31.0753   -9.0401  143.3310 C   0  0  0  0  0  0  0  0  0  0  0  0
  -31.0600   -9.8030  142.3947 O   0  0  0  0  0  0  0  0  0  0  0  0
  -23.7176  -18.3869  147.1809 Cl  0  0  0  0  0  0  0  0  0  0  0  0
  -31.9214   -8.0614  143.3682 O   0  0  0  0  0  0  0  0  0  0  0  0
  -25.5408  -17.0564  149.2124 C   0  0  0  0  0  0  0  0  0  0  0  0
  -26.7129  -17.0630  149.4626 F   0  0  0  0  0  0  0  0  0  0  0  0
  -25.0001  -18.2738  149.2276 F   0  0  0  0  0  0  0  0  0  0  0  0
  -24.8194  -16.3829  150.2236 F   0  0  0  0  0  0  0  0  0  0  0  0
  -27.2167  -12.6469  146.8637 O   0  0  0  0  0  0  0  0  0  0  0  0
  -23.6253  -17.6354  144.2406 O   0  0  0  0  0  0  0  0  0  0  0  0
  -22.2289  -16.0011  144.4104 O   0  0  0  0  0  0  0  0  0  0  0  0
  -29.0467  -10.4595  142.7603 C   0  0  0  0  0  0  0  0  0  0  0  0
  -29.6107   -9.5687  141.5830 Cl  0  0  0  0  0  0  0  0  0  0  0  0
  -32.0525  -10.9966  142.0677 Cl  0  0  0  0  0  0  0  0  0  0  0  0
  -28.5184  -11.7553  142.6258 C   0  0  0  0  0  0  0  0  0  0  0  0
  1  2  1  0
  7  8  1  0
  9 10  1  0
 10 11  1  0
 11 12  1  0
  6 13  1  0
 10 13  1  0
 12 14  2  0
 14 15  1  0
 15 16  1  0
 11 17  1  0
 15 17  1  0
 16 18  1  0
 18 19  1  0
  3 20  1  0
 18 21  2  0
  4 22  1  0
 22 23  1  0
 22 24  1  0
 22 25  1  0
 13 26  2  0
  1 27  1  0
  1 28  2  0
 15 29  1  0
 29 30  1  0
 19 31  1  0
 17 32  1  0
 29 32  1  0
  8  9  1  0
  2  3  2  0
  3  4  1  0
  4  5  2  0
  5  6  1  0
  6  7  2  0
  7  2  1  0
M  END

$$$$
No_700-/dssg/home/sw_qyf/PocketFlow/Model-Generation-Results/5HT2A_7WC7_rec_A_10.pdb/2024-01-01-03-54-21/
     RDKit          3D

 18 19  0  0  0  0  0  0  0  0999 V2000
  -24.1553  -17.8465  145.7021 C   0  0  0  0  0  0  0  0  0  0  0  0
  -24.2855  -16.6364  145.3494 C   0  0  0  0  0  0  0  0  0  0  0  0
  -25.0033  -15.6772  146.0737 C   0  0  0  0  0  0  0  0  0  0  0  0
  -25.7223  -16.0755  147.0215 C   0  0  0  0  0  0  0  0  0  0  0  0
  -24.8890  -18.3427  146.7819 C   0  0  0  0  0  0  0  0  0  0  0  0
  -25.6059  -17.4168  147.5659 C   0  0  0  0  0  0  0  0  0  0  0  0
  -23.4105  -16.2273  144.3192 F   0  0  0  0  0  0  0  0  0  0  0  0
  -24.9739  -14.2285  145.5991 C   0  0  0  0  0  0  0  0  0  0  0  0
  -23.9571  -13.4876  146.0281 C   0  0  0  0  0  0  0  0  0  0  0  0
  -23.8523  -12.0662  145.6284 C   0  0  0  0  0  0  0  0  0  0  0  0
  -25.8759  -13.8326  144.6962 C   0  0  0  0  0  0  0  0  0  0  0  0
  -26.4163  -12.4833  144.6511 C   0  0  0  0  0  0  0  0  0  0  0  0
  -25.3288  -11.5329  145.0152 C   0  0  0  0  0  0  0  0  0  0  0  0
  -27.5882  -12.0407  144.1464 C   0  0  0  0  0  0  0  0  0  0  0  0
  -28.5656  -11.5943  145.1988 C   0  0  0  0  0  0  0  0  0  0  0  0
  -28.6804  -12.0650  146.5354 C   0  0  0  0  0  0  0  0  0  0  0  0
  -29.7440  -11.7435  147.3758 C   0  0  0  0  0  0  0  0  0  0  0  0
  -29.8732  -12.3537  148.5769 N   0  0  0  0  0  0  0  0  0  0  0  0
  2  7  1  0
  3  8  1  0
 12 14  1  0
 14 15  2  3
 15 16  1  0
 16 17  2  3
 17 18  1  0
  8  9  2  0
  9 10  1  0
 10 13  2  0
 13 12  1  0
 12 11  2  0
 11  8  1  0
  1  2  2  0
  2  3  1  0
  3  4  2  0
  4  6  1  0
  6  5  2  0
  5  1  1  0
M  END

$$$$
No_701-/dssg/home/sw_qyf/PocketFlow/Model-Generation-Results/5HT2A_7WC7_rec_A_10.pdb/2024-01-01-03-54-21/
     RDKit          3D

 28 30  0  0  0  0  0  0  0  0999 V2000
  -24.1553  -17.8465  145.7021 C   0  0  0  0  0  0  0  0  0  0  0  0
  -24.2856  -16.6364  145.3494 C   0  0  0  0  0  0  0  0  0  0  0  0
  -25.0033  -15.6772  146.0737 C   0  0  0  0  0  0  0  0  0  0  0  0
  -25.7224  -16.0756  147.0213 C   0  0  0  0  0  0  0  0  0  0  0  0
  -24.8891  -18.3427  146.7818 C   0  0  0  0  0  0  0  0  0  0  0  0
  -25.6060  -17.4168  147.5658 C   0  0  0  0  0  0  0  0  0  0  0  0
  -23.5635  -16.0962  144.2194 N   0  0  0  0  0  0  0  0  0  0  0  0
  -24.9768  -14.2869  145.3491 C   0  0  0  0  0  0  0  0  0  0  0  0
  -25.7217  -13.2858  146.0799 C   0  0  0  0  0  0  0  0  0  0  0  0
  -25.5940  -11.9582  145.7595 C   0  0  0  0  0  0  0  0  0  0  0  0
  -24.2119  -13.9318  144.3233 C   0  0  0  0  0  0  0  0  0  0  0  0
  -23.4573  -14.8855  143.8298 N   0  0  0  0  0  0  0  0  0  0  0  0
  -26.6736  -11.0105  146.0906 C   0  0  0  0  0  0  0  0  0  0  0  0
  -26.7720   -9.9760  145.1002 C   0  0  0  0  0  0  0  0  0  0  0  0
  -28.0648   -9.6439  144.6031 C   0  0  0  0  0  0  0  0  0  0  0  0
  -29.1252  -10.4382  144.9939 C   0  0  0  0  0  0  0  0  0  0  0  0
  -29.0479  -11.3871  146.0930 C   0  0  0  0  0  0  0  0  0  0  0  0
  -30.1545  -12.1131  146.6133 C   0  0  0  0  0  0  0  0  0  0  0  0
  -27.7422  -11.7489  146.5844 C   0  0  0  0  0  0  0  0  0  0  0  0
  -29.8067  -12.7731  147.9652 C   0  0  0  0  0  0  0  0  0  0  0  0
  -30.5456  -14.0649  148.1124 C   0  0  0  0  0  0  0  0  0  0  0  0
  -29.6315  -15.1734  148.4682 C   0  0  0  0  0  0  0  0  0  0  0  0
  -28.5348  -15.4282  147.6683 C   0  0  0  0  0  0  0  0  0  0  0  0
  -28.3240  -14.9189  146.5110 N   0  0  0  0  0  0  0  0  0  0  0  0
  -30.4708  -10.0593  144.4660 C   0  0  0  0  0  0  0  0  0  0  0  0
  -30.4523   -9.6773  143.1313 C   0  0  0  0  0  0  0  0  0  0  0  0
  -29.6109  -10.0411  142.3549 O   0  0  0  0  0  0  0  0  0  0  0  0
  -31.4459   -8.9195  142.6692 N   0  0  0  0  0  0  0  0  0  0  0  0
  2  7  1  0
  3  8  1  0
  8  9  1  0
  9 10  2  3
  8 11  1  0
  7 12  1  0
 11 12  1  0
 10 13  1  0
 17 18  1  0
 18 20  1  0
 20 21  1  0
 21 22  1  0
 22 23  2  3
 23 24  1  0
 16 25  1  0
 25 26  1  0
 26 27  2  0
 26 28  1  0
  1  2  2  0
  2  3  1  0
  3  4  2  0
  4  6  1  0
  6  5  2  0
  5  1  1  0
 13 14  2  0
 14 15  1  0
 15 16  2  0
 16 17  1  0
 17 19  2  0
 19 13  1  0
M  END

$$$$
No_702-/dssg/home/sw_qyf/PocketFlow/Model-Generation-Results/5HT2A_7WC7_rec_A_10.pdb/2024-01-01-03-54-21/
     RDKit          3D

 13 14  0  0  0  0  0  0  0  0999 V2000
  -24.1553  -17.8465  145.7021 C   0  0  0  0  0  0  0  0  0  0  0  0
  -24.2856  -16.6364  145.3494 C   0  0  0  0  0  0  0  0  0  0  0  0
  -25.0033  -15.6772  146.0737 C   0  0  0  0  0  0  0  0  0  0  0  0
  -25.1197  -14.2835  145.7299 C   0  0  0  0  0  0  0  0  0  0  0  0
  -25.8358  -13.3153  146.4318 C   0  0  0  0  0  0  0  0  0  0  0  0
  -24.7888  -18.3277  146.8665 C   0  0  0  0  0  0  0  0  0  0  0  0
  -25.5122  -17.4898  147.6544 C   0  0  0  0  0  0  0  0  0  0  0  0
  -25.6629  -16.1113  147.2980 C   0  0  0  0  0  0  0  0  0  0  0  0
  -25.7516  -11.9698  146.1143 C   0  0  0  0  0  0  0  0  0  0  0  0
  -24.9390  -11.5123  145.0695 C   0  0  0  0  0  0  0  0  0  0  0  0
  -24.2364  -13.7834  144.6404 C   0  0  0  0  0  0  0  0  0  0  0  0
  -24.0394  -12.3751  144.4855 C   0  0  0  0  0  0  0  0  0  0  0  0
  -23.7046  -16.2021  144.1782 N   0  0  0  0  0  0  0  0  0  0  0  0
  3  4  1  0
  2 13  1  0
  1  2  2  0
  2  3  1  0
  3  8  2  0
  8  7  1  0
  7  6  2  0
  6  1  1  0
  4  5  2  0
  5  9  1  0
  9 10  2  0
 10 12  1  0
 12 11  2  0
 11  4  1  0
M  END

$$$$
No_703-/dssg/home/sw_qyf/PocketFlow/Model-Generation-Results/5HT2A_7WC7_rec_A_10.pdb/2024-01-01-03-54-21/
     RDKit          3D

 35 37  0  0  0  0  0  0  0  0999 V2000
  -23.1746  -16.6014  144.8668 C   0  0  0  0  0  0  0  0  0  0  0  0
  -23.7011  -17.0158  145.9774 C   0  0  0  0  0  0  0  0  0  0  0  0
  -23.7336  -18.2775  146.3737 C   0  0  0  0  0  0  0  0  0  0  0  0
  -24.1960  -18.6445  147.6858 C   0  0  0  0  0  0  0  0  0  0  0  0
  -24.7100  -17.6145  148.5486 C   0  0  0  0  0  0  0  0  0  0  0  0
  -24.7929  -16.2635  148.0870 C   0  0  0  0  0  0  0  0  0  0  0  0
  -24.2508  -15.9434  146.8891 C   0  0  0  0  0  0  0  0  0  0  0  0
  -23.5534  -15.6011  144.1530 N   0  0  0  0  0  0  0  0  0  0  0  0
  -24.4584  -14.6996  144.7863 C   0  0  0  0  0  0  0  0  0  0  0  0
  -24.7552  -14.7347  146.1627 C   0  0  0  0  0  0  0  0  0  0  0  0
  -24.8078  -13.2427  143.9324 Cl  0  0  0  0  0  0  0  0  0  0  0  0
  -23.0319  -19.2779  145.8968 O   0  0  0  0  0  0  0  0  0  0  0  0
  -25.2801  -18.0505  150.1062 Cl  0  0  0  0  0  0  0  0  0  0  0  0
  -25.3347  -13.8025  146.8585 F   0  0  0  0  0  0  0  0  0  0  0  0
  -23.7708  -20.4041  145.6164 C   0  0  0  0  0  0  0  0  0  0  0  0
  -25.2199  -20.2650  145.4931 C   0  0  0  0  0  0  0  0  0  0  0  0
  -25.5834  -19.4517  146.5080 O   0  0  0  0  0  0  0  0  0  0  0  0
  -26.5429  -18.6217  146.5544 C   0  0  0  0  0  0  0  0  0  0  0  0
  -26.7682  -17.8031  145.3749 C   0  0  0  0  0  0  0  0  0  0  0  0
  -27.8186  -16.7719  145.5282 C   0  0  0  0  0  0  0  0  0  0  0  0
  -27.8244  -15.9369  146.7475 C   0  0  0  0  0  0  0  0  0  0  0  0
  -28.8412  -14.9151  146.8727 C   0  0  0  0  0  0  0  0  0  0  0  0
  -28.6023  -13.5312  146.5546 C   0  0  0  0  0  0  0  0  0  0  0  0
  -29.2278  -12.5365  146.8648 C   0  0  0  0  0  0  0  0  0  0  0  0
  -30.3017  -12.6466  147.9086 C   0  0  0  0  0  0  0  0  0  0  0  0
  -30.4504  -13.9451  148.4556 C   0  0  0  0  0  0  0  0  0  0  0  0
  -29.6307  -15.0228  148.0172 C   0  0  0  0  0  0  0  0  0  0  0  0
  -29.1352  -11.2357  146.2992 N   0  0  0  0  0  0  0  0  0  0  0  0
  -29.2803  -10.9823  144.9494 C   0  0  0  0  0  0  0  0  0  0  0  0
  -29.7572   -9.9009  144.8379 F   0  0  0  0  0  0  0  0  0  0  0  0
  -28.6868  -11.5804  144.0747 N   0  0  0  0  0  0  0  0  0  0  0  0
  -28.6848  -11.1792  142.7613 C   0  0  0  0  0  0  0  0  0  0  0  0
  -27.9192  -11.7822  141.6710 C   0  0  0  0  0  0  0  0  0  0  0  0
  -27.9656  -11.2751  140.4059 C   0  0  0  0  0  0  0  0  0  0  0  0
  -28.4553   -9.9362  140.1913 C   0  0  0  0  0  0  0  0  0  0  0  0
  9 11  1  0
  3 12  1  0
  5 13  1  0
 10 14  1  0
 12 15  1  0
 15 16  1  0
 16 17  1  0
 17 18  1  0
 18 19  2  3
 19 20  1  0
 20 21  1  0
 21 22  1  0
 24 28  1  0
 28 29  1  0
 29 30  1  0
 29 31  2  3
 31 32  1  0
 32 33  3  0
 33 34  1  0
 34 35  2  0
  2  3  1  0
  3  4  2  0
  4  5  1  0
  5  6  2  0
  6  7  1  0
 22 23  2  0
 23 24  1  0
 24 25  2  0
 25 26  1  0
 26 27  2  0
 27 22  1  0
  1  2  2  0
  2  7  1  0
  7 10  2  0
 10  9  1  0
  9  8  2  0
  8  1  1  0
M  END

$$$$
No_704-/dssg/home/sw_qyf/PocketFlow/Model-Generation-Results/5HT2A_7WC7_rec_A_10.pdb/2024-01-01-03-54-21/
     RDKit          3D

 23 24  0  0  0  0  0  0  0  0999 V2000
  -24.1553  -17.8465  145.7021 C   0  0  0  0  0  0  0  0  0  0  0  0
  -24.6364  -17.2931  146.7091 C   0  0  0  0  0  0  0  0  0  0  0  0
  -25.8608  -16.5592  146.5934 C   0  0  0  0  0  0  0  0  0  0  0  0
  -25.9534  -15.5604  145.6681 C   0  0  0  0  0  0  0  0  0  0  0  0
  -24.8399  -15.4389  144.8356 C   0  0  0  0  0  0  0  0  0  0  0  0
  -24.5580  -14.2217  144.0705 C   0  0  0  0  0  0  0  0  0  0  0  0
  -23.8527  -16.5536  144.7973 C   0  0  0  0  0  0  0  0  0  0  0  0
  -25.2639  -13.9868  143.1102 O   0  0  0  0  0  0  0  0  0  0  0  0
  -23.5889  -13.3785  144.4990 O   0  0  0  0  0  0  0  0  0  0  0  0
  -26.9337  -14.5330  145.6964 C   0  0  0  0  0  0  0  0  0  0  0  0
  -28.0179  -14.6124  146.6444 C   0  0  0  0  0  0  0  0  0  0  0  0
  -28.9885  -13.6277  146.7439 C   0  0  0  0  0  0  0  0  0  0  0  0
  -28.8572  -12.4023  146.1527 C   0  0  0  0  0  0  0  0  0  0  0  0
  -27.8077  -12.2566  145.1522 C   0  0  0  0  0  0  0  0  0  0  0  0
  -27.6302  -11.0564  144.4238 C   0  0  0  0  0  0  0  0  0  0  0  0
  -28.1976   -9.8698  144.8414 C   0  0  0  0  0  0  0  0  0  0  0  0
  -26.9264  -13.2577  145.0135 C   0  0  0  0  0  0  0  0  0  0  0  0
  -28.4209   -8.8490  143.8319 C   0  0  0  0  0  0  0  0  0  0  0  0
  -28.9497   -9.1723  142.5152 C   0  0  0  0  0  0  0  0  0  0  0  0
  -28.0812  -10.0467  141.7945 C   0  0  0  0  0  0  0  0  0  0  0  0
  -28.2090  -10.6854  141.0265 C   0  0  0  0  0  0  0  0  0  0  0  0
  -27.5602  -11.3160  140.0930 C   0  0  0  0  0  0  0  0  0  0  0  0
  -27.7101  -12.5712  139.4833 C   0  0  0  0  0  0  0  0  0  0  0  0
  1  2  1  0
  2  3  1  0
  3  4  1  0
  4  5  1  0
  5  6  2  3
  1  7  1  0
  5  7  1  0
  6  8  1  0
  6  9  1  0
  4 10  1  0
 14 15  1  0
 15 16  2  3
 16 18  1  0
 18 19  1  0
 19 20  1  0
 20 21  1  0
 21 22  2  3
 22 23  1  0
 10 11  2  0
 11 12  1  0
 12 13  2  0
 13 14  1  0
 14 17  2  0
 17 10  1  0
M  END

$$$$
No_705-/dssg/home/sw_qyf/PocketFlow/Model-Generation-Results/5HT2A_7WC7_rec_A_10.pdb/2024-01-01-03-54-21/
     RDKit          3D

 14 13  0  0  0  0  0  0  0  0999 V2000
  -23.1746  -16.6014  144.8668 C   0  0  0  0  0  0  0  0  0  0  0  0
  -23.8963  -15.5346  144.7885 C   0  0  0  0  0  0  0  0  0  0  0  0
  -23.6398  -14.5115  145.3281 C   0  0  0  0  0  0  0  0  0  0  0  0
  -24.3866  -13.2477  145.3906 C   0  0  0  0  0  0  0  0  0  0  0  0
  -23.7391  -12.0982  145.9891 C   0  0  0  0  0  0  0  0  0  0  0  0
  -25.7153  -13.1102  144.9365 C   0  0  0  0  0  0  0  0  0  0  0  0
  -26.3727  -11.9055  145.3022 C   0  0  0  0  0  0  0  0  0  0  0  0
  -27.6422  -11.9421  145.7302 C   0  0  0  0  0  0  0  0  0  0  0  0
  -28.1010  -12.7910  146.7611 C   0  0  0  0  0  0  0  0  0  0  0  0
  -29.4752  -12.8478  147.1802 C   0  0  0  0  0  0  0  0  0  0  0  0
  -29.9819  -13.6922  148.1525 C   0  0  0  0  0  0  0  0  0  0  0  0
  -31.1160  -13.3690  148.8890 C   0  0  0  0  0  0  0  0  0  0  0  0
  -31.5519  -12.0433  148.9029 C   0  0  0  0  0  0  0  0  0  0  0  0
  -32.7162  -11.7731  149.6875 C   0  0  0  0  0  0  0  0  0  0  0  0
  1  2  1  0
  2  3  2  3
  3  4  1  0
  4  5  1  0
  4  6  1  0
  6  7  1  0
  7  8  1  0
  8  9  2  3
  9 10  1  0
 10 11  1  0
 11 12  1  0
 12 13  2  3
 13 14  1  0
M  END

$$$$
No_706-/dssg/home/sw_qyf/PocketFlow/Model-Generation-Results/5HT2A_7WC7_rec_A_10.pdb/2024-01-01-03-54-21/
     RDKit          3D

 35 36  0  0  0  0  0  0  0  0999 V2000
  -23.1746  -16.6014  144.8668 C   0  0  0  0  0  0  0  0  0  0  0  0
  -23.8963  -15.5346  144.7885 C   0  0  0  0  0  0  0  0  0  0  0  0
  -25.0304  -15.2549  144.5358 C   0  0  0  0  0  0  0  0  0  0  0  0
  -25.8853  -14.7934  145.2672 C   0  0  0  0  0  0  0  0  0  0  0  0
  -25.4331  -13.6599  146.1680 C   0  0  0  0  0  0  0  0  0  0  0  0
  -26.1027  -12.7954  146.8877 C   0  0  0  0  0  0  0  0  0  0  0  0
  -23.9269  -13.5651  146.3298 C   0  0  0  0  0  0  0  0  0  0  0  0
  -23.1862  -14.5121  145.6309 C   0  0  0  0  0  0  0  0  0  0  0  0
  -26.1544  -11.4070  146.3104 C   0  0  0  0  0  0  0  0  0  0  0  0
  -27.1655  -11.1275  145.2583 C   0  0  0  0  0  0  0  0  0  0  0  0
  -28.4200  -11.5393  145.4771 C   0  0  0  0  0  0  0  0  0  0  0  0
  -29.4594  -11.0229  144.5746 C   0  0  0  0  0  0  0  0  0  0  0  0
  -29.0392  -10.3778  143.4013 C   0  0  0  0  0  0  0  0  0  0  0  0
  -27.6803  -10.1996  143.1436 C   0  0  0  0  0  0  0  0  0  0  0  0
  -26.7384  -10.4280  144.1247 C   0  0  0  0  0  0  0  0  0  0  0  0
  -30.0676  -10.0439  142.4059 C   0  0  0  0  0  0  0  0  0  0  0  0
  -30.4024   -8.5848  142.3668 C   0  0  0  0  0  0  0  0  0  0  0  0
  -29.4061   -7.7102  142.1297 C   0  0  0  0  0  0  0  0  0  0  0  0
  -28.9491   -7.5078  140.8318 C   0  0  0  0  0  0  0  0  0  0  0  0
  -28.5078   -8.6483  140.1158 C   0  0  0  0  0  0  0  0  0  0  0  0
  -28.2210   -8.5317  138.7030 C   0  0  0  0  0  0  0  0  0  0  0  0
  -31.7838   -8.2497  142.5739 C   0  0  0  0  0  0  0  0  0  0  0  0
  -23.2679  -17.5385  145.7283 O   0  0  0  0  0  0  0  0  0  0  0  0
  -28.7756   -9.2892  137.8132 C   0  0  0  0  0  0  0  0  0  0  0  0
  -29.0074   -8.7263  136.4666 C   0  0  0  0  0  0  0  0  0  0  0  0
  -27.3631  -14.7540  145.1289 C   0  0  0  0  0  0  0  0  0  0  0  0
  -29.5432   -9.5554  135.6774 O   0  0  0  0  0  0  0  0  0  0  0  0
  -32.5614   -9.2275  142.9331 O   0  0  0  0  0  0  0  0  0  0  0  0
  -23.4458  -17.0864  147.0109 C   0  0  0  0  0  0  0  0  0  0  0  0
  -24.5872  -17.8546  147.7297 C   0  0  0  0  0  0  0  0  0  0  0  0
  -25.4248  -16.7872  148.3320 C   0  0  0  0  0  0  0  0  0  0  0  0
  -25.2848  -16.5072  149.4966 O   0  0  0  0  0  0  0  0  0  0  0  0
  -26.3539  -16.3584  147.6617 O   0  0  0  0  0  0  0  0  0  0  0  0
  -22.6589  -16.9949  143.6616 O   0  0  0  0  0  0  0  0  0  0  0  0
  -28.5909   -7.6234  136.1403 O   0  0  0  0  0  0  0  0  0  0  0  0
  1  2  1  0
  5  6  1  0
  6  9  1  0
  9 10  1  0
 13 16  1  0
 16 17  1  0
 17 18  1  0
 18 19  1  0
 19 20  1  0
 20 21  2  3
 17 22  1  0
  1 23  1  0
 21 24  1  0
 24 25  2  3
  4 26  1  0
 25 27  1  0
 22 28  1  0
 23 29  1  0
 29 30  1  0
 30 31  1  0
 31 32  1  0
 31 33  2  0
  1 34  2  0
 25 35  1  0
 10 11  2  0
 11 12  1  0
 12 13  2  0
 13 14  1  0
 14 15  2  0
 15 10  1  0
  2  3  2  0
  3  4  1  0
  4  5  2  0
  5  7  1  0
  7  8  2  0
  8  2  1  0
M  END

$$$$
No_707-/dssg/home/sw_qyf/PocketFlow/Model-Generation-Results/5HT2A_7WC7_rec_A_10.pdb/2024-01-01-03-54-21/
     RDKit          3D

  8  8  0  0  0  0  0  0  0  0999 V2000
  -24.1553  -17.8465  145.7021 C   0  0  0  0  0  0  0  0  0  0  0  0
  -24.6364  -17.2931  146.7091 C   0  0  0  0  0  0  0  0  0  0  0  0
  -24.5709  -15.9334  146.8074 C   0  0  0  0  0  0  0  0  0  0  0  0
  -24.2378  -15.1233  145.7159 C   0  0  0  0  0  0  0  0  0  0  0  0
  -23.7252  -15.7878  144.6028 C   0  0  0  0  0  0  0  0  0  0  0  0
  -23.3537  -15.0114  143.5743 N   0  0  0  0  0  0  0  0  0  0  0  0
  -23.7252  -17.1045  144.5945 C   0  0  0  0  0  0  0  0  0  0  0  0
  -24.0940  -19.2672  145.6446 N   0  0  0  0  0  0  0  0  0  0  0  0
  5  6  1  0
  1  8  1  0
  1  2  2  0
  2  3  1  0
  3  4  2  0
  4  5  1  0
  5  7  2  0
  7  1  1  0
M  END

$$$$
No_708-/dssg/home/sw_qyf/PocketFlow/Model-Generation-Results/5HT2A_7WC7_rec_A_10.pdb/2024-01-01-03-54-21/
     RDKit          3D

 35 36  0  0  0  0  0  0  0  0999 V2000
  -24.1553  -17.8465  145.7021 C   0  0  0  0  0  0  0  0  0  0  0  0
  -24.2856  -16.6364  145.3494 C   0  0  0  0  0  0  0  0  0  0  0  0
  -24.7211  -15.5955  146.2116 C   0  0  0  0  0  0  0  0  0  0  0  0
  -24.8538  -14.2010  145.8739 C   0  0  0  0  0  0  0  0  0  0  0  0
  -24.1440  -13.8321  144.7074 C   0  0  0  0  0  0  0  0  0  0  0  0
  -24.2797  -12.6262  144.3720 F   0  0  0  0  0  0  0  0  0  0  0  0
  -24.6318  -18.2734  146.9577 C   0  0  0  0  0  0  0  0  0  0  0  0
  -25.1500  -17.4042  147.9163 C   0  0  0  0  0  0  0  0  0  0  0  0
  -25.2214  -16.0045  147.5630 C   0  0  0  0  0  0  0  0  0  0  0  0
  -24.6275  -14.4884  143.6143 F   0  0  0  0  0  0  0  0  0  0  0  0
  -22.7565  -14.1191  144.6587 F   0  0  0  0  0  0  0  0  0  0  0  0
  -25.4711  -17.7073  149.3363 C   0  0  0  0  0  0  0  0  0  0  0  0
  -26.5209  -18.1577  149.5090 F   0  0  0  0  0  0  0  0  0  0  0  0
  -24.4386  -18.5656  149.8659 F   0  0  0  0  0  0  0  0  0  0  0  0
  -25.2167  -16.5864  150.1443 F   0  0  0  0  0  0  0  0  0  0  0  0
  -23.7511  -18.8159  144.8860 O   0  0  0  0  0  0  0  0  0  0  0  0
  -24.1704  -13.4568  146.9703 F   0  0  0  0  0  0  0  0  0  0  0  0
  -26.2818  -13.7433  145.9541 C   0  0  0  0  0  0  0  0  0  0  0  0
  -26.5822  -12.3851  146.0689 C   0  0  0  0  0  0  0  0  0  0  0  0
  -27.9327  -11.9143  146.0061 C   0  0  0  0  0  0  0  0  0  0  0  0
  -28.3831  -10.9813  145.0788 C   0  0  0  0  0  0  0  0  0  0  0  0
  -29.7631  -10.5984  145.0349 C   0  0  0  0  0  0  0  0  0  0  0  0
  -30.0941   -9.6631  144.1968 N   0  0  0  0  0  0  0  0  0  0  0  0
  -29.3778   -9.2094  143.2364 C   0  0  0  0  0  0  0  0  0  0  0  0
  -28.0602   -9.7124  143.1416 C   0  0  0  0  0  0  0  0  0  0  0  0
  -27.5610  -10.5725  144.0637 C   0  0  0  0  0  0  0  0  0  0  0  0
  -29.9734   -8.2442  142.3857 C   0  0  0  0  0  0  0  0  0  0  0  0
  -29.6974   -7.3709  141.9387 C   0  0  0  0  0  0  0  0  0  0  0  0
  -31.5377   -8.2615  142.4477 C   0  0  0  0  0  0  0  0  0  0  0  0
  -29.4572   -7.0230  140.4929 C   0  0  0  0  0  0  0  0  0  0  0  0
  -29.2335   -8.1196  139.7289 C   0  0  0  0  0  0  0  0  0  0  0  0
  -27.9095   -8.1782  139.0679 C   0  0  0  0  0  0  0  0  0  0  0  0
  -27.7100   -9.3117  138.4416 C   0  0  0  0  0  0  0  0  0  0  0  0
  -28.3627  -11.7279  147.4786 C   0  0  0  0  0  0  0  0  0  0  0  0
  -32.0676   -8.5019  141.5250 O   0  0  0  0  0  0  0  0  0  0  0  0
  3  4  1  0
  4  5  1  0
  5  6  1  0
  5 10  1  0
  5 11  1  0
  8 12  1  0
 12 13  1  0
 12 14  1  0
 12 15  1  0
  1 16  1  0
  4 17  1  0
  4 18  1  0
 18 19  2  3
 19 20  1  0
 24 27  1  0
 27 28  1  0
 27 29  1  0
 28 30  1  0
 30 31  1  0
 31 32  2  3
 32 33  1  0
 20 34  1  0
 29 35  1  0
 20 21  1  0
  1  2  2  0
  2  3  1  0
  3  9  2  0
  9  8  1  0
  8  7  2  0
  7  1  1  0
 21 22  2  0
 22 23  1  0
 23 24  2  0
 24 25  1  0
 25 26  2  0
 26 21  1  0
M  END

$$$$
No_709-/dssg/home/sw_qyf/PocketFlow/Model-Generation-Results/5HT2A_7WC7_rec_A_10.pdb/2024-01-01-03-54-21/
     RDKit          3D

 31 33  0  0  0  0  0  0  0  0999 V2000
  -23.1746  -16.6014  144.8668 C   0  0  0  0  0  0  0  0  0  0  0  0
  -23.8963  -15.5346  144.7885 C   0  0  0  0  0  0  0  0  0  0  0  0
  -23.6398  -14.5115  145.3281 C   0  0  0  0  0  0  0  0  0  0  0  0
  -24.3240  -13.3648  145.1281 C   0  0  0  0  0  0  0  0  0  0  0  0
  -25.5072  -13.2953  144.4353 C   0  0  0  0  0  0  0  0  0  0  0  0
  -25.9151  -14.5889  143.8605 C   0  0  0  0  0  0  0  0  0  0  0  0
  -25.1243  -15.6356  144.0574 C   0  0  0  0  0  0  0  0  0  0  0  0
  -22.8022  -17.0632  146.0491 N   0  0  0  0  0  0  0  0  0  0  0  0
  -26.4331  -12.1445  144.3072 C   0  0  0  0  0  0  0  0  0  0  0  0
  -27.5493  -12.1560  145.0992 N   0  0  0  0  0  0  0  0  0  0  0  0
  -27.7393  -12.7281  146.3021 C   0  0  0  0  0  0  0  0  0  0  0  0
  -28.8215  -12.8914  146.8160 N   0  0  0  0  0  0  0  0  0  0  0  0
  -29.6214  -11.9602  146.1223 C   0  0  0  0  0  0  0  0  0  0  0  0
  -28.8748  -11.5773  145.0268 C   0  0  0  0  0  0  0  0  0  0  0  0
  -29.2421  -10.7177  143.9599 C   0  0  0  0  0  0  0  0  0  0  0  0
  -28.9113  -10.8632  142.7224 C   0  0  0  0  0  0  0  0  0  0  0  0
  -29.4053   -9.9266  141.7151 C   0  0  0  0  0  0  0  0  0  0  0  0
  -30.3328   -8.9500  142.0836 C   0  0  0  0  0  0  0  0  0  0  0  0
  -30.7558   -8.8221  143.4243 C   0  0  0  0  0  0  0  0  0  0  0  0
  -30.2294   -9.6871  144.3928 C   0  0  0  0  0  0  0  0  0  0  0  0
  -30.7931   -8.1134  141.1230 N   0  0  0  0  0  0  0  0  0  0  0  0
  -23.6904  -17.6206  147.0117 C   0  0  0  0  0  0  0  0  0  0  0  0
  -24.9296  -17.9298  146.8333 C   0  0  0  0  0  0  0  0  0  0  0  0
  -23.2001  -17.3828  148.4078 C   0  0  0  0  0  0  0  0  0  0  0  0
  -23.9870  -16.5213  149.3589 C   0  0  0  0  0  0  0  0  0  0  0  0
  -25.0393  -17.3014  149.9983 C   0  0  0  0  0  0  0  0  0  0  0  0
  -26.2613  -17.2906  149.5671 O   0  0  0  0  0  0  0  0  0  0  0  0
  -28.9653  -10.0468  140.4595 N   0  0  0  0  0  0  0  0  0  0  0  0
  -28.1797  -11.0651  140.0741 C   0  0  0  0  0  0  0  0  0  0  0  0
  -27.1134  -11.0262  139.7267 C   0  0  0  0  0  0  0  0  0  0  0  0
  -26.2759  -12.1276  139.2549 C   0  0  0  0  0  0  0  0  0  0  0  0
  1  2  1  0
  1  8  1  0
  5  9  1  0
  9 10  1  0
 10 11  1  0
 11 12  2  0
 12 13  1  0
 10 14  1  0
 13 14  1  0
 14 15  1  0
 18 21  1  0
  8 22  1  0
 22 23  1  0
 22 24  1  0
 24 25  1  0
 25 26  1  0
 26 27  1  0
 17 28  1  0
 28 29  1  0
 29 30  2  3
 30 31  1  0
 15 16  2  0
 16 17  1  0
 17 18  2  0
 18 19  1  0
 19 20  2  0
 20 15  1  0
  2  3  2  0
  3  4  1  0
  4  5  2  0
  5  6  1  0
  6  7  2  0
  7  2  1  0
M  END

$$$$
No_710-/dssg/home/sw_qyf/PocketFlow/Model-Generation-Results/5HT2A_7WC7_rec_A_10.pdb/2024-01-01-03-54-21/
     RDKit          3D

 18 19  0  0  0  0  0  0  0  0999 V2000
  -23.1746  -16.6014  144.8668 C   0  0  0  0  0  0  0  0  0  0  0  0
  -23.8963  -15.5346  144.7885 C   0  0  0  0  0  0  0  0  0  0  0  0
  -24.5755  -15.0383  145.9043 C   0  0  0  0  0  0  0  0  0  0  0  0
  -24.6688  -15.8869  147.0363 C   0  0  0  0  0  0  0  0  0  0  0  0
  -24.0226  -17.0824  147.0622 C   0  0  0  0  0  0  0  0  0  0  0  0
  -23.2575  -17.4593  145.9560 C   0  0  0  0  0  0  0  0  0  0  0  0
  -25.3271  -13.7158  145.9348 C   0  0  0  0  0  0  0  0  0  0  0  0
  -24.7096  -12.7416  145.4939 C   0  0  0  0  0  0  0  0  0  0  0  0
  -25.3941  -11.4219  145.4017 C   0  0  0  0  0  0  0  0  0  0  0  0
  -26.7537  -11.3660  145.7243 C   0  0  0  0  0  0  0  0  0  0  0  0
  -27.3965  -12.4784  146.2826 C   0  0  0  0  0  0  0  0  0  0  0  0
  -26.6653  -13.7229  146.3213 C   0  0  0  0  0  0  0  0  0  0  0  0
  -28.8445  -12.4389  146.6012 C   0  0  0  0  0  0  0  0  0  0  0  0
  -28.9720  -12.7414  147.6993 F   0  0  0  0  0  0  0  0  0  0  0  0
  -29.2712  -11.0475  146.4837 F   0  0  0  0  0  0  0  0  0  0  0  0
  -29.5472  -13.0826  145.7329 F   0  0  0  0  0  0  0  0  0  0  0  0
  -23.2738  -12.6596  145.0772 C   0  0  0  0  0  0  0  0  0  0  0  0
  -22.6550  -12.7042  144.1273 N   0  0  0  0  0  0  0  0  0  0  0  0
  3  7  1  0
 11 13  1  0
 13 14  1  0
 13 15  1  0
 13 16  1  0
  8 17  1  0
 17 18  1  0
  1  2  2  0
  2  3  1  0
  3  4  2  0
  4  5  1  0
  5  6  2  0
  6  1  1  0
  7  8  2  0
  8  9  1  0
  9 10  2  0
 10 11  1  0
 11 12  2  0
 12  7  1  0
M  END

$$$$
No_711-/dssg/home/sw_qyf/PocketFlow/Model-Generation-Results/5HT2A_7WC7_rec_A_10.pdb/2024-01-01-03-54-21/
     RDKit          3D

 35 37  0  0  0  0  0  0  0  0999 V2000
  -23.1746  -16.6014  144.8668 C   0  0  0  0  0  0  0  0  0  0  0  0
  -23.8963  -15.5346  144.7885 C   0  0  0  0  0  0  0  0  0  0  0  0
  -23.6398  -14.5115  145.3281 C   0  0  0  0  0  0  0  0  0  0  0  0
  -24.3866  -13.2477  145.3906 C   0  0  0  0  0  0  0  0  0  0  0  0
  -23.7392  -12.0982  145.9891 C   0  0  0  0  0  0  0  0  0  0  0  0
  -25.7153  -13.1102  144.9365 C   0  0  0  0  0  0  0  0  0  0  0  0
  -26.3727  -11.9055  145.3022 C   0  0  0  0  0  0  0  0  0  0  0  0
  -27.6422  -11.9421  145.7302 C   0  0  0  0  0  0  0  0  0  0  0  0
  -28.7175  -11.1408  145.2682 C   0  0  0  0  0  0  0  0  0  0  0  0
  -30.0291  -11.1840  145.9019 C   0  0  0  0  0  0  0  0  0  0  0  0
  -30.1099  -11.9737  147.0832 C   0  0  0  0  0  0  0  0  0  0  0  0
  -29.0247  -12.8082  147.5558 C   0  0  0  0  0  0  0  0  0  0  0  0
  -27.7747  -12.7300  146.9731 C   0  0  0  0  0  0  0  0  0  0  0  0
  -28.5479  -10.3296  144.1427 C   0  0  0  0  0  0  0  0  0  0  0  0
  -29.2953  -10.4061  142.9480 C   0  0  0  0  0  0  0  0  0  0  0  0
  -30.4395   -9.7243  142.7605 C   0  0  0  0  0  0  0  0  0  0  0  0
  -30.4911   -8.4771  142.0345 C   0  0  0  0  0  0  0  0  0  0  0  0
  -29.4227   -8.2230  141.1957 C   0  0  0  0  0  0  0  0  0  0  0  0
  -28.5695   -9.1872  140.6319 C   0  0  0  0  0  0  0  0  0  0  0  0
  -28.4699  -10.4760  141.7059 C   0  0  0  0  0  0  0  0  0  0  0  0
  -27.8075   -9.2049  139.5553 C   0  0  0  0  0  0  0  0  0  0  0  0
  -28.1835   -9.0133  138.3797 Cl  0  0  0  0  0  0  0  0  0  0  0  0
  -23.5777  -17.7294  145.7151 C   0  0  0  0  0  0  0  0  0  0  0  0
  -23.4739  -17.4051  147.0629 C   0  0  0  0  0  0  0  0  0  0  0  0
  -24.7272  -16.9641  147.8004 C   0  0  0  0  0  0  0  0  0  0  0  0
  -25.8098  -16.4756  147.2594 C   0  0  0  0  0  0  0  0  0  0  0  0
  -27.0763  -16.4878  147.9574 C   0  0  0  0  0  0  0  0  0  0  0  0
  -27.0424  -17.0297  149.2723 C   0  0  0  0  0  0  0  0  0  0  0  0
  -25.1208  -17.9702  148.9389 C   0  0  0  0  0  0  0  0  0  0  0  0
  -25.9758  -17.4821  149.7943 C   0  0  0  0  0  0  0  0  0  0  0  0
  -31.2436  -11.9489  147.8656 O   0  0  0  0  0  0  0  0  0  0  0  0
  -27.5686   -9.3457  144.3133 O   0  0  0  0  0  0  0  0  0  0  0  0
  -26.0475  -18.0254  151.2413 C   0  0  0  0  0  0  0  0  0  0  0  0
  -23.9889  -18.8600  145.3506 O   0  0  0  0  0  0  0  0  0  0  0  0
  -31.2842  -12.7467  149.0016 C   0  0  0  0  0  0  0  0  0  0  0  0
  1  2  1  0
  2  3  2  3
  3  4  1  0
  4  5  1  0
  4  6  1  0
  6  7  1  0
  7  8  1  0
  9 14  1  0
 14 15  1  0
 19 21  1  0
 21 22  1  0
  1 23  1  0
 23 24  1  0
 11 31  1  0
 14 32  2  0
 30 33  1  0
 23 34  2  0
 31 35  1  0
 24 25  1  0
 15 16  2  0
 16 17  1  0
 17 18  2  0
 18 19  1  0
 19 20  2  0
 20 15  1  0
 25 26  2  0
 26 27  1  0
 27 28  2  0
 28 30  1  0
 30 29  2  0
 29 25  1  0
  8  9  1  0
  9 10  2  0
 10 11  1  0
 11 12  2  0
 12 13  1  0
 13  8  2  0
M  END

$$$$
No_712-/dssg/home/sw_qyf/PocketFlow/Model-Generation-Results/5HT2A_7WC7_rec_A_10.pdb/2024-01-01-03-54-21/
     RDKit          3D

 31 32  0  0  0  0  0  0  0  0999 V2000
  -24.1553  -17.8465  145.7021 C   0  0  0  0  0  0  0  0  0  0  0  0
  -23.9795  -18.4462  146.7426 C   0  0  0  0  0  0  0  0  0  0  0  0
  -24.2723  -16.4220  145.8037 C   0  0  0  0  0  0  0  0  0  0  0  0
  -24.0151  -15.5895  144.6874 C   0  0  0  0  0  0  0  0  0  0  0  0
  -24.7969  -14.3928  144.4905 C   0  0  0  0  0  0  0  0  0  0  0  0
  -26.1516  -14.5745  144.2520 C   0  0  0  0  0  0  0  0  0  0  0  0
  -24.2320  -17.9842  148.0842 C   0  0  0  0  0  0  0  0  0  0  0  0
  -24.4165  -16.5583  148.1878 C   0  0  0  0  0  0  0  0  0  0  0  0
  -24.4331  -15.7630  147.0444 C   0  0  0  0  0  0  0  0  0  0  0  0
  -26.9132  -13.3373  144.0865 C   0  0  0  0  0  0  0  0  0  0  0  0
  -26.9877  -12.3323  145.0188 C   0  0  0  0  0  0  0  0  0  0  0  0
  -26.6237  -11.0821  144.6171 C   0  0  0  0  0  0  0  0  0  0  0  0
  -27.5196  -10.2318  144.3247 C   0  0  0  0  0  0  0  0  0  0  0  0
  -28.9402  -10.4600  144.4928 C   0  0  0  0  0  0  0  0  0  0  0  0
  -29.9402   -9.7003  143.8889 C   0  0  0  0  0  0  0  0  0  0  0  0
  -29.5763   -8.8045  142.9203 C   0  0  0  0  0  0  0  0  0  0  0  0
  -28.6831   -8.5490  142.3897 C   0  0  0  0  0  0  0  0  0  0  0  0
  -27.4165   -9.4635  142.9966 C   0  0  0  0  0  0  0  0  0  0  0  0
  -30.9387   -8.0981  142.3933 C   0  0  0  0  0  0  0  0  0  0  0  0
  -31.9558   -8.0032  143.1297 O   0  0  0  0  0  0  0  0  0  0  0  0
  -30.9160   -7.6203  141.2347 O   0  0  0  0  0  0  0  0  0  0  0  0
  -27.4281  -12.6240  146.3805 C   0  0  0  0  0  0  0  0  0  0  0  0
  -26.8637  -12.6613  147.2816 F   0  0  0  0  0  0  0  0  0  0  0  0
  -28.5491  -11.6892  146.6100 F   0  0  0  0  0  0  0  0  0  0  0  0
  -28.0784  -13.9172  146.3620 F   0  0  0  0  0  0  0  0  0  0  0  0
  -23.0233  -15.8281  143.9038 O   0  0  0  0  0  0  0  0  0  0  0  0
  -24.1773  -13.2405  144.5314 O   0  0  0  0  0  0  0  0  0  0  0  0
  -22.9109  -13.1097  145.2391 C   0  0  0  0  0  0  0  0  0  0  0  0
  -22.6374  -11.4647  145.1693 C   0  0  0  0  0  0  0  0  0  0  0  0
  -23.6828  -12.4418  146.0601 C   0  0  0  0  0  0  0  0  0  0  0  0
  -24.2505  -12.9358  146.7730 C   0  0  0  0  0  0  0  0  0  0  0  0
  3  4  1  0
  4  5  1  0
  5  6  2  3
  6 10  1  0
 10 11  1  0
 11 12  2  3
 12 13  1  0
 16 19  1  0
 19 20  1  0
 19 21  2  0
 11 22  1  0
 22 23  1  0
 22 24  1  0
 22 25  1  0
  4 26  2  0
  5 27  1  0
 27 28  1  0
 28 29  1  0
 28 30  1  0
 30 31  2  0
 13 14  2  0
 14 15  1  0
 15 16  2  0
 16 17  1  0
 17 18  2  0
 18 13  1  0
  1  2  2  0
  2  7  1  0
  7  8  2  0
  8  9  1  0
  9  3  2  0
  3  1  1  0
M  END

$$$$
No_713-/dssg/home/sw_qyf/PocketFlow/Model-Generation-Results/5HT2A_7WC7_rec_A_10.pdb/2024-01-01-03-54-21/
     RDKit          3D

 20 21  0  0  0  0  0  0  0  0999 V2000
  -24.1553  -17.8465  145.7021 C   0  0  0  0  0  0  0  0  0  0  0  0
  -23.9795  -18.4462  146.7426 C   0  0  0  0  0  0  0  0  0  0  0  0
  -23.2486  -17.2339  144.9771 C   0  0  0  0  0  0  0  0  0  0  0  0
  -24.9812  -19.0362  147.5824 C   0  0  0  0  0  0  0  0  0  0  0  0
  -23.7180  -16.2391  144.0023 C   0  0  0  0  0  0  0  0  0  0  0  0
  -24.1691  -14.9522  144.6878 C   0  0  0  0  0  0  0  0  0  0  0  0
  -24.1546  -13.8262  144.0736 C   0  0  0  0  0  0  0  0  0  0  0  0
  -24.4491  -12.5835  144.8018 C   0  0  0  0  0  0  0  0  0  0  0  0
  -25.0115  -12.6883  146.1519 C   0  0  0  0  0  0  0  0  0  0  0  0
  -25.0777  -13.9742  146.7882 C   0  0  0  0  0  0  0  0  0  0  0  0
  -24.6739  -15.1076  146.0796 C   0  0  0  0  0  0  0  0  0  0  0  0
  -25.2940  -11.6448  146.8661 F   0  0  0  0  0  0  0  0  0  0  0  0
  -26.2318  -18.4932  147.0552 C   0  0  0  0  0  0  0  0  0  0  0  0
  -26.0524  -17.6587  145.9900 C   0  0  0  0  0  0  0  0  0  0  0  0
  -24.4800  -18.7277  144.7293 O   0  0  0  0  0  0  0  0  0  0  0  0
  -26.7102  -17.4597  144.9736 O   0  0  0  0  0  0  0  0  0  0  0  0
  -25.8187  -16.0726  146.6441 C   0  0  0  0  0  0  0  0  0  0  0  0
  -26.5381  -15.8232  147.6144 O   0  0  0  0  0  0  0  0  0  0  0  0
  -22.6731  -18.6529  147.2985 O   0  0  0  0  0  0  0  0  0  0  0  0
  -24.2643  -11.3477  144.4063 O   0  0  0  0  0  0  0  0  0  0  0  0
  1  2  1  0
  1  3  2  3
  2  4  1  0
  3  5  1  0
  5  6  1  0
  9 12  1  0
  4 13  2  3
 13 14  1  0
  1 15  1  0
 14 16  1  0
 11 17  1  0
 14 17  1  0
 17 18  2  0
  2 19  2  0
  8 20  1  0
  6  7  2  0
  7  8  1  0
  8  9  2  0
  9 10  1  0
 10 11  2  0
 11  6  1  0
M  END

$$$$
No_714-/dssg/home/sw_qyf/PocketFlow/Model-Generation-Results/5HT2A_7WC7_rec_A_10.pdb/2024-01-01-03-54-21/
     RDKit          3D

 35 38  0  0  0  0  0  0  0  0999 V2000
  -24.1553  -17.8465  145.7021 C   0  0  0  0  0  0  0  0  0  0  0  0
  -24.6364  -17.2931  146.7091 C   0  0  0  0  0  0  0  0  0  0  0  0
  -25.8608  -16.5592  146.5934 C   0  0  0  0  0  0  0  0  0  0  0  0
  -26.9933  -16.9082  147.1889 C   0  0  0  0  0  0  0  0  0  0  0  0
  -28.2350  -16.1839  146.8943 C   0  0  0  0  0  0  0  0  0  0  0  0
  -28.1591  -14.9305  146.2109 C   0  0  0  0  0  0  0  0  0  0  0  0
  -26.9098  -14.5235  145.6600 C   0  0  0  0  0  0  0  0  0  0  0  0
  -25.7460  -15.3614  145.8720 C   0  0  0  0  0  0  0  0  0  0  0  0
  -26.9206  -13.1853  145.1403 C   0  0  0  0  0  0  0  0  0  0  0  0
  -26.5037  -13.0908  143.8403 C   0  0  0  0  0  0  0  0  0  0  0  0
  -25.8646  -14.1228  143.1130 C   0  0  0  0  0  0  0  0  0  0  0  0
  -24.0083  -17.5242  148.0442 C   0  0  0  0  0  0  0  0  0  0  0  0
  -22.5844  -17.2982  148.1277 C   0  0  0  0  0  0  0  0  0  0  0  0
  -21.9693  -18.0145  147.0049 C   0  0  0  0  0  0  0  0  0  0  0  0
  -22.6642  -17.9438  145.7538 C   0  0  0  0  0  0  0  0  0  0  0  0
  -25.7436  -13.9936  141.7815 N   0  0  0  0  0  0  0  0  0  0  0  0
  -27.3810  -12.0596  145.9276 C   0  0  0  0  0  0  0  0  0  0  0  0
  -27.5298  -10.8097  145.3054 C   0  0  0  0  0  0  0  0  0  0  0  0
  -28.6625  -10.6582  144.4209 C   0  0  0  0  0  0  0  0  0  0  0  0
  -29.9086  -10.8453  144.8513 C   0  0  0  0  0  0  0  0  0  0  0  0
  -30.8912  -10.3058  144.2172 O   0  0  0  0  0  0  0  0  0  0  0  0
  -30.3911   -9.1539  143.4680 C   0  0  0  0  0  0  0  0  0  0  0  0
  -29.0380   -9.5442  143.2113 C   0  0  0  0  0  0  0  0  0  0  0  0
  -31.1230   -8.2727  142.7673 C   0  0  0  0  0  0  0  0  0  0  0  0
  -32.3169   -8.4128  142.4037 O   0  0  0  0  0  0  0  0  0  0  0  0
  -30.5344   -7.0749  142.6131 O   0  0  0  0  0  0  0  0  0  0  0  0
  -30.1130  -11.7255  145.8180 O   0  0  0  0  0  0  0  0  0  0  0  0
  -26.6430  -13.2067  141.1227 C   0  0  0  0  0  0  0  0  0  0  0  0
  -26.4960  -12.5237  140.1712 C   0  0  0  0  0  0  0  0  0  0  0  0
  -27.5499  -11.8864  139.3077 C   0  0  0  0  0  0  0  0  0  0  0  0
  -28.8173  -12.0039  139.9505 C   0  0  0  0  0  0  0  0  0  0  0  0
  -28.8937  -12.5805  141.2013 C   0  0  0  0  0  0  0  0  0  0  0  0
  -27.9273  -13.2551  141.8069 C   0  0  0  0  0  0  0  0  0  0  0  0
  -26.3761   -9.9965  145.1517 C   0  0  0  0  0  0  0  0  0  0  0  0
  -29.6750   -6.9036  141.5878 C   0  0  0  0  0  0  0  0  0  0  0  0
  2  3  1  0
  7  9  1  0
  9 10  2  3
 10 11  1  0
 11 16  1  0
  9 17  1  0
 17 18  1  0
 18 19  1  0
 19 20  1  0
 20 21  1  0
 21 22  1  0
 19 23  1  0
 22 23  1  0
 22 24  1  0
 24 25  2  0
 24 26  1  0
 20 27  2  0
 16 28  1  0
 18 34  1  0
 26 35  1  0
 28 29  2  0
 29 30  1  0
 30 31  2  0
 31 32  1  0
 32 33  2  0
 33 28  1  0
  3  4  2  0
  4  5  1  0
  5  6  2  0
  6  7  1  0
  7  8  2  0
  8  3  1  0
  1  2  2  0
  2 12  1  0
 12 13  2  0
 13 14  1  0
 14 15  2  0
 15  1  1  0
M  END

$$$$
No_715-/dssg/home/sw_qyf/PocketFlow/Model-Generation-Results/5HT2A_7WC7_rec_A_10.pdb/2024-01-01-03-54-21/
     RDKit          3D

 30 34  0  0  0  0  0  0  0  0999 V2000
  -24.1553  -17.8465  145.7021 C   0  0  0  0  0  0  0  0  0  0  0  0
  -24.6364  -17.2931  146.7091 C   0  0  0  0  0  0  0  0  0  0  0  0
  -24.5709  -15.9334  146.8074 C   0  0  0  0  0  0  0  0  0  0  0  0
  -25.1834  -15.1616  147.9419 C   0  0  0  0  0  0  0  0  0  0  0  0
  -23.6361  -17.1348  144.5597 C   0  0  0  0  0  0  0  0  0  0  0  0
  -23.7332  -15.7649  144.6149 C   0  0  0  0  0  0  0  0  0  0  0  0
  -24.1973  -15.1293  145.7929 C   0  0  0  0  0  0  0  0  0  0  0  0
  -24.0536  -19.5849  145.5874 Cl  0  0  0  0  0  0  0  0  0  0  0  0
  -24.2603  -13.6216  145.7701 C   0  0  0  0  0  0  0  0  0  0  0  0
  -25.4721  -13.0124  145.8974 C   0  0  0  0  0  0  0  0  0  0  0  0
  -26.3477  -13.2205  147.1056 C   0  0  0  0  0  0  0  0  0  0  0  0
  -26.3956  -14.4208  147.8139 C   0  0  0  0  0  0  0  0  0  0  0  0
  -25.6467  -11.6952  145.3021 C   0  0  0  0  0  0  0  0  0  0  0  0
  -26.9719  -11.2302  144.9879 C   0  0  0  0  0  0  0  0  0  0  0  0
  -27.1784  -10.2078  144.0646 C   0  0  0  0  0  0  0  0  0  0  0  0
  -28.4437   -9.7281  143.8173 C   0  0  0  0  0  0  0  0  0  0  0  0
  -29.5157  -10.3291  144.5858 C   0  0  0  0  0  0  0  0  0  0  0  0
  -29.2674  -11.3301  145.5337 C   0  0  0  0  0  0  0  0  0  0  0  0
  -28.0161  -11.7658  145.7616 C   0  0  0  0  0  0  0  0  0  0  0  0
  -27.7769  -12.8689  146.7419 C   0  0  0  0  0  0  0  0  0  0  0  0
  -28.7771   -8.7648  142.8373 C   0  0  0  0  0  0  0  0  0  0  0  0
  -28.9143   -9.0713  141.4942 C   0  0  0  0  0  0  0  0  0  0  0  0
  -28.6261  -10.3012  140.9080 C   0  0  0  0  0  0  0  0  0  0  0  0
  -28.2082  -10.5822  139.6678 C   0  0  0  0  0  0  0  0  0  0  0  0
  -27.7622  -11.9028  139.2184 C   0  0  0  0  0  0  0  0  0  0  0  0
  -28.0281  -12.9558  140.1857 C   0  0  0  0  0  0  0  0  0  0  0  0
  -28.2074  -12.6018  141.5422 C   0  0  0  0  0  0  0  0  0  0  0  0
  -28.5449  -11.2853  141.9507 C   0  0  0  0  0  0  0  0  0  0  0  0
  -29.6615   -8.2592  140.5865 C   0  0  0  0  0  0  0  0  0  0  0  0
  -29.2398   -7.0565  140.4610 N   0  0  0  0  0  0  0  0  0  0  0  0
  3  4  1  0
  1  8  1  0
  7  9  1  0
  9 10  2  0
 10 11  1  0
  4 12  1  0
 11 12  1  0
 10 13  1  0
 13 14  1  0
 11 20  1  0
 19 20  1  0
 16 21  1  0
 21 22  2  3
 22 23  1  0
 22 29  1  0
 29 30  1  0
  1  2  2  0
  2  3  1  0
  3  7  2  0
  7  6  1  0
  6  5  2  0
  5  1  1  0
 23 24  2  0
 24 25  1  0
 25 26  2  0
 26 27  1  0
 27 28  2  0
 28 23  1  0
 14 15  2  0
 15 16  1  0
 16 17  2  0
 17 18  1  0
 18 19  2  0
 19 14  1  0
M  END

$$$$
No_716-/dssg/home/sw_qyf/PocketFlow/Model-Generation-Results/5HT2A_7WC7_rec_A_10.pdb/2024-01-01-03-54-21/
     RDKit          3D

 35 37  0  0  0  0  0  0  0  0999 V2000
  -23.1746  -16.6014  144.8668 C   0  0  0  0  0  0  0  0  0  0  0  0
  -23.8963  -15.5346  144.7885 C   0  0  0  0  0  0  0  0  0  0  0  0
  -24.5755  -15.0383  145.9043 C   0  0  0  0  0  0  0  0  0  0  0  0
  -25.0618  -13.6819  146.0347 C   0  0  0  0  0  0  0  0  0  0  0  0
  -24.0242  -12.8249  145.9593 C   0  0  0  0  0  0  0  0  0  0  0  0
  -23.5540  -17.4786  146.0177 C   0  0  0  0  0  0  0  0  0  0  0  0
  -24.1832  -17.0250  147.1755 C   0  0  0  0  0  0  0  0  0  0  0  0
  -24.7177  -15.7646  147.1546 C   0  0  0  0  0  0  0  0  0  0  0  0
  -26.3722  -13.2283  146.0345 C   0  0  0  0  0  0  0  0  0  0  0  0
  -26.7996  -11.9139  145.9882 C   0  0  0  0  0  0  0  0  0  0  0  0
  -27.2226  -11.5282  144.6862 C   0  0  0  0  0  0  0  0  0  0  0  0
  -28.2759  -10.4976  144.6543 C   0  0  0  0  0  0  0  0  0  0  0  0
  -28.3261   -9.5221  143.6303 C   0  0  0  0  0  0  0  0  0  0  0  0
  -29.4285   -9.4659  142.8585 C   0  0  0  0  0  0  0  0  0  0  0  0
  -29.7380   -8.3500  142.1624 C   0  0  0  0  0  0  0  0  0  0  0  0
  -29.8499   -8.3527  140.7722 C   0  0  0  0  0  0  0  0  0  0  0  0
  -30.3224   -7.2651  140.0199 C   0  0  0  0  0  0  0  0  0  0  0  0
  -27.3969  -14.1999  146.2481 C   0  0  0  0  0  0  0  0  0  0  0  0
  -24.2389  -17.8718  148.3524 C   0  0  0  0  0  0  0  0  0  0  0  0
  -23.1720  -17.9691  149.0127 F   0  0  0  0  0  0  0  0  0  0  0  0
  -25.2213  -17.1954  149.1857 F   0  0  0  0  0  0  0  0  0  0  0  0
  -27.2633  -15.4697  146.3774 C   0  0  0  0  0  0  0  0  0  0  0  0
  -28.4548  -16.3088  146.6171 C   0  0  0  0  0  0  0  0  0  0  0  0
  -29.2186  -10.5328  141.8603 O   0  0  0  0  0  0  0  0  0  0  0  0
  -23.7708  -14.6947  143.8215 O   0  0  0  0  0  0  0  0  0  0  0  0
  -29.1699   -9.4401  140.1443 C   0  0  0  0  0  0  0  0  0  0  0  0
  -28.8259  -10.5190  140.8133 C   0  0  0  0  0  0  0  0  0  0  0  0
  -28.5373   -9.1804  138.8854 N   0  0  0  0  0  0  0  0  0  0  0  0
  -28.1664  -11.6212  140.1757 C   0  0  0  0  0  0  0  0  0  0  0  0
  -27.5619  -11.4841  138.9084 C   0  0  0  0  0  0  0  0  0  0  0  0
  -27.8477  -10.2353  138.2795 C   0  0  0  0  0  0  0  0  0  0  0  0
  -28.1590  -17.6237  147.0616 C   0  0  0  0  0  0  0  0  0  0  0  0
  -26.8506  -12.3882  138.3406 O   0  0  0  0  0  0  0  0  0  0  0  0
  -30.2535   -7.2516  142.9018 C   0  0  0  0  0  0  0  0  0  0  0  0
  -30.7527   -9.9087  143.6508 C   0  0  0  0  0  0  0  0  0  0  0  0
  1  2  1  0
  2  3  1  0
  3  4  1  0
  4  5  1  0
  1  6  1  0
  3  8  1  0
  7  8  1  0
  4  9  1  0
  9 10  1  0
 10 11  2  3
 11 12  1  0
 12 13  2  3
 13 14  1  0
 14 15  1  0
 15 16  1  0
 16 17  1  0
  9 18  1  0
  7 19  1  0
 19 20  1  0
 19 21  1  0
 18 22  2  3
 22 23  1  0
 14 24  1  0
  2 25  2  0
 16 26  1  0
 24 27  1  0
 23 32  1  0
 30 33  1  0
 15 34  1  0
 14 35  1  0
  6  7  1  0
 26 27  2  0
 27 29  1  0
 29 30  2  0
 30 31  1  0
 31 28  2  0
 28 26  1  0
M  END

$$$$
No_717-/dssg/home/sw_qyf/PocketFlow/Model-Generation-Results/5HT2A_7WC7_rec_A_10.pdb/2024-01-01-03-54-21/
     RDKit          3D

 19 19  0  0  0  0  0  0  0  0999 V2000
  -23.8042  -18.1535  145.4053 O   0  0  0  0  0  0  0  0  0  0  0  0
  -24.1154  -17.4458  146.3749 C   0  0  0  0  0  0  0  0  0  0  0  0
  -24.6243  -16.1272  146.0156 C   0  0  0  0  0  0  0  0  0  0  0  0
  -25.5207  -15.3857  146.7948 C   0  0  0  0  0  0  0  0  0  0  0  0
  -25.9056  -14.0922  146.4682 C   0  0  0  0  0  0  0  0  0  0  0  0
  -25.3933  -13.5393  145.2577 C   0  0  0  0  0  0  0  0  0  0  0  0
  -24.5424  -14.3356  144.4789 C   0  0  0  0  0  0  0  0  0  0  0  0
  -24.1691  -15.5727  144.8531 C   0  0  0  0  0  0  0  0  0  0  0  0
  -24.0606  -17.7906  147.5959 F   0  0  0  0  0  0  0  0  0  0  0  0
  -25.7900  -12.1852  144.9094 C   0  0  0  0  0  0  0  0  0  0  0  0
  -26.4571  -12.0045  143.7912 F   0  0  0  0  0  0  0  0  0  0  0  0
  -26.6577  -11.6387  145.9234 F   0  0  0  0  0  0  0  0  0  0  0  0
  -24.6644  -11.3512  144.9153 F   0  0  0  0  0  0  0  0  0  0  0  0
  -23.3603  -16.1837  144.0076 O   0  0  0  0  0  0  0  0  0  0  0  0
  -23.7404  -19.5492  145.8488 C   0  0  0  0  0  0  0  0  0  0  0  0
  -26.1413  -16.1091  148.4624 Br  0  0  0  0  0  0  0  0  0  0  0  0
  -23.5261  -20.4079  145.0246 O   0  0  0  0  0  0  0  0  0  0  0  0
  -23.8044  -19.8424  147.0568 O   0  0  0  0  0  0  0  0  0  0  0  0
  -24.1311  -13.8458  143.3469 O   0  0  0  0  0  0  0  0  0  0  0  0
  1  2  1  0
  2  3  1  0
  2  9  1  0
  6 10  1  0
 10 11  1  0
 10 12  1  0
 10 13  1  0
  8 14  1  0
  1 15  1  0
  4 16  1  0
 15 17  2  0
 15 18  1  0
  7 19  1  0
  3  4  2  0
  4  5  1  0
  5  6  2  0
  6  7  1  0
  7  8  2  0
  8  3  1  0
M  END

$$$$
No_718-/dssg/home/sw_qyf/PocketFlow/Model-Generation-Results/5HT2A_7WC7_rec_A_10.pdb/2024-01-01-03-54-21/
     RDKit          3D

 28 30  0  0  0  0  0  0  0  0999 V2000
  -23.1746  -16.6014  144.8668 C   0  0  0  0  0  0  0  0  0  0  0  0
  -23.7011  -17.0158  145.9774 C   0  0  0  0  0  0  0  0  0  0  0  0
  -23.7336  -18.2775  146.3737 C   0  0  0  0  0  0  0  0  0  0  0  0
  -23.8112  -15.3694  144.2738 C   0  0  0  0  0  0  0  0  0  0  0  0
  -24.2192  -14.3645  145.3045 C   0  0  0  0  0  0  0  0  0  0  0  0
  -24.1794  -12.9654  144.9287 C   0  0  0  0  0  0  0  0  0  0  0  0
  -23.0243  -12.3969  145.1497 C   0  0  0  0  0  0  0  0  0  0  0  0
  -23.4632  -19.2327  145.5195 C   0  0  0  0  0  0  0  0  0  0  0  0
  -24.5490  -14.8754  146.5851 C   0  0  0  0  0  0  0  0  0  0  0  0
  -24.2256  -16.1190  147.0255 C   0  0  0  0  0  0  0  0  0  0  0  0
  -25.3816  -12.3195  144.7755 C   0  0  0  0  0  0  0  0  0  0  0  0
  -26.5649  -12.8501  144.4849 C   0  0  0  0  0  0  0  0  0  0  0  0
  -27.6285  -12.1889  143.9754 C   0  0  0  0  0  0  0  0  0  0  0  0
  -28.3629  -11.4595  144.7578 C   0  0  0  0  0  0  0  0  0  0  0  0
  -29.4401  -10.5231  144.3471 C   0  0  0  0  0  0  0  0  0  0  0  0
  -29.6874  -10.3645  143.0137 C   0  0  0  0  0  0  0  0  0  0  0  0
  -28.7888  -11.0791  142.1053 C   0  0  0  0  0  0  0  0  0  0  0  0
  -27.7597  -11.9151  142.5568 C   0  0  0  0  0  0  0  0  0  0  0  0
  -30.7261   -9.4878  142.5080 C   0  0  0  0  0  0  0  0  0  0  0  0
  -31.8794   -9.4411  143.0396 N   0  0  0  0  0  0  0  0  0  0  0  0
  -30.3562   -8.4219  141.8501 O   0  0  0  0  0  0  0  0  0  0  0  0
  -24.5781  -16.6048  148.2243 N   0  0  0  0  0  0  0  0  0  0  0  0
  -24.2546  -18.6017  147.7486 C   0  0  0  0  0  0  0  0  0  0  0  0
  -24.5823  -17.8316  148.6983 C   0  0  0  0  0  0  0  0  0  0  0  0
  -24.9723  -18.1010  149.8421 F   0  0  0  0  0  0  0  0  0  0  0  0
  -22.8233  -11.0321  144.7520 N   0  0  0  0  0  0  0  0  0  0  0  0
  -22.7746  -20.2785  145.9077 O   0  0  0  0  0  0  0  0  0  0  0  0
  -24.2383  -19.4572  144.5408 O   0  0  0  0  0  0  0  0  0  0  0  0
  1  2  1  0
  1  4  1  0
  4  5  1  0
  5  6  1  0
  6  7  2  3
  3  8  1  0
  5  9  1  0
  9 10  1  0
  6 11  1  0
 11 12  1  0
 12 13  1  0
 16 19  1  0
 19 20  1  0
 19 21  2  0
 24 25  1  0
  7 26  1  0
  8 27  1  0
  8 28  2  0
  2  3  2  0
  3 23  1  0
 23 24  2  0
 24 22  1  0
 22 10  2  0
 10  2  1  0
 13 14  2  0
 14 15  1  0
 15 16  2  0
 16 17  1  0
 17 18  2  0
 18 13  1  0
M  END

$$$$
No_719-/dssg/home/sw_qyf/PocketFlow/Model-Generation-Results/5HT2A_7WC7_rec_A_10.pdb/2024-01-01-03-54-21/
     RDKit          3D

 30 32  0  0  0  0  0  0  0  0999 V2000
  -24.1553  -17.8465  145.7021 C   0  0  0  0  0  0  0  0  0  0  0  0
  -23.9795  -18.4462  146.7426 C   0  0  0  0  0  0  0  0  0  0  0  0
  -24.3577  -16.4380  145.7329 C   0  0  0  0  0  0  0  0  0  0  0  0
  -24.6120  -15.7738  146.9649 C   0  0  0  0  0  0  0  0  0  0  0  0
  -24.4666  -16.5590  148.1483 C   0  0  0  0  0  0  0  0  0  0  0  0
  -24.1608  -17.8621  148.1048 C   0  0  0  0  0  0  0  0  0  0  0  0
  -24.4723  -15.5994  144.5525 C   0  0  0  0  0  0  0  0  0  0  0  0
  -24.6785  -14.1500  144.7440 C   0  0  0  0  0  0  0  0  0  0  0  0
  -25.3089  -13.6321  143.8886 C   0  0  0  0  0  0  0  0  0  0  0  0
  -26.3593  -12.6550  144.3906 C   0  0  0  0  0  0  0  0  0  0  0  0
  -27.4446  -12.2678  143.6183 C   0  0  0  0  0  0  0  0  0  0  0  0
  -27.6469  -12.6239  142.2895 C   0  0  0  0  0  0  0  0  0  0  0  0
  -28.5172  -12.0801  141.3933 C   0  0  0  0  0  0  0  0  0  0  0  0
  -28.2466  -12.1682  140.0040 C   0  0  0  0  0  0  0  0  0  0  0  0
  -27.1634  -11.2624  139.4796 C   0  0  0  0  0  0  0  0  0  0  0  0
  -27.5866  -10.2126  138.9459 F   0  0  0  0  0  0  0  0  0  0  0  0
  -26.4136  -11.9281  138.4830 F   0  0  0  0  0  0  0  0  0  0  0  0
  -24.9608  -14.3623  146.9263 C   0  0  0  0  0  0  0  0  0  0  0  0
  -24.9319  -13.5416  145.9464 C   0  0  0  0  0  0  0  0  0  0  0  0
  -25.9546  -12.5008  145.7684 C   0  0  0  0  0  0  0  0  0  0  0  0
  -26.4364  -11.6358  146.6198 O   0  0  0  0  0  0  0  0  0  0  0  0
  -26.2360  -10.8602  140.4098 F   0  0  0  0  0  0  0  0  0  0  0  0
  -23.5160  -12.6665  146.2072 C   0  0  0  0  0  0  0  0  0  0  0  0
  -28.4017  -11.3482  144.2709 C   0  0  0  0  0  0  0  0  0  0  0  0
  -28.7649  -10.1756  143.5934 C   0  0  0  0  0  0  0  0  0  0  0  0
  -29.4648   -9.1621  144.4478 C   0  0  0  0  0  0  0  0  0  0  0  0
  -30.7494   -8.9705  143.9697 C   0  0  0  0  0  0  0  0  0  0  0  0
  -31.0231   -8.7408  142.5883 C   0  0  0  0  0  0  0  0  0  0  0  0
  -32.0835   -8.4546  142.1371 O   0  0  0  0  0  0  0  0  0  0  0  0
  -30.0583   -9.1514  141.7902 O   0  0  0  0  0  0  0  0  0  0  0  0
  3  7  1  0
  7  8  1  0
  8  9  2  0
  9 10  1  0
 10 11  2  3
 11 12  1  0
 12 13  1  0
 13 14  1  0
 14 15  1  0
 15 16  1  0
 15 17  1  0
  4 18  1  0
  8 19  1  0
 18 19  1  0
 10 20  1  0
 19 20  1  0
 20 21  2  0
 15 22  1  0
 19 23  1  0
 11 24  1  0
 24 25  2  3
 25 26  1  0
 26 27  1  0
 27 28  1  0
 28 29  1  0
 28 30  2  0
  1  2  2  0
  2  6  1  0
  6  5  2  0
  5  4  1  0
  4  3  2  0
  3  1  1  0
M  END

$$$$
No_720-/dssg/home/sw_qyf/PocketFlow/Model-Generation-Results/5HT2A_7WC7_rec_A_10.pdb/2024-01-01-03-54-21/
     RDKit          3D

 18 19  0  0  0  0  0  0  0  0999 V2000
  -24.1553  -17.8465  145.7021 C   0  0  0  0  0  0  0  0  0  0  0  0
  -23.9795  -18.4462  146.7426 C   0  0  0  0  0  0  0  0  0  0  0  0
  -25.1196  -16.8106  145.6409 C   0  0  0  0  0  0  0  0  0  0  0  0
  -25.2440  -15.8776  144.5240 C   0  0  0  0  0  0  0  0  0  0  0  0
  -26.0733  -14.7284  144.7061 C   0  0  0  0  0  0  0  0  0  0  0  0
  -26.0749  -13.6607  143.7626 C   0  0  0  0  0  0  0  0  0  0  0  0
  -24.5491  -18.0521  147.9995 C   0  0  0  0  0  0  0  0  0  0  0  0
  -25.4112  -16.9742  148.0640 C   0  0  0  0  0  0  0  0  0  0  0  0
  -25.6107  -16.2038  146.8886 C   0  0  0  0  0  0  0  0  0  0  0  0
  -27.0144  -12.6487  143.8916 C   0  0  0  0  0  0  0  0  0  0  0  0
  -27.4262  -11.9016  142.7626 C   0  0  0  0  0  0  0  0  0  0  0  0
  -28.4112  -10.8819  142.9388 C   0  0  0  0  0  0  0  0  0  0  0  0
  -29.0501  -10.2060  141.9066 C   0  0  0  0  0  0  0  0  0  0  0  0
  -29.3031   -8.9586  142.0862 C   0  0  0  0  0  0  0  0  0  0  0  0
  -29.5956   -8.0197  140.9970 C   0  0  0  0  0  0  0  0  0  0  0  0
  -29.1379   -6.7436  141.0145 C   0  0  0  0  0  0  0  0  0  0  0  0
  -26.4320  -15.0286  146.7724 C   0  0  0  0  0  0  0  0  0  0  0  0
  -26.6420  -14.1693  145.8531 C   0  0  0  0  0  0  0  0  0  0  0  0
  5  6  1  0
  6 10  1  0
 10 11  2  3
 11 12  1  0
 12 13  1  0
 13 14  1  0
 14 15  1  0
 15 16  1  0
  3  4  2  0
  4  5  1  0
  5 18  2  0
 18 17  1  0
 17  9  2  0
  1  2  2  0
  2  7  1  0
  7  8  2  0
  8  9  1  0
  9  3  1  0
  3  1  1  0
M  END

$$$$
No_721-/dssg/home/sw_qyf/PocketFlow/Model-Generation-Results/5HT2A_7WC7_rec_A_10.pdb/2024-01-01-03-54-21/
     RDKit          3D

 35 37  0  0  0  0  0  0  0  0999 V2000
  -23.1746  -16.6014  144.8668 C   0  0  0  0  0  0  0  0  0  0  0  0
  -24.0189  -16.0564  145.8445 C   0  0  0  0  0  0  0  0  0  0  0  0
  -24.4850  -14.7380  145.6359 C   0  0  0  0  0  0  0  0  0  0  0  0
  -24.0208  -14.0081  144.6269 C   0  0  0  0  0  0  0  0  0  0  0  0
  -24.6332  -12.7598  144.3257 C   0  0  0  0  0  0  0  0  0  0  0  0
  -25.8652  -12.5062  145.0571 C   0  0  0  0  0  0  0  0  0  0  0  0
  -26.4077  -11.1921  144.9124 C   0  0  0  0  0  0  0  0  0  0  0  0
  -27.8349  -10.9890  145.0881 C   0  0  0  0  0  0  0  0  0  0  0  0
  -28.5612  -11.6202  146.0846 C   0  0  0  0  0  0  0  0  0  0  0  0
  -27.9645  -12.8810  146.5397 C   0  0  0  0  0  0  0  0  0  0  0  0
  -26.5924  -13.2003  146.1428 C   0  0  0  0  0  0  0  0  0  0  0  0
  -25.8418  -14.4204  146.3375 C   0  0  0  0  0  0  0  0  0  0  0  0
  -24.1699  -16.8095  147.0618 C   0  0  0  0  0  0  0  0  0  0  0  0
  -24.7445  -16.3970  148.2428 C   0  0  0  0  0  0  0  0  0  0  0  0
  -29.8126  -11.3370  146.4459 N   0  0  0  0  0  0  0  0  0  0  0  0
  -24.7543  -17.1235  149.4451 C   0  0  0  0  0  0  0  0  0  0  0  0
  -24.1644  -18.2043  147.1048 C   0  0  0  0  0  0  0  0  0  0  0  0
  -23.5721  -18.8196  146.0142 N   0  0  0  0  0  0  0  0  0  0  0  0
  -23.2465  -18.1339  144.8997 C   0  0  0  0  0  0  0  0  0  0  0  0
  -25.0718  -16.6287  150.6657 C   0  0  0  0  0  0  0  0  0  0  0  0
  -28.4338   -9.7324  144.4857 C   0  0  0  0  0  0  0  0  0  0  0  0
  -28.9788   -9.9994  143.2182 C   0  0  0  0  0  0  0  0  0  0  0  0
  -28.7867  -11.1072  142.4197 C   0  0  0  0  0  0  0  0  0  0  0  0
  -29.8421   -8.9282  142.6712 C   0  0  0  0  0  0  0  0  0  0  0  0
  -31.1377   -8.6982  143.1653 C   0  0  0  0  0  0  0  0  0  0  0  0
  -31.8584   -7.7636  142.6380 O   0  0  0  0  0  0  0  0  0  0  0  0
  -28.9407  -11.1006  141.0252 C   0  0  0  0  0  0  0  0  0  0  0  0
  -27.6680  -10.9821  140.3537 C   0  0  0  0  0  0  0  0  0  0  0  0
  -27.5112  -10.4295  139.3804 C   0  0  0  0  0  0  0  0  0  0  0  0
  -28.4564   -9.4426  138.8200 C   0  0  0  0  0  0  0  0  0  0  0  0
  -28.2232   -8.7151  138.0044 C   0  0  0  0  0  0  0  0  0  0  0  0
  -29.0579   -7.8424  137.6768 F   0  0  0  0  0  0  0  0  0  0  0  0
  -31.5423   -9.3233  144.1890 O   0  0  0  0  0  0  0  0  0  0  0  0
  -28.5660  -13.7179  147.3172 O   0  0  0  0  0  0  0  0  0  0  0  0
  -28.4913  -15.0066  147.4145 C   0  0  0  0  0  0  0  0  0  0  0  0
  2  3  1  0
  6  7  1  0
  7  8  1  0
  8  9  1  0
  9 10  1  0
 10 11  1  0
 13 14  1  0
  9 15  2  0
 14 16  2  3
 16 20  1  0
  8 21  1  0
 21 22  1  0
 22 23  1  0
 22 24  1  0
 24 25  1  0
 25 26  1  0
 23 27  2  3
 27 28  1  0
 28 29  2  3
 29 30  1  0
 30 31  1  0
 31 32  1  0
 25 33  2  0
 10 34  1  0
 34 35  1  0
  1  2  2  0
  2 13  1  0
 13 17  2  0
 17 18  1  0
 18 19  2  0
 19  1  1  0
  3  4  2  0
  4  5  1  0
  5  6  2  0
  6 11  1  0
 11 12  2  0
 12  3  1  0
M  END

$$$$
No_722-/dssg/home/sw_qyf/PocketFlow/Model-Generation-Results/5HT2A_7WC7_rec_A_10.pdb/2024-01-01-03-54-21/
     RDKit          3D

 35 37  0  0  0  0  0  0  0  0999 V2000
  -24.1553  -17.8465  145.7021 C   0  0  0  0  0  0  0  0  0  0  0  0
  -24.2856  -16.6364  145.3494 C   0  0  0  0  0  0  0  0  0  0  0  0
  -24.5733  -15.7651  145.9979 C   0  0  0  0  0  0  0  0  0  0  0  0
  -24.7088  -14.2765  145.5906 C   0  0  0  0  0  0  0  0  0  0  0  0
  -25.2269  -13.1991  146.2986 C   0  0  0  0  0  0  0  0  0  0  0  0
  -24.4599  -18.2327  147.0243 C   0  0  0  0  0  0  0  0  0  0  0  0
  -24.8762  -17.2628  147.9319 C   0  0  0  0  0  0  0  0  0  0  0  0
  -24.9299  -15.8401  147.4544 C   0  0  0  0  0  0  0  0  0  0  0  0
  -25.2243  -11.9149  145.8831 C   0  0  0  0  0  0  0  0  0  0  0  0
  -24.8063  -14.0020  144.1431 C   0  0  0  0  0  0  0  0  0  0  0  0
  -24.0860  -14.7850  143.3876 N   0  0  0  0  0  0  0  0  0  0  0  0
  -26.2009  -11.3757  145.5394 C   0  0  0  0  0  0  0  0  0  0  0  0
  -27.5649  -11.6729  145.8219 C   0  0  0  0  0  0  0  0  0  0  0  0
  -28.6907  -10.9207  145.3479 C   0  0  0  0  0  0  0  0  0  0  0  0
  -30.0305  -11.1759  145.8250 C   0  0  0  0  0  0  0  0  0  0  0  0
  -30.0677  -12.0395  146.9838 C   0  0  0  0  0  0  0  0  0  0  0  0
  -28.9795  -12.8292  147.4305 C   0  0  0  0  0  0  0  0  0  0  0  0
  -27.6887  -12.5327  146.9555 C   0  0  0  0  0  0  0  0  0  0  0  0
  -25.1319  -17.4847  149.3910 C   0  0  0  0  0  0  0  0  0  0  0  0
  -24.1904  -17.9557  150.1287 F   0  0  0  0  0  0  0  0  0  0  0  0
  -26.1582  -18.4058  149.5537 F   0  0  0  0  0  0  0  0  0  0  0  0
  -25.5675  -16.3228  150.0037 F   0  0  0  0  0  0  0  0  0  0  0  0
  -28.5254   -9.9853  144.2894 C   0  0  0  0  0  0  0  0  0  0  0  0
  -28.3482   -9.9449  143.0996 C   0  0  0  0  0  0  0  0  0  0  0  0
  -29.0200   -9.5029  142.1250 C   0  0  0  0  0  0  0  0  0  0  0  0
  -28.6547   -9.7460  140.7233 C   0  0  0  0  0  0  0  0  0  0  0  0
  -27.7258  -10.7391  140.4433 C   0  0  0  0  0  0  0  0  0  0  0  0
  -27.2967  -10.9536  139.1126 C   0  0  0  0  0  0  0  0  0  0  0  0
  -26.3984  -12.0727  139.0005 C   0  0  0  0  0  0  0  0  0  0  0  0
  -26.5912  -13.0943  139.9747 N   0  0  0  0  0  0  0  0  0  0  0  0
  -27.1678  -12.9812  141.1735 C   0  0  0  0  0  0  0  0  0  0  0  0
  -27.8452  -11.7584  141.3691 N   0  0  0  0  0  0  0  0  0  0  0  0
  -28.6370   -8.6124  139.8476 C   0  0  0  0  0  0  0  0  0  0  0  0
  -29.7338   -7.6201  140.0261 C   0  0  0  0  0  0  0  0  0  0  0  0
  -30.3589   -7.5637  141.3639 C   0  0  0  0  0  0  0  0  0  0  0  0
  3  4  1  0
  4  5  1  0
  5  9  2  3
  4 10  1  0
 10 11  1  0
  9 12  1  0
  7 19  1  0
 19 20  1  0
 19 21  1  0
 19 22  1  0
 14 23  1  0
 23 24  2  3
 24 25  1  0
 25 26  2  3
 26 27  1  0
 26 33  1  0
 33 34  2  3
 34 35  1  0
 12 13  1  0
 13 14  1  0
 14 15  2  0
 15 16  1  0
 16 17  2  0
 17 18  1  0
 18 13  2  0
  1  2  2  0
  2  3  1  0
  3  8  2  0
  8  7  1  0
  7  6  2  0
  6  1  1  0
 27 28  2  0
 28 29  1  0
 29 30  2  0
 30 31  1  0
 31 32  2  0
 32 27  1  0
M  END

$$$$
No_723-/dssg/home/sw_qyf/PocketFlow/Model-Generation-Results/5HT2A_7WC7_rec_A_10.pdb/2024-01-01-03-54-21/
     RDKit          3D

 25 26  0  0  0  0  0  0  0  0999 V2000
  -23.1746  -16.6014  144.8668 C   0  0  0  0  0  0  0  0  0  0  0  0
  -23.7011  -17.0158  145.9774 C   0  0  0  0  0  0  0  0  0  0  0  0
  -23.7336  -18.2775  146.3737 C   0  0  0  0  0  0  0  0  0  0  0  0
  -24.1960  -18.6445  147.6859 C   0  0  0  0  0  0  0  0  0  0  0  0
  -24.7100  -17.6145  148.5486 C   0  0  0  0  0  0  0  0  0  0  0  0
  -24.7929  -16.2635  148.0870 C   0  0  0  0  0  0  0  0  0  0  0  0
  -24.2508  -15.9434  146.8891 C   0  0  0  0  0  0  0  0  0  0  0  0
  -22.8159  -17.1770  144.0181 O   0  0  0  0  0  0  0  0  0  0  0  0
  -23.2131  -15.1421  144.7105 N   0  0  0  0  0  0  0  0  0  0  0  0
  -24.1498  -14.3572  145.0869 C   0  0  0  0  0  0  0  0  0  0  0  0
  -24.5220  -14.6525  146.4515 N   0  0  0  0  0  0  0  0  0  0  0  0
  -24.2935  -13.1431  144.7041 F   0  0  0  0  0  0  0  0  0  0  0  0
  -23.2840  -19.2419  145.7028 O   0  0  0  0  0  0  0  0  0  0  0  0
  -25.1672  -17.9982  149.7839 O   0  0  0  0  0  0  0  0  0  0  0  0
  -26.1984  -17.4650  150.4038 C   0  0  0  0  0  0  0  0  0  0  0  0
  -26.8353  -18.4136  151.3454 C   0  0  0  0  0  0  0  0  0  0  0  0
  -28.2267  -18.5027  151.5248 C   0  0  0  0  0  0  0  0  0  0  0  0
  -28.5263  -19.1043  152.6087 O   0  0  0  0  0  0  0  0  0  0  0  0
  -28.9534  -17.8863  150.8546 O   0  0  0  0  0  0  0  0  0  0  0  0
  -29.2694  -16.7149  150.6625 C   0  0  0  0  0  0  0  0  0  0  0  0
  -29.6615  -16.2204  149.2850 C   0  0  0  0  0  0  0  0  0  0  0  0
  -30.1149  -14.9065  149.1445 C   0  0  0  0  0  0  0  0  0  0  0  0
  -29.9364  -14.2686  147.9299 C   0  0  0  0  0  0  0  0  0  0  0  0
  -29.4279  -14.9897  146.8315 C   0  0  0  0  0  0  0  0  0  0  0  0
  -28.7931  -16.1976  147.0774 C   0  0  0  0  0  0  0  0  0  0  0  0
  1  2  1  0
  1  8  2  0
  1  9  1  0
  9 10  1  0
  7 11  1  0
 10 11  1  0
 10 12  1  0
  3 13  1  0
  5 14  1  0
 14 15  1  0
 15 16  1  0
 16 17  1  0
 17 18  2  0
 17 19  1  0
 19 20  1  0
 20 21  2  3
 21 22  1  0
 22 23  2  3
 23 24  1  0
 24 25  2  0
  2  3  2  0
  3  4  1  0
  4  5  2  0
  5  6  1  0
  6  7  2  0
  7  2  1  0
M  END

$$$$
No_724-/dssg/home/sw_qyf/PocketFlow/Model-Generation-Results/5HT2A_7WC7_rec_A_10.pdb/2024-01-01-03-54-21/
     RDKit          3D

 24 26  0  0  0  0  0  0  0  0999 V2000
  -23.1746  -16.6014  144.8668 C   0  0  0  0  0  0  0  0  0  0  0  0
  -23.8963  -15.5346  144.7885 C   0  0  0  0  0  0  0  0  0  0  0  0
  -23.4976  -14.2961  145.1226 C   0  0  0  0  0  0  0  0  0  0  0  0
  -24.3175  -13.3088  145.7775 C   0  0  0  0  0  0  0  0  0  0  0  0
  -25.6586  -13.6027  146.0239 C   0  0  0  0  0  0  0  0  0  0  0  0
  -26.0810  -14.9498  145.8329 C   0  0  0  0  0  0  0  0  0  0  0  0
  -25.1891  -15.8685  145.3064 C   0  0  0  0  0  0  0  0  0  0  0  0
  -27.2577  -15.5116  146.4731 C   0  0  0  0  0  0  0  0  0  0  0  0
  -28.4045  -14.7652  146.4741 C   0  0  0  0  0  0  0  0  0  0  0  0
  -29.5937  -15.1979  147.1458 C   0  0  0  0  0  0  0  0  0  0  0  0
  -27.3980  -16.8173  146.7720 C   0  0  0  0  0  0  0  0  0  0  0  0
  -28.5753  -17.2535  147.4560 N   0  0  0  0  0  0  0  0  0  0  0  0
  -29.5459  -16.4416  147.6845 C   0  0  0  0  0  0  0  0  0  0  0  0
  -30.5629  -14.2639  147.3875 N   0  0  0  0  0  0  0  0  0  0  0  0
  -23.6852  -17.7486  144.3702 O   0  0  0  0  0  0  0  0  0  0  0  0
  -30.6418  -13.6918  148.6474 C   0  0  0  0  0  0  0  0  0  0  0  0
  -31.5396  -12.6346  148.9689 C   0  0  0  0  0  0  0  0  0  0  0  0
  -31.4082  -11.5232  148.3358 C   0  0  0  0  0  0  0  0  0  0  0  0
  -32.7649  -12.9673  149.6769 C   0  0  0  0  0  0  0  0  0  0  0  0
  -33.6738  -11.8890  149.8274 C   0  0  0  0  0  0  0  0  0  0  0  0
  -30.1659  -11.2909  147.7024 N   0  0  0  0  0  0  0  0  0  0  0  0
  -33.4641  -10.6578  149.1401 C   0  0  0  0  0  0  0  0  0  0  0  0
  -32.3241  -10.4663  148.4902 C   0  0  0  0  0  0  0  0  0  0  0  0
  -23.8803  -11.9867  145.9327 N   0  0  0  0  0  0  0  0  0  0  0  0
  6  8  1  0
 10 14  1  0
  1 15  1  0
 14 16  2  3
 16 17  1  0
 18 21  1  0
  4 24  1  0
  1  2  1  0
 17 18  2  0
 18 23  1  0
 23 22  2  0
 22 20  1  0
 20 19  2  0
 19 17  1  0
  2  3  2  0
  3  4  1  0
  4  5  2  0
  5  6  1  0
  6  7  2  0
  7  2  1  0
  8  9  2  0
  9 10  1  0
 10 13  2  0
 13 12  1  0
 12 11  2  0
 11  8  1  0
M  END

$$$$
No_725-/dssg/home/sw_qyf/PocketFlow/Model-Generation-Results/5HT2A_7WC7_rec_A_10.pdb/2024-01-01-03-54-21/
     RDKit          3D

 10 10  0  0  0  0  0  0  0  0999 V2000
  -23.1746  -16.6014  144.8668 C   0  0  0  0  0  0  0  0  0  0  0  0
  -23.7011  -17.0158  145.9774 C   0  0  0  0  0  0  0  0  0  0  0  0
  -24.2134  -16.0722  146.8877 C   0  0  0  0  0  0  0  0  0  0  0  0
  -23.3742  -15.2706  144.3922 C   0  0  0  0  0  0  0  0  0  0  0  0
  -24.0445  -14.2973  145.2608 C   0  0  0  0  0  0  0  0  0  0  0  0
  -24.4773  -14.7066  146.5258 C   0  0  0  0  0  0  0  0  0  0  0  0
  -24.1815  -12.8836  144.8776 C   0  0  0  0  0  0  0  0  0  0  0  0
  -24.2354  -11.9666  145.9880 C   0  0  0  0  0  0  0  0  0  0  0  0
  -23.5674  -18.3371  146.4128 N   0  0  0  0  0  0  0  0  0  0  0  0
  -25.2352  -12.3873  147.0391 C   0  0  0  0  0  0  0  0  0  0  0  0
  5  7  1  0
  7  8  1  0
  2  9  1  0
  8 10  1  0
  1  2  2  0
  2  3  1  0
  3  6  2  0
  6  5  1  0
  5  4  2  0
  4  1  1  0
M  END

$$$$
No_726-/dssg/home/sw_qyf/PocketFlow/Model-Generation-Results/5HT2A_7WC7_rec_A_10.pdb/2024-01-01-03-54-21/
     RDKit          3D

 26 28  0  0  0  0  0  0  0  0999 V2000
  -24.1553  -17.8465  145.7021 C   0  0  0  0  0  0  0  0  0  0  0  0
  -24.6364  -17.2931  146.7091 C   0  0  0  0  0  0  0  0  0  0  0  0
  -25.8608  -16.5592  146.5934 C   0  0  0  0  0  0  0  0  0  0  0  0
  -26.9933  -16.9082  147.1889 C   0  0  0  0  0  0  0  0  0  0  0  0
  -28.2350  -16.1839  146.8943 C   0  0  0  0  0  0  0  0  0  0  0  0
  -28.1591  -14.9305  146.2109 C   0  0  0  0  0  0  0  0  0  0  0  0
  -26.9098  -14.5235  145.6600 C   0  0  0  0  0  0  0  0  0  0  0  0
  -26.7803  -13.3518  144.9071 C   0  0  0  0  0  0  0  0  0  0  0  0
  -25.7354  -15.2994  145.8723 C   0  0  0  0  0  0  0  0  0  0  0  0
  -24.5063  -14.9092  145.2502 C   0  0  0  0  0  0  0  0  0  0  0  0
  -26.8220  -14.8860  144.5946 Br  0  0  0  0  0  0  0  0  0  0  0  0
  -25.2281  -14.6171  147.0138 C   0  0  0  0  0  0  0  0  0  0  0  0
  -27.1160  -12.6621  143.6008 C   0  0  0  0  0  0  0  0  0  0  0  0
  -27.6228  -11.2957  143.7202 C   0  0  0  0  0  0  0  0  0  0  0  0
  -27.3516  -10.5943  144.8992 C   0  0  0  0  0  0  0  0  0  0  0  0
  -27.0413  -12.6288  146.2113 C   0  0  0  0  0  0  0  0  0  0  0  0
  -27.0562  -11.1131  146.2323 C   0  0  0  0  0  0  0  0  0  0  0  0
  -24.5172  -15.6348  145.8543 C   0  0  0  0  0  0  0  0  0  0  0  0
  -23.8963  -16.8668  145.5785 C   0  0  0  0  0  0  0  0  0  0  0  0
  -23.7934  -15.1994  146.9411 O   0  0  0  0  0  0  0  0  0  0  0  0
  -25.0867  -13.1883  147.0366 C   0  0  0  0  0  0  0  0  0  0  0  0
  -25.7975  -14.8719  148.3159 C   0  0  0  0  0  0  0  0  0  0  0  0
  -26.4901  -15.9801  145.9026 Br  0  0  0  0  0  0  0  0  0  0  0  0
  -26.2648  -13.0310  147.3223 O   0  0  0  0  0  0  0  0  0  0  0  0
  -22.9436  -15.3462  147.7436 C   0  0  0  0  0  0  0  0  0  0  0  0
  -25.7071  -13.9137  147.6855 O   0  0  0  0  0  0  0  0  0  0  0  0
  1  2  1  0
  2  3  1  0
  3  4  1  0
  4  5  2  3
  5  6  1  0
  6  7  2  3
  7  8  1  0
  3  9  1  0
  9 10  1  0
  7 11  1  0
  9 12  1  0
 10 18  1  0
  1 19  1  0
 18 19  1  0
 18 20  1  0
 12 21  1  0
 12 22  1  0
  9 23  1  0
 16 24  1  0
 21 24  1  0
 20 25  1  0
 22 26  1  0
  8 13  2  0
 13 14  1  0
 14 15  2  0
 15 17  1  0
 17 16  2  0
 16  8  1  0
M  END

$$$$
No_727-/dssg/home/sw_qyf/PocketFlow/Model-Generation-Results/5HT2A_7WC7_rec_A_10.pdb/2024-01-01-03-54-21/
     RDKit          3D

 29 30  0  0  0  0  0  0  0  0999 V2000
  -24.1553  -17.8465  145.7021 C   0  0  0  0  0  0  0  0  0  0  0  0
  -23.9795  -18.4462  146.7426 C   0  0  0  0  0  0  0  0  0  0  0  0
  -23.3558  -17.2450  144.9339 C   0  0  0  0  0  0  0  0  0  0  0  0
  -23.8124  -18.0051  147.7479 C   0  0  0  0  0  0  0  0  0  0  0  0
  -23.4069  -16.4918  147.7987 C   0  0  0  0  0  0  0  0  0  0  0  0
  -22.9986  -15.9115  145.4566 C   0  0  0  0  0  0  0  0  0  0  0  0
  -22.9329  -15.6673  146.8440 C   0  0  0  0  0  0  0  0  0  0  0  0
  -22.6277  -14.8814  144.6590 N   0  0  0  0  0  0  0  0  0  0  0  0
  -23.3420  -13.7721  144.3703 C   0  0  0  0  0  0  0  0  0  0  0  0
  -24.3766  -13.4206  145.1072 N   0  0  0  0  0  0  0  0  0  0  0  0
  -24.9518  -12.1947  145.1057 C   0  0  0  0  0  0  0  0  0  0  0  0
  -26.3653  -12.1796  145.1715 C   0  0  0  0  0  0  0  0  0  0  0  0
  -26.9095  -12.9939  146.1506 C   0  0  0  0  0  0  0  0  0  0  0  0
  -26.2558  -14.2642  146.3560 C   0  0  0  0  0  0  0  0  0  0  0  0
  -24.9149  -14.4311  145.8999 C   0  0  0  0  0  0  0  0  0  0  0  0
  -26.8715  -10.6506  145.4302 C   0  0  0  0  0  0  0  0  0  0  0  0
  -28.1670  -10.3759  144.6962 C   0  0  0  0  0  0  0  0  0  0  0  0
  -28.2240   -9.4381  143.7118 C   0  0  0  0  0  0  0  0  0  0  0  0
  -29.5019   -9.1445  143.1000 C   0  0  0  0  0  0  0  0  0  0  0  0
  -30.5585   -8.9580  143.9889 C   0  0  0  0  0  0  0  0  0  0  0  0
  -31.7594   -8.6002  143.4608 N   0  0  0  0  0  0  0  0  0  0  0  0
  -29.7237   -9.1210  141.7253 C   0  0  0  0  0  0  0  0  0  0  0  0
  -28.8126   -9.5340  140.8085 C   0  0  0  0  0  0  0  0  0  0  0  0
  -28.1617  -10.7250  140.9273 C   0  0  0  0  0  0  0  0  0  0  0  0
  -27.3362  -11.2497  139.9445 C   0  0  0  0  0  0  0  0  0  0  0  0
  -27.1980  -12.6649  139.6265 C   0  0  0  0  0  0  0  0  0  0  0  0
  -28.5143   -8.6734  139.7181 C   0  0  0  0  0  0  0  0  0  0  0  0
  -27.7976   -9.1543  138.5545 C   0  0  0  0  0  0  0  0  0  0  0  0
  -27.6669   -8.2466  137.5706 C   0  0  0  0  0  0  0  0  0  0  0  0
  1  2  2  0
  1  3  1  0
  2  4  1  0
  4  5  2  0
  3  6  1  0
  5  7  1  0
  6  7  2  0
  6  8  1  0
  8  9  1  0
  9 10  1  0
 10 11  1  0
 11 12  1  0
 13 14  1  0
 10 15  1  0
 14 15  1  0
 12 16  1  0
 16 17  1  0
 17 18  1  0
 18 19  1  0
 19 20  1  0
 20 21  1  0
 19 22  1  0
 22 23  1  0
 23 24  2  3
 24 25  1  0
 25 26  2  0
 23 27  1  0
 27 28  1  0
 28 29  1  0
 12 13  1  0
M  END

$$$$
No_728-/dssg/home/sw_qyf/PocketFlow/Model-Generation-Results/5HT2A_7WC7_rec_A_10.pdb/2024-01-01-03-54-21/
     RDKit          3D

 26 28  0  0  0  0  0  0  0  0999 V2000
  -23.1746  -16.6014  144.8668 C   0  0  0  0  0  0  0  0  0  0  0  0
  -23.7011  -17.0158  145.9774 C   0  0  0  0  0  0  0  0  0  0  0  0
  -24.2134  -16.0722  146.8877 C   0  0  0  0  0  0  0  0  0  0  0  0
  -23.3742  -15.2706  144.3922 C   0  0  0  0  0  0  0  0  0  0  0  0
  -24.0445  -14.2973  145.2608 C   0  0  0  0  0  0  0  0  0  0  0  0
  -24.2269  -12.9067  144.8433 C   0  0  0  0  0  0  0  0  0  0  0  0
  -24.4280  -14.7101  146.5452 C   0  0  0  0  0  0  0  0  0  0  0  0
  -25.3544  -12.2532  145.5363 C   0  0  0  0  0  0  0  0  0  0  0  0
  -26.5668  -12.1352  144.9061 C   0  0  0  0  0  0  0  0  0  0  0  0
  -27.7468  -11.8344  145.7621 C   0  0  0  0  0  0  0  0  0  0  0  0
  -28.9661  -11.3370  145.2610 C   0  0  0  0  0  0  0  0  0  0  0  0
  -30.0681  -10.9575  146.0961 C   0  0  0  0  0  0  0  0  0  0  0  0
  -30.0458  -11.4708  147.3364 O   0  0  0  0  0  0  0  0  0  0  0  0
  -23.5634  -18.4127  146.4541 C   0  0  0  0  0  0  0  0  0  0  0  0
  -22.6275  -18.8829  146.8586 O   0  0  0  0  0  0  0  0  0  0  0  0
  -24.6323  -19.1946  146.0869 O   0  0  0  0  0  0  0  0  0  0  0  0
  -29.5439  -12.6812  147.4763 C   0  0  0  0  0  0  0  0  0  0  0  0
  -28.9864  -13.2952  146.6063 C   0  0  0  0  0  0  0  0  0  0  0  0
  -27.9202  -13.4744  145.9865 C   0  0  0  0  0  0  0  0  0  0  0  0
  -28.9593  -10.8829  143.9195 C   0  0  0  0  0  0  0  0  0  0  0  0
  -28.1109  -11.1895  142.9204 C   0  0  0  0  0  0  0  0  0  0  0  0
  -27.2091  -11.8636  142.9323 C   0  0  0  0  0  0  0  0  0  0  0  0
  -26.6797  -12.1923  143.4774 C   0  0  0  0  0  0  0  0  0  0  0  0
  -29.9090  -13.1157  148.7844 O   0  0  0  0  0  0  0  0  0  0  0  0
  -30.0762  -10.2364  143.6034 F   0  0  0  0  0  0  0  0  0  0  0  0
  -29.8052  -14.7336  146.4756 C   0  0  0  0  0  0  0  0  0  0  0  0
  5  6  1  0
  6  8  1  0
  8  9  1  0
  9 10  1  0
 10 11  1  0
 11 12  1  0
 12 13  1  0
  2 14  1  0
 14 15  2  0
 14 16  1  0
 13 17  1  0
 17 18  1  0
 10 19  1  0
 18 19  1  0
 11 20  1  0
 20 21  2  0
 21 22  1  0
  9 23  1  0
 22 23  1  0
 17 24  1  0
 20 25  1  0
 18 26  1  0
  1  2  2  0
  2  3  1  0
  3  7  2  0
  7  5  1  0
  5  4  2  0
  4  1  1  0
M  END

$$$$
No_729-/dssg/home/sw_qyf/PocketFlow/Model-Generation-Results/5HT2A_7WC7_rec_A_10.pdb/2024-01-01-03-54-21/
     RDKit          3D

 12 12  0  0  0  0  0  0  0  0999 V2000
  -23.1746  -16.6014  144.8668 C   0  0  0  0  0  0  0  0  0  0  0  0
  -24.0189  -16.0564  145.8445 C   0  0  0  0  0  0  0  0  0  0  0  0
  -24.4145  -16.8299  146.9062 C   0  0  0  0  0  0  0  0  0  0  0  0
  -25.2273  -16.2787  147.9854 C   0  0  0  0  0  0  0  0  0  0  0  0
  -25.6425  -17.1231  149.0822 C   0  0  0  0  0  0  0  0  0  0  0  0
  -24.4551  -14.6526  145.7069 C   0  0  0  0  0  0  0  0  0  0  0  0
  -23.6834  -13.7358  145.7970 C   0  0  0  0  0  0  0  0  0  0  0  0
  -22.8564  -13.6962  144.5281 C   0  0  0  0  0  0  0  0  0  0  0  0
  -22.3283  -14.6352  143.8158 N   0  0  0  0  0  0  0  0  0  0  0  0
  -22.4839  -15.9185  143.9875 C   0  0  0  0  0  0  0  0  0  0  0  0
  -24.0229  -18.1726  147.1107 C   0  0  0  0  0  0  0  0  0  0  0  0
  -24.4401  -18.9372  148.1975 F   0  0  0  0  0  0  0  0  0  0  0  0
  1  2  1  0
  2  3  2  3
  3  4  1  0
  4  5  1  0
  2  6  1  0
  6  7  2  0
  7  8  1  0
  8  9  1  0
  1 10  2  0
  9 10  1  0
  3 11  1  0
 11 12  1  0
M  END

$$$$
No_730-/dssg/home/sw_qyf/PocketFlow/Model-Generation-Results/5HT2A_7WC7_rec_A_10.pdb/2024-01-01-03-54-21/
     RDKit          3D

 35 36  0  0  0  0  0  0  0  0999 V2000
  -23.1746  -16.6014  144.8668 C   0  0  0  0  0  0  0  0  0  0  0  0
  -23.8963  -15.5346  144.7885 C   0  0  0  0  0  0  0  0  0  0  0  0
  -23.6398  -14.5115  145.3282 C   0  0  0  0  0  0  0  0  0  0  0  0
  -24.3239  -13.3647  145.1279 C   0  0  0  0  0  0  0  0  0  0  0  0
  -23.8301  -12.0965  145.7919 C   0  0  0  0  0  0  0  0  0  0  0  0
  -25.3057  -13.1625  144.3108 O   0  0  0  0  0  0  0  0  0  0  0  0
  -23.6154  -17.8027  145.6026 C   0  0  0  0  0  0  0  0  0  0  0  0
  -24.2991  -18.7368  145.4357 C   0  0  0  0  0  0  0  0  0  0  0  0
  -24.5554  -19.7624  146.4307 C   0  0  0  0  0  0  0  0  0  0  0  0
  -26.4302  -12.4898  144.8198 C   0  0  0  0  0  0  0  0  0  0  0  0
  -26.9290  -12.6743  145.9057 C   0  0  0  0  0  0  0  0  0  0  0  0
  -28.1346  -11.9436  146.4076 C   0  0  0  0  0  0  0  0  0  0  0  0
  -28.8428  -11.1343  145.4788 C   0  0  0  0  0  0  0  0  0  0  0  0
  -28.3232  -10.9830  144.1856 C   0  0  0  0  0  0  0  0  0  0  0  0
  -27.1673  -11.6444  143.8515 C   0  0  0  0  0  0  0  0  0  0  0  0
  -29.0411  -10.1419  143.2077 C   0  0  0  0  0  0  0  0  0  0  0  0
  -28.8812   -8.9632  143.0856 C   0  0  0  0  0  0  0  0  0  0  0  0
  -29.5679   -8.0860  142.1654 C   0  0  0  0  0  0  0  0  0  0  0  0
  -28.9757   -7.8507  140.7548 C   0  0  0  0  0  0  0  0  0  0  0  0
  -29.5897   -7.2749  139.8820 C   0  0  0  0  0  0  0  0  0  0  0  0
  -29.8128  -10.7890  142.3650 O   0  0  0  0  0  0  0  0  0  0  0  0
  -29.6117   -8.0108  138.7070 C   0  0  0  0  0  0  0  0  0  0  0  0
  -28.5048   -8.7638  138.3827 C   0  0  0  0  0  0  0  0  0  0  0  0
  -27.7532   -9.3929  139.3476 C   0  0  0  0  0  0  0  0  0  0  0  0
  -28.0738   -8.9648  140.7228 C   0  0  0  0  0  0  0  0  0  0  0  0
  -30.7187   -7.3187  142.6293 C   0  0  0  0  0  0  0  0  0  0  0  0
  -22.7626  -17.8803  146.9338 C   0  0  0  0  0  0  0  0  0  0  0  0
  -30.2823  -10.3630  146.0237 Cl  0  0  0  0  0  0  0  0  0  0  0  0
  -28.3560   -9.1033  137.0667 N   0  0  0  0  0  0  0  0  0  0  0  0
  -31.9015   -7.9023  142.4143 O   0  0  0  0  0  0  0  0  0  0  0  0
  -23.2443  -17.3060  147.9669 N   0  0  0  0  0  0  0  0  0  0  0  0
  -24.3972  -16.7624  148.1854 C   0  0  0  0  0  0  0  0  0  0  0  0
  -25.3642  -17.5737  149.0199 C   0  0  0  0  0  0  0  0  0  0  0  0
  -25.7807  -16.7582  150.3154 C   0  0  0  0  0  0  0  0  0  0  0  0
  -30.5860   -6.1896  143.1403 O   0  0  0  0  0  0  0  0  0  0  0  0
  1  2  1  0
  2  3  2  3
  3  4  1  0
  4  5  1  0
  4  6  1  0
  1  7  1  0
  7  8  2  3
  8  9  1  0
  6 10  1  0
 14 16  1  0
 16 17  1  0
 17 18  1  0
 16 21  2  0
 18 26  1  0
  7 27  1  0
 13 28  1  0
 23 29  1  0
 26 30  1  0
 27 31  1  0
 31 32  1  0
 32 33  1  0
 33 34  1  0
 26 35  2  0
 18 19  1  0
 19 20  2  0
 20 22  1  0
 22 23  2  0
 23 24  1  0
 24 25  2  0
 25 19  1  0
 10 11  2  0
 11 12  1  0
 12 13  2  0
 13 14  1  0
 14 15  2  0
 15 10  1  0
M  END

$$$$
No_731-/dssg/home/sw_qyf/PocketFlow/Model-Generation-Results/5HT2A_7WC7_rec_A_10.pdb/2024-01-01-03-54-21/
     RDKit          3D

 13 13  0  0  0  0  0  0  0  0999 V2000
  -24.1553  -17.8465  145.7021 C   0  0  0  0  0  0  0  0  0  0  0  0
  -24.6364  -17.2931  146.7091 C   0  0  0  0  0  0  0  0  0  0  0  0
  -25.8608  -16.5592  146.5934 C   0  0  0  0  0  0  0  0  0  0  0  0
  -25.9088  -15.1597  146.9911 C   0  0  0  0  0  0  0  0  0  0  0  0
  -26.8304  -14.2303  146.5024 C   0  0  0  0  0  0  0  0  0  0  0  0
  -28.1334  -14.3679  146.9858 C   0  0  0  0  0  0  0  0  0  0  0  0
  -29.0462  -13.3065  146.8635 C   0  0  0  0  0  0  0  0  0  0  0  0
  -28.6237  -12.1709  146.0898 C   0  0  0  0  0  0  0  0  0  0  0  0
  -29.5580  -11.0943  145.8188 C   0  0  0  0  0  0  0  0  0  0  0  0
  -29.2591  -10.1905  144.7454 C   0  0  0  0  0  0  0  0  0  0  0  0
  -28.0354  -10.1880  144.1277 C   0  0  0  0  0  0  0  0  0  0  0  0
  -27.0905  -11.2085  144.5638 C   0  0  0  0  0  0  0  0  0  0  0  0
  -27.3888  -12.1281  145.5237 C   0  0  0  0  0  0  0  0  0  0  0  0
  1  2  1  0
  2  3  1  0
  3  4  1  0
  4  5  1  0
  5  6  1  0
  6  7  2  3
  7  8  1  0
  8  9  2  0
  9 10  1  0
 10 11  2  0
 11 12  1  0
 12 13  2  0
 13  8  1  0
M  END

$$$$
No_732-/dssg/home/sw_qyf/PocketFlow/Model-Generation-Results/5HT2A_7WC7_rec_A_10.pdb/2024-01-01-03-54-21/
     RDKit          3D

 19 21  0  0  0  0  0  0  0  0999 V2000
  -23.1746  -16.6014  144.8668 C   0  0  0  0  0  0  0  0  0  0  0  0
  -23.8963  -15.5346  144.7885 C   0  0  0  0  0  0  0  0  0  0  0  0
  -24.5755  -15.0383  145.9043 C   0  0  0  0  0  0  0  0  0  0  0  0
  -25.0618  -13.6819  146.0347 C   0  0  0  0  0  0  0  0  0  0  0  0
  -24.0242  -12.8249  145.9593 C   0  0  0  0  0  0  0  0  0  0  0  0
  -23.8786  -17.6652  145.6663 C   0  0  0  0  0  0  0  0  0  0  0  0
  -24.6984  -17.2858  146.7874 C   0  0  0  0  0  0  0  0  0  0  0  0
  -24.9794  -18.2283  147.8734 C   0  0  0  0  0  0  0  0  0  0  0  0
  -25.0250  -15.9330  146.9283 C   0  0  0  0  0  0  0  0  0  0  0  0
  -26.3684  -13.2402  146.1372 C   0  0  0  0  0  0  0  0  0  0  0  0
  -26.8643  -12.4198  145.3120 C   0  0  0  0  0  0  0  0  0  0  0  0
  -25.9668  -11.2339  145.1510 C   0  0  0  0  0  0  0  0  0  0  0  0
  -24.4924  -11.5630  145.2374 C   0  0  0  0  0  0  0  0  0  0  0  0
  -28.2134  -11.6902  145.7509 C   0  0  0  0  0  0  0  0  0  0  0  0
  -28.9183  -12.1917  146.9043 C   0  0  0  0  0  0  0  0  0  0  0  0
  -30.2318  -11.6971  147.1801 C   0  0  0  0  0  0  0  0  0  0  0  0
  -30.6427  -10.7792  146.2872 N   0  0  0  0  0  0  0  0  0  0  0  0
  -29.0046  -10.7685  144.9945 C   0  0  0  0  0  0  0  0  0  0  0  0
  -30.1458  -10.2728  145.3316 C   0  0  0  0  0  0  0  0  0  0  0  0
  1  2  1  0
  2  3  1  0
  3  4  1  0
  1  6  1  0
  6  7  1  0
  7  8  2  0
  3  9  1  0
  7  9  1  0
 11 14  1  0
 14 15  2  0
 15 16  1  0
 16 17  2  0
 17 19  1  0
 19 18  2  0
 18 14  1  0
  4  5  2  0
  5 13  1  0
 13 12  2  0
 12 11  1  0
 11 10  2  0
 10  4  1  0
M  END

$$$$
No_733-/dssg/home/sw_qyf/PocketFlow/Model-Generation-Results/5HT2A_7WC7_rec_A_10.pdb/2024-01-01-03-54-21/
     RDKit          3D

 30 32  0  0  0  0  0  0  0  0999 V2000
  -24.1553  -17.8465  145.7021 C   0  0  0  0  0  0  0  0  0  0  0  0
  -23.9795  -18.4462  146.7426 C   0  0  0  0  0  0  0  0  0  0  0  0
  -23.3558  -17.2451  144.9339 C   0  0  0  0  0  0  0  0  0  0  0  0
  -24.9341  -19.0253  147.6214 C   0  0  0  0  0  0  0  0  0  0  0  0
  -23.7687  -15.8246  144.5219 C   0  0  0  0  0  0  0  0  0  0  0  0
  -24.2496  -15.0218  145.6575 C   0  0  0  0  0  0  0  0  0  0  0  0
  -25.1398  -15.4275  146.4843 C   0  0  0  0  0  0  0  0  0  0  0  0
  -24.8694  -16.9164  146.8820 C   0  0  0  0  0  0  0  0  0  0  0  0
  -25.2746  -17.4713  148.1302 C   0  0  0  0  0  0  0  0  0  0  0  0
  -24.0494  -13.5403  145.5108 C   0  0  0  0  0  0  0  0  0  0  0  0
  -24.4698  -12.6462  146.4717 C   0  0  0  0  0  0  0  0  0  0  0  0
  -23.1466  -13.0180  144.5161 C   0  0  0  0  0  0  0  0  0  0  0  0
  -25.3302  -11.4967  146.0322 C   0  0  0  0  0  0  0  0  0  0  0  0
  -26.4297  -11.8397  145.2187 C   0  0  0  0  0  0  0  0  0  0  0  0
  -27.0893  -10.7832  144.5403 C   0  0  0  0  0  0  0  0  0  0  0  0
  -28.1026  -10.9348  143.7639 C   0  0  0  0  0  0  0  0  0  0  0  0
  -29.3070  -10.2087  143.7606 C   0  0  0  0  0  0  0  0  0  0  0  0
  -29.4657   -9.0616  142.8942 C   0  0  0  0  0  0  0  0  0  0  0  0
  -28.9252   -9.2421  141.5804 C   0  0  0  0  0  0  0  0  0  0  0  0
  -29.1981   -8.3047  140.5713 C   0  0  0  0  0  0  0  0  0  0  0  0
  -29.7010   -7.0926  140.9516 C   0  0  0  0  0  0  0  0  0  0  0  0
  -30.1857   -6.8722  142.2303 C   0  0  0  0  0  0  0  0  0  0  0  0
  -30.0831   -7.8970  143.2274 C   0  0  0  0  0  0  0  0  0  0  0  0
  -28.4935   -8.5575  139.3572 C   0  0  0  0  0  0  0  0  0  0  0  0
  -28.7180   -7.6856  138.2042 C   0  0  0  0  0  0  0  0  0  0  0  0
  -30.1409  -10.2901  144.7573 O   0  0  0  0  0  0  0  0  0  0  0  0
  -27.6272   -9.6623  139.1869 C   0  0  0  0  0  0  0  0  0  0  0  0
  -27.8867  -10.9619  139.6123 C   0  0  0  0  0  0  0  0  0  0  0  0
  -26.8354  -11.8982  139.5210 C   0  0  0  0  0  0  0  0  0  0  0  0
  -27.1459  -13.1379  139.6677 O   0  0  0  0  0  0  0  0  0  0  0  0
  2  4  1  0
  4  9  1  0
  8  9  1  0
  6 10  1  0
 10 11  1  0
 10 12  1  0
 11 13  1  0
 13 14  1  0
 14 15  2  3
 15 16  1  0
 16 17  1  0
 20 24  1  0
 24 25  1  0
 17 26  1  0
 24 27  1  0
 27 28  1  0
 28 29  1  0
 29 30  1  0
  2  1  1  0
 17 18  1  0
 18 19  2  0
 19 20  1  0
 20 21  2  0
 21 22  1  0
 22 23  2  0
 23 18  1  0
  1  3  2  0
  3  5  1  0
  5  6  2  0
  6  7  1  0
  7  8  2  0
  8  1  1  0
M  END

$$$$
No_734-/dssg/home/sw_qyf/PocketFlow/Model-Generation-Results/5HT2A_7WC7_rec_A_10.pdb/2024-01-01-03-54-21/
     RDKit          3D

 35 37  0  0  0  0  0  0  0  0999 V2000
  -24.1553  -17.8465  145.7021 C   0  0  0  0  0  0  0  0  0  0  0  0
  -24.6364  -17.2931  146.7091 C   0  0  0  0  0  0  0  0  0  0  0  0
  -24.0780  -17.2921  147.9389 C   0  0  0  0  0  0  0  0  0  0  0  0
  -24.6869  -16.7004  149.1440 C   0  0  0  0  0  0  0  0  0  0  0  0
  -26.0385  -16.2385  148.9552 C   0  0  0  0  0  0  0  0  0  0  0  0
  -26.6430  -16.2999  147.7413 C   0  0  0  0  0  0  0  0  0  0  0  0
  -25.9652  -16.9120  146.6641 C   0  0  0  0  0  0  0  0  0  0  0  0
  -23.7856  -16.8939  144.5670 C   0  0  0  0  0  0  0  0  0  0  0  0
  -24.1052  -15.5444  145.0328 C   0  0  0  0  0  0  0  0  0  0  0  0
  -24.1497  -14.5648  144.2274 C   0  0  0  0  0  0  0  0  0  0  0  0
  -24.4436  -13.1709  144.7000 C   0  0  0  0  0  0  0  0  0  0  0  0
  -23.5335  -12.4424  145.0839 C   0  0  0  0  0  0  0  0  0  0  0  0
  -22.1599  -12.8665  145.2041 C   0  0  0  0  0  0  0  0  0  0  0  0
  -21.2862  -11.5803  144.8482 C   0  0  0  0  0  0  0  0  0  0  0  0
  -28.0279  -15.7446  147.6231 C   0  0  0  0  0  0  0  0  0  0  0  0
  -28.1726  -14.5850  146.8146 C   0  0  0  0  0  0  0  0  0  0  0  0
  -29.1442  -13.6259  147.0322 C   0  0  0  0  0  0  0  0  0  0  0  0
  -30.1682  -13.7783  148.0081 C   0  0  0  0  0  0  0  0  0  0  0  0
  -31.1943  -12.8527  148.2107 C   0  0  0  0  0  0  0  0  0  0  0  0
  -32.0722  -12.9783  149.3598 C   0  0  0  0  0  0  0  0  0  0  0  0
  -31.7061  -13.7984  150.3942 C   0  0  0  0  0  0  0  0  0  0  0  0
  -30.7432  -14.8400  150.1802 C   0  0  0  0  0  0  0  0  0  0  0  0
  -29.8754  -14.7524  149.0729 C   0  0  0  0  0  0  0  0  0  0  0  0
  -28.8823  -15.7856  148.8777 C   0  0  0  0  0  0  0  0  0  0  0  0
  -33.3098  -11.8029  149.5403 Cl  0  0  0  0  0  0  0  0  0  0  0  0
  -23.8379  -19.2332  145.5584 C   0  0  0  0  0  0  0  0  0  0  0  0
  -29.2815  -12.3346  145.9312 Cl  0  0  0  0  0  0  0  0  0  0  0  0
  -25.8748  -12.7720  144.6470 C   0  0  0  0  0  0  0  0  0  0  0  0
  -26.2157  -11.6515  145.1988 N   0  0  0  0  0  0  0  0  0  0  0  0
  -26.7442  -10.6069  144.4629 C   0  0  0  0  0  0  0  0  0  0  0  0
  -26.7704   -9.3025  144.9868 C   0  0  0  0  0  0  0  0  0  0  0  0
  -27.4533  -10.8956  143.2976 C   0  0  0  0  0  0  0  0  0  0  0  0
  -28.2115  -10.0116  142.5940 C   0  0  0  0  0  0  0  0  0  0  0  0
  -28.5935  -10.2895  141.2956 C   0  0  0  0  0  0  0  0  0  0  0  0
  -28.2955  -11.5282  140.8510 C   0  0  0  0  0  0  0  0  0  0  0  0
  1  2  1  0
  1  8  1  0
  8  9  1  0
  9 10  2  3
 10 11  1  0
 11 12  2  3
 12 13  1  0
 13 14  1  0
  6 15  1  0
 20 25  1  0
  1 26  1  0
 17 27  1  0
 11 28  1  0
 28 29  1  0
 29 30  1  0
 30 31  2  0
 30 32  1  0
 32 33  1  0
 33 34  1  0
 34 35  2  0
 18 19  1  0
 19 20  2  0
 20 21  1  0
 21 22  2  0
 22 23  1  0
  2  3  2  0
  3  4  1  0
  4  5  2  0
  5  6  1  0
  6  7  2  0
  7  2  1  0
 15 16  2  0
 16 17  1  0
 17 18  2  0
 18 23  1  0
 23 24  2  0
 24 15  1  0
M  END

$$$$
No_735-/dssg/home/sw_qyf/PocketFlow/Model-Generation-Results/5HT2A_7WC7_rec_A_10.pdb/2024-01-01-03-54-21/
     RDKit          3D

 25 27  0  0  0  0  0  0  0  0999 V2000
  -24.1553  -17.8465  145.7021 C   0  0  0  0  0  0  0  0  0  0  0  0
  -23.9795  -18.4462  146.7426 C   0  0  0  0  0  0  0  0  0  0  0  0
  -25.1593  -16.8262  145.6925 C   0  0  0  0  0  0  0  0  0  0  0  0
  -25.3302  -15.8818  144.5925 C   0  0  0  0  0  0  0  0  0  0  0  0
  -24.4570  -18.1009  148.0274 C   0  0  0  0  0  0  0  0  0  0  0  0
  -25.3496  -17.0286  148.1023 C   0  0  0  0  0  0  0  0  0  0  0  0
  -25.5669  -16.2449  146.9641 C   0  0  0  0  0  0  0  0  0  0  0  0
  -25.1576  -14.4266  144.8319 C   0  0  0  0  0  0  0  0  0  0  0  0
  -25.8827  -13.8502  145.7954 C   0  0  0  0  0  0  0  0  0  0  0  0
  -25.8981  -12.4436  146.0214 C   0  0  0  0  0  0  0  0  0  0  0  0
  -26.0588  -11.6541  145.2957 C   0  0  0  0  0  0  0  0  0  0  0  0
  -26.0141  -14.7738  146.9499 C   0  0  0  0  0  0  0  0  0  0  0  0
  -25.7752  -11.3982  144.1861 C   0  0  0  0  0  0  0  0  0  0  0  0
  -26.1518  -10.1731  143.5004 N   0  0  0  0  0  0  0  0  0  0  0  0
  -25.8801  -16.6420  149.2544 O   0  0  0  0  0  0  0  0  0  0  0  0
  -27.0214   -9.6180  144.4455 C   0  0  0  0  0  0  0  0  0  0  0  0
  -27.0241  -10.4421  145.5867 C   0  0  0  0  0  0  0  0  0  0  0  0
  -23.7653  -18.2549  144.5558 O   0  0  0  0  0  0  0  0  0  0  0  0
  -25.2965  -17.1887  150.3523 C   0  0  0  0  0  0  0  0  0  0  0  0
  -27.7164   -8.5095  144.2561 N   0  0  0  0  0  0  0  0  0  0  0  0
  -27.7113   -7.6802  143.2961 C   0  0  0  0  0  0  0  0  0  0  0  0
  -29.0685   -7.4229  142.7569 C   0  0  0  0  0  0  0  0  0  0  0  0
  -29.2696   -7.2611  141.4332 C   0  0  0  0  0  0  0  0  0  0  0  0
  -28.8415   -6.8132  140.5379 C   0  0  0  0  0  0  0  0  0  0  0  0
  -29.2276   -7.1097  139.0726 C   0  0  0  0  0  0  0  0  0  0  0  0
  3  4  1  0
  4  8  1  0
  8  9  1  0
  9 10  2  3
 10 11  1  0
  7 12  1  0
  9 12  1  0
 11 13  2  0
 13 14  1  0
  6 15  1  0
 14 16  2  0
 11 17  1  0
 16 17  1  0
  1 18  1  0
 15 19  1  0
 16 20  1  0
 20 21  1  0
 21 22  1  0
 22 23  2  3
 23 24  1  0
 24 25  2  0
  1  2  2  0
  2  5  1  0
  5  6  2  0
  6  7  1  0
  7  3  2  0
  3  1  1  0
M  END

$$$$
No_736-/dssg/home/sw_qyf/PocketFlow/Model-Generation-Results/5HT2A_7WC7_rec_A_10.pdb/2024-01-01-03-54-21/
     RDKit          3D

  7  7  0  0  0  0  0  0  0  0999 V2000
  -24.1553  -17.8465  145.7021 C   0  0  0  0  0  0  0  0  0  0  0  0
  -24.2855  -16.6364  145.3494 C   0  0  0  0  0  0  0  0  0  0  0  0
  -25.0033  -15.6772  146.0737 C   0  0  0  0  0  0  0  0  0  0  0  0
  -25.6964  -16.1809  147.2049 C   0  0  0  0  0  0  0  0  0  0  0  0
  -24.8143  -18.3454  146.8324 C   0  0  0  0  0  0  0  0  0  0  0  0
  -25.5291  -17.4614  147.6374 C   0  0  0  0  0  0  0  0  0  0  0  0
  -23.6447  -16.0678  144.2141 N   0  0  0  0  0  0  0  0  0  0  0  0
  2  7  1  0
  1  2  2  0
  2  3  1  0
  3  4  2  0
  4  6  1  0
  6  5  2  0
  5  1  1  0
M  END

$$$$
No_737-/dssg/home/sw_qyf/PocketFlow/Model-Generation-Results/5HT2A_7WC7_rec_A_10.pdb/2024-01-01-03-54-21/
     RDKit          3D

 31 34  0  0  0  0  0  0  0  0999 V2000
  -23.1746  -16.6014  144.8668 C   0  0  0  0  0  0  0  0  0  0  0  0
  -23.7011  -17.0158  145.9774 C   0  0  0  0  0  0  0  0  0  0  0  0
  -24.7095  -16.6222  146.3578 C   0  0  0  0  0  0  0  0  0  0  0  0
  -25.2589  -16.9410  147.8028 C   0  0  0  0  0  0  0  0  0  0  0  0
  -26.4622  -16.4173  148.3314 C   0  0  0  0  0  0  0  0  0  0  0  0
  -23.7746  -15.4747  144.2302 C   0  0  0  0  0  0  0  0  0  0  0  0
  -24.8823  -14.8618  144.8182 C   0  0  0  0  0  0  0  0  0  0  0  0
  -25.3598  -15.4040  145.9867 C   0  0  0  0  0  0  0  0  0  0  0  0
  -27.1114  -15.3626  147.6342 C   0  0  0  0  0  0  0  0  0  0  0  0
  -26.5597  -14.8326  146.4791 C   0  0  0  0  0  0  0  0  0  0  0  0
  -27.2616  -13.7312  145.8818 C   0  0  0  0  0  0  0  0  0  0  0  0
  -28.3779  -13.1277  146.4712 C   0  0  0  0  0  0  0  0  0  0  0  0
  -28.8777  -11.8823  145.9592 C   0  0  0  0  0  0  0  0  0  0  0  0
  -28.4019  -11.3693  144.7665 C   0  0  0  0  0  0  0  0  0  0  0  0
  -28.9091  -10.2191  144.1105 C   0  0  0  0  0  0  0  0  0  0  0  0
  -28.2883   -9.6035  143.0612 C   0  0  0  0  0  0  0  0  0  0  0  0
  -29.0035   -8.5904  142.4239 C   0  0  0  0  0  0  0  0  0  0  0  0
  -28.5460   -7.9020  141.3496 C   0  0  0  0  0  0  0  0  0  0  0  0
  -28.0858   -8.7713  140.2723 C   0  0  0  0  0  0  0  0  0  0  0  0
  -27.4779  -10.0426  140.6525 C   0  0  0  0  0  0  0  0  0  0  0  0
  -27.8164  -10.4975  142.0437 C   0  0  0  0  0  0  0  0  0  0  0  0
  -26.7772  -12.9799  144.7968 C   0  0  0  0  0  0  0  0  0  0  0  0
  -27.2756  -12.0114  144.1935 C   0  0  0  0  0  0  0  0  0  0  0  0
  -26.7777  -10.8647  139.7588 C   0  0  0  0  0  0  0  0  0  0  0  0
  -25.8763  -10.4824  139.3961 O   0  0  0  0  0  0  0  0  0  0  0  0
  -27.2378  -12.1620  139.6522 N   0  0  0  0  0  0  0  0  0  0  0  0
  -30.3005  -11.2645  146.7038 Cl  0  0  0  0  0  0  0  0  0  0  0  0
  -22.9901  -18.3077  146.5417 C   0  0  0  0  0  0  0  0  0  0  0  0
  -27.9863   -8.2555  138.9827 C   0  0  0  0  0  0  0  0  0  0  0  0
  -21.8928  -18.4644  146.4562 O   0  0  0  0  0  0  0  0  0  0  0  0
  -23.7547  -19.0276  147.3542 O   0  0  0  0  0  0  0  0  0  0  0  0
 10 11  1  0
 14 15  1  0
 15 16  1  0
 20 24  1  0
 24 25  2  0
 24 26  1  0
 13 27  1  0
  2 28  1  0
 19 29  1  0
 28 30  2  0
 28 31  1  0
 11 12  2  0
 12 13  1  0
 13 14  2  0
 14 23  1  0
 23 22  2  0
 22 11  1  0
  1  2  2  0
  2  3  1  0
  8  7  1  0
  7  6  2  0
  6  1  1  0
  3  4  2  0
  4  5  1  0
  5  9  2  0
  9 10  1  0
 10  8  2  0
  8  3  1  0
 16 17  2  0
 17 18  1  0
 18 19  2  0
 19 20  1  0
 20 21  2  0
 21 16  1  0
M  END

$$$$
No_738-/dssg/home/sw_qyf/PocketFlow/Model-Generation-Results/5HT2A_7WC7_rec_A_10.pdb/2024-01-01-03-54-21/
     RDKit          3D

  9  9  0  0  0  0  0  0  0  0999 V2000
  -24.1553  -17.8465  145.7021 C   0  0  0  0  0  0  0  0  0  0  0  0
  -24.6364  -17.2931  146.7091 C   0  0  0  0  0  0  0  0  0  0  0  0
  -24.0780  -17.2921  147.9389 C   0  0  0  0  0  0  0  0  0  0  0  0
  -24.3226  -16.7242  148.9587 C   0  0  0  0  0  0  0  0  0  0  0  0
  -25.7690  -16.1909  149.0219 C   0  0  0  0  0  0  0  0  0  0  0  0
  -26.5042  -16.3022  147.8715 C   0  0  0  0  0  0  0  0  0  0  0  0
  -25.9312  -16.8728  146.7789 C   0  0  0  0  0  0  0  0  0  0  0  0
  -23.6920  -18.9196  145.4230 F   0  0  0  0  0  0  0  0  0  0  0  0
  -24.0485  -16.9977  144.5516 F   0  0  0  0  0  0  0  0  0  0  0  0
  1  2  1  0
  1  8  1  0
  1  9  1  0
  2  3  2  0
  3  4  1  0
  4  5  2  0
  5  6  1  0
  6  7  2  0
  7  2  1  0
M  END

$$$$
No_739-/dssg/home/sw_qyf/PocketFlow/Model-Generation-Results/5HT2A_7WC7_rec_A_10.pdb/2024-01-01-03-54-21/
     RDKit          3D

  7  7  0  0  0  0  0  0  0  0999 V2000
  -23.8931  -18.2534  145.3804 F   0  0  0  0  0  0  0  0  0  0  0  0
  -24.3394  -17.2619  146.1054 C   0  0  0  0  0  0  0  0  0  0  0  0
  -24.5544  -17.4430  147.4759 C   0  0  0  0  0  0  0  0  0  0  0  0
  -24.5326  -16.0207  145.4717 C   0  0  0  0  0  0  0  0  0  0  0  0
  -24.9357  -14.8953  146.0800 C   0  0  0  0  0  0  0  0  0  0  0  0
  -25.0048  -16.2085  148.1951 C   0  0  0  0  0  0  0  0  0  0  0  0
  -25.2010  -15.0021  147.5838 C   0  0  0  0  0  0  0  0  0  0  0  0
  1  2  1  0
  2  3  2  0
  3  6  1  0
  6  7  2  0
  7  5  1  0
  5  4  2  0
  4  2  1  0
M  END

$$$$
No_740-/dssg/home/sw_qyf/PocketFlow/Model-Generation-Results/5HT2A_7WC7_rec_A_10.pdb/2024-01-01-03-54-21/
     RDKit          3D

 27 29  0  0  0  0  0  0  0  0999 V2000
  -24.1553  -17.8465  145.7021 C   0  0  0  0  0  0  0  0  0  0  0  0
  -23.9795  -18.4462  146.7426 C   0  0  0  0  0  0  0  0  0  0  0  0
  -24.2723  -16.4220  145.8037 C   0  0  0  0  0  0  0  0  0  0  0  0
  -24.0151  -15.5895  144.6874 C   0  0  0  0  0  0  0  0  0  0  0  0
  -24.7969  -14.3928  144.4905 C   0  0  0  0  0  0  0  0  0  0  0  0
  -26.1516  -14.5745  144.2520 C   0  0  0  0  0  0  0  0  0  0  0  0
  -26.9310  -13.4637  144.7593 C   0  0  0  0  0  0  0  0  0  0  0  0
  -27.4757  -13.4283  146.0453 C   0  0  0  0  0  0  0  0  0  0  0  0
  -27.2306  -14.0483  147.0573 C   0  0  0  0  0  0  0  0  0  0  0  0
  -23.9021  -17.5893  147.9666 C   0  0  0  0  0  0  0  0  0  0  0  0
  -24.0480  -16.2730  147.8579 C   0  0  0  0  0  0  0  0  0  0  0  0
  -24.2048  -15.6364  146.9491 C   0  0  0  0  0  0  0  0  0  0  0  0
  -28.5469  -12.3103  146.2208 C   0  0  0  0  0  0  0  0  0  0  0  0
  -29.5434  -12.4763  147.2077 C   0  0  0  0  0  0  0  0  0  0  0  0
  -29.6062  -13.5149  148.0834 C   0  0  0  0  0  0  0  0  0  0  0  0
  -28.3599  -14.4281  148.0536 C   0  0  0  0  0  0  0  0  0  0  0  0
  -28.7638  -11.3748  145.2450 N   0  0  0  0  0  0  0  0  0  0  0  0
  -29.7853  -10.5635  145.0321 C   0  0  0  0  0  0  0  0  0  0  0  0
  -29.8097   -9.7919  143.8164 C   0  0  0  0  0  0  0  0  0  0  0  0
  -30.4326   -8.5870  143.7519 C   0  0  0  0  0  0  0  0  0  0  0  0
  -30.8406   -8.2139  142.4981 C   0  0  0  0  0  0  0  0  0  0  0  0
  -29.8098   -8.3063  141.4824 C   0  0  0  0  0  0  0  0  0  0  0  0
  -29.1601   -9.6242  141.4308 C   0  0  0  0  0  0  0  0  0  0  0  0
  -28.2430   -9.9724  140.4179 C   0  0  0  0  0  0  0  0  0  0  0  0
  -29.0574  -10.3060  142.7102 C   0  0  0  0  0  0  0  0  0  0  0  0
  -27.4306  -11.0740  140.4196 C   0  0  0  0  0  0  0  0  0  0  0  0
  -26.8138  -11.4649  139.1717 C   0  0  0  0  0  0  0  0  0  0  0  0
  3  4  1  0
  4  5  1  0
  5  6  1  0
  6  7  1  0
 13 17  1  0
 17 18  1  0
 18 19  1  0
 19 20  1  0
 20 21  1  0
 21 22  1  0
 22 23  1  0
 23 24  1  0
 19 25  1  0
 23 25  1  0
 24 26  2  3
 26 27  1  0
  7  8  1  0
  8  9  2  0
  9 16  1  0
 16 15  2  0
 15 14  1  0
 14 13  2  0
 13  8  1  0
  1  2  2  0
  2 10  1  0
 10 11  2  0
 11 12  1  0
 12  3  2  0
  3  1  1  0
M  END

$$$$
No_741-/dssg/home/sw_qyf/PocketFlow/Model-Generation-Results/5HT2A_7WC7_rec_A_10.pdb/2024-01-01-03-54-21/
     RDKit          3D

 26 28  0  0  0  0  0  0  0  0999 V2000
  -23.1746  -16.6014  144.8668 C   0  0  0  0  0  0  0  0  0  0  0  0
  -24.0189  -16.0564  145.8445 C   0  0  0  0  0  0  0  0  0  0  0  0
  -24.4145  -16.8299  146.9062 C   0  0  0  0  0  0  0  0  0  0  0  0
  -23.9612  -18.1384  147.0126 C   0  0  0  0  0  0  0  0  0  0  0  0
  -23.1429  -18.6221  146.0418 C   0  0  0  0  0  0  0  0  0  0  0  0
  -22.8095  -17.8231  145.0610 N   0  0  0  0  0  0  0  0  0  0  0  0
  -24.5719  -14.6427  145.6756 C   0  0  0  0  0  0  0  0  0  0  0  0
  -25.4662  -14.0927  146.6142 C   0  0  0  0  0  0  0  0  0  0  0  0
  -25.8890  -12.7637  146.5457 C   0  0  0  0  0  0  0  0  0  0  0  0
  -25.4446  -11.9578  145.4322 C   0  0  0  0  0  0  0  0  0  0  0  0
  -24.5339  -12.4774  144.5815 C   0  0  0  0  0  0  0  0  0  0  0  0
  -24.0511  -13.7948  144.6633 C   0  0  0  0  0  0  0  0  0  0  0  0
  -25.8999  -10.6470  145.3928 O   0  0  0  0  0  0  0  0  0  0  0  0
  -26.4521  -10.1811  144.2809 C   0  0  0  0  0  0  0  0  0  0  0  0
  -27.8204   -9.7440  144.5253 C   0  0  0  0  0  0  0  0  0  0  0  0
  -28.6295   -9.3705  143.4077 C   0  0  0  0  0  0  0  0  0  0  0  0
  -28.5227  -10.2782  142.3288 C   0  0  0  0  0  0  0  0  0  0  0  0
  -28.8761   -9.7565  141.0781 C   0  0  0  0  0  0  0  0  0  0  0  0
  -29.5786   -8.5378  140.9798 C   0  0  0  0  0  0  0  0  0  0  0  0
  -29.8256   -7.7469  142.1795 C   0  0  0  0  0  0  0  0  0  0  0  0
  -29.2416   -8.1728  143.3652 C   0  0  0  0  0  0  0  0  0  0  0  0
  -29.9532   -7.9091  139.7103 C   0  0  0  0  0  0  0  0  0  0  0  0
  -28.8690   -7.3612  138.8748 C   0  0  0  0  0  0  0  0  0  0  0  0
  -28.4051   -8.3166  137.8349 C   0  0  0  0  0  0  0  0  0  0  0  0
  -27.8352   -9.3760  138.2245 O   0  0  0  0  0  0  0  0  0  0  0  0
  -28.8817   -8.3042  136.5864 O   0  0  0  0  0  0  0  0  0  0  0  0
  2  7  1  0
 10 13  1  0
 13 14  1  0
 14 15  1  0
 15 16  1  0
 19 22  1  0
 22 23  1  0
 23 24  1  0
 24 25  2  0
 24 26  1  0
  1  2  2  0
  2  3  1  0
  3  4  2  0
  4  5  1  0
  5  6  2  0
  6  1  1  0
  7  8  2  0
  8  9  1  0
  9 10  2  0
 10 11  1  0
 11 12  2  0
 12  7  1  0
 16 17  2  0
 17 18  1  0
 18 19  2  0
 19 20  1  0
 20 21  2  0
 21 16  1  0
M  END

$$$$
No_742-/dssg/home/sw_qyf/PocketFlow/Model-Generation-Results/5HT2A_7WC7_rec_A_10.pdb/2024-01-01-03-54-21/
     RDKit          3D

  9  9  0  0  0  0  0  0  0  0999 V2000
  -23.1746  -16.6014  144.8668 C   0  0  0  0  0  0  0  0  0  0  0  0
  -23.7011  -17.0158  145.9774 C   0  0  0  0  0  0  0  0  0  0  0  0
  -24.2134  -16.0722  146.8877 C   0  0  0  0  0  0  0  0  0  0  0  0
  -24.5407  -14.7704  146.3553 C   0  0  0  0  0  0  0  0  0  0  0  0
  -24.1477  -14.4045  145.0969 C   0  0  0  0  0  0  0  0  0  0  0  0
  -23.4211  -15.3299  144.3881 C   0  0  0  0  0  0  0  0  0  0  0  0
  -23.4890  -18.3920  146.5737 C   0  0  0  0  0  0  0  0  0  0  0  0
  -24.1625  -19.1648  146.4983 O   0  0  0  0  0  0  0  0  0  0  0  0
  -22.2865  -18.5670  147.1512 O   0  0  0  0  0  0  0  0  0  0  0  0
  2  7  1  0
  7  8  2  0
  7  9  1  0
  1  2  2  0
  2  3  1  0
  3  4  2  0
  4  5  1  0
  5  6  2  0
  6  1  1  0
M  END

$$$$
No_743-/dssg/home/sw_qyf/PocketFlow/Model-Generation-Results/5HT2A_7WC7_rec_A_10.pdb/2024-01-01-03-54-21/
     RDKit          3D

 35 35  0  0  0  0  0  0  0  0999 V2000
  -24.1553  -17.8465  145.7021 C   0  0  0  0  0  0  0  0  0  0  0  0
  -24.6364  -17.2931  146.7091 C   0  0  0  0  0  0  0  0  0  0  0  0
  -24.0780  -17.2921  147.9389 C   0  0  0  0  0  0  0  0  0  0  0  0
  -24.6761  -16.7363  149.1478 C   0  0  0  0  0  0  0  0  0  0  0  0
  -25.9985  -16.2638  148.9932 C   0  0  0  0  0  0  0  0  0  0  0  0
  -26.6270  -16.3412  147.7728 C   0  0  0  0  0  0  0  0  0  0  0  0
  -25.9734  -16.9166  146.6819 C   0  0  0  0  0  0  0  0  0  0  0  0
  -23.5997  -19.0159  145.5545 N   0  0  0  0  0  0  0  0  0  0  0  0
  -23.9479  -17.0229  144.6103 O   0  0  0  0  0  0  0  0  0  0  0  0
  -28.0536  -15.8909  147.7453 C   0  0  0  0  0  0  0  0  0  0  0  0
  -29.1048  -16.4295  148.3698 C   0  0  0  0  0  0  0  0  0  0  0  0
  -28.3050  -14.7139  146.9365 C   0  0  0  0  0  0  0  0  0  0  0  0
  -29.5713  -14.0819  147.0971 C   0  0  0  0  0  0  0  0  0  0  0  0
  -29.6763  -12.8372  147.4277 C   0  0  0  0  0  0  0  0  0  0  0  0
  -30.8102  -12.2272  147.8926 F   0  0  0  0  0  0  0  0  0  0  0  0
  -28.6445  -12.3675  148.3422 F   0  0  0  0  0  0  0  0  0  0  0  0
  -29.2883  -12.0582  146.2554 F   0  0  0  0  0  0  0  0  0  0  0  0
  -22.7892  -17.7053  148.1138 O   0  0  0  0  0  0  0  0  0  0  0  0
  -27.3672  -14.1183  146.1098 C   0  0  0  0  0  0  0  0  0  0  0  0
  -26.3994  -13.2645  146.5966 C   0  0  0  0  0  0  0  0  0  0  0  0
  -25.3705  -12.6565  145.8016 C   0  0  0  0  0  0  0  0  0  0  0  0
  -24.5819  -13.2310  145.1909 C   0  0  0  0  0  0  0  0  0  0  0  0
  -23.1323  -12.7583  145.0436 C   0  0  0  0  0  0  0  0  0  0  0  0
  -22.2366  -13.2998  144.1245 C   0  0  0  0  0  0  0  0  0  0  0  0
  -25.5328  -11.2002  145.6027 C   0  0  0  0  0  0  0  0  0  0  0  0
  -26.4055  -10.5776  146.3213 O   0  0  0  0  0  0  0  0  0  0  0  0
  -24.9326  -10.6206  144.6980 O   0  0  0  0  0  0  0  0  0  0  0  0
  -22.5583  -14.4436  143.6998 O   0  0  0  0  0  0  0  0  0  0  0  0
  -21.1359  -12.7536  143.9331 O   0  0  0  0  0  0  0  0  0  0  0  0
  -23.9580  -16.7968  150.7135 Cl  0  0  0  0  0  0  0  0  0  0  0  0
  -27.9866  -13.7522  144.7694 C   0  0  0  0  0  0  0  0  0  0  0  0
  -26.9870  -13.7710  143.7655 C   0  0  0  0  0  0  0  0  0  0  0  0
  -27.3041  -13.0315  142.5448 C   0  0  0  0  0  0  0  0  0  0  0  0
  -27.8937  -11.7819  142.5481 C   0  0  0  0  0  0  0  0  0  0  0  0
  -28.1791  -11.1180  141.4786 C   0  0  0  0  0  0  0  0  0  0  0  0
  1  2  1  0
  1  8  1  0
  1  9  2  0
  6 10  1  0
 10 11  2  0
 10 12  1  0
 12 13  1  0
 13 14  1  0
 14 15  1  0
 14 16  1  0
 14 17  1  0
  3 18  1  0
 12 19  1  0
 19 20  2  3
 20 21  1  0
 21 22  1  0
 22 23  2  3
 23 24  1  0
 21 25  1  0
 25 26  1  0
 25 27  2  0
 24 28  1  0
 24 29  2  0
  4 30  1  0
 19 31  1  0
 31 32  1  0
 32 33  1  0
 33 34  2  3
 34 35  1  0
  2  3  2  0
  3  4  1  0
  4  5  2  0
  5  6  1  0
  6  7  2  0
  7  2  1  0
M  END

$$$$
No_744-/dssg/home/sw_qyf/PocketFlow/Model-Generation-Results/5HT2A_7WC7_rec_A_10.pdb/2024-01-01-03-54-21/
     RDKit          3D

 24 25  0  0  0  0  0  0  0  0999 V2000
  -23.1746  -16.6014  144.8668 C   0  0  0  0  0  0  0  0  0  0  0  0
  -23.8963  -15.5346  144.7885 C   0  0  0  0  0  0  0  0  0  0  0  0
  -23.4976  -14.2961  145.1226 C   0  0  0  0  0  0  0  0  0  0  0  0
  -24.3175  -13.3088  145.7775 C   0  0  0  0  0  0  0  0  0  0  0  0
  -25.6586  -13.6027  146.0239 C   0  0  0  0  0  0  0  0  0  0  0  0
  -26.5243  -12.6257  146.4591 C   0  0  0  0  0  0  0  0  0  0  0  0
  -27.9081  -12.9068  146.5773 C   0  0  0  0  0  0  0  0  0  0  0  0
  -28.2593  -14.2457  146.7240 C   0  0  0  0  0  0  0  0  0  0  0  0
  -27.3342  -15.2631  146.5440 C   0  0  0  0  0  0  0  0  0  0  0  0
  -26.0136  -14.9493  146.2435 C   0  0  0  0  0  0  0  0  0  0  0  0
  -25.3256  -15.8291  145.4113 C   0  0  0  0  0  0  0  0  0  0  0  0
  -29.6596  -14.5454  147.1053 C   0  0  0  0  0  0  0  0  0  0  0  0
  -28.9338  -11.8507  146.7405 C   0  0  0  0  0  0  0  0  0  0  0  0
  -29.3046  -10.9317  145.6804 C   0  0  0  0  0  0  0  0  0  0  0  0
  -28.4699  -10.7336  144.6272 C   0  0  0  0  0  0  0  0  0  0  0  0
  -27.1447  -10.9180  144.5636 C   0  0  0  0  0  0  0  0  0  0  0  0
  -29.1450  -10.5840  143.2848 C   0  0  0  0  0  0  0  0  0  0  0  0
  -30.2165   -9.7174  143.1483 C   0  0  0  0  0  0  0  0  0  0  0  0
  -30.0587   -8.6347  142.2280 C   0  0  0  0  0  0  0  0  0  0  0  0
  -30.0000   -7.4421  142.2323 C   0  0  0  0  0  0  0  0  0  0  0  0
  -29.7067   -6.5002  141.1824 C   0  0  0  0  0  0  0  0  0  0  0  0
  -29.4482   -7.1353  139.9317 C   0  0  0  0  0  0  0  0  0  0  0  0
  -28.6655   -8.0288  139.7253 C   0  0  0  0  0  0  0  0  0  0  0  0
  -28.7299   -9.3993  140.3393 C   0  0  0  0  0  0  0  0  0  0  0  0
  1  2  2  0
  2  3  1  0
  3  4  1  0
  4  5  1  0
  2 11  1  0
 10 11  1  0
  8 12  1  0
  7 13  1  0
 13 14  1  0
 14 15  1  0
 15 16  1  0
 15 17  1  0
 17 18  1  0
 18 19  2  3
 19 20  1  0
 20 21  2  3
 21 22  1  0
 22 23  2  3
 23 24  1  0
  5  6  2  0
  6  7  1  0
  7  8  2  0
  8  9  1  0
  9 10  2  0
 10  5  1  0
M  END

$$$$
No_745-/dssg/home/sw_qyf/PocketFlow/Model-Generation-Results/5HT2A_7WC7_rec_A_10.pdb/2024-01-01-03-54-21/
     RDKit          3D

 21 21  0  0  0  0  0  0  0  0999 V2000
  -24.1553  -17.8465  145.7021 C   0  0  0  0  0  0  0  0  0  0  0  0
  -24.6364  -17.2931  146.7091 C   0  0  0  0  0  0  0  0  0  0  0  0
  -24.0469  -17.2473  147.9274 C   0  0  0  0  0  0  0  0  0  0  0  0
  -24.6298  -16.6776  149.1482 C   0  0  0  0  0  0  0  0  0  0  0  0
  -25.9998  -16.2560  149.0017 C   0  0  0  0  0  0  0  0  0  0  0  0
  -26.6404  -16.3554  147.8106 C   0  0  0  0  0  0  0  0  0  0  0  0
  -25.9970  -16.9514  146.7138 C   0  0  0  0  0  0  0  0  0  0  0  0
  -23.5439  -19.1010  145.5715 C   0  0  0  0  0  0  0  0  0  0  0  0
  -28.0484  -15.9171  147.5512 C   0  0  0  0  0  0  0  0  0  0  0  0
  -28.2872  -14.9291  146.6344 C   0  0  0  0  0  0  0  0  0  0  0  0
  -27.3368  -14.6108  145.7121 C   0  0  0  0  0  0  0  0  0  0  0  0
  -27.4312  -13.3964  144.9271 C   0  0  0  0  0  0  0  0  0  0  0  0
  -28.2815  -12.3131  145.3812 C   0  0  0  0  0  0  0  0  0  0  0  0
  -28.3857  -11.0998  144.6764 C   0  0  0  0  0  0  0  0  0  0  0  0
  -27.9653  -10.9888  143.3616 C   0  0  0  0  0  0  0  0  0  0  0  0
  -28.2789   -9.8379  142.6661 C   0  0  0  0  0  0  0  0  0  0  0  0
  -29.0405   -8.7948  143.2856 C   0  0  0  0  0  0  0  0  0  0  0  0
  -29.3406   -7.6610  142.4748 C   0  0  0  0  0  0  0  0  0  0  0  0
  -29.8789   -6.4830  143.0746 C   0  0  0  0  0  0  0  0  0  0  0  0
  -29.3205   -7.7072  141.0313 C   0  0  0  0  0  0  0  0  0  0  0  0
  -29.8119   -6.7089  140.2412 C   0  0  0  0  0  0  0  0  0  0  0  0
  1  2  2  3
  2  3  1  0
  3  4  1  0
  4  5  1  0
  5  6  1  0
  2  7  1  0
  6  7  1  0
  1  8  1  0
  6  9  1  0
  9 10  1  0
 10 11  2  3
 11 12  1  0
 12 13  2  3
 13 14  1  0
 14 15  2  3
 15 16  1  0
 16 17  2  3
 17 18  1  0
 18 19  1  0
 18 20  1  0
 20 21  2  0
M  END

$$$$
No_746-/dssg/home/sw_qyf/PocketFlow/Model-Generation-Results/5HT2A_7WC7_rec_A_10.pdb/2024-01-01-03-54-21/
     RDKit          3D

 29 29  0  0  0  0  0  0  0  0999 V2000
  -24.1553  -17.8465  145.7021 C   0  0  0  0  0  0  0  0  0  0  0  0
  -23.9795  -18.4462  146.7426 C   0  0  0  0  0  0  0  0  0  0  0  0
  -25.1593  -16.8262  145.6925 C   0  0  0  0  0  0  0  0  0  0  0  0
  -24.9465  -15.5960  144.9952 C   0  0  0  0  0  0  0  0  0  0  0  0
  -23.7545  -15.2259  144.5478 C   0  0  0  0  0  0  0  0  0  0  0  0
  -23.5462  -13.9028  144.0166 C   0  0  0  0  0  0  0  0  0  0  0  0
  -22.2809  -13.5819  143.8841 F   0  0  0  0  0  0  0  0  0  0  0  0
  -24.1758  -13.6674  142.9044 F   0  0  0  0  0  0  0  0  0  0  0  0
  -24.0980  -12.8792  144.9333 F   0  0  0  0  0  0  0  0  0  0  0  0
  -24.0338  -17.5667  148.2413 Br  0  0  0  0  0  0  0  0  0  0  0  0
  -26.4181  -17.1022  146.2632 C   0  0  0  0  0  0  0  0  0  0  0  0
  -27.6044  -16.2889  145.9962 C   0  0  0  0  0  0  0  0  0  0  0  0
  -27.5245  -15.1477  146.5372 C   0  0  0  0  0  0  0  0  0  0  0  0
  -28.2369  -13.9027  146.2674 C   0  0  0  0  0  0  0  0  0  0  0  0
  -27.8344  -12.5931  146.5185 C   0  0  0  0  0  0  0  0  0  0  0  0
  -28.6861  -11.5364  146.0972 C   0  0  0  0  0  0  0  0  0  0  0  0
  -28.4825  -10.8409  144.8846 C   0  0  0  0  0  0  0  0  0  0  0  0
  -29.5112  -10.0655  144.2378 C   0  0  0  0  0  0  0  0  0  0  0  0
  -29.3984   -9.6009  142.9991 C   0  0  0  0  0  0  0  0  0  0  0  0
  -30.0417   -8.4506  142.5884 C   0  0  0  0  0  0  0  0  0  0  0  0
  -29.7850   -7.8036  141.3356 C   0  0  0  0  0  0  0  0  0  0  0  0
  -29.0333   -8.5790  140.4187 C   0  0  0  0  0  0  0  0  0  0  0  0
  -28.4870   -9.8258  140.7610 C   0  0  0  0  0  0  0  0  0  0  0  0
  -28.6646  -10.3048  142.0733 C   0  0  0  0  0  0  0  0  0  0  0  0
  -28.6133   -8.0573  139.1477 C   0  0  0  0  0  0  0  0  0  0  0  0
  -27.8899   -8.7484  138.2011 C   0  0  0  0  0  0  0  0  0  0  0  0
  -27.5444  -10.0833  138.6817 C   0  0  0  0  0  0  0  0  0  0  0  0
  -27.8008  -10.5743  139.9028 C   0  0  0  0  0  0  0  0  0  0  0  0
  -27.3045  -11.9310  140.2030 C   0  0  0  0  0  0  0  0  0  0  0  0
  1  2  1  0
  1  3  1  0
  3  4  1  0
  4  5  2  3
  5  6  1  0
  6  7  1  0
  6  8  1  0
  6  9  1  0
  2 10  1  0
  3 11  1  0
 11 12  2  3
 12 13  1  0
 13 14  2  3
 14 15  1  0
 15 16  1  0
 16 17  2  3
 17 18  1  0
 18 19  1  0
 22 25  1  0
 25 26  2  3
 26 27  1  0
 27 28  2  3
 28 29  1  0
 19 20  2  0
 20 21  1  0
 21 22  2  0
 22 23  1  0
 23 24  2  0
 24 19  1  0
M  END

$$$$
No_747-/dssg/home/sw_qyf/PocketFlow/Model-Generation-Results/5HT2A_7WC7_rec_A_10.pdb/2024-01-01-03-54-21/
     RDKit          3D

 14 14  0  0  0  0  0  0  0  0999 V2000
  -23.1746  -16.6014  144.8668 C   0  0  0  0  0  0  0  0  0  0  0  0
  -24.0189  -16.0564  145.8445 C   0  0  0  0  0  0  0  0  0  0  0  0
  -24.4850  -14.7380  145.6359 C   0  0  0  0  0  0  0  0  0  0  0  0
  -24.0208  -14.0081  144.6269 C   0  0  0  0  0  0  0  0  0  0  0  0
  -24.6332  -12.7598  144.3256 C   0  0  0  0  0  0  0  0  0  0  0  0
  -24.4333  -11.9691  145.5736 C   0  0  0  0  0  0  0  0  0  0  0  0
  -24.4633  -16.9282  146.9174 C   0  0  0  0  0  0  0  0  0  0  0  0
  -23.6030  -17.6619  147.5406 C   0  0  0  0  0  0  0  0  0  0  0  0
  -25.2258  -16.0313  147.9972 C   0  0  0  0  0  0  0  0  0  0  0  0
  -25.2444  -12.5942  146.7489 C   0  0  0  0  0  0  0  0  0  0  0  0
  -24.6868  -13.9647  146.9615 C   0  0  0  0  0  0  0  0  0  0  0  0
  -25.8724  -17.0363  148.9872 C   0  0  0  0  0  0  0  0  0  0  0  0
  -24.9018  -17.5398  149.8625 O   0  0  0  0  0  0  0  0  0  0  0  0
  -22.7695  -18.4331  146.8846 O   0  0  0  0  0  0  0  0  0  0  0  0
  1  2  1  0
  2  3  1  0
  3  4  1  0
  4  5  1  0
  5  6  1  0
  2  7  1  0
  7  8  1  0
  7  9  1  0
  6 10  1  0
  3 11  1  0
 10 11  1  0
  9 12  1  0
 12 13  1  0
  8 14  2  0
M  END

$$$$
No_748-/dssg/home/sw_qyf/PocketFlow/Model-Generation-Results/5HT2A_7WC7_rec_A_10.pdb/2024-01-01-03-54-21/
     RDKit          3D

 35 37  0  0  0  0  0  0  0  0999 V2000
  -23.1746  -16.6014  144.8668 C   0  0  0  0  0  0  0  0  0  0  0  0
  -24.0189  -16.0564  145.8445 C   0  0  0  0  0  0  0  0  0  0  0  0
  -24.4850  -14.7380  145.6359 C   0  0  0  0  0  0  0  0  0  0  0  0
  -24.0244  -13.9858  144.5634 C   0  0  0  0  0  0  0  0  0  0  0  0
  -24.3992  -12.5948  144.5046 C   0  0  0  0  0  0  0  0  0  0  0  0
  -25.4334  -12.1513  145.4172 C   0  0  0  0  0  0  0  0  0  0  0  0
  -25.8446  -10.7831  145.3785 C   0  0  0  0  0  0  0  0  0  0  0  0
  -26.0590  -13.0405  146.3268 C   0  0  0  0  0  0  0  0  0  0  0  0
  -25.5400  -14.3129  146.4800 C   0  0  0  0  0  0  0  0  0  0  0  0
  -24.9665  -16.9979  146.4828 C   0  0  0  0  0  0  0  0  0  0  0  0
  -24.3797  -18.2027  146.8637 C   0  0  0  0  0  0  0  0  0  0  0  0
  -27.2805  -10.6167  144.9928 C   0  0  0  0  0  0  0  0  0  0  0  0
  -27.6223  -10.8740  143.8398 C   0  0  0  0  0  0  0  0  0  0  0  0
  -28.9868  -10.4465  143.4557 C   0  0  0  0  0  0  0  0  0  0  0  0
  -29.2252   -9.2045  142.9930 C   0  0  0  0  0  0  0  0  0  0  0  0
  -28.7815   -8.7957  141.7985 C   0  0  0  0  0  0  0  0  0  0  0  0
  -29.4019   -7.6304  141.1601 C   0  0  0  0  0  0  0  0  0  0  0  0
  -29.9211   -6.7067  142.1531 C   0  0  0  0  0  0  0  0  0  0  0  0
  -29.3380   -7.4102  139.8068 C   0  0  0  0  0  0  0  0  0  0  0  0
  -30.1563   -8.3494  143.7475 C   0  0  0  0  0  0  0  0  0  0  0  0
  -30.7745   -7.4353  143.0753 C   0  0  0  0  0  0  0  0  0  0  0  0
  -31.0711   -9.2242  144.6044 O   0  0  0  0  0  0  0  0  0  0  0  0
  -32.0178   -7.8283  142.4523 O   0  0  0  0  0  0  0  0  0  0  0  0
  -29.2513   -7.7788  144.6239 O   0  0  0  0  0  0  0  0  0  0  0  0
  -31.2011   -6.3129  143.9243 O   0  0  0  0  0  0  0  0  0  0  0  0
  -28.5783   -8.1681  138.9431 C   0  0  0  0  0  0  0  0  0  0  0  0
  -28.5807   -8.1003  137.5805 C   0  0  0  0  0  0  0  0  0  0  0  0
  -23.7783  -18.9961  145.8695 C   0  0  0  0  0  0  0  0  0  0  0  0
  -22.8629  -18.1547  145.0090 C   0  0  0  0  0  0  0  0  0  0  0  0
  -26.1025  -17.2792  145.4943 C   0  0  0  0  0  0  0  0  0  0  0  0
  -27.3763  -16.9248  146.2605 C   0  0  0  0  0  0  0  0  0  0  0  0
  -27.4863  -15.6449  146.9152 C   0  0  0  0  0  0  0  0  0  0  0  0
  -28.8279  -15.3864  147.5640 C   0  0  0  0  0  0  0  0  0  0  0  0
  -29.4524  -16.2691  148.3626 C   0  0  0  0  0  0  0  0  0  0  0  0
  -26.6509  -14.6325  147.0983 C   0  0  0  0  0  0  0  0  0  0  0  0
  1  2  1  0
  2  3  2  3
  3  4  1  0
  4  5  1  0
  5  6  1  0
  6  7  1  0
  6  8  1  0
  3  9  1  0
  8  9  1  0
  2 10  1  0
 10 11  1  0
  7 12  1  0
 12 13  2  3
 13 14  1  0
 14 15  1  0
 15 16  1  0
 16 17  2  3
 17 18  1  0
 17 19  1  0
 15 20  1  0
 18 21  1  0
 20 22  1  0
 21 23  1  0
 20 24  1  0
 21 25  1  0
 19 26  1  0
 26 27  1  0
 11 28  1  0
  1 29  1  0
 28 29  1  0
 10 30  1  0
 30 31  1  0
 31 32  1  0
 32 33  1  0
 33 34  1  0
  9 35  1  0
 32 35  1  0
M  END

$$$$
No_749-/dssg/home/sw_qyf/PocketFlow/Model-Generation-Results/5HT2A_7WC7_rec_A_10.pdb/2024-01-01-03-54-21/
     RDKit          3D

 35 38  0  0  0  0  0  0  0  0999 V2000
  -23.1746  -16.6014  144.8668 C   0  0  0  0  0  0  0  0  0  0  0  0
  -23.7011  -17.0158  145.9774 C   0  0  0  0  0  0  0  0  0  0  0  0
  -24.2593  -16.1244  146.9100 C   0  0  0  0  0  0  0  0  0  0  0  0
  -24.5135  -14.7390  146.5020 C   0  0  0  0  0  0  0  0  0  0  0  0
  -24.0813  -14.3812  145.2164 C   0  0  0  0  0  0  0  0  0  0  0  0
  -23.3915  -15.2667  144.4690 C   0  0  0  0  0  0  0  0  0  0  0  0
  -24.2377  -12.9157  144.8809 C   0  0  0  0  0  0  0  0  0  0  0  0
  -24.2983  -12.1815  145.8427 O   0  0  0  0  0  0  0  0  0  0  0  0
  -23.5255  -18.2812  146.4381 F   0  0  0  0  0  0  0  0  0  0  0  0
  -24.7562  -16.6112  148.2964 C   0  0  0  0  0  0  0  0  0  0  0  0
  -24.0162  -17.2791  149.0706 C   0  0  0  0  0  0  0  0  0  0  0  0
  -24.4052  -17.6284  150.4419 C   0  0  0  0  0  0  0  0  0  0  0  0
  -25.8232  -17.6185  150.6851 C   0  0  0  0  0  0  0  0  0  0  0  0
  -26.6623  -16.9689  149.7326 C   0  0  0  0  0  0  0  0  0  0  0  0
  -26.1517  -16.5041  148.4913 C   0  0  0  0  0  0  0  0  0  0  0  0
  -25.3600  -11.2246  145.7669 C   0  0  0  0  0  0  0  0  0  0  0  0
  -26.5511  -11.7517  145.1095 C   0  0  0  0  0  0  0  0  0  0  0  0
  -27.3622  -12.4736  145.9810 C   0  0  0  0  0  0  0  0  0  0  0  0
  -28.5586  -12.4649  146.3503 C   0  0  0  0  0  0  0  0  0  0  0  0
  -29.2672  -13.3395  147.2441 C   0  0  0  0  0  0  0  0  0  0  0  0
  -30.5052  -13.0941  147.8270 C   0  0  0  0  0  0  0  0  0  0  0  0
  -30.9523  -11.7576  147.6633 C   0  0  0  0  0  0  0  0  0  0  0  0
  -30.3965  -10.8254  146.8007 C   0  0  0  0  0  0  0  0  0  0  0  0
  -29.1290  -11.1506  146.2302 C   0  0  0  0  0  0  0  0  0  0  0  0
  -27.0020  -11.3587  143.8926 C   0  0  0  0  0  0  0  0  0  0  0  0
  -28.1901  -11.1917  143.8800 O   0  0  0  0  0  0  0  0  0  0  0  0
  -28.7374  -10.6097  142.7405 C   0  0  0  0  0  0  0  0  0  0  0  0
  -29.9735   -9.8831  142.7987 C   0  0  0  0  0  0  0  0  0  0  0  0
  -30.3304   -8.9891  141.8124 C   0  0  0  0  0  0  0  0  0  0  0  0
  -29.4577   -8.7491  140.7122 C   0  0  0  0  0  0  0  0  0  0  0  0
  -28.2458   -9.4822  140.6146 C   0  0  0  0  0  0  0  0  0  0  0  0
  -27.9014  -10.3116  141.6631 C   0  0  0  0  0  0  0  0  0  0  0  0
  -27.4010   -9.4822  139.4211 C   0  0  0  0  0  0  0  0  0  0  0  0
  -31.5188   -8.3881  141.8466 F   0  0  0  0  0  0  0  0  0  0  0  0
  -27.8446   -8.8263  138.4532 O   0  0  0  0  0  0  0  0  0  0  0  0
  5  7  1  0
  7  8  1  0
  2  9  1  0
  3 10  1  0
  8 16  1  0
 16 17  1  0
 17 18  2  3
 18 19  1  0
 17 25  1  0
 25 26  1  0
 26 27  1  0
 31 33  1  0
 29 34  1  0
 33 35  1  0
  1  2  2  0
  2  3  1  0
  3  4  2  0
  4  5  1  0
  5  6  2  0
  6  1  1  0
 27 28  2  0
 28 29  1  0
 29 30  2  0
 30 31  1  0
 31 32  2  0
 32 27  1  0
 10 11  2  0
 11 12  1  0
 12 13  2  0
 13 14  1  0
 14 15  2  0
 15 10  1  0
 19 20  2  0
 20 21  1  0
 21 22  2  0
 22 23  1  0
 23 24  2  0
 24 19  1  0
M  END

$$$$
No_750-/dssg/home/sw_qyf/PocketFlow/Model-Generation-Results/5HT2A_7WC7_rec_A_10.pdb/2024-01-01-03-54-21/
     RDKit          3D

 35 38  0  0  0  0  0  0  0  0999 V2000
  -23.1746  -16.6014  144.8668 C   0  0  0  0  0  0  0  0  0  0  0  0
  -23.8963  -15.5346  144.7885 C   0  0  0  0  0  0  0  0  0  0  0  0
  -25.0304  -15.2549  144.5358 C   0  0  0  0  0  0  0  0  0  0  0  0
  -25.6045  -13.9524  144.2294 C   0  0  0  0  0  0  0  0  0  0  0  0
  -24.8624  -12.8904  144.6738 C   0  0  0  0  0  0  0  0  0  0  0  0
  -23.5278  -13.1645  145.1476 C   0  0  0  0  0  0  0  0  0  0  0  0
  -23.0148  -14.3796  145.1899 C   0  0  0  0  0  0  0  0  0  0  0  0
  -23.3765  -17.4166  146.1752 C   0  0  0  0  0  0  0  0  0  0  0  0
  -24.6528  -17.4822  146.6357 C   0  0  0  0  0  0  0  0  0  0  0  0
  -24.7539  -17.1737  148.0699 C   0  0  0  0  0  0  0  0  0  0  0  0
  -26.0202  -16.9765  148.7674 C   0  0  0  0  0  0  0  0  0  0  0  0
  -27.1569  -16.7661  147.9955 C   0  0  0  0  0  0  0  0  0  0  0  0
  -27.0104  -16.9813  146.5556 C   0  0  0  0  0  0  0  0  0  0  0  0
  -25.8077  -17.2633  145.9618 C   0  0  0  0  0  0  0  0  0  0  0  0
  -26.9737  -13.6822  143.7835 C   0  0  0  0  0  0  0  0  0  0  0  0
  -27.2137  -12.3306  143.3820 C   0  0  0  0  0  0  0  0  0  0  0  0
  -27.8516  -12.1322  142.1512 C   0  0  0  0  0  0  0  0  0  0  0  0
  -28.2233  -10.7834  141.7502 C   0  0  0  0  0  0  0  0  0  0  0  0
  -28.6636  -10.5051  140.4503 C   0  0  0  0  0  0  0  0  0  0  0  0
  -28.0571  -11.3350  139.4736 C   0  0  0  0  0  0  0  0  0  0  0  0
  -27.4163  -12.5663  139.8355 C   0  0  0  0  0  0  0  0  0  0  0  0
  -27.1511  -12.8644  141.1341 C   0  0  0  0  0  0  0  0  0  0  0  0
  -28.8316   -9.9486  142.9009 C   0  0  0  0  0  0  0  0  0  0  0  0
  -29.6706   -8.9677  142.7932 C   0  0  0  0  0  0  0  0  0  0  0  0
  -30.9669   -8.9417  143.3932 C   0  0  0  0  0  0  0  0  0  0  0  0
  -31.1158   -9.6971  144.3273 O   0  0  0  0  0  0  0  0  0  0  0  0
  -31.8426   -8.1264  142.9788 O   0  0  0  0  0  0  0  0  0  0  0  0
  -29.3950   -8.0234  141.6870 C   0  0  0  0  0  0  0  0  0  0  0  0
  -29.0542   -8.1563  140.4615 C   0  0  0  0  0  0  0  0  0  0  0  0
  -29.0410   -7.0874  139.4927 C   0  0  0  0  0  0  0  0  0  0  0  0
  -29.0458   -9.2881  140.0938 N   0  0  0  0  0  0  0  0  0  0  0  0
  -23.5643  -17.2400  148.9859 C   0  0  0  0  0  0  0  0  0  0  0  0
  -22.4851  -16.9946  148.5613 O   0  0  0  0  0  0  0  0  0  0  0  0
  -23.7804  -17.6341  150.2188 O   0  0  0  0  0  0  0  0  0  0  0  0
  -22.6854  -11.8781  145.4386 C   0  0  0  0  0  0  0  0  0  0  0  0
  1  2  1  0
  1  8  1  0
  8  9  1  0
  4 15  1  0
 15 16  1  0
 18 23  1  0
 23 24  1  0
 24 25  1  0
 25 26  2  0
 25 27  1  0
 24 28  1  0
 28 29  2  0
 29 30  1  0
 19 31  1  0
 29 31  1  0
 10 32  1  0
 32 33  2  0
 32 34  1  0
  6 35  1  0
 16 17  1  0
 17 18  2  0
 18 19  1  0
 19 20  2  0
 20 21  1  0
 21 22  2  0
 22 17  1  0
  2  3  2  0
  3  4  1  0
  4  5  2  0
  5  6  1  0
  6  7  2  0
  7  2  1  0
  9 10  2  0
 10 11  1  0
 11 12  2  0
 12 13  1  0
 13 14  2  0
 14  9  1  0
M  END

$$$$
No_751-/dssg/home/sw_qyf/PocketFlow/Model-Generation-Results/5HT2A_7WC7_rec_A_10.pdb/2024-01-01-03-54-21/
     RDKit          3D

 33 36  0  0  0  0  0  0  0  0999 V2000
  -23.1746  -16.6014  144.8668 C   0  0  0  0  0  0  0  0  0  0  0  0
  -23.7011  -17.0158  145.9774 C   0  0  0  0  0  0  0  0  0  0  0  0
  -24.7096  -16.6222  146.3577 C   0  0  0  0  0  0  0  0  0  0  0  0
  -25.2851  -16.9368  147.7686 C   0  0  0  0  0  0  0  0  0  0  0  0
  -24.3692  -17.4278  148.6468 C   0  0  0  0  0  0  0  0  0  0  0  0
  -23.7741  -15.5056  144.2314 C   0  0  0  0  0  0  0  0  0  0  0  0
  -24.8845  -14.8641  144.7792 C   0  0  0  0  0  0  0  0  0  0  0  0
  -25.3696  -15.4007  145.9549 C   0  0  0  0  0  0  0  0  0  0  0  0
  -24.7806  -17.5553  150.0665 C   0  0  0  0  0  0  0  0  0  0  0  0
  -25.5309  -13.7292  144.1007 C   0  0  0  0  0  0  0  0  0  0  0  0
  -26.5603  -13.0252  144.8715 C   0  0  0  0  0  0  0  0  0  0  0  0
  -27.1630  -11.8428  144.3995 C   0  0  0  0  0  0  0  0  0  0  0  0
  -27.0074  -11.2536  143.3425 C   0  0  0  0  0  0  0  0  0  0  0  0
  -27.6892  -10.0046  143.0628 C   0  0  0  0  0  0  0  0  0  0  0  0
  -28.9783   -9.8683  143.7147 C   0  0  0  0  0  0  0  0  0  0  0  0
  -29.8126   -8.7575  143.4062 C   0  0  0  0  0  0  0  0  0  0  0  0
  -29.4134   -7.8364  142.5045 C   0  0  0  0  0  0  0  0  0  0  0  0
  -28.5644   -8.2238  141.4659 C   0  0  0  0  0  0  0  0  0  0  0  0
  -28.4703   -7.5548  140.2657 C   0  0  0  0  0  0  0  0  0  0  0  0
  -29.4409   -6.6115  139.8443 C   0  0  0  0  0  0  0  0  0  0  0  0
  -27.6841   -9.4365  141.7626 C   0  0  0  0  0  0  0  0  0  0  0  0
  -26.1489  -17.6180  150.3424 C   0  0  0  0  0  0  0  0  0  0  0  0
  -27.0306  -17.0687  149.4217 C   0  0  0  0  0  0  0  0  0  0  0  0
  -26.5847  -16.8495  148.1442 C   0  0  0  0  0  0  0  0  0  0  0  0
  -29.2297  -10.5830  144.9802 C   0  0  0  0  0  0  0  0  0  0  0  0
  -28.3547  -11.7037  145.2934 C   0  0  0  0  0  0  0  0  0  0  0  0
  -30.2415  -10.3500  145.7728 O   0  0  0  0  0  0  0  0  0  0  0  0
  -27.8109   -8.1703  139.1016 C   0  0  0  0  0  0  0  0  0  0  0  0
  -28.1178   -7.7808  137.8047 C   0  0  0  0  0  0  0  0  0  0  0  0
  -28.6559  -12.4712  146.4581 C   0  0  0  0  0  0  0  0  0  0  0  0
  -29.2227  -12.0274  147.4313 O   0  0  0  0  0  0  0  0  0  0  0  0
  -28.8861  -13.8693  146.1057 C   0  0  0  0  0  0  0  0  0  0  0  0
  -29.3266  -14.6225  147.2983 C   0  0  0  0  0  0  0  0  0  0  0  0
  3  4  1  0
  7 10  1  0
 10 11  1  0
 18 19  1  0
 19 20  2  0
 25 27  1  0
 19 28  1  0
 28 29  1  0
 26 30  1  0
 30 31  2  0
 30 32  1  0
 32 33  1  0
 11 12  1  0
  4  5  2  0
  5  9  1  0
  9 22  2  0
 22 23  1  0
 23 24  2  0
 24  4  1  0
  1  2  2  0
  2  3  1  0
  3  8  2  0
  8  7  1  0
  7  6  2  0
  6  1  1  0
 15 16  2  0
 16 17  1  0
 17 18  2  0
 18 21  1  0
 21 14  2  0
 12 13  2  0
 13 14  1  0
 14 15  1  0
 15 25  1  0
 25 26  2  0
 26 12  1  0
M  END

$$$$
No_752-/dssg/home/sw_qyf/PocketFlow/Model-Generation-Results/5HT2A_7WC7_rec_A_10.pdb/2024-01-01-03-54-21/
     RDKit          3D

 35 38  0  0  0  0  0  0  0  0999 V2000
  -24.1553  -17.8465  145.7021 C   0  0  0  0  0  0  0  0  0  0  0  0
  -23.9795  -18.4462  146.7426 C   0  0  0  0  0  0  0  0  0  0  0  0
  -25.1593  -16.8262  145.6925 C   0  0  0  0  0  0  0  0  0  0  0  0
  -26.3426  -16.9003  146.3448 C   0  0  0  0  0  0  0  0  0  0  0  0
  -24.9078  -18.3640  147.8289 C   0  0  0  0  0  0  0  0  0  0  0  0
  -26.0312  -17.5122  147.7122 C   0  0  0  0  0  0  0  0  0  0  0  0
  -27.4996  -16.1150  146.1993 C   0  0  0  0  0  0  0  0  0  0  0  0
  -27.2984  -14.8027  146.7383 C   0  0  0  0  0  0  0  0  0  0  0  0
  -26.1075  -14.0805  146.7619 C   0  0  0  0  0  0  0  0  0  0  0  0
  -25.9689  -12.6550  146.6615 C   0  0  0  0  0  0  0  0  0  0  0  0
  -24.7447  -12.0628  146.2171 C   0  0  0  0  0  0  0  0  0  0  0  0
  -23.6153  -12.8801  146.0280 C   0  0  0  0  0  0  0  0  0  0  0  0
  -23.8082  -13.7727  145.1754 C   0  0  0  0  0  0  0  0  0  0  0  0
  -25.1271  -14.6047  145.4853 C   0  0  0  0  0  0  0  0  0  0  0  0
  -24.7153  -15.9906  145.5495 O   0  0  0  0  0  0  0  0  0  0  0  0
  -23.2000  -14.0494  143.9536 C   0  0  0  0  0  0  0  0  0  0  0  0
  -28.4415  -14.0623  147.2923 C   0  0  0  0  0  0  0  0  0  0  0  0
  -29.3786  -14.5999  148.1363 C   0  0  0  0  0  0  0  0  0  0  0  0
  -30.4999  -13.8652  148.6261 C   0  0  0  0  0  0  0  0  0  0  0  0
  -30.5859  -12.5256  148.2027 C   0  0  0  0  0  0  0  0  0  0  0  0
  -29.6342  -11.9448  147.3737 C   0  0  0  0  0  0  0  0  0  0  0  0
  -28.6218  -12.6637  146.8843 C   0  0  0  0  0  0  0  0  0  0  0  0
  -31.6726  -11.7904  148.6639 N   0  0  0  0  0  0  0  0  0  0  0  0
  -22.9538  -19.3441  146.9623 O   0  0  0  0  0  0  0  0  0  0  0  0
  -32.7127  -12.2201  149.4075 C   0  0  0  0  0  0  0  0  0  0  0  0
  -33.7655  -11.2672  149.6153 C   0  0  0  0  0  0  0  0  0  0  0  0
  -32.7176  -13.3021  149.9435 O   0  0  0  0  0  0  0  0  0  0  0  0
  -33.5291  -10.1746  150.1759 O   0  0  0  0  0  0  0  0  0  0  0  0
  -22.2989  -13.2213  143.6632 O   0  0  0  0  0  0  0  0  0  0  0  0
  -34.8981  -11.5540  149.0876 O   0  0  0  0  0  0  0  0  0  0  0  0
  -23.3983  -17.9795  144.6914 O   0  0  0  0  0  0  0  0  0  0  0  0
  -25.9427  -14.5849  144.2177 C   0  0  0  0  0  0  0  0  0  0  0  0
  -25.6179  -13.5695  143.2421 C   0  0  0  0  0  0  0  0  0  0  0  0
  -25.9551  -14.2430  141.9986 C   0  0  0  0  0  0  0  0  0  0  0  0
  -26.8949  -13.4088  141.1422 C   0  0  0  0  0  0  0  0  0  0  0  0
  1  2  1  0
  1  3  1  0
  2  5  1  0
  4  6  1  0
  5  6  1  0
  4  7  1  0
  7  8  2  0
  8  9  1  0
  9 10  1  0
 11 12  1  0
 12 13  1  0
  9 14  1  0
 13 14  1  0
  3 15  1  0
 14 15  1  0
 13 16  1  0
  8 17  1  0
 20 23  1  0
  2 24  2  0
 23 25  1  0
 25 26  1  0
 25 27  2  0
 26 28  1  0
 16 29  1  0
 26 30  2  0
  1 31  1  0
 14 32  1  0
 32 33  1  0
 33 34  1  0
 34 35  1  0
 10 11  1  0
  3  4  1  0
 17 18  2  0
 18 19  1  0
 19 20  2  0
 20 21  1  0
 21 22  2  0
 22 17  1  0
M  END

$$$$
No_753-/dssg/home/sw_qyf/PocketFlow/Model-Generation-Results/5HT2A_7WC7_rec_A_10.pdb/2024-01-01-03-54-21/
     RDKit          3D

 35 37  0  0  0  0  0  0  0  0999 V2000
  -24.1553  -17.8465  145.7021 C   0  0  0  0  0  0  0  0  0  0  0  0
  -23.9795  -18.4462  146.7426 C   0  0  0  0  0  0  0  0  0  0  0  0
  -24.3577  -16.4380  145.7329 C   0  0  0  0  0  0  0  0  0  0  0  0
  -24.6120  -15.7738  146.9649 C   0  0  0  0  0  0  0  0  0  0  0  0
  -24.4666  -16.5590  148.1483 C   0  0  0  0  0  0  0  0  0  0  0  0
  -24.1608  -17.8621  148.1048 C   0  0  0  0  0  0  0  0  0  0  0  0
  -24.4723  -15.5994  144.5525 C   0  0  0  0  0  0  0  0  0  0  0  0
  -23.7346  -14.3314  144.5525 C   0  0  0  0  0  0  0  0  0  0  0  0
  -24.4532  -13.1874  145.1102 C   0  0  0  0  0  0  0  0  0  0  0  0
  -23.5750  -12.0876  145.4031 C   0  0  0  0  0  0  0  0  0  0  0  0
  -25.6604  -12.7764  144.3472 C   0  0  0  0  0  0  0  0  0  0  0  0
  -26.4398  -11.7780  145.0987 C   0  0  0  0  0  0  0  0  0  0  0  0
  -27.7386  -11.9168  145.2603 C   0  0  0  0  0  0  0  0  0  0  0  0
  -28.6941  -10.9091  145.0019 C   0  0  0  0  0  0  0  0  0  0  0  0
  -28.2477   -9.8477  144.2692 C   0  0  0  0  0  0  0  0  0  0  0  0
  -29.1477   -8.8178  143.9344 C   0  0  0  0  0  0  0  0  0  0  0  0
  -30.0499   -8.9934  143.2441 C   0  0  0  0  0  0  0  0  0  0  0  0
  -31.0822   -7.9870  143.3753 C   0  0  0  0  0  0  0  0  0  0  0  0
  -29.7217   -9.2237  141.7823 C   0  0  0  0  0  0  0  0  0  0  0  0
  -29.8901   -8.0843  140.9991 C   0  0  0  0  0  0  0  0  0  0  0  0
  -29.7397   -8.3387  139.5643 C   0  0  0  0  0  0  0  0  0  0  0  0
  -28.4534   -8.9670  139.2695 C   0  0  0  0  0  0  0  0  0  0  0  0
  -27.8935   -8.7283  138.0190 C   0  0  0  0  0  0  0  0  0  0  0  0
  -28.1857  -13.2383  145.7412 C   0  0  0  0  0  0  0  0  0  0  0  0
  -29.2132  -13.2958  146.7153 C   0  0  0  0  0  0  0  0  0  0  0  0
  -29.6650  -14.5176  147.2039 C   0  0  0  0  0  0  0  0  0  0  0  0
  -30.4541  -14.4389  148.4084 C   0  0  0  0  0  0  0  0  0  0  0  0
  -30.9343  -13.1476  148.8508 C   0  0  0  0  0  0  0  0  0  0  0  0
  -30.4291  -11.9744  148.2919 C   0  0  0  0  0  0  0  0  0  0  0  0
  -29.5770  -11.9979  147.2019 C   0  0  0  0  0  0  0  0  0  0  0  0
  -31.6966  -13.3089  150.0194 N   0  0  0  0  0  0  0  0  0  0  0  0
  -31.9292  -14.3607  150.7458 C   0  0  0  0  0  0  0  0  0  0  0  0
  -31.2571  -15.4367  150.8907 C   0  0  0  0  0  0  0  0  0  0  0  0
  -30.3863  -15.9584  149.8533 C   0  0  0  0  0  0  0  0  0  0  0  0
  -30.2685  -15.6778  149.0814 N   0  0  0  0  0  0  0  0  0  0  0  0
  3  7  1  0
  7  8  1  0
  8  9  1  0
  9 10  2  0
  9 11  1  0
 11 12  1  0
 12 13  2  3
 13 14  1  0
 14 15  2  3
 15 16  1  0
 16 17  1  0
 17 18  1  0
 17 19  1  0
 19 20  1  0
 20 21  1  0
 21 22  1  0
 22 23  1  0
 13 24  1  0
 28 31  1  0
 31 32  1  0
 32 33  2  0
 33 34  1  0
 27 35  1  0
 34 35  1  0
 24 25  1  0
  1  2  2  0
  2  6  1  0
  6  5  2  0
  5  4  1  0
  4  3  2  0
  3  1  1  0
 25 26  2  0
 26 27  1  0
 27 28  2  0
 28 29  1  0
 29 30  2  0
 30 25  1  0
M  END

$$$$
No_754-/dssg/home/sw_qyf/PocketFlow/Model-Generation-Results/5HT2A_7WC7_rec_A_10.pdb/2024-01-01-03-54-21/
     RDKit          3D

 35 37  0  0  0  0  0  0  0  0999 V2000
  -23.1746  -16.6014  144.8668 C   0  0  0  0  0  0  0  0  0  0  0  0
  -23.8963  -15.5346  144.7885 C   0  0  0  0  0  0  0  0  0  0  0  0
  -24.6479  -15.0447  145.8164 C   0  0  0  0  0  0  0  0  0  0  0  0
  -24.7862  -15.8388  146.9698 C   0  0  0  0  0  0  0  0  0  0  0  0
  -24.1322  -17.0288  147.0733 C   0  0  0  0  0  0  0  0  0  0  0  0
  -23.3328  -17.4298  146.0306 C   0  0  0  0  0  0  0  0  0  0  0  0
  -25.4279  -13.7393  145.7857 C   0  0  0  0  0  0  0  0  0  0  0  0
  -24.7077  -12.7323  146.0853 C   0  0  0  0  0  0  0  0  0  0  0  0
  -25.2633  -11.3654  146.0777 C   0  0  0  0  0  0  0  0  0  0  0  0
  -26.6036  -11.2300  145.5709 C   0  0  0  0  0  0  0  0  0  0  0  0
  -27.3540  -12.3623  145.3567 C   0  0  0  0  0  0  0  0  0  0  0  0
  -26.7411  -13.6714  145.4586 C   0  0  0  0  0  0  0  0  0  0  0  0
  -28.7787  -12.1728  145.0318 C   0  0  0  0  0  0  0  0  0  0  0  0
  -29.0915  -10.9999  144.2962 C   0  0  0  0  0  0  0  0  0  0  0  0
  -30.1997  -10.3731  144.3667 C   0  0  0  0  0  0  0  0  0  0  0  0
  -30.5523   -9.2249  143.5380 C   0  0  0  0  0  0  0  0  0  0  0  0
  -29.9745   -9.1397  142.5425 C   0  0  0  0  0  0  0  0  0  0  0  0
  -28.7645   -9.8965  142.1679 C   0  0  0  0  0  0  0  0  0  0  0  0
  -28.3759  -10.8463  143.1247 C   0  0  0  0  0  0  0  0  0  0  0  0
  -30.3550   -8.0985  141.4510 C   0  0  0  0  0  0  0  0  0  0  0  0
  -30.5628   -6.8553  141.7579 C   0  0  0  0  0  0  0  0  0  0  0  0
  -29.2577   -6.0640  141.8344 C   0  0  0  0  0  0  0  0  0  0  0  0
  -29.0239   -5.3655  140.7846 C   0  0  0  0  0  0  0  0  0  0  0  0
  -28.0521   -9.7355  140.9373 C   0  0  0  0  0  0  0  0  0  0  0  0
  -26.9706  -10.5869  140.5947 C   0  0  0  0  0  0  0  0  0  0  0  0
  -27.3711  -11.5530  139.4860 C   0  0  0  0  0  0  0  0  0  0  0  0
  -28.2630  -11.4585  138.7498 O   0  0  0  0  0  0  0  0  0  0  0  0
  -26.7219  -12.7440  139.5798 O   0  0  0  0  0  0  0  0  0  0  0  0
  -24.1637  -17.8320  148.3608 C   0  0  0  0  0  0  0  0  0  0  0  0
  -25.0310  -18.6783  148.2170 F   0  0  0  0  0  0  0  0  0  0  0  0
  -22.9380  -18.3168  148.6464 F   0  0  0  0  0  0  0  0  0  0  0  0
  -24.5052  -17.0264  149.4776 F   0  0  0  0  0  0  0  0  0  0  0  0
  -23.8460  -14.7044  143.7188 O   0  0  0  0  0  0  0  0  0  0  0  0
  -29.0148   -3.8823  140.8242 C   0  0  0  0  0  0  0  0  0  0  0  0
  -29.0874   -3.2842  142.1544 C   0  0  0  0  0  0  0  0  0  0  0  0
  3  7  1  0
 11 13  1  0
 13 14  1  0
 17 20  1  0
 20 21  1  0
 21 22  1  0
 22 23  2  3
 18 24  1  0
 24 25  1  0
 25 26  1  0
 26 27  2  0
 26 28  1  0
  5 29  1  0
 29 30  1  0
 29 31  1  0
 29 32  1  0
  2 33  1  0
 23 34  1  0
 34 35  1  0
  1  2  2  0
  2  3  1  0
  3  4  2  0
  4  5  1  0
  5  6  2  0
  6  1  1  0
  7  8  2  0
  8  9  1  0
  9 10  2  0
 10 11  1  0
 11 12  2  0
 12  7  1  0
 14 15  2  0
 15 16  1  0
 16 17  2  0
 17 18  1  0
 18 19  2  0
 19 14  1  0
M  END

$$$$
No_755-/dssg/home/sw_qyf/PocketFlow/Model-Generation-Results/5HT2A_7WC7_rec_A_10.pdb/2024-01-01-03-54-21/
     RDKit          3D

 35 37  0  0  0  0  0  0  0  0999 V2000
  -23.1746  -16.6014  144.8668 C   0  0  0  0  0  0  0  0  0  0  0  0
  -23.8963  -15.5346  144.7885 C   0  0  0  0  0  0  0  0  0  0  0  0
  -25.3063  -15.4625  144.8521 C   0  0  0  0  0  0  0  0  0  0  0  0
  -26.0192  -14.2249  144.6050 C   0  0  0  0  0  0  0  0  0  0  0  0
  -26.6274  -13.6680  145.2524 C   0  0  0  0  0  0  0  0  0  0  0  0
  -27.1869  -12.3173  145.0200 C   0  0  0  0  0  0  0  0  0  0  0  0
  -27.3351  -11.4088  146.1102 C   0  0  0  0  0  0  0  0  0  0  0  0
  -28.4850  -12.3527  144.1734 C   0  0  0  0  0  0  0  0  0  0  0  0
  -24.0616  -17.7826  145.2978 C   0  0  0  0  0  0  0  0  0  0  0  0
  -25.3061  -17.5800  145.8833 C   0  0  0  0  0  0  0  0  0  0  0  0
  -25.9963  -16.4682  145.5470 C   0  0  0  0  0  0  0  0  0  0  0  0
  -25.9041  -13.9207  143.1271 C   0  0  0  0  0  0  0  0  0  0  0  0
  -27.4184  -16.3578  145.8770 C   0  0  0  0  0  0  0  0  0  0  0  0
  -27.7877  -15.6774  147.0796 C   0  0  0  0  0  0  0  0  0  0  0  0
  -28.4929  -16.3062  147.9995 C   0  0  0  0  0  0  0  0  0  0  0  0
  -27.8795  -17.3234  148.7783 C   0  0  0  0  0  0  0  0  0  0  0  0
  -28.5311  -17.6922  149.9248 N   0  0  0  0  0  0  0  0  0  0  0  0
  -28.8463  -10.9698  143.6628 C   0  0  0  0  0  0  0  0  0  0  0  0
  -28.1236  -10.2758  142.8918 C   0  0  0  0  0  0  0  0  0  0  0  0
  -28.7919   -9.9006  141.6923 C   0  0  0  0  0  0  0  0  0  0  0  0
  -29.8984   -9.0944  141.7175 C   0  0  0  0  0  0  0  0  0  0  0  0
  -30.1893   -8.0662  140.8148 C   0  0  0  0  0  0  0  0  0  0  0  0
  -29.3164   -8.0603  139.6721 C   0  0  0  0  0  0  0  0  0  0  0  0
  -28.1945   -8.9282  139.5509 C   0  0  0  0  0  0  0  0  0  0  0  0
  -27.9212   -9.7789  140.5500 C   0  0  0  0  0  0  0  0  0  0  0  0
  -30.9067   -9.2891  142.8378 C   0  0  0  0  0  0  0  0  0  0  0  0
  -30.5249  -10.1074  143.8736 O   0  0  0  0  0  0  0  0  0  0  0  0
  -31.9891   -8.8847  143.0147 O   0  0  0  0  0  0  0  0  0  0  0  0
  -26.8190  -10.7149  140.3562 C   0  0  0  0  0  0  0  0  0  0  0  0
  -26.1413  -10.6292  139.3534 O   0  0  0  0  0  0  0  0  0  0  0  0
  -23.3918  -18.9913  145.4152 O   0  0  0  0  0  0  0  0  0  0  0  0
  -27.0614  -12.0185  140.9037 O   0  0  0  0  0  0  0  0  0  0  0  0
  -27.5443   -8.7658  138.4957 F   0  0  0  0  0  0  0  0  0  0  0  0
  -29.6971  -17.0653  150.1931 C   0  0  0  0  0  0  0  0  0  0  0  0
  -30.1963  -15.9482  149.6331 C   0  0  0  0  0  0  0  0  0  0  0  0
  3  4  1  0
  4  5  1  0
  5  6  1  0
  6  7  1  0
  6  8  1  0
  4 12  1  0
 11 13  1  0
 13 14  1  0
 14 15  2  3
 15 16  1  0
 16 17  1  0
  8 18  1  0
 18 19  1  0
 19 20  1  0
 21 26  1  0
 18 27  1  0
 26 27  1  0
 26 28  2  0
 25 29  1  0
 29 30  1  0
  9 31  1  0
 29 32  1  0
 24 33  1  0
 17 34  2  3
 34 35  1  0
 20 21  2  0
 21 22  1  0
 22 23  2  0
 23 24  1  0
 24 25  2  0
 25 20  1  0
  1  2  2  0
  2  3  1  0
  3 11  2  0
 11 10  1  0
 10  9  2  0
  9  1  1  0
M  END

$$$$
No_756-/dssg/home/sw_qyf/PocketFlow/Model-Generation-Results/5HT2A_7WC7_rec_A_10.pdb/2024-01-01-03-54-21/
     RDKit          3D

 35 36  0  0  0  0  0  0  0  0999 V2000
  -24.1553  -17.8465  145.7021 C   0  0  0  0  0  0  0  0  0  0  0  0
  -23.9795  -18.4462  146.7426 C   0  0  0  0  0  0  0  0  0  0  0  0
  -25.1593  -16.8262  145.6925 C   0  0  0  0  0  0  0  0  0  0  0  0
  -24.9465  -15.5961  144.9952 C   0  0  0  0  0  0  0  0  0  0  0  0
  -25.8339  -14.4742  145.0599 C   0  0  0  0  0  0  0  0  0  0  0  0
  -25.6290  -13.3152  144.3271 C   0  0  0  0  0  0  0  0  0  0  0  0
  -24.6337  -18.1358  147.9662 C   0  0  0  0  0  0  0  0  0  0  0  0
  -25.5331  -17.0778  148.0459 C   0  0  0  0  0  0  0  0  0  0  0  0
  -25.6760  -16.2601  146.9321 C   0  0  0  0  0  0  0  0  0  0  0  0
  -26.2982  -14.9827  146.8079 C   0  0  0  0  0  0  0  0  0  0  0  0
  -26.8984  -12.6783  143.9549 C   0  0  0  0  0  0  0  0  0  0  0  0
  -27.0634  -11.4067  143.8482 C   0  0  0  0  0  0  0  0  0  0  0  0
  -28.2824  -10.8926  144.4690 C   0  0  0  0  0  0  0  0  0  0  0  0
  -29.0805   -9.9175  143.7917 C   0  0  0  0  0  0  0  0  0  0  0  0
  -30.5074   -9.9115  144.0482 C   0  0  0  0  0  0  0  0  0  0  0  0
  -30.8052  -10.1035  145.3513 O   0  0  0  0  0  0  0  0  0  0  0  0
  -31.3357   -9.2799  143.3435 O   0  0  0  0  0  0  0  0  0  0  0  0
  -28.6393   -9.3505  142.5750 C   0  0  0  0  0  0  0  0  0  0  0  0
  -29.2535   -9.7611  141.4364 C   0  0  0  0  0  0  0  0  0  0  0  0
  -28.7703   -9.3087  140.1951 C   0  0  0  0  0  0  0  0  0  0  0  0
  -29.0049   -8.1190  139.6603 C   0  0  0  0  0  0  0  0  0  0  0  0
  -28.3678   -7.7372  138.4137 C   0  0  0  0  0  0  0  0  0  0  0  0
  -27.7432  -10.0919  139.5456 C   0  0  0  0  0  0  0  0  0  0  0  0
  -27.3707  -11.3879  140.1528 C   0  0  0  0  0  0  0  0  0  0  0  0
  -26.7662  -12.3502  139.2360 C   0  0  0  0  0  0  0  0  0  0  0  0
  -29.8847   -7.1629  140.3089 C   0  0  0  0  0  0  0  0  0  0  0  0
  -23.6222  -15.1025  144.8646 O   0  0  0  0  0  0  0  0  0  0  0  0
  -26.0281  -16.6622  149.2331 O   0  0  0  0  0  0  0  0  0  0  0  0
  -25.5876  -12.7353  139.2791 O   0  0  0  0  0  0  0  0  0  0  0  0
  -27.5230  -12.5208  138.1590 O   0  0  0  0  0  0  0  0  0  0  0  0
  -23.6420  -18.1899  144.5920 O   0  0  0  0  0  0  0  0  0  0  0  0
  -27.2591   -6.9341  138.3356 O   0  0  0  0  0  0  0  0  0  0  0  0
  -28.8450   -8.3044  137.3131 O   0  0  0  0  0  0  0  0  0  0  0  0
  -27.8870  -10.3378  145.7505 F   0  0  0  0  0  0  0  0  0  0  0  0
  -29.1245  -12.0129  144.8495 O   0  0  0  0  0  0  0  0  0  0  0  0
  1  2  1  0
  1  3  1  0
  3  4  2  0
  4  5  1  0
  5  6  2  3
  2  7  1  0
  7  8  1  0
  3  9  1  0
  8  9  1  0
  5 10  1  0
  9 10  1  0
  6 11  1  0
 11 12  2  3
 12 13  1  0
 13 14  1  0
 14 15  1  0
 15 16  1  0
 15 17  2  0
 14 18  1  0
 18 19  1  0
 19 20  1  0
 20 21  2  3
 21 22  1  0
 20 23  1  0
 23 24  1  0
 24 25  1  0
 21 26  1  0
  4 27  1  0
  8 28  1  0
 25 29  1  0
 25 30  2  0
  1 31  1  0
 22 32  1  0
 22 33  2  0
 13 34  1  0
 13 35  1  0
M  END

$$$$
No_757-/dssg/home/sw_qyf/PocketFlow/Model-Generation-Results/5HT2A_7WC7_rec_A_10.pdb/2024-01-01-03-54-21/
     RDKit          3D

 30 32  0  0  0  0  0  0  0  0999 V2000
  -24.1553  -17.8465  145.7021 C   0  0  0  0  0  0  0  0  0  0  0  0
  -24.2855  -16.6364  145.3494 C   0  0  0  0  0  0  0  0  0  0  0  0
  -24.7211  -15.5955  146.2116 C   0  0  0  0  0  0  0  0  0  0  0  0
  -24.8538  -14.2010  145.8739 C   0  0  0  0  0  0  0  0  0  0  0  0
  -24.1440  -13.8321  144.7074 C   0  0  0  0  0  0  0  0  0  0  0  0
  -24.0661  -12.5356  144.4304 N   0  0  0  0  0  0  0  0  0  0  0  0
  -24.6157  -18.2704  146.9610 C   0  0  0  0  0  0  0  0  0  0  0  0
  -25.1305  -17.4023  147.9249 C   0  0  0  0  0  0  0  0  0  0  0  0
  -25.2112  -15.9965  147.5628 C   0  0  0  0  0  0  0  0  0  0  0  0
  -26.2247  -13.5647  145.9577 C   0  0  0  0  0  0  0  0  0  0  0  0
  -26.2074  -12.1421  146.0162 C   0  0  0  0  0  0  0  0  0  0  0  0
  -25.2963  -11.6703  144.7676 C   0  0  0  0  0  0  0  0  0  0  0  0
  -27.4549  -11.4943  145.9146 O   0  0  0  0  0  0  0  0  0  0  0  0
  -28.3397  -11.9272  145.0982 C   0  0  0  0  0  0  0  0  0  0  0  0
  -29.7208  -11.4219  145.7120 C   0  0  0  0  0  0  0  0  0  0  0  0
  -30.1317  -10.2431  145.2047 O   0  0  0  0  0  0  0  0  0  0  0  0
  -23.5146  -14.4833  143.9476 O   0  0  0  0  0  0  0  0  0  0  0  0
  -30.1643  -12.0305  146.7061 O   0  0  0  0  0  0  0  0  0  0  0  0
  -29.7719   -9.8708  143.9788 C   0  0  0  0  0  0  0  0  0  0  0  0
  -28.6518  -10.1303  143.3634 C   0  0  0  0  0  0  0  0  0  0  0  0
  -30.7586   -9.0322  143.2480 C   0  0  0  0  0  0  0  0  0  0  0  0
  -30.5183   -8.4815  142.0774 C   0  0  0  0  0  0  0  0  0  0  0  0
  -28.4257   -9.5835  142.0092 C   0  0  0  0  0  0  0  0  0  0  0  0
  -29.4038   -8.7730  141.3917 C   0  0  0  0  0  0  0  0  0  0  0  0
  -29.1290   -8.2255  140.0662 C   0  0  0  0  0  0  0  0  0  0  0  0
  -29.6907   -7.0421  139.5649 C   0  0  0  0  0  0  0  0  0  0  0  0
  -28.1380   -8.8574  139.2674 C   0  0  0  0  0  0  0  0  0  0  0  0
  -27.3261  -10.1759  139.7742 Cl  0  0  0  0  0  0  0  0  0  0  0  0
  -27.9141   -8.3265  137.9700 C   0  0  0  0  0  0  0  0  0  0  0  0
  -31.9348   -8.7317  143.9739 O   0  0  0  0  0  0  0  0  0  0  0  0
  3  4  1  0
  4  5  1  0
  5  6  1  0
  4 10  1  0
 10 11  1  0
  6 12  1  0
 11 12  1  0
 11 13  1  0
 13 14  1  0
 14 15  1  0
 15 16  1  0
  5 17  2  0
 15 18  2  0
 16 19  1  0
 24 25  1  0
 25 26  2  0
 25 27  1  0
 27 28  1  0
 27 29  1  0
 21 30  1  0
 19 20  2  0
 20 23  1  0
 23 24  2  0
 24 22  1  0
 22 21  2  0
 21 19  1  0
  1  2  2  0
  2  3  1  0
  3  9  2  0
  9  8  1  0
  8  7  2  0
  7  1  1  0
M  END

$$$$
No_758-/dssg/home/sw_qyf/PocketFlow/Model-Generation-Results/5HT2A_7WC7_rec_A_10.pdb/2024-01-01-03-54-21/
     RDKit          3D

  7  7  0  0  0  0  0  0  0  0999 V2000
  -23.1746  -16.6014  144.8668 C   0  0  0  0  0  0  0  0  0  0  0  0
  -24.0189  -16.0564  145.8445 C   0  0  0  0  0  0  0  0  0  0  0  0
  -24.4145  -16.8299  146.9062 C   0  0  0  0  0  0  0  0  0  0  0  0
  -25.2730  -16.2838  147.9150 C   0  0  0  0  0  0  0  0  0  0  0  0
  -25.7919  -14.9951  147.6737 C   0  0  0  0  0  0  0  0  0  0  0  0
  -24.5377  -14.6789  145.6474 C   0  0  0  0  0  0  0  0  0  0  0  0
  -25.4158  -14.1968  146.6885 C   0  0  0  0  0  0  0  0  0  0  0  0
  1  2  1  0
  2  3  2  0
  3  4  1  0
  4  5  2  0
  5  7  1  0
  7  6  2  0
  6  2  1  0
M  END

$$$$
No_759-/dssg/home/sw_qyf/PocketFlow/Model-Generation-Results/5HT2A_7WC7_rec_A_10.pdb/2024-01-01-03-54-21/
     RDKit          3D

 35 36  0  0  0  0  0  0  0  0999 V2000
  -24.1553  -17.8465  145.7021 C   0  0  0  0  0  0  0  0  0  0  0  0
  -23.9795  -18.4462  146.7426 C   0  0  0  0  0  0  0  0  0  0  0  0
  -24.3577  -16.4380  145.7329 C   0  0  0  0  0  0  0  0  0  0  0  0
  -24.6120  -15.7738  146.9649 C   0  0  0  0  0  0  0  0  0  0  0  0
  -24.4666  -16.5590  148.1483 C   0  0  0  0  0  0  0  0  0  0  0  0
  -24.1608  -17.8621  148.1048 C   0  0  0  0  0  0  0  0  0  0  0  0
  -24.4858  -15.5973  144.5498 C   0  0  0  0  0  0  0  0  0  0  0  0
  -23.7172  -14.3506  144.5557 C   0  0  0  0  0  0  0  0  0  0  0  0
  -24.4569  -13.1896  145.0410 C   0  0  0  0  0  0  0  0  0  0  0  0
  -23.5593  -12.1094  145.4152 C   0  0  0  0  0  0  0  0  0  0  0  0
  -25.5219  -12.7057  144.0568 C   0  0  0  0  0  0  0  0  0  0  0  0
  -26.6687  -13.4395  144.2190 C   0  0  0  0  0  0  0  0  0  0  0  0
  -27.0994  -13.8983  145.3739 C   0  0  0  0  0  0  0  0  0  0  0  0
  -28.0893  -14.5913  145.6206 C   0  0  0  0  0  0  0  0  0  0  0  0
  -28.4845  -14.8939  147.0540 C   0  0  0  0  0  0  0  0  0  0  0  0
  -29.5899  -14.6230  147.6168 C   0  0  0  0  0  0  0  0  0  0  0  0
  -30.0126  -13.2849  147.9355 C   0  0  0  0  0  0  0  0  0  0  0  0
  -31.1568  -12.9832  148.7750 C   0  0  0  0  0  0  0  0  0  0  0  0
  -32.0322  -11.9895  148.5655 C   0  0  0  0  0  0  0  0  0  0  0  0
  -32.8800  -11.6542  149.6145 C   0  0  0  0  0  0  0  0  0  0  0  0
  -32.9035  -12.3456  150.8266 C   0  0  0  0  0  0  0  0  0  0  0  0
  -32.0188  -13.3723  151.0278 C   0  0  0  0  0  0  0  0  0  0  0  0
  -31.1049  -13.7214  150.0492 C   0  0  0  0  0  0  0  0  0  0  0  0
  -29.4072  -12.2039  147.2403 C   0  0  0  0  0  0  0  0  0  0  0  0
  -27.7392  -12.7133  143.5462 O   0  0  0  0  0  0  0  0  0  0  0  0
  -27.2846  -11.6577  142.7922 C   0  0  0  0  0  0  0  0  0  0  0  0
  -28.5257  -11.1310  142.1047 C   0  0  0  0  0  0  0  0  0  0  0  0
  -29.5545  -10.4137  142.8149 C   0  0  0  0  0  0  0  0  0  0  0  0
  -29.5818   -8.9305  142.6883 C   0  0  0  0  0  0  0  0  0  0  0  0
  -28.7142   -8.1929  142.0453 C   0  0  0  0  0  0  0  0  0  0  0  0
  -30.8504   -8.2583  143.1864 C   0  0  0  0  0  0  0  0  0  0  0  0
  -31.6405   -8.9979  143.8829 O   0  0  0  0  0  0  0  0  0  0  0  0
  -29.0748   -6.8453  141.5688 C   0  0  0  0  0  0  0  0  0  0  0  0
  -29.2131   -5.9155  142.7167 C   0  0  0  0  0  0  0  0  0  0  0  0
  -28.2679   -4.8074  142.7904 C   0  0  0  0  0  0  0  0  0  0  0  0
  3  7  1  0
  7  8  1  0
  8  9  1  0
  9 10  1  0
  9 11  1  0
 11 12  1  0
 12 13  1  0
 13 14  2  3
 14 15  1  0
 15 16  1  0
 16 17  2  3
 17 18  1  0
 17 24  1  0
 12 25  1  0
 25 26  1  0
 26 27  1  0
 27 28  1  0
 28 29  1  0
 29 30  1  0
 29 31  1  0
 31 32  1  0
 30 33  1  0
 33 34  1  0
 34 35  1  0
 18 19  2  0
 19 20  1  0
 20 21  2  0
 21 22  1  0
 22 23  2  0
 23 18  1  0
  1  2  2  0
  2  6  1  0
  6  5  2  0
  5  4  1  0
  4  3  2  0
  3  1  1  0
M  END

$$$$
No_760-/dssg/home/sw_qyf/PocketFlow/Model-Generation-Results/5HT2A_7WC7_rec_A_10.pdb/2024-01-01-03-54-21/
     RDKit          3D

 18 18  0  0  0  0  0  0  0  0999 V2000
  -24.1553  -17.8465  145.7021 C   0  0  0  0  0  0  0  0  0  0  0  0
  -23.9795  -18.4462  146.7426 C   0  0  0  0  0  0  0  0  0  0  0  0
  -25.1593  -16.8262  145.6925 C   0  0  0  0  0  0  0  0  0  0  0  0
  -24.9465  -15.5960  144.9952 C   0  0  0  0  0  0  0  0  0  0  0  0
  -25.8223  -14.4752  145.0170 C   0  0  0  0  0  0  0  0  0  0  0  0
  -25.6126  -13.2995  144.3173 C   0  0  0  0  0  0  0  0  0  0  0  0
  -23.5452  -17.7120  147.8187 C   0  0  0  0  0  0  0  0  0  0  0  0
  -24.3056  -17.1650  148.6307 C   0  0  0  0  0  0  0  0  0  0  0  0
  -24.1479  -16.9238  150.0296 C   0  0  0  0  0  0  0  0  0  0  0  0
  -25.9732  -12.2760  144.9753 C   0  0  0  0  0  0  0  0  0  0  0  0
  -27.4269  -11.9855  145.0412 C   0  0  0  0  0  0  0  0  0  0  0  0
  -27.9471  -12.7536  146.2869 C   0  0  0  0  0  0  0  0  0  0  0  0
  -29.2025  -12.2279  146.8459 C   0  0  0  0  0  0  0  0  0  0  0  0
  -29.8140  -12.8695  147.9736 C   0  0  0  0  0  0  0  0  0  0  0  0
  -30.5685  -13.8730  147.7949 C   0  0  0  0  0  0  0  0  0  0  0  0
  -25.3983  -16.8521  150.7919 C   0  0  0  0  0  0  0  0  0  0  0  0
  -27.0437  -14.6744  145.9391 C   0  0  0  0  0  0  0  0  0  0  0  0
  -27.9127  -13.7616  146.4018 C   0  0  0  0  0  0  0  0  0  0  0  0
  1  2  1  0
  1  3  1  0
  3  4  1  0
  4  5  2  3
  5  6  1  0
  2  7  1  0
  7  8  2  3
  8  9  1  0
  6 10  1  0
 10 11  1  0
 11 12  1  0
 12 13  2  3
 13 14  1  0
 14 15  1  0
  9 16  2  0
  5 17  1  0
 12 18  1  0
 17 18  1  0
M  END

$$$$
No_761-/dssg/home/sw_qyf/PocketFlow/Model-Generation-Results/5HT2A_7WC7_rec_A_10.pdb/2024-01-01-03-54-21/
     RDKit          3D

 22 25  0  0  0  0  0  0  0  0999 V2000
  -23.1746  -16.6014  144.8668 C   0  0  0  0  0  0  0  0  0  0  0  0
  -23.8963  -15.5346  144.7885 C   0  0  0  0  0  0  0  0  0  0  0  0
  -25.3063  -15.4625  144.8521 C   0  0  0  0  0  0  0  0  0  0  0  0
  -26.0192  -14.2249  144.6050 C   0  0  0  0  0  0  0  0  0  0  0  0
  -26.6274  -13.6680  145.2524 C   0  0  0  0  0  0  0  0  0  0  0  0
  -27.2443  -12.3229  145.0049 C   0  0  0  0  0  0  0  0  0  0  0  0
  -27.5634  -11.9262  143.7440 C   0  0  0  0  0  0  0  0  0  0  0  0
  -27.0783  -12.8633  142.7537 C   0  0  0  0  0  0  0  0  0  0  0  0
  -26.3069  -14.0041  143.1220 C   0  0  0  0  0  0  0  0  0  0  0  0
  -23.9559  -17.7958  145.2790 C   0  0  0  0  0  0  0  0  0  0  0  0
  -25.2370  -17.6736  145.7155 C   0  0  0  0  0  0  0  0  0  0  0  0
  -25.9374  -16.5534  145.4395 C   0  0  0  0  0  0  0  0  0  0  0  0
  -28.3029  -10.8053  143.3589 C   0  0  0  0  0  0  0  0  0  0  0  0
  -29.1673  -10.7296  142.6165 C   0  0  0  0  0  0  0  0  0  0  0  0
  -29.8907   -9.4801  142.2830 C   0  0  0  0  0  0  0  0  0  0  0  0
  -31.0475   -9.3830  141.6646 C   0  0  0  0  0  0  0  0  0  0  0  0
  -31.6779   -8.0741  141.6117 C   0  0  0  0  0  0  0  0  0  0  0  0
  -30.8551   -7.0167  142.1413 C   0  0  0  0  0  0  0  0  0  0  0  0
  -29.6114   -7.1950  142.7157 C   0  0  0  0  0  0  0  0  0  0  0  0
  -29.0804   -8.4179  142.8366 C   0  0  0  0  0  0  0  0  0  0  0  0
  -27.7287   -9.5951  144.0734 C   0  0  0  0  0  0  0  0  0  0  0  0
  -28.1188   -8.3946  143.7710 N   0  0  0  0  0  0  0  0  0  0  0  0
  3  4  1  0
  7 13  1  0
 15 16  2  0
 16 17  1  0
 17 18  2  0
 18 19  1  0
 19 20  2  0
 13 14  2  0
 14 15  1  0
 15 20  1  0
 20 22  1  0
 22 21  2  0
 21 13  1  0
  1  2  2  0
  2  3  1  0
  3 12  2  0
 12 11  1  0
 11 10  2  0
 10  1  1  0
  4  5  2  0
  5  6  1  0
  6  7  2  0
  7  8  1  0
  8  9  2  0
  9  4  1  0
M  END

$$$$
No_762-/dssg/home/sw_qyf/PocketFlow/Model-Generation-Results/5HT2A_7WC7_rec_A_10.pdb/2024-01-01-03-54-21/
     RDKit          3D

 31 33  0  0  0  0  0  0  0  0999 V2000
  -24.1553  -17.8465  145.7021 C   0  0  0  0  0  0  0  0  0  0  0  0
  -23.9795  -18.4462  146.7426 C   0  0  0  0  0  0  0  0  0  0  0  0
  -25.1593  -16.8262  145.6925 C   0  0  0  0  0  0  0  0  0  0  0  0
  -24.9465  -15.5961  144.9952 C   0  0  0  0  0  0  0  0  0  0  0  0
  -25.8339  -14.4742  145.0599 C   0  0  0  0  0  0  0  0  0  0  0  0
  -25.6290  -13.3152  144.3271 C   0  0  0  0  0  0  0  0  0  0  0  0
  -24.6337  -18.1358  147.9662 C   0  0  0  0  0  0  0  0  0  0  0  0
  -25.5331  -17.0778  148.0459 C   0  0  0  0  0  0  0  0  0  0  0  0
  -25.6760  -16.2601  146.9321 C   0  0  0  0  0  0  0  0  0  0  0  0
  -26.2982  -14.9827  146.8079 C   0  0  0  0  0  0  0  0  0  0  0  0
  -24.7717  -12.5353  145.0656 C   0  0  0  0  0  0  0  0  0  0  0  0
  -23.5065  -12.6747  145.1207 O   0  0  0  0  0  0  0  0  0  0  0  0
  -25.2002  -11.2389  145.4068 O   0  0  0  0  0  0  0  0  0  0  0  0
  -26.0104  -16.7330  149.2501 O   0  0  0  0  0  0  0  0  0  0  0  0
  -23.6836  -18.1977  144.5439 O   0  0  0  0  0  0  0  0  0  0  0  0
  -26.3992  -10.8795  145.4344 C   0  0  0  0  0  0  0  0  0  0  0  0
  -27.3415  -11.2038  144.5303 C   0  0  0  0  0  0  0  0  0  0  0  0
  -27.9702  -10.0803  143.8886 C   0  0  0  0  0  0  0  0  0  0  0  0
  -28.9597  -10.2668  142.8667 C   0  0  0  0  0  0  0  0  0  0  0  0
  -30.1527   -9.5807  142.8342 C   0  0  0  0  0  0  0  0  0  0  0  0
  -30.0688   -8.2725  142.2710 C   0  0  0  0  0  0  0  0  0  0  0  0
  -30.2147   -8.0139  140.9519 C   0  0  0  0  0  0  0  0  0  0  0  0
  -29.0491   -7.2537  140.3312 C   0  0  0  0  0  0  0  0  0  0  0  0
  -28.5763   -7.8383  139.1171 C   0  0  0  0  0  0  0  0  0  0  0  0
  -27.9451   -9.1143  139.2130 C   0  0  0  0  0  0  0  0  0  0  0  0
  -28.5120  -10.2969  138.7436 C   0  0  0  0  0  0  0  0  0  0  0  0
  -27.8712  -11.5523  138.9725 C   0  0  0  0  0  0  0  0  0  0  0  0
  -26.6506  -11.5309  139.7105 C   0  0  0  0  0  0  0  0  0  0  0  0
  -26.1249  -10.2914  140.1057 C   0  0  0  0  0  0  0  0  0  0  0  0
  -26.8145   -9.1056  139.9514 C   0  0  0  0  0  0  0  0  0  0  0  0
  -31.2769  -10.1098  143.0841 O   0  0  0  0  0  0  0  0  0  0  0  0
  1  2  1  0
  1  3  1  0
  3  4  2  0
  4  5  1  0
  5  6  2  3
  2  7  1  0
  7  8  1  0
  3  9  1  0
  8  9  1  0
  5 10  1  0
  9 10  1  0
  6 11  1  0
 11 12  2  0
 11 13  1  0
  8 14  1  0
  1 15  1  0
 13 16  1  0
 16 17  1  0
 17 18  1  0
 18 19  1  0
 19 20  1  0
 20 21  2  3
 21 22  1  0
 22 23  1  0
 23 24  1  0
 24 25  1  0
 20 31  1  0
 25 26  2  0
 26 27  1  0
 27 28  2  0
 28 29  1  0
 29 30  2  0
 30 25  1  0
M  END

$$$$
No_763-/dssg/home/sw_qyf/PocketFlow/Model-Generation-Results/5HT2A_7WC7_rec_A_10.pdb/2024-01-01-03-54-21/
     RDKit          3D

 35 38  0  0  0  0  0  0  0  0999 V2000
  -23.8998  -17.8495  145.5131 N   0  0  0  0  0  0  0  0  0  0  0  0
  -24.2949  -16.6890  145.5199 C   0  0  0  0  0  0  0  0  0  0  0  0
  -24.1189  -15.7572  144.5004 C   0  0  0  0  0  0  0  0  0  0  0  0
  -24.5682  -14.4396  144.6345 C   0  0  0  0  0  0  0  0  0  0  0  0
  -25.2957  -13.9949  145.6758 C   0  0  0  0  0  0  0  0  0  0  0  0
  -25.5363  -14.9537  146.7069 C   0  0  0  0  0  0  0  0  0  0  0  0
  -25.0215  -16.2353  146.6633 C   0  0  0  0  0  0  0  0  0  0  0  0
  -24.2445  -18.7866  146.4147 C   0  0  0  0  0  0  0  0  0  0  0  0
  -24.9105  -18.4306  147.5421 N   0  0  0  0  0  0  0  0  0  0  0  0
  -25.3486  -17.1637  147.7224 C   0  0  0  0  0  0  0  0  0  0  0  0
  -25.9098  -16.8729  148.8406 O   0  0  0  0  0  0  0  0  0  0  0  0
  -25.7000  -12.5855  145.8457 C   0  0  0  0  0  0  0  0  0  0  0  0
  -27.0011  -12.2122  145.4426 C   0  0  0  0  0  0  0  0  0  0  0  0
  -27.2906  -11.0558  144.7757 C   0  0  0  0  0  0  0  0  0  0  0  0
  -28.5646  -10.7482  144.2653 C   0  0  0  0  0  0  0  0  0  0  0  0
  -28.8917   -9.8229  143.3042 C   0  0  0  0  0  0  0  0  0  0  0  0
  -29.4477   -8.8646  142.9778 C   0  0  0  0  0  0  0  0  0  0  0  0
  -29.5158   -8.1655  141.7183 C   0  0  0  0  0  0  0  0  0  0  0  0
  -28.8462   -8.7663  140.6585 C   0  0  0  0  0  0  0  0  0  0  0  0
  -28.2714  -10.0306  140.8727 C   0  0  0  0  0  0  0  0  0  0  0  0
  -28.1601  -10.5295  142.0887 C   0  0  0  0  0  0  0  0  0  0  0  0
  -29.0894   -7.9846  139.3991 C   0  0  0  0  0  0  0  0  0  0  0  0
  -29.6273  -11.1359  145.2721 C   0  0  0  0  0  0  0  0  0  0  0  0
  -29.3661  -12.2123  146.2457 C   0  0  0  0  0  0  0  0  0  0  0  0
  -28.0099  -12.6603  146.4167 C   0  0  0  0  0  0  0  0  0  0  0  0
  -28.1665   -7.6982  138.8645 F   0  0  0  0  0  0  0  0  0  0  0  0
  -29.8663   -6.8315  139.6988 F   0  0  0  0  0  0  0  0  0  0  0  0
  -30.3366  -12.6916  147.0064 O   0  0  0  0  0  0  0  0  0  0  0  0
  -30.3091  -12.2679  148.3390 C   0  0  0  0  0  0  0  0  0  0  0  0
  -31.2788  -13.0067  149.1993 C   0  0  0  0  0  0  0  0  0  0  0  0
  -31.1257  -14.3155  149.3370 C   0  0  0  0  0  0  0  0  0  0  0  0
  -32.2879  -12.2852  149.8780 C   0  0  0  0  0  0  0  0  0  0  0  0
  -32.7786  -11.0226  149.4573 C   0  0  0  0  0  0  0  0  0  0  0  0
  -29.9687  -14.9859  148.7919 C   0  0  0  0  0  0  0  0  0  0  0  0
  -32.8623  -12.8832  151.0249 C   0  0  0  0  0  0  0  0  0  0  0  0
 10 11  1  0
  5 12  1  0
 12 13  1  0
 15 16  1  0
 19 22  1  0
 22 26  1  0
 22 27  1  0
 24 28  1  0
 28 29  1  0
 29 30  1  0
 30 31  2  3
 30 32  1  0
 32 33  1  0
 31 34  1  0
 32 35  1  0
  2  3  1  0
  3  4  2  0
  4  5  1  0
  5  6  2  0
  6  7  1  0
  1  2  2  0
  2  7  1  0
  7 10  2  0
 10  9  1  0
  9  8  2  0
  8  1  1  0
 13 14  2  0
 14 15  1  0
 15 23  2  0
 23 24  1  0
 24 25  2  0
 25 13  1  0
 16 17  2  0
 17 18  1  0
 18 19  2  0
 19 20  1  0
 20 21  2  0
 21 16  1  0
M  END

$$$$
No_764-/dssg/home/sw_qyf/PocketFlow/Model-Generation-Results/5HT2A_7WC7_rec_A_10.pdb/2024-01-01-03-54-21/
     RDKit          3D

 35 37  0  0  0  0  0  0  0  0999 V2000
  -24.1553  -17.8465  145.7021 C   0  0  0  0  0  0  0  0  0  0  0  0
  -24.2856  -16.6364  145.3494 C   0  0  0  0  0  0  0  0  0  0  0  0
  -25.0033  -15.6772  146.0737 C   0  0  0  0  0  0  0  0  0  0  0  0
  -25.6964  -16.1810  147.2049 C   0  0  0  0  0  0  0  0  0  0  0  0
  -24.8143  -18.3454  146.8324 C   0  0  0  0  0  0  0  0  0  0  0  0
  -25.5292  -17.4614  147.6373 C   0  0  0  0  0  0  0  0  0  0  0  0
  -23.4900  -15.9703  143.9272 Cl  0  0  0  0  0  0  0  0  0  0  0  0
  -25.1910  -14.2305  145.6849 C   0  0  0  0  0  0  0  0  0  0  0  0
  -25.2391  -13.6847  144.5541 C   0  0  0  0  0  0  0  0  0  0  0  0
  -25.4319  -12.3374  144.3553 C   0  0  0  0  0  0  0  0  0  0  0  0
  -25.7176  -11.5699  145.5587 C   0  0  0  0  0  0  0  0  0  0  0  0
  -25.6939  -12.1264  146.8526 C   0  0  0  0  0  0  0  0  0  0  0  0
  -25.4637  -13.4729  146.9566 C   0  0  0  0  0  0  0  0  0  0  0  0
  -25.9487  -10.1999  145.4040 O   0  0  0  0  0  0  0  0  0  0  0  0
  -27.0427   -9.8662  144.5255 C   0  0  0  0  0  0  0  0  0  0  0  0
  -28.2418  -10.4911  144.8306 C   0  0  0  0  0  0  0  0  0  0  0  0
  -29.3803   -9.9723  144.1564 C   0  0  0  0  0  0  0  0  0  0  0  0
  -29.3571   -8.9533  143.2928 C   0  0  0  0  0  0  0  0  0  0  0  0
  -30.4685   -8.5896  142.5464 C   0  0  0  0  0  0  0  0  0  0  0  0
  -31.7330   -9.1330  142.8159 C   0  0  0  0  0  0  0  0  0  0  0  0
  -30.4041   -7.4505  141.5858 C   0  0  0  0  0  0  0  0  0  0  0  0
  -29.7994   -7.6388  140.3410 C   0  0  0  0  0  0  0  0  0  0  0  0
  -28.4903   -7.1467  140.1687 C   0  0  0  0  0  0  0  0  0  0  0  0
  -27.9971   -7.5563  138.8144 C   0  0  0  0  0  0  0  0  0  0  0  0
  -28.9605   -8.5002  138.1391 C   0  0  0  0  0  0  0  0  0  0  0  0
  -28.2583   -9.2490  137.0969 C   0  0  0  0  0  0  0  0  0  0  0  0
  -31.9572  -10.1524  142.0966 O   0  0  0  0  0  0  0  0  0  0  0  0
  -30.1044   -8.4764  139.2624 C   0  0  0  0  0  0  0  0  0  0  0  0
  -28.1559  -10.6506  137.3965 C   0  0  0  0  0  0  0  0  0  0  0  0
  -28.4426  -11.6035  136.4804 C   0  0  0  0  0  0  0  0  0  0  0  0
  -27.3225  -11.0172  138.5660 C   0  0  0  0  0  0  0  0  0  0  0  0
  -27.1015  -10.2507  139.7049 C   0  0  0  0  0  0  0  0  0  0  0  0
  -27.2723  -12.4838  138.6742 C   0  0  0  0  0  0  0  0  0  0  0  0
  -26.9121  -12.7716  140.1671 C   0  0  0  0  0  0  0  0  0  0  0  0
  -27.6371  -12.0094  141.1149 C   0  0  0  0  0  0  0  0  0  0  0  0
  2  7  1  0
  3  8  1  0
 11 14  1  0
 14 15  1  0
 15 16  1  0
 16 17  2  3
 17 18  1  0
 18 19  1  0
 19 20  1  0
 19 21  1  0
 21 22  1  0
 22 23  1  0
 23 24  2  0
 24 25  1  0
 25 26  1  0
 20 27  1  0
 22 28  1  0
 25 28  1  0
 26 29  1  0
 29 30  1  0
 29 31  1  0
 31 32  1  0
 31 33  1  0
 33 34  1  0
 34 35  1  0
  1  2  2  0
  2  3  1  0
  3  4  2  0
  4  6  1  0
  6  5  2  0
  5  1  1  0
  8  9  2  0
  9 10  1  0
 10 11  2  0
 11 12  1  0
 12 13  2  0
 13  8  1  0
M  END

$$$$
No_765-/dssg/home/sw_qyf/PocketFlow/Model-Generation-Results/5HT2A_7WC7_rec_A_10.pdb/2024-01-01-03-54-21/
     RDKit          3D

 35 38  0  0  0  0  0  0  0  0999 V2000
  -24.1553  -17.8465  145.7021 C   0  0  0  0  0  0  0  0  0  0  0  0
  -24.2856  -16.6364  145.3494 C   0  0  0  0  0  0  0  0  0  0  0  0
  -24.5733  -15.7651  145.9979 C   0  0  0  0  0  0  0  0  0  0  0  0
  -24.7088  -14.2765  145.5906 C   0  0  0  0  0  0  0  0  0  0  0  0
  -24.0081  -14.0223  144.3771 C   0  0  0  0  0  0  0  0  0  0  0  0
  -24.5461  -18.2167  147.0077 C   0  0  0  0  0  0  0  0  0  0  0  0
  -24.9798  -17.2136  147.8740 C   0  0  0  0  0  0  0  0  0  0  0  0
  -25.3025  -17.4036  149.2641 C   0  0  0  0  0  0  0  0  0  0  0  0
  -24.9898  -15.8619  147.3935 C   0  0  0  0  0  0  0  0  0  0  0  0
  -26.5329  -17.6623  149.4738 F   0  0  0  0  0  0  0  0  0  0  0  0
  -25.3565  -13.2870  146.3283 C   0  0  0  0  0  0  0  0  0  0  0  0
  -25.4365  -11.9583  145.8788 C   0  0  0  0  0  0  0  0  0  0  0  0
  -26.7690  -11.4541  145.6032 C   0  0  0  0  0  0  0  0  0  0  0  0
  -27.0521  -10.5540  144.6363 C   0  0  0  0  0  0  0  0  0  0  0  0
  -28.3189  -10.1461  144.3380 C   0  0  0  0  0  0  0  0  0  0  0  0
  -29.4084  -10.6692  145.1755 C   0  0  0  0  0  0  0  0  0  0  0  0
  -29.0722  -11.6205  146.1828 C   0  0  0  0  0  0  0  0  0  0  0  0
  -27.7780  -11.9399  146.4637 C   0  0  0  0  0  0  0  0  0  0  0  0
  -24.6200  -18.5405  149.7597 F   0  0  0  0  0  0  0  0  0  0  0  0
  -24.7237  -16.5150  150.1592 F   0  0  0  0  0  0  0  0  0  0  0  0
  -30.1427  -12.0861  146.8896 F   0  0  0  0  0  0  0  0  0  0  0  0
  -28.6773   -9.2722  143.2371 C   0  0  0  0  0  0  0  0  0  0  0  0
  -28.8787   -9.8647  141.9195 C   0  0  0  0  0  0  0  0  0  0  0  0
  -29.2320  -11.1494  141.6758 C   0  0  0  0  0  0  0  0  0  0  0  0
  -28.7069   -8.9434  140.8382 C   0  0  0  0  0  0  0  0  0  0  0  0
  -29.2547   -7.6865  140.7889 C   0  0  0  0  0  0  0  0  0  0  0  0
  -30.0771   -7.2119  141.8750 C   0  0  0  0  0  0  0  0  0  0  0  0
  -30.1448   -7.7846  143.1496 C   0  0  0  0  0  0  0  0  0  0  0  0
  -29.4567   -8.6462  143.7625 C   0  0  0  0  0  0  0  0  0  0  0  0
  -27.9328   -9.4118  139.7232 C   0  0  0  0  0  0  0  0  0  0  0  0
  -27.6066  -10.7615  139.5659 C   0  0  0  0  0  0  0  0  0  0  0  0
  -26.7750  -11.3272  138.5649 C   0  0  0  0  0  0  0  0  0  0  0  0
  -28.1834  -11.7401  140.6200 C   0  0  0  0  0  0  0  0  0  0  0  0
  -29.2690   -6.8859  139.6192 C   0  0  0  0  0  0  0  0  0  0  0  0
  -22.7810  -14.0958  144.2933 O   0  0  0  0  0  0  0  0  0  0  0  0
  3  4  1  0
  4  5  2  3
  7  8  1  0
  8 10  1  0
  4 11  1  0
 11 12  1  0
 12 13  1  0
  8 19  1  0
  8 20  1  0
 17 21  1  0
 15 22  1  0
 22 23  1  0
 25 26  1  0
 26 27  1  0
 27 28  2  0
 22 29  1  0
 28 29  1  0
 31 32  1  0
 26 34  1  0
  5 35  1  0
 13 14  2  0
 14 15  1  0
 15 16  2  0
 16 17  1  0
 17 18  2  0
 18 13  1  0
 23 24  2  0
 24 33  1  0
 33 31  2  0
 31 30  1  0
 30 25  2  0
 25 23  1  0
  1  2  2  0
  2  3  1  0
  3  9  2  0
  9  7  1  0
  7  6  2  0
  6  1  1  0
M  END

$$$$
No_766-/dssg/home/sw_qyf/PocketFlow/Model-Generation-Results/5HT2A_7WC7_rec_A_10.pdb/2024-01-01-03-54-21/
     RDKit          3D

 16 18  0  0  0  0  0  0  0  0999 V2000
  -24.1553  -17.8465  145.7021 C   0  0  0  0  0  0  0  0  0  0  0  0
  -24.2856  -16.6364  145.3494 C   0  0  0  0  0  0  0  0  0  0  0  0
  -24.1962  -15.9414  144.2650 C   0  0  0  0  0  0  0  0  0  0  0  0
  -24.3870  -14.5486  144.1162 C   0  0  0  0  0  0  0  0  0  0  0  0
  -24.7523  -13.8439  145.3544 C   0  0  0  0  0  0  0  0  0  0  0  0
  -24.8596  -14.5458  146.5907 C   0  0  0  0  0  0  0  0  0  0  0  0
  -24.5647  -15.8706  146.6408 C   0  0  0  0  0  0  0  0  0  0  0  0
  -24.5616  -18.0263  147.0185 C   0  0  0  0  0  0  0  0  0  0  0  0
  -24.7880  -16.8821  147.6461 C   0  0  0  0  0  0  0  0  0  0  0  0
  -24.9378  -12.3523  145.3781 C   0  0  0  0  0  0  0  0  0  0  0  0
  -26.2276  -11.8354  145.4326 C   0  0  0  0  0  0  0  0  0  0  0  0
  -27.0880  -12.3255  146.4317 C   0  0  0  0  0  0  0  0  0  0  0  0
  -28.5148  -11.9290  146.3103 C   0  0  0  0  0  0  0  0  0  0  0  0
  -28.9325  -10.9094  145.4863 C   0  0  0  0  0  0  0  0  0  0  0  0
  -28.0108  -10.3797  144.5524 C   0  0  0  0  0  0  0  0  0  0  0  0
  -26.6618  -10.8230  144.5329 C   0  0  0  0  0  0  0  0  0  0  0  0
  1  2  2  0
  2  3  1  0
  3  4  1  0
  4  5  1  0
  5  6  1  0
  2  7  1  0
  6  7  1  0
  1  8  1  0
  7  9  1  0
  8  9  2  0
  5 10  1  0
 10 11  1  0
 11 12  2  0
 12 13  1  0
 13 14  2  0
 14 15  1  0
 15 16  2  0
 16 11  1  0
M  END

$$$$
No_767-/dssg/home/sw_qyf/PocketFlow/Model-Generation-Results/5HT2A_7WC7_rec_A_10.pdb/2024-01-01-03-54-21/
     RDKit          3D

 35 38  0  0  0  0  0  0  0  0999 V2000
  -23.1746  -16.6014  144.8668 C   0  0  0  0  0  0  0  0  0  0  0  0
  -23.7011  -17.0158  145.9774 C   0  0  0  0  0  0  0  0  0  0  0  0
  -24.2134  -16.0722  146.8877 C   0  0  0  0  0  0  0  0  0  0  0  0
  -24.5407  -14.7704  146.3553 C   0  0  0  0  0  0  0  0  0  0  0  0
  -24.9626  -13.7061  147.1333 C   0  0  0  0  0  0  0  0  0  0  0  0
  -24.0995  -14.5614  145.0046 C   0  0  0  0  0  0  0  0  0  0  0  0
  -23.4166  -15.4695  144.2822 C   0  0  0  0  0  0  0  0  0  0  0  0
  -24.4949  -13.2077  144.4381 C   0  0  0  0  0  0  0  0  0  0  0  0
  -25.2589  -12.4010  146.6035 C   0  0  0  0  0  0  0  0  0  0  0  0
  -24.9316  -12.2117  145.1910 C   0  0  0  0  0  0  0  0  0  0  0  0
  -23.3980  -18.4147  146.5784 C   0  0  0  0  0  0  0  0  0  0  0  0
  -25.1655  -11.0122  144.6529 O   0  0  0  0  0  0  0  0  0  0  0  0
  -23.9037  -18.7223  147.6702 O   0  0  0  0  0  0  0  0  0  0  0  0
  -22.7926  -19.2300  145.9034 O   0  0  0  0  0  0  0  0  0  0  0  0
  -26.4930  -10.4870  144.6241 C   0  0  0  0  0  0  0  0  0  0  0  0
  -26.9652   -9.7660  143.5967 C   0  0  0  0  0  0  0  0  0  0  0  0
  -28.3198   -9.3314  143.5525 C   0  0  0  0  0  0  0  0  0  0  0  0
  -29.2278  -10.0499  144.5092 C   0  0  0  0  0  0  0  0  0  0  0  0
  -28.7121  -10.9691  145.4654 C   0  0  0  0  0  0  0  0  0  0  0  0
  -27.3750  -11.2531  145.4993 C   0  0  0  0  0  0  0  0  0  0  0  0
  -29.7478  -11.5400  146.3714 C   0  0  0  0  0  0  0  0  0  0  0  0
  -29.5474  -12.6701  146.8713 O   0  0  0  0  0  0  0  0  0  0  0  0
  -30.0742  -13.1351  148.0181 C   0  0  0  0  0  0  0  0  0  0  0  0
  -31.0694  -12.4269  148.5704 C   0  0  0  0  0  0  0  0  0  0  0  0
  -31.1660  -12.7447  149.8620 F   0  0  0  0  0  0  0  0  0  0  0  0
  -28.8693   -8.4535  142.6254 C   0  0  0  0  0  0  0  0  0  0  0  0
  -29.8077   -7.6225  143.0482 C   0  0  0  0  0  0  0  0  0  0  0  0
  -30.5050   -6.7813  141.9809 C   0  0  0  0  0  0  0  0  0  0  0  0
  -30.0222   -7.0598  140.6697 C   0  0  0  0  0  0  0  0  0  0  0  0
  -29.0493   -8.0183  140.3183 C   0  0  0  0  0  0  0  0  0  0  0  0
  -28.6682   -8.2721  139.0325 C   0  0  0  0  0  0  0  0  0  0  0  0
  -28.5636   -8.8242  141.4351 C   0  0  0  0  0  0  0  0  0  0  0  0
  -28.6718   -7.3303  138.1884 F   0  0  0  0  0  0  0  0  0  0  0  0
  -29.2404   -9.4176  138.5088 F   0  0  0  0  0  0  0  0  0  0  0  0
  -27.2771   -8.7147  139.0105 F   0  0  0  0  0  0  0  0  0  0  0  0
  1  2  1  0
  2  3  1  0
  3  4  1  0
  1  7  1  0
  6  7  1  0
  2 11  1  0
 10 12  1  0
 11 13  2  0
 11 14  1  0
 12 15  1  0
 19 21  1  0
 21 22  1  0
 22 23  1  0
 23 24  1  0
 24 25  1  0
 17 26  1  0
 30 31  1  0
 31 33  1  0
 31 34  1  0
 31 35  1  0
 15 16  2  0
 16 17  1  0
 17 18  2  0
 18 19  1  0
 19 20  2  0
 20 15  1  0
 26 27  2  0
 27 28  1  0
 28 29  2  0
 29 30  1  0
 30 32  2  0
 32 26  1  0
  4  5  2  0
  5  9  1  0
  9 10  2  0
 10  8  1  0
  8  6  2  0
  6  4  1  0
M  END

$$$$
No_768-/dssg/home/sw_qyf/PocketFlow/Model-Generation-Results/5HT2A_7WC7_rec_A_10.pdb/2024-01-01-03-54-21/
     RDKit          3D

 32 33  0  0  0  0  0  0  0  0999 V2000
  -23.1746  -16.6014  144.8668 C   0  0  0  0  0  0  0  0  0  0  0  0
  -23.7011  -17.0158  145.9774 C   0  0  0  0  0  0  0  0  0  0  0  0
  -24.2134  -16.0722  146.8877 C   0  0  0  0  0  0  0  0  0  0  0  0
  -24.5407  -14.7704  146.3553 C   0  0  0  0  0  0  0  0  0  0  0  0
  -24.1607  -14.4055  145.0934 C   0  0  0  0  0  0  0  0  0  0  0  0
  -23.4579  -15.3395  144.3578 C   0  0  0  0  0  0  0  0  0  0  0  0
  -23.4856  -18.3924  146.5545 C   0  0  0  0  0  0  0  0  0  0  0  0
  -24.3219  -13.0064  144.6606 C   0  0  0  0  0  0  0  0  0  0  0  0
  -24.3485  -12.0502  145.8199 C   0  0  0  0  0  0  0  0  0  0  0  0
  -24.1881  -19.1610  146.4655 O   0  0  0  0  0  0  0  0  0  0  0  0
  -22.2948  -18.6076  147.1256 O   0  0  0  0  0  0  0  0  0  0  0  0
  -25.1210  -11.1257  145.7323 C   0  0  0  0  0  0  0  0  0  0  0  0
  -26.0246  -10.8697  144.6397 C   0  0  0  0  0  0  0  0  0  0  0  0
  -26.5387   -9.6787  144.5389 N   0  0  0  0  0  0  0  0  0  0  0  0
  -27.6317   -9.4756  143.6791 C   0  0  0  0  0  0  0  0  0  0  0  0
  -28.5355   -8.4224  143.8324 C   0  0  0  0  0  0  0  0  0  0  0  0
  -29.5677   -8.1993  142.8561 C   0  0  0  0  0  0  0  0  0  0  0  0
  -30.6435   -7.3801  143.1178 C   0  0  0  0  0  0  0  0  0  0  0  0
  -29.3820   -8.7160  141.5395 C   0  0  0  0  0  0  0  0  0  0  0  0
  -28.7029   -9.8711  141.3211 C   0  0  0  0  0  0  0  0  0  0  0  0
  -27.5813  -10.1112  142.3530 C   0  0  0  0  0  0  0  0  0  0  0  0
  -28.5414  -10.5391  140.1361 C   0  0  0  0  0  0  0  0  0  0  0  0
  -27.2714  -11.0021  139.6896 C   0  0  0  0  0  0  0  0  0  0  0  0
  -27.2624  -12.3413  139.0171 C   0  0  0  0  0  0  0  0  0  0  0  0
  -30.1548   -7.8741  140.0749 Br  0  0  0  0  0  0  0  0  0  0  0  0
  -28.1803  -12.9413  139.0011 O   0  0  0  0  0  0  0  0  0  0  0  0
  -26.1585  -12.7104  138.4731 O   0  0  0  0  0  0  0  0  0  0  0  0
  -24.6761  -16.4126  148.0910 F   0  0  0  0  0  0  0  0  0  0  0  0
  -26.2659  -11.8001  143.8989 O   0  0  0  0  0  0  0  0  0  0  0  0
  -31.6212   -7.9864  143.7793 O   0  0  0  0  0  0  0  0  0  0  0  0
  -31.1879   -9.1692  144.3257 C   0  0  0  0  0  0  0  0  0  0  0  0
  -30.1039   -9.3394  144.6058 O   0  0  0  0  0  0  0  0  0  0  0  0
  2  7  1  0
  5  8  1  0
  8  9  1  0
  7 10  2  0
  7 11  1  0
  9 12  2  3
 12 13  1  0
 13 14  1  0
 14 15  1  0
 15 16  1  0
 16 17  1  0
 17 18  1  0
 17 19  1  0
 19 20  1  0
 15 21  1  0
 20 21  1  0
 20 22  1  0
 22 23  1  0
 23 24  1  0
 19 25  1  0
 24 26  2  0
 24 27  1  0
  3 28  1  0
 13 29  2  0
 18 30  1  0
 30 31  1  0
 31 32  2  0
  1  2  2  0
  2  3  1  0
  3  4  2  0
  4  5  1  0
  5  6  2  0
  6  1  1  0
M  END

$$$$
No_769-/dssg/home/sw_qyf/PocketFlow/Model-Generation-Results/5HT2A_7WC7_rec_A_10.pdb/2024-01-01-03-54-21/
     RDKit          3D

 13 13  0  0  0  0  0  0  0  0999 V2000
  -23.1746  -16.6014  144.8668 C   0  0  0  0  0  0  0  0  0  0  0  0
  -23.7011  -17.0158  145.9774 C   0  0  0  0  0  0  0  0  0  0  0  0
  -24.2134  -16.0722  146.8877 C   0  0  0  0  0  0  0  0  0  0  0  0
  -23.6191  -15.3702  144.4058 C   0  0  0  0  0  0  0  0  0  0  0  0
  -24.2909  -14.3938  145.2254 C   0  0  0  0  0  0  0  0  0  0  0  0
  -24.6051  -14.7662  146.4984 C   0  0  0  0  0  0  0  0  0  0  0  0
  -24.5266  -12.9942  144.8212 C   0  0  0  0  0  0  0  0  0  0  0  0
  -25.3763  -13.0990  144.0345 F   0  0  0  0  0  0  0  0  0  0  0  0
  -23.4092  -12.5262  144.2109 F   0  0  0  0  0  0  0  0  0  0  0  0
  -24.8490  -12.1785  145.8032 F   0  0  0  0  0  0  0  0  0  0  0  0
  -23.3759  -18.3865  146.5214 C   0  0  0  0  0  0  0  0  0  0  0  0
  -23.6406  -18.7408  147.6431 O   0  0  0  0  0  0  0  0  0  0  0  0
  -23.0163  -19.2388  145.6484 O   0  0  0  0  0  0  0  0  0  0  0  0
  5  7  1  0
  7  8  1  0
  7  9  1  0
  7 10  1  0
  2 11  1  0
 11 12  2  0
 11 13  1  0
  1  2  2  0
  2  3  1  0
  3  6  2  0
  6  5  1  0
  5  4  2  0
  4  1  1  0
M  END

$$$$
No_770-/dssg/home/sw_qyf/PocketFlow/Model-Generation-Results/5HT2A_7WC7_rec_A_10.pdb/2024-01-01-03-54-21/
     RDKit          3D

 22 24  0  0  0  0  0  0  0  0999 V2000
  -24.1553  -17.8465  145.7021 C   0  0  0  0  0  0  0  0  0  0  0  0
  -23.9795  -18.4462  146.7426 C   0  0  0  0  0  0  0  0  0  0  0  0
  -25.1593  -16.8262  145.6925 C   0  0  0  0  0  0  0  0  0  0  0  0
  -25.3302  -15.8818  144.5925 C   0  0  0  0  0  0  0  0  0  0  0  0
  -24.4570  -18.1009  148.0274 C   0  0  0  0  0  0  0  0  0  0  0  0
  -25.3496  -17.0286  148.1023 C   0  0  0  0  0  0  0  0  0  0  0  0
  -25.5669  -16.2449  146.9641 C   0  0  0  0  0  0  0  0  0  0  0  0
  -24.1866  -15.0522  144.1641 C   0  0  0  0  0  0  0  0  0  0  0  0
  -24.5102  -13.5375  144.1629 C   0  0  0  0  0  0  0  0  0  0  0  0
  -23.4462  -12.8714  145.1093 C   0  0  0  0  0  0  0  0  0  0  0  0
  -24.0986  -12.0814  146.1912 C   0  0  0  0  0  0  0  0  0  0  0  0
  -25.3703  -12.7404  146.5459 C   0  0  0  0  0  0  0  0  0  0  0  0
  -26.3820  -12.5607  145.4949 C   0  0  0  0  0  0  0  0  0  0  0  0
  -25.8986  -13.1991  144.2512 C   0  0  0  0  0  0  0  0  0  0  0  0
  -27.7121  -12.1806  145.7241 C   0  0  0  0  0  0  0  0  0  0  0  0
  -28.5849  -12.7187  146.6332 C   0  0  0  0  0  0  0  0  0  0  0  0
  -29.7979  -12.2535  146.8967 C   0  0  0  0  0  0  0  0  0  0  0  0
  -30.1337  -11.1294  146.1375 N   0  0  0  0  0  0  0  0  0  0  0  0
  -28.2820  -10.9882  145.1008 C   0  0  0  0  0  0  0  0  0  0  0  0
  -29.4611  -10.4939  145.3494 C   0  0  0  0  0  0  0  0  0  0  0  0
  -27.1434  -10.1011  143.8115 Br  0  0  0  0  0  0  0  0  0  0  0  0
  -30.4422  -12.7205  147.9837 N   0  0  0  0  0  0  0  0  0  0  0  0
  3  4  1  0
  4  8  1  0
  8  9  1  0
  9 10  1  0
 10 11  1  0
 11 12  1  0
 12 13  1  0
  9 14  1  0
 13 14  1  0
 13 15  1  0
 19 21  1  0
 17 22  1  0
  1  2  2  0
  2  5  1  0
  5  6  2  0
  6  7  1  0
  7  3  2  0
  3  1  1  0
 15 16  2  0
 16 17  1  0
 17 18  2  0
 18 20  1  0
 20 19  2  0
 19 15  1  0
M  END

$$$$
No_771-/dssg/home/sw_qyf/PocketFlow/Model-Generation-Results/5HT2A_7WC7_rec_A_10.pdb/2024-01-01-03-54-21/
     RDKit          3D

 33 35  0  0  0  0  0  0  0  0999 V2000
  -23.1746  -16.6014  144.8668 C   0  0  0  0  0  0  0  0  0  0  0  0
  -23.8963  -15.5346  144.7885 C   0  0  0  0  0  0  0  0  0  0  0  0
  -24.5755  -15.0383  145.9043 C   0  0  0  0  0  0  0  0  0  0  0  0
  -25.0618  -13.6819  146.0347 C   0  0  0  0  0  0  0  0  0  0  0  0
  -23.4234  -17.5426  145.8975 C   0  0  0  0  0  0  0  0  0  0  0  0
  -24.0804  -17.1685  147.0476 C   0  0  0  0  0  0  0  0  0  0  0  0
  -24.6332  -15.8976  147.1094 C   0  0  0  0  0  0  0  0  0  0  0  0
  -24.3512  -12.6652  145.5125 C   0  0  0  0  0  0  0  0  0  0  0  0
  -24.8562  -11.3404  145.4400 C   0  0  0  0  0  0  0  0  0  0  0  0
  -26.2604  -11.3382  145.0946 C   0  0  0  0  0  0  0  0  0  0  0  0
  -27.1073  -12.3403  145.7081 C   0  0  0  0  0  0  0  0  0  0  0  0
  -26.4835  -13.6394  145.9309 C   0  0  0  0  0  0  0  0  0  0  0  0
  -28.5208  -12.1836  145.4013 C   0  0  0  0  0  0  0  0  0  0  0  0
  -29.3762  -12.2539  146.6233 C   0  0  0  0  0  0  0  0  0  0  0  0
  -29.3870  -13.2934  147.5337 C   0  0  0  0  0  0  0  0  0  0  0  0
  -30.2940  -13.2988  148.6496 C   0  0  0  0  0  0  0  0  0  0  0  0
  -31.2697  -12.2829  148.7389 C   0  0  0  0  0  0  0  0  0  0  0  0
  -32.1699  -12.3909  149.8485 C   0  0  0  0  0  0  0  0  0  0  0  0
  -32.9640  -11.2461  150.1350 C   0  0  0  0  0  0  0  0  0  0  0  0
  -24.1238  -17.9632  148.2844 C   0  0  0  0  0  0  0  0  0  0  0  0
  -23.4964  -17.3463  149.4913 C   0  0  0  0  0  0  0  0  0  0  0  0
  -24.3514  -17.0773  150.6451 C   0  0  0  0  0  0  0  0  0  0  0  0
  -22.9524  -12.4259  146.3434 C   0  0  0  0  0  0  0  0  0  0  0  0
  -26.7103  -10.3629  144.1806 C   0  0  0  0  0  0  0  0  0  0  0  0
  -27.3499  -10.5641  142.9509 C   0  0  0  0  0  0  0  0  0  0  0  0
  -27.2045  -11.4632  142.3101 C   0  0  0  0  0  0  0  0  0  0  0  0
  -27.8801  -11.8296  141.0544 C   0  0  0  0  0  0  0  0  0  0  0  0
  -28.7346  -10.8620  140.5639 C   0  0  0  0  0  0  0  0  0  0  0  0
  -29.0797   -9.7479  141.4277 C   0  0  0  0  0  0  0  0  0  0  0  0
  -28.3856   -9.6139  142.6494 C   0  0  0  0  0  0  0  0  0  0  0  0
  -27.5393  -12.9307  140.1886 C   0  0  0  0  0  0  0  0  0  0  0  0
  -27.9316  -13.0109  139.1308 F   0  0  0  0  0  0  0  0  0  0  0  0
  -26.7364  -13.7543  140.7391 F   0  0  0  0  0  0  0  0  0  0  0  0
  1  2  1  0
  2  3  1  0
  1  5  1  0
  5  6  1  0
  3  7  1  0
  6  7  1  0
 11 13  1  0
 13 14  1  0
 14 15  2  3
 15 16  1  0
 16 17  2  3
 17 18  1  0
 18 19  1  0
  6 20  1  0
 20 21  1  0
 21 22  2  0
  8 23  1  0
 10 24  1  0
 24 25  1  0
 27 31  1  0
 31 32  1  0
 31 33  1  0
  3  4  1  0
  4  8  2  0
  8  9  1  0
  9 10  2  0
 10 11  1  0
 11 12  2  0
 12  4  1  0
 25 26  2  0
 26 27  1  0
 27 28  2  0
 28 29  1  0
 29 30  2  0
 30 25  1  0
M  END

$$$$
No_772-/dssg/home/sw_qyf/PocketFlow/Model-Generation-Results/5HT2A_7WC7_rec_A_10.pdb/2024-01-01-03-54-21/
     RDKit          3D

 35 37  0  0  0  0  0  0  0  0999 V2000
  -23.1746  -16.6014  144.8668 C   0  0  0  0  0  0  0  0  0  0  0  0
  -23.8963  -15.5346  144.7885 C   0  0  0  0  0  0  0  0  0  0  0  0
  -24.5755  -15.0383  145.9043 C   0  0  0  0  0  0  0  0  0  0  0  0
  -25.0618  -13.6819  146.0347 C   0  0  0  0  0  0  0  0  0  0  0  0
  -24.0242  -12.8249  145.9593 C   0  0  0  0  0  0  0  0  0  0  0  0
  -23.5540  -17.4786  146.0177 C   0  0  0  0  0  0  0  0  0  0  0  0
  -24.1966  -17.0989  147.1375 C   0  0  0  0  0  0  0  0  0  0  0  0
  -24.7054  -15.8596  147.1718 C   0  0  0  0  0  0  0  0  0  0  0  0
  -26.3752  -13.2418  146.0613 C   0  0  0  0  0  0  0  0  0  0  0  0
  -26.7981  -11.9242  145.9998 C   0  0  0  0  0  0  0  0  0  0  0  0
  -28.0916  -11.6021  145.6273 C   0  0  0  0  0  0  0  0  0  0  0  0
  -28.3723  -10.7154  144.6089 C   0  0  0  0  0  0  0  0  0  0  0  0
  -29.6218  -10.1123  144.2776 C   0  0  0  0  0  0  0  0  0  0  0  0
  -29.8179   -9.3060  143.2281 C   0  0  0  0  0  0  0  0  0  0  0  0
  -29.1760   -9.4373  142.0898 C   0  0  0  0  0  0  0  0  0  0  0  0
  -27.9733  -10.2989  142.1128 C   0  0  0  0  0  0  0  0  0  0  0  0
  -27.7074  -11.0068  143.3556 C   0  0  0  0  0  0  0  0  0  0  0  0
  -29.4086   -8.6828  140.8939 C   0  0  0  0  0  0  0  0  0  0  0  0
  -30.3382   -7.6099  140.8403 C   0  0  0  0  0  0  0  0  0  0  0  0
  -28.6058   -8.8870  139.7115 C   0  0  0  0  0  0  0  0  0  0  0  0
  -28.8027   -8.1462  138.5604 C   0  0  0  0  0  0  0  0  0  0  0  0
  -29.1291  -11.9469  146.5921 C   0  0  0  0  0  0  0  0  0  0  0  0
  -29.2321  -13.2359  147.1707 C   0  0  0  0  0  0  0  0  0  0  0  0
  -30.2786  -13.5298  148.0303 C   0  0  0  0  0  0  0  0  0  0  0  0
  -31.1098  -12.5009  148.4653 C   0  0  0  0  0  0  0  0  0  0  0  0
  -31.0664  -11.2489  147.8499 C   0  0  0  0  0  0  0  0  0  0  0  0
  -30.1063  -10.9774  147.0118 C   0  0  0  0  0  0  0  0  0  0  0  0
  -27.8820   -8.4203  137.4974 C   0  0  0  0  0  0  0  0  0  0  0  0
  -24.2234  -17.9193  148.3429 C   0  0  0  0  0  0  0  0  0  0  0  0
  -23.5935  -17.3197  149.5727 C   0  0  0  0  0  0  0  0  0  0  0  0
  -24.3860  -17.0187  150.7146 C   0  0  0  0  0  0  0  0  0  0  0  0
  -23.7771  -14.6886  143.8147 O   0  0  0  0  0  0  0  0  0  0  0  0
  -32.0642  -12.9625  149.5187 C   0  0  0  0  0  0  0  0  0  0  0  0
  -31.8005  -13.6213  150.4339 O   0  0  0  0  0  0  0  0  0  0  0  0
  -33.1811  -12.2150  149.5319 O   0  0  0  0  0  0  0  0  0  0  0  0
  3  4  1  0
  4  5  1  0
  4  9  1  0
  9 10  1  0
 10 11  2  3
 11 12  1  0
 15 18  1  0
 18 19  2  0
 18 20  1  0
 20 21  1  0
 11 22  1  0
 21 28  1  0
  7 29  1  0
 29 30  1  0
 30 31  2  0
  2 32  1  0
 25 33  1  0
 33 34  2  0
 33 35  1  0
 12 13  2  0
 13 14  1  0
 14 15  2  0
 15 16  1  0
 16 17  2  0
 17 12  1  0
 22 23  2  0
 23 24  1  0
 24 25  2  0
 25 26  1  0
 26 27  2  0
 27 22  1  0
  1  2  2  0
  2  3  1  0
  3  8  2  0
  8  7  1  0
  7  6  2  0
  6  1  1  0
M  END

$$$$
No_773-/dssg/home/sw_qyf/PocketFlow/Model-Generation-Results/5HT2A_7WC7_rec_A_10.pdb/2024-01-01-03-54-21/
     RDKit          3D

 24 26  0  0  0  0  0  0  0  0999 V2000
  -24.1553  -17.8465  145.7021 C   0  0  0  0  0  0  0  0  0  0  0  0
  -24.6364  -17.2931  146.7091 C   0  0  0  0  0  0  0  0  0  0  0  0
  -24.0780  -17.2921  147.9389 C   0  0  0  0  0  0  0  0  0  0  0  0
  -24.6761  -16.7363  149.1478 C   0  0  0  0  0  0  0  0  0  0  0  0
  -25.9496  -16.8732  149.0939 C   0  0  0  0  0  0  0  0  0  0  0  0
  -26.7116  -16.8461  147.9721 C   0  0  0  0  0  0  0  0  0  0  0  0
  -28.1308  -16.7067  147.8674 C   0  0  0  0  0  0  0  0  0  0  0  0
  -26.0896  -17.2213  146.7828 C   0  0  0  0  0  0  0  0  0  0  0  0
  -23.4204  -17.3228  144.7744 N   0  0  0  0  0  0  0  0  0  0  0  0
  -28.6115  -15.3112  147.7677 C   0  0  0  0  0  0  0  0  0  0  0  0
  -28.2401  -14.4245  146.8412 C   0  0  0  0  0  0  0  0  0  0  0  0
  -28.7107  -13.1964  146.8516 C   0  0  0  0  0  0  0  0  0  0  0  0
  -29.8749  -12.8043  147.6212 C   0  0  0  0  0  0  0  0  0  0  0  0
  -30.3644  -11.4215  147.5885 C   0  0  0  0  0  0  0  0  0  0  0  0
  -29.8340  -14.8977  148.5922 C   0  0  0  0  0  0  0  0  0  0  0  0
  -30.3882  -13.7010  148.5317 C   0  0  0  0  0  0  0  0  0  0  0  0
  -24.3616  -19.1558  145.3615 O   0  0  0  0  0  0  0  0  0  0  0  0
  -28.0928  -12.1570  145.9151 C   0  0  0  0  0  0  0  0  0  0  0  0
  -26.6963  -11.9548  145.9496 C   0  0  0  0  0  0  0  0  0  0  0  0
  -25.9487  -11.7303  145.0149 C   0  0  0  0  0  0  0  0  0  0  0  0
  -24.9645  -12.5951  144.7229 C   0  0  0  0  0  0  0  0  0  0  0  0
  -23.6689  -12.5998  145.5521 C   0  0  0  0  0  0  0  0  0  0  0  0
  -24.0244  -12.4746  146.9092 N   0  0  0  0  0  0  0  0  0  0  0  0
  -25.4750  -12.0330  147.2481 C   0  0  0  0  0  0  0  0  0  0  0  0
  1  2  1  0
  6  7  1  0
  1  9  1  0
  7 10  1  0
 13 14  1  0
  1 17  2  0
 12 18  1  0
 18 19  1  0
 10 11  2  0
 11 12  1  0
 12 13  2  0
 13 16  1  0
 16 15  2  0
 15 10  1  0
  2  3  2  0
  3  4  1  0
  4  5  2  0
  5  6  1  0
  6  8  2  0
  8  2  1  0
 19 20  2  0
 20 21  1  0
 21 22  2  0
 22 23  1  0
 23 24  2  0
 24 19  1  0
M  END

$$$$
No_774-/dssg/home/sw_qyf/PocketFlow/Model-Generation-Results/5HT2A_7WC7_rec_A_10.pdb/2024-01-01-03-54-21/
     RDKit          3D

 12 12  0  0  0  0  0  0  0  0999 V2000
  -23.1746  -16.6014  144.8668 C   0  0  0  0  0  0  0  0  0  0  0  0
  -24.0189  -16.0564  145.8445 C   0  0  0  0  0  0  0  0  0  0  0  0
  -24.4145  -16.8299  146.9062 C   0  0  0  0  0  0  0  0  0  0  0  0
  -23.9612  -18.1384  147.0126 C   0  0  0  0  0  0  0  0  0  0  0  0
  -23.1429  -18.6221  146.0418 C   0  0  0  0  0  0  0  0  0  0  0  0
  -22.8095  -17.8231  145.0610 N   0  0  0  0  0  0  0  0  0  0  0  0
  -24.6333  -14.6994  145.8683 C   0  0  0  0  0  0  0  0  0  0  0  0
  -23.7744  -13.6212  145.9934 C   0  0  0  0  0  0  0  0  0  0  0  0
  -25.9994  -14.4796  145.5846 C   0  0  0  0  0  0  0  0  0  0  0  0
  -26.9976  -15.2230  145.8046 C   0  0  0  0  0  0  0  0  0  0  0  0
  -23.9473  -12.5248  145.3444 C   0  0  0  0  0  0  0  0  0  0  0  0
  -25.3193  -12.0480  145.2389 C   0  0  0  0  0  0  0  0  0  0  0  0
  2  7  1  0
  7  8  1  0
  7  9  1  0
  9 10  2  0
  8 11  1  0
 11 12  1  0
  1  2  2  0
  2  3  1  0
  3  4  2  0
  4  5  1  0
  5  6  2  0
  6  1  1  0
M  END

$$$$
No_775-/dssg/home/sw_qyf/PocketFlow/Model-Generation-Results/5HT2A_7WC7_rec_A_10.pdb/2024-01-01-03-54-21/
     RDKit          3D

 16 17  0  0  0  0  0  0  0  0999 V2000
  -24.1553  -17.8465  145.7021 C   0  0  0  0  0  0  0  0  0  0  0  0
  -24.6364  -17.2931  146.7091 C   0  0  0  0  0  0  0  0  0  0  0  0
  -25.8608  -16.5592  146.5934 C   0  0  0  0  0  0  0  0  0  0  0  0
  -26.9933  -16.9082  147.1889 C   0  0  0  0  0  0  0  0  0  0  0  0
  -28.2350  -16.1839  146.8943 C   0  0  0  0  0  0  0  0  0  0  0  0
  -28.1591  -14.9305  146.2109 C   0  0  0  0  0  0  0  0  0  0  0  0
  -26.9098  -14.5235  145.6600 C   0  0  0  0  0  0  0  0  0  0  0  0
  -25.7460  -15.3614  145.8720 C   0  0  0  0  0  0  0  0  0  0  0  0
  -26.8049  -13.2839  144.9023 C   0  0  0  0  0  0  0  0  0  0  0  0
  -26.6641  -12.1105  145.5844 C   0  0  0  0  0  0  0  0  0  0  0  0
  -26.6477  -10.8667  145.0328 C   0  0  0  0  0  0  0  0  0  0  0  0
  -27.5062  -10.5161  143.9102 C   0  0  0  0  0  0  0  0  0  0  0  0
  -27.5725  -11.4793  142.9521 C   0  0  0  0  0  0  0  0  0  0  0  0
  -27.4635  -12.9466  143.4963 C   0  0  0  0  0  0  0  0  0  0  0  0
  -24.0086  -17.4629  148.0663 C   0  0  0  0  0  0  0  0  0  0  0  0
  -22.7612  -17.7253  148.1108 O   0  0  0  0  0  0  0  0  0  0  0  0
  1  2  1  0
  2  3  1  0
  7  9  1  0
  2 15  1  0
 15 16  2  0
  3  4  2  0
  4  5  1  0
  5  6  2  0
  6  7  1  0
  7  8  2  0
  8  3  1  0
  9 10  2  0
 10 11  1  0
 11 12  2  0
 12 13  1  0
 13 14  2  0
 14  9  1  0
M  END

$$$$
No_776-/dssg/home/sw_qyf/PocketFlow/Model-Generation-Results/5HT2A_7WC7_rec_A_10.pdb/2024-01-01-03-54-21/
     RDKit          3D

 11 10  0  0  0  0  0  0  0  0999 V2000
  -24.1553  -17.8465  145.7021 C   0  0  0  0  0  0  0  0  0  0  0  0
  -23.9795  -18.4462  146.7426 C   0  0  0  0  0  0  0  0  0  0  0  0
  -25.1196  -16.8106  145.6409 C   0  0  0  0  0  0  0  0  0  0  0  0
  -25.9236  -16.5070  146.7422 C   0  0  0  0  0  0  0  0  0  0  0  0
  -26.9588  -15.5563  146.6458 C   0  0  0  0  0  0  0  0  0  0  0  0
  -26.8348  -14.5437  145.7143 C   0  0  0  0  0  0  0  0  0  0  0  0
  -27.7742  -13.4711  145.6231 C   0  0  0  0  0  0  0  0  0  0  0  0
  -28.8736  -13.4357  146.5432 C   0  0  0  0  0  0  0  0  0  0  0  0
  -29.7111  -12.2748  146.5875 C   0  0  0  0  0  0  0  0  0  0  0  0
  -29.4442  -11.3248  145.6607 N   0  0  0  0  0  0  0  0  0  0  0  0
  -28.4065  -11.2584  144.8148 C   0  0  0  0  0  0  0  0  0  0  0  0
  1  2  2  0
  1  3  1  0
  3  4  1  0
  4  5  1  0
  5  6  1  0
  6  7  3  0
  7  8  1  0
  8  9  1  0
  9 10  1  0
 10 11  1  0
M  END

$$$$
No_777-/dssg/home/sw_qyf/PocketFlow/Model-Generation-Results/5HT2A_7WC7_rec_A_10.pdb/2024-01-01-03-54-21/
     RDKit          3D

 17 18  0  0  0  0  0  0  0  0999 V2000
  -23.1746  -16.6014  144.8668 C   0  0  0  0  0  0  0  0  0  0  0  0
  -24.0189  -16.0564  145.8445 C   0  0  0  0  0  0  0  0  0  0  0  0
  -24.4145  -16.8299  146.9062 C   0  0  0  0  0  0  0  0  0  0  0  0
  -25.2730  -16.2838  147.9150 C   0  0  0  0  0  0  0  0  0  0  0  0
  -25.7557  -17.0717  149.0071 C   0  0  0  0  0  0  0  0  0  0  0  0
  -24.4328  -14.6402  145.6929 C   0  0  0  0  0  0  0  0  0  0  0  0
  -23.6936  -13.7189  145.5404 C   0  0  0  0  0  0  0  0  0  0  0  0
  -24.0795  -12.3038  145.7604 C   0  0  0  0  0  0  0  0  0  0  0  0
  -25.4342  -12.0607  146.1390 C   0  0  0  0  0  0  0  0  0  0  0  0
  -26.3008  -13.1443  146.3912 C   0  0  0  0  0  0  0  0  0  0  0  0
  -25.8399  -14.4598  146.2393 C   0  0  0  0  0  0  0  0  0  0  0  0
  -26.7425  -15.4775  146.0685 C   0  0  0  0  0  0  0  0  0  0  0  0
  -26.5748  -16.4816  147.0920 C   0  0  0  0  0  0  0  0  0  0  0  0
  -27.5631  -17.4206  147.2812 C   0  0  0  0  0  0  0  0  0  0  0  0
  -25.8571  -10.7551  146.3038 N   0  0  0  0  0  0  0  0  0  0  0  0
  -26.9692  -17.2212  149.3487 O   0  0  0  0  0  0  0  0  0  0  0  0
  -28.5291  -17.3724  146.3774 O   0  0  0  0  0  0  0  0  0  0  0  0
  1  2  1  0
  2  3  1  0
  3  4  1  0
  4  5  2  0
  2  6  1  0
 11 12  1  0
  4 13  1  0
 12 13  1  0
 13 14  1  0
  9 15  1  0
  5 16  2  0
 14 17  1  0
  6  7  2  0
  7  8  1  0
  8  9  2  0
  9 10  1  0
 10 11  2  0
 11  6  1  0
M  END

$$$$
No_778-/dssg/home/sw_qyf/PocketFlow/Model-Generation-Results/5HT2A_7WC7_rec_A_10.pdb/2024-01-01-03-54-21/
     RDKit          3D

 28 29  0  0  0  0  0  0  0  0999 V2000
  -24.1553  -17.8465  145.7021 C   0  0  0  0  0  0  0  0  0  0  0  0
  -24.2856  -16.6364  145.3494 C   0  0  0  0  0  0  0  0  0  0  0  0
  -24.7211  -15.5955  146.2115 C   0  0  0  0  0  0  0  0  0  0  0  0
  -25.1322  -16.0374  147.5372 C   0  0  0  0  0  0  0  0  0  0  0  0
  -24.5141  -18.2630  147.0046 C   0  0  0  0  0  0  0  0  0  0  0  0
  -24.9573  -17.2963  147.9768 C   0  0  0  0  0  0  0  0  0  0  0  0
  -24.8747  -14.1906  145.7995 C   0  0  0  0  0  0  0  0  0  0  0  0
  -24.1209  -13.7374  144.8053 C   0  0  0  0  0  0  0  0  0  0  0  0
  -24.0893  -12.3099  144.6069 C   0  0  0  0  0  0  0  0  0  0  0  0
  -25.0323  -11.4988  145.3915 C   0  0  0  0  0  0  0  0  0  0  0  0
  -25.8646  -12.0538  146.3474 C   0  0  0  0  0  0  0  0  0  0  0  0
  -25.7181  -13.4288  146.6301 C   0  0  0  0  0  0  0  0  0  0  0  0
  -23.9669  -16.2380  144.1233 O   0  0  0  0  0  0  0  0  0  0  0  0
  -25.3907  -17.6211  149.1626 O   0  0  0  0  0  0  0  0  0  0  0  0
  -25.4175  -17.0474  150.3478 C   0  0  0  0  0  0  0  0  0  0  0  0
  -24.0381  -16.6815  150.7246 C   0  0  0  0  0  0  0  0  0  0  0  0
  -22.9672  -16.9973  149.8875 C   0  0  0  0  0  0  0  0  0  0  0  0
  -21.8100  -16.4441  150.3341 O   0  0  0  0  0  0  0  0  0  0  0  0
  -23.7497  -18.8229  144.9189 O   0  0  0  0  0  0  0  0  0  0  0  0
  -26.4656  -11.2620  147.1916 O   0  0  0  0  0  0  0  0  0  0  0  0
  -23.7834  -17.4805  152.0102 O   0  0  0  0  0  0  0  0  0  0  0  0
  -27.7011  -11.0530  146.6346 C   0  0  0  0  0  0  0  0  0  0  0  0
  -28.7717  -11.9321  147.0643 C   0  0  0  0  0  0  0  0  0  0  0  0
  -30.0526  -11.7712  146.6420 C   0  0  0  0  0  0  0  0  0  0  0  0
  -30.9371  -12.4459  147.3505 F   0  0  0  0  0  0  0  0  0  0  0  0
  -30.4222  -10.3789  146.8078 F   0  0  0  0  0  0  0  0  0  0  0  0
  -30.1648  -12.0132  145.3836 F   0  0  0  0  0  0  0  0  0  0  0  0
  -28.6808  -11.8036  148.5759 F   0  0  0  0  0  0  0  0  0  0  0  0
  3  7  1  0
  2 13  1  0
  6 14  1  0
 14 15  1  0
 15 16  1  0
 16 17  1  0
 17 18  1  0
  1 19  1  0
 11 20  1  0
 16 21  1  0
 20 22  1  0
 22 23  2  3
 23 24  1  0
 24 25  1  0
 24 26  1  0
 24 27  1  0
 23 28  1  0
  1  2  2  0
  2  3  1  0
  3  4  2  0
  4  6  1  0
  6  5  2  0
  5  1  1  0
  7  8  2  0
  8  9  1  0
  9 10  2  0
 10 11  1  0
 11 12  2  0
 12  7  1  0
M  END

$$$$
No_779-/dssg/home/sw_qyf/PocketFlow/Model-Generation-Results/5HT2A_7WC7_rec_A_10.pdb/2024-01-01-03-54-21/
     RDKit          3D

 26 26  0  0  0  0  0  0  0  0999 V2000
  -23.1746  -16.6014  144.8668 C   0  0  0  0  0  0  0  0  0  0  0  0
  -23.8963  -15.5346  144.7885 C   0  0  0  0  0  0  0  0  0  0  0  0
  -23.6398  -14.5115  145.3281 C   0  0  0  0  0  0  0  0  0  0  0  0
  -24.4028  -13.2284  145.0157 C   0  0  0  0  0  0  0  0  0  0  0  0
  -23.8195  -12.0541  145.5896 C   0  0  0  0  0  0  0  0  0  0  0  0
  -25.7577  -13.3836  145.4533 O   0  0  0  0  0  0  0  0  0  0  0  0
  -26.5981  -12.5437  145.2054 C   0  0  0  0  0  0  0  0  0  0  0  0
  -26.4295  -11.4785  144.6392 C   0  0  0  0  0  0  0  0  0  0  0  0
  -27.4685  -10.4161  144.6013 C   0  0  0  0  0  0  0  0  0  0  0  0
  -28.7885  -10.8282  144.9623 C   0  0  0  0  0  0  0  0  0  0  0  0
  -29.0008  -11.9995  145.7125 C   0  0  0  0  0  0  0  0  0  0  0  0
  -27.9329  -12.8648  145.8435 C   0  0  0  0  0  0  0  0  0  0  0  0
  -29.9542   -9.8542  144.8687 C   0  0  0  0  0  0  0  0  0  0  0  0
  -30.2837   -9.4927  143.5179 C   0  0  0  0  0  0  0  0  0  0  0  0
  -31.2995   -8.5365  143.3783 C   0  0  0  0  0  0  0  0  0  0  0  0
  -32.0616   -8.4768  142.3207 O   0  0  0  0  0  0  0  0  0  0  0  0
  -23.6618  -17.8430  144.8676 C   0  0  0  0  0  0  0  0  0  0  0  0
  -24.7335  -18.0040  145.9697 C   0  0  0  0  0  0  0  0  0  0  0  0
  -24.4329  -18.6719  147.1281 C   0  0  0  0  0  0  0  0  0  0  0  0
  -28.0930  -14.0731  146.3532 F   0  0  0  0  0  0  0  0  0  0  0  0
  -29.9124  -10.1315  142.4924 O   0  0  0  0  0  0  0  0  0  0  0  0
  -26.0113  -17.3958  145.8879 C   0  0  0  0  0  0  0  0  0  0  0  0
  -30.1576  -12.3319  146.2078 O   0  0  0  0  0  0  0  0  0  0  0  0
  -22.5119  -11.7070  144.9289 C   0  0  0  0  0  0  0  0  0  0  0  0
  -26.8830  -17.1996  146.9798 C   0  0  0  0  0  0  0  0  0  0  0  0
  -27.1022  -16.0197  147.4878 C   0  0  0  0  0  0  0  0  0  0  0  0
  1  2  1  0
  2  3  1  0
  3  4  1  0
  4  5  1  0
  4  6  1  0
  6  7  1  0
 10 13  1  0
 13 14  1  0
 14 15  1  0
 15 16  1  0
  1 17  2  3
 17 18  1  0
 18 19  2  0
 12 20  1  0
 14 21  2  0
 18 22  1  0
 11 23  1  0
  5 24  1  0
 22 25  2  3
 25 26  1  0
  7  8  2  0
  8  9  1  0
  9 10  2  0
 10 11  1  0
 11 12  2  0
 12  7  1  0
M  END

$$$$
No_780-/dssg/home/sw_qyf/PocketFlow/Model-Generation-Results/5HT2A_7WC7_rec_A_10.pdb/2024-01-01-03-54-21/
     RDKit          3D

 34 36  0  0  0  0  0  0  0  0999 V2000
  -23.1746  -16.6014  144.8668 C   0  0  0  0  0  0  0  0  0  0  0  0
  -23.8963  -15.5346  144.7885 C   0  0  0  0  0  0  0  0  0  0  0  0
  -23.6398  -14.5115  145.3281 C   0  0  0  0  0  0  0  0  0  0  0  0
  -24.3866  -13.2477  145.3906 C   0  0  0  0  0  0  0  0  0  0  0  0
  -25.6595  -13.1543  144.8974 C   0  0  0  0  0  0  0  0  0  0  0  0
  -26.0749  -14.4053  144.2108 C   0  0  0  0  0  0  0  0  0  0  0  0
  -25.2883  -15.4926  144.1868 C   0  0  0  0  0  0  0  0  0  0  0  0
  -26.4783  -11.9848  144.9263 C   0  0  0  0  0  0  0  0  0  0  0  0
  -26.1606  -10.9802  145.7241 C   0  0  0  0  0  0  0  0  0  0  0  0
  -27.5589  -11.8100  144.0580 C   0  0  0  0  0  0  0  0  0  0  0  0
  -28.4605  -10.7199  144.1194 C   0  0  0  0  0  0  0  0  0  0  0  0
  -29.2807  -10.2791  143.3292 C   0  0  0  0  0  0  0  0  0  0  0  0
  -29.2509  -10.6717  141.9934 C   0  0  0  0  0  0  0  0  0  0  0  0
  -28.2006  -10.6962  141.3829 C   0  0  0  0  0  0  0  0  0  0  0  0
  -27.6816  -12.0709  141.0831 C   0  0  0  0  0  0  0  0  0  0  0  0
  -26.9088  -12.2554  139.8869 C   0  0  0  0  0  0  0  0  0  0  0  0
  -26.5311  -11.0604  139.2042 C   0  0  0  0  0  0  0  0  0  0  0  0
  -27.1976   -9.8054  139.5292 C   0  0  0  0  0  0  0  0  0  0  0  0
  -27.9688   -9.6963  140.6721 C   0  0  0  0  0  0  0  0  0  0  0  0
  -30.2632   -9.1614  143.7648 C   0  0  0  0  0  0  0  0  0  0  0  0
  -30.6851   -9.5136  144.9155 F   0  0  0  0  0  0  0  0  0  0  0  0
  -29.5241   -7.9935  143.9996 F   0  0  0  0  0  0  0  0  0  0  0  0
  -31.1013   -8.7673  142.7914 F   0  0  0  0  0  0  0  0  0  0  0  0
  -22.3814  -16.7143  145.5594 F   0  0  0  0  0  0  0  0  0  0  0  0
  -24.1760  -17.7164  144.9464 F   0  0  0  0  0  0  0  0  0  0  0  0
  -25.8241  -13.1146  140.0044 O   0  0  0  0  0  0  0  0  0  0  0  0
  -27.0839   -8.7816  138.6985 O   0  0  0  0  0  0  0  0  0  0  0  0
  -28.2393   -8.0714  138.4231 C   0  0  0  0  0  0  0  0  0  0  0  0
  -29.3651   -8.1173  139.3470 C   0  0  0  0  0  0  0  0  0  0  0  0
  -29.1858   -8.9693  140.5531 C   0  0  0  0  0  0  0  0  0  0  0  0
  -28.3245   -7.5861  137.2638 O   0  0  0  0  0  0  0  0  0  0  0  0
  -30.3531   -7.3464  139.1406 O   0  0  0  0  0  0  0  0  0  0  0  0
  -24.8934  -10.9656  145.8398 F   0  0  0  0  0  0  0  0  0  0  0  0
  -26.5153   -9.8248  145.2977 F   0  0  0  0  0  0  0  0  0  0  0  0
  1  2  1  0
  5  8  1  0
  8  9  2  3
  8 10  1  0
 10 11  1  0
 11 12  1  0
 12 13  2  3
 13 14  1  0
 14 15  1  0
 15 16  1  0
 16 17  1  0
 17 18  1  0
 14 19  1  0
 18 19  1  0
 12 20  1  0
 20 21  1  0
 20 22  1  0
 20 23  1  0
  1 24  1  0
  1 25  1  0
 16 26  1  0
 18 27  1  0
 27 28  1  0
 28 29  1  0
 19 30  1  0
 29 30  2  0
 28 31  2  0
 29 32  1  0
  9 33  1  0
  9 34  1  0
  2  3  2  0
  3  4  1  0
  4  5  2  0
  5  6  1  0
  6  7  2  0
  7  2  1  0
M  END

$$$$
No_781-/dssg/home/sw_qyf/PocketFlow/Model-Generation-Results/5HT2A_7WC7_rec_A_10.pdb/2024-01-01-03-54-21/
     RDKit          3D

 35 39  0  0  0  0  0  0  0  0999 V2000
  -24.1553  -17.8465  145.7021 C   0  0  0  0  0  0  0  0  0  0  0  0
  -23.9795  -18.4462  146.7426 C   0  0  0  0  0  0  0  0  0  0  0  0
  -25.1196  -16.8105  145.6408 C   0  0  0  0  0  0  0  0  0  0  0  0
  -25.2440  -15.8776  144.5240 C   0  0  0  0  0  0  0  0  0  0  0  0
  -25.1544  -14.5048  144.8371 C   0  0  0  0  0  0  0  0  0  0  0  0
  -24.3153  -13.6969  144.0900 C   0  0  0  0  0  0  0  0  0  0  0  0
  -23.0459  -13.3974  144.9701 C   0  0  0  0  0  0  0  0  0  0  0  0
  -24.0242  -17.7547  147.9286 C   0  0  0  0  0  0  0  0  0  0  0  0
  -23.5247  -18.1475  149.2348 C   0  0  0  0  0  0  0  0  0  0  0  0
  -22.3737  -12.2417  144.2330 C   0  0  0  0  0  0  0  0  0  0  0  0
  -23.7112  -17.1891  150.3781 C   0  0  0  0  0  0  0  0  0  0  0  0
  -24.7147  -16.3777  147.7555 C   0  0  0  0  0  0  0  0  0  0  0  0
  -25.0076  -15.7958  146.6786 C   0  0  0  0  0  0  0  0  0  0  0  0
  -25.2211  -14.4768  146.2899 C   0  0  0  0  0  0  0  0  0  0  0  0
  -26.6952  -13.9667  144.5447 C   0  0  0  0  0  0  0  0  0  0  0  0
  -26.8430  -12.4943  144.6479 C   0  0  0  0  0  0  0  0  0  0  0  0
  -27.4101  -12.1410  145.8887 C   0  0  0  0  0  0  0  0  0  0  0  0
  -28.4761  -11.1028  145.8625 C   0  0  0  0  0  0  0  0  0  0  0  0
  -28.6678  -10.4152  144.6649 C   0  0  0  0  0  0  0  0  0  0  0  0
  -29.6407   -9.4162  144.5444 C   0  0  0  0  0  0  0  0  0  0  0  0
  -29.9004   -8.7793  143.3615 C   0  0  0  0  0  0  0  0  0  0  0  0
  -30.7478   -7.6542  143.2849 C   0  0  0  0  0  0  0  0  0  0  0  0
  -29.2481   -9.2568  142.1883 C   0  0  0  0  0  0  0  0  0  0  0  0
  -28.3877  -10.3884  142.2089 C   0  0  0  0  0  0  0  0  0  0  0  0
  -27.8756  -10.9063  141.0604 C   0  0  0  0  0  0  0  0  0  0  0  0
  -28.1918  -10.9640  143.4768 C   0  0  0  0  0  0  0  0  0  0  0  0
  -27.9541  -12.3305  140.8066 C   0  0  0  0  0  0  0  0  0  0  0  0
  -27.4596  -12.8254  139.5352 C   0  0  0  0  0  0  0  0  0  0  0  0
  -27.0302  -11.7681  138.5888 C   0  0  0  0  0  0  0  0  0  0  0  0
  -27.3681  -10.1210  139.9897 C   0  0  0  0  0  0  0  0  0  0  0  0
  -26.9268  -10.5699  138.8964 N   0  0  0  0  0  0  0  0  0  0  0  0
  -26.7961  -11.7319  143.6849 O   0  0  0  0  0  0  0  0  0  0  0  0
  -30.8647   -6.8395  144.0688 F   0  0  0  0  0  0  0  0  0  0  0  0
  -30.4453   -6.9674  142.1176 F   0  0  0  0  0  0  0  0  0  0  0  0
  -32.0584   -8.1830  142.9182 F   0  0  0  0  0  0  0  0  0  0  0  0
  1  2  2  0
  1  3  1  0
  3  4  1  0
  4  5  1  0
  5  6  1  0
  6  7  1  0
  2  8  1  0
  8  9  1  0
  7 10  1  0
  9 11  2  0
  8 12  1  0
  3 13  1  0
 12 13  1  0
  5 14  1  0
 13 14  1  0
  5 15  1  0
 15 16  1  0
 16 17  1  0
 17 18  1  0
 18 19  2  0
 19 20  1  0
 20 21  2  0
 21 22  1  0
 21 23  1  0
 23 24  2  0
 24 25  1  0
 19 26  1  0
 24 26  1  0
 25 27  1  0
 27 28  2  0
 28 29  1  0
 25 30  1  0
 29 31  1  0
 30 31  1  0
 16 32  1  0
 26 32  1  0
 22 33  1  0
 22 34  1  0
 22 35  1  0
M  END

$$$$
No_782-/dssg/home/sw_qyf/PocketFlow/Model-Generation-Results/5HT2A_7WC7_rec_A_10.pdb/2024-01-01-03-54-21/
     RDKit          3D

 24 26  0  0  0  0  0  0  0  0999 V2000
  -23.1746  -16.6014  144.8668 C   0  0  0  0  0  0  0  0  0  0  0  0
  -24.0189  -16.0564  145.8445 C   0  0  0  0  0  0  0  0  0  0  0  0
  -24.4145  -16.8299  146.9062 C   0  0  0  0  0  0  0  0  0  0  0  0
  -23.8925  -17.9780  147.0944 C   0  0  0  0  0  0  0  0  0  0  0  0
  -23.0516  -18.5662  146.1819 C   0  0  0  0  0  0  0  0  0  0  0  0
  -22.7171  -17.7851  145.1421 N   0  0  0  0  0  0  0  0  0  0  0  0
  -24.6209  -14.6613  145.5749 C   0  0  0  0  0  0  0  0  0  0  0  0
  -23.7394  -13.6750  145.6944 C   0  0  0  0  0  0  0  0  0  0  0  0
  -24.1852  -12.2546  145.5085 C   0  0  0  0  0  0  0  0  0  0  0  0
  -25.5506  -11.9381  145.4904 C   0  0  0  0  0  0  0  0  0  0  0  0
  -26.4711  -13.0053  145.5189 C   0  0  0  0  0  0  0  0  0  0  0  0
  -26.0403  -14.3784  145.6033 C   0  0  0  0  0  0  0  0  0  0  0  0
  -27.9205  -12.6538  145.5363 C   0  0  0  0  0  0  0  0  0  0  0  0
  -28.7433  -13.0507  146.5862 C   0  0  0  0  0  0  0  0  0  0  0  0
  -28.7991  -14.0860  147.3962 C   0  0  0  0  0  0  0  0  0  0  0  0
  -29.8227  -14.2979  148.3747 C   0  0  0  0  0  0  0  0  0  0  0  0
  -30.7147  -13.2233  148.6280 C   0  0  0  0  0  0  0  0  0  0  0  0
  -30.6249  -12.0358  147.8998 C   0  0  0  0  0  0  0  0  0  0  0  0
  -29.7009  -11.8580  146.9103 C   0  0  0  0  0  0  0  0  0  0  0  0
  -29.6908  -10.7879  146.1772 O   0  0  0  0  0  0  0  0  0  0  0  0
  -28.3204  -12.2587  144.4048 O   0  0  0  0  0  0  0  0  0  0  0  0
  -25.9252  -10.6957  145.4546 O   0  0  0  0  0  0  0  0  0  0  0  0
  -22.8564  -15.9756  143.8655 O   0  0  0  0  0  0  0  0  0  0  0  0
  -31.9617  -13.4876  150.0458 Br  0  0  0  0  0  0  0  0  0  0  0  0
  1  2  1  0
  2  3  1  0
  4  5  1  0
  1  6  1  0
  2  7  1  0
 11 13  1  0
 13 14  1  0
 19 20  1  0
 13 21  2  0
 10 22  1  0
  1 23  2  0
 17 24  1  0
  3  4  1  0
  5  6  1  0
 14 15  2  0
 15 16  1  0
 16 17  2  0
 17 18  1  0
 18 19  2  0
 19 14  1  0
  7  8  2  0
  8  9  1  0
  9 10  2  0
 10 11  1  0
 11 12  2  0
 12  7  1  0
M  END

$$$$
No_783-/dssg/home/sw_qyf/PocketFlow/Model-Generation-Results/5HT2A_7WC7_rec_A_10.pdb/2024-01-01-03-54-21/
     RDKit          3D

 12 13  0  0  0  0  0  0  0  0999 V2000
  -24.1553  -17.8465  145.7021 C   0  0  0  0  0  0  0  0  0  0  0  0
  -24.2856  -16.6364  145.3494 C   0  0  0  0  0  0  0  0  0  0  0  0
  -25.0033  -15.6772  146.0737 C   0  0  0  0  0  0  0  0  0  0  0  0
  -25.1197  -14.2835  145.7299 C   0  0  0  0  0  0  0  0  0  0  0  0
  -25.8358  -13.3153  146.4318 C   0  0  0  0  0  0  0  0  0  0  0  0
  -24.7888  -18.3277  146.8665 C   0  0  0  0  0  0  0  0  0  0  0  0
  -25.5122  -17.4898  147.6544 C   0  0  0  0  0  0  0  0  0  0  0  0
  -25.6629  -16.1113  147.2980 C   0  0  0  0  0  0  0  0  0  0  0  0
  -25.7516  -11.9698  146.1143 C   0  0  0  0  0  0  0  0  0  0  0  0
  -24.9390  -11.5123  145.0695 C   0  0  0  0  0  0  0  0  0  0  0  0
  -24.2364  -13.7834  144.6404 C   0  0  0  0  0  0  0  0  0  0  0  0
  -24.0902  -12.4021  144.4892 N   0  0  0  0  0  0  0  0  0  0  0  0
  3  4  1  0
  1  2  2  0
  2  3  1  0
  3  8  2  0
  8  7  1  0
  7  6  2  0
  6  1  1  0
  4  5  2  0
  5  9  1  0
  9 10  2  0
 10 12  1  0
 12 11  2  0
 11  4  1  0
M  END

$$$$
No_784-/dssg/home/sw_qyf/PocketFlow/Model-Generation-Results/5HT2A_7WC7_rec_A_10.pdb/2024-01-01-03-54-21/
     RDKit          3D

 25 28  0  0  0  0  0  0  0  0999 V2000
  -23.1746  -16.6014  144.8668 C   0  0  0  0  0  0  0  0  0  0  0  0
  -23.7011  -17.0158  145.9774 C   0  0  0  0  0  0  0  0  0  0  0  0
  -24.2134  -16.0722  146.8877 C   0  0  0  0  0  0  0  0  0  0  0  0
  -23.3742  -15.2706  144.3922 C   0  0  0  0  0  0  0  0  0  0  0  0
  -22.9708  -14.7021  143.2069 C   0  0  0  0  0  0  0  0  0  0  0  0
  -24.5129  -14.7208  146.5242 C   0  0  0  0  0  0  0  0  0  0  0  0
  -23.9679  -14.3045  145.3434 C   0  0  0  0  0  0  0  0  0  0  0  0
  -23.6746  -18.2701  146.5785 N   0  0  0  0  0  0  0  0  0  0  0  0
  -23.1765  -19.2292  146.0883 C   0  0  0  0  0  0  0  0  0  0  0  0
  -24.3104  -18.4708  147.8690 C   0  0  0  0  0  0  0  0  0  0  0  0
  -24.4277  -17.0349  148.3656 C   0  0  0  0  0  0  0  0  0  0  0  0
  -23.2311  -13.4716  142.9743 O   0  0  0  0  0  0  0  0  0  0  0  0
  -21.8581  -15.3085  142.7556 O   0  0  0  0  0  0  0  0  0  0  0  0
  -23.4538  -16.5327  149.2094 O   0  0  0  0  0  0  0  0  0  0  0  0
  -23.1501  -17.3673  150.2945 C   0  0  0  0  0  0  0  0  0  0  0  0
  -22.4179  -16.5045  151.3351 C   0  0  0  0  0  0  0  0  0  0  0  0
  -21.0813  -16.9467  151.4638 O   0  0  0  0  0  0  0  0  0  0  0  0
  -25.8452  -16.5898  148.8123 C   0  0  0  0  0  0  0  0  0  0  0  0
  -26.7402  -16.1804  147.8233 C   0  0  0  0  0  0  0  0  0  0  0  0
  -28.0794  -16.7787  147.7029 C   0  0  0  0  0  0  0  0  0  0  0  0
  -28.8628  -16.2558  146.6860 C   0  0  0  0  0  0  0  0  0  0  0  0
  -28.4417  -15.0103  146.0472 C   0  0  0  0  0  0  0  0  0  0  0  0
  -27.1522  -14.4652  146.1635 C   0  0  0  0  0  0  0  0  0  0  0  0
  -26.3705  -15.0330  147.1777 C   0  0  0  0  0  0  0  0  0  0  0  0
  -24.9799  -14.6412  147.3796 N   0  0  0  0  0  0  0  0  0  0  0  0
  4  5  1  0
  2  8  1  0
  8  9  1  0
  8 10  1  0
  3 11  1  0
 10 11  1  0
  5 12  1  0
  5 13  2  0
 11 14  1  0
 14 15  1  0
 15 16  1  0
 16 17  1  0
 11 18  1  0
 18 19  1  0
  6 25  1  0
 24 25  1  0
  1  2  2  0
  2  3  1  0
  3  6  2  0
  6  7  1  0
  7  4  2  0
  4  1  1  0
 19 20  2  0
 20 21  1  0
 21 22  2  0
 22 23  1  0
 23 24  2  0
 24 19  1  0
M  END

$$$$
No_785-/dssg/home/sw_qyf/PocketFlow/Model-Generation-Results/5HT2A_7WC7_rec_A_10.pdb/2024-01-01-03-54-21/
     RDKit          3D

 16 18  0  0  0  0  0  0  0  0999 V2000
  -24.1553  -17.8465  145.7021 C   0  0  0  0  0  0  0  0  0  0  0  0
  -24.2855  -16.6364  145.3494 C   0  0  0  0  0  0  0  0  0  0  0  0
  -24.7211  -15.5955  146.2116 C   0  0  0  0  0  0  0  0  0  0  0  0
  -25.1321  -16.0374  147.5372 C   0  0  0  0  0  0  0  0  0  0  0  0
  -24.5163  -18.2968  146.9928 C   0  0  0  0  0  0  0  0  0  0  0  0
  -24.9534  -17.3074  147.9886 C   0  0  0  0  0  0  0  0  0  0  0  0
  -24.8610  -14.1860  145.8125 C   0  0  0  0  0  0  0  0  0  0  0  0
  -25.5066  -13.2609  146.5301 C   0  0  0  0  0  0  0  0  0  0  0  0
  -25.4863  -11.9400  146.1792 C   0  0  0  0  0  0  0  0  0  0  0  0
  -24.1705  -13.7730  144.6505 C   0  0  0  0  0  0  0  0  0  0  0  0
  -23.4748  -14.6016  143.8674 N   0  0  0  0  0  0  0  0  0  0  0  0
  -24.8268  -11.4936  145.0160 C   0  0  0  0  0  0  0  0  0  0  0  0
  -24.0867  -12.4178  144.3050 C   0  0  0  0  0  0  0  0  0  0  0  0
  -23.4996  -15.9769  144.2437 C   0  0  0  0  0  0  0  0  0  0  0  0
  -26.1997  -10.9942  146.8617 F   0  0  0  0  0  0  0  0  0  0  0  0
  -23.7603  -18.8279  144.9124 O   0  0  0  0  0  0  0  0  0  0  0  0
  3  7  1  0
 10 11  1  0
  2 14  1  0
 11 14  1  0
  9 15  1  0
  1 16  1  0
  7  8  2  0
  8  9  1  0
  9 12  2  0
 12 13  1  0
 13 10  2  0
 10  7  1  0
  1  2  2  0
  2  3  1  0
  3  4  2  0
  4  6  1  0
  6  5  2  0
  5  1  1  0
M  END

$$$$
No_786-/dssg/home/sw_qyf/PocketFlow/Model-Generation-Results/5HT2A_7WC7_rec_A_10.pdb/2024-01-01-03-54-21/
     RDKit          3D

 35 39  0  0  0  0  0  0  0  0999 V2000
  -24.1553  -17.8465  145.7021 C   0  0  0  0  0  0  0  0  0  0  0  0
  -24.6364  -17.2931  146.7091 C   0  0  0  0  0  0  0  0  0  0  0  0
  -24.5709  -15.9334  146.8074 C   0  0  0  0  0  0  0  0  0  0  0  0
  -24.3883  -15.1807  145.6115 C   0  0  0  0  0  0  0  0  0  0  0  0
  -25.0872  -14.4395  145.1343 C   0  0  0  0  0  0  0  0  0  0  0  0
  -26.2530  -13.8697  145.6753 C   0  0  0  0  0  0  0  0  0  0  0  0
  -23.6521  -17.1779  144.5666 C   0  0  0  0  0  0  0  0  0  0  0  0
  -23.9819  -15.8293  144.4972 C   0  0  0  0  0  0  0  0  0  0  0  0
  -26.8657  -12.7250  145.1794 C   0  0  0  0  0  0  0  0  0  0  0  0
  -27.3383  -11.6810  145.9130 C   0  0  0  0  0  0  0  0  0  0  0  0
  -27.7323  -10.4722  145.3307 C   0  0  0  0  0  0  0  0  0  0  0  0
  -27.9311  -10.3523  143.9381 C   0  0  0  0  0  0  0  0  0  0  0  0
  -28.5399   -9.2624  143.3923 C   0  0  0  0  0  0  0  0  0  0  0  0
  -29.0287   -9.3114  142.0557 C   0  0  0  0  0  0  0  0  0  0  0  0
  -28.4176  -10.2619  141.2169 C   0  0  0  0  0  0  0  0  0  0  0  0
  -27.8967  -11.4700  141.8209 C   0  0  0  0  0  0  0  0  0  0  0  0
  -27.5752  -11.4507  143.2022 C   0  0  0  0  0  0  0  0  0  0  0  0
  -27.0265  -12.6099  143.7530 C   0  0  0  0  0  0  0  0  0  0  0  0
  -29.9341   -8.3461  141.5280 C   0  0  0  0  0  0  0  0  0  0  0  0
  -31.0960   -7.9499  142.2656 C   0  0  0  0  0  0  0  0  0  0  0  0
  -32.0947   -8.8573  142.2129 O   0  0  0  0  0  0  0  0  0  0  0  0
  -27.5010  -12.5378  140.9127 C   0  0  0  0  0  0  0  0  0  0  0  0
  -26.9354  -13.5638  141.3811 O   0  0  0  0  0  0  0  0  0  0  0  0
  -27.4803  -12.2958  139.6517 N   0  0  0  0  0  0  0  0  0  0  0  0
  -23.8887  -19.2590  145.6715 N   0  0  0  0  0  0  0  0  0  0  0  0
  -29.7234   -7.5631  140.3185 C   0  0  0  0  0  0  0  0  0  0  0  0
  -28.2010  -11.4815  138.8631 C   0  0  0  0  0  0  0  0  0  0  0  0
  -27.6666  -10.1294  138.7518 C   0  0  0  0  0  0  0  0  0  0  0  0
  -28.0460   -9.3850  140.0279 C   0  0  0  0  0  0  0  0  0  0  0  0
  -28.9910   -8.3661  139.3510 C   0  0  0  0  0  0  0  0  0  0  0  0
  -28.8863   -7.9242  138.2684 F   0  0  0  0  0  0  0  0  0  0  0  0
  -24.6960  -13.5617  143.9924 O   0  0  0  0  0  0  0  0  0  0  0  0
  -31.1933   -6.9741  143.0671 O   0  0  0  0  0  0  0  0  0  0  0  0
  -24.7401  -18.0555  147.9377 N   0  0  0  0  0  0  0  0  0  0  0  0
  -24.5663  -17.3309  149.2221 C   0  0  0  0  0  0  0  0  0  0  0  0
  5  6  1  0
  6  9  2  3
  9 10  1  0
 10 11  1  0
 11 12  1  0
  9 18  1  0
 17 18  1  0
 14 19  1  0
 19 20  1  0
 20 21  1  0
 16 22  1  0
 22 23  2  0
 22 24  1  0
  1 25  1  0
 19 26  1  0
 24 27  1  0
 27 28  1  0
 15 29  1  0
 28 29  2  0
 26 30  1  0
 29 30  1  0
 30 31  1  0
  5 32  1  0
 20 33  2  0
  2 34  1  0
 34 35  1  0
  5  4  1  0
 12 13  2  0
 13 14  1  0
 14 15  2  0
 15 16  1  0
 16 17  2  0
 17 12  1  0
  1  2  2  0
  2  3  1  0
  3  4  2  0
  4  8  1  0
  8  7  2  0
  7  1  1  0
M  END

$$$$
No_787-/dssg/home/sw_qyf/PocketFlow/Model-Generation-Results/5HT2A_7WC7_rec_A_10.pdb/2024-01-01-03-54-21/
     RDKit          3D

 21 22  0  0  0  0  0  0  0  0999 V2000
  -23.1746  -16.6014  144.8668 C   0  0  0  0  0  0  0  0  0  0  0  0
  -23.8963  -15.5346  144.7885 C   0  0  0  0  0  0  0  0  0  0  0  0
  -24.5755  -15.0383  145.9043 C   0  0  0  0  0  0  0  0  0  0  0  0
  -24.6688  -15.8869  147.0363 C   0  0  0  0  0  0  0  0  0  0  0  0
  -24.0226  -17.0824  147.0622 C   0  0  0  0  0  0  0  0  0  0  0  0
  -23.2575  -17.4593  145.9560 C   0  0  0  0  0  0  0  0  0  0  0  0
  -25.3126  -13.7148  145.9424 C   0  0  0  0  0  0  0  0  0  0  0  0
  -24.4111  -12.6403  146.0908 C   0  0  0  0  0  0  0  0  0  0  0  0
  -26.6139  -13.5697  145.7132 C   0  0  0  0  0  0  0  0  0  0  0  0
  -27.2404  -12.2819  145.7559 C   0  0  0  0  0  0  0  0  0  0  0  0
  -26.3887  -11.1874  145.8661 C   0  0  0  0  0  0  0  0  0  0  0  0
  -24.9904  -11.3858  146.1654 C   0  0  0  0  0  0  0  0  0  0  0  0
  -28.6437  -12.0250  145.5935 C   0  0  0  0  0  0  0  0  0  0  0  0
  -29.3741  -11.0909  146.1696 N   0  0  0  0  0  0  0  0  0  0  0  0
  -30.5628  -10.7096  145.7989 C   0  0  0  0  0  0  0  0  0  0  0  0
  -24.0162  -17.9164  148.3118 C   0  0  0  0  0  0  0  0  0  0  0  0
  -25.1918  -17.6112  149.1614 C   0  0  0  0  0  0  0  0  0  0  0  0
  -24.9991  -17.5636  150.6106 C   0  0  0  0  0  0  0  0  0  0  0  0
  -30.6211   -9.8460  144.2298 Cl  0  0  0  0  0  0  0  0  0  0  0  0
  -23.8666  -14.6917  143.7520 O   0  0  0  0  0  0  0  0  0  0  0  0
  -23.7610  -16.9157  150.9993 C   0  0  0  0  0  0  0  0  0  0  0  0
  3  7  1  0
 10 13  1  0
 13 14  1  0
 14 15  2  3
  5 16  1  0
 16 17  1  0
 17 18  1  0
 15 19  1  0
  2 20  1  0
 18 21  1  0
  1  2  2  0
  2  3  1  0
  3  4  2  0
  4  5  1  0
  5  6  2  0
  6  1  1  0
  7  8  2  0
  8 12  1  0
 12 11  2  0
 11 10  1  0
 10  9  2  0
  9  7  1  0
M  END

$$$$
No_788-/dssg/home/sw_qyf/PocketFlow/Model-Generation-Results/5HT2A_7WC7_rec_A_10.pdb/2024-01-01-03-54-21/
     RDKit          3D

 19 20  0  0  0  0  0  0  0  0999 V2000
  -24.1553  -17.8465  145.7021 C   0  0  0  0  0  0  0  0  0  0  0  0
  -24.6364  -17.2931  146.7091 C   0  0  0  0  0  0  0  0  0  0  0  0
  -25.8608  -16.5592  146.5934 C   0  0  0  0  0  0  0  0  0  0  0  0
  -26.8606  -16.6119  147.5579 C   0  0  0  0  0  0  0  0  0  0  0  0
  -26.4243  -16.9031  148.9136 C   0  0  0  0  0  0  0  0  0  0  0  0
  -25.0993  -17.2997  149.1813 C   0  0  0  0  0  0  0  0  0  0  0  0
  -24.2202  -17.5233  148.1063 C   0  0  0  0  0  0  0  0  0  0  0  0
  -23.8395  -16.9432  144.6706 N   0  0  0  0  0  0  0  0  0  0  0  0
  -23.7522  -19.0269  145.5034 O   0  0  0  0  0  0  0  0  0  0  0  0
  -28.1630  -16.0211  147.3712 C   0  0  0  0  0  0  0  0  0  0  0  0
  -29.0547  -15.7030  148.3749 C   0  0  0  0  0  0  0  0  0  0  0  0
  -30.2133  -14.9298  148.1290 C   0  0  0  0  0  0  0  0  0  0  0  0
  -30.2778  -14.2870  146.8650 C   0  0  0  0  0  0  0  0  0  0  0  0
  -29.2495  -13.7149  146.3938 C   0  0  0  0  0  0  0  0  0  0  0  0
  -29.1427  -12.6450  145.4364 C   0  0  0  0  0  0  0  0  0  0  0  0
  -28.1194  -11.7939  145.4929 C   0  0  0  0  0  0  0  0  0  0  0  0
  -26.8690  -12.2581  146.0971 C   0  0  0  0  0  0  0  0  0  0  0  0
  -27.7782  -13.8956  146.9390 C   0  0  0  0  0  0  0  0  0  0  0  0
  -26.7279  -13.0790  146.8414 C   0  0  0  0  0  0  0  0  0  0  0  0
  1  2  1  0
  1  8  1  0
  1  9  2  0
  4 10  1  0
 10 11  2  3
 11 12  1  0
 12 13  2  3
 13 14  1  0
  2  3  2  0
  3  4  1  0
  4  5  2  0
  5  6  1  0
  6  7  2  0
  7  2  1  0
 14 15  2  0
 15 16  1  0
 16 17  2  0
 17 19  1  0
 19 18  2  0
 18 14  1  0
M  END

$$$$
No_789-/dssg/home/sw_qyf/PocketFlow/Model-Generation-Results/5HT2A_7WC7_rec_A_10.pdb/2024-01-01-03-54-21/
     RDKit          3D

 21 23  0  0  0  0  0  0  0  0999 V2000
  -24.1553  -17.8465  145.7021 C   0  0  0  0  0  0  0  0  0  0  0  0
  -24.2856  -16.6364  145.3494 C   0  0  0  0  0  0  0  0  0  0  0  0
  -24.7211  -15.5955  146.2115 C   0  0  0  0  0  0  0  0  0  0  0  0
  -25.1322  -16.0374  147.5372 C   0  0  0  0  0  0  0  0  0  0  0  0
  -24.5163  -18.2968  146.9928 C   0  0  0  0  0  0  0  0  0  0  0  0
  -24.9534  -17.3074  147.9886 C   0  0  0  0  0  0  0  0  0  0  0  0
  -24.8651  -14.1840  145.8143 C   0  0  0  0  0  0  0  0  0  0  0  0
  -25.4675  -13.2486  146.5302 C   0  0  0  0  0  0  0  0  0  0  0  0
  -25.5114  -11.9044  146.1977 C   0  0  0  0  0  0  0  0  0  0  0  0
  -24.9290  -11.4393  145.0318 C   0  0  0  0  0  0  0  0  0  0  0  0
  -24.2279  -13.8017  144.5615 C   0  0  0  0  0  0  0  0  0  0  0  0
  -24.1587  -12.3641  144.2665 C   0  0  0  0  0  0  0  0  0  0  0  0
  -24.1183  -16.1161  144.1082 O   0  0  0  0  0  0  0  0  0  0  0  0
  -25.2468  -17.7061  149.3911 C   0  0  0  0  0  0  0  0  0  0  0  0
  -25.1703  -16.9117  150.4345 N   0  0  0  0  0  0  0  0  0  0  0  0
  -23.9482  -14.6763  143.9562 C   0  0  0  0  0  0  0  0  0  0  0  0
  -23.7764  -18.7927  144.8720 O   0  0  0  0  0  0  0  0  0  0  0  0
  -23.9708  -16.2583  150.5631 C   0  0  0  0  0  0  0  0  0  0  0  0
  -22.7843  -17.1725  150.6277 C   0  0  0  0  0  0  0  0  0  0  0  0
  -21.7719  -16.8156  150.9347 O   0  0  0  0  0  0  0  0  0  0  0  0
  -22.8998  -18.3299  150.1307 O   0  0  0  0  0  0  0  0  0  0  0  0
  3  7  1  0
  2 13  1  0
  6 14  1  0
 14 15  1  0
 11 16  1  0
 13 16  1  0
  1 17  1  0
 15 18  1  0
 18 19  1  0
 19 20  2  0
 19 21  1  0
  7  8  2  0
  8  9  1  0
  9 10  2  0
 10 12  1  0
 12 11  2  0
 11  7  1  0
  1  2  2  0
  2  3  1  0
  3  4  2  0
  4  6  1  0
  6  5  2  0
  5  1  1  0
M  END

$$$$
No_790-/dssg/home/sw_qyf/PocketFlow/Model-Generation-Results/5HT2A_7WC7_rec_A_10.pdb/2024-01-01-03-54-21/
     RDKit          3D

 15 15  0  0  0  0  0  0  0  0999 V2000
  -23.8998  -17.8495  145.5131 N   0  0  0  0  0  0  0  0  0  0  0  0
  -24.2980  -17.2303  146.4737 C   0  0  0  0  0  0  0  0  0  0  0  0
  -24.3388  -17.7143  147.7916 C   0  0  0  0  0  0  0  0  0  0  0  0
  -25.1101  -17.2102  148.7910 C   0  0  0  0  0  0  0  0  0  0  0  0
  -26.1227  -16.3202  148.4280 C   0  0  0  0  0  0  0  0  0  0  0  0
  -26.2748  -15.8891  147.1710 C   0  0  0  0  0  0  0  0  0  0  0  0
  -25.4137  -16.2954  146.1381 C   0  0  0  0  0  0  0  0  0  0  0  0
  -27.3031  -14.8559  146.8847 C   0  0  0  0  0  0  0  0  0  0  0  0
  -28.3125  -14.2501  146.8664 C   0  0  0  0  0  0  0  0  0  0  0  0
  -29.2083  -13.1968  146.8118 C   0  0  0  0  0  0  0  0  0  0  0  0
  -28.9181  -12.1603  145.9254 C   0  0  0  0  0  0  0  0  0  0  0  0
  -29.9300  -11.0429  145.8430 C   0  0  0  0  0  0  0  0  0  0  0  0
  -30.7038  -10.7991  146.9099 O   0  0  0  0  0  0  0  0  0  0  0  0
  -29.9352  -10.2469  144.8642 O   0  0  0  0  0  0  0  0  0  0  0  0
  -25.5907  -15.8061  144.9906 N   0  0  0  0  0  0  0  0  0  0  0  0
  1  2  1  0
  6  8  1  0
  8  9  3  0
  9 10  1  0
 10 11  2  3
 11 12  1  0
 12 13  1  0
 12 14  2  0
  7 15  1  0
  2  3  2  0
  3  4  1  0
  4  5  2  0
  5  6  1  0
  6  7  2  0
  7  2  1  0
M  END

$$$$
No_791-/dssg/home/sw_qyf/PocketFlow/Model-Generation-Results/5HT2A_7WC7_rec_A_10.pdb/2024-01-01-03-54-21/
     RDKit          3D

 17 18  0  0  0  0  0  0  0  0999 V2000
  -24.1553  -17.8465  145.7021 C   0  0  0  0  0  0  0  0  0  0  0  0
  -23.9795  -18.4462  146.7426 C   0  0  0  0  0  0  0  0  0  0  0  0
  -24.3577  -16.4380  145.7329 C   0  0  0  0  0  0  0  0  0  0  0  0
  -24.4745  -15.6012  144.5587 C   0  0  0  0  0  0  0  0  0  0  0  0
  -24.5845  -14.1656  144.8311 C   0  0  0  0  0  0  0  0  0  0  0  0
  -25.4952  -13.5661  145.3467 C   0  0  0  0  0  0  0  0  0  0  0  0
  -24.0407  -17.8881  148.0828 C   0  0  0  0  0  0  0  0  0  0  0  0
  -24.2814  -16.5035  148.1944 C   0  0  0  0  0  0  0  0  0  0  0  0
  -24.4153  -15.7595  147.0613 C   0  0  0  0  0  0  0  0  0  0  0  0
  -25.8187  -12.2155  145.0846 C   0  0  0  0  0  0  0  0  0  0  0  0
  -27.0742  -11.6884  144.9497 C   0  0  0  0  0  0  0  0  0  0  0  0
  -27.9216  -11.8110  146.1063 C   0  0  0  0  0  0  0  0  0  0  0  0
  -29.2713  -11.3475  146.1103 C   0  0  0  0  0  0  0  0  0  0  0  0
  -29.6084  -10.5965  145.0163 N   0  0  0  0  0  0  0  0  0  0  0  0
  -28.8261  -10.3153  144.0358 C   0  0  0  0  0  0  0  0  0  0  0  0
  -27.5204  -10.9041  144.0187 C   0  0  0  0  0  0  0  0  0  0  0  0
  -30.1465  -11.5927  147.1127 N   0  0  0  0  0  0  0  0  0  0  0  0
  3  4  1  0
  4  5  1  0
  5  6  2  3
  6 10  1  0
 10 11  1  0
 13 17  1  0
 11 12  2  0
 12 13  1  0
 13 14  2  0
 14 15  1  0
 15 16  2  0
 16 11  1  0
  1  2  2  0
  2  7  1  0
  7  8  2  0
  8  9  1  0
  9  3  2  0
  3  1  1  0
M  END

$$$$
No_792-/dssg/home/sw_qyf/PocketFlow/Model-Generation-Results/5HT2A_7WC7_rec_A_10.pdb/2024-01-01-03-54-21/
     RDKit          3D

 24 25  0  0  0  0  0  0  0  0999 V2000
  -24.1553  -17.8465  145.7021 C   0  0  0  0  0  0  0  0  0  0  0  0
  -23.9795  -18.4462  146.7426 C   0  0  0  0  0  0  0  0  0  0  0  0
  -25.1196  -16.8106  145.6409 C   0  0  0  0  0  0  0  0  0  0  0  0
  -25.9236  -16.5070  146.7422 C   0  0  0  0  0  0  0  0  0  0  0  0
  -25.6173  -17.2153  147.9099 C   0  0  0  0  0  0  0  0  0  0  0  0
  -24.6179  -18.1473  147.9620 C   0  0  0  0  0  0  0  0  0  0  0  0
  -26.9749  -15.4806  146.6971 C   0  0  0  0  0  0  0  0  0  0  0  0
  -27.0375  -14.6438  145.9133 C   0  0  0  0  0  0  0  0  0  0  0  0
  -27.8560  -13.5115  145.7856 C   0  0  0  0  0  0  0  0  0  0  0  0
  -28.9936  -13.4703  146.7158 C   0  0  0  0  0  0  0  0  0  0  0  0
  -29.0847  -14.5376  147.6407 C   0  0  0  0  0  0  0  0  0  0  0  0
  -28.0525  -15.5302  147.7272 C   0  0  0  0  0  0  0  0  0  0  0  0
  -30.0055  -12.3992  146.6385 C   0  0  0  0  0  0  0  0  0  0  0  0
  -29.4863  -11.1936  146.7565 Cl  0  0  0  0  0  0  0  0  0  0  0  0
  -23.5195  -18.0246  144.4832 O   0  0  0  0  0  0  0  0  0  0  0  0
  -27.7259  -12.4602  144.8126 C   0  0  0  0  0  0  0  0  0  0  0  0
  -27.3835  -11.1160  145.1845 C   0  0  0  0  0  0  0  0  0  0  0  0
  -26.4024  -10.3806  144.3435 C   0  0  0  0  0  0  0  0  0  0  0  0
  -31.1462  -12.7811  146.8230 O   0  0  0  0  0  0  0  0  0  0  0  0
  -25.2112  -11.0383  144.1320 C   0  0  0  0  0  0  0  0  0  0  0  0
  -24.1743  -10.3800  144.6531 O   0  0  0  0  0  0  0  0  0  0  0  0
  -25.1880  -12.2719  143.8919 O   0  0  0  0  0  0  0  0  0  0  0  0
  -26.3324   -9.0421  144.9117 O   0  0  0  0  0  0  0  0  0  0  0  0
  -22.9551  -19.4054  146.8441 O   0  0  0  0  0  0  0  0  0  0  0  0
  4  7  1  0
 10 13  1  0
 13 14  1  0
  1 15  1  0
  9 16  1  0
 16 17  1  0
 17 18  1  0
 13 19  2  0
 18 20  1  0
 20 21  1  0
 20 22  2  0
 18 23  1  0
  2 24  1  0
  1  2  2  0
  2  6  1  0
  6  5  2  0
  5  4  1  0
  4  3  2  0
  3  1  1  0
  7  8  2  0
  8  9  1  0
  9 10  2  0
 10 11  1  0
 11 12  2  0
 12  7  1  0
M  END

$$$$
No_793-/dssg/home/sw_qyf/PocketFlow/Model-Generation-Results/5HT2A_7WC7_rec_A_10.pdb/2024-01-01-03-54-21/
     RDKit          3D

 13 14  0  0  0  0  0  0  0  0999 V2000
  -24.1553  -17.8465  145.7021 C   0  0  0  0  0  0  0  0  0  0  0  0
  -24.2856  -16.6364  145.3494 C   0  0  0  0  0  0  0  0  0  0  0  0
  -24.7838  -15.7223  145.8474 C   0  0  0  0  0  0  0  0  0  0  0  0
  -25.6063  -15.9757  147.0425 C   0  0  0  0  0  0  0  0  0  0  0  0
  -24.8560  -18.2319  146.8940 C   0  0  0  0  0  0  0  0  0  0  0  0
  -25.5371  -17.2345  147.6143 C   0  0  0  0  0  0  0  0  0  0  0  0
  -24.9394  -14.2217  145.4239 C   0  0  0  0  0  0  0  0  0  0  0  0
  -24.8149  -13.3579  146.3562 C   0  0  0  0  0  0  0  0  0  0  0  0
  -24.7834  -11.9414  146.0992 C   0  0  0  0  0  0  0  0  0  0  0  0
  -24.7873  -13.9146  144.1080 C   0  0  0  0  0  0  0  0  0  0  0  0
  -24.7578  -11.5631  144.7667 C   0  0  0  0  0  0  0  0  0  0  0  0
  -24.8946  -12.9651  143.7024 N   0  0  0  0  0  0  0  0  0  0  0  0
  -23.5506  -16.4145  144.0930 O   0  0  0  0  0  0  0  0  0  0  0  0
  3  7  1  0
  2 13  1  0
  1  2  2  0
  2  3  1  0
  3  4  2  0
  4  6  1  0
  6  5  2  0
  5  1  1  0
  7  8  2  0
  8  9  1  0
  9 11  2  0
 11 12  1  0
 12 10  2  0
 10  7  1  0
M  END

$$$$
No_794-/dssg/home/sw_qyf/PocketFlow/Model-Generation-Results/5HT2A_7WC7_rec_A_10.pdb/2024-01-01-03-54-21/
     RDKit          3D

 24 25  0  0  0  0  0  0  0  0999 V2000
  -24.1553  -17.8465  145.7021 C   0  0  0  0  0  0  0  0  0  0  0  0
  -24.2856  -16.6364  145.3494 C   0  0  0  0  0  0  0  0  0  0  0  0
  -25.0033  -15.6772  146.0737 C   0  0  0  0  0  0  0  0  0  0  0  0
  -25.1197  -14.2835  145.7299 C   0  0  0  0  0  0  0  0  0  0  0  0
  -24.2707  -13.8793  144.6500 C   0  0  0  0  0  0  0  0  0  0  0  0
  -24.8686  -18.3355  146.8179 C   0  0  0  0  0  0  0  0  0  0  0  0
  -23.4213  -14.7686  144.0334 C   0  0  0  0  0  0  0  0  0  0  0  0
  -23.3932  -16.0844  144.3175 C   0  0  0  0  0  0  0  0  0  0  0  0
  -25.6441  -17.4724  147.5881 C   0  0  0  0  0  0  0  0  0  0  0  0
  -25.7767  -16.1272  147.2748 C   0  0  0  0  0  0  0  0  0  0  0  0
  -25.9465  -13.3563  146.4438 C   0  0  0  0  0  0  0  0  0  0  0  0
  -27.3251  -13.4047  146.2160 C   0  0  0  0  0  0  0  0  0  0  0  0
  -28.0038  -12.1593  146.3710 C   0  0  0  0  0  0  0  0  0  0  0  0
  -29.4167  -12.1329  146.1539 C   0  0  0  0  0  0  0  0  0  0  0  0
  -29.9896  -10.8021  146.0028 C   0  0  0  0  0  0  0  0  0  0  0  0
  -30.4424  -10.5115  144.9115 O   0  0  0  0  0  0  0  0  0  0  0  0
  -29.6539   -9.5503  144.1157 C   0  0  0  0  0  0  0  0  0  0  0  0
  -30.6076   -9.0031  143.2650 C   0  0  0  0  0  0  0  0  0  0  0  0
  -30.1426   -8.0039  142.2868 C   0  0  0  0  0  0  0  0  0  0  0  0
  -29.7234   -8.2764  141.1997 C   0  0  0  0  0  0  0  0  0  0  0  0
  -29.4770   -7.2823  140.1319 C   0  0  0  0  0  0  0  0  0  0  0  0
  -29.0270   -7.6944  138.9093 C   0  0  0  0  0  0  0  0  0  0  0  0
  -28.1203   -8.7869  138.7677 C   0  0  0  0  0  0  0  0  0  0  0  0
  -28.0920   -9.6363  139.9613 C   0  0  0  0  0  0  0  0  0  0  0  0
  4 11  1  0
 11 12  1  0
 12 13  2  3
 13 14  1  0
 14 15  1  0
 15 16  1  0
 16 17  1  0
 17 18  1  0
 18 19  2  3
 19 20  1  0
 20 21  2  3
 21 22  1  0
 22 23  2  3
 23 24  1  0
  1  2  2  0
  3 10  2  0
 10  9  1  0
  9  6  2  0
  6  1  1  0
  2  3  1  0
  3  4  1  0
  4  5  2  0
  5  7  1  0
  7  8  2  0
  8  2  1  0
M  END

$$$$
No_795-/dssg/home/sw_qyf/PocketFlow/Model-Generation-Results/5HT2A_7WC7_rec_A_10.pdb/2024-01-01-03-54-21/
     RDKit          3D

 29 30  0  0  0  0  0  0  0  0999 V2000
  -24.1553  -17.8465  145.7021 C   0  0  0  0  0  0  0  0  0  0  0  0
  -23.9795  -18.4462  146.7426 C   0  0  0  0  0  0  0  0  0  0  0  0
  -25.1593  -16.8262  145.6925 C   0  0  0  0  0  0  0  0  0  0  0  0
  -25.9346  -16.5763  146.8154 C   0  0  0  0  0  0  0  0  0  0  0  0
  -27.0180  -15.6510  146.7805 C   0  0  0  0  0  0  0  0  0  0  0  0
  -26.9512  -14.7001  146.1507 C   0  0  0  0  0  0  0  0  0  0  0  0
  -25.9744  -14.5861  144.9905 C   0  0  0  0  0  0  0  0  0  0  0  0
  -25.0441  -15.6437  144.8936 C   0  0  0  0  0  0  0  0  0  0  0  0
  -24.7507  -18.2859  147.9706 C   0  0  0  0  0  0  0  0  0  0  0  0
  -25.7952  -17.3901  148.0027 C   0  0  0  0  0  0  0  0  0  0  0  0
  -25.9606  -13.5033  144.0146 C   0  0  0  0  0  0  0  0  0  0  0  0
  -27.3907  -12.8583  143.4248 P   0  0  0  0  0  0  0  0  0  0  0  0
  -27.5627  -13.2286  142.1114 O   0  0  0  0  0  0  0  0  0  0  0  0
  -27.1248  -11.3069  143.4660 O   0  0  0  0  0  0  0  0  0  0  0  0
  -28.2250  -10.5163  144.0157 C   0  0  0  0  0  0  0  0  0  0  0  0
  -28.5885   -9.3615  143.3366 C   0  0  0  0  0  0  0  0  0  0  0  0
  -29.9841   -9.0393  143.1735 C   0  0  0  0  0  0  0  0  0  0  0  0
  -30.3536   -8.0329  142.2965 C   0  0  0  0  0  0  0  0  0  0  0  0
  -30.0579   -8.2084  141.0658 C   0  0  0  0  0  0  0  0  0  0  0  0
  -29.9398   -7.0201  140.2182 C   0  0  0  0  0  0  0  0  0  0  0  0
  -28.4403  -13.1413  144.3535 O   0  0  0  0  0  0  0  0  0  0  0  0
  -27.3274  -12.4762  141.0749 C   0  0  0  0  0  0  0  0  0  0  0  0
  -28.0914  -11.5998  140.4869 C   0  0  0  0  0  0  0  0  0  0  0  0
  -27.8831  -11.1484  139.1336 C   0  0  0  0  0  0  0  0  0  0  0  0
  -27.8617   -9.8385  138.9094 N   0  0  0  0  0  0  0  0  0  0  0  0
  -28.2752   -9.1676  137.8120 C   0  0  0  0  0  0  0  0  0  0  0  0
  -28.9547   -9.7672  137.0054 F   0  0  0  0  0  0  0  0  0  0  0  0
  -28.0002   -7.7614  137.6414 C   0  0  0  0  0  0  0  0  0  0  0  0
  -26.8246  -13.7092  139.7717 Cl  0  0  0  0  0  0  0  0  0  0  0  0
  7 11  1  0
 11 12  1  0
 12 13  1  0
 12 14  1  0
 14 15  1  0
 15 16  2  3
 16 17  1  0
 17 18  1  0
 18 19  1  0
 19 20  2  0
 12 21  1  0
 13 22  1  0
 22 23  1  0
 23 24  1  0
 24 25  1  0
 25 26  1  0
 26 27  1  0
 26 28  1  0
 22 29  1  0
  4  5  2  0
  5  6  1  0
  6  7  2  0
  7  8  1  0
  8  3  2  0
  1  2  2  0
  2  9  1  0
  9 10  2  0
 10  4  1  0
  4  3  1  0
  3  1  1  0
M  END

$$$$
No_796-/dssg/home/sw_qyf/PocketFlow/Model-Generation-Results/5HT2A_7WC7_rec_A_10.pdb/2024-01-01-03-54-21/
     RDKit          3D

 33 34  0  0  0  0  0  0  0  0999 V2000
  -24.1553  -17.8465  145.7021 C   0  0  0  0  0  0  0  0  0  0  0  0
  -24.6364  -17.2931  146.7091 C   0  0  0  0  0  0  0  0  0  0  0  0
  -24.5709  -15.9334  146.8074 C   0  0  0  0  0  0  0  0  0  0  0  0
  -24.2378  -15.1233  145.7159 C   0  0  0  0  0  0  0  0  0  0  0  0
  -23.7252  -15.7878  144.6028 C   0  0  0  0  0  0  0  0  0  0  0  0
  -23.7316  -17.0968  144.6427 N   0  0  0  0  0  0  0  0  0  0  0  0
  -24.0429  -19.2100  145.5626 N   0  0  0  0  0  0  0  0  0  0  0  0
  -24.2583  -13.6039  145.8467 C   0  0  0  0  0  0  0  0  0  0  0  0
  -25.2955  -12.9745  145.1715 C   0  0  0  0  0  0  0  0  0  0  0  0
  -25.4348  -11.6275  145.6051 C   0  0  0  0  0  0  0  0  0  0  0  0
  -26.6932  -11.1404  145.4256 C   0  0  0  0  0  0  0  0  0  0  0  0
  -27.6399  -11.4615  144.4789 C   0  0  0  0  0  0  0  0  0  0  0  0
  -27.2799  -12.7812  143.9332 C   0  0  0  0  0  0  0  0  0  0  0  0
  -26.2093  -13.5418  144.3347 C   0  0  0  0  0  0  0  0  0  0  0  0
  -28.7717  -10.7541  144.1143 C   0  0  0  0  0  0  0  0  0  0  0  0
  -28.9107   -9.5838  143.4208 C   0  0  0  0  0  0  0  0  0  0  0  0
  -30.0454   -8.8650  143.1556 C   0  0  0  0  0  0  0  0  0  0  0  0
  -30.2390   -7.8335  142.8918 C   0  0  0  0  0  0  0  0  0  0  0  0
  -31.5502   -7.1434  142.6339 C   0  0  0  0  0  0  0  0  0  0  0  0
  -29.1264   -6.8153  142.5140 C   0  0  0  0  0  0  0  0  0  0  0  0
  -29.2738   -5.9268  141.4361 C   0  0  0  0  0  0  0  0  0  0  0  0
  -29.9215  -11.2257  144.6064 O   0  0  0  0  0  0  0  0  0  0  0  0
  -29.3455   -6.4972  140.0929 C   0  0  0  0  0  0  0  0  0  0  0  0
  -29.8759   -7.7602  139.9743 C   0  0  0  0  0  0  0  0  0  0  0  0
  -28.9429   -8.5678  139.1825 C   0  0  0  0  0  0  0  0  0  0  0  0
  -28.6992   -8.3559  137.8608 C   0  0  0  0  0  0  0  0  0  0  0  0
  -28.1950   -9.6878  139.8103 C   0  0  0  0  0  0  0  0  0  0  0  0
  -27.9041  -10.7871  139.8254 C   0  0  0  0  0  0  0  0  0  0  0  0
  -28.6446  -11.8680  139.2831 C   0  0  0  0  0  0  0  0  0  0  0  0
  -26.5117  -11.2035  140.2493 C   0  0  0  0  0  0  0  0  0  0  0  0
  -26.0419  -12.8629  139.8946 Cl  0  0  0  0  0  0  0  0  0  0  0  0
  -32.5428   -8.1598  142.8673 O   0  0  0  0  0  0  0  0  0  0  0  0
  -29.4038   -8.9450  137.0268 O   0  0  0  0  0  0  0  0  0  0  0  0
  1  7  1  0
  4  8  1  0
  8  9  1  0
 12 15  1  0
 15 16  2  3
 16 17  1  0
 17 18  2  3
 18 19  1  0
 18 20  1  0
 20 21  1  0
 15 22  1  0
 21 23  1  0
 23 24  1  0
 24 25  1  0
 25 26  2  0
 25 27  1  0
 27 28  2  3
 28 29  1  0
 28 30  1  0
 30 31  1  0
 19 32  1  0
 26 33  2  0
  1  2  2  0
  2  3  1  0
  3  4  2  0
  4  5  1  0
  5  6  2  0
  6  1  1  0
  9 10  2  0
 10 11  1  0
 11 12  2  0
 12 13  1  0
 13 14  2  0
 14  9  1  0
M  END

$$$$
No_797-/dssg/home/sw_qyf/PocketFlow/Model-Generation-Results/5HT2A_7WC7_rec_A_10.pdb/2024-01-01-03-54-21/
     RDKit          3D

  9  8  0  0  0  0  0  0  0  0999 V2000
  -23.1746  -16.6014  144.8668 C   0  0  0  0  0  0  0  0  0  0  0  0
  -24.0189  -16.0564  145.8445 C   0  0  0  0  0  0  0  0  0  0  0  0
  -24.4145  -16.8299  146.9062 C   0  0  0  0  0  0  0  0  0  0  0  0
  -23.8925  -17.9780  147.0944 C   0  0  0  0  0  0  0  0  0  0  0  0
  -24.4583  -14.6154  145.6463 C   0  0  0  0  0  0  0  0  0  0  0  0
  -25.4103  -14.0649  146.5111 C   0  0  0  0  0  0  0  0  0  0  0  0
  -25.7806  -12.7243  146.3180 C   0  0  0  0  0  0  0  0  0  0  0  0
  -25.1710  -11.9166  145.3584 C   0  0  0  0  0  0  0  0  0  0  0  0
  -24.0967  -12.4713  144.6461 C   0  0  0  0  0  0  0  0  0  0  0  0
  1  2  1  0
  2  3  1  0
  3  4  1  0
  2  5  1  0
  5  6  2  3
  6  7  1  0
  7  8  2  3
  8  9  1  0
M  END

$$$$
No_798-/dssg/home/sw_qyf/PocketFlow/Model-Generation-Results/5HT2A_7WC7_rec_A_10.pdb/2024-01-01-03-54-21/
     RDKit          3D

 29 32  0  0  0  0  0  0  0  0999 V2000
  -23.1746  -16.6014  144.8668 C   0  0  0  0  0  0  0  0  0  0  0  0
  -23.7011  -17.0158  145.9774 C   0  0  0  0  0  0  0  0  0  0  0  0
  -24.2134  -16.0722  146.8877 C   0  0  0  0  0  0  0  0  0  0  0  0
  -25.2064  -15.3422  146.4171 C   0  0  0  0  0  0  0  0  0  0  0  0
  -26.3570  -15.1251  146.8987 C   0  0  0  0  0  0  0  0  0  0  0  0
  -27.2238  -14.1018  146.4138 C   0  0  0  0  0  0  0  0  0  0  0  0
  -28.4897  -13.7552  146.9262 C   0  0  0  0  0  0  0  0  0  0  0  0
  -23.8522  -15.4383  144.3098 C   0  0  0  0  0  0  0  0  0  0  0  0
  -23.3965  -14.6404  143.2702 C   0  0  0  0  0  0  0  0  0  0  0  0
  -24.9405  -14.8444  145.0867 C   0  0  0  0  0  0  0  0  0  0  0  0
  -29.1774  -12.5456  146.6233 C   0  0  0  0  0  0  0  0  0  0  0  0
  -30.3847  -12.1114  147.2343 C   0  0  0  0  0  0  0  0  0  0  0  0
  -30.7150  -12.8420  148.4233 C   0  0  0  0  0  0  0  0  0  0  0  0
  -30.0691  -14.0274  148.7723 C   0  0  0  0  0  0  0  0  0  0  0  0
  -28.9178  -14.4387  148.0858 C   0  0  0  0  0  0  0  0  0  0  0  0
  -22.0093  -14.3395  143.3999 N   0  0  0  0  0  0  0  0  0  0  0  0
  -28.7257  -11.7523  145.4474 C   0  0  0  0  0  0  0  0  0  0  0  0
  -27.9261  -10.6854  145.5499 C   0  0  0  0  0  0  0  0  0  0  0  0
  -27.4763   -9.9686  144.3630 C   0  0  0  0  0  0  0  0  0  0  0  0
  -28.3117  -10.0388  143.3331 C   0  0  0  0  0  0  0  0  0  0  0  0
  -28.9412   -8.8334  142.9814 C   0  0  0  0  0  0  0  0  0  0  0  0
  -29.3851   -8.5863  141.6022 C   0  0  0  0  0  0  0  0  0  0  0  0
  -28.8065   -9.1985  140.5409 C   0  0  0  0  0  0  0  0  0  0  0  0
  -29.0630   -8.8737  139.2285 C   0  0  0  0  0  0  0  0  0  0  0  0
  -28.2188   -9.3188  138.2055 C   0  0  0  0  0  0  0  0  0  0  0  0
  -27.6546  -10.4939  138.4975 N   0  0  0  0  0  0  0  0  0  0  0  0
  -27.5129  -11.0316  139.7028 C   0  0  0  0  0  0  0  0  0  0  0  0
  -28.1082  -10.3682  140.8087 C   0  0  0  0  0  0  0  0  0  0  0  0
  -27.5140  -10.4419  141.9921 C   0  0  0  0  0  0  0  0  0  0  0  0
  1  2  1  0
  2  3  1  0
  3  4  1  0
  4  5  1  0
  5  6  2  3
  6  7  1  0
  1  8  1  0
  8  9  1  0
  4 10  1  0
  8 10  1  0
  9 16  1  0
 11 17  1  0
 17 18  1  0
 18 19  1  0
 19 20  1  0
 23 24  1  0
 24 25  2  0
 25 26  1  0
 26 27  2  0
 27 28  1  0
  7 11  1  0
 11 12  2  0
 12 13  1  0
 13 14  2  0
 14 15  1  0
 15  7  2  0
 20 21  2  0
 21 22  1  0
 22 23  2  0
 23 28  1  0
 28 29  2  0
 29 20  1  0
M  END

$$$$
No_799-/dssg/home/sw_qyf/PocketFlow/Model-Generation-Results/5HT2A_7WC7_rec_A_10.pdb/2024-01-01-03-54-21/
     RDKit          3D

 34 38  0  0  0  0  0  0  0  0999 V2000
  -24.1553  -17.8465  145.7021 C   0  0  0  0  0  0  0  0  0  0  0  0
  -24.6364  -17.2931  146.7091 C   0  0  0  0  0  0  0  0  0  0  0  0
  -25.8608  -16.5592  146.5934 C   0  0  0  0  0  0  0  0  0  0  0  0
  -25.9533  -15.5604  145.6681 C   0  0  0  0  0  0  0  0  0  0  0  0
  -27.0179  -14.6632  145.5500 C   0  0  0  0  0  0  0  0  0  0  0  0
  -26.9074  -13.7000  144.5153 C   0  0  0  0  0  0  0  0  0  0  0  0
  -23.9825  -16.8561  144.5715 C   0  0  0  0  0  0  0  0  0  0  0  0
  -25.0690  -15.8539  144.5455 C   0  0  0  0  0  0  0  0  0  0  0  0
  -27.4861  -12.4242  144.5975 C   0  0  0  0  0  0  0  0  0  0  0  0
  -28.3007  -12.0888  145.6843 C   0  0  0  0  0  0  0  0  0  0  0  0
  -28.5508  -13.1410  146.7158 C   0  0  0  0  0  0  0  0  0  0  0  0
  -27.3277  -13.9905  146.9454 C   0  0  0  0  0  0  0  0  0  0  0  0
  -29.3002  -10.9799  145.6739 C   0  0  0  0  0  0  0  0  0  0  0  0
  -29.1157  -10.1018  144.7793 O   0  0  0  0  0  0  0  0  0  0  0  0
  -28.1623  -10.0831  144.0043 C   0  0  0  0  0  0  0  0  0  0  0  0
  -28.2525   -9.2091  142.9171 C   0  0  0  0  0  0  0  0  0  0  0  0
  -27.2471  -11.2517  143.7851 C   0  0  0  0  0  0  0  0  0  0  0  0
  -30.3848  -10.9132  146.5439 N   0  0  0  0  0  0  0  0  0  0  0  0
  -24.0662  -17.5140  148.1607 C   0  0  0  0  0  0  0  0  0  0  0  0
  -24.9650  -17.3842  149.2599 C   0  0  0  0  0  0  0  0  0  0  0  0
  -24.3831  -17.1992  150.5353 C   0  0  0  0  0  0  0  0  0  0  0  0
  -23.0088  -17.1598  150.7794 C   0  0  0  0  0  0  0  0  0  0  0  0
  -22.1582  -16.8460  149.6628 C   0  0  0  0  0  0  0  0  0  0  0  0
  -22.7606  -17.1540  148.3817 C   0  0  0  0  0  0  0  0  0  0  0  0
  -28.9425   -7.9319  143.1880 C   0  0  0  0  0  0  0  0  0  0  0  0
  -29.4416   -7.0741  142.1126 C   0  0  0  0  0  0  0  0  0  0  0  0
  -29.4040   -7.6860  140.8237 C   0  0  0  0  0  0  0  0  0  0  0  0
  -28.6905   -8.8396  140.5439 C   0  0  0  0  0  0  0  0  0  0  0  0
  -28.3373   -9.6661  141.5837 C   0  0  0  0  0  0  0  0  0  0  0  0
  -28.4968   -9.3070  139.1842 C   0  0  0  0  0  0  0  0  0  0  0  0
  -28.6239   -8.3445  138.1404 C   0  0  0  0  0  0  0  0  0  0  0  0
  -27.9179  -10.5075  138.9120 C   0  0  0  0  0  0  0  0  0  0  0  0
  -28.2506  -11.3450  137.9032 C   0  0  0  0  0  0  0  0  0  0  0  0
  -28.9263   -7.1971  138.2785 O   0  0  0  0  0  0  0  0  0  0  0  0
  1  2  1  0
  2  3  1  0
  3  4  1  0
  4  5  1  0
  1  7  1  0
  4  8  1  0
  7  8  1  0
 10 13  1  0
 13 14  1  0
 14 15  1  0
 15 16  1  0
  9 17  1  0
 15 17  1  0
 13 18  1  0
  2 19  1  0
 28 30  1  0
 30 31  2  3
 30 32  1  0
 32 33  1  0
 31 34  1  0
 16 25  2  0
 25 26  1  0
 26 27  2  0
 27 28  1  0
 28 29  2  0
 29 16  1  0
 19 20  2  0
 20 21  1  0
 21 22  2  0
 22 23  1  0
 23 24  2  0
 24 19  1  0
  5  6  2  0
  6  9  1  0
  9 10  2  0
 10 11  1  0
 11 12  2  0
 12  5  1  0
M  END

$$$$
No_800-/dssg/home/sw_qyf/PocketFlow/Model-Generation-Results/5HT2A_7WC7_rec_A_10.pdb/2024-01-01-03-54-21/
     RDKit          3D

 20 20  0  0  0  0  0  0  0  0999 V2000
  -23.1746  -16.6014  144.8668 C   0  0  0  0  0  0  0  0  0  0  0  0
  -24.0189  -16.0564  145.8445 C   0  0  0  0  0  0  0  0  0  0  0  0
  -24.4145  -16.8299  146.9062 C   0  0  0  0  0  0  0  0  0  0  0  0
  -25.2273  -16.2787  147.9854 C   0  0  0  0  0  0  0  0  0  0  0  0
  -25.7358  -15.0095  147.7773 C   0  0  0  0  0  0  0  0  0  0  0  0
  -25.3901  -14.2337  146.6672 C   0  0  0  0  0  0  0  0  0  0  0  0
  -24.5390  -14.7030  145.7350 C   0  0  0  0  0  0  0  0  0  0  0  0
  -24.1465  -13.8569  144.6317 C   0  0  0  0  0  0  0  0  0  0  0  0
  -24.9794  -13.9353  143.6960 F   0  0  0  0  0  0  0  0  0  0  0  0
  -24.1501  -12.4885  144.9888 F   0  0  0  0  0  0  0  0  0  0  0  0
  -22.8863  -14.0389  144.1673 F   0  0  0  0  0  0  0  0  0  0  0  0
  -25.6752  -17.0843  149.1386 C   0  0  0  0  0  0  0  0  0  0  0  0
  -26.7446  -17.2395  149.6088 N   0  0  0  0  0  0  0  0  0  0  0  0
  -24.6405  -17.2559  150.0605 O   0  0  0  0  0  0  0  0  0  0  0  0
  -27.9144  -16.9007  148.8810 C   0  0  0  0  0  0  0  0  0  0  0  0
  -27.9965  -16.5482  147.5626 C   0  0  0  0  0  0  0  0  0  0  0  0
  -29.0299  -15.7054  147.0641 C   0  0  0  0  0  0  0  0  0  0  0  0
  -29.0631  -15.1262  145.7985 C   0  0  0  0  0  0  0  0  0  0  0  0
  -27.8023  -15.2416  145.1144 C   0  0  0  0  0  0  0  0  0  0  0  0
  -26.9163  -16.1964  145.4676 N   0  0  0  0  0  0  0  0  0  0  0  0
  1  2  1  0
  7  8  1  0
  8  9  1  0
  8 10  1  0
  8 11  1  0
  4 12  1  0
 12 13  1  0
 12 14  2  0
 13 15  1  0
 15 16  2  3
 16 17  1  0
 17 18  2  3
 18 19  1  0
 19 20  2  0
  2  3  2  0
  3  4  1  0
  4  5  2  0
  5  6  1  0
  6  7  2  0
  7  2  1  0
M  END

$$$$
No_801-/dssg/home/sw_qyf/PocketFlow/Model-Generation-Results/5HT2A_7WC7_rec_A_10.pdb/2024-01-01-03-54-21/
     RDKit          3D

 26 28  0  0  0  0  0  0  0  0999 V2000
  -23.1746  -16.6014  144.8668 C   0  0  0  0  0  0  0  0  0  0  0  0
  -23.8963  -15.5346  144.7885 C   0  0  0  0  0  0  0  0  0  0  0  0
  -23.6398  -14.5115  145.3281 C   0  0  0  0  0  0  0  0  0  0  0  0
  -23.4462  -13.2703  144.4419 C   0  0  0  0  0  0  0  0  0  0  0  0
  -23.6634  -17.6156  145.8685 C   0  0  0  0  0  0  0  0  0  0  0  0
  -24.0739  -16.9978  147.0650 C   0  0  0  0  0  0  0  0  0  0  0  0
  -25.0136  -16.4063  147.2337 C   0  0  0  0  0  0  0  0  0  0  0  0
  -22.9720  -12.1227  145.2102 C   0  0  0  0  0  0  0  0  0  0  0  0
  -25.5854  -15.2440  146.4558 C   0  0  0  0  0  0  0  0  0  0  0  0
  -24.9644  -14.9227  145.3910 C   0  0  0  0  0  0  0  0  0  0  0  0
  -26.0337  -14.6899  144.3416 C   0  0  0  0  0  0  0  0  0  0  0  0
  -26.1367  -13.5461  143.5698 C   0  0  0  0  0  0  0  0  0  0  0  0
  -27.3875  -13.3936  142.9678 C   0  0  0  0  0  0  0  0  0  0  0  0
  -27.6703  -12.0057  142.5873 C   0  0  0  0  0  0  0  0  0  0  0  0
  -28.0911  -11.7007  141.3410 C   0  0  0  0  0  0  0  0  0  0  0  0
  -28.5442  -10.3487  141.1188 C   0  0  0  0  0  0  0  0  0  0  0  0
  -28.7844   -9.7656  139.8553 C   0  0  0  0  0  0  0  0  0  0  0  0
  -29.1276   -8.3605  139.7988 C   0  0  0  0  0  0  0  0  0  0  0  0
  -29.2527   -7.7519  138.5841 C   0  0  0  0  0  0  0  0  0  0  0  0
  -27.8995  -10.9338  143.6185 C   0  0  0  0  0  0  0  0  0  0  0  0
  -28.4675   -9.7125  143.4118 C   0  0  0  0  0  0  0  0  0  0  0  0
  -28.7593   -9.3673  142.1558 C   0  0  0  0  0  0  0  0  0  0  0  0
  -29.4014   -7.6340  141.0525 C   0  0  0  0  0  0  0  0  0  0  0  0
  -29.2224   -8.0738  142.0309 C   0  0  0  0  0  0  0  0  0  0  0  0
  -27.9875  -12.4639  140.3726 O   0  0  0  0  0  0  0  0  0  0  0  0
  -28.2269   -7.4271  137.8994 O   0  0  0  0  0  0  0  0  0  0  0  0
  1  2  1  0
  2  3  1  0
  3  4  1  0
  1  5  1  0
  5  6  2  0
  6  7  1  0
  4  8  2  0
  7  9  2  0
  2 10  1  0
  9 10  1  0
 10 11  1  0
 11 12  2  3
 12 13  1  0
 13 14  1  0
 18 19  1  0
 15 25  1  0
 19 26  1  0
 16 17  2  0
 17 18  1  0
 18 23  2  0
 23 24  1  0
 24 22  2  0
 14 15  2  0
 15 16  1  0
 16 22  1  0
 22 21  1  0
 21 20  2  0
 20 14  1  0
M  END

$$$$
No_802-/dssg/home/sw_qyf/PocketFlow/Model-Generation-Results/5HT2A_7WC7_rec_A_10.pdb/2024-01-01-03-54-21/
     RDKit          3D

 25 26  0  0  0  0  0  0  0  0999 V2000
  -24.1553  -17.8465  145.7021 C   0  0  0  0  0  0  0  0  0  0  0  0
  -24.6364  -17.2931  146.7091 C   0  0  0  0  0  0  0  0  0  0  0  0
  -24.0780  -17.2921  147.9389 C   0  0  0  0  0  0  0  0  0  0  0  0
  -24.6761  -16.7363  149.1478 C   0  0  0  0  0  0  0  0  0  0  0  0
  -25.9985  -16.2638  148.9932 C   0  0  0  0  0  0  0  0  0  0  0  0
  -26.6270  -16.3412  147.7728 C   0  0  0  0  0  0  0  0  0  0  0  0
  -25.9734  -16.9165  146.6819 C   0  0  0  0  0  0  0  0  0  0  0  0
  -23.8274  -16.9403  144.6508 N   0  0  0  0  0  0  0  0  0  0  0  0
  -28.0724  -15.9244  147.7069 C   0  0  0  0  0  0  0  0  0  0  0  0
  -28.4708  -15.1814  146.6026 C   0  0  0  0  0  0  0  0  0  0  0  0
  -29.7724  -14.6198  146.6502 C   0  0  0  0  0  0  0  0  0  0  0  0
  -23.4433  -18.9413  145.6275 O   0  0  0  0  0  0  0  0  0  0  0  0
  -30.0173  -13.3669  146.0002 C   0  0  0  0  0  0  0  0  0  0  0  0
  -28.7913  -12.5541  145.6562 C   0  0  0  0  0  0  0  0  0  0  0  0
  -29.0369  -11.1740  145.3411 C   0  0  0  0  0  0  0  0  0  0  0  0
  -30.2702  -10.5159  145.2926 C   0  0  0  0  0  0  0  0  0  0  0  0
  -30.3336   -9.3439  144.6068 C   0  0  0  0  0  0  0  0  0  0  0  0
  -29.4459   -8.9191  143.6050 C   0  0  0  0  0  0  0  0  0  0  0  0
  -28.2056   -9.6707  143.5990 C   0  0  0  0  0  0  0  0  0  0  0  0
  -28.0510  -10.8313  144.3356 C   0  0  0  0  0  0  0  0  0  0  0  0
  -29.5748   -7.6894  142.9061 C   0  0  0  0  0  0  0  0  0  0  0  0
  -29.8662   -7.8310  141.4792 C   0  0  0  0  0  0  0  0  0  0  0  0
  -29.1769   -7.1046  140.5508 C   0  0  0  0  0  0  0  0  0  0  0  0
  -29.3610   -7.5096  139.2420 C   0  0  0  0  0  0  0  0  0  0  0  0
  -27.5258  -13.1360  145.7969 C   0  0  0  0  0  0  0  0  0  0  0  0
  1  2  1  0
  1  8  1  0
  6  9  1  0
  9 10  2  3
 10 11  1  0
  1 12  2  0
 11 13  1  0
 13 14  2  3
 14 15  1  0
 18 21  1  0
 21 22  1  0
 22 23  2  3
 23 24  1  0
 14 25  1  0
 15 16  2  0
 16 17  1  0
 17 18  2  0
 18 19  1  0
 19 20  2  0
 20 15  1  0
  2  3  2  0
  3  4  1  0
  4  5  2  0
  5  6  1  0
  6  7  2  0
  7  2  1  0
M  END

$$$$
No_803-/dssg/home/sw_qyf/PocketFlow/Model-Generation-Results/5HT2A_7WC7_rec_A_10.pdb/2024-01-01-03-54-21/
     RDKit          3D

 29 29  0  0  0  0  0  0  0  0999 V2000
  -23.1746  -16.6014  144.8668 C   0  0  0  0  0  0  0  0  0  0  0  0
  -24.0189  -16.0564  145.8445 C   0  0  0  0  0  0  0  0  0  0  0  0
  -24.4850  -14.7380  145.6359 C   0  0  0  0  0  0  0  0  0  0  0  0
  -25.2717  -14.0560  146.5949 C   0  0  0  0  0  0  0  0  0  0  0  0
  -25.5669  -12.6700  146.4456 C   0  0  0  0  0  0  0  0  0  0  0  0
  -26.3254  -12.3020  145.2404 C   0  0  0  0  0  0  0  0  0  0  0  0
  -26.1760  -13.2271  144.2130 C   0  0  0  0  0  0  0  0  0  0  0  0
  -26.9667  -13.1229  142.9895 C   0  0  0  0  0  0  0  0  0  0  0  0
  -28.3076  -12.2770  143.0819 Cl  0  0  0  0  0  0  0  0  0  0  0  0
  -27.6738  -11.8983  145.7469 C   0  0  0  0  0  0  0  0  0  0  0  0
  -25.2121  -17.0538  146.0910 C   0  0  0  0  0  0  0  0  0  0  0  0
  -24.9157  -18.2816  146.7140 C   0  0  0  0  0  0  0  0  0  0  0  0
  -28.5521  -12.6068  146.4161 C   0  0  0  0  0  0  0  0  0  0  0  0
  -29.7615  -12.0259  146.8748 C   0  0  0  0  0  0  0  0  0  0  0  0
  -30.5472  -12.6368  147.7816 N   0  0  0  0  0  0  0  0  0  0  0  0
  -30.2752  -11.0188  146.1255 O   0  0  0  0  0  0  0  0  0  0  0  0
  -26.5370  -13.6199  141.7364 C   0  0  0  0  0  0  0  0  0  0  0  0
  -27.4615  -13.6471  140.8931 O   0  0  0  0  0  0  0  0  0  0  0  0
  -23.9293  -18.0012  147.8127 C   0  0  0  0  0  0  0  0  0  0  0  0
  -24.2684  -17.0071  148.8428 C   0  0  0  0  0  0  0  0  0  0  0  0
  -23.5644  -17.1597  150.1034 C   0  0  0  0  0  0  0  0  0  0  0  0
  -23.9362  -18.0471  150.8191 O   0  0  0  0  0  0  0  0  0  0  0  0
  -22.3421  -16.6373  150.2363 O   0  0  0  0  0  0  0  0  0  0  0  0
  -25.3247  -14.5432  144.2575 C   0  0  0  0  0  0  0  0  0  0  0  0
  -30.0663  -13.7031  148.6047 C   0  0  0  0  0  0  0  0  0  0  0  0
  -30.4065  -15.0229  148.1549 C   0  0  0  0  0  0  0  0  0  0  0  0
  -29.5253  -15.9789  148.8319 C   0  0  0  0  0  0  0  0  0  0  0  0
  -28.5026  -16.6708  148.3851 C   0  0  0  0  0  0  0  0  0  0  0  0
  -27.8743  -17.5255  149.2432 N   0  0  0  0  0  0  0  0  0  0  0  0
  1  2  1  0
  2  3  1  0
  3  4  1  0
  4  5  1  0
  5  6  1  0
  6  7  1  0
  7  8  1  0
  8  9  1  0
  6 10  1  0
  2 11  1  0
 11 12  1  0
 10 13  2  3
 13 14  1  0
 14 15  1  0
 14 16  2  0
  8 17  1  0
 17 18  1  0
 12 19  1  0
 19 20  1  0
 20 21  1  0
 21 22  2  0
 21 23  1  0
  3 24  1  0
  7 24  1  0
 15 25  1  0
 25 26  1  0
 26 27  1  0
 27 28  1  0
 28 29  2  0
M  END

$$$$
No_804-/dssg/home/sw_qyf/PocketFlow/Model-Generation-Results/5HT2A_7WC7_rec_A_10.pdb/2024-01-01-03-54-21/
     RDKit          3D

 26 27  0  0  0  0  0  0  0  0999 V2000
  -23.1746  -16.6014  144.8668 C   0  0  0  0  0  0  0  0  0  0  0  0
  -23.8963  -15.5346  144.7885 C   0  0  0  0  0  0  0  0  0  0  0  0
  -23.6398  -14.5115  145.3282 C   0  0  0  0  0  0  0  0  0  0  0  0
  -24.3867  -13.2477  145.3907 C   0  0  0  0  0  0  0  0  0  0  0  0
  -23.7393  -12.0982  145.9892 C   0  0  0  0  0  0  0  0  0  0  0  0
  -23.1317  -17.4762  145.8522 C   0  0  0  0  0  0  0  0  0  0  0  0
  -23.8195  -17.1537  147.0516 C   0  0  0  0  0  0  0  0  0  0  0  0
  -25.1927  -17.4995  147.1375 C   0  0  0  0  0  0  0  0  0  0  0  0
  -25.8834  -17.1050  148.3627 C   0  0  0  0  0  0  0  0  0  0  0  0
  -27.2649  -16.9072  148.3509 C   0  0  0  0  0  0  0  0  0  0  0  0
  -27.9542  -16.8994  147.0859 C   0  0  0  0  0  0  0  0  0  0  0  0
  -27.2012  -17.1789  145.9501 C   0  0  0  0  0  0  0  0  0  0  0  0
  -25.7747  -16.8627  145.9670 C   0  0  0  0  0  0  0  0  0  0  0  0
  -25.6292  -13.2318  144.7779 C   0  0  0  0  0  0  0  0  0  0  0  0
  -26.5649  -12.2454  145.1291 C   0  0  0  0  0  0  0  0  0  0  0  0
  -27.2617  -12.4257  146.3080 C   0  0  0  0  0  0  0  0  0  0  0  0
  -28.5228  -11.7576  146.5308 C   0  0  0  0  0  0  0  0  0  0  0  0
  -28.9754  -10.8717  145.5204 C   0  0  0  0  0  0  0  0  0  0  0  0
  -28.2491  -10.6226  144.3843 C   0  0  0  0  0  0  0  0  0  0  0  0
  -28.6139   -9.7462  143.3942 C   0  0  0  0  0  0  0  0  0  0  0  0
  -27.1045  -11.3895  144.1477 C   0  0  0  0  0  0  0  0  0  0  0  0
  -28.7474  -10.0550  142.1159 N   0  0  0  0  0  0  0  0  0  0  0  0
  -28.9170   -9.0638  141.2496 C   0  0  0  0  0  0  0  0  0  0  0  0
  -28.7550   -9.2200  139.8185 C   0  0  0  0  0  0  0  0  0  0  0  0
  -28.9996   -8.0489  139.0493 C   0  0  0  0  0  0  0  0  0  0  0  0
  -29.4979   -6.9620  139.7052 N   0  0  0  0  0  0  0  0  0  0  0  0
  1  2  1  0
  2  3  2  3
  3  4  1  0
  4  5  2  0
  1  6  2  3
  6  7  1  0
  4 14  1  0
 14 15  1  0
 19 20  1  0
 20 22  1  0
 22 23  1  0
 23 24  2  3
 24 25  1  0
 25 26  1  0
  7  8  1  0
 15 16  2  0
 16 17  1  0
 17 18  2  0
 18 19  1  0
 19 21  2  0
 21 15  1  0
  8  9  2  0
  9 10  1  0
 10 11  2  0
 11 12  1  0
 12 13  2  0
 13  8  1  0
M  END

$$$$
No_805-/dssg/home/sw_qyf/PocketFlow/Model-Generation-Results/5HT2A_7WC7_rec_A_10.pdb/2024-01-01-03-54-21/
     RDKit          3D

  4  3  0  0  0  0  0  0  0  0999 V2000
  -23.1746  -16.6014  144.8668 C   0  0  0  0  0  0  0  0  0  0  0  0
  -23.7011  -17.0158  145.9774 C   0  0  0  0  0  0  0  0  0  0  0  0
  -24.0192  -16.1485  147.0403 C   0  0  0  0  0  0  0  0  0  0  0  0
  -24.4861  -16.6263  148.3635 C   0  0  0  0  0  0  0  0  0  0  0  0
  1  2  3  0
  2  3  1  0
  3  4  1  0
M  END

$$$$
No_806-/dssg/home/sw_qyf/PocketFlow/Model-Generation-Results/5HT2A_7WC7_rec_A_10.pdb/2024-01-01-03-54-21/
     RDKit          3D

 26 28  0  0  0  0  0  0  0  0999 V2000
  -23.8042  -18.1535  145.4053 O   0  0  0  0  0  0  0  0  0  0  0  0
  -24.1154  -17.4458  146.3749 C   0  0  0  0  0  0  0  0  0  0  0  0
  -25.2931  -16.8177  146.3718 C   0  0  0  0  0  0  0  0  0  0  0  0
  -26.3053  -17.0239  147.2332 C   0  0  0  0  0  0  0  0  0  0  0  0
  -27.4222  -16.2790  147.1514 C   0  0  0  0  0  0  0  0  0  0  0  0
  -27.5194  -15.1684  146.3533 C   0  0  0  0  0  0  0  0  0  0  0  0
  -26.4607  -14.8647  145.5182 C   0  0  0  0  0  0  0  0  0  0  0  0
  -25.2996  -15.6867  145.5166 C   0  0  0  0  0  0  0  0  0  0  0  0
  -26.4467  -13.6824  144.6227 C   0  0  0  0  0  0  0  0  0  0  0  0
  -27.0572  -12.9809  144.2413 C   0  0  0  0  0  0  0  0  0  0  0  0
  -27.6346  -12.0291  143.5044 C   0  0  0  0  0  0  0  0  0  0  0  0
  -28.6564  -11.3472  143.3764 C   0  0  0  0  0  0  0  0  0  0  0  0
  -29.1595  -10.4259  142.4089 C   0  0  0  0  0  0  0  0  0  0  0  0
  -30.2908   -9.5519  142.4926 C   0  0  0  0  0  0  0  0  0  0  0  0
  -29.9851   -8.1499  142.5166 C   0  0  0  0  0  0  0  0  0  0  0  0
  -29.5385   -7.6044  141.2512 C   0  0  0  0  0  0  0  0  0  0  0  0
  -28.7772   -8.5055  140.4772 C   0  0  0  0  0  0  0  0  0  0  0  0
  -28.4606   -9.8489  141.1068 C   0  0  0  0  0  0  0  0  0  0  0  0
  -28.7766   -8.3796  139.0756 C   0  0  0  0  0  0  0  0  0  0  0  0
  -28.0843   -8.7904  138.1267 C   0  0  0  0  0  0  0  0  0  0  0  0
  -28.6957   -8.7610  136.9699 C   0  0  0  0  0  0  0  0  0  0  0  0
  -30.0308   -7.9389  138.7298 O   0  0  0  0  0  0  0  0  0  0  0  0
  -24.2146  -15.2928  144.6824 C   0  0  0  0  0  0  0  0  0  0  0  0
  -24.1937  -14.1798  143.8862 C   0  0  0  0  0  0  0  0  0  0  0  0
  -25.1654  -13.5171  143.8351 C   0  0  0  0  0  0  0  0  0  0  0  0
  -23.3588  -17.6386  147.5056 O   0  0  0  0  0  0  0  0  0  0  0  0
  1  2  1  0
  2  3  1  0
 10 11  1  0
 11 12  2  3
 12 13  1  0
 17 19  1  0
 19 20  2  3
 20 21  1  0
 19 22  1  0
  2 26  2  0
 10  9  1  0
 13 14  2  0
 14 15  1  0
 15 16  2  0
 16 17  1  0
 17 18  2  0
 18 13  1  0
  3  4  2  0
  4  5  1  0
  5  6  2  0
  6  7  1  0
  8  3  1  0
  7  8  2  0
  8 23  1  0
 23 24  2  0
 24 25  1  0
 25  9  2  0
  9  7  1  0
M  END

$$$$
No_807-/dssg/home/sw_qyf/PocketFlow/Model-Generation-Results/5HT2A_7WC7_rec_A_10.pdb/2024-01-01-03-54-21/
     RDKit          3D

 35 38  0  0  0  0  0  0  0  0999 V2000
  -24.1553  -17.8465  145.7021 C   0  0  0  0  0  0  0  0  0  0  0  0
  -23.9795  -18.4462  146.7426 C   0  0  0  0  0  0  0  0  0  0  0  0
  -23.3558  -17.2451  144.9339 C   0  0  0  0  0  0  0  0  0  0  0  0
  -22.6602  -18.2018  147.3440 C   0  0  0  0  0  0  0  0  0  0  0  0
  -22.1427  -17.1610  147.3788 Cl  0  0  0  0  0  0  0  0  0  0  0  0
  -23.5808  -15.9209  144.2451 C   0  0  0  0  0  0  0  0  0  0  0  0
  -24.6858  -15.1542  144.8671 C   0  0  0  0  0  0  0  0  0  0  0  0
  -24.8830  -13.8070  144.4397 C   0  0  0  0  0  0  0  0  0  0  0  0
  -25.8686  -13.0923  145.0694 C   0  0  0  0  0  0  0  0  0  0  0  0
  -26.1030  -11.6991  144.8414 C   0  0  0  0  0  0  0  0  0  0  0  0
  -27.2581  -11.1173  144.9429 N   0  0  0  0  0  0  0  0  0  0  0  0
  -28.3215  -11.6571  145.4175 C   0  0  0  0  0  0  0  0  0  0  0  0
  -29.5620  -10.9985  145.5352 C   0  0  0  0  0  0  0  0  0  0  0  0
  -28.2644  -13.0157  145.8770 C   0  0  0  0  0  0  0  0  0  0  0  0
  -27.0888  -13.7740  145.5966 C   0  0  0  0  0  0  0  0  0  0  0  0
  -30.2167  -11.0073  146.6284 O   0  0  0  0  0  0  0  0  0  0  0  0
  -30.0275  -10.2591  144.5895 O   0  0  0  0  0  0  0  0  0  0  0  0
  -27.0261  -15.1515  145.8240 C   0  0  0  0  0  0  0  0  0  0  0  0
  -27.9549  -15.8949  146.5786 C   0  0  0  0  0  0  0  0  0  0  0  0
  -25.7705  -15.8661  145.4794 C   0  0  0  0  0  0  0  0  0  0  0  0
  -25.3805  -16.6453  146.1325 C   0  0  0  0  0  0  0  0  0  0  0  0
  -25.0757  -10.9578  144.4105 O   0  0  0  0  0  0  0  0  0  0  0  0
  -28.0680  -15.6233  147.9148 N   0  0  0  0  0  0  0  0  0  0  0  0
  -28.8689  -16.1322  148.8190 C   0  0  0  0  0  0  0  0  0  0  0  0
  -30.1552  -15.5317  149.1199 C   0  0  0  0  0  0  0  0  0  0  0  0
  -30.4521  -14.3276  148.5135 C   0  0  0  0  0  0  0  0  0  0  0  0
  -31.5576  -13.5784  148.9772 C   0  0  0  0  0  0  0  0  0  0  0  0
  -32.1647  -13.8750  150.1737 C   0  0  0  0  0  0  0  0  0  0  0  0
  -31.7532  -15.0373  150.9152 C   0  0  0  0  0  0  0  0  0  0  0  0
  -30.7242  -15.8201  150.4472 C   0  0  0  0  0  0  0  0  0  0  0  0
  -28.4782  -17.1974  149.4175 O   0  0  0  0  0  0  0  0  0  0  0  0
  -33.2288  -12.9539  150.5422 C   0  0  0  0  0  0  0  0  0  0  0  0
  -32.9426  -11.5457  150.7624 C   0  0  0  0  0  0  0  0  0  0  0  0
  -31.9204  -11.2265  150.1357 F   0  0  0  0  0  0  0  0  0  0  0  0
  -33.7175  -10.7011  151.1774 F   0  0  0  0  0  0  0  0  0  0  0  0
  2  4  1  0
  4  5  1  0
  9 10  1  0
 10 11  1  0
 11 12  1  0
 12 13  1  0
 12 14  1  0
 14 15  1  0
 13 16  2  0
 13 17  1  0
 10 22  2  0
 19 23  1  0
 23 24  1  0
 24 25  1  0
 24 31  2  0
 28 32  1  0
 32 33  1  0
 33 34  1  0
 33 35  1  0
  2  1  1  0
 19 18  1  0
  7  8  1  0
  8  9  2  0
  9 15  1  0
 15 18  2  0
 18 20  1  0
 25 26  2  0
 26 27  1  0
 27 28  2  0
 28 29  1  0
 29 30  2  0
 30 25  1  0
  1  3  2  0
  3  6  1  0
  6  7  2  0
  7 20  1  0
 20 21  2  0
 21  1  1  0
M  END

$$$$
No_808-/dssg/home/sw_qyf/PocketFlow/Model-Generation-Results/5HT2A_7WC7_rec_A_10.pdb/2024-01-01-03-54-21/
     RDKit          3D

 31 34  0  0  0  0  0  0  0  0999 V2000
  -24.1553  -17.8465  145.7021 C   0  0  0  0  0  0  0  0  0  0  0  0
  -24.6364  -17.2931  146.7091 C   0  0  0  0  0  0  0  0  0  0  0  0
  -24.0780  -17.2921  147.9389 C   0  0  0  0  0  0  0  0  0  0  0  0
  -24.6869  -16.7004  149.1440 C   0  0  0  0  0  0  0  0  0  0  0  0
  -26.0385  -16.2385  148.9552 C   0  0  0  0  0  0  0  0  0  0  0  0
  -26.6430  -16.2999  147.7413 C   0  0  0  0  0  0  0  0  0  0  0  0
  -25.9652  -16.9120  146.6641 C   0  0  0  0  0  0  0  0  0  0  0  0
  -23.7856  -16.8939  144.5670 C   0  0  0  0  0  0  0  0  0  0  0  0
  -23.6065  -15.4814  145.1541 C   0  0  0  0  0  0  0  0  0  0  0  0
  -24.2429  -14.3875  144.4142 C   0  0  0  0  0  0  0  0  0  0  0  0
  -23.6869  -13.1097  144.8037 C   0  0  0  0  0  0  0  0  0  0  0  0
  -24.3417  -12.3212  145.8122 C   0  0  0  0  0  0  0  0  0  0  0  0
  -25.7289  -12.6246  145.9693 C   0  0  0  0  0  0  0  0  0  0  0  0
  -26.3550  -13.4877  145.3070 C   0  0  0  0  0  0  0  0  0  0  0  0
  -27.8096  -13.7339  145.4466 C   0  0  0  0  0  0  0  0  0  0  0  0
  -25.3963  -14.4189  144.0404 O   0  0  0  0  0  0  0  0  0  0  0  0
  -28.0516  -14.2658  146.7655 C   0  0  0  0  0  0  0  0  0  0  0  0
  -27.8525  -15.6366  147.3173 C   0  0  0  0  0  0  0  0  0  0  0  0
  -29.0765  -16.3694  147.5315 C   0  0  0  0  0  0  0  0  0  0  0  0
  -22.3257  -12.8802  144.5911 O   0  0  0  0  0  0  0  0  0  0  0  0
  -23.7300  -19.1983  145.5633 C   0  0  0  0  0  0  0  0  0  0  0  0
  -28.8719  -13.3304  147.5737 C   0  0  0  0  0  0  0  0  0  0  0  0
  -30.1799  -13.6990  148.0369 C   0  0  0  0  0  0  0  0  0  0  0  0
  -31.0136  -12.6762  148.6134 C   0  0  0  0  0  0  0  0  0  0  0  0
  -32.0428  -12.6693  149.0872 C   0  0  0  0  0  0  0  0  0  0  0  0
  -32.1428  -13.5553  150.2659 C   0  0  0  0  0  0  0  0  0  0  0  0
  -31.1583  -14.5257  150.4310 C   0  0  0  0  0  0  0  0  0  0  0  0
  -31.2054  -15.5493  151.3835 C   0  0  0  0  0  0  0  0  0  0  0  0
  -33.4261  -11.6041  148.9781 Cl  0  0  0  0  0  0  0  0  0  0  0  0
  -30.2162  -14.7066  149.3375 C   0  0  0  0  0  0  0  0  0  0  0  0
  -22.1742  -11.5737  144.1778 C   0  0  0  0  0  0  0  0  0  0  0  0
  1  2  1  0
  1  8  1  0
  8  9  1  0
  9 10  1  0
 10 11  1  0
 11 12  1  0
 12 13  1  0
 13 14  2  0
 14 15  1  0
 10 16  1  0
 14 16  1  0
 15 17  1  0
  6 18  1  0
 17 18  1  0
 18 19  1  0
 11 20  1  0
  1 21  1  0
 17 22  1  0
 22 23  1  0
 27 28  1  0
 25 29  1  0
 20 31  1  0
  2  3  1  0
  3  4  2  0
  4  5  1  0
  5  6  2  0
  6  7  1  0
  7  2  2  0
 23 24  2  0
 24 25  1  0
 25 26  2  0
 26 27  1  0
 27 30  2  0
 30 23  1  0
M  END

$$$$
No_809-/dssg/home/sw_qyf/PocketFlow/Model-Generation-Results/5HT2A_7WC7_rec_A_10.pdb/2024-01-01-03-54-21/
     RDKit          3D

 10 10  0  0  0  0  0  0  0  0999 V2000
  -23.1746  -16.6014  144.8668 C   0  0  0  0  0  0  0  0  0  0  0  0
  -23.7011  -17.0158  145.9774 C   0  0  0  0  0  0  0  0  0  0  0  0
  -24.2134  -16.0722  146.8877 C   0  0  0  0  0  0  0  0  0  0  0  0
  -23.3742  -15.2706  144.3922 C   0  0  0  0  0  0  0  0  0  0  0  0
  -24.0445  -14.2973  145.2608 C   0  0  0  0  0  0  0  0  0  0  0  0
  -24.4773  -14.7066  146.5258 C   0  0  0  0  0  0  0  0  0  0  0  0
  -24.1883  -12.8818  144.8809 C   0  0  0  0  0  0  0  0  0  0  0  0
  -24.2072  -11.9765  146.0468 C   0  0  0  0  0  0  0  0  0  0  0  0
  -23.6029  -18.2702  146.5706 N   0  0  0  0  0  0  0  0  0  0  0  0
  -22.8265  -19.0713  146.4581 O   0  0  0  0  0  0  0  0  0  0  0  0
  5  7  1  0
  7  8  1  0
  2  9  1  0
  9 10  2  0
  1  2  2  0
  2  3  1  0
  3  6  2  0
  6  5  1  0
  5  4  2  0
  4  1  1  0
M  END

$$$$
No_810-/dssg/home/sw_qyf/PocketFlow/Model-Generation-Results/5HT2A_7WC7_rec_A_10.pdb/2024-01-01-03-54-21/
     RDKit          3D

 19 21  0  0  0  0  0  0  0  0999 V2000
  -23.1746  -16.6014  144.8668 C   0  0  0  0  0  0  0  0  0  0  0  0
  -23.8963  -15.5346  144.7885 C   0  0  0  0  0  0  0  0  0  0  0  0
  -24.5755  -15.0383  145.9043 C   0  0  0  0  0  0  0  0  0  0  0  0
  -25.3266  -13.7882  145.9354 C   0  0  0  0  0  0  0  0  0  0  0  0
  -23.3054  -17.4824  145.9484 C   0  0  0  0  0  0  0  0  0  0  0  0
  -23.9716  -17.0786  147.1155 C   0  0  0  0  0  0  0  0  0  0  0  0
  -24.6279  -15.8542  147.1153 C   0  0  0  0  0  0  0  0  0  0  0  0
  -24.6661  -12.6411  146.3187 C   0  0  0  0  0  0  0  0  0  0  0  0
  -26.5688  -13.6980  145.3710 C   0  0  0  0  0  0  0  0  0  0  0  0
  -27.3048  -12.4387  145.3998 C   0  0  0  0  0  0  0  0  0  0  0  0
  -28.6771  -12.3476  145.5096 C   0  0  0  0  0  0  0  0  0  0  0  0
  -29.2882  -11.0486  145.4126 C   0  0  0  0  0  0  0  0  0  0  0  0
  -28.5698  -10.0658  144.6229 C   0  0  0  0  0  0  0  0  0  0  0  0
  -27.1176  -10.2576  144.4496 C   0  0  0  0  0  0  0  0  0  0  0  0
  -26.5004  -11.3957  144.7765 C   0  0  0  0  0  0  0  0  0  0  0  0
  -25.1664  -11.3784  145.7831 C   0  0  0  0  0  0  0  0  0  0  0  0
  -23.9732  -17.8631  148.3857 C   0  0  0  0  0  0  0  0  0  0  0  0
  -25.2595  -17.6726  149.1207 C   0  0  0  0  0  0  0  0  0  0  0  0
  -26.2388  -17.3485  148.5500 F   0  0  0  0  0  0  0  0  0  0  0  0
  3  4  1  0
  6 17  1  0
 17 18  3  0
 18 19  1  0
  1  2  2  0
  2  3  1  0
  3  7  2  0
  7  6  1  0
  6  5  2  0
  5  1  1  0
 10 11  1  0
 11 12  2  0
 12 13  1  0
 13 14  2  0
 14 15  1  0
  4  8  2  0
  8 16  1  0
 16 15  2  0
 15 10  1  0
 10  9  2  0
  9  4  1  0
M  END

$$$$
No_811-/dssg/home/sw_qyf/PocketFlow/Model-Generation-Results/5HT2A_7WC7_rec_A_10.pdb/2024-01-01-03-54-21/
     RDKit          3D

 32 34  0  0  0  0  0  0  0  0999 V2000
  -24.1553  -17.8465  145.7021 C   0  0  0  0  0  0  0  0  0  0  0  0
  -24.2855  -16.6364  145.3494 C   0  0  0  0  0  0  0  0  0  0  0  0
  -24.7211  -15.5955  146.2116 C   0  0  0  0  0  0  0  0  0  0  0  0
  -25.1321  -16.0374  147.5372 C   0  0  0  0  0  0  0  0  0  0  0  0
  -24.5141  -18.2630  147.0046 C   0  0  0  0  0  0  0  0  0  0  0  0
  -24.9417  -17.2391  147.8042 C   0  0  0  0  0  0  0  0  0  0  0  0
  -24.8607  -14.1702  145.7716 C   0  0  0  0  0  0  0  0  0  0  0  0
  -24.0792  -13.7259  144.8045 C   0  0  0  0  0  0  0  0  0  0  0  0
  -22.9518  -12.8492  145.3380 C   0  0  0  0  0  0  0  0  0  0  0  0
  -22.2049  -12.1592  144.2937 C   0  0  0  0  0  0  0  0  0  0  0  0
  -25.8810  -13.3735  146.3674 C   0  0  0  0  0  0  0  0  0  0  0  0
  -26.7457  -12.5834  145.4803 C   0  0  0  0  0  0  0  0  0  0  0  0
  -26.3305  -11.5369  144.8899 C   0  0  0  0  0  0  0  0  0  0  0  0
  -27.2662  -10.6356  144.1635 C   0  0  0  0  0  0  0  0  0  0  0  0
  -28.5483  -10.4251  144.8217 C   0  0  0  0  0  0  0  0  0  0  0  0
  -29.5068   -9.6757  144.1342 C   0  0  0  0  0  0  0  0  0  0  0  0
  -30.8122   -9.6185  144.6387 C   0  0  0  0  0  0  0  0  0  0  0  0
  -31.6157   -8.7629  144.0235 N   0  0  0  0  0  0  0  0  0  0  0  0
  -31.2539   -8.1233  142.8424 C   0  0  0  0  0  0  0  0  0  0  0  0
  -30.0441   -8.2464  142.2991 C   0  0  0  0  0  0  0  0  0  0  0  0
  -29.0968   -9.0764  142.9828 C   0  0  0  0  0  0  0  0  0  0  0  0
  -29.5288   -7.6507  141.0388 C   0  0  0  0  0  0  0  0  0  0  0  0
  -29.6316   -6.3021  140.7193 C   0  0  0  0  0  0  0  0  0  0  0  0
  -29.1132   -8.5305  140.0272 C   0  0  0  0  0  0  0  0  0  0  0  0
  -28.6369   -8.0708  138.8166 C   0  0  0  0  0  0  0  0  0  0  0  0
  -28.3077   -9.0647  137.9251 C   0  0  0  0  0  0  0  0  0  0  0  0
  -25.2736  -17.6645  149.3651 C   0  0  0  0  0  0  0  0  0  0  0  0
  -26.7458  -17.7152  149.9964 Cl  0  0  0  0  0  0  0  0  0  0  0  0
  -27.9438  -10.3474  138.3564 C   0  0  0  0  0  0  0  0  0  0  0  0
  -28.6452   -9.8762  140.1116 N   0  0  0  0  0  0  0  0  0  0  0  0
  -28.1454  -10.7160  139.5550 C   0  0  0  0  0  0  0  0  0  0  0  0
  -27.8508  -12.0706  140.0079 C   0  0  0  0  0  0  0  0  0  0  0  0
  3  7  1  0
  7  8  1  0
  8  9  2  3
  9 10  1  0
  7 11  1  0
 11 12  1  0
 12 13  2  3
 13 14  1  0
 14 15  2  3
 15 16  1  0
 20 22  1  0
 22 23  2  0
 22 24  1  0
 24 25  1  0
 25 26  1  0
  6 27  1  0
 27 28  1  0
 26 29  2  0
 24 30  1  0
 29 30  1  0
 30 31  1  0
 31 32  1  0
  1  2  2  0
  2  3  1  0
  3  4  2  0
  4  6  1  0
  6  5  2  0
  5  1  1  0
 16 17  2  0
 17 18  1  0
 18 19  2  0
 19 20  1  0
 20 21  2  0
 21 16  1  0
M  END

$$$$
No_812-/dssg/home/sw_qyf/PocketFlow/Model-Generation-Results/5HT2A_7WC7_rec_A_10.pdb/2024-01-01-03-54-21/
     RDKit          3D

 16 17  0  0  0  0  0  0  0  0999 V2000
  -24.1553  -17.8465  145.7021 C   0  0  0  0  0  0  0  0  0  0  0  0
  -24.2856  -16.6364  145.3494 C   0  0  0  0  0  0  0  0  0  0  0  0
  -25.0033  -15.6772  146.0737 C   0  0  0  0  0  0  0  0  0  0  0  0
  -24.8869  -14.2981  145.8377 C   0  0  0  0  0  0  0  0  0  0  0  0
  -24.0151  -13.8866  144.8228 C   0  0  0  0  0  0  0  0  0  0  0  0
  -24.9248  -18.3616  146.7605 C   0  0  0  0  0  0  0  0  0  0  0  0
  -25.7006  -17.5840  147.5268 C   0  0  0  0  0  0  0  0  0  0  0  0
  -25.7849  -16.1847  147.2675 C   0  0  0  0  0  0  0  0  0  0  0  0
  -23.8321  -12.4481  144.6698 C   0  0  0  0  0  0  0  0  0  0  0  0
  -24.7740  -11.8128  145.4720 N   0  0  0  0  0  0  0  0  0  0  0  0
  -25.4317  -12.8736  146.2481 C   0  0  0  0  0  0  0  0  0  0  0  0
  -25.7263  -10.9603  144.8690 C   0  0  0  0  0  0  0  0  0  0  0  0
  -27.0546  -10.8466  145.4400 C   0  0  0  0  0  0  0  0  0  0  0  0
  -28.1651  -10.4276  144.6494 C   0  0  0  0  0  0  0  0  0  0  0  0
  -27.9948   -9.7588  143.5182 C   0  0  0  0  0  0  0  0  0  0  0  0
  -26.7350  -10.1036  142.8770 C   0  0  0  0  0  0  0  0  0  0  0  0
  1  2  1  0
  2  3  1  0
  3  4  1  0
  4  5  2  0
  1  6  1  0
  6  7  1  0
  3  8  1  0
  7  8  1  0
  5  9  1  0
  9 10  1  0
  4 11  1  0
 10 11  1  0
 10 12  1  0
 12 13  1  0
 13 14  1  0
 14 15  2  3
 15 16  1  0
M  END

$$$$
No_813-/dssg/home/sw_qyf/PocketFlow/Model-Generation-Results/5HT2A_7WC7_rec_A_10.pdb/2024-01-01-03-54-21/
     RDKit          3D

 35 37  0  0  0  0  0  0  0  0999 V2000
  -23.1746  -16.6014  144.8668 C   0  0  0  0  0  0  0  0  0  0  0  0
  -23.7011  -17.0158  145.9774 C   0  0  0  0  0  0  0  0  0  0  0  0
  -24.7096  -16.6222  146.3577 C   0  0  0  0  0  0  0  0  0  0  0  0
  -25.4819  -15.5594  145.8226 C   0  0  0  0  0  0  0  0  0  0  0  0
  -24.9806  -14.8256  145.2251 C   0  0  0  0  0  0  0  0  0  0  0  0
  -25.5119  -13.5846  144.5783 C   0  0  0  0  0  0  0  0  0  0  0  0
  -23.7505  -15.3033  144.4510 C   0  0  0  0  0  0  0  0  0  0  0  0
  -26.7860  -13.6140  144.1073 C   0  0  0  0  0  0  0  0  0  0  0  0
  -27.4086  -12.5027  143.5112 C   0  0  0  0  0  0  0  0  0  0  0  0
  -27.9803  -12.5351  142.2876 C   0  0  0  0  0  0  0  0  0  0  0  0
  -28.4667  -11.2898  141.6884 C   0  0  0  0  0  0  0  0  0  0  0  0
  -28.6791  -10.1952  142.5354 C   0  0  0  0  0  0  0  0  0  0  0  0
  -28.1946  -10.2236  143.8425 C   0  0  0  0  0  0  0  0  0  0  0  0
  -27.5425  -11.3596  144.3385 C   0  0  0  0  0  0  0  0  0  0  0  0
  -29.3907   -9.0311  142.0048 C   0  0  0  0  0  0  0  0  0  0  0  0
  -29.0697   -8.3622  140.8537 C   0  0  0  0  0  0  0  0  0  0  0  0
  -29.6696   -7.1752  140.5076 C   0  0  0  0  0  0  0  0  0  0  0  0
  -29.9003   -6.7174  141.3853 C   0  0  0  0  0  0  0  0  0  0  0  0
  -30.0684   -8.0135  142.8899 C   0  0  0  0  0  0  0  0  0  0  0  0
  -30.3878   -6.8836  142.6025 N   0  0  0  0  0  0  0  0  0  0  0  0
  -22.9382  -18.5558  146.5483 Cl  0  0  0  0  0  0  0  0  0  0  0  0
  -28.4472   -9.1366  139.8303 N   0  0  0  0  0  0  0  0  0  0  0  0
  -28.2352   -8.7526  138.5821 C   0  0  0  0  0  0  0  0  0  0  0  0
  -27.4906   -7.5945  138.4066 C   0  0  0  0  0  0  0  0  0  0  0  0
  -28.8610   -9.4992  137.5601 C   0  0  0  0  0  0  0  0  0  0  0  0
  -30.6817   -8.5029  144.1757 N   0  0  0  0  0  0  0  0  0  0  0  0
  -29.2475   -8.9526  136.3294 C   0  0  0  0  0  0  0  0  0  0  0  0
  -29.7209   -9.8493  135.4178 C   0  0  0  0  0  0  0  0  0  0  0  0
  -28.7619  -10.7852  134.8715 C   0  0  0  0  0  0  0  0  0  0  0  0
  -28.9081  -12.1530  135.5536 C   0  0  0  0  0  0  0  0  0  0  0  0
  -27.6025  -12.5106  135.9783 O   0  0  0  0  0  0  0  0  0  0  0  0
  -24.7303  -12.5450  144.5210 O   0  0  0  0  0  0  0  0  0  0  0  0
  -25.5219  -17.4093  147.6222 C   0  0  0  0  0  0  0  0  0  0  0  0
  -25.5145  -16.6486  148.8011 N   0  0  0  0  0  0  0  0  0  0  0  0
  -26.2027  -17.2422  149.8461 C   0  0  0  0  0  0  0  0  0  0  0  0
  5  6  1  0
  6  8  1  0
 12 15  1  0
  2 21  1  0
 16 22  1  0
 22 23  1  0
 23 24  2  0
 23 25  1  0
 19 26  1  0
 25 27  1  0
 27 28  1  0
 28 29  1  0
 29 30  1  0
 30 31  2  0
  6 32  2  0
  3 33  1  0
 33 34  1  0
 34 35  1  0
  8  9  1  0
 15 16  2  0
 16 17  1  0
 17 18  2  0
 18 20  1  0
 20 19  2  0
 19 15  1  0
  1  2  2  0
  2  3  1  0
  3  4  2  0
  4  5  1  0
  5  7  2  0
  7  1  1  0
  9 10  2  0
 10 11  1  0
 11 12  2  0
 12 13  1  0
 13 14  2  0
 14  9  1  0
M  END

$$$$
No_814-/dssg/home/sw_qyf/PocketFlow/Model-Generation-Results/5HT2A_7WC7_rec_A_10.pdb/2024-01-01-03-54-21/
     RDKit          3D

 35 37  0  0  0  0  0  0  0  0999 V2000
  -23.1746  -16.6014  144.8668 C   0  0  0  0  0  0  0  0  0  0  0  0
  -23.8963  -15.5346  144.7885 C   0  0  0  0  0  0  0  0  0  0  0  0
  -24.5755  -15.0383  145.9043 C   0  0  0  0  0  0  0  0  0  0  0  0
  -25.0618  -13.6819  146.0347 C   0  0  0  0  0  0  0  0  0  0  0  0
  -25.4099  -13.0255  144.9749 C   0  0  0  0  0  0  0  0  0  0  0  0
  -25.8382  -11.6977  145.1929 C   0  0  0  0  0  0  0  0  0  0  0  0
  -23.3819  -17.5215  145.9574 C   0  0  0  0  0  0  0  0  0  0  0  0
  -23.9561  -17.0991  147.1508 C   0  0  0  0  0  0  0  0  0  0  0  0
  -24.5238  -15.8743  147.2183 C   0  0  0  0  0  0  0  0  0  0  0  0
  -26.4361  -10.8802  144.1981 C   0  0  0  0  0  0  0  0  0  0  0  0
  -27.3814  -11.5335  143.3731 C   0  0  0  0  0  0  0  0  0  0  0  0
  -28.5854  -10.8912  142.9538 C   0  0  0  0  0  0  0  0  0  0  0  0
  -29.4390  -10.3327  143.9112 C   0  0  0  0  0  0  0  0  0  0  0  0
  -30.3487   -9.3141  143.5979 C   0  0  0  0  0  0  0  0  0  0  0  0
  -29.8781   -8.2678  142.6841 C   0  0  0  0  0  0  0  0  0  0  0  0
  -29.6297   -8.7542  141.3325 C   0  0  0  0  0  0  0  0  0  0  0  0
  -28.5586   -9.7470  141.3003 C   0  0  0  0  0  0  0  0  0  0  0  0
  -29.3827  -11.4717  141.9459 N   0  0  0  0  0  0  0  0  0  0  0  0
  -28.3458  -10.7026  140.3172 C   0  0  0  0  0  0  0  0  0  0  0  0
  -27.4476   -9.3540  141.8754 O   0  0  0  0  0  0  0  0  0  0  0  0
  -28.6847  -11.9207  140.7525 C   0  0  0  0  0  0  0  0  0  0  0  0
  -29.4001  -10.7607  145.3282 C   0  0  0  0  0  0  0  0  0  0  0  0
  -30.4940  -10.5708  146.2073 C   0  0  0  0  0  0  0  0  0  0  0  0
  -30.0278   -8.0207  140.2665 C   0  0  0  0  0  0  0  0  0  0  0  0
  -30.3813  -11.2142  147.4838 C   0  0  0  0  0  0  0  0  0  0  0  0
  -29.4645  -12.3783  147.6558 C   0  0  0  0  0  0  0  0  0  0  0  0
  -28.4089  -12.5601  146.7378 C   0  0  0  0  0  0  0  0  0  0  0  0
  -28.4604  -11.8617  145.6188 C   0  0  0  0  0  0  0  0  0  0  0  0
  -27.7510  -10.4516  139.0712 C   0  0  0  0  0  0  0  0  0  0  0  0
  -23.9440  -17.9240  148.3910 C   0  0  0  0  0  0  0  0  0  0  0  0
  -25.1746  -17.7257  149.1756 C   0  0  0  0  0  0  0  0  0  0  0  0
  -25.0138  -16.5654  150.1998 C   0  0  0  0  0  0  0  0  0  0  0  0
  -23.8844  -14.7303  143.8019 O   0  0  0  0  0  0  0  0  0  0  0  0
  -27.7967  -11.3989  138.2032 O   0  0  0  0  0  0  0  0  0  0  0  0
  -27.3223   -9.3492  138.7307 O   0  0  0  0  0  0  0  0  0  0  0  0
  1  2  1  0
  2  3  1  0
  3  4  1  0
  4  5  1  0
  5  6  2  3
  7  8  1  0
  3  9  1  0
  8  9  1  0
  6 10  1  0
 10 11  1  0
 11 12  1  0
 12 13  1  0
 13 14  1  0
 14 15  1  0
 15 16  1  0
 16 17  1  0
 12 18  1  0
 17 19  1  0
 17 20  1  0
 18 21  1  0
 19 21  2  3
 13 22  1  0
 16 24  1  0
 19 29  1  0
  8 30  1  0
 30 31  1  0
 31 32  1  0
  2 33  2  0
 29 34  1  0
 29 35  2  0
  1  7  1  0
 22 23  2  0
 23 25  1  0
 25 26  2  0
 26 27  1  0
 27 28  2  0
 28 22  1  0
M  END

$$$$
No_815-/dssg/home/sw_qyf/PocketFlow/Model-Generation-Results/5HT2A_7WC7_rec_A_10.pdb/2024-01-01-03-54-21/
     RDKit          3D

 29 31  0  0  0  0  0  0  0  0999 V2000
  -24.1553  -17.8465  145.7021 C   0  0  0  0  0  0  0  0  0  0  0  0
  -24.2856  -16.6364  145.3494 C   0  0  0  0  0  0  0  0  0  0  0  0
  -24.7211  -15.5955  146.2115 C   0  0  0  0  0  0  0  0  0  0  0  0
  -24.8539  -14.2010  145.8739 C   0  0  0  0  0  0  0  0  0  0  0  0
  -24.1440  -13.8321  144.7074 C   0  0  0  0  0  0  0  0  0  0  0  0
  -24.0661  -12.5356  144.4304 N   0  0  0  0  0  0  0  0  0  0  0  0
  -24.6157  -18.2704  146.9610 C   0  0  0  0  0  0  0  0  0  0  0  0
  -25.1305  -17.4023  147.9249 C   0  0  0  0  0  0  0  0  0  0  0  0
  -25.2112  -15.9965  147.5628 C   0  0  0  0  0  0  0  0  0  0  0  0
  -26.2247  -13.5647  145.9577 C   0  0  0  0  0  0  0  0  0  0  0  0
  -26.2074  -12.1421  146.0162 C   0  0  0  0  0  0  0  0  0  0  0  0
  -25.2963  -11.6703  144.7676 C   0  0  0  0  0  0  0  0  0  0  0  0
  -27.4549  -11.4943  145.9146 O   0  0  0  0  0  0  0  0  0  0  0  0
  -27.8904  -10.9261  144.8475 C   0  0  0  0  0  0  0  0  0  0  0  0
  -29.2972  -10.6243  144.8658 C   0  0  0  0  0  0  0  0  0  0  0  0
  -29.9481   -9.8903  143.8986 C   0  0  0  0  0  0  0  0  0  0  0  0
  -29.1555   -9.5097  142.7803 C   0  0  0  0  0  0  0  0  0  0  0  0
  -29.7068   -8.7145  141.7657 C   0  0  0  0  0  0  0  0  0  0  0  0
  -30.8867   -7.9708  142.0337 C   0  0  0  0  0  0  0  0  0  0  0  0
  -29.0753   -8.4199  140.5290 C   0  0  0  0  0  0  0  0  0  0  0  0
  -28.2060   -9.3232  140.0445 C   0  0  0  0  0  0  0  0  0  0  0  0
  -27.6762   -9.1867  138.7452 C   0  0  0  0  0  0  0  0  0  0  0  0
  -27.7927  -10.5320  140.7909 C   0  0  0  0  0  0  0  0  0  0  0  0
  -27.0342  -11.5278  140.2753 C   0  0  0  0  0  0  0  0  0  0  0  0
  -28.3985  -10.6720  142.1882 C   0  0  0  0  0  0  0  0  0  0  0  0
  -26.3853  -11.3590  139.2625 O   0  0  0  0  0  0  0  0  0  0  0  0
  -27.1921  -12.7785  140.7030 O   0  0  0  0  0  0  0  0  0  0  0  0
  -31.0268   -7.1138  143.0008 O   0  0  0  0  0  0  0  0  0  0  0  0
  -24.8472  -10.3268  145.0301 O   0  0  0  0  0  0  0  0  0  0  0  0
  3  4  1  0
  4  5  1  0
  5  6  1  0
  4 10  1  0
 10 11  1  0
  6 12  1  0
 11 12  1  0
 11 13  1  0
 13 14  1  0
 14 15  1  0
 15 16  2  3
 16 17  1  0
 18 19  1  0
 21 22  1  0
 23 24  1  0
 24 26  1  0
 24 27  2  0
 19 28  1  0
 12 29  1  0
 17 18  2  0
 18 20  1  0
 20 21  2  0
 21 23  1  0
 23 25  2  0
 25 17  1  0
  1  2  2  0
  2  3  1  0
  3  9  2  0
  9  8  1  0
  8  7  2  0
  7  1  1  0
M  END

$$$$
No_816-/dssg/home/sw_qyf/PocketFlow/Model-Generation-Results/5HT2A_7WC7_rec_A_10.pdb/2024-01-01-03-54-21/
     RDKit          3D

 35 36  0  0  0  0  0  0  0  0999 V2000
  -24.1553  -17.8465  145.7021 C   0  0  0  0  0  0  0  0  0  0  0  0
  -24.6364  -17.2931  146.7091 C   0  0  0  0  0  0  0  0  0  0  0  0
  -25.8608  -16.5592  146.5934 C   0  0  0  0  0  0  0  0  0  0  0  0
  -25.9534  -15.5604  145.6681 C   0  0  0  0  0  0  0  0  0  0  0  0
  -25.1031  -14.5122  145.9220 C   0  0  0  0  0  0  0  0  0  0  0  0
  -25.1856  -13.3063  145.1479 C   0  0  0  0  0  0  0  0  0  0  0  0
  -25.0533  -12.1382  145.8443 C   0  0  0  0  0  0  0  0  0  0  0  0
  -25.6914  -10.9498  145.3105 C   0  0  0  0  0  0  0  0  0  0  0  0
  -27.0000  -11.1689  144.6234 C   0  0  0  0  0  0  0  0  0  0  0  0
  -26.9682  -11.7690  143.4840 C   0  0  0  0  0  0  0  0  0  0  0  0
  -26.7767  -13.2568  143.3918 C   0  0  0  0  0  0  0  0  0  0  0  0
  -25.6056  -13.7961  144.0154 C   0  0  0  0  0  0  0  0  0  0  0  0
  -24.4967  -18.2149  148.0084 C   0  0  0  0  0  0  0  0  0  0  0  0
  -27.4148  -11.1902  142.2425 C   0  0  0  0  0  0  0  0  0  0  0  0
  -27.4139  -11.8146  140.9943 C   0  0  0  0  0  0  0  0  0  0  0  0
  -27.7704  -11.0896  139.8521 C   0  0  0  0  0  0  0  0  0  0  0  0
  -27.6671  -11.6861  138.5615 C   0  0  0  0  0  0  0  0  0  0  0  0
  -28.0995   -9.6960  139.8996 C   0  0  0  0  0  0  0  0  0  0  0  0
  -27.8742   -8.8306  138.8201 C   0  0  0  0  0  0  0  0  0  0  0  0
  -28.0267   -7.4827  138.9304 C   0  0  0  0  0  0  0  0  0  0  0  0
  -29.0413   -7.0710  139.9002 C   0  0  0  0  0  0  0  0  0  0  0  0
  -29.3765   -7.9517  141.0279 C   0  0  0  0  0  0  0  0  0  0  0  0
  -30.2648   -7.5465  142.0375 C   0  0  0  0  0  0  0  0  0  0  0  0
  -29.0091   -9.2554  140.9593 C   0  0  0  0  0  0  0  0  0  0  0  0
  -31.1657   -8.4225  142.6968 C   0  0  0  0  0  0  0  0  0  0  0  0
  -31.1421   -8.4734  143.9670 O   0  0  0  0  0  0  0  0  0  0  0  0
  -31.9191   -9.1552  142.0371 O   0  0  0  0  0  0  0  0  0  0  0  0
  -23.6455  -17.5504  149.0236 C   0  0  0  0  0  0  0  0  0  0  0  0
  -22.5741  -16.9271  148.6222 O   0  0  0  0  0  0  0  0  0  0  0  0
  -27.0446  -17.0189  147.2927 C   0  0  0  0  0  0  0  0  0  0  0  0
  -28.3697  -16.6198  146.7724 C   0  0  0  0  0  0  0  0  0  0  0  0
  -28.5874  -15.1684  146.8831 C   0  0  0  0  0  0  0  0  0  0  0  0
  -29.7805  -14.6389  147.4524 C   0  0  0  0  0  0  0  0  0  0  0  0
  -30.0035  -13.2417  147.4700 C   0  0  0  0  0  0  0  0  0  0  0  0
  -28.9602  -12.3792  146.9294 C   0  0  0  0  0  0  0  0  0  0  0  0
  1  2  1  0
  2  3  1  0
  3  4  1  0
  4  5  1  0
  5  6  1  0
  6  7  2  0
  7  8  1  0
  8  9  1  0
  9 10  2  0
 10 11  1  0
  6 12  1  0
 11 12  1  0
  2 13  1  0
 10 14  1  0
 14 15  2  3
 15 16  1  0
 16 17  1  0
 16 18  1  0
 22 23  1  0
 23 25  1  0
 25 26  1  0
 25 27  2  0
 13 28  1  0
 28 29  2  0
  3 30  1  0
 30 31  2  3
 31 32  1  0
 32 33  2  3
 33 34  1  0
 34 35  2  0
 18 19  2  0
 19 20  1  0
 20 21  2  0
 21 22  1  0
 22 24  2  0
 24 18  1  0
M  END

$$$$
No_817-/dssg/home/sw_qyf/PocketFlow/Model-Generation-Results/5HT2A_7WC7_rec_A_10.pdb/2024-01-01-03-54-21/
     RDKit          3D

 13 14  0  0  0  0  0  0  0  0999 V2000
  -24.1553  -17.8465  145.7021 C   0  0  0  0  0  0  0  0  0  0  0  0
  -24.2856  -16.6364  145.3494 C   0  0  0  0  0  0  0  0  0  0  0  0
  -24.7211  -15.5955  146.2115 C   0  0  0  0  0  0  0  0  0  0  0  0
  -25.1322  -16.0374  147.5372 C   0  0  0  0  0  0  0  0  0  0  0  0
  -24.5163  -18.2968  146.9928 C   0  0  0  0  0  0  0  0  0  0  0  0
  -24.9534  -17.3074  147.9886 C   0  0  0  0  0  0  0  0  0  0  0  0
  -24.8611  -14.1860  145.8124 C   0  0  0  0  0  0  0  0  0  0  0  0
  -24.0271  -13.6923  144.9026 C   0  0  0  0  0  0  0  0  0  0  0  0
  -23.7626  -12.2609  144.9852 C   0  0  0  0  0  0  0  0  0  0  0  0
  -24.8633  -11.4899  145.5933 C   0  0  0  0  0  0  0  0  0  0  0  0
  -25.8065  -12.1042  146.4888 C   0  0  0  0  0  0  0  0  0  0  0  0
  -25.8472  -13.4614  146.5504 C   0  0  0  0  0  0  0  0  0  0  0  0
  -23.8586  -16.1302  143.7651 Cl  0  0  0  0  0  0  0  0  0  0  0  0
  3  7  1  0
  2 13  1  0
  1  2  2  0
  2  3  1  0
  3  4  2  0
  4  6  1  0
  6  5  2  0
  5  1  1  0
  7  8  2  0
  8  9  1  0
  9 10  2  0
 10 11  1  0
 11 12  2  0
 12  7  1  0
M  END

$$$$
No_818-/dssg/home/sw_qyf/PocketFlow/Model-Generation-Results/5HT2A_7WC7_rec_A_10.pdb/2024-01-01-03-54-21/
     RDKit          3D

 21 22  0  0  0  0  0  0  0  0999 V2000
  -24.1553  -17.8465  145.7021 C   0  0  0  0  0  0  0  0  0  0  0  0
  -24.2856  -16.6364  145.3494 C   0  0  0  0  0  0  0  0  0  0  0  0
  -24.7211  -15.5955  146.2115 C   0  0  0  0  0  0  0  0  0  0  0  0
  -24.8539  -14.2010  145.8739 C   0  0  0  0  0  0  0  0  0  0  0  0
  -25.3912  -13.2248  146.7184 C   0  0  0  0  0  0  0  0  0  0  0  0
  -24.5931  -18.2699  146.9809 C   0  0  0  0  0  0  0  0  0  0  0  0
  -25.1555  -17.3846  147.9076 C   0  0  0  0  0  0  0  0  0  0  0  0
  -25.2072  -15.9636  147.5445 C   0  0  0  0  0  0  0  0  0  0  0  0
  -24.3640  -13.8250  144.5657 C   0  0  0  0  0  0  0  0  0  0  0  0
  -25.3419  -11.8445  146.2821 C   0  0  0  0  0  0  0  0  0  0  0  0
  -26.5969  -11.3506  145.8807 C   0  0  0  0  0  0  0  0  0  0  0  0
  -26.6683  -10.5134  144.6962 C   0  0  0  0  0  0  0  0  0  0  0  0
  -27.9150  -10.0728  144.2732 C   0  0  0  0  0  0  0  0  0  0  0  0
  -28.1859   -9.2812  143.1718 C   0  0  0  0  0  0  0  0  0  0  0  0
  -23.2599  -13.1532  144.5000 O   0  0  0  0  0  0  0  0  0  0  0  0
  -29.3062   -8.4939  143.0449 C   0  0  0  0  0  0  0  0  0  0  0  0
  -29.4265   -7.4347  142.0767 C   0  0  0  0  0  0  0  0  0  0  0  0
  -29.9557   -7.3191  140.9727 C   0  0  0  0  0  0  0  0  0  0  0  0
  -29.3076   -8.2076  139.9251 C   0  0  0  0  0  0  0  0  0  0  0  0
  -28.7889   -9.3897  140.1933 C   0  0  0  0  0  0  0  0  0  0  0  0
  -28.0474   -9.7591  141.6019 C   0  0  0  0  0  0  0  0  0  0  0  0
  3  4  1  0
  4  5  1  0
  4  9  1  0
  5 10  1  0
 10 11  1  0
 11 12  2  3
 12 13  1  0
 13 14  2  3
  9 15  1  0
 14 16  1  0
 16 17  2  0
 17 18  1  0
 18 19  1  0
 19 20  2  0
 14 21  1  0
 20 21  1  0
  1  2  2  0
  2  3  1  0
  3  8  2  0
  8  7  1  0
  7  6  2  0
  6  1  1  0
M  END

$$$$
No_819-/dssg/home/sw_qyf/PocketFlow/Model-Generation-Results/5HT2A_7WC7_rec_A_10.pdb/2024-01-01-03-54-21/
     RDKit          3D

 35 36  0  0  0  0  0  0  0  0999 V2000
  -24.1553  -17.8465  145.7021 C   0  0  0  0  0  0  0  0  0  0  0  0
  -24.2856  -16.6364  145.3494 C   0  0  0  0  0  0  0  0  0  0  0  0
  -24.5733  -15.7651  145.9979 C   0  0  0  0  0  0  0  0  0  0  0  0
  -24.7088  -14.2765  145.5906 C   0  0  0  0  0  0  0  0  0  0  0  0
  -25.2269  -13.1991  146.2986 C   0  0  0  0  0  0  0  0  0  0  0  0
  -24.4725  -18.2082  147.0256 C   0  0  0  0  0  0  0  0  0  0  0  0
  -24.8823  -17.2179  147.8988 C   0  0  0  0  0  0  0  0  0  0  0  0
  -24.9025  -15.8209  147.4343 C   0  0  0  0  0  0  0  0  0  0  0  0
  -25.2564  -11.8873  145.8850 C   0  0  0  0  0  0  0  0  0  0  0  0
  -24.1929  -13.8957  144.2992 C   0  0  0  0  0  0  0  0  0  0  0  0
  -26.1068  -11.3829  145.4037 C   0  0  0  0  0  0  0  0  0  0  0  0
  -27.5356  -11.6993  145.4456 C   0  0  0  0  0  0  0  0  0  0  0  0
  -28.5682  -10.9222  144.8891 C   0  0  0  0  0  0  0  0  0  0  0  0
  -29.9147  -11.0498  145.3127 C   0  0  0  0  0  0  0  0  0  0  0  0
  -30.0467  -11.9274  146.4615 C   0  0  0  0  0  0  0  0  0  0  0  0
  -28.9585  -12.5877  146.9216 C   0  0  0  0  0  0  0  0  0  0  0  0
  -27.6604  -12.4122  146.6109 C   0  0  0  0  0  0  0  0  0  0  0  0
  -28.2562   -9.9917  143.8251 C   0  0  0  0  0  0  0  0  0  0  0  0
  -29.0185  -10.1653  142.5915 C   0  0  0  0  0  0  0  0  0  0  0  0
  -30.0589  -10.0170  142.3115 C   0  0  0  0  0  0  0  0  0  0  0  0
  -30.9807   -9.1863  143.1813 C   0  0  0  0  0  0  0  0  0  0  0  0
  -32.2680   -8.8334  142.7737 N   0  0  0  0  0  0  0  0  0  0  0  0
  -28.0698  -10.8370  141.5595 C   0  0  0  0  0  0  0  0  0  0  0  0
  -27.6651  -10.0842  140.4012 C   0  0  0  0  0  0  0  0  0  0  0  0
  -28.1615   -8.8625  139.9802 C   0  0  0  0  0  0  0  0  0  0  0  0
  -27.9402   -8.4153  138.6459 C   0  0  0  0  0  0  0  0  0  0  0  0
  -25.1501  -17.4567  149.3794 C   0  0  0  0  0  0  0  0  0  0  0  0
  -25.4438  -16.2945  149.8931 F   0  0  0  0  0  0  0  0  0  0  0  0
  -26.2536  -18.2318  149.4568 F   0  0  0  0  0  0  0  0  0  0  0  0
  -24.0615  -17.9423  150.0314 F   0  0  0  0  0  0  0  0  0  0  0  0
  -24.8264  -13.7229  143.3717 O   0  0  0  0  0  0  0  0  0  0  0  0
  -22.8164  -13.8464  144.1975 O   0  0  0  0  0  0  0  0  0  0  0  0
  -29.0357   -8.4667  137.6192 C   0  0  0  0  0  0  0  0  0  0  0  0
  -30.5864   -8.5830  144.2406 O   0  0  0  0  0  0  0  0  0  0  0  0
  -28.5967   -8.5955  136.4406 O   0  0  0  0  0  0  0  0  0  0  0  0
  3  4  1  0
  4  5  2  3
  5  9  1  0
  4 10  1  0
  9 11  2  3
 11 12  1  0
 13 18  1  0
 18 19  1  0
 19 20  2  3
 20 21  1  0
 21 22  1  0
 19 23  1  0
 23 24  2  3
 24 25  1  0
 25 26  2  3
  7 27  1  0
 27 28  1  0
 27 29  1  0
 27 30  1  0
 10 31  2  0
 10 32  1  0
 26 33  1  0
 21 34  2  0
 33 35  2  0
 12 13  2  0
 13 14  1  0
 14 15  2  0
 15 16  1  0
 16 17  2  0
 17 12  1  0
  1  2  2  0
  2  3  1  0
  3  8  2  0
  8  7  1  0
  7  6  2  0
  6  1  1  0
M  END

$$$$
No_820-/dssg/home/sw_qyf/PocketFlow/Model-Generation-Results/5HT2A_7WC7_rec_A_10.pdb/2024-01-01-03-54-21/
     RDKit          3D

  9  9  0  0  0  0  0  0  0  0999 V2000
  -24.1553  -17.8465  145.7021 C   0  0  0  0  0  0  0  0  0  0  0  0
  -24.2856  -16.6364  145.3494 C   0  0  0  0  0  0  0  0  0  0  0  0
  -24.7211  -15.5955  146.2115 C   0  0  0  0  0  0  0  0  0  0  0  0
  -24.8539  -14.2010  145.8739 C   0  0  0  0  0  0  0  0  0  0  0  0
  -24.1440  -13.8321  144.7074 C   0  0  0  0  0  0  0  0  0  0  0  0
  -23.4275  -14.8130  143.9942 C   0  0  0  0  0  0  0  0  0  0  0  0
  -23.5366  -16.0900  144.3641 N   0  0  0  0  0  0  0  0  0  0  0  0
  -23.1699  -18.6684  146.1521 C   0  0  0  0  0  0  0  0  0  0  0  0
  -23.0729  -18.7534  147.2173 N   0  0  0  0  0  0  0  0  0  0  0  0
  1  2  2  3
  2  3  1  0
  3  4  1  0
  4  5  1  0
  5  6  1  0
  2  7  1  0
  6  7  1  0
  1  8  1  0
  8  9  2  0
M  END

$$$$
No_821-/dssg/home/sw_qyf/PocketFlow/Model-Generation-Results/5HT2A_7WC7_rec_A_10.pdb/2024-01-01-03-54-21/
     RDKit          3D

 10 10  0  0  0  0  0  0  0  0999 V2000
  -23.1746  -16.6014  144.8668 C   0  0  0  0  0  0  0  0  0  0  0  0
  -23.7011  -17.0158  145.9774 C   0  0  0  0  0  0  0  0  0  0  0  0
  -24.2134  -16.0722  146.8877 C   0  0  0  0  0  0  0  0  0  0  0  0
  -23.3742  -15.2706  144.3922 C   0  0  0  0  0  0  0  0  0  0  0  0
  -24.0445  -14.2973  145.2608 C   0  0  0  0  0  0  0  0  0  0  0  0
  -24.4773  -14.7066  146.5258 C   0  0  0  0  0  0  0  0  0  0  0  0
  -24.1737  -12.9749  144.8984 N   0  0  0  0  0  0  0  0  0  0  0  0
  -23.8989  -11.9908  145.7100 C   0  0  0  0  0  0  0  0  0  0  0  0
  -23.5793  -18.3338  146.4126 N   0  0  0  0  0  0  0  0  0  0  0  0
  -23.8035  -12.3121  147.0949 C   0  0  0  0  0  0  0  0  0  0  0  0
  5  7  1  0
  7  8  1  0
  2  9  1  0
  8 10  1  0
  1  2  2  0
  2  3  1  0
  3  6  2  0
  6  5  1  0
  5  4  2  0
  4  1  1  0
M  END

$$$$
No_822-/dssg/home/sw_qyf/PocketFlow/Model-Generation-Results/5HT2A_7WC7_rec_A_10.pdb/2024-01-01-03-54-21/
     RDKit          3D

 31 33  0  0  0  0  0  0  0  0999 V2000
  -24.1553  -17.8465  145.7021 C   0  0  0  0  0  0  0  0  0  0  0  0
  -24.2855  -16.6364  145.3494 C   0  0  0  0  0  0  0  0  0  0  0  0
  -25.0033  -15.6772  146.0737 C   0  0  0  0  0  0  0  0  0  0  0  0
  -26.0408  -15.2581  145.8303 C   0  0  0  0  0  0  0  0  0  0  0  0
  -26.9398  -15.7989  144.9541 C   0  0  0  0  0  0  0  0  0  0  0  0
  -24.2881  -18.4069  146.5403 C   0  0  0  0  0  0  0  0  0  0  0  0
  -24.5180  -17.5752  147.8301 C   0  0  0  0  0  0  0  0  0  0  0  0
  -24.9541  -16.2187  147.5719 C   0  0  0  0  0  0  0  0  0  0  0  0
  -26.2286  -13.7416  146.0503 C   0  0  0  0  0  0  0  0  0  0  0  0
  -26.0470  -12.8467  145.2671 C   0  0  0  0  0  0  0  0  0  0  0  0
  -26.3525  -11.4479  145.5683 C   0  0  0  0  0  0  0  0  0  0  0  0
  -26.2562  -10.4586  144.5544 C   0  0  0  0  0  0  0  0  0  0  0  0
  -23.8623  -16.0473  144.1461 N   0  0  0  0  0  0  0  0  0  0  0  0
  -27.3380   -9.9906  143.9968 N   0  0  0  0  0  0  0  0  0  0  0  0
  -27.8617  -10.3198  142.8073 C   0  0  0  0  0  0  0  0  0  0  0  0
  -28.9111   -9.5312  142.3004 C   0  0  0  0  0  0  0  0  0  0  0  0
  -28.8415   -8.9766  141.0493 C   0  0  0  0  0  0  0  0  0  0  0  0
  -29.5675   -7.8630  140.6640 C   0  0  0  0  0  0  0  0  0  0  0  0
  -30.5146   -7.3285  141.5720 C   0  0  0  0  0  0  0  0  0  0  0  0
  -30.6833   -7.9145  142.8740 C   0  0  0  0  0  0  0  0  0  0  0  0
  -29.8442   -8.9704  143.2219 C   0  0  0  0  0  0  0  0  0  0  0  0
  -28.0289   -9.4730  139.9017 C   0  0  0  0  0  0  0  0  0  0  0  0
  -27.9501   -8.8964  138.8140 N   0  0  0  0  0  0  0  0  0  0  0  0
  -27.1535  -10.4401  140.1810 O   0  0  0  0  0  0  0  0  0  0  0  0
  -24.6091  -18.0131  149.1162 O   0  0  0  0  0  0  0  0  0  0  0  0
  -25.4456  -17.5024  149.9886 C   0  0  0  0  0  0  0  0  0  0  0  0
  -28.8389   -7.8812  138.3246 C   0  0  0  0  0  0  0  0  0  0  0  0
  -29.6533   -7.4109  139.3960 N   0  0  0  0  0  0  0  0  0  0  0  0
  -30.0174   -9.4040  144.5475 N   0  0  0  0  0  0  0  0  0  0  0  0
  -31.1061   -9.9516  145.0108 C   0  0  0  0  0  0  0  0  0  0  0  0
  -30.9178  -10.4460  146.2660 N   0  0  0  0  0  0  0  0  0  0  0  0
  4  5  1  0
  4  9  1  0
  9 10  2  3
 10 11  1  0
 11 12  1  0
  2 13  1  0
 12 14  1  0
 14 15  1  0
 15 16  1  0
 17 22  1  0
 22 23  1  0
 22 24  2  0
  7 25  1  0
 25 26  1  0
 23 27  1  0
 18 28  1  0
 27 28  1  0
 21 29  1  0
 29 30  1  0
 30 31  2  0
  4  3  1  0
  1  2  2  0
  2  3  1  0
  3  8  2  0
  8  7  1  0
  7  6  2  0
  6  1  1  0
 16 17  2  0
 17 18  1  0
 18 19  2  0
 19 20  1  0
 20 21  2  0
 21 16  1  0
M  END

$$$$
No_823-/dssg/home/sw_qyf/PocketFlow/Model-Generation-Results/5HT2A_7WC7_rec_A_10.pdb/2024-01-01-03-54-21/
     RDKit          3D

 29 32  0  0  0  0  0  0  0  0999 V2000
  -24.1553  -17.8465  145.7021 C   0  0  0  0  0  0  0  0  0  0  0  0
  -24.2856  -16.6364  145.3494 C   0  0  0  0  0  0  0  0  0  0  0  0
  -25.0033  -15.6772  146.0737 C   0  0  0  0  0  0  0  0  0  0  0  0
  -25.6964  -16.1810  147.2049 C   0  0  0  0  0  0  0  0  0  0  0  0
  -24.8143  -18.3454  146.8324 C   0  0  0  0  0  0  0  0  0  0  0  0
  -25.5292  -17.4614  147.6373 C   0  0  0  0  0  0  0  0  0  0  0  0
  -23.6541  -16.0768  144.2055 N   0  0  0  0  0  0  0  0  0  0  0  0
  -25.1820  -14.2638  145.6423 C   0  0  0  0  0  0  0  0  0  0  0  0
  -24.4786  -13.7943  144.6613 C   0  0  0  0  0  0  0  0  0  0  0  0
  -23.6459  -14.7632  143.9232 C   0  0  0  0  0  0  0  0  0  0  0  0
  -25.9066  -13.3255  146.5688 C   0  0  0  0  0  0  0  0  0  0  0  0
  -25.4514  -11.9713  146.5634 C   0  0  0  0  0  0  0  0  0  0  0  0
  -25.9520  -11.3094  145.3371 C   0  0  0  0  0  0  0  0  0  0  0  0
  -27.0413  -11.6021  144.7273 C   0  0  0  0  0  0  0  0  0  0  0  0
  -28.0098  -12.2839  145.1222 C   0  0  0  0  0  0  0  0  0  0  0  0
  -29.4026  -11.8821  144.9345 C   0  0  0  0  0  0  0  0  0  0  0  0
  -29.5716  -10.7804  144.0785 C   0  0  0  0  0  0  0  0  0  0  0  0
  -28.5831  -10.2324  143.3370 C   0  0  0  0  0  0  0  0  0  0  0  0
  -27.2397  -10.4575  143.8906 C   0  0  0  0  0  0  0  0  0  0  0  0
  -28.8454   -9.1213  142.4753 C   0  0  0  0  0  0  0  0  0  0  0  0
  -28.7008   -9.4642  141.0620 C   0  0  0  0  0  0  0  0  0  0  0  0
  -28.4462  -10.7195  140.5833 C   0  0  0  0  0  0  0  0  0  0  0  0
  -27.8046  -11.0354  139.4594 C   0  0  0  0  0  0  0  0  0  0  0  0
  -27.7500  -10.0862  138.4414 C   0  0  0  0  0  0  0  0  0  0  0  0
  -28.0471   -8.6685  138.7809 C   0  0  0  0  0  0  0  0  0  0  0  0
  -28.4728   -8.3710  140.1096 C   0  0  0  0  0  0  0  0  0  0  0  0
  -27.4928  -12.4189  139.0594 C   0  0  0  0  0  0  0  0  0  0  0  0
  -26.2687  -12.6952  139.2232 O   0  0  0  0  0  0  0  0  0  0  0  0
  -29.2297   -7.9750  142.8439 O   0  0  0  0  0  0  0  0  0  0  0  0
  8 11  1  0
 11 12  1  0
 12 13  1  0
 13 14  1  0
 18 20  1  0
 20 21  1  0
 23 27  1  0
 27 28  1  0
 20 29  2  0
  3  8  1  0
  8  9  2  0
  9 10  1  0
 10  7  2  0
  7  2  1  0
 14 15  2  0
 15 16  1  0
 16 17  2  0
 17 18  1  0
 18 19  2  0
 19 14  1  0
  1  2  2  0
  2  3  1  0
  3  4  2  0
  4  6  1  0
  6  5  2  0
  5  1  1  0
 21 22  2  0
 22 23  1  0
 23 24  2  0
 24 25  1  0
 25 26  2  0
 26 21  1  0
M  END

$$$$
No_824-/dssg/home/sw_qyf/PocketFlow/Model-Generation-Results/5HT2A_7WC7_rec_A_10.pdb/2024-01-01-03-54-21/
     RDKit          3D

 12 13  0  0  0  0  0  0  0  0999 V2000
  -24.1553  -17.8465  145.7021 C   0  0  0  0  0  0  0  0  0  0  0  0
  -24.2856  -16.6364  145.3494 C   0  0  0  0  0  0  0  0  0  0  0  0
  -25.0033  -15.6772  146.0737 C   0  0  0  0  0  0  0  0  0  0  0  0
  -25.7224  -16.0756  147.0213 C   0  0  0  0  0  0  0  0  0  0  0  0
  -24.8891  -18.3427  146.7818 C   0  0  0  0  0  0  0  0  0  0  0  0
  -25.7610  -17.1902  147.3251 C   0  0  0  0  0  0  0  0  0  0  0  0
  -23.4798  -16.0851  144.2623 N   0  0  0  0  0  0  0  0  0  0  0  0
  -25.0453  -14.1601  145.7858 C   0  0  0  0  0  0  0  0  0  0  0  0
  -25.2201  -13.2576  146.3094 C   0  0  0  0  0  0  0  0  0  0  0  0
  -25.1672  -11.8727  145.9172 C   0  0  0  0  0  0  0  0  0  0  0  0
  -24.2675  -13.8972  144.4656 C   0  0  0  0  0  0  0  0  0  0  0  0
  -24.3406  -12.4600  144.7537 N   0  0  0  0  0  0  0  0  0  0  0  0
  2  7  1  0
  3  8  1  0
  8  9  1  0
  9 10  2  0
  8 11  1  0
 10 12  1  0
 11 12  1  0
  1  2  2  0
  2  3  1  0
  3  4  2  0
  4  6  1  0
  6  5  2  0
  5  1  1  0
M  END

$$$$
No_825-/dssg/home/sw_qyf/PocketFlow/Model-Generation-Results/5HT2A_7WC7_rec_A_10.pdb/2024-01-01-03-54-21/
     RDKit          3D

 12 13  0  0  0  0  0  0  0  0999 V2000
  -23.1746  -16.6014  144.8668 C   0  0  0  0  0  0  0  0  0  0  0  0
  -24.0189  -16.0564  145.8445 C   0  0  0  0  0  0  0  0  0  0  0  0
  -24.4145  -16.8299  146.9062 C   0  0  0  0  0  0  0  0  0  0  0  0
  -23.9612  -18.1384  147.0126 C   0  0  0  0  0  0  0  0  0  0  0  0
  -23.1429  -18.6221  146.0418 C   0  0  0  0  0  0  0  0  0  0  0  0
  -22.8095  -17.8231  145.0610 N   0  0  0  0  0  0  0  0  0  0  0  0
  -24.5651  -14.6390  145.6796 C   0  0  0  0  0  0  0  0  0  0  0  0
  -23.6919  -13.6451  145.7548 C   0  0  0  0  0  0  0  0  0  0  0  0
  -24.1651  -12.2508  145.6194 C   0  0  0  0  0  0  0  0  0  0  0  0
  -25.5497  -11.9613  145.5817 C   0  0  0  0  0  0  0  0  0  0  0  0
  -26.4590  -13.0209  145.6558 C   0  0  0  0  0  0  0  0  0  0  0  0
  -25.9740  -14.3551  145.7561 C   0  0  0  0  0  0  0  0  0  0  0  0
  2  7  1  0
  1  2  2  0
  2  3  1  0
  3  4  2  0
  4  5  1  0
  5  6  2  0
  6  1  1  0
  7  8  2  0
  8  9  1  0
  9 10  2  0
 10 11  1  0
 11 12  2  0
 12  7  1  0
M  END

$$$$
No_826-/dssg/home/sw_qyf/PocketFlow/Model-Generation-Results/5HT2A_7WC7_rec_A_10.pdb/2024-01-01-03-54-21/
     RDKit          3D

 31 33  0  0  0  0  0  0  0  0999 V2000
  -23.1746  -16.6014  144.8668 C   0  0  0  0  0  0  0  0  0  0  0  0
  -23.7011  -17.0158  145.9774 C   0  0  0  0  0  0  0  0  0  0  0  0
  -24.2593  -16.1244  146.9100 C   0  0  0  0  0  0  0  0  0  0  0  0
  -24.5135  -14.7390  146.5020 C   0  0  0  0  0  0  0  0  0  0  0  0
  -24.0813  -14.3812  145.2164 C   0  0  0  0  0  0  0  0  0  0  0  0
  -23.3915  -15.2667  144.4690 C   0  0  0  0  0  0  0  0  0  0  0  0
  -24.2317  -12.9148  144.8870 C   0  0  0  0  0  0  0  0  0  0  0  0
  -24.2383  -12.0158  146.0090 C   0  0  0  0  0  0  0  0  0  0  0  0
  -23.5610  -18.4636  146.4429 C   0  0  0  0  0  0  0  0  0  0  0  0
  -24.2704  -18.8989  147.3516 O   0  0  0  0  0  0  0  0  0  0  0  0
  -22.8674  -19.2722  145.7352 O   0  0  0  0  0  0  0  0  0  0  0  0
  -25.7400  -11.6757  146.2503 C   0  0  0  0  0  0  0  0  0  0  0  0
  -26.5812  -11.6523  145.0959 C   0  0  0  0  0  0  0  0  0  0  0  0
  -27.9687  -11.7001  145.4610 C   0  0  0  0  0  0  0  0  0  0  0  0
  -28.9044  -10.9632  144.6614 C   0  0  0  0  0  0  0  0  0  0  0  0
  -28.6286  -10.4118  143.4492 C   0  0  0  0  0  0  0  0  0  0  0  0
  -29.5102   -9.5389  142.8531 C   0  0  0  0  0  0  0  0  0  0  0  0
  -29.2291   -8.9499  141.6522 C   0  0  0  0  0  0  0  0  0  0  0  0
  -29.9371   -7.7968  141.2003 C   0  0  0  0  0  0  0  0  0  0  0  0
  -29.4063   -7.1319  140.0579 C   0  0  0  0  0  0  0  0  0  0  0  0
  -28.6192   -7.8214  139.1263 C   0  0  0  0  0  0  0  0  0  0  0  0
  -28.0639   -9.0646  139.5790 C   0  0  0  0  0  0  0  0  0  0  0  0
  -28.3321   -9.6395  140.8161 C   0  0  0  0  0  0  0  0  0  0  0  0
  -30.0156   -8.4950  143.6793 C   0  0  0  0  0  0  0  0  0  0  0  0
  -28.3770  -12.6151  146.4485 C   0  0  0  0  0  0  0  0  0  0  0  0
  -29.2388  -12.2184  147.3197 N   0  0  0  0  0  0  0  0  0  0  0  0
  -29.8877  -13.1021  148.2134 C   0  0  0  0  0  0  0  0  0  0  0  0
  -29.4576  -14.4692  148.2052 C   0  0  0  0  0  0  0  0  0  0  0  0
  -28.4554  -14.8434  147.2594 C   0  0  0  0  0  0  0  0  0  0  0  0
  -27.9482  -13.9467  146.3687 C   0  0  0  0  0  0  0  0  0  0  0  0
  -30.7182  -12.7191  149.1729 O   0  0  0  0  0  0  0  0  0  0  0  0
  5  7  1  0
  7  8  1  0
  2  9  1  0
  9 10  2  0
  9 11  1  0
  8 12  1  0
 12 13  1  0
 13 14  1  0
 14 15  2  3
 15 16  1  0
 16 17  1  0
 17 18  1  0
 17 24  1  0
 14 25  1  0
 27 31  1  0
 18 19  2  0
 19 20  1  0
 20 21  2  0
 21 22  1  0
 22 23  2  0
 23 18  1  0
  1  2  2  0
  2  3  1  0
  3  4  2  0
  4  5  1  0
  5  6  2  0
  6  1  1  0
 25 26  2  0
 26 27  1  0
 27 28  2  0
 28 29  1  0
 29 30  2  0
 30 25  1  0
M  END

$$$$
No_827-/dssg/home/sw_qyf/PocketFlow/Model-Generation-Results/5HT2A_7WC7_rec_A_10.pdb/2024-01-01-03-54-21/
     RDKit          3D

 29 31  0  0  0  0  0  0  0  0999 V2000
  -23.1746  -16.6014  144.8668 C   0  0  0  0  0  0  0  0  0  0  0  0
  -24.0189  -16.0564  145.8445 C   0  0  0  0  0  0  0  0  0  0  0  0
  -24.4850  -14.7380  145.6359 C   0  0  0  0  0  0  0  0  0  0  0  0
  -24.0244  -13.9858  144.5634 C   0  0  0  0  0  0  0  0  0  0  0  0
  -24.3842  -12.6749  144.5063 N   0  0  0  0  0  0  0  0  0  0  0  0
  -22.9678  -17.8563  145.0809 N   0  0  0  0  0  0  0  0  0  0  0  0
  -23.5792  -18.1997  146.3118 C   0  0  0  0  0  0  0  0  0  0  0  0
  -24.2045  -17.0830  146.7869 C   0  0  0  0  0  0  0  0  0  0  0  0
  -25.1387  -12.1318  145.6070 C   0  0  0  0  0  0  0  0  0  0  0  0
  -25.5065  -10.7453  145.5579 C   0  0  0  0  0  0  0  0  0  0  0  0
  -25.2224  -13.8095  146.5280 C   0  0  0  0  0  0  0  0  0  0  0  0
  -26.7285  -10.5120  144.7618 C   0  0  0  0  0  0  0  0  0  0  0  0
  -27.9309  -11.0475  145.0588 C   0  0  0  0  0  0  0  0  0  0  0  0
  -29.0544  -10.5059  144.3704 C   0  0  0  0  0  0  0  0  0  0  0  0
  -28.9422   -9.5116  143.4130 C   0  0  0  0  0  0  0  0  0  0  0  0
  -30.0877   -9.0344  142.7902 C   0  0  0  0  0  0  0  0  0  0  0  0
  -31.3267   -8.9791  143.3988 C   0  0  0  0  0  0  0  0  0  0  0  0
  -30.0512   -8.3777  141.4314 C   0  0  0  0  0  0  0  0  0  0  0  0
  -29.0580   -8.7968  140.5839 C   0  0  0  0  0  0  0  0  0  0  0  0
  -28.4059   -9.9666  140.6140 C   0  0  0  0  0  0  0  0  0  0  0  0
  -27.6342  -10.4172  139.6012 C   0  0  0  0  0  0  0  0  0  0  0  0
  -26.8918  -11.6614  139.7686 C   0  0  0  0  0  0  0  0  0  0  0  0
  -27.8527  -12.8190  139.4919 C   0  0  0  0  0  0  0  0  0  0  0  0
  -24.9681  -16.9125  148.0360 C   0  0  0  0  0  0  0  0  0  0  0  0
  -26.3143  -16.8727  148.1872 C   0  0  0  0  0  0  0  0  0  0  0  0
  -26.7744  -16.9594  149.4515 N   0  0  0  0  0  0  0  0  0  0  0  0
  -24.2223  -17.1863  149.3009 C   0  0  0  0  0  0  0  0  0  0  0  0
  -22.6892  -17.2701  149.2657 C   0  0  0  0  0  0  0  0  0  0  0  0
  -25.0979  -17.1257  150.4063 C   0  0  0  0  0  0  0  0  0  0  0  0
  1  2  1  0
  2  3  2  3
  3  4  1  0
  4  5  1  0
  1  6  1  0
  6  7  2  0
  2  8  1  0
  7  8  1  0
  5  9  2  0
  9 10  1  0
  3 11  1  0
  9 11  1  0
 10 12  1  0
 12 13  1  0
 13 14  2  3
 14 15  1  0
 15 16  1  0
 16 17  2  0
 16 18  1  0
 18 19  1  0
 19 20  1  0
 20 21  1  0
 21 22  1  0
 22 23  1  0
  8 24  1  0
 24 25  2  0
 25 26  1  0
 24 27  1  0
 27 28  1  0
 26 29  2  0
 27 29  1  0
M  END

$$$$
No_828-/dssg/home/sw_qyf/PocketFlow/Model-Generation-Results/5HT2A_7WC7_rec_A_10.pdb/2024-01-01-03-54-21/
     RDKit          3D

 26 28  0  0  0  0  0  0  0  0999 V2000
  -24.1553  -17.8465  145.7021 C   0  0  0  0  0  0  0  0  0  0  0  0
  -23.9795  -18.4462  146.7426 C   0  0  0  0  0  0  0  0  0  0  0  0
  -25.1196  -16.8106  145.6408 C   0  0  0  0  0  0  0  0  0  0  0  0
  -25.2440  -15.8776  144.5240 C   0  0  0  0  0  0  0  0  0  0  0  0
  -25.1544  -14.5048  144.8371 C   0  0  0  0  0  0  0  0  0  0  0  0
  -26.0606  -13.9589  145.6946 C   0  0  0  0  0  0  0  0  0  0  0  0
  -26.9906  -13.4755  145.4640 C   0  0  0  0  0  0  0  0  0  0  0  0
  -27.9850  -12.8726  146.4251 C   0  0  0  0  0  0  0  0  0  0  0  0
  -28.8141  -11.7879  146.1109 C   0  0  0  0  0  0  0  0  0  0  0  0
  -28.8264  -11.2231  144.8928 C   0  0  0  0  0  0  0  0  0  0  0  0
  -27.9258  -11.6744  143.9516 C   0  0  0  0  0  0  0  0  0  0  0  0
  -27.0524  -12.7736  144.2021 C   0  0  0  0  0  0  0  0  0  0  0  0
  -24.0825  -17.7157  147.9408 C   0  0  0  0  0  0  0  0  0  0  0  0
  -25.0004  -16.6846  148.1462 C   0  0  0  0  0  0  0  0  0  0  0  0
  -25.3123  -15.9680  146.9351 C   0  0  0  0  0  0  0  0  0  0  0  0
  -25.8553  -14.6435  146.9795 C   0  0  0  0  0  0  0  0  0  0  0  0
  -29.6851  -10.1845  144.7551 N   0  0  0  0  0  0  0  0  0  0  0  0
  -29.8456   -9.4751  143.6377 C   0  0  0  0  0  0  0  0  0  0  0  0
  -30.8766   -9.3491  142.9003 C   0  0  0  0  0  0  0  0  0  0  0  0
  -31.7027  -10.2470  142.9645 F   0  0  0  0  0  0  0  0  0  0  0  0
  -31.6251   -8.2164  143.2015 F   0  0  0  0  0  0  0  0  0  0  0  0
  -30.5042   -9.1743  141.1830 Cl  0  0  0  0  0  0  0  0  0  0  0  0
  -29.6492  -11.4050  147.1340 F   0  0  0  0  0  0  0  0  0  0  0  0
  -23.6452  -14.0522  145.2133 C   0  0  0  0  0  0  0  0  0  0  0  0
  -23.2498  -12.7691  144.4382 C   0  0  0  0  0  0  0  0  0  0  0  0
  -23.1468  -11.6439  145.5110 C   0  0  0  0  0  0  0  0  0  0  0  0
  3  4  1  0
  4  5  1  0
  5  6  1  0
  6  7  2  3
  7  8  1  0
  8  9  1  0
  9 10  1  0
 10 11  1  0
  7 12  1  0
 11 12  1  0
  6 16  1  0
 15 16  1  0
 10 17  1  0
 17 18  1  0
 18 19  1  0
 19 20  1  0
 19 21  1  0
 19 22  1  0
  9 23  1  0
  5 24  1  0
 24 25  1  0
 25 26  1  0
  1  2  2  0
  2 13  1  0
 13 14  2  0
 14 15  1  0
 15  3  2  0
  3  1  1  0
M  END

$$$$
No_829-/dssg/home/sw_qyf/PocketFlow/Model-Generation-Results/5HT2A_7WC7_rec_A_10.pdb/2024-01-01-03-54-21/
     RDKit          3D

 18 20  0  0  0  0  0  0  0  0999 V2000
  -24.1553  -17.8465  145.7021 C   0  0  0  0  0  0  0  0  0  0  0  0
  -23.9795  -18.4462  146.7426 C   0  0  0  0  0  0  0  0  0  0  0  0
  -25.1196  -16.8106  145.6408 C   0  0  0  0  0  0  0  0  0  0  0  0
  -25.9237  -16.5070  146.7422 C   0  0  0  0  0  0  0  0  0  0  0  0
  -25.6627  -17.1841  147.9274 C   0  0  0  0  0  0  0  0  0  0  0  0
  -24.6813  -18.1540  148.0079 C   0  0  0  0  0  0  0  0  0  0  0  0
  -26.8592  -15.4206  146.8566 C   0  0  0  0  0  0  0  0  0  0  0  0
  -26.6467  -14.1894  146.2724 C   0  0  0  0  0  0  0  0  0  0  0  0
  -25.3888  -13.6779  145.9053 C   0  0  0  0  0  0  0  0  0  0  0  0
  -25.1993  -12.4018  145.4151 C   0  0  0  0  0  0  0  0  0  0  0  0
  -26.2982  -11.6067  145.0567 C   0  0  0  0  0  0  0  0  0  0  0  0
  -27.5889  -12.0859  145.4461 C   0  0  0  0  0  0  0  0  0  0  0  0
  -27.7358  -13.3218  146.0581 C   0  0  0  0  0  0  0  0  0  0  0  0
  -28.7560  -11.2180  145.2144 C   0  0  0  0  0  0  0  0  0  0  0  0
  -29.9065  -11.2881  145.8958 N   0  0  0  0  0  0  0  0  0  0  0  0
  -28.7792  -10.1191  144.2645 C   0  0  0  0  0  0  0  0  0  0  0  0
  -27.6657   -9.8348  143.4588 C   0  0  0  0  0  0  0  0  0  0  0  0
  -26.3249  -10.5283  144.0115 C   0  0  0  0  0  0  0  0  0  0  0  0
  4  7  1  0
  7  8  1  0
 14 15  1  0
  1  2  2  0
  2  6  1  0
  6  5  2  0
  5  4  1  0
  4  3  2  0
  3  1  1  0
 12 14  1  0
 14 16  2  0
 16 17  1  0
 17 18  2  0
 18 11  1  0
  8  9  2  0
  9 10  1  0
 10 11  2  0
 11 12  1  0
 12 13  2  0
 13  8  1  0
M  END

$$$$
No_830-/dssg/home/sw_qyf/PocketFlow/Model-Generation-Results/5HT2A_7WC7_rec_A_10.pdb/2024-01-01-03-54-21/
     RDKit          3D

 35 36  0  0  0  0  0  0  0  0999 V2000
  -24.1553  -17.8465  145.7021 C   0  0  0  0  0  0  0  0  0  0  0  0
  -24.2856  -16.6364  145.3494 C   0  0  0  0  0  0  0  0  0  0  0  0
  -25.0033  -15.6772  146.0737 C   0  0  0  0  0  0  0  0  0  0  0  0
  -25.1197  -14.2835  145.7299 C   0  0  0  0  0  0  0  0  0  0  0  0
  -24.2707  -13.8793  144.6500 C   0  0  0  0  0  0  0  0  0  0  0  0
  -24.8686  -18.3355  146.8179 C   0  0  0  0  0  0  0  0  0  0  0  0
  -25.6154  -17.5363  147.5807 C   0  0  0  0  0  0  0  0  0  0  0  0
  -25.7525  -16.1597  147.2668 C   0  0  0  0  0  0  0  0  0  0  0  0
  -23.3153  -13.1259  144.9221 C   0  0  0  0  0  0  0  0  0  0  0  0
  -22.3257  -12.6143  143.9015 C   0  0  0  0  0  0  0  0  0  0  0  0
  -26.5671  -13.8604  145.5966 C   0  0  0  0  0  0  0  0  0  0  0  0
  -26.8964  -12.6312  146.0732 C   0  0  0  0  0  0  0  0  0  0  0  0
  -27.9081  -11.9849  145.6036 C   0  0  0  0  0  0  0  0  0  0  0  0
  -29.2236  -11.8991  146.2472 C   0  0  0  0  0  0  0  0  0  0  0  0
  -29.4265  -12.6496  147.3567 N   0  0  0  0  0  0  0  0  0  0  0  0
  -30.5663  -12.3908  148.1091 C   0  0  0  0  0  0  0  0  0  0  0  0
  -30.8598  -13.4756  149.0611 C   0  0  0  0  0  0  0  0  0  0  0  0
  -30.1144  -14.6756  148.7967 C   0  0  0  0  0  0  0  0  0  0  0  0
  -30.0045  -10.9144  145.9429 O   0  0  0  0  0  0  0  0  0  0  0  0
  -27.6502  -11.0109  144.5467 C   0  0  0  0  0  0  0  0  0  0  0  0
  -28.3309  -10.8798  143.4710 N   0  0  0  0  0  0  0  0  0  0  0  0
  -28.2303  -10.4242  142.4771 C   0  0  0  0  0  0  0  0  0  0  0  0
  -28.6901  -10.4023  141.3270 C   0  0  0  0  0  0  0  0  0  0  0  0
  -28.3782   -9.8614  140.0871 C   0  0  0  0  0  0  0  0  0  0  0  0
  -27.1369  -10.0225  139.6470 C   0  0  0  0  0  0  0  0  0  0  0  0
  -26.8691  -11.2300  139.1400 C   0  0  0  0  0  0  0  0  0  0  0  0
  -26.8867  -12.2127  139.6952 N   0  0  0  0  0  0  0  0  0  0  0  0
  -29.0979  -14.8484  147.8584 C   0  0  0  0  0  0  0  0  0  0  0  0
  -28.7900  -13.7991  147.0925 C   0  0  0  0  0  0  0  0  0  0  0  0
  -31.9077  -13.4169  150.0007 C   0  0  0  0  0  0  0  0  0  0  0  0
  -32.0214  -14.3134  151.0693 C   0  0  0  0  0  0  0  0  0  0  0  0
  -33.0498  -14.1340  152.0013 C   0  0  0  0  0  0  0  0  0  0  0  0
  -32.8029  -12.3301  149.9753 C   0  0  0  0  0  0  0  0  0  0  0  0
  -32.8702  -11.3804  148.8997 C   0  0  0  0  0  0  0  0  0  0  0  0
  -33.8656  -12.9924  152.0190 C   0  0  0  0  0  0  0  0  0  0  0  0
  3  4  1  0
  4  5  2  3
  5  9  1  0
  9 10  1  0
  4 11  1  0
 11 12  2  3
 12 13  1  0
 13 14  1  0
 14 15  1  0
 15 16  1  0
 16 17  1  0
 17 18  1  0
 14 19  2  0
 13 20  1  0
 20 21  1  0
 21 22  1  0
 22 23  2  3
 23 24  1  0
 24 25  1  0
 25 26  1  0
 26 27  2  0
 15 29  1  0
 28 29  1  0
 17 30  1  0
 30 31  2  3
 31 32  1  0
 30 33  1  0
 33 34  1  0
 32 35  2  0
 18 28  1  0
  1  2  2  0
  2  3  1  0
  3  8  2  0
  8  7  1  0
  7  6  2  0
  6  1  1  0
M  END

$$$$
No_831-/dssg/home/sw_qyf/PocketFlow/Model-Generation-Results/5HT2A_7WC7_rec_A_10.pdb/2024-01-01-03-54-21/
     RDKit          3D

  9  8  0  0  0  0  0  0  0  0999 V2000
  -24.1553  -17.8465  145.7021 C   0  0  0  0  0  0  0  0  0  0  0  0
  -24.2856  -16.6364  145.3494 C   0  0  0  0  0  0  0  0  0  0  0  0
  -25.0033  -15.6772  146.0737 C   0  0  0  0  0  0  0  0  0  0  0  0
  -24.8869  -14.2981  145.8377 C   0  0  0  0  0  0  0  0  0  0  0  0
  -24.0151  -13.8866  144.8228 C   0  0  0  0  0  0  0  0  0  0  0  0
  -23.7896  -12.5003  144.5990 C   0  0  0  0  0  0  0  0  0  0  0  0
  -24.9641  -18.4010  146.6832 C   0  0  0  0  0  0  0  0  0  0  0  0
  -24.5599  -11.6096  145.3889 C   0  0  0  0  0  0  0  0  0  0  0  0
  -25.5403  -11.9749  146.3076 C   0  0  0  0  0  0  0  0  0  0  0  0
  1  2  1  0
  2  3  1  0
  3  4  1  0
  4  5  3  0
  5  6  1  0
  1  7  2  0
  6  8  2  3
  8  9  1  0
M  END

$$$$
No_832-/dssg/home/sw_qyf/PocketFlow/Model-Generation-Results/5HT2A_7WC7_rec_A_10.pdb/2024-01-01-03-54-21/
     RDKit          3D

 35 38  0  0  0  0  0  0  0  0999 V2000
  -24.1553  -17.8465  145.7021 C   0  0  0  0  0  0  0  0  0  0  0  0
  -23.9795  -18.4462  146.7426 C   0  0  0  0  0  0  0  0  0  0  0  0
  -24.3577  -16.4380  145.7329 C   0  0  0  0  0  0  0  0  0  0  0  0
  -24.4745  -15.6012  144.5587 C   0  0  0  0  0  0  0  0  0  0  0  0
  -24.5845  -14.1656  144.8311 C   0  0  0  0  0  0  0  0  0  0  0  0
  -24.6908  -13.6330  146.1427 C   0  0  0  0  0  0  0  0  0  0  0  0
  -24.6742  -12.2578  146.3968 C   0  0  0  0  0  0  0  0  0  0  0  0
  -23.9827  -17.8753  148.0839 C   0  0  0  0  0  0  0  0  0  0  0  0
  -24.2674  -16.4832  148.1889 C   0  0  0  0  0  0  0  0  0  0  0  0
  -24.4278  -15.7419  147.0519 C   0  0  0  0  0  0  0  0  0  0  0  0
  -24.5822  -14.3700  147.1589 N   0  0  0  0  0  0  0  0  0  0  0  0
  -25.8353  -11.5414  145.6995 C   0  0  0  0  0  0  0  0  0  0  0  0
  -25.6854  -10.7767  144.6087 C   0  0  0  0  0  0  0  0  0  0  0  0
  -26.8061  -10.0411  144.1274 C   0  0  0  0  0  0  0  0  0  0  0  0
  -27.9063  -10.6963  143.5601 C   0  0  0  0  0  0  0  0  0  0  0  0
  -28.9142  -10.8683  144.6731 C   0  0  0  0  0  0  0  0  0  0  0  0
  -30.0710  -10.0033  144.7376 C   0  0  0  0  0  0  0  0  0  0  0  0
  -30.3630   -9.4802  143.7039 O   0  0  0  0  0  0  0  0  0  0  0  0
  -29.8902   -9.4934  142.7097 C   0  0  0  0  0  0  0  0  0  0  0  0
  -28.5064   -9.9616  142.5932 C   0  0  0  0  0  0  0  0  0  0  0  0
  -30.1600   -8.1656  141.9122 C   0  0  0  0  0  0  0  0  0  0  0  0
  -30.4307   -7.1144  142.6549 C   0  0  0  0  0  0  0  0  0  0  0  0
  -29.9013   -7.9877  140.5480 C   0  0  0  0  0  0  0  0  0  0  0  0
  -28.8410  -12.0537  145.5698 C   0  0  0  0  0  0  0  0  0  0  0  0
  -29.5315  -12.0063  146.8055 C   0  0  0  0  0  0  0  0  0  0  0  0
  -29.4061  -13.0323  147.7983 C   0  0  0  0  0  0  0  0  0  0  0  0
  -28.7883  -14.2462  147.3912 C   0  0  0  0  0  0  0  0  0  0  0  0
  -27.9638  -14.2930  146.2515 C   0  0  0  0  0  0  0  0  0  0  0  0
  -28.0105  -13.2173  145.3911 C   0  0  0  0  0  0  0  0  0  0  0  0
  -28.6830   -7.9810  139.9146 C   0  0  0  0  0  0  0  0  0  0  0  0
  -28.5563   -7.9965  138.5034 C   0  0  0  0  0  0  0  0  0  0  0  0
  -27.4503   -8.6613  137.9651 C   0  0  0  0  0  0  0  0  0  0  0  0
  -26.7168   -9.5422  138.8816 C   0  0  0  0  0  0  0  0  0  0  0  0
  -27.1101  -10.9033  139.1222 C   0  0  0  0  0  0  0  0  0  0  0  0
  -26.3008  -11.9954  138.9682 C   0  0  0  0  0  0  0  0  0  0  0  0
  3  4  1  0
  4  5  1  0
  5  6  1  0
  6  7  1  0
  6 11  1  0
 10 11  1  0
  7 12  1  0
 12 13  2  3
 13 14  1  0
 14 15  1  0
 15 16  1  0
 16 17  1  0
 17 18  1  0
 18 19  1  0
 15 20  1  0
 19 20  1  0
 19 21  1  0
 21 22  1  0
 21 23  1  0
 16 24  1  0
 23 30  2  3
 30 31  1  0
 31 32  2  3
 32 33  1  0
 33 34  1  0
 34 35  2  0
 24 25  2  0
 25 26  1  0
 26 27  2  0
 27 28  1  0
 28 29  2  0
 29 24  1  0
  1  2  2  0
  2  8  1  0
  8  9  2  0
  9 10  1  0
 10  3  2  0
  3  1  1  0
M  END

$$$$
No_833-/dssg/home/sw_qyf/PocketFlow/Model-Generation-Results/5HT2A_7WC7_rec_A_10.pdb/2024-01-01-03-54-21/
     RDKit          3D

 35 36  0  0  0  0  0  0  0  0999 V2000
  -23.1746  -16.6014  144.8668 C   0  0  0  0  0  0  0  0  0  0  0  0
  -23.8963  -15.5346  144.7885 C   0  0  0  0  0  0  0  0  0  0  0  0
  -23.6398  -14.5115  145.3281 C   0  0  0  0  0  0  0  0  0  0  0  0
  -24.6397  -13.8424  146.2286 C   0  0  0  0  0  0  0  0  0  0  0  0
  -25.5796  -12.8818  145.7656 C   0  0  0  0  0  0  0  0  0  0  0  0
  -26.9029  -13.1664  146.0271 C   0  0  0  0  0  0  0  0  0  0  0  0
  -27.6231  -12.4628  145.9700 C   0  0  0  0  0  0  0  0  0  0  0  0
  -27.4946  -11.1455  145.2105 C   0  0  0  0  0  0  0  0  0  0  0  0
  -26.1695  -10.8246  144.9073 C   0  0  0  0  0  0  0  0  0  0  0  0
  -25.1600  -11.6350  145.2968 C   0  0  0  0  0  0  0  0  0  0  0  0
  -23.6886  -17.5723  145.8917 C   0  0  0  0  0  0  0  0  0  0  0  0
  -23.4802  -17.0914  147.1301 C   0  0  0  0  0  0  0  0  0  0  0  0
  -24.5002  -17.4496  148.1707 C   0  0  0  0  0  0  0  0  0  0  0  0
  -24.3133  -17.4600  149.1809 C   0  0  0  0  0  0  0  0  0  0  0  0
  -25.2782  -17.6622  150.3227 C   0  0  0  0  0  0  0  0  0  0  0  0
  -29.1041  -12.6913  146.4588 C   0  0  0  0  0  0  0  0  0  0  0  0
  -29.4322  -13.8461  146.9642 N   0  0  0  0  0  0  0  0  0  0  0  0
  -30.0071  -11.7125  146.4248 O   0  0  0  0  0  0  0  0  0  0  0  0
  -26.6072  -17.4120  150.0239 C   0  0  0  0  0  0  0  0  0  0  0  0
  -26.8882  -17.1138  148.7053 C   0  0  0  0  0  0  0  0  0  0  0  0
  -25.8760  -16.9810  147.7357 C   0  0  0  0  0  0  0  0  0  0  0  0
  -22.7250  -13.5225  144.8190 C   0  0  0  0  0  0  0  0  0  0  0  0
  -28.3060  -16.7769  148.3962 C   0  0  0  0  0  0  0  0  0  0  0  0
  -28.5420  -16.1850  147.2930 O   0  0  0  0  0  0  0  0  0  0  0  0
  -29.2790  -17.1630  149.2097 N   0  0  0  0  0  0  0  0  0  0  0  0
  -30.5570  -14.1042  147.6440 C   0  0  0  0  0  0  0  0  0  0  0  0
  -22.3512  -13.6764  143.4065 C   0  0  0  0  0  0  0  0  0  0  0  0
  -23.9970  -18.9290  145.6614 C   0  0  0  0  0  0  0  0  0  0  0  0
  -24.8903  -19.4616  146.4260 O   0  0  0  0  0  0  0  0  0  0  0  0
  -23.1954  -19.7180  145.1031 O   0  0  0  0  0  0  0  0  0  0  0  0
  -28.4969  -10.2425  144.9526 N   0  0  0  0  0  0  0  0  0  0  0  0
  -28.4025   -9.3678  143.8933 C   0  0  0  0  0  0  0  0  0  0  0  0
  -29.4509   -9.3527  142.9145 C   0  0  0  0  0  0  0  0  0  0  0  0
  -30.4955  -10.2176  142.8949 C   0  0  0  0  0  0  0  0  0  0  0  0
  -29.3980   -8.4011  141.8379 C   0  0  0  0  0  0  0  0  0  0  0  0
  1  2  1  0
  2  3  1  0
  3  4  1  0
  4  5  1  0
  1 11  1  0
 11 12  1  0
  7 16  1  0
 16 17  1  0
 16 18  2  0
  3 22  1  0
 20 23  1  0
 23 24  1  0
 23 25  1  0
 17 26  1  0
 22 27  1  0
 11 28  1  0
 28 29  1  0
 28 30  2  0
  8 31  1  0
 31 32  1  0
 32 33  1  0
 33 34  1  0
 33 35  1  0
 12 13  1  0
  5  6  2  0
  6  7  1  0
  7  8  2  0
  8  9  1  0
  9 10  2  0
 10  5  1  0
 13 14  2  0
 14 15  1  0
 15 19  2  0
 19 20  1  0
 20 21  2  0
 21 13  1  0
M  END

$$$$
No_834-/dssg/home/sw_qyf/PocketFlow/Model-Generation-Results/5HT2A_7WC7_rec_A_10.pdb/2024-01-01-03-54-21/
     RDKit          3D

 35 38  0  0  0  0  0  0  0  0999 V2000
  -24.1553  -17.8465  145.7021 C   0  0  0  0  0  0  0  0  0  0  0  0
  -24.2856  -16.6364  145.3494 C   0  0  0  0  0  0  0  0  0  0  0  0
  -24.7211  -15.5955  146.2116 C   0  0  0  0  0  0  0  0  0  0  0  0
  -24.8538  -14.2010  145.8739 C   0  0  0  0  0  0  0  0  0  0  0  0
  -24.1440  -13.8321  144.7074 C   0  0  0  0  0  0  0  0  0  0  0  0
  -23.4275  -14.8130  143.9942 C   0  0  0  0  0  0  0  0  0  0  0  0
  -23.5366  -16.0900  144.3641 N   0  0  0  0  0  0  0  0  0  0  0  0
  -23.4871  -18.3821  146.7583 C   0  0  0  0  0  0  0  0  0  0  0  0
  -22.9424  -17.3491  147.6901 C   0  0  0  0  0  0  0  0  0  0  0  0
  -23.8896  -16.1088  147.7801 C   0  0  0  0  0  0  0  0  0  0  0  0
  -24.0791  -12.5153  144.4827 O   0  0  0  0  0  0  0  0  0  0  0  0
  -23.1347  -11.9081  145.4436 C   0  0  0  0  0  0  0  0  0  0  0  0
  -25.4426  -13.3720  146.9205 C   0  0  0  0  0  0  0  0  0  0  0  0
  -25.2469  -11.9361  146.7258 C   0  0  0  0  0  0  0  0  0  0  0  0
  -26.1491  -11.2050  147.4121 O   0  0  0  0  0  0  0  0  0  0  0  0
  -24.2382  -11.2829  145.9342 C   0  0  0  0  0  0  0  0  0  0  0  0
  -22.2813  -11.2342  144.5352 C   0  0  0  0  0  0  0  0  0  0  0  0
  -26.2804  -16.0172  146.5233 C   0  0  0  0  0  0  0  0  0  0  0  0
  -27.2021  -15.3663  145.9794 C   0  0  0  0  0  0  0  0  0  0  0  0
  -28.5920  -15.5235  146.4199 C   0  0  0  0  0  0  0  0  0  0  0  0
  -29.5430  -14.4483  146.4165 C   0  0  0  0  0  0  0  0  0  0  0  0
  -30.4410  -14.2045  147.5610 C   0  0  0  0  0  0  0  0  0  0  0  0
  -30.8940  -12.8789  147.8492 C   0  0  0  0  0  0  0  0  0  0  0  0
  -30.2077  -11.7974  147.1256 C   0  0  0  0  0  0  0  0  0  0  0  0
  -29.2497  -12.0254  146.1327 C   0  0  0  0  0  0  0  0  0  0  0  0
  -28.7838  -13.3231  145.9264 C   0  0  0  0  0  0  0  0  0  0  0  0
  -31.8530  -12.5589  148.8822 C   0  0  0  0  0  0  0  0  0  0  0  0
  -32.4609  -13.2320  149.4678 O   0  0  0  0  0  0  0  0  0  0  0  0
  -31.5207  -11.3726  149.5438 O   0  0  0  0  0  0  0  0  0  0  0  0
  -28.7170  -10.8881  145.3772 C   0  0  0  0  0  0  0  0  0  0  0  0
  -29.5435   -9.9583  144.6655 C   0  0  0  0  0  0  0  0  0  0  0  0
  -29.1729   -9.3463  143.4888 C   0  0  0  0  0  0  0  0  0  0  0  0
  -29.7727   -8.2086  143.0956 C   0  0  0  0  0  0  0  0  0  0  0  0
  -29.3267   -7.4133  142.0214 C   0  0  0  0  0  0  0  0  0  0  0  0
  -29.6437   -6.0341  141.8290 C   0  0  0  0  0  0  0  0  0  0  0  0
  2  3  1  0
  3  4  1  0
  4  5  1  0
  5  6  1  0
  2  7  1  0
  6  7  1  0
  1  8  1  0
  3 10  1  0
  9 10  1  0
  5 11  1  0
 11 12  1  0
  4 13  1  0
 13 14  2  0
 14 15  1  0
 12 16  1  0
 14 16  1  0
 12 17  1  0
  3 18  1  0
 18 19  1  0
 19 20  2  3
 20 21  1  0
 23 27  1  0
 27 28  2  0
 27 29  1  0
 25 30  1  0
 30 31  1  0
 31 32  1  0
 32 33  1  0
 33 34  2  3
 34 35  1  0
  2  1  1  0
  8  9  1  0
 21 22  2  0
 22 23  1  0
 23 24  2  0
 24 25  1  0
 25 26  2  0
 26 21  1  0
M  END

$$$$
No_835-/dssg/home/sw_qyf/PocketFlow/Model-Generation-Results/5HT2A_7WC7_rec_A_10.pdb/2024-01-01-03-54-21/
     RDKit          3D

 24 26  0  0  0  0  0  0  0  0999 V2000
  -24.1553  -17.8465  145.7021 C   0  0  0  0  0  0  0  0  0  0  0  0
  -24.6364  -17.2931  146.7091 C   0  0  0  0  0  0  0  0  0  0  0  0
  -24.0780  -17.2921  147.9389 C   0  0  0  0  0  0  0  0  0  0  0  0
  -22.7158  -17.6979  148.0096 C   0  0  0  0  0  0  0  0  0  0  0  0
  -22.1285  -18.1651  146.8427 C   0  0  0  0  0  0  0  0  0  0  0  0
  -22.8309  -18.1998  145.7035 C   0  0  0  0  0  0  0  0  0  0  0  0
  -26.1305  -16.8542  146.7059 C   0  0  0  0  0  0  0  0  0  0  0  0
  -26.4599  -15.4284  146.8635 C   0  0  0  0  0  0  0  0  0  0  0  0
  -25.4471  -14.5307  146.7757 C   0  0  0  0  0  0  0  0  0  0  0  0
  -25.7274  -13.1290  146.5644 C   0  0  0  0  0  0  0  0  0  0  0  0
  -24.6498  -12.2243  146.2621 C   0  0  0  0  0  0  0  0  0  0  0  0
  -27.0892  -12.7860  146.4257 C   0  0  0  0  0  0  0  0  0  0  0  0
  -28.0992  -13.7371  146.6159 C   0  0  0  0  0  0  0  0  0  0  0  0
  -27.7631  -15.0796  146.7662 C   0  0  0  0  0  0  0  0  0  0  0  0
  -24.9262  -11.2035  145.4406 N   0  0  0  0  0  0  0  0  0  0  0  0
  -23.4569  -12.3841  146.6915 O   0  0  0  0  0  0  0  0  0  0  0  0
  -27.0054  -17.6769  146.4384 O   0  0  0  0  0  0  0  0  0  0  0  0
  -29.7361  -13.2461  146.5600 Cl  0  0  0  0  0  0  0  0  0  0  0  0
  -26.1883  -10.8156  144.9381 C   0  0  0  0  0  0  0  0  0  0  0  0
  -27.2915  -11.6140  145.4997 C   0  0  0  0  0  0  0  0  0  0  0  0
  -26.4030   -9.7515  144.3271 N   0  0  0  0  0  0  0  0  0  0  0  0
  -28.9793  -11.0741  145.0359 Br  0  0  0  0  0  0  0  0  0  0  0  0
  -24.7962  -16.6064  149.4176 Cl  0  0  0  0  0  0  0  0  0  0  0  0
  -28.7312  -15.9483  146.9653 O   0  0  0  0  0  0  0  0  0  0  0  0
  2  7  1  0
  7  8  1  0
 10 11  1  0
 11 15  1  0
 11 16  2  0
  7 17  2  0
 13 18  1  0
 15 19  1  0
 12 20  1  0
 19 20  1  0
 19 21  1  0
 20 22  1  0
  3 23  1  0
 14 24  1  0
  1  2  2  0
  2  3  1  0
  3  4  2  0
  4  5  1  0
  5  6  2  0
  6  1  1  0
  8  9  2  0
  9 10  1  0
 10 12  2  0
 12 13  1  0
 13 14  2  0
 14  8  1  0
M  END

$$$$
No_836-/dssg/home/sw_qyf/PocketFlow/Model-Generation-Results/5HT2A_7WC7_rec_A_10.pdb/2024-01-01-03-54-21/
     RDKit          3D

 35 36  0  0  0  0  0  0  0  0999 V2000
  -23.8931  -18.2534  145.3804 F   0  0  0  0  0  0  0  0  0  0  0  0
  -24.1483  -17.4442  146.3400 C   0  0  0  0  0  0  0  0  0  0  0  0
  -24.4181  -16.0969  145.9075 C   0  0  0  0  0  0  0  0  0  0  0  0
  -24.0234  -15.7071  144.6250 C   0  0  0  0  0  0  0  0  0  0  0  0
  -23.7495  -14.2609  144.5182 C   0  0  0  0  0  0  0  0  0  0  0  0
  -23.0606  -17.4608  147.1806 F   0  0  0  0  0  0  0  0  0  0  0  0
  -24.3958  -13.4107  143.8028 C   0  0  0  0  0  0  0  0  0  0  0  0
  -24.9302  -17.9900  147.3050 F   0  0  0  0  0  0  0  0  0  0  0  0
  -25.6024  -13.0825  144.6085 C   0  0  0  0  0  0  0  0  0  0  0  0
  -25.5343  -11.9587  145.2833 C   0  0  0  0  0  0  0  0  0  0  0  0
  -25.0507  -11.8745  146.3571 C   0  0  0  0  0  0  0  0  0  0  0  0
  -26.0932  -10.6812  144.6938 C   0  0  0  0  0  0  0  0  0  0  0  0
  -27.4165  -10.2227  145.1319 C   0  0  0  0  0  0  0  0  0  0  0  0
  -28.4907  -10.7823  144.4721 C   0  0  0  0  0  0  0  0  0  0  0  0
  -28.6935  -11.2310  143.6012 C   0  0  0  0  0  0  0  0  0  0  0  0
  -27.5921  -11.4994  142.6345 C   0  0  0  0  0  0  0  0  0  0  0  0
  -28.0291  -11.8298  141.2063 C   0  0  0  0  0  0  0  0  0  0  0  0
  -28.3902  -10.7906  140.4162 C   0  0  0  0  0  0  0  0  0  0  0  0
  -28.8881   -9.5695  140.9417 C   0  0  0  0  0  0  0  0  0  0  0  0
  -29.1359   -8.4612  140.1076 C   0  0  0  0  0  0  0  0  0  0  0  0
  -28.7688   -8.5249  138.7598 C   0  0  0  0  0  0  0  0  0  0  0  0
  -28.1343   -9.6769  138.3131 C   0  0  0  0  0  0  0  0  0  0  0  0
  -27.9145  -10.7315  139.1027 C   0  0  0  0  0  0  0  0  0  0  0  0
  -29.6956   -7.2054  140.7377 C   0  0  0  0  0  0  0  0  0  0  0  0
  -29.0386   -6.1018  140.8018 N   0  0  0  0  0  0  0  0  0  0  0  0
  -30.7706   -7.3654  141.4045 O   0  0  0  0  0  0  0  0  0  0  0  0
  -27.3575  -11.9823  138.5589 C   0  0  0  0  0  0  0  0  0  0  0  0
  -29.7731  -10.4688  145.4841 C   0  0  0  0  0  0  0  0  0  0  0  0
  -29.9727  -11.6141  146.2604 F   0  0  0  0  0  0  0  0  0  0  0  0
  -29.6252   -9.4094  146.3153 F   0  0  0  0  0  0  0  0  0  0  0  0
  -30.8650  -10.2206  144.8358 F   0  0  0  0  0  0  0  0  0  0  0  0
  -24.8166  -14.3102  142.6919 F   0  0  0  0  0  0  0  0  0  0  0  0
  -27.9431  -13.1518  140.8176 C   0  0  0  0  0  0  0  0  0  0  0  0
  -27.2760  -13.1102  139.5254 C   0  0  0  0  0  0  0  0  0  0  0  0
  -24.5985  -13.1023  147.1061 C   0  0  0  0  0  0  0  0  0  0  0  0
  1  2  1  0
  2  3  1  0
  3  4  1  0
  4  5  1  0
  2  6  1  0
  5  7  1  0
  2  8  1  0
  7  9  1  0
  9 10  1  0
 10 11  2  3
 10 12  1  0
 12 13  1  0
 13 14  1  0
 14 15  2  3
 15 16  1  0
 16 17  1  0
 20 24  1  0
 24 25  1  0
 24 26  2  0
 14 28  1  0
 28 29  1  0
 28 30  1  0
 28 31  1  0
  7 32  1  0
 11 35  1  0
 18 19  1  0
 19 20  2  0
 20 21  1  0
 21 22  2  0
 22 23  1  0
 17 18  2  0
 18 23  1  0
 23 27  2  0
 27 34  1  0
 34 33  2  0
 33 17  1  0
M  END

$$$$
No_837-/dssg/home/sw_qyf/PocketFlow/Model-Generation-Results/5HT2A_7WC7_rec_A_10.pdb/2024-01-01-03-54-21/
     RDKit          3D

 15 15  0  0  0  0  0  0  0  0999 V2000
  -24.1553  -17.8465  145.7021 C   0  0  0  0  0  0  0  0  0  0  0  0
  -23.9795  -18.4462  146.7426 C   0  0  0  0  0  0  0  0  0  0  0  0
  -23.3558  -17.2450  144.9339 C   0  0  0  0  0  0  0  0  0  0  0  0
  -22.6601  -18.2018  147.3440 C   0  0  0  0  0  0  0  0  0  0  0  0
  -22.5897  -18.5669  148.5730 F   0  0  0  0  0  0  0  0  0  0  0  0
  -23.8426  -16.2971  143.8313 C   0  0  0  0  0  0  0  0  0  0  0  0
  -24.1853  -14.9425  144.4662 C   0  0  0  0  0  0  0  0  0  0  0  0
  -25.3044  -14.8669  145.2984 C   0  0  0  0  0  0  0  0  0  0  0  0
  -25.0986  -13.9862  146.3450 C   0  0  0  0  0  0  0  0  0  0  0  0
  -24.2602  -12.7849  146.1947 C   0  0  0  0  0  0  0  0  0  0  0  0
  -23.3232  -12.7755  145.1880 C   0  0  0  0  0  0  0  0  0  0  0  0
  -23.2551  -13.8893  144.3798 C   0  0  0  0  0  0  0  0  0  0  0  0
  -22.5302  -11.7920  145.1443 F   0  0  0  0  0  0  0  0  0  0  0  0
  -21.7050  -18.7905  146.7498 F   0  0  0  0  0  0  0  0  0  0  0  0
  -22.4078  -16.8416  147.5482 O   0  0  0  0  0  0  0  0  0  0  0  0
  1  2  2  3
  1  3  1  0
  2  4  1  0
  4  5  1  0
  3  6  1  0
  6  7  1  0
 11 13  1  0
  4 14  1  0
  4 15  1  0
  7  8  2  0
  8  9  1  0
  9 10  2  0
 10 11  1  0
 11 12  2  0
 12  7  1  0
M  END

$$$$
No_838-/dssg/home/sw_qyf/PocketFlow/Model-Generation-Results/5HT2A_7WC7_rec_A_10.pdb/2024-01-01-03-54-21/
     RDKit          3D

 35 38  0  0  0  0  0  0  0  0999 V2000
  -23.1746  -16.6014  144.8668 C   0  0  0  0  0  0  0  0  0  0  0  0
  -24.0189  -16.0564  145.8445 C   0  0  0  0  0  0  0  0  0  0  0  0
  -24.4145  -16.8299  146.9062 C   0  0  0  0  0  0  0  0  0  0  0  0
  -23.9612  -18.1384  147.0126 C   0  0  0  0  0  0  0  0  0  0  0  0
  -23.1429  -18.6221  146.0418 C   0  0  0  0  0  0  0  0  0  0  0  0
  -22.8095  -17.8231  145.0610 N   0  0  0  0  0  0  0  0  0  0  0  0
  -24.5671  -14.6439  145.6745 C   0  0  0  0  0  0  0  0  0  0  0  0
  -23.7199  -13.6057  145.4272 C   0  0  0  0  0  0  0  0  0  0  0  0
  -24.1875  -12.2632  145.3560 C   0  0  0  0  0  0  0  0  0  0  0  0
  -25.5235  -11.9607  145.6768 C   0  0  0  0  0  0  0  0  0  0  0  0
  -26.3987  -13.0053  146.0456 C   0  0  0  0  0  0  0  0  0  0  0  0
  -25.9266  -14.3501  146.1078 C   0  0  0  0  0  0  0  0  0  0  0  0
  -27.8030  -12.7637  146.4618 C   0  0  0  0  0  0  0  0  0  0  0  0
  -28.5634  -13.6714  147.0639 C   0  0  0  0  0  0  0  0  0  0  0  0
  -29.9077  -13.3688  147.4913 C   0  0  0  0  0  0  0  0  0  0  0  0
  -30.3659  -12.0831  147.2215 C   0  0  0  0  0  0  0  0  0  0  0  0
  -29.5700  -11.1359  146.5609 C   0  0  0  0  0  0  0  0  0  0  0  0
  -28.2980  -11.4705  146.1620 C   0  0  0  0  0  0  0  0  0  0  0  0
  -30.6779  -14.1967  148.1439 O   0  0  0  0  0  0  0  0  0  0  0  0
  -22.8489  -15.9059  143.8707 O   0  0  0  0  0  0  0  0  0  0  0  0
  -25.8716  -10.6841  145.6484 O   0  0  0  0  0  0  0  0  0  0  0  0
  -26.7583  -10.3890  144.5240 C   0  0  0  0  0  0  0  0  0  0  0  0
  -28.1214  -10.5504  145.2172 C   0  0  0  0  0  0  0  0  0  0  0  0
  -26.6163  -11.1205  143.4684 O   0  0  0  0  0  0  0  0  0  0  0  0
  -29.0702   -9.7286  144.5656 C   0  0  0  0  0  0  0  0  0  0  0  0
  -28.7805   -9.0718  143.3097 C   0  0  0  0  0  0  0  0  0  0  0  0
  -29.7103   -8.1861  142.7602 C   0  0  0  0  0  0  0  0  0  0  0  0
  -30.3157   -8.5572  141.7132 C   0  0  0  0  0  0  0  0  0  0  0  0
  -30.2680   -7.7914  140.5432 N   0  0  0  0  0  0  0  0  0  0  0  0
  -29.8016   -8.3462  139.3538 C   0  0  0  0  0  0  0  0  0  0  0  0
  -28.4700   -8.8714  139.4802 C   0  0  0  0  0  0  0  0  0  0  0  0
  -28.1656   -9.8731  140.0534 C   0  0  0  0  0  0  0  0  0  0  0  0
  -26.9126  -10.5973  139.8911 C   0  0  0  0  0  0  0  0  0  0  0  0
  -27.0250  -12.0595  140.1555 C   0  0  0  0  0  0  0  0  0  0  0  0
  -27.6343  -12.4458  141.1181 O   0  0  0  0  0  0  0  0  0  0  0  0
  1  2  1  0
  3  4  1  0
  1  6  1  0
  5  6  1  0
  2  7  1  0
 11 13  1  0
 15 19  1  0
  1 20  2  0
 10 21  1  0
 21 22  1  0
 18 23  1  0
 22 23  1  0
 22 24  1  0
 23 25  1  0
 25 26  1  0
 26 27  2  3
 27 28  1  0
 28 29  1  0
 29 30  1  0
 30 31  1  0
 31 32  2  3
 32 33  1  0
 33 34  1  0
 34 35  1  0
  2  3  1  0
  4  5  1  0
 13 14  2  0
 14 15  1  0
 15 16  2  0
 16 17  1  0
 17 18  2  0
 18 13  1  0
  7  8  2  0
  8  9  1  0
  9 10  2  0
 10 11  1  0
 11 12  2  0
 12  7  1  0
M  END

$$$$
No_839-/dssg/home/sw_qyf/PocketFlow/Model-Generation-Results/5HT2A_7WC7_rec_A_10.pdb/2024-01-01-03-54-21/
     RDKit          3D

 35 36  0  0  0  0  0  0  0  0999 V2000
  -24.1553  -17.8465  145.7021 C   0  0  0  0  0  0  0  0  0  0  0  0
  -23.9795  -18.4462  146.7426 C   0  0  0  0  0  0  0  0  0  0  0  0
  -25.1593  -16.8262  145.6925 C   0  0  0  0  0  0  0  0  0  0  0  0
  -24.9465  -15.5961  144.9952 C   0  0  0  0  0  0  0  0  0  0  0  0
  -23.7545  -15.2259  144.5478 C   0  0  0  0  0  0  0  0  0  0  0  0
  -23.5397  -13.8065  144.1508 C   0  0  0  0  0  0  0  0  0  0  0  0
  -22.4861  -13.1934  145.1461 C   0  0  0  0  0  0  0  0  0  0  0  0
  -23.4379  -12.1634  145.8600 C   0  0  0  0  0  0  0  0  0  0  0  0
  -23.2697  -19.5872  146.7123 O   0  0  0  0  0  0  0  0  0  0  0  0
  -24.1616  -17.9924  147.9892 O   0  0  0  0  0  0  0  0  0  0  0  0
  -24.6854  -12.6819  146.3743 C   0  0  0  0  0  0  0  0  0  0  0  0
  -25.8598  -12.5490  145.6342 C   0  0  0  0  0  0  0  0  0  0  0  0
  -26.0219  -11.2281  145.1828 C   0  0  0  0  0  0  0  0  0  0  0  0
  -27.2169  -10.8181  144.5045 C   0  0  0  0  0  0  0  0  0  0  0  0
  -28.4401  -11.3000  144.9694 C   0  0  0  0  0  0  0  0  0  0  0  0
  -28.3782  -12.5188  145.7773 C   0  0  0  0  0  0  0  0  0  0  0  0
  -27.1242  -13.0565  146.1708 C   0  0  0  0  0  0  0  0  0  0  0  0
  -29.6764  -10.7248  144.5869 C   0  0  0  0  0  0  0  0  0  0  0  0
  -29.8000   -9.7481  143.5603 C   0  0  0  0  0  0  0  0  0  0  0  0
  -29.0179   -9.8614  142.4905 C   0  0  0  0  0  0  0  0  0  0  0  0
  -29.2188   -9.0148  141.4169 C   0  0  0  0  0  0  0  0  0  0  0  0
  -30.1720   -7.9029  141.6328 C   0  0  0  0  0  0  0  0  0  0  0  0
  -30.8940   -7.8048  142.8209 C   0  0  0  0  0  0  0  0  0  0  0  0
  -30.7207   -8.7007  143.7880 C   0  0  0  0  0  0  0  0  0  0  0  0
  -28.2949   -9.0731  140.3632 C   0  0  0  0  0  0  0  0  0  0  0  0
  -27.5970  -10.2425  140.0479 C   0  0  0  0  0  0  0  0  0  0  0  0
  -27.9557  -11.2347  139.3434 C   0  0  0  0  0  0  0  0  0  0  0  0
  -27.1055  -12.4440  139.1370 C   0  0  0  0  0  0  0  0  0  0  0  0
  -28.4061   -8.1295  139.2646 C   0  0  0  0  0  0  0  0  0  0  0  0
  -29.2085   -7.1811  139.3234 O   0  0  0  0  0  0  0  0  0  0  0  0
  -27.6809   -8.3557  138.1893 N   0  0  0  0  0  0  0  0  0  0  0  0
  -27.4618  -13.1373  138.2154 F   0  0  0  0  0  0  0  0  0  0  0  0
  -25.7819  -11.9418  138.9398 F   0  0  0  0  0  0  0  0  0  0  0  0
  -27.0644  -13.1514  140.3058 F   0  0  0  0  0  0  0  0  0  0  0  0
  -29.5125  -13.0519  146.1780 O   0  0  0  0  0  0  0  0  0  0  0  0
  1  2  1  0
  1  3  1  0
  3  4  1  0
  4  5  1  0
  5  6  1  0
  6  7  1  0
  7  8  1  0
  2  9  2  0
  2 10  1  0
  8 11  1  0
 11 12  1  0
 15 18  1  0
 18 19  1  0
 21 25  1  0
 25 26  2  3
 26 27  1  0
 27 28  1  0
 25 29  1  0
 29 30  2  0
 29 31  1  0
 28 32  1  0
 28 33  1  0
 28 34  1  0
 16 35  1  0
 12 13  2  0
 13 14  1  0
 14 15  2  0
 15 16  1  0
 16 17  2  0
 17 12  1  0
 19 20  2  0
 20 21  1  0
 21 22  2  0
 22 23  1  0
 23 24  2  0
 24 19  1  0
M  END

$$$$
No_840-/dssg/home/sw_qyf/PocketFlow/Model-Generation-Results/5HT2A_7WC7_rec_A_10.pdb/2024-01-01-03-54-21/
     RDKit          3D

 35 38  0  0  0  0  0  0  0  0999 V2000
  -24.1553  -17.8465  145.7021 C   0  0  0  0  0  0  0  0  0  0  0  0
  -24.6364  -17.2931  146.7091 C   0  0  0  0  0  0  0  0  0  0  0  0
  -25.8608  -16.5592  146.5934 C   0  0  0  0  0  0  0  0  0  0  0  0
  -26.9933  -16.9082  147.1889 C   0  0  0  0  0  0  0  0  0  0  0  0
  -28.0955  -16.0560  147.0139 C   0  0  0  0  0  0  0  0  0  0  0  0
  -28.0919  -14.8408  146.3452 C   0  0  0  0  0  0  0  0  0  0  0  0
  -29.1403  -13.9369  146.1998 C   0  0  0  0  0  0  0  0  0  0  0  0
  -23.9313  -16.9801  144.5489 C   0  0  0  0  0  0  0  0  0  0  0  0
  -24.8579  -15.8334  144.5500 C   0  0  0  0  0  0  0  0  0  0  0  0
  -25.7786  -15.6641  145.5642 C   0  0  0  0  0  0  0  0  0  0  0  0
  -26.8732  -14.6171  145.4866 C   0  0  0  0  0  0  0  0  0  0  0  0
  -28.7557  -12.4937  146.3241 C   0  0  0  0  0  0  0  0  0  0  0  0
  -29.5564  -11.6130  145.4307 C   0  0  0  0  0  0  0  0  0  0  0  0
  -28.8686  -10.6914  144.5611 C   0  0  0  0  0  0  0  0  0  0  0  0
  -27.4786  -10.6672  144.5803 C   0  0  0  0  0  0  0  0  0  0  0  0
  -26.8036   -9.7855  143.6960 C   0  0  0  0  0  0  0  0  0  0  0  0
  -29.6132   -9.5995  144.0323 C   0  0  0  0  0  0  0  0  0  0  0  0
  -29.9762   -9.6874  142.8709 C   0  0  0  0  0  0  0  0  0  0  0  0
  -29.4820  -10.1903  141.7552 C   0  0  0  0  0  0  0  0  0  0  0  0
  -31.3669   -9.0934  142.4969 C   0  0  0  0  0  0  0  0  0  0  0  0
  -32.3131   -9.2086  143.1969 O   0  0  0  0  0  0  0  0  0  0  0  0
  -28.2550  -10.1286  141.2068 C   0  0  0  0  0  0  0  0  0  0  0  0
  -27.1266   -9.8613  141.6907 C   0  0  0  0  0  0  0  0  0  0  0  0
  -26.8635   -9.7279  142.2610 C   0  0  0  0  0  0  0  0  0  0  0  0
  -31.3447   -7.9915  141.7234 O   0  0  0  0  0  0  0  0  0  0  0  0
  -28.4269  -10.3303  139.7636 C   0  0  0  0  0  0  0  0  0  0  0  0
  -24.0577  -17.4650  148.1891 C   0  0  0  0  0  0  0  0  0  0  0  0
  -24.7225  -17.6867  149.1557 O   0  0  0  0  0  0  0  0  0  0  0  0
  -22.7339  -17.1666  148.2878 O   0  0  0  0  0  0  0  0  0  0  0  0
  -28.2466   -9.2512  138.9885 C   0  0  0  0  0  0  0  0  0  0  0  0
  -28.7065   -9.0390  137.6765 C   0  0  0  0  0  0  0  0  0  0  0  0
  -28.3690   -7.8970  137.1543 N   0  0  0  0  0  0  0  0  0  0  0  0
  -26.4931  -10.0556  140.3556 N   0  0  0  0  0  0  0  0  0  0  0  0
  -26.8960   -9.4771  139.2699 C   0  0  0  0  0  0  0  0  0  0  0  0
  -26.7713  -13.6459  144.6984 O   0  0  0  0  0  0  0  0  0  0  0  0
  4  5  1  0
  6  7  1  0
  6 11  1  0
 10 11  1  0
  7 12  1  0
 12 13  1  0
 13 14  1  0
 14 15  2  3
 15 16  1  0
 14 17  1  0
 17 18  1  0
 18 19  1  0
 18 20  1  0
 20 21  1  0
 19 22  1  0
 16 24  1  0
 23 24  1  0
 20 25  2  0
  2 27  1  0
 27 28  2  0
 27 29  1  0
 30 31  1  0
 31 32  1  0
 11 35  2  0
  6  5  1  0
  4  3  1  0
 22 23  2  0
 23 33  1  0
 33 34  2  0
 34 30  1  0
 30 26  2  0
 26 22  1  0
  1  2  2  0
  2  3  1  0
  3 10  2  0
 10  9  1  0
  9  8  2  0
  8  1  1  0
M  END

$$$$
No_841-/dssg/home/sw_qyf/PocketFlow/Model-Generation-Results/5HT2A_7WC7_rec_A_10.pdb/2024-01-01-03-54-21/
     RDKit          3D

 27 28  0  0  0  0  0  0  0  0999 V2000
  -24.1553  -17.8465  145.7021 C   0  0  0  0  0  0  0  0  0  0  0  0
  -24.2856  -16.6364  145.3494 C   0  0  0  0  0  0  0  0  0  0  0  0
  -24.7838  -15.7223  145.8474 C   0  0  0  0  0  0  0  0  0  0  0  0
  -24.8736  -14.2869  145.3929 C   0  0  0  0  0  0  0  0  0  0  0  0
  -25.5953  -13.2445  145.9611 C   0  0  0  0  0  0  0  0  0  0  0  0
  -25.3343  -11.9118  145.7311 C   0  0  0  0  0  0  0  0  0  0  0  0
  -24.8472  -18.2482  146.8599 C   0  0  0  0  0  0  0  0  0  0  0  0
  -25.5247  -17.3090  147.5913 C   0  0  0  0  0  0  0  0  0  0  0  0
  -25.5619  -15.9722  147.1078 C   0  0  0  0  0  0  0  0  0  0  0  0
  -24.0855  -13.8579  144.2568 C   0  0  0  0  0  0  0  0  0  0  0  0
  -26.3991  -11.4133  145.0463 C   0  0  0  0  0  0  0  0  0  0  0  0
  -27.6830  -11.7382  145.3595 C   0  0  0  0  0  0  0  0  0  0  0  0
  -28.8458  -11.2729  144.7581 C   0  0  0  0  0  0  0  0  0  0  0  0
  -28.8432  -10.0124  144.3718 C   0  0  0  0  0  0  0  0  0  0  0  0
  -29.9613   -9.4113  143.7304 C   0  0  0  0  0  0  0  0  0  0  0  0
  -30.0329   -9.3041  142.3929 C   0  0  0  0  0  0  0  0  0  0  0  0
  -30.9519   -8.3072  141.8714 C   0  0  0  0  0  0  0  0  0  0  0  0
  -30.3486   -6.9765  142.0527 C   0  0  0  0  0  0  0  0  0  0  0  0
  -28.8375   -7.0706  142.0863 C   0  0  0  0  0  0  0  0  0  0  0  0
  -22.9591  -14.3745  144.3295 O   0  0  0  0  0  0  0  0  0  0  0  0
  -27.6739  -13.0484  146.1374 C   0  0  0  0  0  0  0  0  0  0  0  0
  -26.7605  -13.5971  146.5619 N   0  0  0  0  0  0  0  0  0  0  0  0
  -28.9135  -13.4919  146.4696 O   0  0  0  0  0  0  0  0  0  0  0  0
  -28.4934   -8.4850  141.7257 C   0  0  0  0  0  0  0  0  0  0  0  0
  -28.3146   -8.8351  140.3106 C   0  0  0  0  0  0  0  0  0  0  0  0
  -30.0399  -10.5904  141.6007 C   0  0  0  0  0  0  0  0  0  0  0  0
  -27.4374   -9.1202  142.6636 C   0  0  0  0  0  0  0  0  0  0  0  0
  3  4  1  0
  4  5  1  0
  5  6  1  0
  4 10  1  0
  6 11  1  0
 11 12  1  0
 12 13  2  3
 13 14  1  0
 14 15  1  0
 15 16  1  0
 16 17  1  0
 17 18  1  0
 18 19  1  0
 10 20  2  0
 12 21  1  0
  5 22  1  0
 21 22  1  0
 21 23  2  0
 19 24  1  0
 24 25  1  0
 16 26  1  0
 24 27  1  0
  1  2  2  0
  2  3  1  0
  3  9  2  0
  9  8  1  0
  8  7  2  0
  7  1  1  0
M  END

$$$$
No_842-/dssg/home/sw_qyf/PocketFlow/Model-Generation-Results/5HT2A_7WC7_rec_A_10.pdb/2024-01-01-03-54-21/
     RDKit          3D

 35 39  0  0  0  0  0  0  0  0999 V2000
  -23.8998  -17.8495  145.5131 N   0  0  0  0  0  0  0  0  0  0  0  0
  -24.1393  -18.2577  146.6176 C   0  0  0  0  0  0  0  0  0  0  0  0
  -24.0592  -16.5115  145.1603 C   0  0  0  0  0  0  0  0  0  0  0  0
  -23.7795  -15.8919  143.9728 C   0  0  0  0  0  0  0  0  0  0  0  0
  -24.3922  -17.4325  147.7160 N   0  0  0  0  0  0  0  0  0  0  0  0
  -24.5749  -16.1072  147.4678 C   0  0  0  0  0  0  0  0  0  0  0  0
  -24.3810  -15.5344  146.3061 C   0  0  0  0  0  0  0  0  0  0  0  0
  -24.1549  -14.4970  143.8862 C   0  0  0  0  0  0  0  0  0  0  0  0
  -24.6185  -13.7067  144.9455 C   0  0  0  0  0  0  0  0  0  0  0  0
  -24.6466  -14.2051  146.0436 C   0  0  0  0  0  0  0  0  0  0  0  0
  -24.0437  -19.5049  146.8806 O   0  0  0  0  0  0  0  0  0  0  0  0
  -24.7726  -12.3965  144.6310 O   0  0  0  0  0  0  0  0  0  0  0  0
  -26.0129  -11.8959  145.1556 C   0  0  0  0  0  0  0  0  0  0  0  0
  -26.5445  -10.7673  144.5684 C   0  0  0  0  0  0  0  0  0  0  0  0
  -27.9064  -10.6742  144.2625 C   0  0  0  0  0  0  0  0  0  0  0  0
  -28.4998   -9.8810  143.3178 C   0  0  0  0  0  0  0  0  0  0  0  0
  -29.5004   -9.4418  142.9740 C   0  0  0  0  0  0  0  0  0  0  0  0
  -29.8635   -8.6488  141.8383 C   0  0  0  0  0  0  0  0  0  0  0  0
  -30.6068   -7.4781  141.9700 C   0  0  0  0  0  0  0  0  0  0  0  0
  -31.5640   -7.4655  143.0465 C   0  0  0  0  0  0  0  0  0  0  0  0
  -31.4378   -8.3496  144.0690 C   0  0  0  0  0  0  0  0  0  0  0  0
  -30.3905   -9.2820  144.1516 C   0  0  0  0  0  0  0  0  0  0  0  0
  -28.9862   -8.7976  140.7157 C   0  0  0  0  0  0  0  0  0  0  0  0
  -28.8869   -7.8162  139.7442 C   0  0  0  0  0  0  0  0  0  0  0  0
  -28.2002   -8.0911  138.5044 C   0  0  0  0  0  0  0  0  0  0  0  0
  -27.5994   -9.3527  138.4522 C   0  0  0  0  0  0  0  0  0  0  0  0
  -27.6195  -10.2905  139.4918 C   0  0  0  0  0  0  0  0  0  0  0  0
  -28.3792  -10.0346  140.6214 C   0  0  0  0  0  0  0  0  0  0  0  0
  -26.9405  -11.5877  139.3281 C   0  0  0  0  0  0  0  0  0  0  0  0
  -26.7800  -12.3154  140.2537 O   0  0  0  0  0  0  0  0  0  0  0  0
  -26.3556  -11.8987  138.2280 O   0  0  0  0  0  0  0  0  0  0  0  0
  -27.1774  -12.7393  145.4918 C   0  0  0  0  0  0  0  0  0  0  0  0
  -28.4315  -12.3249  145.4398 C   0  0  0  0  0  0  0  0  0  0  0  0
  -28.8879  -11.4143  144.6322 C   0  0  0  0  0  0  0  0  0  0  0  0
  -26.8476  -14.0231  145.9619 O   0  0  0  0  0  0  0  0  0  0  0  0
  1  2  1  0
  1  3  1  0
  2  5  1  0
  5  6  1  0
  6  7  1  0
  2 11  2  0
  9 12  1  0
 12 13  1  0
 16 17  1  0
 18 23  1  0
 27 29  1  0
 29 30  2  0
 29 31  1  0
 32 35  1  0
 16 15  1  0
 23 24  2  0
 24 25  1  0
 25 26  2  0
 26 27  1  0
 27 28  2  0
 28 23  1  0
  3  4  2  0
  4  8  1  0
  8  9  2  0
  9 10  1  0
 10  7  2  0
  7  3  1  0
 17 18  1  0
 18 19  2  0
 19 20  1  0
 20 21  2  0
 21 22  1  0
 22 17  2  0
 13 14  2  0
 14 15  1  0
 15 34  2  0
 34 33  1  0
 33 32  2  0
 32 13  1  0
M  END

$$$$
No_843-/dssg/home/sw_qyf/PocketFlow/Model-Generation-Results/5HT2A_7WC7_rec_A_10.pdb/2024-01-01-03-54-21/
     RDKit          3D

 35 38  0  0  0  0  0  0  0  0999 V2000
  -24.1553  -17.8465  145.7021 C   0  0  0  0  0  0  0  0  0  0  0  0
  -24.2856  -16.6364  145.3494 C   0  0  0  0  0  0  0  0  0  0  0  0
  -24.7211  -15.5955  146.2116 C   0  0  0  0  0  0  0  0  0  0  0  0
  -25.1321  -16.0374  147.5372 C   0  0  0  0  0  0  0  0  0  0  0  0
  -24.5163  -18.2968  146.9928 C   0  0  0  0  0  0  0  0  0  0  0  0
  -24.9534  -17.3074  147.9886 C   0  0  0  0  0  0  0  0  0  0  0  0
  -24.8711  -14.1852  145.8109 C   0  0  0  0  0  0  0  0  0  0  0  0
  -23.9580  -13.6747  144.9500 C   0  0  0  0  0  0  0  0  0  0  0  0
  -23.5920  -12.2715  145.1484 C   0  0  0  0  0  0  0  0  0  0  0  0
  -24.4790  -11.4526  145.8766 C   0  0  0  0  0  0  0  0  0  0  0  0
  -25.5998  -13.1804  146.5864 C   0  0  0  0  0  0  0  0  0  0  0  0
  -25.3693  -11.9223  146.7292 C   0  0  0  0  0  0  0  0  0  0  0  0
  -23.8619  -16.0915  143.7567 Cl  0  0  0  0  0  0  0  0  0  0  0  0
  -25.2524  -17.7100  149.2581 N   0  0  0  0  0  0  0  0  0  0  0  0
  -25.0864  -16.8491  150.3939 C   0  0  0  0  0  0  0  0  0  0  0  0
  -24.9132  -17.6887  151.6596 C   0  0  0  0  0  0  0  0  0  0  0  0
  -23.7718  -18.8342  144.8540 O   0  0  0  0  0  0  0  0  0  0  0  0
  -22.5370  -11.7484  144.5439 O   0  0  0  0  0  0  0  0  0  0  0  0
  -26.1308  -16.5961  150.6601 C   0  0  0  0  0  0  0  0  0  0  0  0
  -27.0385  -17.2790  151.6583 C   0  0  0  0  0  0  0  0  0  0  0  0
  -26.9766  -18.4737  151.6899 C   0  0  0  0  0  0  0  0  0  0  0  0
  -25.6420  -18.6492  152.0396 N   0  0  0  0  0  0  0  0  0  0  0  0
  -27.7584  -19.1189  152.9006 C   0  0  0  0  0  0  0  0  0  0  0  0
  -28.7015  -18.2217  153.5236 C   0  0  0  0  0  0  0  0  0  0  0  0
  -27.7628  -20.4805  153.2615 C   0  0  0  0  0  0  0  0  0  0  0  0
  -28.8666  -21.0509  153.8128 C   0  0  0  0  0  0  0  0  0  0  0  0
  -29.6824  -18.8415  154.4467 C   0  0  0  0  0  0  0  0  0  0  0  0
  -29.7121  -20.2148  154.6193 C   0  0  0  0  0  0  0  0  0  0  0  0
  -28.7866  -22.5158  154.0444 C   0  0  0  0  0  0  0  0  0  0  0  0
  -28.7047  -23.1840  152.8246 C   0  0  0  0  0  0  0  0  0  0  0  0
  -28.5235  -24.6449  152.8808 C   0  0  0  0  0  0  0  0  0  0  0  0
  -29.4165  -25.3710  153.2865 C   0  0  0  0  0  0  0  0  0  0  0  0
  -29.2640  -26.8463  153.3697 C   0  0  0  0  0  0  0  0  0  0  0  0
  -28.1333  -27.3732  152.7383 C   0  0  0  0  0  0  0  0  0  0  0  0
  -27.1736  -26.5473  152.1514 C   0  0  0  0  0  0  0  0  0  0  0  0
  3  7  1  0
  2 13  1  0
  6 14  1  0
 14 15  1  0
  1 17  1  0
  9 18  1  0
 21 23  1  0
 26 29  1  0
 29 30  1  0
 30 31  1  0
 31 32  2  3
 32 33  1  0
 33 34  2  3
 34 35  1  0
  7  8  2  0
  8  9  1  0
  9 10  2  0
 10 12  1  0
 12 11  2  0
 11  7  1  0
 23 24  2  0
 24 27  1  0
 27 28  2  0
 28 26  1  0
 26 25  2  0
 25 23  1  0
  1  2  2  0
  2  3  1  0
  3  4  2  0
  4  6  1  0
  6  5  2  0
  5  1  1  0
 15 16  2  0
 16 22  1  0
 22 21  2  0
 21 20  1  0
 20 19  2  0
 19 15  1  0
M  END

$$$$
No_844-/dssg/home/sw_qyf/PocketFlow/Model-Generation-Results/5HT2A_7WC7_rec_A_10.pdb/2024-01-01-03-54-21/
     RDKit          3D

 18 19  0  0  0  0  0  0  0  0999 V2000
  -23.1746  -16.6014  144.8668 C   0  0  0  0  0  0  0  0  0  0  0  0
  -24.0189  -16.0564  145.8445 C   0  0  0  0  0  0  0  0  0  0  0  0
  -24.4145  -16.8299  146.9062 C   0  0  0  0  0  0  0  0  0  0  0  0
  -25.2730  -16.2838  147.9150 C   0  0  0  0  0  0  0  0  0  0  0  0
  -25.7557  -17.0717  149.0071 C   0  0  0  0  0  0  0  0  0  0  0  0
  -24.4328  -14.6402  145.6929 C   0  0  0  0  0  0  0  0  0  0  0  0
  -23.6936  -13.7189  145.5404 C   0  0  0  0  0  0  0  0  0  0  0  0
  -24.0389  -12.2879  145.6752 C   0  0  0  0  0  0  0  0  0  0  0  0
  -25.4067  -11.9744  145.9720 C   0  0  0  0  0  0  0  0  0  0  0  0
  -26.2828  -13.0663  146.2323 C   0  0  0  0  0  0  0  0  0  0  0  0
  -25.8412  -14.4083  146.1736 C   0  0  0  0  0  0  0  0  0  0  0  0
  -23.9640  -18.1552  147.0966 C   0  0  0  0  0  0  0  0  0  0  0  0
  -27.6812  -12.8416  146.6161 C   0  0  0  0  0  0  0  0  0  0  0  0
  -28.2617  -11.6536  146.3670 C   0  0  0  0  0  0  0  0  0  0  0  0
  -29.6999  -11.5123  146.6406 C   0  0  0  0  0  0  0  0  0  0  0  0
  -30.2803  -12.4180  147.3626 N   0  0  0  0  0  0  0  0  0  0  0  0
  -29.7261  -13.5833  147.6568 C   0  0  0  0  0  0  0  0  0  0  0  0
  -28.4025  -13.8258  147.3328 C   0  0  0  0  0  0  0  0  0  0  0  0
  1  2  1  0
  2  3  1  0
  3  4  1  0
  4  5  2  0
  2  6  1  0
  3 12  1  0
 10 13  1  0
 13 14  2  0
 14 15  1  0
 15 16  2  0
 16 17  1  0
 17 18  2  0
 18 13  1  0
  6  7  2  0
  7  8  1  0
  8  9  2  0
  9 10  1  0
 10 11  2  0
 11  6  1  0
M  END

$$$$
No_845-/dssg/home/sw_qyf/PocketFlow/Model-Generation-Results/5HT2A_7WC7_rec_A_10.pdb/2024-01-01-03-54-21/
     RDKit          3D

 17 18  0  0  0  0  0  0  0  0999 V2000
  -24.1553  -17.8465  145.7021 C   0  0  0  0  0  0  0  0  0  0  0  0
  -23.9795  -18.4462  146.7426 C   0  0  0  0  0  0  0  0  0  0  0  0
  -25.1593  -16.8262  145.6925 C   0  0  0  0  0  0  0  0  0  0  0  0
  -26.3426  -16.9003  146.3448 C   0  0  0  0  0  0  0  0  0  0  0  0
  -24.9078  -18.3640  147.8289 C   0  0  0  0  0  0  0  0  0  0  0  0
  -26.0312  -17.5122  147.7122 C   0  0  0  0  0  0  0  0  0  0  0  0
  -27.4996  -16.1150  146.1993 C   0  0  0  0  0  0  0  0  0  0  0  0
  -27.8219  -14.9876  146.4483 C   0  0  0  0  0  0  0  0  0  0  0  0
  -26.9412  -13.8450  146.3208 C   0  0  0  0  0  0  0  0  0  0  0  0
  -27.3830  -12.4888  146.4691 C   0  0  0  0  0  0  0  0  0  0  0  0
  -28.8223  -12.3187  146.6965 C   0  0  0  0  0  0  0  0  0  0  0  0
  -29.3751  -10.9804  146.7244 C   0  0  0  0  0  0  0  0  0  0  0  0
  -29.1128  -14.5745  147.0432 C   0  0  0  0  0  0  0  0  0  0  0  0
  -29.6354  -13.3520  147.0486 C   0  0  0  0  0  0  0  0  0  0  0  0
  -30.7357  -10.9179  146.1604 C   0  0  0  0  0  0  0  0  0  0  0  0
  -23.2904  -17.7270  144.6306 O   0  0  0  0  0  0  0  0  0  0  0  0
  -25.2537  -15.9929  144.5672 F   0  0  0  0  0  0  0  0  0  0  0  0
  4  7  1  0
 11 12  1  0
 12 15  1  0
  1 16  1  0
  3 17  1  0
  7  8  1  0
  8  9  2  0
  9 10  1  0
 10 11  2  0
 11 14  1  0
 14 13  2  0
 13  8  1  0
  1  2  2  0
  2  5  1  0
  5  6  2  0
  6  4  1  0
  4  3  2  0
  3  1  1  0
M  END

$$$$
No_846-/dssg/home/sw_qyf/PocketFlow/Model-Generation-Results/5HT2A_7WC7_rec_A_10.pdb/2024-01-01-03-54-21/
     RDKit          3D

 23 25  0  0  0  0  0  0  0  0999 V2000
  -24.1553  -17.8465  145.7021 C   0  0  0  0  0  0  0  0  0  0  0  0
  -23.9795  -18.4462  146.7426 C   0  0  0  0  0  0  0  0  0  0  0  0
  -25.1593  -16.8262  145.6925 C   0  0  0  0  0  0  0  0  0  0  0  0
  -24.9465  -15.5960  144.9952 C   0  0  0  0  0  0  0  0  0  0  0  0
  -25.8339  -14.4742  145.0599 C   0  0  0  0  0  0  0  0  0  0  0  0
  -25.6289  -13.3152  144.3271 C   0  0  0  0  0  0  0  0  0  0  0  0
  -26.3061  -12.2999  144.8790 C   0  0  0  0  0  0  0  0  0  0  0  0
  -25.5962  -11.3211  145.3840 C   0  0  0  0  0  0  0  0  0  0  0  0
  -24.4582  -17.9117  148.0239 C   0  0  0  0  0  0  0  0  0  0  0  0
  -25.4343  -16.9755  148.1178 C   0  0  0  0  0  0  0  0  0  0  0  0
  -25.6212  -16.1335  146.9510 C   0  0  0  0  0  0  0  0  0  0  0  0
  -26.2476  -14.8653  146.8546 C   0  0  0  0  0  0  0  0  0  0  0  0
  -27.7152  -11.9893  144.5903 C   0  0  0  0  0  0  0  0  0  0  0  0
  -28.1765  -10.8716  144.0532 C   0  0  0  0  0  0  0  0  0  0  0  0
  -27.6078  -10.0206  143.3351 C   0  0  0  0  0  0  0  0  0  0  0  0
  -29.5904  -10.4255  144.6192 C   0  0  0  0  0  0  0  0  0  0  0  0
  -30.1546  -11.0982  146.0528 Cl  0  0  0  0  0  0  0  0  0  0  0  0
  -30.3979   -9.5753  143.9097 C   0  0  0  0  0  0  0  0  0  0  0  0
  -31.8606   -9.2969  144.6600 Cl  0  0  0  0  0  0  0  0  0  0  0  0
  -29.9725   -9.0407  142.7717 C   0  0  0  0  0  0  0  0  0  0  0  0
  -28.5939   -9.2196  142.4114 C   0  0  0  0  0  0  0  0  0  0  0  0
  -30.7798   -8.1091  142.0066 C   0  0  0  0  0  0  0  0  0  0  0  0
  -30.6772   -8.0188  140.7327 O   0  0  0  0  0  0  0  0  0  0  0  0
  4  5  1  0
  5  6  1  0
  6  7  1  0
  7  8  1  0
  5 12  1  0
 11 12  1  0
  7 13  1  0
 13 14  1  0
 16 17  1  0
 18 19  1  0
 20 22  1  0
 22 23  1  0
  4  3  1  0
  1  2  2  0
  2  9  1  0
  9 10  2  0
 10 11  1  0
 11  3  2  0
  3  1  1  0
 14 15  2  0
 15 21  1  0
 21 20  2  0
 20 18  1  0
 18 16  2  0
 16 14  1  0
M  END

$$$$
No_847-/dssg/home/sw_qyf/PocketFlow/Model-Generation-Results/5HT2A_7WC7_rec_A_10.pdb/2024-01-01-03-54-21/
     RDKit          3D

 22 24  0  0  0  0  0  0  0  0999 V2000
  -24.1553  -17.8465  145.7021 C   0  0  0  0  0  0  0  0  0  0  0  0
  -23.9795  -18.4462  146.7426 C   0  0  0  0  0  0  0  0  0  0  0  0
  -24.3577  -16.4380  145.7329 C   0  0  0  0  0  0  0  0  0  0  0  0
  -24.6120  -15.7738  146.9649 C   0  0  0  0  0  0  0  0  0  0  0  0
  -24.4666  -16.5590  148.1483 C   0  0  0  0  0  0  0  0  0  0  0  0
  -24.1608  -17.8621  148.1048 C   0  0  0  0  0  0  0  0  0  0  0  0
  -24.4858  -15.5973  144.5498 C   0  0  0  0  0  0  0  0  0  0  0  0
  -24.7020  -14.1555  144.7612 C   0  0  0  0  0  0  0  0  0  0  0  0
  -23.7594  -13.2908  144.8275 C   0  0  0  0  0  0  0  0  0  0  0  0
  -23.9038  -11.8893  145.1527 C   0  0  0  0  0  0  0  0  0  0  0  0
  -25.2016  -11.4545  145.5101 C   0  0  0  0  0  0  0  0  0  0  0  0
  -26.2537  -12.4151  145.4669 C   0  0  0  0  0  0  0  0  0  0  0  0
  -25.9872  -13.7436  145.1337 C   0  0  0  0  0  0  0  0  0  0  0  0
  -27.6252  -11.9088  145.8242 C   0  0  0  0  0  0  0  0  0  0  0  0
  -28.3012  -12.5125  146.7842 C   0  0  0  0  0  0  0  0  0  0  0  0
  -29.6378  -12.0475  147.0743 C   0  0  0  0  0  0  0  0  0  0  0  0
  -30.4091  -12.6149  148.0627 N   0  0  0  0  0  0  0  0  0  0  0  0
  -30.5109  -10.9348  145.7976 Br  0  0  0  0  0  0  0  0  0  0  0  0
  -30.2747  -13.8982  148.4560 C   0  0  0  0  0  0  0  0  0  0  0  0
  -29.0410  -14.5917  148.0879 C   0  0  0  0  0  0  0  0  0  0  0  0
  -28.1252  -13.9104  147.2069 C   0  0  0  0  0  0  0  0  0  0  0  0
  -22.4805  -13.5885  144.4386 O   0  0  0  0  0  0  0  0  0  0  0  0
  3  7  1  0
  7  8  1  0
 12 14  1  0
 14 15  1  0
 16 18  1  0
  9 22  1  0
  1  2  2  0
  2  6  1  0
  6  5  2  0
  5  4  1  0
  4  3  2  0
  3  1  1  0
  8  9  2  0
  9 10  1  0
 10 11  2  0
 11 12  1  0
 12 13  2  0
 13  8  1  0
 15 16  2  0
 16 17  1  0
 17 19  2  0
 19 20  1  0
 20 21  2  0
 21 15  1  0
M  END

$$$$
No_848-/dssg/home/sw_qyf/PocketFlow/Model-Generation-Results/5HT2A_7WC7_rec_A_10.pdb/2024-01-01-03-54-21/
     RDKit          3D

 15 15  0  0  0  0  0  0  0  0999 V2000
  -24.1553  -17.8465  145.7021 C   0  0  0  0  0  0  0  0  0  0  0  0
  -23.9795  -18.4462  146.7426 C   0  0  0  0  0  0  0  0  0  0  0  0
  -25.1593  -16.8262  145.6925 C   0  0  0  0  0  0  0  0  0  0  0  0
  -26.3426  -16.9003  146.3448 C   0  0  0  0  0  0  0  0  0  0  0  0
  -24.0322  -17.9689  147.7984 C   0  0  0  0  0  0  0  0  0  0  0  0
  -26.1931  -16.7605  147.8824 C   0  0  0  0  0  0  0  0  0  0  0  0
  -25.2719  -17.5142  148.6029 C   0  0  0  0  0  0  0  0  0  0  0  0
  -23.5076  -17.8889  144.4698 N   0  0  0  0  0  0  0  0  0  0  0  0
  -25.1931  -15.7065  144.5939 C   0  0  0  0  0  0  0  0  0  0  0  0
  -24.9355  -14.3790  145.2211 C   0  0  0  0  0  0  0  0  0  0  0  0
  -26.0211  -13.5858  145.4324 C   0  0  0  0  0  0  0  0  0  0  0  0
  -27.2079  -13.8130  145.6120 C   0  0  0  0  0  0  0  0  0  0  0  0
  -28.2301  -12.8015  145.8773 C   0  0  0  0  0  0  0  0  0  0  0  0
  -27.9156  -11.4274  145.6792 C   0  0  0  0  0  0  0  0  0  0  0  0
  -26.5427  -11.0952  145.5019 C   0  0  0  0  0  0  0  0  0  0  0  0
  1  2  1  0
  1  3  1  0
  3  4  2  0
  2  5  1  0
  4  6  1  0
  5  7  1  0
  6  7  1  0
  1  8  1  0
  3  9  1  0
  9 10  1  0
 10 11  3  0
 11 12  1  0
 12 13  2  3
 13 14  1  0
 14 15  2  0
M  END

$$$$
No_849-/dssg/home/sw_qyf/PocketFlow/Model-Generation-Results/5HT2A_7WC7_rec_A_10.pdb/2024-01-01-03-54-21/
     RDKit          3D

 12 12  0  0  0  0  0  0  0  0999 V2000
  -24.1553  -17.8465  145.7021 C   0  0  0  0  0  0  0  0  0  0  0  0
  -23.9795  -18.4462  146.7426 C   0  0  0  0  0  0  0  0  0  0  0  0
  -25.1196  -16.8106  145.6409 C   0  0  0  0  0  0  0  0  0  0  0  0
  -25.2440  -15.8776  144.5240 C   0  0  0  0  0  0  0  0  0  0  0  0
  -26.0733  -14.7284  144.7061 C   0  0  0  0  0  0  0  0  0  0  0  0
  -27.0964  -14.7050  145.6625 C   0  0  0  0  0  0  0  0  0  0  0  0
  -27.1085  -15.7327  146.6117 C   0  0  0  0  0  0  0  0  0  0  0  0
  -26.1368  -16.7554  146.5717 C   0  0  0  0  0  0  0  0  0  0  0  0
  -23.5406  -18.0016  147.7254 C   0  0  0  0  0  0  0  0  0  0  0  0
  -23.7184  -16.6961  148.3439 C   0  0  0  0  0  0  0  0  0  0  0  0
  -24.8470  -16.0844  147.8955 C   0  0  0  0  0  0  0  0  0  0  0  0
  -25.3292  -14.9291  148.3652 F   0  0  0  0  0  0  0  0  0  0  0  0
  1  2  2  3
  1  3  1  0
  2  9  1  0
  9 10  2  3
 10 11  1  0
 11 12  1  0
  3  4  2  0
  4  5  1  0
  5  6  2  0
  6  7  1  0
  7  8  2  0
  8  3  1  0
M  END

$$$$
No_850-/dssg/home/sw_qyf/PocketFlow/Model-Generation-Results/5HT2A_7WC7_rec_A_10.pdb/2024-01-01-03-54-21/
     RDKit          3D

 26 27  0  0  0  0  0  0  0  0999 V2000
  -23.1746  -16.6014  144.8668 C   0  0  0  0  0  0  0  0  0  0  0  0
  -23.7011  -17.0158  145.9774 C   0  0  0  0  0  0  0  0  0  0  0  0
  -24.2134  -16.0722  146.8877 C   0  0  0  0  0  0  0  0  0  0  0  0
  -24.5407  -14.7704  146.3553 C   0  0  0  0  0  0  0  0  0  0  0  0
  -24.1477  -14.4045  145.0969 C   0  0  0  0  0  0  0  0  0  0  0  0
  -23.3867  -15.3023  144.3541 C   0  0  0  0  0  0  0  0  0  0  0  0
  -23.6231  -18.4101  146.5082 C   0  0  0  0  0  0  0  0  0  0  0  0
  -24.3979  -13.0331  144.6661 C   0  0  0  0  0  0  0  0  0  0  0  0
  -24.4929  -12.2610  145.6352 O   0  0  0  0  0  0  0  0  0  0  0  0
  -24.1030  -18.7905  147.5308 O   0  0  0  0  0  0  0  0  0  0  0  0
  -22.6399  -19.1583  146.0552 O   0  0  0  0  0  0  0  0  0  0  0  0
  -25.4979  -11.2692  145.5916 C   0  0  0  0  0  0  0  0  0  0  0  0
  -26.6871  -11.7907  145.0998 C   0  0  0  0  0  0  0  0  0  0  0  0
  -27.6797  -10.8014  144.7710 C   0  0  0  0  0  0  0  0  0  0  0  0
  -29.0866  -11.0495  145.0612 C   0  0  0  0  0  0  0  0  0  0  0  0
  -30.0428  -10.3558  144.4899 O   0  0  0  0  0  0  0  0  0  0  0  0
  -29.3222  -11.6497  146.2771 O   0  0  0  0  0  0  0  0  0  0  0  0
  -29.8969   -9.7471  143.3773 C   0  0  0  0  0  0  0  0  0  0  0  0
  -30.3429   -8.3934  143.4150 C   0  0  0  0  0  0  0  0  0  0  0  0
  -30.2268   -7.5957  142.2094 C   0  0  0  0  0  0  0  0  0  0  0  0
  -29.4606   -8.1813  141.1482 C   0  0  0  0  0  0  0  0  0  0  0  0
  -29.3440   -7.4376  139.9320 C   0  0  0  0  0  0  0  0  0  0  0  0
  -28.6244   -8.0265  138.9067 C   0  0  0  0  0  0  0  0  0  0  0  0
  -27.9936   -9.2663  139.1610 C   0  0  0  0  0  0  0  0  0  0  0  0
  -28.0857   -9.9448  140.3933 C   0  0  0  0  0  0  0  0  0  0  0  0
  -28.8368   -9.3791  141.3910 C   0  0  0  0  0  0  0  0  0  0  0  0
  1  2  1  0
  2  3  1  0
  3  4  1  0
  4  5  1  0
  1  6  1  0
  5  6  1  0
  2  7  1  0
  5  8  1  0
  8  9  1  0
  7 10  2  0
  7 11  1  0
  9 12  1  0
 12 13  1  0
 13 14  1  0
 14 15  1  0
 15 16  1  0
 15 17  2  0
 16 18  1  0
 18 19  1  0
 19 20  2  3
 20 21  1  0
 21 22  2  0
 22 23  1  0
 23 24  2  0
 24 25  1  0
 25 26  2  0
 26 21  1  0
M  END

$$$$
No_851-/dssg/home/sw_qyf/PocketFlow/Model-Generation-Results/5HT2A_7WC7_rec_A_10.pdb/2024-01-01-03-54-21/
     RDKit          3D

 35 38  0  0  0  0  0  0  0  0999 V2000
  -23.1746  -16.6014  144.8668 C   0  0  0  0  0  0  0  0  0  0  0  0
  -23.7011  -17.0158  145.9774 C   0  0  0  0  0  0  0  0  0  0  0  0
  -24.2134  -16.0722  146.8877 C   0  0  0  0  0  0  0  0  0  0  0  0
  -23.3742  -15.2706  144.3922 C   0  0  0  0  0  0  0  0  0  0  0  0
  -24.0638  -14.3065  145.2723 C   0  0  0  0  0  0  0  0  0  0  0  0
  -24.4769  -14.7246  146.5384 C   0  0  0  0  0  0  0  0  0  0  0  0
  -24.2073  -12.8864  144.8852 C   0  0  0  0  0  0  0  0  0  0  0  0
  -23.1488  -12.0825  145.5253 C   0  0  0  0  0  0  0  0  0  0  0  0
  -23.5606  -18.4458  146.4427 C   0  0  0  0  0  0  0  0  0  0  0  0
  -24.2392  -19.3065  146.0720 O   0  0  0  0  0  0  0  0  0  0  0  0
  -22.3360  -18.6749  147.0995 O   0  0  0  0  0  0  0  0  0  0  0  0
  -25.5502  -12.3657  145.2771 C   0  0  0  0  0  0  0  0  0  0  0  0
  -26.0791  -11.3689  144.4019 C   0  0  0  0  0  0  0  0  0  0  0  0
  -27.4444  -10.8543  144.8100 C   0  0  0  0  0  0  0  0  0  0  0  0
  -28.4168  -11.6608  144.3117 C   0  0  0  0  0  0  0  0  0  0  0  0
  -29.7271  -10.9482  144.6870 C   0  0  0  0  0  0  0  0  0  0  0  0
  -29.5104   -9.5303  144.9605 C   0  0  0  0  0  0  0  0  0  0  0  0
  -28.1598   -9.2913  144.5086 C   0  0  0  0  0  0  0  0  0  0  0  0
  -30.1489  -11.5437  146.0414 O   0  0  0  0  0  0  0  0  0  0  0  0
  -29.4974  -12.6346  146.5170 C   0  0  0  0  0  0  0  0  0  0  0  0
  -30.1927  -13.2305  147.6935 C   0  0  0  0  0  0  0  0  0  0  0  0
  -30.6117  -12.4131  148.5451 O   0  0  0  0  0  0  0  0  0  0  0  0
  -31.9389  -12.5965  149.0459 C   0  0  0  0  0  0  0  0  0  0  0  0
  -31.9146  -13.7393  149.8562 C   0  0  0  0  0  0  0  0  0  0  0  0
  -31.0526  -14.7242  149.3930 O   0  0  0  0  0  0  0  0  0  0  0  0
  -30.0500  -14.3864  148.4735 C   0  0  0  0  0  0  0  0  0  0  0  0
  -32.7963  -11.6046  149.2052 N   0  0  0  0  0  0  0  0  0  0  0  0
  -29.2406  -15.4997  147.8629 C   0  0  0  0  0  0  0  0  0  0  0  0
  -28.1119  -15.8835  147.9148 C   0  0  0  0  0  0  0  0  0  0  0  0
  -27.5580  -16.9847  147.2127 C   0  0  0  0  0  0  0  0  0  0  0  0
  -27.3388  -16.8804  145.9069 C   0  0  0  0  0  0  0  0  0  0  0  0
  -28.0699  -15.7757  145.2964 C   0  0  0  0  0  0  0  0  0  0  0  0
  -29.6532  -15.4404  146.3823 C   0  0  0  0  0  0  0  0  0  0  0  0
  -30.3851   -8.8330  144.0042 O   0  0  0  0  0  0  0  0  0  0  0  0
  -30.6693   -9.1014  142.8260 C   0  0  0  0  0  0  0  0  0  0  0  0
  5  7  1  0
  7  8  1  0
  2  9  1  0
  9 10  2  0
  9 11  1  0
  7 12  1  0
 12 13  1  0
 13 14  1  0
 14 15  1  0
 15 16  1  0
 16 17  1  0
 14 18  1  0
 17 18  1  0
 16 19  1  0
 19 20  1  0
 20 21  1  0
 21 22  1  0
 22 23  1  0
 23 24  1  0
 24 25  1  0
 21 26  1  0
 25 26  1  0
 23 27  2  0
 26 28  1  0
 17 34  1  0
 34 35  1  0
 28 29  2  0
 29 30  1  0
 30 31  2  0
 31 32  1  0
 32 33  2  0
 33 28  1  0
  1  2  2  0
  2  3  1  0
  3  6  2  0
  6  5  1  0
  5  4  2  0
  4  1  1  0
M  END

$$$$
No_852-/dssg/home/sw_qyf/PocketFlow/Model-Generation-Results/5HT2A_7WC7_rec_A_10.pdb/2024-01-01-03-54-21/
     RDKit          3D

 31 32  0  0  0  0  0  0  0  0999 V2000
  -24.1553  -17.8465  145.7021 C   0  0  0  0  0  0  0  0  0  0  0  0
  -24.2855  -16.6364  145.3494 C   0  0  0  0  0  0  0  0  0  0  0  0
  -24.5733  -15.7651  145.9979 C   0  0  0  0  0  0  0  0  0  0  0  0
  -24.7088  -14.2765  145.5906 C   0  0  0  0  0  0  0  0  0  0  0  0
  -24.0081  -14.0223  144.3771 C   0  0  0  0  0  0  0  0  0  0  0  0
  -24.5461  -18.2167  147.0077 C   0  0  0  0  0  0  0  0  0  0  0  0
  -24.9845  -17.2350  147.8886 C   0  0  0  0  0  0  0  0  0  0  0  0
  -25.0065  -15.8596  147.4294 C   0  0  0  0  0  0  0  0  0  0  0  0
  -25.4314  -13.3207  146.3357 C   0  0  0  0  0  0  0  0  0  0  0  0
  -25.4140  -11.9789  145.9535 C   0  0  0  0  0  0  0  0  0  0  0  0
  -26.4816  -11.6464  145.1134 C   0  0  0  0  0  0  0  0  0  0  0  0
  -27.7090  -12.0116  145.4224 C   0  0  0  0  0  0  0  0  0  0  0  0
  -28.0356  -13.0657  146.2783 C   0  0  0  0  0  0  0  0  0  0  0  0
  -26.7809  -13.9036  146.5937 C   0  0  0  0  0  0  0  0  0  0  0  0
  -28.8844  -11.2590  144.9222 C   0  0  0  0  0  0  0  0  0  0  0  0
  -29.7916  -10.6713  145.8371 C   0  0  0  0  0  0  0  0  0  0  0  0
  -28.7810  -10.5162  143.6966 C   0  0  0  0  0  0  0  0  0  0  0  0
  -29.9014   -9.9605  143.0901 C   0  0  0  0  0  0  0  0  0  0  0  0
  -29.9833   -9.9041  141.6960 C   0  0  0  0  0  0  0  0  0  0  0  0
  -29.7815   -8.5010  141.2108 C   0  0  0  0  0  0  0  0  0  0  0  0
  -29.3888   -7.9531  140.3359 C   0  0  0  0  0  0  0  0  0  0  0  0
  -28.6610   -8.6060  139.2390 C   0  0  0  0  0  0  0  0  0  0  0  0
  -27.9473   -9.7391  139.5212 C   0  0  0  0  0  0  0  0  0  0  0  0
  -27.2464  -10.4226  138.5129 C   0  0  0  0  0  0  0  0  0  0  0  0
  -27.5324  -11.8339  138.5363 C   0  0  0  0  0  0  0  0  0  0  0  0
  -27.1874  -12.6906  137.7487 Cl  0  0  0  0  0  0  0  0  0  0  0  0
  -28.2846  -12.2829  139.8644 C   0  0  0  0  0  0  0  0  0  0  0  0
  -30.0080  -11.3460  147.0374 N   0  0  0  0  0  0  0  0  0  0  0  0
  -25.2944  -17.5048  149.3214 C   0  0  0  0  0  0  0  0  0  0  0  0
  -26.4710  -17.2107  149.9173 C   0  0  0  0  0  0  0  0  0  0  0  0
  -26.6743  -17.7956  151.1278 N   0  0  0  0  0  0  0  0  0  0  0  0
  3  4  1  0
  4  5  2  0
  4  9  1  0
 12 15  1  0
 15 16  1  0
 15 17  1  0
 17 18  1  0
 18 19  1  0
 19 20  1  0
 20 21  2  3
 21 22  1  0
 22 23  2  3
 23 24  1  0
 24 25  1  0
 25 26  1  0
 25 27  1  0
 16 28  1  0
  7 29  1  0
 29 30  2  3
 30 31  1  0
  1  2  2  0
  2  3  1  0
  3  8  2  0
  8  7  1  0
  7  6  2  0
  6  1  1  0
  9 10  2  0
 10 11  1  0
 11 12  2  0
 12 13  1  0
 13 14  2  0
 14  9  1  0
M  END

$$$$
No_853-/dssg/home/sw_qyf/PocketFlow/Model-Generation-Results/5HT2A_7WC7_rec_A_10.pdb/2024-01-01-03-54-21/
     RDKit          3D

 29 33  0  0  0  0  0  0  0  0999 V2000
  -24.1553  -17.8465  145.7021 C   0  0  0  0  0  0  0  0  0  0  0  0
  -24.2856  -16.6364  145.3494 C   0  0  0  0  0  0  0  0  0  0  0  0
  -24.7837  -15.7223  145.8474 C   0  0  0  0  0  0  0  0  0  0  0  0
  -25.6062  -15.9757  147.0426 C   0  0  0  0  0  0  0  0  0  0  0  0
  -24.8560  -18.2319  146.8941 C   0  0  0  0  0  0  0  0  0  0  0  0
  -25.5370  -17.2345  147.6143 C   0  0  0  0  0  0  0  0  0  0  0  0
  -24.9558  -14.2244  145.5981 C   0  0  0  0  0  0  0  0  0  0  0  0
  -25.7943  -13.4591  145.8490 C   0  0  0  0  0  0  0  0  0  0  0  0
  -25.7932  -12.0490  145.5984 C   0  0  0  0  0  0  0  0  0  0  0  0
  -26.8813  -11.1732  145.9086 C   0  0  0  0  0  0  0  0  0  0  0  0
  -28.0492  -11.8018  146.4207 C   0  0  0  0  0  0  0  0  0  0  0  0
  -28.1179  -13.1820  146.6855 C   0  0  0  0  0  0  0  0  0  0  0  0
  -26.9895  -13.9717  146.4254 C   0  0  0  0  0  0  0  0  0  0  0  0
  -26.7958  -15.2427  146.9695 N   0  0  0  0  0  0  0  0  0  0  0  0
  -29.4732  -13.5428  147.1734 C   0  0  0  0  0  0  0  0  0  0  0  0
  -29.9550  -14.5999  146.8123 O   0  0  0  0  0  0  0  0  0  0  0  0
  -29.9624  -12.8734  148.2428 N   0  0  0  0  0  0  0  0  0  0  0  0
  -23.4225  -16.3755  144.1263 N   0  0  0  0  0  0  0  0  0  0  0  0
  -24.6870  -11.4532  145.1117 O   0  0  0  0  0  0  0  0  0  0  0  0
  -31.1409  -13.2656  148.9453 C   0  0  0  0  0  0  0  0  0  0  0  0
  -31.9485  -12.1954  149.4380 C   0  0  0  0  0  0  0  0  0  0  0  0
  -33.1810  -12.5058  150.0303 C   0  0  0  0  0  0  0  0  0  0  0  0
  -34.0689  -11.4563  150.2378 C   0  0  0  0  0  0  0  0  0  0  0  0
  -33.7989  -10.2192  149.9679 N   0  0  0  0  0  0  0  0  0  0  0  0
  -32.4356   -9.9019  149.7098 C   0  0  0  0  0  0  0  0  0  0  0  0
  -31.6145  -10.9283  149.3772 N   0  0  0  0  0  0  0  0  0  0  0  0
  -23.4691  -11.9979  145.5394 C   0  0  0  0  0  0  0  0  0  0  0  0
  -23.4382  -13.5024  145.2565 C   0  0  0  0  0  0  0  0  0  0  0  0
  -22.3133  -11.5366  144.6036 C   0  0  0  0  0  0  0  0  0  0  0  0
 12 15  1  0
 15 16  1  0
 15 17  1  0
  2 18  1  0
  9 19  1  0
 17 20  1  0
 19 27  1  0
  7 28  1  0
 27 28  1  0
 27 29  1  0
 20 21  1  0
  4 14  2  0
 14 13  1  0
  8  7  1  0
  7  3  2  0
  1  2  2  0
  2  3  1  0
  3  4  1  0
  4  6  1  0
  6  5  2  0
  5  1  1  0
  8  9  2  0
  9 10  1  0
 10 11  2  0
 11 12  1  0
 12 13  2  0
 13  8  1  0
 21 22  2  0
 22 23  1  0
 23 24  2  0
 24 25  1  0
 25 26  2  0
 26 21  1  0
M  END

$$$$
No_854-/dssg/home/sw_qyf/PocketFlow/Model-Generation-Results/5HT2A_7WC7_rec_A_10.pdb/2024-01-01-03-54-21/
     RDKit          3D

 31 35  0  0  0  0  0  0  0  0999 V2000
  -24.1553  -17.8465  145.7021 C   0  0  0  0  0  0  0  0  0  0  0  0
  -24.2856  -16.6364  145.3494 C   0  0  0  0  0  0  0  0  0  0  0  0
  -25.0033  -15.6772  146.0737 C   0  0  0  0  0  0  0  0  0  0  0  0
  -25.6964  -16.1810  147.2049 C   0  0  0  0  0  0  0  0  0  0  0  0
  -24.8143  -18.3454  146.8324 C   0  0  0  0  0  0  0  0  0  0  0  0
  -25.5291  -17.4614  147.6373 C   0  0  0  0  0  0  0  0  0  0  0  0
  -23.7221  -15.8596  144.2449 N   0  0  0  0  0  0  0  0  0  0  0  0
  -25.1394  -14.2645  145.5716 C   0  0  0  0  0  0  0  0  0  0  0  0
  -24.4186  -13.9134  144.6566 C   0  0  0  0  0  0  0  0  0  0  0  0
  -24.3912  -12.4966  144.2278 N   0  0  0  0  0  0  0  0  0  0  0  0
  -23.5930  -14.7192  143.9357 C   0  0  0  0  0  0  0  0  0  0  0  0
  -24.7090  -11.5477  145.4224 C   0  0  0  0  0  0  0  0  0  0  0  0
  -25.8471  -11.9890  146.2403 C   0  0  0  0  0  0  0  0  0  0  0  0
  -25.8402  -13.3792  146.5779 C   0  0  0  0  0  0  0  0  0  0  0  0
  -26.6121  -11.1136  146.6977 O   0  0  0  0  0  0  0  0  0  0  0  0
  -27.9367  -11.3427  146.4809 C   0  0  0  0  0  0  0  0  0  0  0  0
  -28.5205  -10.9199  145.2017 C   0  0  0  0  0  0  0  0  0  0  0  0
  -27.8576  -11.0521  144.0410 C   0  0  0  0  0  0  0  0  0  0  0  0
  -28.5195  -10.6093  142.8593 C   0  0  0  0  0  0  0  0  0  0  0  0
  -28.0762  -10.8293  141.5149 C   0  0  0  0  0  0  0  0  0  0  0  0
  -28.1520   -9.8544  140.5303 C   0  0  0  0  0  0  0  0  0  0  0  0
  -29.0313   -8.7434  140.7626 C   0  0  0  0  0  0  0  0  0  0  0  0
  -29.6200   -8.5532  142.0736 C   0  0  0  0  0  0  0  0  0  0  0  0
  -29.2607   -9.4088  143.0907 C   0  0  0  0  0  0  0  0  0  0  0  0
  -29.4381   -7.6659  139.7859 C   0  0  0  0  0  0  0  0  0  0  0  0
  -27.4399  -10.0113  139.3922 C   0  0  0  0  0  0  0  0  0  0  0  0
  -26.6460  -10.9610  139.3476 O   0  0  0  0  0  0  0  0  0  0  0  0
  -27.5705   -9.2233  138.3973 O   0  0  0  0  0  0  0  0  0  0  0  0
  -29.6994  -10.2261  145.2905 C   0  0  0  0  0  0  0  0  0  0  0  0
  -30.1458   -9.3928  144.2874 C   0  0  0  0  0  0  0  0  0  0  0  0
  -31.1712   -8.6389  144.4241 O   0  0  0  0  0  0  0  0  0  0  0  0
  9 10  1  0
 10 12  1  0
 12 13  1  0
  8 14  1  0
 13 14  1  0
 13 15  1  0
 15 16  1  0
 22 25  1  0
 21 26  1  0
 26 27  1  0
 26 28  2  0
 30 31  1  0
 16 17  1  0
  1  2  2  0
  3  4  2  0
  4  6  1  0
  6  5  2  0
  5  1  1  0
  2  3  1  0
  3  8  1  0
  8  9  2  0
  9 11  1  0
 11  7  2  0
  7  2  1  0
 19 20  2  0
 20 21  1  0
 21 22  2  0
 22 23  1  0
 23 24  2  0
 17 18  2  0
 18 19  1  0
 19 24  1  0
 24 30  1  0
 30 29  2  0
 29 17  1  0
M  END

$$$$
No_855-/dssg/home/sw_qyf/PocketFlow/Model-Generation-Results/5HT2A_7WC7_rec_A_10.pdb/2024-01-01-03-54-21/
     RDKit          3D

 35 39  0  0  0  0  0  0  0  0999 V2000
  -23.8998  -17.8495  145.5131 N   0  0  0  0  0  0  0  0  0  0  0  0
  -24.2980  -17.2303  146.4737 C   0  0  0  0  0  0  0  0  0  0  0  0
  -24.8289  -15.9166  146.2701 C   0  0  0  0  0  0  0  0  0  0  0  0
  -25.6005  -15.1581  147.2157 C   0  0  0  0  0  0  0  0  0  0  0  0
  -26.1228  -13.9335  146.8593 C   0  0  0  0  0  0  0  0  0  0  0  0
  -25.8075  -13.3856  145.5585 C   0  0  0  0  0  0  0  0  0  0  0  0
  -26.2739  -12.1271  145.1797 C   0  0  0  0  0  0  0  0  0  0  0  0
  -27.4580  -12.0346  144.4193 C   0  0  0  0  0  0  0  0  0  0  0  0
  -28.3276  -11.2927  144.5511 C   0  0  0  0  0  0  0  0  0  0  0  0
  -25.1074  -14.1852  144.6603 C   0  0  0  0  0  0  0  0  0  0  0  0
  -24.5838  -15.4393  144.9976 C   0  0  0  0  0  0  0  0  0  0  0  0
  -29.7322  -11.3696  144.5477 C   0  0  0  0  0  0  0  0  0  0  0  0
  -30.6145  -10.1842  144.7139 C   0  0  0  0  0  0  0  0  0  0  0  0
  -24.1811  -17.7496  147.8731 C   0  0  0  0  0  0  0  0  0  0  0  0
  -30.5974   -9.1945  143.6881 C   0  0  0  0  0  0  0  0  0  0  0  0
  -29.2755   -8.8065  143.2374 C   0  0  0  0  0  0  0  0  0  0  0  0
  -28.3514   -9.6111  143.2855 C   0  0  0  0  0  0  0  0  0  0  0  0
  -27.6353  -10.5462  143.8445 C   0  0  0  0  0  0  0  0  0  0  0  0
  -25.5341  -10.8782  145.5178 C   0  0  0  0  0  0  0  0  0  0  0  0
  -26.1374  -10.2588  144.4681 C   0  0  0  0  0  0  0  0  0  0  0  0
  -31.5780   -9.4209  142.5943 C   0  0  0  0  0  0  0  0  0  0  0  0
  -23.7735  -16.9550  148.9975 C   0  0  0  0  0  0  0  0  0  0  0  0
  -23.9562  -16.2414  144.1456 N   0  0  0  0  0  0  0  0  0  0  0  0
  -23.6010  -17.3525  144.3614 N   0  0  0  0  0  0  0  0  0  0  0  0
  -23.9250  -17.2760  150.3275 C   0  0  0  0  0  0  0  0  0  0  0  0
  -29.1466   -7.4253  142.7676 C   0  0  0  0  0  0  0  0  0  0  0  0
  -30.2128   -6.8174  142.8093 F   0  0  0  0  0  0  0  0  0  0  0  0
  -28.7997   -7.5122  141.4378 F   0  0  0  0  0  0  0  0  0  0  0  0
  -28.3323   -6.6415  143.4548 F   0  0  0  0  0  0  0  0  0  0  0  0
  -24.8586  -13.7262  143.4926 O   0  0  0  0  0  0  0  0  0  0  0  0
  -23.0851  -16.8303  151.2831 C   0  0  0  0  0  0  0  0  0  0  0  0
  -21.7410  -16.3263  150.8915 C   0  0  0  0  0  0  0  0  0  0  0  0
  -21.4764  -16.5446  149.8122 C   0  0  0  0  0  0  0  0  0  0  0  0
  -22.4295  -16.7067  148.7092 C   0  0  0  0  0  0  0  0  0  0  0  0
  -25.3655  -17.6463  150.7401 C   0  0  0  0  0  0  0  0  0  0  0  0
  6  7  1  0
  9 12  1  0
 12 13  2  0
  2 14  1  0
 13 15  1  0
 15 16  2  0
 16 17  1  0
 17 18  1  0
 15 21  1  0
 14 22  1  0
 16 26  1  0
 26 27  1  0
 26 28  1  0
 26 29  1  0
 10 30  1  0
 25 35  1  0
  3  4  2  0
  4  5  1  0
  5  6  2  0
  6 10  1  0
 10 11  2  0
  1  2  2  0
  2  3  1  0
  3 11  1  0
 11 23  1  0
 23 24  2  0
 24  1  1  0
  7  8  2  0
  8  9  1  0
  9 18  2  0
 18 20  1  0
 20 19  2  0
 19  7  1  0
 22 25  2  0
 25 31  1  0
 31 32  2  0
 32 33  1  0
 33 34  2  0
 34 22  1  0
M  END

$$$$
No_856-/dssg/home/sw_qyf/PocketFlow/Model-Generation-Results/5HT2A_7WC7_rec_A_10.pdb/2024-01-01-03-54-21/
     RDKit          3D

 28 30  0  0  0  0  0  0  0  0999 V2000
  -23.1746  -16.6014  144.8668 C   0  0  0  0  0  0  0  0  0  0  0  0
  -24.0189  -16.0564  145.8445 C   0  0  0  0  0  0  0  0  0  0  0  0
  -24.4850  -14.7380  145.6359 C   0  0  0  0  0  0  0  0  0  0  0  0
  -24.0244  -13.9858  144.5634 C   0  0  0  0  0  0  0  0  0  0  0  0
  -22.9814  -14.4736  143.8270 C   0  0  0  0  0  0  0  0  0  0  0  0
  -22.6517  -15.7450  143.9774 N   0  0  0  0  0  0  0  0  0  0  0  0
  -24.5684  -16.9417  146.8976 C   0  0  0  0  0  0  0  0  0  0  0  0
  -23.9356  -17.8893  147.3879 C   0  0  0  0  0  0  0  0  0  0  0  0
  -25.9539  -16.8159  147.2780 C   0  0  0  0  0  0  0  0  0  0  0  0
  -26.3063  -16.5233  148.5740 C   0  0  0  0  0  0  0  0  0  0  0  0
  -22.5717  -17.9028  147.1528 F   0  0  0  0  0  0  0  0  0  0  0  0
  -25.1607  -16.5189  149.4570 C   0  0  0  0  0  0  0  0  0  0  0  0
  -24.2698  -17.3553  149.3828 C   0  0  0  0  0  0  0  0  0  0  0  0
  -24.2909  -18.3665  148.5742 O   0  0  0  0  0  0  0  0  0  0  0  0
  -24.4276  -12.6628  144.5596 O   0  0  0  0  0  0  0  0  0  0  0  0
  -23.8369  -11.8954  145.5720 C   0  0  0  0  0  0  0  0  0  0  0  0
  -23.2389  -12.5995  146.6847 C   0  0  0  0  0  0  0  0  0  0  0  0
  -23.5195  -11.8126  147.6948 F   0  0  0  0  0  0  0  0  0  0  0  0
  -23.5548  -13.7816  146.7965 F   0  0  0  0  0  0  0  0  0  0  0  0
  -25.8203  -14.5526  145.6808 O   0  0  0  0  0  0  0  0  0  0  0  0
  -23.2764  -10.8893  145.2614 O   0  0  0  0  0  0  0  0  0  0  0  0
  -26.6076  -13.8693  144.9007 C   0  0  0  0  0  0  0  0  0  0  0  0
  -27.6054  -13.0478  145.6347 C   0  0  0  0  0  0  0  0  0  0  0  0
  -27.9602  -13.3947  146.9581 C   0  0  0  0  0  0  0  0  0  0  0  0
  -28.8783  -12.6270  147.7275 C   0  0  0  0  0  0  0  0  0  0  0  0
  -29.6776  -11.6573  146.9954 C   0  0  0  0  0  0  0  0  0  0  0  0
  -29.3647  -11.3400  145.6896 C   0  0  0  0  0  0  0  0  0  0  0  0
  -28.3949  -12.0461  145.0281 C   0  0  0  0  0  0  0  0  0  0  0  0
  2  7  1  0
  7  8  2  0
  7  9  1  0
  9 10  2  0
  8 11  1  0
 10 12  1  0
 12 13  2  0
  8 14  1  0
 13 14  1  0
  4 15  1  0
 15 16  1  0
 16 17  1  0
 17 18  1  0
 17 19  1  0
  3 20  1  0
 16 21  2  0
 20 22  1  0
 22 23  1  0
  1  2  2  0
  2  3  1  0
  3  4  2  0
  4  5  1  0
  5  6  2  0
  6  1  1  0
 23 24  2  0
 24 25  1  0
 25 26  2  0
 26 27  1  0
 27 28  2  0
 28 23  1  0
M  END

$$$$
No_857-/dssg/home/sw_qyf/PocketFlow/Model-Generation-Results/5HT2A_7WC7_rec_A_10.pdb/2024-01-01-03-54-21/
     RDKit          3D

 34 36  0  0  0  0  0  0  0  0999 V2000
  -24.1553  -17.8465  145.7021 C   0  0  0  0  0  0  0  0  0  0  0  0
  -24.2855  -16.6364  145.3494 C   0  0  0  0  0  0  0  0  0  0  0  0
  -25.0033  -15.6772  146.0737 C   0  0  0  0  0  0  0  0  0  0  0  0
  -25.7223  -16.0755  147.0214 C   0  0  0  0  0  0  0  0  0  0  0  0
  -26.8989  -15.4143  147.4599 C   0  0  0  0  0  0  0  0  0  0  0  0
  -24.8793  -18.3534  146.7910 C   0  0  0  0  0  0  0  0  0  0  0  0
  -25.7136  -17.4533  147.4258 C   0  0  0  0  0  0  0  0  0  0  0  0
  -24.9879  -14.2306  145.6036 C   0  0  0  0  0  0  0  0  0  0  0  0
  -26.0586  -13.6365  145.1824 C   0  0  0  0  0  0  0  0  0  0  0  0
  -25.9254  -12.3760  144.5430 C   0  0  0  0  0  0  0  0  0  0  0  0
  -26.1889  -11.3512  145.0853 C   0  0  0  0  0  0  0  0  0  0  0  0
  -26.3969   -9.9731  144.5059 C   0  0  0  0  0  0  0  0  0  0  0  0
  -23.4724  -16.1426  144.2546 N   0  0  0  0  0  0  0  0  0  0  0  0
  -27.7395   -9.7266  144.1379 C   0  0  0  0  0  0  0  0  0  0  0  0
  -28.7481  -10.3019  144.7922 C   0  0  0  0  0  0  0  0  0  0  0  0
  -30.0889  -10.0194  144.4877 C   0  0  0  0  0  0  0  0  0  0  0  0
  -30.2745   -9.2856  143.2430 C   0  0  0  0  0  0  0  0  0  0  0  0
  -29.2551   -8.6890  142.6021 C   0  0  0  0  0  0  0  0  0  0  0  0
  -27.9058   -8.9698  143.0615 C   0  0  0  0  0  0  0  0  0  0  0  0
  -31.6905   -9.0407  142.8265 C   0  0  0  0  0  0  0  0  0  0  0  0
  -29.4807   -7.8352  141.4476 C   0  0  0  0  0  0  0  0  0  0  0  0
  -29.5085   -8.4239  140.1134 C   0  0  0  0  0  0  0  0  0  0  0  0
  -28.6296   -9.4265  139.8069 C   0  0  0  0  0  0  0  0  0  0  0  0
  -28.2470  -10.3969  140.7099 C   0  0  0  0  0  0  0  0  0  0  0  0
  -27.5053  -11.5481  140.2317 C   0  0  0  0  0  0  0  0  0  0  0  0
  -28.2553  -12.6142  139.5915 C   0  0  0  0  0  0  0  0  0  0  0  0
  -28.0027   -9.4201  138.5255 C   0  0  0  0  0  0  0  0  0  0  0  0
  -28.5863   -8.5930  137.4976 C   0  0  0  0  0  0  0  0  0  0  0  0
  -32.2286   -9.8916  142.1608 O   0  0  0  0  0  0  0  0  0  0  0  0
  -32.1341   -7.8636  143.0354 O   0  0  0  0  0  0  0  0  0  0  0  0
  -27.4362  -14.2270  145.3315 C   0  0  0  0  0  0  0  0  0  0  0  0
  -27.7866  -14.6813  146.6447 C   0  0  0  0  0  0  0  0  0  0  0  0
  -29.1956  -14.7216  146.8723 C   0  0  0  0  0  0  0  0  0  0  0  0
  -29.8726  -15.0421  147.5567 N   0  0  0  0  0  0  0  0  0  0  0  0
  1  2  1  0
  2  3  1  0
  3  4  1  0
  4  5  2  0
  1  6  1  0
  4  7  1  0
  6  7  1  0
  3  8  1  0
  8  9  2  0
  9 10  1  0
 10 11  2  3
 11 12  1  0
  2 13  1  0
 12 14  1  0
 17 20  1  0
 18 21  1  0
 21 22  2  3
 22 23  1  0
 23 24  2  3
 24 25  1  0
 25 26  1  0
 23 27  1  0
 27 28  2  0
 20 29  2  0
 20 30  1  0
  9 31  1  0
  5 32  1  0
 31 32  2  0
 32 33  1  0
 33 34  3  0
 14 15  2  0
 15 16  1  0
 16 17  2  0
 17 18  1  0
 18 19  2  0
 19 14  1  0
M  END

$$$$
No_858-/dssg/home/sw_qyf/PocketFlow/Model-Generation-Results/5HT2A_7WC7_rec_A_10.pdb/2024-01-01-03-54-21/
     RDKit          3D

 26 27  0  0  0  0  0  0  0  0999 V2000
  -23.1746  -16.6014  144.8668 C   0  0  0  0  0  0  0  0  0  0  0  0
  -23.7011  -17.0158  145.9774 C   0  0  0  0  0  0  0  0  0  0  0  0
  -24.7095  -16.6222  146.3578 C   0  0  0  0  0  0  0  0  0  0  0  0
  -25.2873  -15.6092  146.1765 C   0  0  0  0  0  0  0  0  0  0  0  0
  -24.9028  -14.8826  144.9736 C   0  0  0  0  0  0  0  0  0  0  0  0
  -23.7674  -15.3980  144.3658 C   0  0  0  0  0  0  0  0  0  0  0  0
  -25.5003  -13.6318  144.4289 C   0  0  0  0  0  0  0  0  0  0  0  0
  -25.2502  -12.5841  144.8241 O   0  0  0  0  0  0  0  0  0  0  0  0
  -26.4123  -13.8166  143.4688 O   0  0  0  0  0  0  0  0  0  0  0  0
  -23.0267  -18.2704  146.4614 O   0  0  0  0  0  0  0  0  0  0  0  0
  -24.2242  -12.3123  145.6996 C   0  0  0  0  0  0  0  0  0  0  0  0
  -24.4437  -12.3660  147.1644 C   0  0  0  0  0  0  0  0  0  0  0  0
  -22.9038  -12.0726  145.1828 C   0  0  0  0  0  0  0  0  0  0  0  0
  -22.3334  -12.6883  144.3902 O   0  0  0  0  0  0  0  0  0  0  0  0
  -25.1774  -17.4006  147.8135 C   0  0  0  0  0  0  0  0  0  0  0  0
  -25.0013  -16.5081  149.0048 C   0  0  0  0  0  0  0  0  0  0  0  0
  -25.3729  -17.1976  150.2656 C   0  0  0  0  0  0  0  0  0  0  0  0
  -26.6625  -17.7565  150.3884 C   0  0  0  0  0  0  0  0  0  0  0  0
  -26.9193  -18.5482  151.4985 C   0  0  0  0  0  0  0  0  0  0  0  0
  -28.0711  -18.2034  152.2838 C   0  0  0  0  0  0  0  0  0  0  0  0
  -29.2600  -17.9872  151.5873 C   0  0  0  0  0  0  0  0  0  0  0  0
  -29.1597  -17.3287  150.3483 C   0  0  0  0  0  0  0  0  0  0  0  0
  -27.8094  -17.0924  149.8637 C   0  0  0  0  0  0  0  0  0  0  0  0
  -30.2379  -16.7390  149.6314 C   0  0  0  0  0  0  0  0  0  0  0  0
  -29.8936  -15.7020  148.6931 C   0  0  0  0  0  0  0  0  0  0  0  0
  -28.9855  -15.6976  147.7068 C   0  0  0  0  0  0  0  0  0  0  0  0
  5  7  1  0
  7  8  1  0
  7  9  2  0
  2 10  1  0
  8 11  1  0
 11 12  1  0
 11 13  1  0
 13 14  2  0
  3 15  1  0
 15 16  1  0
 16 17  1  0
 17 18  1  0
 22 24  1  0
 24 25  2  3
 25 26  1  0
 18 19  2  0
 19 20  1  0
 20 21  2  0
 21 22  1  0
 22 23  2  0
 23 18  1  0
  1  2  2  0
  2  3  1  0
  3  4  2  0
  4  5  1  0
  5  6  2  0
  6  1  1  0
M  END

$$$$
No_859-/dssg/home/sw_qyf/PocketFlow/Model-Generation-Results/5HT2A_7WC7_rec_A_10.pdb/2024-01-01-03-54-21/
     RDKit          3D

 14 15  0  0  0  0  0  0  0  0999 V2000
  -23.1746  -16.6014  144.8668 C   0  0  0  0  0  0  0  0  0  0  0  0
  -23.7011  -17.0158  145.9774 C   0  0  0  0  0  0  0  0  0  0  0  0
  -24.2134  -16.0722  146.8877 C   0  0  0  0  0  0  0  0  0  0  0  0
  -24.7882  -16.3410  148.2078 C   0  0  0  0  0  0  0  0  0  0  0  0
  -23.4231  -15.2781  144.3679 C   0  0  0  0  0  0  0  0  0  0  0  0
  -24.0726  -14.2968  145.2170 C   0  0  0  0  0  0  0  0  0  0  0  0
  -24.2425  -12.9518  144.8262 C   0  0  0  0  0  0  0  0  0  0  0  0
  -24.4659  -14.7142  146.4566 C   0  0  0  0  0  0  0  0  0  0  0  0
  -24.1846  -12.2037  145.7372 O   0  0  0  0  0  0  0  0  0  0  0  0
  -24.1553  -17.2851  149.0396 C   0  0  0  0  0  0  0  0  0  0  0  0
  -24.7200  -17.5185  150.3449 C   0  0  0  0  0  0  0  0  0  0  0  0
  -23.5368  -18.2504  146.6597 C   0  0  0  0  0  0  0  0  0  0  0  0
  -23.0636  -19.2308  146.0155 O   0  0  0  0  0  0  0  0  0  0  0  0
  -23.8604  -18.4297  148.1239 C   0  0  0  0  0  0  0  0  0  0  0  0
  1  2  1  0
  2  3  1  0
  1  5  1  0
  5  6  1  0
  6  7  1  0
  3  8  1  0
  6  8  1  0
  7  9  1  0
  4 10  1  0
 10 11  1  0
  2 12  1  0
 12 13  2  0
 10 14  1  0
 12 14  1  0
  3  4  1  0
M  END

$$$$
No_860-/dssg/home/sw_qyf/PocketFlow/Model-Generation-Results/5HT2A_7WC7_rec_A_10.pdb/2024-01-01-03-54-21/
     RDKit          3D

 18 19  0  0  0  0  0  0  0  0999 V2000
  -24.1553  -17.8465  145.7021 C   0  0  0  0  0  0  0  0  0  0  0  0
  -23.9795  -18.4462  146.7426 C   0  0  0  0  0  0  0  0  0  0  0  0
  -23.3558  -17.2450  144.9339 C   0  0  0  0  0  0  0  0  0  0  0  0
  -24.9341  -19.0253  147.6214 C   0  0  0  0  0  0  0  0  0  0  0  0
  -23.9048  -16.1596  144.0438 C   0  0  0  0  0  0  0  0  0  0  0  0
  -25.0197  -15.3921  144.6254 C   0  0  0  0  0  0  0  0  0  0  0  0
  -25.8888  -15.9390  145.5529 C   0  0  0  0  0  0  0  0  0  0  0  0
  -25.3732  -17.1098  146.2375 C   0  0  0  0  0  0  0  0  0  0  0  0
  -25.9950  -18.1352  147.5400 C   0  0  0  0  0  0  0  0  0  0  0  0
  -25.5132  -14.2385  143.8468 C   0  0  0  0  0  0  0  0  0  0  0  0
  -25.2442  -13.1581  144.2145 O   0  0  0  0  0  0  0  0  0  0  0  0
  -26.6617  -14.3701  143.1994 O   0  0  0  0  0  0  0  0  0  0  0  0
  -24.2713  -12.9771  145.1902 C   0  0  0  0  0  0  0  0  0  0  0  0
  -23.2465  -12.0340  144.9402 C   0  0  0  0  0  0  0  0  0  0  0  0
  -24.4444  -13.3678  146.6161 C   0  0  0  0  0  0  0  0  0  0  0  0
  -25.5364  -14.1970  146.9600 C   0  0  0  0  0  0  0  0  0  0  0  0
  -26.4277  -14.5419  146.1500 C   0  0  0  0  0  0  0  0  0  0  0  0
  -27.8128  -14.4559  146.3501 C   0  0  0  0  0  0  0  0  0  0  0  0
  2  4  1  0
  4  9  2  0
  8  9  1  0
  6 10  1  0
 10 11  1  0
 10 12  2  0
 11 13  1  0
 13 14  2  0
 13 15  1  0
 15 16  1  0
 16 17  3  0
 17 18  1  0
  2  1  1  0
  1  3  2  0
  3  5  1  0
  5  6  2  0
  6  7  1  0
  7  8  2  0
  8  1  1  0
M  END

$$$$
No_861-/dssg/home/sw_qyf/PocketFlow/Model-Generation-Results/5HT2A_7WC7_rec_A_10.pdb/2024-01-01-03-54-21/
     RDKit          3D

 35 38  0  0  0  0  0  0  0  0999 V2000
  -23.1746  -16.6014  144.8668 C   0  0  0  0  0  0  0  0  0  0  0  0
  -23.8963  -15.5346  144.7885 C   0  0  0  0  0  0  0  0  0  0  0  0
  -24.5755  -15.0383  145.9043 C   0  0  0  0  0  0  0  0  0  0  0  0
  -25.0618  -13.6819  146.0347 C   0  0  0  0  0  0  0  0  0  0  0  0
  -25.4099  -13.0255  144.9749 C   0  0  0  0  0  0  0  0  0  0  0  0
  -26.7719  -13.0590  144.7009 C   0  0  0  0  0  0  0  0  0  0  0  0
  -27.6063  -13.1253  145.7263 C   0  0  0  0  0  0  0  0  0  0  0  0
  -23.7845  -17.6039  145.7731 C   0  0  0  0  0  0  0  0  0  0  0  0
  -24.4660  -17.2481  146.9638 C   0  0  0  0  0  0  0  0  0  0  0  0
  -24.9250  -15.9114  147.0455 C   0  0  0  0  0  0  0  0  0  0  0  0
  -28.9522  -12.8419  145.7611 C   0  0  0  0  0  0  0  0  0  0  0  0
  -29.6952  -12.8465  147.0599 C   0  0  0  0  0  0  0  0  0  0  0  0
  -30.4049  -13.5626  147.5275 C   0  0  0  0  0  0  0  0  0  0  0  0
  -30.1802  -13.9295  148.6163 C   0  0  0  0  0  0  0  0  0  0  0  0
  -30.8387  -15.1047  149.0800 C   0  0  0  0  0  0  0  0  0  0  0  0
  -23.3838  -19.0507  145.6769 C   0  0  0  0  0  0  0  0  0  0  0  0
  -27.2071  -12.0063  143.6565 C   0  0  0  0  0  0  0  0  0  0  0  0
  -27.6610  -12.5260  142.3825 C   0  0  0  0  0  0  0  0  0  0  0  0
  -27.1081  -13.6968  141.8735 C   0  0  0  0  0  0  0  0  0  0  0  0
  -26.6703  -13.5152  140.5798 C   0  0  0  0  0  0  0  0  0  0  0  0
  -26.9040  -12.4365  139.7085 C   0  0  0  0  0  0  0  0  0  0  0  0
  -27.5760  -11.2774  140.3225 C   0  0  0  0  0  0  0  0  0  0  0  0
  -27.8296  -11.2500  141.7029 C   0  0  0  0  0  0  0  0  0  0  0  0
  -27.8133  -10.0874  139.4907 C   0  0  0  0  0  0  0  0  0  0  0  0
  -28.2739   -8.9090  140.1674 C   0  0  0  0  0  0  0  0  0  0  0  0
  -29.1818   -8.1025  139.4996 C   0  0  0  0  0  0  0  0  0  0  0  0
  -29.9365   -7.1881  140.3200 C   0  0  0  0  0  0  0  0  0  0  0  0
  -29.6211   -7.1691  141.7889 C   0  0  0  0  0  0  0  0  0  0  0  0
  -28.9976   -8.2476  142.4103 C   0  0  0  0  0  0  0  0  0  0  0  0
  -28.3556   -9.0708  141.6196 C   0  0  0  0  0  0  0  0  0  0  0  0
  -28.2605  -10.2134  142.2597 N   0  0  0  0  0  0  0  0  0  0  0  0
  -28.9146   -7.8635  138.2499 N   0  0  0  0  0  0  0  0  0  0  0  0
  -26.6000  -12.4875  138.4979 O   0  0  0  0  0  0  0  0  0  0  0  0
  -22.4538  -19.5808  146.2347 O   0  0  0  0  0  0  0  0  0  0  0  0
  -23.8938  -19.6946  144.6997 O   0  0  0  0  0  0  0  0  0  0  0  0
  3  4  1  0
  4  5  1  0
  5  6  1  0
  6  7  2  3
  7 11  1  0
 11 12  2  3
 12 13  1  0
 13 14  2  3
 14 15  1  0
  8 16  1  0
  6 17  1  0
 17 18  1  0
 26 32  1  0
 21 33  1  0
 16 34  1  0
 16 35  2  0
 18 19  2  0
 19 20  1  0
 20 21  2  0
 21 22  1  0
 23 18  1  0
 25 26  1  0
 26 27  2  0
 27 28  1  0
 28 29  2  0
 29 30  1  0
  1  2  2  0
  2  3  1  0
  3 10  2  0
 10  9  1  0
  9  8  2  0
  8  1  1  0
 22 23  2  0
 23 31  1  0
 31 30  2  0
 30 25  1  0
 25 24  2  0
 24 22  1  0
M  END

$$$$
No_862-/dssg/home/sw_qyf/PocketFlow/Model-Generation-Results/5HT2A_7WC7_rec_A_10.pdb/2024-01-01-03-54-21/
     RDKit          3D

 10 10  0  0  0  0  0  0  0  0999 V2000
  -24.1553  -17.8465  145.7021 C   0  0  0  0  0  0  0  0  0  0  0  0
  -24.2855  -16.6364  145.3494 C   0  0  0  0  0  0  0  0  0  0  0  0
  -24.7210  -15.5955  146.2116 C   0  0  0  0  0  0  0  0  0  0  0  0
  -24.8538  -14.2010  145.8739 C   0  0  0  0  0  0  0  0  0  0  0  0
  -24.1440  -13.8321  144.7073 C   0  0  0  0  0  0  0  0  0  0  0  0
  -23.5078  -14.7946  143.9923 N   0  0  0  0  0  0  0  0  0  0  0  0
  -23.5385  -16.0602  144.3597 C   0  0  0  0  0  0  0  0  0  0  0  0
  -23.3369  -18.7520  145.9046 C   0  0  0  0  0  0  0  0  0  0  0  0
  -24.0396  -12.5717  144.4361 O   0  0  0  0  0  0  0  0  0  0  0  0
  -23.3987  -20.3195  146.2536 Cl  0  0  0  0  0  0  0  0  0  0  0  0
  2  3  1  0
  3  4  1  0
  4  5  1  0
  5  6  1  0
  2  7  1  0
  1  8  1  0
  5  9  2  0
  8 10  1  0
  1  2  1  0
  7  6  1  0
M  END

$$$$
No_863-/dssg/home/sw_qyf/PocketFlow/Model-Generation-Results/5HT2A_7WC7_rec_A_10.pdb/2024-01-01-03-54-21/
     RDKit          3D

 27 29  0  0  0  0  0  0  0  0999 V2000
  -23.1746  -16.6014  144.8668 C   0  0  0  0  0  0  0  0  0  0  0  0
  -23.8963  -15.5346  144.7885 C   0  0  0  0  0  0  0  0  0  0  0  0
  -25.0304  -15.2549  144.5358 C   0  0  0  0  0  0  0  0  0  0  0  0
  -25.6045  -13.9524  144.2294 C   0  0  0  0  0  0  0  0  0  0  0  0
  -26.9716  -13.7632  143.8495 C   0  0  0  0  0  0  0  0  0  0  0  0
  -23.8653  -17.5912  145.6268 C   0  0  0  0  0  0  0  0  0  0  0  0
  -25.2754  -17.3780  145.8827 C   0  0  0  0  0  0  0  0  0  0  0  0
  -25.8269  -16.1794  145.4181 C   0  0  0  0  0  0  0  0  0  0  0  0
  -27.4593  -12.5810  143.3704 C   0  0  0  0  0  0  0  0  0  0  0  0
  -23.3233  -18.8017  145.9871 N   0  0  0  0  0  0  0  0  0  0  0  0
  -27.6492  -11.4470  144.1733 C   0  0  0  0  0  0  0  0  0  0  0  0
  -27.4331  -11.4569  145.4947 C   0  0  0  0  0  0  0  0  0  0  0  0
  -28.2826  -10.2735  143.5719 C   0  0  0  0  0  0  0  0  0  0  0  0
  -27.7605   -9.4238  143.0543 C   0  0  0  0  0  0  0  0  0  0  0  0
  -29.7510  -10.1835  143.8614 C   0  0  0  0  0  0  0  0  0  0  0  0
  -30.5119   -9.1115  143.3302 C   0  0  0  0  0  0  0  0  0  0  0  0
  -29.9087   -8.1837  142.5441 C   0  0  0  0  0  0  0  0  0  0  0  0
  -30.5821   -7.0966  141.7790 C   0  0  0  0  0  0  0  0  0  0  0  0
  -28.3937   -8.2460  142.3237 C   0  0  0  0  0  0  0  0  0  0  0  0
  -31.8358   -9.1223  143.4898 O   0  0  0  0  0  0  0  0  0  0  0  0
  -27.7007  -12.4936  146.3291 C   0  0  0  0  0  0  0  0  0  0  0  0
  -27.4823  -12.4978  141.9517 C   0  0  0  0  0  0  0  0  0  0  0  0
  -27.1986  -13.6359  141.1880 C   0  0  0  0  0  0  0  0  0  0  0  0
  -27.0256  -13.2668  139.7812 C   0  0  0  0  0  0  0  0  0  0  0  0
  -27.4232  -11.9753  139.2082 C   0  0  0  0  0  0  0  0  0  0  0  0
  -27.7816  -10.9705  140.1562 C   0  0  0  0  0  0  0  0  0  0  0  0
  -27.7756  -11.2304  141.3800 C   0  0  0  0  0  0  0  0  0  0  0  0
  3  4  1  0
  4  5  2  3
  5  9  1  0
  6 10  1  0
  9 11  1  0
 11 12  1  0
 11 13  1  0
 17 18  1  0
 16 20  1  0
 12 21  1  0
  9 22  1  0
 22 23  2  0
 23 24  1  0
 24 25  2  0
 25 26  1  0
 26 27  2  0
 27 22  1  0
  1  2  2  0
  2  3  1  0
  3  8  2  0
  8  7  1  0
  7  6  2  0
  6  1  1  0
 13 14  2  0
 14 19  1  0
 19 17  2  0
 17 16  1  0
 16 15  2  0
 15 13  1  0
M  END

$$$$
No_864-/dssg/home/sw_qyf/PocketFlow/Model-Generation-Results/5HT2A_7WC7_rec_A_10.pdb/2024-01-01-03-54-21/
     RDKit          3D

 25 26  0  0  0  0  0  0  0  0999 V2000
  -23.1746  -16.6014  144.8668 C   0  0  0  0  0  0  0  0  0  0  0  0
  -23.7011  -17.0158  145.9774 C   0  0  0  0  0  0  0  0  0  0  0  0
  -23.7336  -18.2775  146.3737 C   0  0  0  0  0  0  0  0  0  0  0  0
  -23.8112  -15.3695  144.2738 C   0  0  0  0  0  0  0  0  0  0  0  0
  -24.2192  -14.3645  145.3045 C   0  0  0  0  0  0  0  0  0  0  0  0
  -24.9709  -14.8083  146.4404 C   0  0  0  0  0  0  0  0  0  0  0  0
  -24.3470  -16.0789  147.0150 C   0  0  0  0  0  0  0  0  0  0  0  0
  -23.7649  -12.9957  145.2515 C   0  0  0  0  0  0  0  0  0  0  0  0
  -24.5788  -12.0455  145.5460 N   0  0  0  0  0  0  0  0  0  0  0  0
  -25.0533  -11.0441  144.7100 C   0  0  0  0  0  0  0  0  0  0  0  0
  -26.5425  -10.8904  144.6792 C   0  0  0  0  0  0  0  0  0  0  0  0
  -27.1034   -9.9660  143.8502 C   0  0  0  0  0  0  0  0  0  0  0  0
  -28.4523  -10.0578  143.4731 C   0  0  0  0  0  0  0  0  0  0  0  0
  -29.3219  -10.7131  144.4362 C   0  0  0  0  0  0  0  0  0  0  0  0
  -28.7224  -11.5823  145.4386 C   0  0  0  0  0  0  0  0  0  0  0  0
  -27.3630  -11.6535  145.5760 C   0  0  0  0  0  0  0  0  0  0  0  0
  -29.6620  -12.3182  146.3730 C   0  0  0  0  0  0  0  0  0  0  0  0
  -29.4995  -12.2598  147.6129 C   0  0  0  0  0  0  0  0  0  0  0  0
  -30.3427  -13.0553  148.5530 C   0  0  0  0  0  0  0  0  0  0  0  0
  -29.0675   -9.2769  142.4599 C   0  0  0  0  0  0  0  0  0  0  0  0
  -28.6592   -9.5887  141.1311 C   0  0  0  0  0  0  0  0  0  0  0  0
  -28.9825   -8.6660  140.1155 C   0  0  0  0  0  0  0  0  0  0  0  0
  -28.4671   -8.6822  138.7967 C   0  0  0  0  0  0  0  0  0  0  0  0
  -27.6442   -9.7729  138.5337 C   0  0  0  0  0  0  0  0  0  0  0  0
  -27.3156  -10.7132  139.5226 C   0  0  0  0  0  0  0  0  0  0  0  0
  1  2  1  0
  2  3  1  0
  1  4  1  0
  4  5  1  0
  5  6  1  0
  2  7  1  0
  6  7  1  0
  5  8  1  0
  8  9  1  0
  9 10  1  0
 10 11  1  0
 15 17  1  0
 17 18  1  0
 18 19  1  0
 13 20  1  0
 20 21  2  3
 21 22  1  0
 22 23  2  3
 23 24  1  0
 24 25  2  0
 11 12  2  0
 12 13  1  0
 13 14  2  0
 14 15  1  0
 15 16  2  0
 16 11  1  0
M  END

$$$$
No_865-/dssg/home/sw_qyf/PocketFlow/Model-Generation-Results/5HT2A_7WC7_rec_A_10.pdb/2024-01-01-03-54-21/
     RDKit          3D

 31 33  0  0  0  0  0  0  0  0999 V2000
  -24.1553  -17.8465  145.7021 C   0  0  0  0  0  0  0  0  0  0  0  0
  -24.2856  -16.6364  145.3494 C   0  0  0  0  0  0  0  0  0  0  0  0
  -25.0033  -15.6772  146.0737 C   0  0  0  0  0  0  0  0  0  0  0  0
  -25.7224  -16.0756  147.0213 C   0  0  0  0  0  0  0  0  0  0  0  0
  -26.8990  -15.4143  147.4599 C   0  0  0  0  0  0  0  0  0  0  0  0
  -24.9748  -18.4281  146.7368 C   0  0  0  0  0  0  0  0  0  0  0  0
  -25.7912  -17.4717  147.3794 C   0  0  0  0  0  0  0  0  0  0  0  0
  -24.9527  -14.2239  145.6410 C   0  0  0  0  0  0  0  0  0  0  0  0
  -23.9309  -13.4688  146.1592 C   0  0  0  0  0  0  0  0  0  0  0  0
  -25.8193  -13.7820  144.6843 C   0  0  0  0  0  0  0  0  0  0  0  0
  -23.7705  -12.1209  145.6593 C   0  0  0  0  0  0  0  0  0  0  0  0
  -25.6692  -14.1700  143.3427 C   0  0  0  0  0  0  0  0  0  0  0  0
  -26.5485  -13.7409  142.3412 C   0  0  0  0  0  0  0  0  0  0  0  0
  -27.3735  -12.5943  142.6498 C   0  0  0  0  0  0  0  0  0  0  0  0
  -27.4488  -12.1344  144.0317 C   0  0  0  0  0  0  0  0  0  0  0  0
  -26.5696  -12.6770  145.0111 C   0  0  0  0  0  0  0  0  0  0  0  0
  -28.3605  -11.0208  144.3475 C   0  0  0  0  0  0  0  0  0  0  0  0
  -29.1388  -10.3137  143.4988 C   0  0  0  0  0  0  0  0  0  0  0  0
  -30.0746   -9.3936  144.0203 C   0  0  0  0  0  0  0  0  0  0  0  0
  -30.8596   -8.6544  143.2061 C   0  0  0  0  0  0  0  0  0  0  0  0
  -30.4663   -8.4211  141.8894 C   0  0  0  0  0  0  0  0  0  0  0  0
  -29.3651   -9.2167  141.3858 C   0  0  0  0  0  0  0  0  0  0  0  0
  -28.6681  -10.0695  142.2303 C   0  0  0  0  0  0  0  0  0  0  0  0
  -28.9367   -9.0239  140.0089 C   0  0  0  0  0  0  0  0  0  0  0  0
  -29.1805   -7.8402  139.2930 C   0  0  0  0  0  0  0  0  0  0  0  0
  -28.6072   -7.8797  138.1374 N   0  0  0  0  0  0  0  0  0  0  0  0
  -28.0243   -9.9060  139.4115 C   0  0  0  0  0  0  0  0  0  0  0  0
  -27.4858  -11.0701  140.1218 C   0  0  0  0  0  0  0  0  0  0  0  0
  -26.6805  -11.9362  139.3050 C   0  0  0  0  0  0  0  0  0  0  0  0
  -29.9008   -6.9323  139.7531 O   0  0  0  0  0  0  0  0  0  0  0  0
  -23.4122  -16.1980  144.3934 F   0  0  0  0  0  0  0  0  0  0  0  0
  4  5  1  0
  3  8  1  0
  8  9  2  3
  8 10  1  0
  9 11  1  0
 15 17  1  0
 22 24  1  0
 24 25  1  0
 25 26  1  0
 24 27  1  0
 27 28  1  0
 28 29  1  0
 25 30  2  0
  2 31  1  0
 17 18  1  0
 10 12  2  0
 12 13  1  0
 13 14  2  0
 14 15  1  0
 15 16  2  0
 16 10  1  0
 18 19  2  0
 19 20  1  0
 20 21  2  0
 21 22  1  0
 22 23  2  0
 23 18  1  0
  1  2  2  0
  2  3  1  0
  3  4  2  0
  4  7  1  0
  7  6  2  0
  6  1  1  0
M  END

$$$$
No_866-/dssg/home/sw_qyf/PocketFlow/Model-Generation-Results/5HT2A_7WC7_rec_A_10.pdb/2024-01-01-03-54-21/
     RDKit          3D

  8  8  0  0  0  0  0  0  0  0999 V2000
  -23.1746  -16.6014  144.8668 C   0  0  0  0  0  0  0  0  0  0  0  0
  -23.8963  -15.5346  144.7885 C   0  0  0  0  0  0  0  0  0  0  0  0
  -25.0304  -15.2549  144.5358 C   0  0  0  0  0  0  0  0  0  0  0  0
  -26.0482  -16.0541  145.3273 C   0  0  0  0  0  0  0  0  0  0  0  0
  -24.1314  -17.6118  145.6547 C   0  0  0  0  0  0  0  0  0  0  0  0
  -25.2479  -17.1782  146.0512 C   0  0  0  0  0  0  0  0  0  0  0  0
  -25.6159  -13.9514  144.0427 C   0  0  0  0  0  0  0  0  0  0  0  0
  -25.8752  -14.0497  142.8134 O   0  0  0  0  0  0  0  0  0  0  0  0
  3  7  1  0
  7  8  1  0
  1  2  2  0
  2  3  1  0
  3  4  2  0
  4  6  1  0
  6  5  2  0
  5  1  1  0
M  END

$$$$
No_867-/dssg/home/sw_qyf/PocketFlow/Model-Generation-Results/5HT2A_7WC7_rec_A_10.pdb/2024-01-01-03-54-21/
     RDKit          3D

 35 36  0  0  0  0  0  0  0  0999 V2000
  -23.1746  -16.6014  144.8668 C   0  0  0  0  0  0  0  0  0  0  0  0
  -23.8963  -15.5346  144.7885 C   0  0  0  0  0  0  0  0  0  0  0  0
  -25.0304  -15.2549  144.5358 C   0  0  0  0  0  0  0  0  0  0  0  0
  -25.8853  -14.7934  145.2672 C   0  0  0  0  0  0  0  0  0  0  0  0
  -25.4331  -13.6599  146.1680 C   0  0  0  0  0  0  0  0  0  0  0  0
  -24.9543  -12.6464  145.7813 C   0  0  0  0  0  0  0  0  0  0  0  0
  -25.1174  -11.4053  146.4022 C   0  0  0  0  0  0  0  0  0  0  0  0
  -24.0227  -17.7482  145.1500 C   0  0  0  0  0  0  0  0  0  0  0  0
  -24.7867  -17.6606  146.3609 C   0  0  0  0  0  0  0  0  0  0  0  0
  -24.1292  -17.8295  147.5422 C   0  0  0  0  0  0  0  0  0  0  0  0
  -24.4173  -16.9532  148.6230 C   0  0  0  0  0  0  0  0  0  0  0  0
  -24.5922  -17.4876  149.8036 C   0  0  0  0  0  0  0  0  0  0  0  0
  -27.3762  -14.8108  145.1269 C   0  0  0  0  0  0  0  0  0  0  0  0
  -23.8318  -12.5496  144.8350 C   0  0  0  0  0  0  0  0  0  0  0  0
  -22.9756  -11.5136  144.8756 N   0  0  0  0  0  0  0  0  0  0  0  0
  -25.8122  -17.6802  150.4312 C   0  0  0  0  0  0  0  0  0  0  0  0
  -26.9673  -17.2293  149.8070 C   0  0  0  0  0  0  0  0  0  0  0  0
  -26.9397  -16.2801  148.8094 C   0  0  0  0  0  0  0  0  0  0  0  0
  -25.5498  -16.3147  148.1117 C   0  0  0  0  0  0  0  0  0  0  0  0
  -25.8013  -16.6562  146.8498 O   0  0  0  0  0  0  0  0  0  0  0  0
  -26.4484  -10.8119  145.9097 C   0  0  0  0  0  0  0  0  0  0  0  0
  -26.8510  -11.1232  144.6559 C   0  0  0  0  0  0  0  0  0  0  0  0
  -27.9009  -10.2535  144.1110 C   0  0  0  0  0  0  0  0  0  0  0  0
  -28.7177  -10.7331  143.1923 C   0  0  0  0  0  0  0  0  0  0  0  0
  -30.0487  -10.1591  142.9986 C   0  0  0  0  0  0  0  0  0  0  0  0
  -30.4213   -9.5329  141.7682 C   0  0  0  0  0  0  0  0  0  0  0  0
  -29.8509   -8.1135  141.7903 C   0  0  0  0  0  0  0  0  0  0  0  0
  -30.0907   -7.2268  142.8345 C   0  0  0  0  0  0  0  0  0  0  0  0
  -30.0356   -7.3887  140.4082 C   0  0  0  0  0  0  0  0  0  0  0  0
  -29.6973   -8.2041  139.2903 C   0  0  0  0  0  0  0  0  0  0  0  0
  -28.1612   -8.4550  139.0162 C   0  0  0  0  0  0  0  0  0  0  0  0
  -28.1870   -9.6560  138.5518 C   0  0  0  0  0  0  0  0  0  0  0  0
  -27.6367  -10.7248  139.3911 C   0  0  0  0  0  0  0  0  0  0  0  0
  -27.6053  -12.0996  139.0413 C   0  0  0  0  0  0  0  0  0  0  0  0
  -28.5978  -12.5310  138.8790 C   0  0  0  0  0  0  0  0  0  0  0  0
  1  2  1  0
  2  3  2  3
  3  4  1  0
  4  5  1  0
  5  6  1  0
  6  7  2  3
  1  8  1  0
  8  9  1  0
  9 10  2  0
 10 11  1  0
  4 13  1  0
  6 14  1  0
 14 15  1  0
  9 20  1  0
 19 20  1  0
  7 21  1  0
 21 22  1  0
 22 23  1  0
 23 24  1  0
 24 25  1  0
 25 26  1  0
 26 27  1  0
 27 28  1  0
 27 29  1  0
 29 30  1  0
 30 31  1  0
 31 32  1  0
 32 33  1  0
 33 34  1  0
 34 35  2  0
 11 12  2  0
 12 16  1  0
 16 17  2  0
 17 18  1  0
 18 19  2  0
 19 11  1  0
M  END

$$$$
No_868-/dssg/home/sw_qyf/PocketFlow/Model-Generation-Results/5HT2A_7WC7_rec_A_10.pdb/2024-01-01-03-54-21/
     RDKit          3D

 16 17  0  0  0  0  0  0  0  0999 V2000
  -24.1553  -17.8465  145.7021 C   0  0  0  0  0  0  0  0  0  0  0  0
  -23.9795  -18.4462  146.7426 C   0  0  0  0  0  0  0  0  0  0  0  0
  -25.1593  -16.8262  145.6925 C   0  0  0  0  0  0  0  0  0  0  0  0
  -25.3302  -15.8818  144.5925 C   0  0  0  0  0  0  0  0  0  0  0  0
  -24.0558  -17.8060  147.9302 C   0  0  0  0  0  0  0  0  0  0  0  0
  -24.8724  -16.6738  148.1474 C   0  0  0  0  0  0  0  0  0  0  0  0
  -25.2411  -15.9876  146.9649 C   0  0  0  0  0  0  0  0  0  0  0  0
  -25.1384  -14.4639  144.8621 C   0  0  0  0  0  0  0  0  0  0  0  0
  -25.1757  -13.6260  143.6651 C   0  0  0  0  0  0  0  0  0  0  0  0
  -25.5195  -14.5780  146.7416 C   0  0  0  0  0  0  0  0  0  0  0  0
  -25.2822  -14.2773  142.6940 O   0  0  0  0  0  0  0  0  0  0  0  0
  -24.7729  -13.6961  147.4550 F   0  0  0  0  0  0  0  0  0  0  0  0
  -26.7744  -14.3242  146.7280 F   0  0  0  0  0  0  0  0  0  0  0  0
  -23.3390  -19.6316  146.7906 O   0  0  0  0  0  0  0  0  0  0  0  0
  -22.4425  -19.7073  145.8032 C   0  0  0  0  0  0  0  0  0  0  0  0
  -25.8877  -12.6788  144.0372 O   0  0  0  0  0  0  0  0  0  0  0  0
  3  4  1  0
  4  8  1  0
  8  9  1  0
  7 10  1  0
  8 10  1  0
  9 11  1  0
 10 12  1  0
 10 13  1  0
  2 14  1  0
 14 15  1  0
  9 16  2  0
  1  2  2  0
  2  5  1  0
  5  6  2  0
  6  7  1  0
  7  3  2  0
  3  1  1  0
M  END

$$$$
No_869-/dssg/home/sw_qyf/PocketFlow/Model-Generation-Results/5HT2A_7WC7_rec_A_10.pdb/2024-01-01-03-54-21/
     RDKit          3D

 34 37  0  0  0  0  0  0  0  0999 V2000
  -24.1553  -17.8465  145.7021 C   0  0  0  0  0  0  0  0  0  0  0  0
  -24.2856  -16.6364  145.3494 C   0  0  0  0  0  0  0  0  0  0  0  0
  -25.0033  -15.6772  146.0737 C   0  0  0  0  0  0  0  0  0  0  0  0
  -25.7224  -16.0756  147.0213 C   0  0  0  0  0  0  0  0  0  0  0  0
  -24.8891  -18.3427  146.7818 C   0  0  0  0  0  0  0  0  0  0  0  0
  -26.5977  -15.1452  147.7880 C   0  0  0  0  0  0  0  0  0  0  0  0
  -25.6293  -17.4126  147.4907 C   0  0  0  0  0  0  0  0  0  0  0  0
  -23.5124  -16.1221  144.2146 N   0  0  0  0  0  0  0  0  0  0  0  0
  -25.0108  -14.2314  145.7731 C   0  0  0  0  0  0  0  0  0  0  0  0
  -25.9924  -13.6189  145.1652 C   0  0  0  0  0  0  0  0  0  0  0  0
  -26.8521  -12.9125  146.1616 C   0  0  0  0  0  0  0  0  0  0  0  0
  -27.8210  -11.9366  145.7448 C   0  0  0  0  0  0  0  0  0  0  0  0
  -27.5871  -11.0532  144.7395 C   0  0  0  0  0  0  0  0  0  0  0  0
  -28.7084  -10.1751  144.3441 C   0  0  0  0  0  0  0  0  0  0  0  0
  -28.6216   -9.3121  143.2320 C   0  0  0  0  0  0  0  0  0  0  0  0
  -29.4383   -8.2045  143.1617 C   0  0  0  0  0  0  0  0  0  0  0  0
  -29.2446   -7.2120  142.1638 C   0  0  0  0  0  0  0  0  0  0  0  0
  -29.5852   -5.8678  142.2623 C   0  0  0  0  0  0  0  0  0  0  0  0
  -29.0564  -11.7493  146.5287 C   0  0  0  0  0  0  0  0  0  0  0  0
  -29.3661  -12.6921  147.6364 C   0  0  0  0  0  0  0  0  0  0  0  0
  -29.2856  -14.0336  147.3731 C   0  0  0  0  0  0  0  0  0  0  0  0
  -29.9657  -14.7745  148.4542 C   0  0  0  0  0  0  0  0  0  0  0  0
  -29.0419   -4.9236  141.4215 C   0  0  0  0  0  0  0  0  0  0  0  0
  -29.0224   -5.3719  140.0519 C   0  0  0  0  0  0  0  0  0  0  0  0
  -28.9491   -6.7884  139.8316 C   0  0  0  0  0  0  0  0  0  0  0  0
  -29.0906   -7.7077  140.8859 C   0  0  0  0  0  0  0  0  0  0  0  0
  -29.7096   -9.9392  145.2900 C   0  0  0  0  0  0  0  0  0  0  0  0
  -30.0538  -10.9307  146.3027 C   0  0  0  0  0  0  0  0  0  0  0  0
  -28.6923   -7.2584  138.6007 N   0  0  0  0  0  0  0  0  0  0  0  0
  -28.2086   -8.4890  138.2168 C   0  0  0  0  0  0  0  0  0  0  0  0
  -27.7087   -9.2833  139.3215 C   0  0  0  0  0  0  0  0  0  0  0  0
  -27.1287  -10.5570  139.1161 C   0  0  0  0  0  0  0  0  0  0  0  0
  -28.0444  -11.7540  139.3658 C   0  0  0  0  0  0  0  0  0  0  0  0
  -28.3208   -8.9049  140.6853 C   0  0  0  0  0  0  0  0  0  0  0  0
  4  6  1  0
  2  8  1  0
  3  9  1  0
  9 10  1  0
 10 11  1  0
 11 12  1  0
 14 15  1  0
 15 16  2  3
 16 17  1  0
 19 20  1  0
 20 21  1  0
 21 22  2  0
 25 29  1  0
 29 30  1  0
 30 31  1  0
 31 32  1  0
 32 33  1  0
 26 34  1  0
 31 34  1  0
 12 13  2  0
 13 14  1  0
 14 27  2  0
 27 28  1  0
 28 19  2  0
 19 12  1  0
  1  2  2  0
  2  3  1  0
  3  4  2  0
  4  7  1  0
  7  5  2  0
  5  1  1  0
 17 18  2  0
 18 23  1  0
 23 24  2  0
 24 25  1  0
 25 26  2  0
 26 17  1  0
M  END

$$$$
No_870-/dssg/home/sw_qyf/PocketFlow/Model-Generation-Results/5HT2A_7WC7_rec_A_10.pdb/2024-01-01-03-54-21/
     RDKit          3D

 35 37  0  0  0  0  0  0  0  0999 V2000
  -23.1746  -16.6014  144.8668 C   0  0  0  0  0  0  0  0  0  0  0  0
  -23.8963  -15.5346  144.7885 C   0  0  0  0  0  0  0  0  0  0  0  0
  -25.0304  -15.2549  144.5358 C   0  0  0  0  0  0  0  0  0  0  0  0
  -25.6045  -13.9524  144.2294 C   0  0  0  0  0  0  0  0  0  0  0  0
  -26.9716  -13.7632  143.8495 C   0  0  0  0  0  0  0  0  0  0  0  0
  -27.2940  -12.4851  143.3751 C   0  0  0  0  0  0  0  0  0  0  0  0
  -27.3637  -11.4485  144.2830 C   0  0  0  0  0  0  0  0  0  0  0  0
  -27.8621  -11.3613  145.2361 C   0  0  0  0  0  0  0  0  0  0  0  0
  -28.3640  -12.4320  146.0754 C   0  0  0  0  0  0  0  0  0  0  0  0
  -29.5458  -12.2803  146.8533 C   0  0  0  0  0  0  0  0  0  0  0  0
  -29.8810  -13.1908  147.9126 C   0  0  0  0  0  0  0  0  0  0  0  0
  -30.9890  -12.9833  148.7370 C   0  0  0  0  0  0  0  0  0  0  0  0
  -31.2922  -13.9659  149.6706 C   0  0  0  0  0  0  0  0  0  0  0  0
  -30.5394  -15.1774  149.7094 C   0  0  0  0  0  0  0  0  0  0  0  0
  -29.5035  -15.3953  148.7799 C   0  0  0  0  0  0  0  0  0  0  0  0
  -29.1728  -14.3702  147.8822 C   0  0  0  0  0  0  0  0  0  0  0  0
  -28.7966  -16.6734  148.8252 C   0  0  0  0  0  0  0  0  0  0  0  0
  -30.3065  -11.2647  146.5282 O   0  0  0  0  0  0  0  0  0  0  0  0
  -27.6198  -16.5349  148.7084 F   0  0  0  0  0  0  0  0  0  0  0  0
  -24.0534  -17.7586  145.0661 C   0  0  0  0  0  0  0  0  0  0  0  0
  -25.3705  -17.5317  145.3857 C   0  0  0  0  0  0  0  0  0  0  0  0
  -25.9748  -16.2524  145.1016 C   0  0  0  0  0  0  0  0  0  0  0  0
  -28.9764  -17.2649  150.0882 F   0  0  0  0  0  0  0  0  0  0  0  0
  -29.2595  -17.4363  147.8539 F   0  0  0  0  0  0  0  0  0  0  0  0
  -27.6571  -12.4621  141.9626 C   0  0  0  0  0  0  0  0  0  0  0  0
  -27.2303  -13.3908  141.0775 C   0  0  0  0  0  0  0  0  0  0  0  0
  -27.2933  -13.0574  139.7345 C   0  0  0  0  0  0  0  0  0  0  0  0
  -27.9123  -11.8116  139.3122 C   0  0  0  0  0  0  0  0  0  0  0  0
  -28.2830  -10.8855  140.2937 C   0  0  0  0  0  0  0  0  0  0  0  0
  -28.1299  -11.1759  141.6623 C   0  0  0  0  0  0  0  0  0  0  0  0
  -27.9787  -11.5930  138.0193 N   0  0  0  0  0  0  0  0  0  0  0  0
  -23.5526  -18.9861  145.3349 O   0  0  0  0  0  0  0  0  0  0  0  0
  -24.7581  -12.9895  144.1727 O   0  0  0  0  0  0  0  0  0  0  0  0
  -32.3676  -13.8028  150.6739 C   0  0  0  0  0  0  0  0  0  0  0  0
  -33.0853  -12.9040  150.4379 F   0  0  0  0  0  0  0  0  0  0  0  0
  3  4  1  0
  4  5  1  0
  5  6  1  0
  6  7  2  3
  7  8  1  0
  8  9  1  0
  9 10  1  0
 10 11  1  0
 15 17  1  0
 10 18  2  0
 17 19  1  0
 17 23  1  0
 17 24  1  0
  6 25  1  0
 28 31  1  0
 20 32  1  0
  4 33  2  0
 13 34  1  0
 34 35  1  0
 11 12  2  0
 12 13  1  0
 13 14  2  0
 14 15  1  0
 15 16  2  0
 16 11  1  0
 25 26  2  0
 26 27  1  0
 27 28  2  0
 28 29  1  0
 29 30  2  0
 30 25  1  0
  1  2  2  0
  2  3  1  0
  3 22  2  0
 22 21  1  0
 21 20  2  0
 20  1  1  0
M  END

$$$$
No_871-/dssg/home/sw_qyf/PocketFlow/Model-Generation-Results/5HT2A_7WC7_rec_A_10.pdb/2024-01-01-03-54-21/
     RDKit          3D

 12 12  0  0  0  0  0  0  0  0999 V2000
  -24.1553  -17.8465  145.7021 C   0  0  0  0  0  0  0  0  0  0  0  0
  -24.2856  -16.6364  145.3494 C   0  0  0  0  0  0  0  0  0  0  0  0
  -25.0033  -15.6772  146.0737 C   0  0  0  0  0  0  0  0  0  0  0  0
  -25.6964  -16.1810  147.2049 C   0  0  0  0  0  0  0  0  0  0  0  0
  -24.8143  -18.3454  146.8324 C   0  0  0  0  0  0  0  0  0  0  0  0
  -25.5291  -17.4614  147.6373 C   0  0  0  0  0  0  0  0  0  0  0  0
  -23.5978  -16.0422  144.1195 C   0  0  0  0  0  0  0  0  0  0  0  0
  -23.0216  -14.8224  144.3099 N   0  0  0  0  0  0  0  0  0  0  0  0
  -23.6895  -13.6785  144.0073 C   0  0  0  0  0  0  0  0  0  0  0  0
  -24.8595  -13.5751  143.8856 O   0  0  0  0  0  0  0  0  0  0  0  0
  -22.8567  -12.7309  143.6796 F   0  0  0  0  0  0  0  0  0  0  0  0
  -23.5175  -18.7708  144.9592 O   0  0  0  0  0  0  0  0  0  0  0  0
  2  7  1  0
  7  8  1  0
  8  9  1  0
  9 10  2  0
  9 11  1  0
  1 12  1  0
  1  2  2  0
  2  3  1  0
  3  4  2  0
  4  6  1  0
  6  5  2  0
  5  1  1  0
M  END

$$$$
No_872-/dssg/home/sw_qyf/PocketFlow/Model-Generation-Results/5HT2A_7WC7_rec_A_10.pdb/2024-01-01-03-54-21/
     RDKit          3D

 19 21  0  0  0  0  0  0  0  0999 V2000
  -24.1553  -17.8465  145.7021 C   0  0  0  0  0  0  0  0  0  0  0  0
  -23.9795  -18.4462  146.7426 C   0  0  0  0  0  0  0  0  0  0  0  0
  -24.2723  -16.4220  145.8037 C   0  0  0  0  0  0  0  0  0  0  0  0
  -24.4589  -15.5647  144.6216 C   0  0  0  0  0  0  0  0  0  0  0  0
  -23.8419  -17.9056  148.0715 C   0  0  0  0  0  0  0  0  0  0  0  0
  -24.0803  -16.5134  148.1749 C   0  0  0  0  0  0  0  0  0  0  0  0
  -24.2908  -15.7608  147.1225 C   0  0  0  0  0  0  0  0  0  0  0  0
  -24.9354  -14.2126  144.7949 C   0  0  0  0  0  0  0  0  0  0  0  0
  -26.1587  -13.8507  145.0401 C   0  0  0  0  0  0  0  0  0  0  0  0
  -26.5851  -12.5709  145.0639 C   0  0  0  0  0  0  0  0  0  0  0  0
  -25.8513  -11.6387  145.5790 C   0  0  0  0  0  0  0  0  0  0  0  0
  -24.4037  -11.7738  145.3286 C   0  0  0  0  0  0  0  0  0  0  0  0
  -23.8895  -13.1991  145.3390 C   0  0  0  0  0  0  0  0  0  0  0  0
  -27.9495  -12.4890  146.0600 C   0  0  0  0  0  0  0  0  0  0  0  0
  -28.2784  -13.3601  147.0782 C   0  0  0  0  0  0  0  0  0  0  0  0
  -29.4424  -13.3050  147.7899 C   0  0  0  0  0  0  0  0  0  0  0  0
  -30.2044  -12.0968  147.6836 C   0  0  0  0  0  0  0  0  0  0  0  0
  -29.9802  -11.2026  146.6449 C   0  0  0  0  0  0  0  0  0  0  0  0
  -28.7903  -11.3281  145.9035 C   0  0  0  0  0  0  0  0  0  0  0  0
  3  4  1  0
  4  8  1  0
  8  9  1  0
  9 10  1  0
 10 11  1  0
 11 12  1  0
  8 13  1  0
 12 13  1  0
 10 14  1  0
 14 15  2  0
 15 16  1  0
 16 17  2  0
 17 18  1  0
 18 19  2  0
 19 14  1  0
  1  2  2  0
  2  5  1  0
  5  6  2  0
  6  7  1  0
  7  3  2  0
  3  1  1  0
M  END

$$$$
No_873-/dssg/home/sw_qyf/PocketFlow/Model-Generation-Results/5HT2A_7WC7_rec_A_10.pdb/2024-01-01-03-54-21/
     RDKit          3D

 35 36  0  0  0  0  0  0  0  0999 V2000
  -23.1746  -16.6014  144.8668 C   0  0  0  0  0  0  0  0  0  0  0  0
  -23.7011  -17.0158  145.9774 C   0  0  0  0  0  0  0  0  0  0  0  0
  -24.2134  -16.0722  146.8877 C   0  0  0  0  0  0  0  0  0  0  0  0
  -23.3742  -15.2706  144.3922 C   0  0  0  0  0  0  0  0  0  0  0  0
  -24.0638  -14.3065  145.2723 C   0  0  0  0  0  0  0  0  0  0  0  0
  -24.4769  -14.7246  146.5384 C   0  0  0  0  0  0  0  0  0  0  0  0
  -24.2143  -12.8848  144.8927 C   0  0  0  0  0  0  0  0  0  0  0  0
  -23.1081  -12.1279  145.5139 C   0  0  0  0  0  0  0  0  0  0  0  0
  -23.5294  -18.4678  146.2517 C   0  0  0  0  0  0  0  0  0  0  0  0
  -23.2232  -19.2513  145.6043 O   0  0  0  0  0  0  0  0  0  0  0  0
  -23.6033  -18.7052  147.6831 O   0  0  0  0  0  0  0  0  0  0  0  0
  -25.5354  -12.3687  145.3220 C   0  0  0  0  0  0  0  0  0  0  0  0
  -26.6369  -12.4439  144.4992 C   0  0  0  0  0  0  0  0  0  0  0  0
  -27.8849  -11.8546  144.9073 C   0  0  0  0  0  0  0  0  0  0  0  0
  -28.6273  -10.9042  144.1951 C   0  0  0  0  0  0  0  0  0  0  0  0
  -29.4653  -10.2498  144.5103 C   0  0  0  0  0  0  0  0  0  0  0  0
  -30.1899   -9.2808  143.7271 C   0  0  0  0  0  0  0  0  0  0  0  0
  -29.7642   -9.1151  142.4501 C   0  0  0  0  0  0  0  0  0  0  0  0
  -28.7388   -9.9659  141.9740 C   0  0  0  0  0  0  0  0  0  0  0  0
  -28.1196  -10.8103  142.8679 C   0  0  0  0  0  0  0  0  0  0  0  0
  -30.4729   -8.1725  141.5497 C   0  0  0  0  0  0  0  0  0  0  0  0
  -29.9488   -7.8360  140.3647 N   0  0  0  0  0  0  0  0  0  0  0  0
  -28.8448   -6.9738  140.3808 C   0  0  0  0  0  0  0  0  0  0  0  0
  -28.4030   -6.7562  139.0877 N   0  0  0  0  0  0  0  0  0  0  0  0
  -28.4298  -12.4212  146.1802 C   0  0  0  0  0  0  0  0  0  0  0  0
  -29.3550  -13.1706  146.0782 O   0  0  0  0  0  0  0  0  0  0  0  0
  -29.9300  -13.4005  147.3904 C   0  0  0  0  0  0  0  0  0  0  0  0
  -30.2604  -12.3159  148.1750 C   0  0  0  0  0  0  0  0  0  0  0  0
  -31.4423  -11.9087  148.0902 O   0  0  0  0  0  0  0  0  0  0  0  0
  -27.8344   -7.9129  138.6836 C   0  0  0  0  0  0  0  0  0  0  0  0
  -28.8712   -8.9358  138.3349 C   0  0  0  0  0  0  0  0  0  0  0  0
  -28.3852   -9.9368  137.5638 N   0  0  0  0  0  0  0  0  0  0  0  0
  -31.6365   -7.8099  141.8881 O   0  0  0  0  0  0  0  0  0  0  0  0
  -29.1551  -14.4938  148.1239 C   0  0  0  0  0  0  0  0  0  0  0  0
  -29.0848  -15.8090  147.5347 C   0  0  0  0  0  0  0  0  0  0  0  0
  5  7  1  0
  7  8  1  0
  2  9  1  0
  9 10  2  0
  9 11  1  0
  7 12  1  0
 12 13  2  3
 13 14  1  0
 18 21  1  0
 21 22  1  0
 22 23  1  0
 23 24  2  3
 14 25  1  0
 25 26  1  0
 26 27  1  0
 27 28  1  0
 28 29  1  0
 24 30  1  0
 30 31  1  0
 31 32  1  0
 21 33  2  0
 27 34  1  0
 34 35  2  0
 14 15  1  0
 15 16  2  0
 16 17  1  0
 17 18  2  0
 18 19  1  0
 19 20  2  0
 20 15  1  0
  1  2  2  0
  2  3  1  0
  3  6  2  0
  6  5  1  0
  5  4  2  0
  4  1  1  0
M  END

$$$$
No_874-/dssg/home/sw_qyf/PocketFlow/Model-Generation-Results/5HT2A_7WC7_rec_A_10.pdb/2024-01-01-03-54-21/
     RDKit          3D

 18 19  0  0  0  0  0  0  0  0999 V2000
  -24.1553  -17.8465  145.7021 C   0  0  0  0  0  0  0  0  0  0  0  0
  -24.2856  -16.6364  145.3494 C   0  0  0  0  0  0  0  0  0  0  0  0
  -24.5733  -15.7651  145.9979 C   0  0  0  0  0  0  0  0  0  0  0  0
  -25.1772  -15.7608  146.8967 C   0  0  0  0  0  0  0  0  0  0  0  0
  -24.7491  -18.1486  146.9814 C   0  0  0  0  0  0  0  0  0  0  0  0
  -25.2478  -17.0667  147.7031 C   0  0  0  0  0  0  0  0  0  0  0  0
  -24.5930  -14.1936  145.3883 C   0  0  0  0  0  0  0  0  0  0  0  0
  -25.2370  -13.1477  145.9755 C   0  0  0  0  0  0  0  0  0  0  0  0
  -24.6881  -11.8551  146.0226 C   0  0  0  0  0  0  0  0  0  0  0  0
  -23.8190  -11.5481  144.9781 C   0  0  0  0  0  0  0  0  0  0  0  0
  -23.6549  -13.8565  144.3190 C   0  0  0  0  0  0  0  0  0  0  0  0
  -23.1074  -14.7052  143.5347 N   0  0  0  0  0  0  0  0  0  0  0  0
  -23.2040  -12.5252  144.2589 C   0  0  0  0  0  0  0  0  0  0  0  0
  -25.9357  -17.2420  149.2649 Cl  0  0  0  0  0  0  0  0  0  0  0  0
  -25.4370  -10.8472  146.6317 O   0  0  0  0  0  0  0  0  0  0  0  0
  -23.7643  -18.9492  144.9998 O   0  0  0  0  0  0  0  0  0  0  0  0
  -21.8288  -14.3875  143.0791 C   0  0  0  0  0  0  0  0  0  0  0  0
  -21.1593  -15.3593  142.5282 N   0  0  0  0  0  0  0  0  0  0  0  0
  3  7  1  0
 11 12  1  0
  6 14  1  0
  9 15  1  0
  1 16  1  0
 12 17  1  0
 17 18  2  0
  1  2  2  0
  2  3  1  0
  3  4  2  0
  4  6  1  0
  6  5  2  0
  5  1  1  0
  7  8  2  0
  8  9  1  0
  9 10  2  0
 10 13  1  0
 13 11  2  0
 11  7  1  0
M  END

$$$$
No_875-/dssg/home/sw_qyf/PocketFlow/Model-Generation-Results/5HT2A_7WC7_rec_A_10.pdb/2024-01-01-03-54-21/
     RDKit          3D

 32 35  0  0  0  0  0  0  0  0999 V2000
  -24.1553  -17.8465  145.7021 C   0  0  0  0  0  0  0  0  0  0  0  0
  -23.9795  -18.4462  146.7426 C   0  0  0  0  0  0  0  0  0  0  0  0
  -24.2723  -16.4220  145.8037 C   0  0  0  0  0  0  0  0  0  0  0  0
  -24.0151  -15.5895  144.6874 C   0  0  0  0  0  0  0  0  0  0  0  0
  -24.0834  -17.9646  148.0883 C   0  0  0  0  0  0  0  0  0  0  0  0
  -24.2949  -16.5690  148.2409 C   0  0  0  0  0  0  0  0  0  0  0  0
  -24.3289  -15.7594  147.1024 C   0  0  0  0  0  0  0  0  0  0  0  0
  -24.3317  -14.1037  144.8513 C   0  0  0  0  0  0  0  0  0  0  0  0
  -24.8624  -13.6984  144.0734 C   0  0  0  0  0  0  0  0  0  0  0  0
  -26.2553  -13.8296  144.0613 C   0  0  0  0  0  0  0  0  0  0  0  0
  -26.9710  -14.2499  145.1046 C   0  0  0  0  0  0  0  0  0  0  0  0
  -27.8686  -13.3255  145.8413 C   0  0  0  0  0  0  0  0  0  0  0  0
  -28.8311  -13.7380  146.8347 C   0  0  0  0  0  0  0  0  0  0  0  0
  -29.5685  -12.7374  147.4859 C   0  0  0  0  0  0  0  0  0  0  0  0
  -29.3922  -11.4411  146.9370 N   0  0  0  0  0  0  0  0  0  0  0  0
  -28.6778  -11.0816  145.9266 C   0  0  0  0  0  0  0  0  0  0  0  0
  -27.8830  -12.0633  145.3642 C   0  0  0  0  0  0  0  0  0  0  0  0
  -30.3781  -12.9721  148.4801 N   0  0  0  0  0  0  0  0  0  0  0  0
  -28.8209  -15.0568  147.4028 C   0  0  0  0  0  0  0  0  0  0  0  0
  -28.3340  -16.1289  146.7555 C   0  0  0  0  0  0  0  0  0  0  0  0
  -27.3191  -15.6343  145.7163 C   0  0  0  0  0  0  0  0  0  0  0  0
  -26.8860  -13.9677  143.0023 C   0  0  0  0  0  0  0  0  0  0  0  0
  -27.3067  -12.8094  142.1716 C   0  0  0  0  0  0  0  0  0  0  0  0
  -27.6029  -12.9509  140.7881 C   0  0  0  0  0  0  0  0  0  0  0  0
  -28.1932  -11.9010  140.1081 C   0  0  0  0  0  0  0  0  0  0  0  0
  -28.3354  -10.6652  140.8440 C   0  0  0  0  0  0  0  0  0  0  0  0
  -28.9496   -9.5524  140.2230 C   0  0  0  0  0  0  0  0  0  0  0  0
  -29.4041   -8.4106  141.0206 C   0  0  0  0  0  0  0  0  0  0  0  0
  -29.9236   -7.2855  140.3676 C   0  0  0  0  0  0  0  0  0  0  0  0
  -29.5795   -7.2312  139.0074 C   0  0  0  0  0  0  0  0  0  0  0  0
  -28.9695   -8.2030  138.3184 C   0  0  0  0  0  0  0  0  0  0  0  0
  -28.5033   -9.3011  138.9598 C   0  0  0  0  0  0  0  0  0  0  0  0
  4  8  1  0
  8  9  2  3
  9 10  1  0
 10 11  1  0
 14 18  1  0
 10 22  1  0
 22 23  1  0
 23 24  1  0
 24 25  1  0
 25 26  2  3
 26 27  1  0
  4  3  1  0
 13 14  2  0
 14 15  1  0
 15 16  2  0
 16 17  1  0
 17 12  2  0
 27 28  2  0
 28 29  1  0
 29 30  2  0
 30 31  1  0
 31 32  2  0
 32 27  1  0
  1  2  2  0
  2  5  1  0
  5  6  2  0
  6  7  1  0
  7  3  2  0
  3  1  1  0
 11 12  1  0
 12 13  1  0
 13 19  1  0
 19 20  2  0
 20 21  1  0
 21 11  2  0
M  END

$$$$
No_876-/dssg/home/sw_qyf/PocketFlow/Model-Generation-Results/5HT2A_7WC7_rec_A_10.pdb/2024-01-01-03-54-21/
     RDKit          3D

  8  8  0  0  0  0  0  0  0  0999 V2000
  -23.1746  -16.6014  144.8668 C   0  0  0  0  0  0  0  0  0  0  0  0
  -23.7011  -17.0158  145.9774 C   0  0  0  0  0  0  0  0  0  0  0  0
  -24.0502  -18.2101  146.3018 C   0  0  0  0  0  0  0  0  0  0  0  0
  -23.7730  -19.2551  145.3865 C   0  0  0  0  0  0  0  0  0  0  0  0
  -23.0370  -15.1795  144.5798 C   0  0  0  0  0  0  0  0  0  0  0  0
  -23.7697  -14.1659  145.2594 C   0  0  0  0  0  0  0  0  0  0  0  0
  -24.4710  -14.5895  146.4580 C   0  0  0  0  0  0  0  0  0  0  0  0
  -24.4948  -15.9774  146.8327 C   0  0  0  0  0  0  0  0  0  0  0  0
  2  3  1  0
  3  4  1  0
  1  2  2  0
  2  8  1  0
  8  7  2  0
  7  6  1  0
  6  5  2  0
  5  1  1  0
M  END

$$$$
No_877-/dssg/home/sw_qyf/PocketFlow/Model-Generation-Results/5HT2A_7WC7_rec_A_10.pdb/2024-01-01-03-54-21/
     RDKit          3D

 16 18  0  0  0  0  0  0  0  0999 V2000
  -24.1553  -17.8465  145.7021 C   0  0  0  0  0  0  0  0  0  0  0  0
  -24.2856  -16.6364  145.3494 C   0  0  0  0  0  0  0  0  0  0  0  0
  -24.7211  -15.5955  146.2115 C   0  0  0  0  0  0  0  0  0  0  0  0
  -25.1322  -16.0374  147.5372 C   0  0  0  0  0  0  0  0  0  0  0  0
  -24.5163  -18.2968  146.9928 C   0  0  0  0  0  0  0  0  0  0  0  0
  -24.9534  -17.3074  147.9886 C   0  0  0  0  0  0  0  0  0  0  0  0
  -24.8711  -14.1852  145.8109 C   0  0  0  0  0  0  0  0  0  0  0  0
  -25.5241  -13.2608  146.5330 C   0  0  0  0  0  0  0  0  0  0  0  0
  -25.4755  -11.9231  146.2011 C   0  0  0  0  0  0  0  0  0  0  0  0
  -24.1557  -13.7534  144.6751 C   0  0  0  0  0  0  0  0  0  0  0  0
  -23.8778  -12.3081  144.4961 C   0  0  0  0  0  0  0  0  0  0  0  0
  -24.6252  -11.4059  145.2495 C   0  0  0  0  0  0  0  0  0  0  0  0
  -23.9506  -16.2511  144.0851 N   0  0  0  0  0  0  0  0  0  0  0  0
  -23.8065  -14.8072  143.8326 C   0  0  0  0  0  0  0  0  0  0  0  0
  -25.2607  -17.7143  149.3966 C   0  0  0  0  0  0  0  0  0  0  0  0
  -26.5641  -17.2707  150.1639 Cl  0  0  0  0  0  0  0  0  0  0  0  0
  6 15  1  0
 15 16  1  0
  3  7  1  0
 10 14  1  0
 14 13  2  0
 13  2  1  0
  1  2  2  0
  2  3  1  0
  3  4  2  0
  4  6  1  0
  6  5  2  0
  5  1  1  0
  7  8  2  0
  8  9  1  0
  9 12  2  0
 12 11  1  0
 11 10  2  0
 10  7  1  0
M  END

$$$$
No_878-/dssg/home/sw_qyf/PocketFlow/Model-Generation-Results/5HT2A_7WC7_rec_A_10.pdb/2024-01-01-03-54-21/
     RDKit          3D

 35 37  0  0  0  0  0  0  0  0999 V2000
  -24.1553  -17.8465  145.7021 C   0  0  0  0  0  0  0  0  0  0  0  0
  -24.2855  -16.6364  145.3494 C   0  0  0  0  0  0  0  0  0  0  0  0
  -24.7211  -15.5955  146.2116 C   0  0  0  0  0  0  0  0  0  0  0  0
  -25.1321  -16.0374  147.5372 C   0  0  0  0  0  0  0  0  0  0  0  0
  -23.6071  -18.8208  144.8607 C   0  0  0  0  0  0  0  0  0  0  0  0
  -24.8883  -17.2702  147.9667 C   0  0  0  0  0  0  0  0  0  0  0  0
  -24.3635  -18.1645  147.0758 C   0  0  0  0  0  0  0  0  0  0  0  0
  -24.9559  -14.1718  145.8063 C   0  0  0  0  0  0  0  0  0  0  0  0
  -24.0773  -13.6565  144.9067 C   0  0  0  0  0  0  0  0  0  0  0  0
  -23.5977  -12.2762  145.1800 C   0  0  0  0  0  0  0  0  0  0  0  0
  -24.4414  -11.4567  145.9489 C   0  0  0  0  0  0  0  0  0  0  0  0
  -25.5262  -12.0205  146.7536 C   0  0  0  0  0  0  0  0  0  0  0  0
  -25.6815  -13.3561  146.7624 C   0  0  0  0  0  0  0  0  0  0  0  0
  -23.8745  -20.0721  145.2259 O   0  0  0  0  0  0  0  0  0  0  0  0
  -23.7557  -14.1968  143.8398 O   0  0  0  0  0  0  0  0  0  0  0  0
  -25.1065  -17.7202  149.4003 C   0  0  0  0  0  0  0  0  0  0  0  0
  -24.2503  -17.4649  150.2906 O   0  0  0  0  0  0  0  0  0  0  0  0
  -26.2828  -18.1272  149.7693 O   0  0  0  0  0  0  0  0  0  0  0  0
  -23.5030  -18.6582  143.6251 O   0  0  0  0  0  0  0  0  0  0  0  0
  -22.5552  -11.7643  144.6442 O   0  0  0  0  0  0  0  0  0  0  0  0
  -27.2806  -17.2831  149.8920 C   0  0  0  0  0  0  0  0  0  0  0  0
  -28.3172  -17.5554  148.8605 C   0  0  0  0  0  0  0  0  0  0  0  0
  -29.2155  -16.3826  148.7638 C   0  0  0  0  0  0  0  0  0  0  0  0
  -29.1857  -15.4154  147.6919 C   0  0  0  0  0  0  0  0  0  0  0  0
  -30.0112  -14.2891  147.6691 C   0  0  0  0  0  0  0  0  0  0  0  0
  -30.7821  -13.9787  148.8512 C   0  0  0  0  0  0  0  0  0  0  0  0
  -30.7887  -14.9015  149.9057 C   0  0  0  0  0  0  0  0  0  0  0  0
  -30.0075  -16.0189  149.9322 C   0  0  0  0  0  0  0  0  0  0  0  0
  -29.9886  -13.4469  146.6314 N   0  0  0  0  0  0  0  0  0  0  0  0
  -29.7637  -12.0930  146.7651 C   0  0  0  0  0  0  0  0  0  0  0  0
  -29.6031  -11.1995  145.6410 C   0  0  0  0  0  0  0  0  0  0  0  0
  -30.5743  -10.2838  145.2143 C   0  0  0  0  0  0  0  0  0  0  0  0
  -30.3255   -9.4615  144.0964 C   0  0  0  0  0  0  0  0  0  0  0  0
  -29.1075   -9.6187  143.3826 C   0  0  0  0  0  0  0  0  0  0  0  0
  -28.1560  -10.6332  143.8429 C   0  0  0  0  0  0  0  0  0  0  0  0
  1  5  1  0
  3  8  1  0
  5 14  1  0
  9 15  1  0
  6 16  1  0
 16 17  2  0
 16 18  1  0
  5 19  2  0
 10 20  1  0
 18 21  1  0
 21 22  1  0
 22 23  1  0
 25 29  1  0
 29 30  1  0
 30 31  1  0
 31 32  1  0
 32 33  2  3
 33 34  1  0
 34 35  2  0
 23 24  2  0
 24 25  1  0
 25 26  2  0
 26 27  1  0
 27 28  2  0
 28 23  1  0
  8  9  2  0
  9 10  1  0
 10 11  2  0
 11 12  1  0
 12 13  2  0
 13  8  1  0
  1  2  2  0
  2  3  1  0
  3  4  2  0
  4  6  1  0
  6  7  2  0
  7  1  1  0
M  END

$$$$
No_879-/dssg/home/sw_qyf/PocketFlow/Model-Generation-Results/5HT2A_7WC7_rec_A_10.pdb/2024-01-01-03-54-21/
     RDKit          3D

 22 23  0  0  0  0  0  0  0  0999 V2000
  -24.1553  -17.8465  145.7021 C   0  0  0  0  0  0  0  0  0  0  0  0
  -23.9795  -18.4462  146.7426 C   0  0  0  0  0  0  0  0  0  0  0  0
  -25.1593  -16.8262  145.6925 C   0  0  0  0  0  0  0  0  0  0  0  0
  -26.3426  -16.9003  146.3448 C   0  0  0  0  0  0  0  0  0  0  0  0
  -24.9078  -18.3640  147.8289 C   0  0  0  0  0  0  0  0  0  0  0  0
  -26.0312  -17.5122  147.7122 C   0  0  0  0  0  0  0  0  0  0  0  0
  -27.4996  -16.1150  146.1993 C   0  0  0  0  0  0  0  0  0  0  0  0
  -27.2984  -14.8027  146.7384 C   0  0  0  0  0  0  0  0  0  0  0  0
  -28.3546  -13.8322  146.6395 C   0  0  0  0  0  0  0  0  0  0  0  0
  -28.1627  -12.4262  146.4616 C   0  0  0  0  0  0  0  0  0  0  0  0
  -29.3282  -11.6662  146.1486 C   0  0  0  0  0  0  0  0  0  0  0  0
  -29.1649  -10.5015  145.5857 N   0  0  0  0  0  0  0  0  0  0  0  0
  -30.2098  -10.0098  144.7852 C   0  0  0  0  0  0  0  0  0  0  0  0
  -29.8166   -9.0753  143.7508 C   0  0  0  0  0  0  0  0  0  0  0  0
  -28.8137   -9.3579  142.9232 C   0  0  0  0  0  0  0  0  0  0  0  0
  -28.8889   -8.9679  141.5883 C   0  0  0  0  0  0  0  0  0  0  0  0
  -28.3905   -9.7068  140.5149 C   0  0  0  0  0  0  0  0  0  0  0  0
  -28.4499   -9.1183  139.2548 C   0  0  0  0  0  0  0  0  0  0  0  0
  -27.8141   -9.5834  138.0790 C   0  0  0  0  0  0  0  0  0  0  0  0
  -27.7543  -11.0054  138.1416 C   0  0  0  0  0  0  0  0  0  0  0  0
  -27.8158  -11.7474  139.3853 C   0  0  0  0  0  0  0  0  0  0  0  0
  -28.1759  -11.0526  140.6030 C   0  0  0  0  0  0  0  0  0  0  0  0
  4  7  1  0
  7  8  2  3
  8  9  1  0
  9 10  2  3
 10 11  1  0
 11 12  1  0
 12 13  1  0
 13 14  1  0
 14 15  1  0
 15 16  1  0
 16 17  1  0
 17 18  2  0
 18 19  1  0
 19 20  2  0
 20 21  1  0
 21 22  2  0
 22 17  1  0
  1  2  2  0
  2  5  1  0
  5  6  2  0
  6  4  1  0
  4  3  2  0
  3  1  1  0
M  END

$$$$
No_880-/dssg/home/sw_qyf/PocketFlow/Model-Generation-Results/5HT2A_7WC7_rec_A_10.pdb/2024-01-01-03-54-21/
     RDKit          3D

 28 30  0  0  0  0  0  0  0  0999 V2000
  -24.1553  -17.8465  145.7021 C   0  0  0  0  0  0  0  0  0  0  0  0
  -23.9795  -18.4462  146.7426 C   0  0  0  0  0  0  0  0  0  0  0  0
  -24.2723  -16.4220  145.8037 C   0  0  0  0  0  0  0  0  0  0  0  0
  -24.4589  -15.5647  144.6216 C   0  0  0  0  0  0  0  0  0  0  0  0
  -23.8419  -17.9056  148.0715 C   0  0  0  0  0  0  0  0  0  0  0  0
  -24.0803  -16.5134  148.1749 C   0  0  0  0  0  0  0  0  0  0  0  0
  -24.2908  -15.7608  147.1225 C   0  0  0  0  0  0  0  0  0  0  0  0
  -24.3986  -14.1284  144.7646 C   0  0  0  0  0  0  0  0  0  0  0  0
  -25.0565  -13.4232  143.9165 C   0  0  0  0  0  0  0  0  0  0  0  0
  -26.4708  -13.3266  144.4374 C   0  0  0  0  0  0  0  0  0  0  0  0
  -27.2056  -12.3290  143.6640 C   0  0  0  0  0  0  0  0  0  0  0  0
  -27.9600  -11.3768  144.4828 C   0  0  0  0  0  0  0  0  0  0  0  0
  -28.0304  -11.4528  145.8550 C   0  0  0  0  0  0  0  0  0  0  0  0
  -28.6714  -10.2809  143.8304 C   0  0  0  0  0  0  0  0  0  0  0  0
  -28.0574   -9.3596  143.0673 C   0  0  0  0  0  0  0  0  0  0  0  0
  -30.0782  -10.1064  144.0930 C   0  0  0  0  0  0  0  0  0  0  0  0
  -30.5779   -8.7764  143.6990 C   0  0  0  0  0  0  0  0  0  0  0  0
  -31.8790   -8.6923  143.3579 C   0  0  0  0  0  0  0  0  0  0  0  0
  -32.0457   -8.9073  142.0373 O   0  0  0  0  0  0  0  0  0  0  0  0
  -27.3180  -12.3886  146.6983 C   0  0  0  0  0  0  0  0  0  0  0  0
  -26.3316  -13.2142  145.8531 C   0  0  0  0  0  0  0  0  0  0  0  0
  -25.0462  -14.1649  142.6625 O   0  0  0  0  0  0  0  0  0  0  0  0
  -23.7536  -19.7944  146.6068 O   0  0  0  0  0  0  0  0  0  0  0  0
  -24.2043  -20.2673  145.4196 C   0  0  0  0  0  0  0  0  0  0  0  0
  -32.1706   -7.0069  143.3613 Cl  0  0  0  0  0  0  0  0  0  0  0  0
  -27.3186  -12.3397  142.4657 O   0  0  0  0  0  0  0  0  0  0  0  0
  -28.6791   -8.2125  142.4949 C   0  0  0  0  0  0  0  0  0  0  0  0
  -29.7383   -7.7773  143.2597 C   0  0  0  0  0  0  0  0  0  0  0  0
  3  4  1  0
  4  8  1  0
  8  9  1  0
  9 10  1  0
 10 11  1  0
 11 12  1  0
 12 13  1  0
 12 14  1  0
 17 18  1  0
 18 19  1  0
 10 21  1  0
 20 21  1  0
  9 22  1  0
  2 23  1  0
 23 24  1  0
 18 25  1  0
 11 26  2  0
 20 13  1  0
 14 15  2  0
 15 27  1  0
 27 28  2  0
 28 17  1  0
 17 16  2  0
 16 14  1  0
  1  2  2  0
  2  5  1  0
  5  6  2  0
  6  7  1  0
  7  3  2  0
  3  1  1  0
M  END

$$$$
No_881-/dssg/home/sw_qyf/PocketFlow/Model-Generation-Results/5HT2A_7WC7_rec_A_10.pdb/2024-01-01-03-54-21/
     RDKit          3D

 35 39  0  0  0  0  0  0  0  0999 V2000
  -23.1746  -16.6014  144.8668 C   0  0  0  0  0  0  0  0  0  0  0  0
  -23.8963  -15.5346  144.7885 C   0  0  0  0  0  0  0  0  0  0  0  0
  -23.6398  -14.5115  145.3281 C   0  0  0  0  0  0  0  0  0  0  0  0
  -24.3240  -13.3648  145.1281 C   0  0  0  0  0  0  0  0  0  0  0  0
  -23.8303  -12.0965  145.7921 C   0  0  0  0  0  0  0  0  0  0  0  0
  -25.3060  -13.1626  144.3111 O   0  0  0  0  0  0  0  0  0  0  0  0
  -23.6153  -17.8026  145.6028 C   0  0  0  0  0  0  0  0  0  0  0  0
  -24.6954  -17.7928  145.9742 O   0  0  0  0  0  0  0  0  0  0  0  0
  -24.9763  -18.4024  147.2102 C   0  0  0  0  0  0  0  0  0  0  0  0
  -25.2805  -17.3279  148.2709 C   0  0  0  0  0  0  0  0  0  0  0  0
  -24.2381  -16.4919  148.4783 C   0  0  0  0  0  0  0  0  0  0  0  0
  -26.4469  -12.5626  144.8086 C   0  0  0  0  0  0  0  0  0  0  0  0
  -26.6556  -11.2694  144.1707 C   0  0  0  0  0  0  0  0  0  0  0  0
  -27.8944  -11.0577  143.4969 C   0  0  0  0  0  0  0  0  0  0  0  0
  -28.9949  -10.6285  144.3002 C   0  0  0  0  0  0  0  0  0  0  0  0
  -29.0827  -10.7824  145.7184 C   0  0  0  0  0  0  0  0  0  0  0  0
  -30.3567  -10.6293  146.3985 C   0  0  0  0  0  0  0  0  0  0  0  0
  -30.3772  -11.1373  147.7365 C   0  0  0  0  0  0  0  0  0  0  0  0
  -29.4945  -12.2689  148.1013 C   0  0  0  0  0  0  0  0  0  0  0  0
  -28.4066  -12.5850  147.2462 C   0  0  0  0  0  0  0  0  0  0  0  0
  -28.0654  -11.6637  146.3448 C   0  0  0  0  0  0  0  0  0  0  0  0
  -27.1569  -12.1403  145.3332 N   0  0  0  0  0  0  0  0  0  0  0  0
  -26.7873  -13.3094  145.9191 C   0  0  0  0  0  0  0  0  0  0  0  0
  -27.8554  -14.0955  146.4707 C   0  0  0  0  0  0  0  0  0  0  0  0
  -30.0588   -9.8176  143.6488 C   0  0  0  0  0  0  0  0  0  0  0  0
  -29.6968   -8.7274  142.8741 C   0  0  0  0  0  0  0  0  0  0  0  0
  -30.6313   -7.7377  142.5744 C   0  0  0  0  0  0  0  0  0  0  0  0
  -30.3394   -6.8799  141.4630 C   0  0  0  0  0  0  0  0  0  0  0  0
  -29.6807   -7.5449  140.2435 C   0  0  0  0  0  0  0  0  0  0  0  0
  -29.3228   -7.0214  139.2229 C   0  0  0  0  0  0  0  0  0  0  0  0
  -28.6160   -7.8748  138.2351 C   0  0  0  0  0  0  0  0  0  0  0  0
  -28.0584   -9.0840  138.7163 C   0  0  0  0  0  0  0  0  0  0  0  0
  -28.3089   -9.5058  140.0661 C   0  0  0  0  0  0  0  0  0  0  0  0
  -29.0582   -8.7276  140.8620 C   0  0  0  0  0  0  0  0  0  0  0  0
  -28.6868   -8.9803  141.9827 C   0  0  0  0  0  0  0  0  0  0  0  0
  1  2  1  0
  2  3  2  3
  3  4  1  0
  4  5  1  0
  4  6  1  0
  1  7  1  0
  7  8  1  0
  8  9  1  0
  9 10  1  0
 10 11  1  0
  6 12  1  0
 12 13  1  0
 13 14  1  0
 14 15  2  0
 15 16  1  0
 12 22  1  0
 21 22  1  0
 22 23  1  0
 20 24  1  0
 23 24  1  0
 15 25  1  0
 25 26  1  0
 26 27  1  0
 27 28  1  0
 28 29  1  0
 26 35  1  0
 34 35  1  0
 29 30  2  0
 30 31  1  0
 31 32  2  0
 32 33  1  0
 33 34  2  0
 34 29  1  0
 16 17  2  0
 17 18  1  0
 18 19  2  0
 19 20  1  0
 20 21  2  0
 21 16  1  0
M  END

$$$$
No_882-/dssg/home/sw_qyf/PocketFlow/Model-Generation-Results/5HT2A_7WC7_rec_A_10.pdb/2024-01-01-03-54-21/
     RDKit          3D

 35 36  0  0  0  0  0  0  0  0999 V2000
  -24.1553  -17.8465  145.7021 C   0  0  0  0  0  0  0  0  0  0  0  0
  -24.2855  -16.6364  145.3494 C   0  0  0  0  0  0  0  0  0  0  0  0
  -24.5733  -15.7651  145.9979 C   0  0  0  0  0  0  0  0  0  0  0  0
  -24.7088  -14.2765  145.5906 C   0  0  0  0  0  0  0  0  0  0  0  0
  -24.0081  -14.0223  144.3771 C   0  0  0  0  0  0  0  0  0  0  0  0
  -24.5462  -18.2167  147.0077 C   0  0  0  0  0  0  0  0  0  0  0  0
  -24.9799  -17.2136  147.8740 C   0  0  0  0  0  0  0  0  0  0  0  0
  -24.9934  -15.8410  147.4193 C   0  0  0  0  0  0  0  0  0  0  0  0
  -25.3884  -13.3088  146.3470 C   0  0  0  0  0  0  0  0  0  0  0  0
  -25.4029  -11.9738  145.9131 C   0  0  0  0  0  0  0  0  0  0  0  0
  -26.6956  -11.3853  145.6725 C   0  0  0  0  0  0  0  0  0  0  0  0
  -27.1948  -11.4990  144.4831 C   0  0  0  0  0  0  0  0  0  0  0  0
  -27.8179  -12.3531  144.0622 C   0  0  0  0  0  0  0  0  0  0  0  0
  -27.2352  -12.7865  142.8886 C   0  0  0  0  0  0  0  0  0  0  0  0
  -26.4874  -14.0321  142.7915 C   0  0  0  0  0  0  0  0  0  0  0  0
  -27.6174  -12.3108  141.5446 C   0  0  0  0  0  0  0  0  0  0  0  0
  -28.4629  -11.2932  141.4204 C   0  0  0  0  0  0  0  0  0  0  0  0
  -27.7492  -10.1017  140.8713 C   0  0  0  0  0  0  0  0  0  0  0  0
  -27.5110  -10.1616  139.4577 C   0  0  0  0  0  0  0  0  0  0  0  0
  -27.1740  -12.9878  140.4210 C   0  0  0  0  0  0  0  0  0  0  0  0
  -28.2376  -10.5657  138.6612 C   0  0  0  0  0  0  0  0  0  0  0  0
  -25.2753  -17.5369  149.3511 C   0  0  0  0  0  0  0  0  0  0  0  0
  -26.5086  -17.5969  149.8419 N   0  0  0  0  0  0  0  0  0  0  0  0
  -24.2846  -17.5890  150.1889 O   0  0  0  0  0  0  0  0  0  0  0  0
  -26.8009  -18.0838  151.1426 C   0  0  0  0  0  0  0  0  0  0  0  0
  -28.0940  -18.4727  151.3976 C   0  0  0  0  0  0  0  0  0  0  0  0
  -28.9805  -17.8349  150.7017 C   0  0  0  0  0  0  0  0  0  0  0  0
  -28.7594  -17.1294  149.4508 C   0  0  0  0  0  0  0  0  0  0  0  0
  -27.4381  -16.9641  149.1052 C   0  0  0  0  0  0  0  0  0  0  0  0
  -26.3085  -12.5876  139.7727 N   0  0  0  0  0  0  0  0  0  0  0  0
  -23.8315  -16.4259  144.0369 F   0  0  0  0  0  0  0  0  0  0  0  0
  -28.0847   -9.7070  137.6110 C   0  0  0  0  0  0  0  0  0  0  0  0
  -28.9576   -8.5456  137.8644 C   0  0  0  0  0  0  0  0  0  0  0  0
  -28.3050   -7.6787  138.9106 C   0  0  0  0  0  0  0  0  0  0  0  0
  -29.1942   -7.7846  140.1889 C   0  0  0  0  0  0  0  0  0  0  0  0
  3  4  1  0
  4  5  2  0
  4  9  1  0
  9 10  1  0
 10 11  1  0
 11 12  1  0
 12 13  1  0
 13 14  1  0
 14 15  1  0
 14 16  1  0
 16 17  1  0
 17 18  1  0
 18 19  1  0
 16 20  1  0
 19 21  1  0
  7 22  1  0
 22 23  1  0
 22 24  2  0
 23 25  1  0
 26 27  1  0
 23 29  1  0
 28 29  1  0
 20 30  1  0
  2 31  1  0
 21 32  1  0
 32 33  1  0
 33 34  1  0
 34 35  1  0
 25 26  1  0
 27 28  1  0
  1  2  2  0
  2  3  1  0
  3  8  2  0
  8  7  1  0
  7  6  2  0
  6  1  1  0
M  END

$$$$
No_883-/dssg/home/sw_qyf/PocketFlow/Model-Generation-Results/5HT2A_7WC7_rec_A_10.pdb/2024-01-01-03-54-21/
     RDKit          3D

 35 38  0  0  0  0  0  0  0  0999 V2000
  -24.1553  -17.8465  145.7021 C   0  0  0  0  0  0  0  0  0  0  0  0
  -24.2856  -16.6364  145.3494 C   0  0  0  0  0  0  0  0  0  0  0  0
  -24.5733  -15.7651  145.9979 C   0  0  0  0  0  0  0  0  0  0  0  0
  -25.1773  -15.7608  146.8967 C   0  0  0  0  0  0  0  0  0  0  0  0
  -24.7492  -18.1486  146.9814 C   0  0  0  0  0  0  0  0  0  0  0  0
  -25.2478  -17.0667  147.7031 C   0  0  0  0  0  0  0  0  0  0  0  0
  -24.6298  -14.1958  145.5793 C   0  0  0  0  0  0  0  0  0  0  0  0
  -25.3659  -13.6835  144.9812 C   0  0  0  0  0  0  0  0  0  0  0  0
  -25.2870  -12.2168  144.7090 C   0  0  0  0  0  0  0  0  0  0  0  0
  -24.0618  -11.7776  145.1616 N   0  0  0  0  0  0  0  0  0  0  0  0
  -23.3189  -12.8038  145.6828 C   0  0  0  0  0  0  0  0  0  0  0  0
  -26.4201  -11.3346  145.2547 C   0  0  0  0  0  0  0  0  0  0  0  0
  -27.5916  -11.6409  144.8167 C   0  0  0  0  0  0  0  0  0  0  0  0
  -28.3703  -10.9394  144.1644 C   0  0  0  0  0  0  0  0  0  0  0  0
  -29.8115  -10.6660  144.3762 C   0  0  0  0  0  0  0  0  0  0  0  0
  -30.4407   -9.5875  143.7597 C   0  0  0  0  0  0  0  0  0  0  0  0
  -29.8114   -8.8475  142.8211 C   0  0  0  0  0  0  0  0  0  0  0  0
  -28.6518   -9.2541  142.1993 C   0  0  0  0  0  0  0  0  0  0  0  0
  -27.8917  -10.2281  142.9558 C   0  0  0  0  0  0  0  0  0  0  0  0
  -30.6953   -7.8545  142.0545 C   0  0  0  0  0  0  0  0  0  0  0  0
  -30.6260   -7.5524  140.8921 O   0  0  0  0  0  0  0  0  0  0  0  0
  -31.7929   -7.5100  142.8100 O   0  0  0  0  0  0  0  0  0  0  0  0
  -23.6664  -16.1773  144.0197 N   0  0  0  0  0  0  0  0  0  0  0  0
  -28.2309  -12.7683  145.6147 C   0  0  0  0  0  0  0  0  0  0  0  0
  -29.0977  -12.5116  146.6986 C   0  0  0  0  0  0  0  0  0  0  0  0
  -29.7401  -13.4763  147.4822 C   0  0  0  0  0  0  0  0  0  0  0  0
  -30.6403  -13.0895  148.5166 C   0  0  0  0  0  0  0  0  0  0  0  0
  -31.2424  -14.0722  149.2958 C   0  0  0  0  0  0  0  0  0  0  0  0
  -32.1008  -13.6892  150.3792 C   0  0  0  0  0  0  0  0  0  0  0  0
  -32.4218  -12.3500  150.5826 C   0  0  0  0  0  0  0  0  0  0  0  0
  -32.0363  -11.4213  149.5980 C   0  0  0  0  0  0  0  0  0  0  0  0
  -31.1395  -11.7331  148.6076 C   0  0  0  0  0  0  0  0  0  0  0  0
  -29.4516  -14.8012  147.2397 C   0  0  0  0  0  0  0  0  0  0  0  0
  -29.0247  -15.5396  146.4773 C   0  0  0  0  0  0  0  0  0  0  0  0
  -28.1957  -16.7635  146.7042 C   0  0  0  0  0  0  0  0  0  0  0  0
  3  7  1  0
  7  8  2  0
  8  9  1  0
  9 10  1  0
  7 11  1  0
 10 11  2  0
  9 12  1  0
 12 13  1  0
 17 20  1  0
 20 21  1  0
 20 22  2  0
  2 23  1  0
 13 24  1  0
 24 25  1  0
 25 26  2  3
 26 27  1  0
 26 33  1  0
 33 34  2  3
 34 35  1  0
 13 14  1  0
 14 15  2  0
 15 16  1  0
 16 17  2  0
 17 18  1  0
 18 19  2  0
 19 14  1  0
 27 28  2  0
 28 29  1  0
 29 30  2  0
 30 31  1  0
 31 32  2  0
 32 27  1  0
  1  2  2  0
  2  3  1  0
  3  4  2  0
  4  6  1  0
  6  5  2  0
  5  1  1  0
M  END

$$$$
No_884-/dssg/home/sw_qyf/PocketFlow/Model-Generation-Results/5HT2A_7WC7_rec_A_10.pdb/2024-01-01-03-54-21/
     RDKit          3D

 12 13  0  0  0  0  0  0  0  0999 V2000
  -24.1553  -17.8465  145.7021 C   0  0  0  0  0  0  0  0  0  0  0  0
  -24.2856  -16.6364  145.3494 C   0  0  0  0  0  0  0  0  0  0  0  0
  -25.0033  -15.6772  146.0737 C   0  0  0  0  0  0  0  0  0  0  0  0
  -25.1197  -14.2835  145.7299 C   0  0  0  0  0  0  0  0  0  0  0  0
  -25.8358  -13.3153  146.4318 C   0  0  0  0  0  0  0  0  0  0  0  0
  -24.7887  -18.3277  146.8665 C   0  0  0  0  0  0  0  0  0  0  0  0
  -25.5122  -17.4898  147.6545 C   0  0  0  0  0  0  0  0  0  0  0  0
  -25.6629  -16.1113  147.2981 C   0  0  0  0  0  0  0  0  0  0  0  0
  -25.7423  -11.9664  146.1289 C   0  0  0  0  0  0  0  0  0  0  0  0
  -24.9343  -11.5107  145.0792 C   0  0  0  0  0  0  0  0  0  0  0  0
  -24.2381  -13.7675  144.6412 C   0  0  0  0  0  0  0  0  0  0  0  0
  -24.0845  -12.3929  144.4989 N   0  0  0  0  0  0  0  0  0  0  0  0
  3  4  1  0
  1  2  2  0
  2  3  1  0
  3  8  2  0
  8  7  1  0
  7  6  2  0
  6  1  1  0
  4  5  2  0
  5  9  1  0
  9 10  2  0
 10 12  1  0
 12 11  2  0
 11  4  1  0
M  END

$$$$
No_885-/dssg/home/sw_qyf/PocketFlow/Model-Generation-Results/5HT2A_7WC7_rec_A_10.pdb/2024-01-01-03-54-21/
     RDKit          3D

 16 15  0  0  0  0  0  0  0  0999 V2000
  -23.1746  -16.6014  144.8668 C   0  0  0  0  0  0  0  0  0  0  0  0
  -23.8963  -15.5346  144.7885 C   0  0  0  0  0  0  0  0  0  0  0  0
  -23.6398  -14.5115  145.3281 C   0  0  0  0  0  0  0  0  0  0  0  0
  -24.4028  -13.2284  145.0157 C   0  0  0  0  0  0  0  0  0  0  0  0
  -23.8195  -12.0541  145.5896 C   0  0  0  0  0  0  0  0  0  0  0  0
  -25.2160  -13.1851  144.1792 F   0  0  0  0  0  0  0  0  0  0  0  0
  -23.6139  -17.5003  145.9759 C   0  0  0  0  0  0  0  0  0  0  0  0
  -23.6414  -16.8639  147.1283 C   0  0  0  0  0  0  0  0  0  0  0  0
  -23.8410  -17.6608  148.3510 C   0  0  0  0  0  0  0  0  0  0  0  0
  -23.6304  -16.9855  149.6502 C   0  0  0  0  0  0  0  0  0  0  0  0
  -24.6957  -11.3652  146.3271 O   0  0  0  0  0  0  0  0  0  0  0  0
  -26.1085  -11.7055  146.0181 C   0  0  0  0  0  0  0  0  0  0  0  0
  -27.0663  -11.0708  146.7528 C   0  0  0  0  0  0  0  0  0  0  0  0
  -28.4026  -11.3981  146.4317 C   0  0  0  0  0  0  0  0  0  0  0  0
  -28.7228  -12.1949  145.2473 C   0  0  0  0  0  0  0  0  0  0  0  0
  -27.7111  -12.7187  144.5528 C   0  0  0  0  0  0  0  0  0  0  0  0
  1  2  1  0
  2  3  1  0
  3  4  1  0
  4  5  1  0
  4  6  1  0
  1  7  1  0
  7  8  2  3
  8  9  1  0
  9 10  1  0
  5 11  1  0
 11 12  1  0
 12 13  2  3
 13 14  1  0
 14 15  2  3
 15 16  1  0
M  END

$$$$
No_886-/dssg/home/sw_qyf/PocketFlow/Model-Generation-Results/5HT2A_7WC7_rec_A_10.pdb/2024-01-01-03-54-21/
     RDKit          3D

 30 33  0  0  0  0  0  0  0  0999 V2000
  -23.1746  -16.6014  144.8668 C   0  0  0  0  0  0  0  0  0  0  0  0
  -24.0189  -16.0564  145.8445 C   0  0  0  0  0  0  0  0  0  0  0  0
  -24.4145  -16.8299  146.9062 C   0  0  0  0  0  0  0  0  0  0  0  0
  -23.8925  -17.9780  147.0944 C   0  0  0  0  0  0  0  0  0  0  0  0
  -23.0516  -18.5662  146.1819 C   0  0  0  0  0  0  0  0  0  0  0  0
  -22.7171  -17.7851  145.1421 N   0  0  0  0  0  0  0  0  0  0  0  0
  -24.5463  -14.6539  145.3957 C   0  0  0  0  0  0  0  0  0  0  0  0
  -24.0564  -13.8994  144.5065 C   0  0  0  0  0  0  0  0  0  0  0  0
  -25.5176  -14.0174  146.3812 C   0  0  0  0  0  0  0  0  0  0  0  0
  -25.9404  -12.7044  146.2471 C   0  0  0  0  0  0  0  0  0  0  0  0
  -25.3948  -11.9410  145.1828 C   0  0  0  0  0  0  0  0  0  0  0  0
  -24.4198  -12.4739  144.3685 C   0  0  0  0  0  0  0  0  0  0  0  0
  -25.8037  -10.6209  145.0995 O   0  0  0  0  0  0  0  0  0  0  0  0
  -27.0037  -10.3872  144.4188 C   0  0  0  0  0  0  0  0  0  0  0  0
  -28.1131  -10.9727  145.0338 C   0  0  0  0  0  0  0  0  0  0  0  0
  -29.3819  -10.5933  144.4965 C   0  0  0  0  0  0  0  0  0  0  0  0
  -29.5993   -9.5323  143.6556 C   0  0  0  0  0  0  0  0  0  0  0  0
  -30.8467   -9.1668  143.1730 C   0  0  0  0  0  0  0  0  0  0  0  0
  -30.9016   -8.3192  142.1369 C   0  0  0  0  0  0  0  0  0  0  0  0
  -29.5677   -8.0219  141.5051 C   0  0  0  0  0  0  0  0  0  0  0  0
  -29.5239   -7.0374  140.4564 C   0  0  0  0  0  0  0  0  0  0  0  0
  -28.5560   -9.0167  142.7876 C   0  0  0  0  0  0  0  0  0  0  0  0
  -28.9235   -7.4556  139.2214 C   0  0  0  0  0  0  0  0  0  0  0  0
  -28.9192   -8.8020  138.8256 C   0  0  0  0  0  0  0  0  0  0  0  0
  -27.9955   -9.6607  139.6084 C   0  0  0  0  0  0  0  0  0  0  0  0
  -27.0379  -10.4205  139.1851 C   0  0  0  0  0  0  0  0  0  0  0  0
  -27.2474  -11.9239  139.1094 C   0  0  0  0  0  0  0  0  0  0  0  0
  -27.3787  -12.5631  140.1964 C   0  0  0  0  0  0  0  0  0  0  0  0
  -28.0294  -11.8852  141.3618 C   0  0  0  0  0  0  0  0  0  0  0  0
  -28.6483  -10.3056  140.9666 C   0  0  0  0  0  0  0  0  0  0  0  0
  2  7  1  0
 11 13  1  0
 13 14  1  0
 14 15  2  3
 15 16  1  0
 16 17  2  3
 17 18  1  0
 18 19  1  0
 19 20  2  0
 20 21  1  0
 17 22  1  0
 20 22  1  0
 21 23  2  3
 23 24  1  0
 24 25  1  0
  1  2  2  0
  2  3  1  0
  3  4  2  0
  4  5  1  0
  5  6  2  0
  6  1  1  0
 25 26  2  0
 26 27  1  0
 27 28  2  0
 28 29  1  0
 29 30  2  0
 30 25  1  0
  7  8  2  0
  8 12  1  0
 12 11  2  0
 11 10  1  0
 10  9  2  0
  9  7  1  0
M  END

$$$$
No_887-/dssg/home/sw_qyf/PocketFlow/Model-Generation-Results/5HT2A_7WC7_rec_A_10.pdb/2024-01-01-03-54-21/
     RDKit          3D

 28 30  0  0  0  0  0  0  0  0999 V2000
  -24.1553  -17.8465  145.7021 C   0  0  0  0  0  0  0  0  0  0  0  0
  -24.2855  -16.6364  145.3494 C   0  0  0  0  0  0  0  0  0  0  0  0
  -24.1962  -15.9414  144.2650 C   0  0  0  0  0  0  0  0  0  0  0  0
  -24.3870  -14.5486  144.1162 C   0  0  0  0  0  0  0  0  0  0  0  0
  -24.7523  -13.8439  145.3544 C   0  0  0  0  0  0  0  0  0  0  0  0
  -24.8214  -12.3993  145.3596 C   0  0  0  0  0  0  0  0  0  0  0  0
  -24.2456  -18.3779  147.0229 C   0  0  0  0  0  0  0  0  0  0  0  0
  -26.0220  -11.8617  145.2013 C   0  0  0  0  0  0  0  0  0  0  0  0
  -26.9467  -12.3341  144.4269 C   0  0  0  0  0  0  0  0  0  0  0  0
  -28.0999  -11.5258  144.1541 C   0  0  0  0  0  0  0  0  0  0  0  0
  -28.2019  -10.4347  143.5137 C   0  0  0  0  0  0  0  0  0  0  0  0
  -29.3346   -9.5713  143.3593 C   0  0  0  0  0  0  0  0  0  0  0  0
  -29.7836   -9.1433  142.1339 C   0  0  0  0  0  0  0  0  0  0  0  0
  -30.9980   -8.4008  141.9816 C   0  0  0  0  0  0  0  0  0  0  0  0
  -24.8358  -14.6813  146.5591 C   0  0  0  0  0  0  0  0  0  0  0  0
  -24.5868  -15.9419  146.6655 C   0  0  0  0  0  0  0  0  0  0  0  0
  -24.6041  -17.1258  147.6767 C   0  0  0  0  0  0  0  0  0  0  0  0
  -31.9190   -8.6257  142.9711 N   0  0  0  0  0  0  0  0  0  0  0  0
  -24.8041  -16.8740  149.0833 C   0  0  0  0  0  0  0  0  0  0  0  0
  -23.7716  -17.3051  149.9993 C   0  0  0  0  0  0  0  0  0  0  0  0
  -28.9874   -9.3516  140.9915 C   0  0  0  0  0  0  0  0  0  0  0  0
  -28.8071   -8.5310  139.9193 C   0  0  0  0  0  0  0  0  0  0  0  0
  -28.3024   -8.8307  138.7351 C   0  0  0  0  0  0  0  0  0  0  0  0
  -27.7289  -10.0742  138.5844 C   0  0  0  0  0  0  0  0  0  0  0  0
  -27.7962  -11.0231  139.6808 C   0  0  0  0  0  0  0  0  0  0  0  0
  -28.4349  -10.6820  140.8593 C   0  0  0  0  0  0  0  0  0  0  0  0
  -27.2518  -12.3618  139.4491 C   0  0  0  0  0  0  0  0  0  0  0  0
  -27.1311  -13.0698  140.4933 O   0  0  0  0  0  0  0  0  0  0  0  0
  1  2  2  0
  2  3  1  0
  3  4  1  0
  4  5  1  0
  5  6  1  0
  1  7  1  0
  6  8  1  0
  8  9  1  0
  9 10  1  0
 10 11  2  3
 11 12  1  0
 12 13  1  0
 13 14  1  0
  5 15  1  0
  2 16  1  0
 15 16  1  0
  7 17  1  0
 16 17  1  0
 14 18  1  0
 17 19  1  0
 19 20  2  0
 13 21  1  0
 25 27  1  0
 27 28  1  0
 21 22  2  0
 22 23  1  0
 23 24  2  0
 24 25  1  0
 25 26  2  0
 26 21  1  0
M  END

$$$$
No_888-/dssg/home/sw_qyf/PocketFlow/Model-Generation-Results/5HT2A_7WC7_rec_A_10.pdb/2024-01-01-03-54-21/
     RDKit          3D

  9  9  0  0  0  0  0  0  0  0999 V2000
  -23.8931  -18.2534  145.3804 F   0  0  0  0  0  0  0  0  0  0  0  0
  -24.1483  -17.4442  146.3400 C   0  0  0  0  0  0  0  0  0  0  0  0
  -24.4181  -16.0969  145.9075 C   0  0  0  0  0  0  0  0  0  0  0  0
  -24.0584  -15.7140  144.5778 C   0  0  0  0  0  0  0  0  0  0  0  0
  -24.2439  -14.3804  144.1721 C   0  0  0  0  0  0  0  0  0  0  0  0
  -24.7946  -13.4524  145.1420 C   0  0  0  0  0  0  0  0  0  0  0  0
  -25.1847  -13.8637  146.4137 C   0  0  0  0  0  0  0  0  0  0  0  0
  -24.9343  -15.1748  146.8594 C   0  0  0  0  0  0  0  0  0  0  0  0
  -23.0190  -17.4680  147.1943 F   0  0  0  0  0  0  0  0  0  0  0  0
  1  2  1  0
  2  9  1  0
  2  3  1  0
  3  4  2  0
  4  5  1  0
  5  6  2  0
  6  7  1  0
  7  8  2  0
  8  3  1  0
M  END

$$$$
No_889-/dssg/home/sw_qyf/PocketFlow/Model-Generation-Results/5HT2A_7WC7_rec_A_10.pdb/2024-01-01-03-54-21/
     RDKit          3D

 13 12  0  0  0  0  0  0  0  0999 V2000
  -23.1746  -16.6014  144.8668 C   0  0  0  0  0  0  0  0  0  0  0  0
  -23.8963  -15.5346  144.7885 C   0  0  0  0  0  0  0  0  0  0  0  0
  -23.6398  -14.5115  145.3281 C   0  0  0  0  0  0  0  0  0  0  0  0
  -24.3240  -13.3648  145.1281 C   0  0  0  0  0  0  0  0  0  0  0  0
  -23.8303  -12.0965  145.7921 C   0  0  0  0  0  0  0  0  0  0  0  0
  -25.6162  -13.1449  144.0870 Cl  0  0  0  0  0  0  0  0  0  0  0  0
  -23.9036  -17.4902  144.8060 F   0  0  0  0  0  0  0  0  0  0  0  0
  -22.3593  -16.6266  143.7278 F   0  0  0  0  0  0  0  0  0  0  0  0
  -22.4261  -16.8111  145.8807 F   0  0  0  0  0  0  0  0  0  0  0  0
  -24.6081  -11.7579  146.8350 F   0  0  0  0  0  0  0  0  0  0  0  0
  -22.5646  -12.2098  146.2585 F   0  0  0  0  0  0  0  0  0  0  0  0
  -23.9809  -11.0598  144.9907 F   0  0  0  0  0  0  0  0  0  0  0  0
  -25.0961  -15.6000  144.1573 O   0  0  0  0  0  0  0  0  0  0  0  0
  1  2  1  0
  2  3  2  3
  3  4  1  0
  4  5  1  0
  4  6  1  0
  1  7  1  0
  1  8  1  0
  1  9  1  0
  5 10  1  0
  5 11  1  0
  5 12  1  0
  2 13  1  0
M  END

$$$$
No_890-/dssg/home/sw_qyf/PocketFlow/Model-Generation-Results/5HT2A_7WC7_rec_A_10.pdb/2024-01-01-03-54-21/
     RDKit          3D

 28 28  0  0  0  0  0  0  0  0999 V2000
  -24.1553  -17.8465  145.7021 C   0  0  0  0  0  0  0  0  0  0  0  0
  -24.6364  -17.2931  146.7091 C   0  0  0  0  0  0  0  0  0  0  0  0
  -25.8608  -16.5592  146.5934 C   0  0  0  0  0  0  0  0  0  0  0  0
  -26.8606  -16.6119  147.5579 C   0  0  0  0  0  0  0  0  0  0  0  0
  -28.1392  -15.9828  147.3731 C   0  0  0  0  0  0  0  0  0  0  0  0
  -28.2151  -14.9951  146.3711 C   0  0  0  0  0  0  0  0  0  0  0  0
  -27.1416  -14.8240  145.4992 C   0  0  0  0  0  0  0  0  0  0  0  0
  -25.9775  -15.6193  145.6444 C   0  0  0  0  0  0  0  0  0  0  0  0
  -23.2280  -18.9216  145.7841 C   0  0  0  0  0  0  0  0  0  0  0  0
  -23.4007  -16.4741  147.4251 C   0  0  0  0  0  0  0  0  0  0  0  0
  -27.2634  -13.8181  144.3972 C   0  0  0  0  0  0  0  0  0  0  0  0
  -26.4477  -12.8490  144.2330 C   0  0  0  0  0  0  0  0  0  0  0  0
  -26.7176  -11.8669  143.1698 C   0  0  0  0  0  0  0  0  0  0  0  0
  -27.6265  -12.3021  142.1410 C   0  0  0  0  0  0  0  0  0  0  0  0
  -28.0973  -11.2849  141.2835 C   0  0  0  0  0  0  0  0  0  0  0  0
  -27.7281  -11.2885  139.9765 C   0  0  0  0  0  0  0  0  0  0  0  0
  -27.3137  -12.4039  139.2978 C   0  0  0  0  0  0  0  0  0  0  0  0
  -27.7908  -10.0309  139.1834 C   0  0  0  0  0  0  0  0  0  0  0  0
  -28.7160   -9.7520  138.2139 C   0  0  0  0  0  0  0  0  0  0  0  0
  -28.8113   -8.3047  137.8215 C   0  0  0  0  0  0  0  0  0  0  0  0
  -29.1214   -7.5212  138.6780 O   0  0  0  0  0  0  0  0  0  0  0  0
  -29.0711  -10.3772  141.8690 C   0  0  0  0  0  0  0  0  0  0  0  0
  -29.0003   -9.7785  142.8421 C   0  0  0  0  0  0  0  0  0  0  0  0
  -29.9705   -8.7767  143.3485 C   0  0  0  0  0  0  0  0  0  0  0  0
  -31.0107   -8.4001  142.5172 C   0  0  0  0  0  0  0  0  0  0  0  0
  -32.1929   -8.7530  142.6997 O   0  0  0  0  0  0  0  0  0  0  0  0
  -30.6947   -7.5496  141.5341 O   0  0  0  0  0  0  0  0  0  0  0  0
  -23.6357  -19.7934  146.6445 O   0  0  0  0  0  0  0  0  0  0  0  0
  1  2  1  0
  1  9  1  0
  2 10  1  0
  7 11  1  0
 11 12  2  3
 12 13  1  0
 13 14  1  0
 14 15  1  0
 15 16  1  0
 16 17  1  0
 16 18  1  0
 18 19  1  0
 19 20  1  0
 20 21  1  0
 15 22  1  0
 22 23  2  3
 23 24  1  0
 24 25  1  0
 25 26  2  0
 25 27  1  0
  9 28  2  0
  2  3  1  0
  3  4  2  0
  4  5  1  0
  5  6  2  0
  6  7  1  0
  7  8  2  0
  8  3  1  0
M  END

$$$$
No_891-/dssg/home/sw_qyf/PocketFlow/Model-Generation-Results/5HT2A_7WC7_rec_A_10.pdb/2024-01-01-03-54-21/
     RDKit          3D

 35 37  0  0  0  0  0  0  0  0999 V2000
  -24.1553  -17.8465  145.7021 C   0  0  0  0  0  0  0  0  0  0  0  0
  -23.9795  -18.4462  146.7426 C   0  0  0  0  0  0  0  0  0  0  0  0
  -25.1593  -16.8262  145.6925 C   0  0  0  0  0  0  0  0  0  0  0  0
  -25.9346  -16.5763  146.8154 C   0  0  0  0  0  0  0  0  0  0  0  0
  -25.6041  -17.2802  147.9650 C   0  0  0  0  0  0  0  0  0  0  0  0
  -24.6016  -18.1919  147.9827 C   0  0  0  0  0  0  0  0  0  0  0  0
  -27.0252  -15.5531  146.7776 C   0  0  0  0  0  0  0  0  0  0  0  0
  -26.6438  -14.2394  146.6748 C   0  0  0  0  0  0  0  0  0  0  0  0
  -25.3533  -13.6507  146.5863 C   0  0  0  0  0  0  0  0  0  0  0  0
  -25.0896  -12.3210  146.4401 C   0  0  0  0  0  0  0  0  0  0  0  0
  -26.2020  -11.4486  146.1543 C   0  0  0  0  0  0  0  0  0  0  0  0
  -27.7362  -13.2339  146.3853 C   0  0  0  0  0  0  0  0  0  0  0  0
  -27.4313  -11.8816  146.1876 C   0  0  0  0  0  0  0  0  0  0  0  0
  -28.2847  -15.9667  147.0694 C   0  0  0  0  0  0  0  0  0  0  0  0
  -28.9568  -15.4640  148.1846 C   0  0  0  0  0  0  0  0  0  0  0  0
  -28.6241  -11.0308  145.9000 C   0  0  0  0  0  0  0  0  0  0  0  0
  -28.8120  -10.2924  144.6767 C   0  0  0  0  0  0  0  0  0  0  0  0
  -30.0021   -9.7390  144.2981 C   0  0  0  0  0  0  0  0  0  0  0  0
  -30.1129   -8.8705  143.2253 C   0  0  0  0  0  0  0  0  0  0  0  0
  -29.3044   -8.9710  142.1912 C   0  0  0  0  0  0  0  0  0  0  0  0
  -28.1648   -9.9006  142.2903 C   0  0  0  0  0  0  0  0  0  0  0  0
  -27.8630  -10.5283  143.5742 C   0  0  0  0  0  0  0  0  0  0  0  0
  -31.3567   -8.0247  143.0739 C   0  0  0  0  0  0  0  0  0  0  0  0
  -29.3926   -8.2709  140.9136 C   0  0  0  0  0  0  0  0  0  0  0  0
  -28.6858   -7.3573  140.3548 C   0  0  0  0  0  0  0  0  0  0  0  0
  -28.7387   -7.0173  138.9124 C   0  0  0  0  0  0  0  0  0  0  0  0
  -29.2618   -8.1804  138.1397 C   0  0  0  0  0  0  0  0  0  0  0  0
  -29.3439   -8.0538  136.8629 C   0  0  0  0  0  0  0  0  0  0  0  0
  -29.4773   -9.3356  136.0975 C   0  0  0  0  0  0  0  0  0  0  0  0
  -28.4931  -10.3782  136.3057 C   0  0  0  0  0  0  0  0  0  0  0  0
  -28.7425  -11.6484  135.7444 C   0  0  0  0  0  0  0  0  0  0  0  0
  -32.0664   -7.8594  142.1024 O   0  0  0  0  0  0  0  0  0  0  0  0
  -31.6072   -7.3202  144.1531 O   0  0  0  0  0  0  0  0  0  0  0  0
  -30.1274  -14.5691  148.0834 C   0  0  0  0  0  0  0  0  0  0  0  0
  -30.8294  -14.1571  149.2453 C   0  0  0  0  0  0  0  0  0  0  0  0
  4  7  1  0
  7  8  1  0
  7 14  1  0
 14 15  1  0
 13 16  1  0
 16 17  1  0
 19 23  1  0
 20 24  1  0
 24 25  2  3
 25 26  1  0
 26 27  2  3
 27 28  1  0
 28 29  1  0
 29 30  2  3
 30 31  1  0
 23 32  2  0
 23 33  1  0
 15 34  2  3
 34 35  1  0
 17 18  2  0
 18 19  1  0
 19 20  2  0
 20 21  1  0
 21 22  2  0
 22 17  1  0
  1  2  2  0
  2  6  1  0
  6  5  2  0
  5  4  1  0
  4  3  2  0
  3  1  1  0
  8  9  2  0
  9 10  1  0
 10 11  2  0
 11 13  1  0
 13 12  2  0
 12  8  1  0
M  END

$$$$
No_892-/dssg/home/sw_qyf/PocketFlow/Model-Generation-Results/5HT2A_7WC7_rec_A_10.pdb/2024-01-01-03-54-21/
     RDKit          3D

 19 21  0  0  0  0  0  0  0  0999 V2000
  -23.1746  -16.6014  144.8668 C   0  0  0  0  0  0  0  0  0  0  0  0
  -24.0189  -16.0564  145.8445 C   0  0  0  0  0  0  0  0  0  0  0  0
  -24.4145  -16.8299  146.9062 C   0  0  0  0  0  0  0  0  0  0  0  0
  -23.8925  -17.9780  147.0944 C   0  0  0  0  0  0  0  0  0  0  0  0
  -23.0516  -18.5662  146.1819 C   0  0  0  0  0  0  0  0  0  0  0  0
  -22.7171  -17.7851  145.1421 N   0  0  0  0  0  0  0  0  0  0  0  0
  -24.6214  -14.6627  145.5820 C   0  0  0  0  0  0  0  0  0  0  0  0
  -23.7791  -13.6254  145.6492 C   0  0  0  0  0  0  0  0  0  0  0  0
  -24.2431  -12.2309  145.5117 C   0  0  0  0  0  0  0  0  0  0  0  0
  -25.6154  -11.9490  145.4991 C   0  0  0  0  0  0  0  0  0  0  0  0
  -26.1022  -10.6528  145.4366 C   0  0  0  0  0  0  0  0  0  0  0  0
  -25.9573  -14.1124  145.9201 C   0  0  0  0  0  0  0  0  0  0  0  0
  -26.4778  -12.9688  145.7453 C   0  0  0  0  0  0  0  0  0  0  0  0
  -26.2080   -9.9254  144.5777 C   0  0  0  0  0  0  0  0  0  0  0  0
  -27.1651   -8.7656  144.5325 C   0  0  0  0  0  0  0  0  0  0  0  0
  -27.8851  -12.7882  145.8895 C   0  0  0  0  0  0  0  0  0  0  0  0
  -28.6410  -13.6103  146.8309 C   0  0  0  0  0  0  0  0  0  0  0  0
  -28.2583  -14.7688  147.3840 C   0  0  0  0  0  0  0  0  0  0  0  0
  -26.8085  -15.1983  146.9205 C   0  0  0  0  0  0  0  0  0  0  0  0
  2  7  1  0
 10 11  1  0
 11 14  2  3
 14 15  1  0
  1  2  2  0
  2  3  1  0
  3  4  2  0
  4  5  1  0
  5  6  2  0
  6  1  1  0
  7  8  2  0
  8  9  1  0
  9 10  2  0
 10 13  1  0
 12  7  1  0
 12 13  2  0
 13 16  1  0
 16 17  2  0
 17 18  1  0
 18 19  2  0
 19 12  1  0
M  END

$$$$
No_893-/dssg/home/sw_qyf/PocketFlow/Model-Generation-Results/5HT2A_7WC7_rec_A_10.pdb/2024-01-01-03-54-21/
     RDKit          3D

 35 38  0  0  0  0  0  0  0  0999 V2000
  -23.1746  -16.6014  144.8668 C   0  0  0  0  0  0  0  0  0  0  0  0
  -24.0189  -16.0564  145.8445 C   0  0  0  0  0  0  0  0  0  0  0  0
  -24.4850  -14.7380  145.6359 C   0  0  0  0  0  0  0  0  0  0  0  0
  -24.0208  -14.0081  144.6269 C   0  0  0  0  0  0  0  0  0  0  0  0
  -23.4101  -13.1760  144.7737 C   0  0  0  0  0  0  0  0  0  0  0  0
  -23.6445  -12.1421  145.9392 C   0  0  0  0  0  0  0  0  0  0  0  0
  -24.4368  -12.7260  147.0135 C   0  0  0  0  0  0  0  0  0  0  0  0
  -24.7720  -14.0920  146.9592 C   0  0  0  0  0  0  0  0  0  0  0  0
  -24.5875  -16.9185  146.8380 C   0  0  0  0  0  0  0  0  0  0  0  0
  -23.9206  -17.2556  147.6739 C   0  0  0  0  0  0  0  0  0  0  0  0
  -22.4969  -16.8657  147.8316 C   0  0  0  0  0  0  0  0  0  0  0  0
  -25.9934  -17.1271  146.7021 C   0  0  0  0  0  0  0  0  0  0  0  0
  -26.8895  -17.6041  145.9577 C   0  0  0  0  0  0  0  0  0  0  0  0
  -28.2486  -17.5343  146.2045 N   0  0  0  0  0  0  0  0  0  0  0  0
  -28.2128  -16.9279  147.4947 C   0  0  0  0  0  0  0  0  0  0  0  0
  -26.9460  -16.6362  147.8728 C   0  0  0  0  0  0  0  0  0  0  0  0
  -29.2952  -16.6747  148.2439 N   0  0  0  0  0  0  0  0  0  0  0  0
  -29.4732  -15.4093  148.7953 C   0  0  0  0  0  0  0  0  0  0  0  0
  -29.3179  -14.1867  148.0267 C   0  0  0  0  0  0  0  0  0  0  0  0
  -29.8914  -13.0045  148.4290 C   0  0  0  0  0  0  0  0  0  0  0  0
  -29.6707  -11.8903  147.6324 C   0  0  0  0  0  0  0  0  0  0  0  0
  -29.0178  -11.9433  146.3837 C   0  0  0  0  0  0  0  0  0  0  0  0
  -28.4237  -13.2005  146.0921 C   0  0  0  0  0  0  0  0  0  0  0  0
  -28.5825  -14.3003  146.8795 C   0  0  0  0  0  0  0  0  0  0  0  0
  -28.8806  -10.7855  145.5829 C   0  0  0  0  0  0  0  0  0  0  0  0
  -30.0013  -10.0823  145.1583 N   0  0  0  0  0  0  0  0  0  0  0  0
  -29.9619   -9.2371  144.1584 C   0  0  0  0  0  0  0  0  0  0  0  0
  -29.0264   -9.2914  143.1924 C   0  0  0  0  0  0  0  0  0  0  0  0
  -27.8299  -10.0622  143.5458 C   0  0  0  0  0  0  0  0  0  0  0  0
  -27.7996  -10.8908  144.6626 C   0  0  0  0  0  0  0  0  0  0  0  0
  -31.1329   -8.5528  144.0223 N   0  0  0  0  0  0  0  0  0  0  0  0
  -29.0686   -8.4498  142.0834 C   0  0  0  0  0  0  0  0  0  0  0  0
  -29.3042   -7.1193  142.0834 C   0  0  0  0  0  0  0  0  0  0  0  0
  -28.8801   -9.0303  140.7428 C   0  0  0  0  0  0  0  0  0  0  0  0
  -28.3974  -10.3816  140.5617 C   0  0  0  0  0  0  0  0  0  0  0  0
  1  2  1  0
  2  3  1  0
  2  9  1  0
  9 10  2  3
 10 11  1  0
  9 12  1  0
 12 13  2  0
 13 14  1  0
 14 15  2  0
 12 16  1  0
 15 16  1  0
 15 17  1  0
 17 18  1  0
 18 19  1  0
 22 25  1  0
 27 31  1  0
 28 32  1  0
 32 33  2  0
 32 34  1  0
 34 35  1  0
 25 26  2  0
 26 27  1  0
 27 28  2  0
 28 29  1  0
 29 30  2  0
 30 25  1  0
  3  4  2  0
  4  5  1  0
  5  6  2  0
  6  7  1  0
  7  8  2  0
  8  3  1  0
 19 20  2  0
 20 21  1  0
 21 22  2  0
 22 23  1  0
 23 24  2  0
 24 19  1  0
M  END

$$$$
No_894-/dssg/home/sw_qyf/PocketFlow/Model-Generation-Results/5HT2A_7WC7_rec_A_10.pdb/2024-01-01-03-54-21/
     RDKit          3D

 34 37  0  0  0  0  0  0  0  0999 V2000
  -24.1553  -17.8465  145.7021 C   0  0  0  0  0  0  0  0  0  0  0  0
  -23.9795  -18.4462  146.7426 C   0  0  0  0  0  0  0  0  0  0  0  0
  -24.2723  -16.4220  145.8037 C   0  0  0  0  0  0  0  0  0  0  0  0
  -24.9934  -15.8373  146.8363 C   0  0  0  0  0  0  0  0  0  0  0  0
  -24.4240  -17.9699  148.0343 C   0  0  0  0  0  0  0  0  0  0  0  0
  -24.7712  -16.6380  148.1358 C   0  0  0  0  0  0  0  0  0  0  0  0
  -24.1704  -15.5702  144.5991 C   0  0  0  0  0  0  0  0  0  0  0  0
  -24.2267  -14.1257  144.8655 C   0  0  0  0  0  0  0  0  0  0  0  0
  -23.1833  -13.4127  144.5088 C   0  0  0  0  0  0  0  0  0  0  0  0
  -23.1112  -11.9528  144.9010 C   0  0  0  0  0  0  0  0  0  0  0  0
  -24.2395  -11.4534  145.6209 C   0  0  0  0  0  0  0  0  0  0  0  0
  -25.3619  -12.2593  145.8846 C   0  0  0  0  0  0  0  0  0  0  0  0
  -25.3121  -13.5910  145.6108 C   0  0  0  0  0  0  0  0  0  0  0  0
  -26.4865  -11.5809  146.6090 C   0  0  0  0  0  0  0  0  0  0  0  0
  -27.7141  -11.5245  145.7757 C   0  0  0  0  0  0  0  0  0  0  0  0
  -28.9028  -11.8997  146.4212 C   0  0  0  0  0  0  0  0  0  0  0  0
  -30.1187  -11.6069  145.7701 C   0  0  0  0  0  0  0  0  0  0  0  0
  -29.9515  -10.8197  144.6089 C   0  0  0  0  0  0  0  0  0  0  0  0
  -28.8052  -10.5039  144.0055 C   0  0  0  0  0  0  0  0  0  0  0  0
  -27.5507  -10.8222  144.6986 C   0  0  0  0  0  0  0  0  0  0  0  0
  -28.7691   -9.3926  143.0499 C   0  0  0  0  0  0  0  0  0  0  0  0
  -28.6971   -9.8928  141.6777 C   0  0  0  0  0  0  0  0  0  0  0  0
  -28.6246   -9.0212  140.6400 C   0  0  0  0  0  0  0  0  0  0  0  0
  -28.3433   -9.4372  139.3078 C   0  0  0  0  0  0  0  0  0  0  0  0
  -28.2455   -8.4795  138.2415 C   0  0  0  0  0  0  0  0  0  0  0  0
  -28.7987   -7.1570  138.7229 C   0  0  0  0  0  0  0  0  0  0  0  0
  -29.0725   -7.6138  140.5412 C   0  0  0  0  0  0  0  0  0  0  0  0
  -28.9704  -12.6294  147.5364 O   0  0  0  0  0  0  0  0  0  0  0  0
  -29.9386  -13.6022  147.7938 C   0  0  0  0  0  0  0  0  0  0  0  0
  -28.7383  -11.1394  141.4359 O   0  0  0  0  0  0  0  0  0  0  0  0
  -29.5332  -14.8731  148.0860 C   0  0  0  0  0  0  0  0  0  0  0  0
  -28.8342  -15.6688  147.1489 C   0  0  0  0  0  0  0  0  0  0  0  0
  -28.6483  -15.3600  145.8559 C   0  0  0  0  0  0  0  0  0  0  0  0
  -27.7349  -16.1651  145.1265 C   0  0  0  0  0  0  0  0  0  0  0  0
  3  7  1  0
  7  8  1  0
 12 14  1  0
 14 15  1  0
 19 21  1  0
 21 22  1  0
 22 23  2  3
 23 24  1  0
 24 25  2  0
 25 26  1  0
 23 27  1  0
 26 27  2  0
 16 28  1  0
 28 29  1  0
 22 30  1  0
 29 31  1  0
 31 32  1  0
 32 33  2  3
 33 34  1  0
 15 16  2  0
 16 17  1  0
 17 18  2  0
 18 19  1  0
 19 20  2  0
 20 15  1  0
  8  9  2  0
  9 10  1  0
 10 11  2  0
 11 12  1  0
 12 13  2  0
 13  8  1  0
  1  2  2  0
  2  5  1  0
  5  6  2  0
  6  4  1  0
  4  3  2  0
  3  1  1  0
M  END

$$$$
No_895-/dssg/home/sw_qyf/PocketFlow/Model-Generation-Results/5HT2A_7WC7_rec_A_10.pdb/2024-01-01-03-54-21/
     RDKit          3D

 16 18  0  0  0  0  0  0  0  0999 V2000
  -24.1553  -17.8465  145.7021 C   0  0  0  0  0  0  0  0  0  0  0  0
  -24.6364  -17.2931  146.7091 C   0  0  0  0  0  0  0  0  0  0  0  0
  -25.8608  -16.5592  146.5934 C   0  0  0  0  0  0  0  0  0  0  0  0
  -25.9533  -15.5604  145.6681 C   0  0  0  0  0  0  0  0  0  0  0  0
  -27.0678  -14.6961  145.5542 C   0  0  0  0  0  0  0  0  0  0  0  0
  -24.0556  -16.8606  144.5402 C   0  0  0  0  0  0  0  0  0  0  0  0
  -25.0331  -15.8644  144.5558 C   0  0  0  0  0  0  0  0  0  0  0  0
  -28.0162  -14.5870  146.5059 C   0  0  0  0  0  0  0  0  0  0  0  0
  -29.0439  -13.5974  146.5083 C   0  0  0  0  0  0  0  0  0  0  0  0
  -28.8981  -12.4283  145.6810 C   0  0  0  0  0  0  0  0  0  0  0  0
  -27.8404  -12.4274  144.7686 C   0  0  0  0  0  0  0  0  0  0  0  0
  -26.8816  -13.4931  144.7242 C   0  0  0  0  0  0  0  0  0  0  0  0
  -29.7724  -11.3491  145.6191 N   0  0  0  0  0  0  0  0  0  0  0  0
  -29.5677  -10.2853  144.7669 C   0  0  0  0  0  0  0  0  0  0  0  0
  -28.4736  -10.2286  144.0005 C   0  0  0  0  0  0  0  0  0  0  0  0
  -27.5848  -11.3025  143.9263 C   0  0  0  0  0  0  0  0  0  0  0  0
  4  5  1  0
  5  8  2  0
  8  9  1  0
  9 10  2  0
 11 12  2  0
 12  5  1  0
 10 11  1  0
 11 16  1  0
 16 15  2  0
 15 14  1  0
 14 13  2  0
 13 10  1  0
  1  2  2  0
  2  3  1  0
  3  4  2  0
  4  7  1  0
  7  6  2  0
  6  1  1  0
M  END

$$$$
No_896-/dssg/home/sw_qyf/PocketFlow/Model-Generation-Results/5HT2A_7WC7_rec_A_10.pdb/2024-01-01-03-54-21/
     RDKit          3D

 35 37  0  0  0  0  0  0  0  0999 V2000
  -24.1553  -17.8465  145.7021 C   0  0  0  0  0  0  0  0  0  0  0  0
  -24.6364  -17.2931  146.7091 C   0  0  0  0  0  0  0  0  0  0  0  0
  -25.8608  -16.5591  146.5934 C   0  0  0  0  0  0  0  0  0  0  0  0
  -26.9933  -16.9082  147.1889 C   0  0  0  0  0  0  0  0  0  0  0  0
  -28.2350  -16.1839  146.8943 C   0  0  0  0  0  0  0  0  0  0  0  0
  -28.1591  -14.9305  146.2109 C   0  0  0  0  0  0  0  0  0  0  0  0
  -26.9098  -14.5235  145.6600 C   0  0  0  0  0  0  0  0  0  0  0  0
  -25.7461  -15.3614  145.8720 C   0  0  0  0  0  0  0  0  0  0  0  0
  -26.8049  -13.2839  144.9023 C   0  0  0  0  0  0  0  0  0  0  0  0
  -26.6641  -12.1105  145.5844 C   0  0  0  0  0  0  0  0  0  0  0  0
  -26.6042  -10.8321  144.9236 C   0  0  0  0  0  0  0  0  0  0  0  0
  -27.5844  -10.5203  143.8989 C   0  0  0  0  0  0  0  0  0  0  0  0
  -28.5611   -9.5675  144.0477 C   0  0  0  0  0  0  0  0  0  0  0  0
  -29.5282   -9.3264  143.0974 C   0  0  0  0  0  0  0  0  0  0  0  0
  -29.3294   -9.9966  141.8675 C   0  0  0  0  0  0  0  0  0  0  0  0
  -28.3673  -10.9783  141.6641 C   0  0  0  0  0  0  0  0  0  0  0  0
  -28.2157  -11.6997  140.4873 C   0  0  0  0  0  0  0  0  0  0  0  0
  -27.4370  -11.2226  142.7387 C   0  0  0  0  0  0  0  0  0  0  0  0
  -27.0003  -11.4695  139.5695 C   0  0  0  0  0  0  0  0  0  0  0  0
  -26.5901  -12.4924  138.9257 O   0  0  0  0  0  0  0  0  0  0  0  0
  -24.0140  -17.4781  148.0609 C   0  0  0  0  0  0  0  0  0  0  0  0
  -24.5633  -17.1481  149.2587 C   0  0  0  0  0  0  0  0  0  0  0  0
  -23.8531  -17.2749  150.4782 C   0  0  0  0  0  0  0  0  0  0  0  0
  -22.4459  -17.3562  150.4280 C   0  0  0  0  0  0  0  0  0  0  0  0
  -21.9020  -17.2208  149.2210 N   0  0  0  0  0  0  0  0  0  0  0  0
  -22.6546  -17.3155  148.1010 C   0  0  0  0  0  0  0  0  0  0  0  0
  -30.5760   -8.3650  143.2848 C   0  0  0  0  0  0  0  0  0  0  0  0
  -30.5076   -7.2914  143.7534 O   0  0  0  0  0  0  0  0  0  0  0  0
  -31.9071   -8.8844  143.1059 N   0  0  0  0  0  0  0  0  0  0  0  0
  -26.4519  -10.3361  139.5461 O   0  0  0  0  0  0  0  0  0  0  0  0
  -24.6432  -14.8990  145.3393 O   0  0  0  0  0  0  0  0  0  0  0  0
  -24.1132  -15.3695  144.1770 C   0  0  0  0  0  0  0  0  0  0  0  0
  -22.9830  -14.5436  143.8513 C   0  0  0  0  0  0  0  0  0  0  0  0
  -21.8360  -14.7983  143.6668 O   0  0  0  0  0  0  0  0  0  0  0  0
  -23.1096  -13.2133  144.3221 O   0  0  0  0  0  0  0  0  0  0  0  0
  1  2  1  0
  2  3  1  0
  7  9  1  0
  9 10  1  0
 10 11  2  3
 11 12  1  0
 16 17  1  0
 17 19  1  0
 19 20  1  0
  2 21  1  0
 14 27  1  0
 27 28  2  0
 27 29  1  0
 19 30  2  0
  8 31  1  0
 31 32  1  0
 32 33  1  0
 33 34  1  0
 33 35  2  0
 12 13  2  0
 13 14  1  0
 14 15  2  0
 15 16  1  0
 16 18  2  0
 18 12  1  0
  3  4  2  0
  4  5  1  0
  5  6  2  0
  6  7  1  0
  7  8  2  0
  8  3  1  0
 21 22  2  0
 22 23  1  0
 23 24  2  0
 24 25  1  0
 25 26  2  0
 26 21  1  0
M  END

$$$$
No_897-/dssg/home/sw_qyf/PocketFlow/Model-Generation-Results/5HT2A_7WC7_rec_A_10.pdb/2024-01-01-03-54-21/
     RDKit          3D

 35 36  0  0  0  0  0  0  0  0999 V2000
  -23.1746  -16.6014  144.8668 C   0  0  0  0  0  0  0  0  0  0  0  0
  -23.7011  -17.0158  145.9774 C   0  0  0  0  0  0  0  0  0  0  0  0
  -24.0502  -18.2101  146.3018 C   0  0  0  0  0  0  0  0  0  0  0  0
  -24.6027  -18.5663  147.5666 C   0  0  0  0  0  0  0  0  0  0  0  0
  -24.7539  -17.5195  148.5563 C   0  0  0  0  0  0  0  0  0  0  0  0
  -24.6083  -16.1798  148.2114 C   0  0  0  0  0  0  0  0  0  0  0  0
  -23.9574  -15.9002  147.0100 C   0  0  0  0  0  0  0  0  0  0  0  0
  -22.6744  -15.4569  144.7845 F   0  0  0  0  0  0  0  0  0  0  0  0
  -24.1895  -16.8596  143.9430 F   0  0  0  0  0  0  0  0  0  0  0  0
  -23.7763  -19.3528  145.4634 C   0  0  0  0  0  0  0  0  0  0  0  0
  -25.2948  -17.8171  149.7574 O   0  0  0  0  0  0  0  0  0  0  0  0
  -26.3476  -17.3832  150.3057 C   0  0  0  0  0  0  0  0  0  0  0  0
  -27.4886  -18.2939  150.1661 C   0  0  0  0  0  0  0  0  0  0  0  0
  -28.7383  -17.5398  150.1025 C   0  0  0  0  0  0  0  0  0  0  0  0
  -28.7744  -16.6169  148.9355 C   0  0  0  0  0  0  0  0  0  0  0  0
  -29.7109  -15.5883  148.8946 C   0  0  0  0  0  0  0  0  0  0  0  0
  -29.7155  -14.6791  147.8469 C   0  0  0  0  0  0  0  0  0  0  0  0
  -30.5836  -13.5285  147.7582 C   0  0  0  0  0  0  0  0  0  0  0  0
  -30.1342  -12.5316  146.8769 C   0  0  0  0  0  0  0  0  0  0  0  0
  -28.8464  -12.5504  146.2050 C   0  0  0  0  0  0  0  0  0  0  0  0
  -28.3804  -11.4696  145.4163 C   0  0  0  0  0  0  0  0  0  0  0  0
  -29.2488  -10.5133  144.8422 C   0  0  0  0  0  0  0  0  0  0  0  0
  -28.9133   -9.7126  143.7955 C   0  0  0  0  0  0  0  0  0  0  0  0
  -29.8384   -8.8787  143.1586 C   0  0  0  0  0  0  0  0  0  0  0  0
  -29.4895   -8.0635  142.1030 C   0  0  0  0  0  0  0  0  0  0  0  0
  -29.1947   -8.7870  140.8264 C   0  0  0  0  0  0  0  0  0  0  0  0
  -29.1601   -8.0887  139.6397 C   0  0  0  0  0  0  0  0  0  0  0  0
  -27.9900  -13.6755  146.3940 C   0  0  0  0  0  0  0  0  0  0  0  0
  -28.4483  -14.7358  147.2615 C   0  0  0  0  0  0  0  0  0  0  0  0
  -27.0074  -11.4412  144.7735 C   0  0  0  0  0  0  0  0  0  0  0  0
  -26.7312  -10.5498  143.8535 F   0  0  0  0  0  0  0  0  0  0  0  0
  -25.7264  -11.4605  146.0087 Cl  0  0  0  0  0  0  0  0  0  0  0  0
  -26.7110  -12.8209  144.0657 C   0  0  0  0  0  0  0  0  0  0  0  0
  -28.6557   -8.4302  138.7746 C   0  0  0  0  0  0  0  0  0  0  0  0
  -28.0057   -9.7543  138.6455 C   0  0  0  0  0  0  0  0  0  0  0  0
  1  2  2  3
  2  3  1  0
  3  4  1  0
  4  5  1  0
  5  6  1  0
  2  7  1  0
  6  7  1  0
  1  8  1  0
  1  9  1  0
  3 10  1  0
  5 11  1  0
 11 12  1  0
 12 13  1  0
 13 14  1  0
 14 15  2  3
 15 16  1  0
 20 21  1  0
 21 22  1  0
 22 23  2  3
 23 24  1  0
 24 25  1  0
 25 26  1  0
 26 27  2  3
 21 30  1  0
 30 31  1  0
 30 32  1  0
 30 33  1  0
 27 34  1  0
 34 35  2  0
 16 17  1  0
 17 18  2  0
 18 19  1  0
 19 20  2  0
 20 28  1  0
 28 29  2  0
 29 17  1  0
M  END

$$$$
No_898-/dssg/home/sw_qyf/PocketFlow/Model-Generation-Results/5HT2A_7WC7_rec_A_10.pdb/2024-01-01-03-54-21/
     RDKit          3D

 35 38  0  0  0  0  0  0  0  0999 V2000
  -23.1746  -16.6014  144.8668 C   0  0  0  0  0  0  0  0  0  0  0  0
  -23.8963  -15.5346  144.7885 C   0  0  0  0  0  0  0  0  0  0  0  0
  -25.0304  -15.2549  144.5358 C   0  0  0  0  0  0  0  0  0  0  0  0
  -25.6045  -13.9524  144.2294 C   0  0  0  0  0  0  0  0  0  0  0  0
  -26.9716  -13.7632  143.8495 C   0  0  0  0  0  0  0  0  0  0  0  0
  -27.2940  -12.4851  143.3751 C   0  0  0  0  0  0  0  0  0  0  0  0
  -27.9155  -12.3162  142.1844 C   0  0  0  0  0  0  0  0  0  0  0  0
  -27.4371  -12.9668  141.0345 C   0  0  0  0  0  0  0  0  0  0  0  0
  -27.1676  -12.1408  139.8881 C   0  0  0  0  0  0  0  0  0  0  0  0
  -27.3268  -10.7566  140.0654 C   0  0  0  0  0  0  0  0  0  0  0  0
  -27.4309   -9.9196  138.8792 C   0  0  0  0  0  0  0  0  0  0  0  0
  -28.2265   -8.6287  139.1797 C   0  0  0  0  0  0  0  0  0  0  0  0
  -28.7327   -7.9247  138.1198 C   0  0  0  0  0  0  0  0  0  0  0  0
  -23.8963  -17.6320  145.6107 C   0  0  0  0  0  0  0  0  0  0  0  0
  -23.2875  -18.8281  146.0086 C   0  0  0  0  0  0  0  0  0  0  0  0
  -22.4099  -18.5877  146.8563 O   0  0  0  0  0  0  0  0  0  0  0  0
  -23.5523  -19.9438  145.6632 O   0  0  0  0  0  0  0  0  0  0  0  0
  -25.2909  -17.4231  145.8824 C   0  0  0  0  0  0  0  0  0  0  0  0
  -25.9116  -16.1891  145.4283 C   0  0  0  0  0  0  0  0  0  0  0  0
  -26.7661  -12.6165  138.7464 O   0  0  0  0  0  0  0  0  0  0  0  0
  -28.1532   -7.9351  137.1329 F   0  0  0  0  0  0  0  0  0  0  0  0
  -28.9361   -6.6262  138.5436 F   0  0  0  0  0  0  0  0  0  0  0  0
  -30.0374   -8.3293  137.8804 F   0  0  0  0  0  0  0  0  0  0  0  0
  -25.2280  -12.9053  145.0306 O   0  0  0  0  0  0  0  0  0  0  0  0
  -25.9255  -12.2525  145.6882 C   0  0  0  0  0  0  0  0  0  0  0  0
  -26.9147  -11.1923  145.1993 C   0  0  0  0  0  0  0  0  0  0  0  0
  -27.8931  -11.5635  144.4508 C   0  0  0  0  0  0  0  0  0  0  0  0
  -28.7155  -10.4277  143.8090 C   0  0  0  0  0  0  0  0  0  0  0  0
  -29.3394  -10.4298  142.6508 C   0  0  0  0  0  0  0  0  0  0  0  0
  -28.7427  -11.2253  141.7968 C   0  0  0  0  0  0  0  0  0  0  0  0
  -30.4397   -9.5820  142.3162 C   0  0  0  0  0  0  0  0  0  0  0  0
  -30.1668   -8.0476  142.2792 C   0  0  0  0  0  0  0  0  0  0  0  0
  -30.6565   -7.2365  143.3331 C   0  0  0  0  0  0  0  0  0  0  0  0
  -27.6451  -10.2492  141.2948 O   0  0  0  0  0  0  0  0  0  0  0  0
  -31.5018   -9.6208  143.3467 O   0  0  0  0  0  0  0  0  0  0  0  0
  3  4  1  0
  4  5  1  0
  5  6  1  0
  7  8  1  0
  8  9  1  0
  9 10  1  0
 10 11  1  0
 11 12  1  0
 12 13  1  0
 14 15  1  0
 15 16  1  0
 15 17  2  0
  9 20  2  0
 13 21  1  0
 13 22  1  0
 13 23  1  0
  4 24  1  0
 24 25  1  0
 25 26  1  0
 26 27  1  0
 29 31  1  0
 31 32  1  0
 32 33  1  0
 10 34  1  0
 30 34  1  0
 31 35  1  0
  1  2  2  0
  2  3  1  0
  3 19  2  0
 19 18  1  0
 18 14  2  0
 14  1  1  0
  6  7  2  0
  7 30  1  0
 30 29  2  0
 29 28  1  0
 28 27  2  0
 27  6  1  0
M  END

$$$$
No_899-/dssg/home/sw_qyf/PocketFlow/Model-Generation-Results/5HT2A_7WC7_rec_A_10.pdb/2024-01-01-03-54-21/
     RDKit          3D

 35 38  0  0  0  0  0  0  0  0999 V2000
  -23.1746  -16.6014  144.8668 C   0  0  0  0  0  0  0  0  0  0  0  0
  -24.0189  -16.0564  145.8445 C   0  0  0  0  0  0  0  0  0  0  0  0
  -24.4850  -14.7380  145.6359 C   0  0  0  0  0  0  0  0  0  0  0  0
  -24.0208  -14.0081  144.6269 C   0  0  0  0  0  0  0  0  0  0  0  0
  -24.4092  -12.5999  144.5318 C   0  0  0  0  0  0  0  0  0  0  0  0
  -25.4740  -12.1564  145.3988 C   0  0  0  0  0  0  0  0  0  0  0  0
  -26.0026  -12.9757  146.4473 C   0  0  0  0  0  0  0  0  0  0  0  0
  -25.5310  -14.3126  146.5215 C   0  0  0  0  0  0  0  0  0  0  0  0
  -24.3440  -16.8341  146.9928 C   0  0  0  0  0  0  0  0  0  0  0  0
  -23.8810  -18.0850  147.1868 C   0  0  0  0  0  0  0  0  0  0  0  0
  -23.2440  -18.7421  146.1046 C   0  0  0  0  0  0  0  0  0  0  0  0
  -22.9747  -18.0149  145.0060 N   0  0  0  0  0  0  0  0  0  0  0  0
  -25.9641  -10.7770  145.3073 C   0  0  0  0  0  0  0  0  0  0  0  0
  -27.4504  -10.7059  145.0984 C   0  0  0  0  0  0  0  0  0  0  0  0
  -27.9480   -9.8614  144.1079 C   0  0  0  0  0  0  0  0  0  0  0  0
  -29.4145   -9.8285  144.0023 C   0  0  0  0  0  0  0  0  0  0  0  0
  -30.1337  -10.5461  144.9931 C   0  0  0  0  0  0  0  0  0  0  0  0
  -29.5500  -11.2713  145.9939 C   0  0  0  0  0  0  0  0  0  0  0  0
  -28.1623  -11.3348  146.1008 C   0  0  0  0  0  0  0  0  0  0  0  0
  -30.0485   -9.0428  143.0204 C   0  0  0  0  0  0  0  0  0  0  0  0
  -29.9558   -7.7040  142.9588 C   0  0  0  0  0  0  0  0  0  0  0  0
  -30.0468   -6.8985  141.7849 C   0  0  0  0  0  0  0  0  0  0  0  0
  -30.2396   -7.6766  140.5643 C   0  0  0  0  0  0  0  0  0  0  0  0
  -29.9534   -9.0295  140.6288 C   0  0  0  0  0  0  0  0  0  0  0  0
  -29.9512   -9.7366  141.7549 C   0  0  0  0  0  0  0  0  0  0  0  0
  -30.3042  -11.9481  146.9304 O   0  0  0  0  0  0  0  0  0  0  0  0
  -30.0152  -11.7253  148.2591 C   0  0  0  0  0  0  0  0  0  0  0  0
  -31.0659  -12.4467  149.0077 C   0  0  0  0  0  0  0  0  0  0  0  0
  -31.9343  -11.8287  149.7120 O   0  0  0  0  0  0  0  0  0  0  0  0
  -33.0080  -12.4172  150.3277 C   0  0  0  0  0  0  0  0  0  0  0  0
  -32.8199  -12.7845  151.4035 C   0  0  0  0  0  0  0  0  0  0  0  0
  -32.9380  -12.1190  152.3416 O   0  0  0  0  0  0  0  0  0  0  0  0
  -32.4548  -14.0942  151.5597 N   0  0  0  0  0  0  0  0  0  0  0  0
  -29.9338  -11.0130  141.6541 F   0  0  0  0  0  0  0  0  0  0  0  0
  -31.8322  -14.9591  150.7670 C   0  0  0  0  0  0  0  0  0  0  0  0
  2  3  1  0
  6 13  1  0
 13 14  1  0
 16 20  1  0
 18 26  1  0
 26 27  1  0
 27 28  1  0
 28 29  1  0
 29 30  1  0
 30 31  1  0
 31 32  2  0
 31 33  1  0
 25 34  1  0
 33 35  1  0
  1  2  2  0
  2  9  1  0
  9 10  2  0
 10 11  1  0
 11 12  2  0
 12  1  1  0
 14 15  2  0
 15 16  1  0
 16 17  2  0
 17 18  1  0
 18 19  2  0
 19 14  1  0
  3  4  2  0
  4  5  1  0
  5  6  2  0
  6  7  1  0
  7  8  2  0
  8  3  1  0
 20 21  2  0
 21 22  1  0
 22 23  2  0
 23 24  1  0
 24 25  2  0
 25 20  1  0
M  END

$$$$
No_900-/dssg/home/sw_qyf/PocketFlow/Model-Generation-Results/5HT2A_7WC7_rec_A_10.pdb/2024-01-01-03-54-21/
     RDKit          3D

 19 20  0  0  0  0  0  0  0  0999 V2000
  -24.1553  -17.8465  145.7021 C   0  0  0  0  0  0  0  0  0  0  0  0
  -24.2856  -16.6364  145.3494 C   0  0  0  0  0  0  0  0  0  0  0  0
  -25.0033  -15.6772  146.0737 C   0  0  0  0  0  0  0  0  0  0  0  0
  -25.6964  -16.1810  147.2049 C   0  0  0  0  0  0  0  0  0  0  0  0
  -24.8143  -18.3454  146.8324 C   0  0  0  0  0  0  0  0  0  0  0  0
  -25.5292  -17.4614  147.6373 C   0  0  0  0  0  0  0  0  0  0  0  0
  -23.7231  -15.8489  144.2501 N   0  0  0  0  0  0  0  0  0  0  0  0
  -24.2092  -14.5828  144.3252 C   0  0  0  0  0  0  0  0  0  0  0  0
  -23.7362  -13.2880  143.1394 Br  0  0  0  0  0  0  0  0  0  0  0  0
  -25.0817  -14.4719  145.5327 C   0  0  0  0  0  0  0  0  0  0  0  0
  -25.6783  -13.1911  146.0278 C   0  0  0  0  0  0  0  0  0  0  0  0
  -24.9281  -12.0889  146.3289 C   0  0  0  0  0  0  0  0  0  0  0  0
  -27.0520  -13.2615  146.2231 C   0  0  0  0  0  0  0  0  0  0  0  0
  -27.7772  -12.0943  146.6384 C   0  0  0  0  0  0  0  0  0  0  0  0
  -29.1960  -12.2238  146.7068 C   0  0  0  0  0  0  0  0  0  0  0  0
  -29.9367  -11.0673  146.8397 N   0  0  0  0  0  0  0  0  0  0  0  0
  -29.8186  -13.3037  146.6105 O   0  0  0  0  0  0  0  0  0  0  0  0
  -25.5825  -10.9763  146.8065 O   0  0  0  0  0  0  0  0  0  0  0  0
  -23.6324  -12.0240  146.1470 N   0  0  0  0  0  0  0  0  0  0  0  0
  2  7  1  0
  7  8  2  0
  8  9  1  0
  3 10  1  0
  8 10  1  0
 10 11  1  0
 11 12  1  0
 11 13  1  0
 13 14  2  3
 14 15  1  0
 15 16  1  0
 15 17  2  0
 12 18  1  0
 12 19  1  0
  1  2  2  0
  2  3  1  0
  3  4  2  0
  4  6  1  0
  6  5  2  0
  5  1  1  0
M  END

$$$$
No_901-/dssg/home/sw_qyf/PocketFlow/Model-Generation-Results/5HT2A_7WC7_rec_A_10.pdb/2024-01-01-03-54-21/
     RDKit          3D

 35 38  0  0  0  0  0  0  0  0999 V2000
  -24.1553  -17.8465  145.7021 C   0  0  0  0  0  0  0  0  0  0  0  0
  -23.9795  -18.4462  146.7426 C   0  0  0  0  0  0  0  0  0  0  0  0
  -25.1196  -16.8105  145.6408 C   0  0  0  0  0  0  0  0  0  0  0  0
  -25.9237  -16.5070  146.7422 C   0  0  0  0  0  0  0  0  0  0  0  0
  -25.6627  -17.1841  147.9274 C   0  0  0  0  0  0  0  0  0  0  0  0
  -24.6813  -18.1540  148.0079 C   0  0  0  0  0  0  0  0  0  0  0  0
  -26.9717  -15.4553  146.6645 C   0  0  0  0  0  0  0  0  0  0  0  0
  -26.7557  -14.3988  145.8959 C   0  0  0  0  0  0  0  0  0  0  0  0
  -27.1410  -13.2504  145.9154 C   0  0  0  0  0  0  0  0  0  0  0  0
  -27.0690  -12.1563  144.8882 C   0  0  0  0  0  0  0  0  0  0  0  0
  -26.6762  -12.6054  143.7123 C   0  0  0  0  0  0  0  0  0  0  0  0
  -26.1994  -13.9293  143.5627 C   0  0  0  0  0  0  0  0  0  0  0  0
  -26.3207  -14.8496  144.5394 C   0  0  0  0  0  0  0  0  0  0  0  0
  -25.3123  -15.8162  144.4971 C   0  0  0  0  0  0  0  0  0  0  0  0
  -26.8963  -10.8428  145.2369 C   0  0  0  0  0  0  0  0  0  0  0  0
  -28.0341   -9.9409  144.7479 C   0  0  0  0  0  0  0  0  0  0  0  0
  -27.9168   -9.2206  143.5820 C   0  0  0  0  0  0  0  0  0  0  0  0
  -29.0295   -8.5210  143.0441 C   0  0  0  0  0  0  0  0  0  0  0  0
  -28.8631   -7.5358  142.0611 C   0  0  0  0  0  0  0  0  0  0  0  0
  -30.0357   -7.1895  141.2584 C   0  0  0  0  0  0  0  0  0  0  0  0
  -30.3094   -8.3126  140.6242 C   0  0  0  0  0  0  0  0  0  0  0  0
  -29.3439  -10.2060  145.1618 C   0  0  0  0  0  0  0  0  0  0  0  0
  -30.4711   -9.5643  144.6456 C   0  0  0  0  0  0  0  0  0  0  0  0
  -30.2933   -8.6698  143.6216 C   0  0  0  0  0  0  0  0  0  0  0  0
  -25.7697  -14.2246  142.3511 O   0  0  0  0  0  0  0  0  0  0  0  0
  -31.3803   -8.0742  143.2041 O   0  0  0  0  0  0  0  0  0  0  0  0
  -26.3924  -16.8718  149.0633 O   0  0  0  0  0  0  0  0  0  0  0  0
  -23.4946  -18.0911  144.6164 O   0  0  0  0  0  0  0  0  0  0  0  0
  -26.3172  -13.7058  141.2323 C   0  0  0  0  0  0  0  0  0  0  0  0
  -27.5282  -12.9144  141.3621 C   0  0  0  0  0  0  0  0  0  0  0  0
  -27.9444  -12.2582  140.1297 C   0  0  0  0  0  0  0  0  0  0  0  0
  -26.9643  -11.2654  139.5848 C   0  0  0  0  0  0  0  0  0  0  0  0
  -27.7163   -9.9877  139.2205 C   0  0  0  0  0  0  0  0  0  0  0  0
  -27.1377   -8.8761  139.9318 C   0  0  0  0  0  0  0  0  0  0  0  0
  -27.8834   -7.6598  139.3530 C   0  0  0  0  0  0  0  0  0  0  0  0
 10 15  1  0
 15 16  1  0
 18 19  1  0
 19 20  1  0
 20 21  1  0
 12 25  1  0
 24 26  1  0
  5 27  1  0
  1 28  1  0
 25 29  1  0
 29 30  1  0
 30 31  1  0
 31 32  1  0
 32 33  1  0
 33 34  2  3
 34 35  1  0
  4  7  2  0
  7  8  1  0
 13 14  1  0
 14  3  2  0
  1  2  2  0
  2  6  1  0
  6  5  2  0
  5  4  1  0
  4  3  1  0
  3  1  1  0
  8  9  2  0
  9 10  1  0
 10 11  2  0
 11 12  1  0
 12 13  2  0
 13  8  1  0
 16 17  2  0
 17 18  1  0
 18 24  2  0
 24 23  1  0
 23 22  2  0
 22 16  1  0
M  END

$$$$
No_902-/dssg/home/sw_qyf/PocketFlow/Model-Generation-Results/5HT2A_7WC7_rec_A_10.pdb/2024-01-01-03-54-21/
     RDKit          3D

 35 39  0  0  0  0  0  0  0  0999 V2000
  -24.1553  -17.8465  145.7021 C   0  0  0  0  0  0  0  0  0  0  0  0
  -23.9795  -18.4462  146.7426 C   0  0  0  0  0  0  0  0  0  0  0  0
  -25.1196  -16.8106  145.6408 C   0  0  0  0  0  0  0  0  0  0  0  0
  -25.9236  -16.5070  146.7422 C   0  0  0  0  0  0  0  0  0  0  0  0
  -25.6627  -17.1841  147.9274 C   0  0  0  0  0  0  0  0  0  0  0  0
  -24.6813  -18.1540  148.0079 C   0  0  0  0  0  0  0  0  0  0  0  0
  -26.9780  -15.4746  146.6756 C   0  0  0  0  0  0  0  0  0  0  0  0
  -26.8077  -14.4334  145.8533 C   0  0  0  0  0  0  0  0  0  0  0  0
  -25.7714  -14.1768  144.9964 C   0  0  0  0  0  0  0  0  0  0  0  0
  -25.6026  -13.0882  144.1583 C   0  0  0  0  0  0  0  0  0  0  0  0
  -26.6502  -12.2636  144.3007 C   0  0  0  0  0  0  0  0  0  0  0  0
  -26.7089  -11.0385  143.4428 C   0  0  0  0  0  0  0  0  0  0  0  0
  -25.0175  -15.6093  144.6307 C   0  0  0  0  0  0  0  0  0  0  0  0
  -27.4438   -9.9472  144.1350 C   0  0  0  0  0  0  0  0  0  0  0  0
  -28.7712  -10.2231  144.6775 C   0  0  0  0  0  0  0  0  0  0  0  0
  -29.8058   -9.4387  144.5088 C   0  0  0  0  0  0  0  0  0  0  0  0
  -29.9923   -8.5792  143.4853 C   0  0  0  0  0  0  0  0  0  0  0  0
  -31.0953   -7.8134  143.3366 C   0  0  0  0  0  0  0  0  0  0  0  0
  -27.6229  -13.2107  146.1594 C   0  0  0  0  0  0  0  0  0  0  0  0
  -28.5711  -13.2262  147.1999 C   0  0  0  0  0  0  0  0  0  0  0  0
  -27.5786  -12.1502  145.2854 C   0  0  0  0  0  0  0  0  0  0  0  0
  -28.7005  -11.4753  145.3450 C   0  0  0  0  0  0  0  0  0  0  0  0
  -29.2500  -14.2321  147.7607 C   0  0  0  0  0  0  0  0  0  0  0  0
  -30.4511  -13.9102  148.5636 C   0  0  0  0  0  0  0  0  0  0  0  0
  -31.2681  -14.8349  149.1770 C   0  0  0  0  0  0  0  0  0  0  0  0
  -32.2256  -14.3775  150.0976 C   0  0  0  0  0  0  0  0  0  0  0  0
  -32.4592  -12.9998  150.3032 C   0  0  0  0  0  0  0  0  0  0  0  0
  -31.7062  -12.0741  149.5388 C   0  0  0  0  0  0  0  0  0  0  0  0
  -30.6974  -12.4776  148.7361 C   0  0  0  0  0  0  0  0  0  0  0  0
  -32.0051   -7.8007  143.9676 F   0  0  0  0  0  0  0  0  0  0  0  0
  -31.6263   -7.9919  141.9309 F   0  0  0  0  0  0  0  0  0  0  0  0
  -30.7028   -6.5150  143.1580 F   0  0  0  0  0  0  0  0  0  0  0  0
  -26.6161  -17.2375  148.8800 O   0  0  0  0  0  0  0  0  0  0  0  0
  -24.1418  -15.6432  143.7490 O   0  0  0  0  0  0  0  0  0  0  0  0
  -33.4027  -12.6289  151.1405 F   0  0  0  0  0  0  0  0  0  0  0  0
  4  7  1  0
  7  8  1  0
 11 12  1  0
  3 13  1  0
  9 13  1  0
 12 14  1  0
 14 15  1  0
 15 16  2  3
 16 17  1  0
 17 18  1  0
 19 20  1  0
 15 22  1  0
 21 22  1  0
 20 23  2  3
 23 24  1  0
 18 30  1  0
 18 31  1  0
 18 32  1  0
  5 33  1  0
 13 34  2  0
 27 35  1  0
 24 25  2  0
 25 26  1  0
 26 27  2  0
 27 28  1  0
 28 29  2  0
 29 24  1  0
  8 19  2  0
 19 21  1  0
 21 11  2  0
 11 10  1  0
 10  9  2  0
  9  8  1  0
  1  2  2  0
  2  6  1  0
  6  5  2  0
  5  4  1  0
  4  3  2  0
  3  1  1  0
M  END

$$$$
No_903-/dssg/home/sw_qyf/PocketFlow/Model-Generation-Results/5HT2A_7WC7_rec_A_10.pdb/2024-01-01-03-54-21/
     RDKit          3D

 24 24  0  0  0  0  0  0  0  0999 V2000
  -23.1746  -16.6014  144.8668 C   0  0  0  0  0  0  0  0  0  0  0  0
  -23.8963  -15.5346  144.7885 C   0  0  0  0  0  0  0  0  0  0  0  0
  -25.0304  -15.2549  144.5358 C   0  0  0  0  0  0  0  0  0  0  0  0
  -26.0482  -16.0541  145.3273 C   0  0  0  0  0  0  0  0  0  0  0  0
  -24.1314  -17.6118  145.6547 C   0  0  0  0  0  0  0  0  0  0  0  0
  -25.4664  -17.2664  145.8096 C   0  0  0  0  0  0  0  0  0  0  0  0
  -25.6631  -13.7181  143.9821 Cl  0  0  0  0  0  0  0  0  0  0  0  0
  -23.6051  -18.8856  146.0605 C   0  0  0  0  0  0  0  0  0  0  0  0
  -24.2348  -19.8843  146.0020 O   0  0  0  0  0  0  0  0  0  0  0  0
  -22.6410  -18.7765  147.0136 O   0  0  0  0  0  0  0  0  0  0  0  0
  -27.4408  -15.7243  145.4518 C   0  0  0  0  0  0  0  0  0  0  0  0
  -27.7254  -15.1488  146.8435 C   0  0  0  0  0  0  0  0  0  0  0  0
  -28.3548  -14.3243  147.1180 C   0  0  0  0  0  0  0  0  0  0  0  0
  -29.4266  -13.6087  146.8457 C   0  0  0  0  0  0  0  0  0  0  0  0
  -29.9538  -12.3302  147.3468 C   0  0  0  0  0  0  0  0  0  0  0  0
  -31.0348  -11.7705  146.8776 C   0  0  0  0  0  0  0  0  0  0  0  0
  -30.5284  -10.8916  145.9603 N   0  0  0  0  0  0  0  0  0  0  0  0
  -30.1433  -11.0080  144.7286 C   0  0  0  0  0  0  0  0  0  0  0  0
  -30.6527  -10.1413  143.5660 Cl  0  0  0  0  0  0  0  0  0  0  0  0
  -28.8923  -11.5061  144.5246 O   0  0  0  0  0  0  0  0  0  0  0  0
  -27.4685  -16.1912  147.8406 C   0  0  0  0  0  0  0  0  0  0  0  0
  -31.9757  -11.5518  147.5411 O   0  0  0  0  0  0  0  0  0  0  0  0
  -29.7255  -12.3362  148.7376 O   0  0  0  0  0  0  0  0  0  0  0  0
  -22.7279  -14.3444  143.8537 Cl  0  0  0  0  0  0  0  0  0  0  0  0
  3  7  1  0
  5  8  1  0
  8  9  2  0
  8 10  1  0
  4 11  1  0
 11 12  1  0
 12 13  2  3
 13 14  1  0
 14 15  2  3
 15 16  1  0
 16 17  1  0
 17 18  1  0
 18 19  1  0
 18 20  2  0
 12 21  1  0
 16 22  2  0
 15 23  1  0
  2 24  1  0
  1  2  2  0
  2  3  1  0
  3  4  2  0
  4  6  1  0
  6  5  2  0
  5  1  1  0
M  END

$$$$
No_904-/dssg/home/sw_qyf/PocketFlow/Model-Generation-Results/5HT2A_7WC7_rec_A_10.pdb/2024-01-01-03-54-21/
     RDKit          3D

 15 15  0  0  0  0  0  0  0  0999 V2000
  -24.1553  -17.8465  145.7021 C   0  0  0  0  0  0  0  0  0  0  0  0
  -24.6364  -17.2931  146.7091 C   0  0  0  0  0  0  0  0  0  0  0  0
  -24.5709  -15.9334  146.8074 C   0  0  0  0  0  0  0  0  0  0  0  0
  -25.1834  -15.1616  147.9419 C   0  0  0  0  0  0  0  0  0  0  0  0
  -23.6361  -17.1348  144.5597 C   0  0  0  0  0  0  0  0  0  0  0  0
  -23.7332  -15.7649  144.6149 C   0  0  0  0  0  0  0  0  0  0  0  0
  -24.1973  -15.1293  145.7929 C   0  0  0  0  0  0  0  0  0  0  0  0
  -24.0660  -19.3642  145.6237 C   0  0  0  0  0  0  0  0  0  0  0  0
  -24.2480  -13.7446  145.9691 N   0  0  0  0  0  0  0  0  0  0  0  0
  -23.3307  -12.9632  145.3380 C   0  0  0  0  0  0  0  0  0  0  0  0
  -23.5203  -11.6854  145.4332 O   0  0  0  0  0  0  0  0  0  0  0  0
  -22.4961  -13.3965  144.4030 N   0  0  0  0  0  0  0  0  0  0  0  0
  -23.0491  -20.0156  145.8252 O   0  0  0  0  0  0  0  0  0  0  0  0
  -25.2244  -20.0082  145.6069 O   0  0  0  0  0  0  0  0  0  0  0  0
  -22.3936  -14.4608  143.9743 O   0  0  0  0  0  0  0  0  0  0  0  0
  3  4  1  0
  1  8  1  0
  7  9  1  0
  9 10  1  0
 10 11  2  0
 10 12  1  0
  8 13  2  0
  8 14  1  0
 12 15  2  0
  1  2  2  0
  2  3  1  0
  3  7  2  0
  7  6  1  0
  6  5  2  0
  5  1  1  0
M  END

$$$$
No_905-/dssg/home/sw_qyf/PocketFlow/Model-Generation-Results/5HT2A_7WC7_rec_A_10.pdb/2024-01-01-03-54-21/
     RDKit          3D

 31 32  0  0  0  0  0  0  0  0999 V2000
  -23.1746  -16.6014  144.8668 C   0  0  0  0  0  0  0  0  0  0  0  0
  -24.0189  -16.0564  145.8445 C   0  0  0  0  0  0  0  0  0  0  0  0
  -24.4850  -14.7380  145.6359 C   0  0  0  0  0  0  0  0  0  0  0  0
  -25.3334  -14.0797  146.6105 C   0  0  0  0  0  0  0  0  0  0  0  0
  -25.7120  -12.7595  146.4431 C   0  0  0  0  0  0  0  0  0  0  0  0
  -25.2808  -11.9605  145.3602 C   0  0  0  0  0  0  0  0  0  0  0  0
  -24.2994  -12.5741  144.5564 C   0  0  0  0  0  0  0  0  0  0  0  0
  -23.8450  -13.9153  144.6819 C   0  0  0  0  0  0  0  0  0  0  0  0
  -24.5228  -16.8277  146.9041 C   0  0  0  0  0  0  0  0  0  0  0  0
  -25.2756  -16.6956  147.7328 C   0  0  0  0  0  0  0  0  0  0  0  0
  -25.3962  -17.5878  148.9056 C   0  0  0  0  0  0  0  0  0  0  0  0
  -24.7601  -17.3126  150.0051 C   0  0  0  0  0  0  0  0  0  0  0  0
  -25.7557  -10.2037  145.0885 Br  0  0  0  0  0  0  0  0  0  0  0  0
  -24.7313  -18.0198  151.1557 C   0  0  0  0  0  0  0  0  0  0  0  0
  -23.4303  -17.8753  147.1799 C   0  0  0  0  0  0  0  0  0  0  0  0
  -23.0977  -18.8056  146.3157 O   0  0  0  0  0  0  0  0  0  0  0  0
  -25.9125  -18.7078  151.2796 C   0  0  0  0  0  0  0  0  0  0  0  0
  -27.1441  -18.2335  151.6190 C   0  0  0  0  0  0  0  0  0  0  0  0
  -28.2636  -18.9791  152.0460 C   0  0  0  0  0  0  0  0  0  0  0  0
  -29.3638  -18.4902  151.8537 O   0  0  0  0  0  0  0  0  0  0  0  0
  -28.1229  -20.0447  152.7010 O   0  0  0  0  0  0  0  0  0  0  0  0
  -23.9335  -16.9188  143.7528 O   0  0  0  0  0  0  0  0  0  0  0  0
  -29.9099  -17.7125  152.8733 C   0  0  0  0  0  0  0  0  0  0  0  0
  -30.8691  -16.7262  152.3276 C   0  0  0  0  0  0  0  0  0  0  0  0
  -30.5057  -15.7283  151.5577 C   0  0  0  0  0  0  0  0  0  0  0  0
  -31.4597  -14.7364  151.0673 C   0  0  0  0  0  0  0  0  0  0  0  0
  -32.7516  -14.7029  151.6679 C   0  0  0  0  0  0  0  0  0  0  0  0
  -33.6439  -13.7116  151.2643 C   0  0  0  0  0  0  0  0  0  0  0  0
  -33.2255  -12.7499  150.3286 C   0  0  0  0  0  0  0  0  0  0  0  0
  -31.9911  -12.9121  149.6376 C   0  0  0  0  0  0  0  0  0  0  0  0
  -31.1128  -13.9068  150.0722 C   0  0  0  0  0  0  0  0  0  0  0  0
  1  2  1  0
  2  9  1  0
  9 10  2  3
 10 11  1  0
 11 12  1  0
  6 13  1  0
 12 14  2  3
  9 15  1  0
 15 16  2  0
 14 17  1  0
 17 18  1  0
 18 19  1  0
 19 20  1  0
 19 21  2  0
  1 22  1  0
 20 23  1  0
 23 24  2  3
 24 25  1  0
 25 26  1  0
  2  3  1  0
 26 27  2  0
 27 28  1  0
 28 29  2  0
 29 30  1  0
 30 31  2  0
 31 26  1  0
  3  4  2  0
  4  5  1  0
  5  6  2  0
  6  7  1  0
  7  8  2  0
  8  3  1  0
M  END

$$$$
No_906-/dssg/home/sw_qyf/PocketFlow/Model-Generation-Results/5HT2A_7WC7_rec_A_10.pdb/2024-01-01-03-54-21/
     RDKit          3D

 32 34  0  0  0  0  0  0  0  0999 V2000
  -24.1553  -17.8465  145.7021 C   0  0  0  0  0  0  0  0  0  0  0  0
  -24.2855  -16.6364  145.3494 C   0  0  0  0  0  0  0  0  0  0  0  0
  -24.5733  -15.7651  145.9979 C   0  0  0  0  0  0  0  0  0  0  0  0
  -24.7088  -14.2765  145.5906 C   0  0  0  0  0  0  0  0  0  0  0  0
  -24.0081  -14.0223  144.3771 C   0  0  0  0  0  0  0  0  0  0  0  0
  -24.5461  -18.2167  147.0077 C   0  0  0  0  0  0  0  0  0  0  0  0
  -24.9798  -17.2136  147.8740 C   0  0  0  0  0  0  0  0  0  0  0  0
  -24.9934  -15.8410  147.4193 C   0  0  0  0  0  0  0  0  0  0  0  0
  -25.4095  -13.3163  146.3444 C   0  0  0  0  0  0  0  0  0  0  0  0
  -26.2420  -12.7628  146.2655 C   0  0  0  0  0  0  0  0  0  0  0  0
  -26.9142  -11.8404  145.4794 C   0  0  0  0  0  0  0  0  0  0  0  0
  -26.2709  -11.1436  144.4670 C   0  0  0  0  0  0  0  0  0  0  0  0
  -28.3818  -11.4941  145.5126 C   0  0  0  0  0  0  0  0  0  0  0  0
  -29.3012  -12.0196  146.4476 C   0  0  0  0  0  0  0  0  0  0  0  0
  -29.1074  -13.2559  147.0674 C   0  0  0  0  0  0  0  0  0  0  0  0
  -30.1231  -13.7119  147.9811 C   0  0  0  0  0  0  0  0  0  0  0  0
  -28.8265  -10.3453  144.7520 C   0  0  0  0  0  0  0  0  0  0  0  0
  -28.1001   -9.7830  143.7542 C   0  0  0  0  0  0  0  0  0  0  0  0
  -28.7152   -8.8516  142.9373 C   0  0  0  0  0  0  0  0  0  0  0  0
  -26.8072  -10.1820  143.6899 N   0  0  0  0  0  0  0  0  0  0  0  0
  -29.9997   -8.3913  143.0039 C   0  0  0  0  0  0  0  0  0  0  0  0
  -31.1448   -8.9809  143.5702 C   0  0  0  0  0  0  0  0  0  0  0  0
  -30.0577  -15.0233  148.4707 C   0  0  0  0  0  0  0  0  0  0  0  0
  -28.9588  -15.8610  147.9917 C   0  0  0  0  0  0  0  0  0  0  0  0
  -28.0966  -15.4319  147.0246 C   0  0  0  0  0  0  0  0  0  0  0  0
  -28.2108  -14.1233  146.5136 C   0  0  0  0  0  0  0  0  0  0  0  0
  -30.4147   -7.3057  142.0354 C   0  0  0  0  0  0  0  0  0  0  0  0
  -30.7279   -7.8147  140.6958 C   0  0  0  0  0  0  0  0  0  0  0  0
  -25.3099  -17.4875  149.3317 C   0  0  0  0  0  0  0  0  0  0  0  0
  -24.4380  -18.1126  150.0087 F   0  0  0  0  0  0  0  0  0  0  0  0
  -26.4704  -18.1609  149.4587 F   0  0  0  0  0  0  0  0  0  0  0  0
  -25.5240  -16.2619  149.9875 F   0  0  0  0  0  0  0  0  0  0  0  0
  3  4  1  0
  4  5  2  0
  4  9  1  0
  9 10  2  3
 10 11  1  0
 13 14  1  0
 18 19  1  0
 19 21  2  3
 21 22  1  0
 21 27  1  0
 27 28  1  0
  7 29  1  0
 29 30  1  0
 29 31  1  0
 29 32  1  0
 14 15  1  0
 11 12  2  0
 12 20  1  0
 20 18  2  0
 18 17  1  0
 17 13  2  0
 13 11  1  0
  1  2  2  0
  2  3  1  0
  3  8  2  0
  8  7  1  0
  7  6  2  0
  6  1  1  0
 15 16  2  0
 16 23  1  0
 23 24  2  0
 24 25  1  0
 25 26  2  0
 26 15  1  0
M  END

$$$$
No_907-/dssg/home/sw_qyf/PocketFlow/Model-Generation-Results/5HT2A_7WC7_rec_A_10.pdb/2024-01-01-03-54-21/
     RDKit          3D

 28 30  0  0  0  0  0  0  0  0999 V2000
  -24.1553  -17.8465  145.7021 C   0  0  0  0  0  0  0  0  0  0  0  0
  -24.2856  -16.6364  145.3494 C   0  0  0  0  0  0  0  0  0  0  0  0
  -25.0033  -15.6772  146.0737 C   0  0  0  0  0  0  0  0  0  0  0  0
  -25.1197  -14.2835  145.7299 C   0  0  0  0  0  0  0  0  0  0  0  0
  -24.2707  -13.8793  144.6500 C   0  0  0  0  0  0  0  0  0  0  0  0
  -24.8686  -18.3355  146.8179 C   0  0  0  0  0  0  0  0  0  0  0  0
  -23.4213  -14.7686  144.0334 C   0  0  0  0  0  0  0  0  0  0  0  0
  -23.3932  -16.0844  144.3175 C   0  0  0  0  0  0  0  0  0  0  0  0
  -25.6441  -17.4724  147.5882 C   0  0  0  0  0  0  0  0  0  0  0  0
  -25.7767  -16.1272  147.2748 C   0  0  0  0  0  0  0  0  0  0  0  0
  -26.5158  -13.8340  145.6417 C   0  0  0  0  0  0  0  0  0  0  0  0
  -27.5454  -14.3999  145.4331 C   0  0  0  0  0  0  0  0  0  0  0  0
  -28.8050  -13.8002  145.6623 C   0  0  0  0  0  0  0  0  0  0  0  0
  -28.8371  -12.4132  146.1347 C   0  0  0  0  0  0  0  0  0  0  0  0
  -27.6681  -11.7460  146.2915 C   0  0  0  0  0  0  0  0  0  0  0  0
  -26.4840  -12.4010  146.1987 C   0  0  0  0  0  0  0  0  0  0  0  0
  -30.3534  -11.6037  146.3156 Cl  0  0  0  0  0  0  0  0  0  0  0  0
  -22.4403  -14.1707  143.3044 O   0  0  0  0  0  0  0  0  0  0  0  0
  -25.0361  -11.5481  146.5304 Cl  0  0  0  0  0  0  0  0  0  0  0  0
  -23.5254  -18.7659  145.0355 F   0  0  0  0  0  0  0  0  0  0  0  0
  -27.6468  -15.6185  145.1162 F   0  0  0  0  0  0  0  0  0  0  0  0
  -21.7194  -13.2351  144.0671 C   0  0  0  0  0  0  0  0  0  0  0  0
  -22.1081  -11.7558  143.8272 C   0  0  0  0  0  0  0  0  0  0  0  0
  -20.8045  -12.8274  143.0034 C   0  0  0  0  0  0  0  0  0  0  0  0
  -21.7533  -11.2865  145.1497 O   0  0  0  0  0  0  0  0  0  0  0  0
  -23.1948  -11.5381  144.5792 C   0  0  0  0  0  0  0  0  0  0  0  0
  -23.6061  -12.2004  145.5236 C   0  0  0  0  0  0  0  0  0  0  0  0
  -22.8788  -12.7999  146.6116 O   0  0  0  0  0  0  0  0  0  0  0  0
  4 11  1  0
 14 17  1  0
  7 18  1  0
 16 19  1  0
  1 20  1  0
 12 21  1  0
 18 22  1  0
 22 23  1  0
 22 24  1  0
 23 25  1  0
 23 26  1  0
 26 27  1  0
 27 28  1  0
 11 12  2  0
 12 13  1  0
 13 14  2  0
 14 15  1  0
 15 16  2  0
 16 11  1  0
  1  2  2  0
  3 10  2  0
 10  9  1  0
  9  6  2  0
  6  1  1  0
  2  3  1  0
  3  4  1  0
  4  5  2  0
  5  7  1  0
  7  8  2  0
  8  2  1  0
M  END

$$$$
No_908-/dssg/home/sw_qyf/PocketFlow/Model-Generation-Results/5HT2A_7WC7_rec_A_10.pdb/2024-01-01-03-54-21/
     RDKit          3D

 19 21  0  0  0  0  0  0  0  0999 V2000
  -24.1553  -17.8465  145.7021 C   0  0  0  0  0  0  0  0  0  0  0  0
  -24.2855  -16.6364  145.3494 C   0  0  0  0  0  0  0  0  0  0  0  0
  -25.0033  -15.6772  146.0737 C   0  0  0  0  0  0  0  0  0  0  0  0
  -25.1197  -14.2834  145.7299 C   0  0  0  0  0  0  0  0  0  0  0  0
  -24.2707  -13.8793  144.6500 C   0  0  0  0  0  0  0  0  0  0  0  0
  -24.8686  -18.3355  146.8179 C   0  0  0  0  0  0  0  0  0  0  0  0
  -23.4212  -14.7686  144.0334 C   0  0  0  0  0  0  0  0  0  0  0  0
  -23.3932  -16.0844  144.3175 C   0  0  0  0  0  0  0  0  0  0  0  0
  -25.6449  -17.4591  147.5909 C   0  0  0  0  0  0  0  0  0  0  0  0
  -25.7561  -16.1038  147.2695 C   0  0  0  0  0  0  0  0  0  0  0  0
  -25.9186  -13.3230  146.4658 C   0  0  0  0  0  0  0  0  0  0  0  0
  -25.4955  -11.9446  146.4801 C   0  0  0  0  0  0  0  0  0  0  0  0
  -24.6306  -11.5035  145.4811 C   0  0  0  0  0  0  0  0  0  0  0  0
  -23.9006  -12.4421  144.6965 C   0  0  0  0  0  0  0  0  0  0  0  0
  -23.5309  -18.7959  145.0324 O   0  0  0  0  0  0  0  0  0  0  0  0
  -26.2697  -11.0450  147.0914 O   0  0  0  0  0  0  0  0  0  0  0  0
  -23.2975  -20.0208  145.8300 C   0  0  0  0  0  0  0  0  0  0  0  0
  -22.2488  -20.1642  146.4284 O   0  0  0  0  0  0  0  0  0  0  0  0
  -24.2421  -20.8419  145.7994 O   0  0  0  0  0  0  0  0  0  0  0  0
  1 15  1  0
 12 16  1  0
 15 17  1  0
 17 18  2  0
 17 19  1  0
  5 14  2  0
 14 13  1  0
 13 12  2  0
 12 11  1  0
 11  4  2  0
  1  2  2  0
  3 10  2  0
 10  9  1  0
  9  6  2  0
  6  1  1  0
  2  3  1  0
  3  4  1  0
  4  5  1  0
  5  7  1  0
  7  8  2  0
  8  2  1  0
M  END

$$$$
No_909-/dssg/home/sw_qyf/PocketFlow/Model-Generation-Results/5HT2A_7WC7_rec_A_10.pdb/2024-01-01-03-54-21/
     RDKit          3D

 35 38  0  0  0  0  0  0  0  0999 V2000
  -23.1746  -16.6014  144.8668 C   0  0  0  0  0  0  0  0  0  0  0  0
  -23.8963  -15.5346  144.7885 C   0  0  0  0  0  0  0  0  0  0  0  0
  -25.3063  -15.4625  144.8521 C   0  0  0  0  0  0  0  0  0  0  0  0
  -25.9937  -16.4907  145.5509 C   0  0  0  0  0  0  0  0  0  0  0  0
  -23.8534  -17.5340  145.6927 C   0  0  0  0  0  0  0  0  0  0  0  0
  -25.2269  -17.5546  145.9423 C   0  0  0  0  0  0  0  0  0  0  0  0
  -26.0255  -14.2095  144.4794 C   0  0  0  0  0  0  0  0  0  0  0  0
  -26.8114  -13.5485  145.3749 C   0  0  0  0  0  0  0  0  0  0  0  0
  -27.4149  -12.3249  145.0331 C   0  0  0  0  0  0  0  0  0  0  0  0
  -27.5479  -11.8586  143.7729 C   0  0  0  0  0  0  0  0  0  0  0  0
  -27.0274  -12.8025  142.7784 C   0  0  0  0  0  0  0  0  0  0  0  0
  -26.1965  -13.8884  143.1131 C   0  0  0  0  0  0  0  0  0  0  0  0
  -28.3681  -10.7613  143.4316 C   0  0  0  0  0  0  0  0  0  0  0  0
  -27.8675   -9.6520  143.0073 C   0  0  0  0  0  0  0  0  0  0  0  0
  -29.8005  -10.7949  143.5089 C   0  0  0  0  0  0  0  0  0  0  0  0
  -30.6062   -9.6456  143.2717 C   0  0  0  0  0  0  0  0  0  0  0  0
  -30.5579   -9.1082  142.1520 C   0  0  0  0  0  0  0  0  0  0  0  0
  -29.3643   -8.3648  141.6475 C   0  0  0  0  0  0  0  0  0  0  0  0
  -28.3693   -8.2546  142.0901 C   0  0  0  0  0  0  0  0  0  0  0  0
  -29.6114   -7.2685  140.6095 C   0  0  0  0  0  0  0  0  0  0  0  0
  -23.1529  -18.7409  145.9883 O   0  0  0  0  0  0  0  0  0  0  0  0
  -29.9714   -7.4475  139.6501 O   0  0  0  0  0  0  0  0  0  0  0  0
  -29.4229   -5.9649  141.1030 O   0  0  0  0  0  0  0  0  0  0  0  0
  -27.4166  -16.4210  145.8265 C   0  0  0  0  0  0  0  0  0  0  0  0
  -27.8006  -16.2654  147.3080 C   0  0  0  0  0  0  0  0  0  0  0  0
  -29.0843  -15.7551  147.6360 C   0  0  0  0  0  0  0  0  0  0  0  0
  -29.6773  -14.6573  146.9770 C   0  0  0  0  0  0  0  0  0  0  0  0
  -30.7130  -13.8891  147.7222 C   0  0  0  0  0  0  0  0  0  0  0  0
  -30.8061  -14.0335  149.1404 C   0  0  0  0  0  0  0  0  0  0  0  0
  -30.2339  -15.1845  149.7399 C   0  0  0  0  0  0  0  0  0  0  0  0
  -29.2842  -15.8919  149.1472 C   0  0  0  0  0  0  0  0  0  0  0  0
  -31.9137  -13.2756  149.7558 C   0  0  0  0  0  0  0  0  0  0  0  0
  -32.0165  -11.9096  149.4009 C   0  0  0  0  0  0  0  0  0  0  0  0
  -33.3824  -11.5257  149.4482 C   0  0  0  0  0  0  0  0  0  0  0  0
  -27.1735  -12.5291  141.3373 C   0  0  0  0  0  0  0  0  0  0  0  0
  3  7  1  0
 10 13  1  0
 13 14  2  0
 13 15  1  0
 15 16  1  0
 16 17  2  0
 17 18  1  0
 14 19  1  0
 18 19  1  0
 18 20  1  0
  5 21  1  0
 20 22  1  0
 20 23  2  0
  4 24  1  0
 24 25  1  0
 29 32  1  0
 32 33  1  0
 33 34  1  0
 11 35  1  0
 25 26  1  0
 26 27  2  0
 27 28  1  0
 28 29  2  0
 29 30  1  0
 30 31  2  0
 31 26  1  0
  1  2  2  0
  2  3  1  0
  3  4  2  0
  4  6  1  0
  6  5  2  0
  5  1  1  0
  7  8  2  0
  8  9  1  0
  9 10  2  0
 10 11  1  0
 11 12  2  0
 12  7  1  0
M  END

$$$$
No_910-/dssg/home/sw_qyf/PocketFlow/Model-Generation-Results/5HT2A_7WC7_rec_A_10.pdb/2024-01-01-03-54-21/
     RDKit          3D

 34 37  0  0  0  0  0  0  0  0999 V2000
  -24.1553  -17.8465  145.7021 C   0  0  0  0  0  0  0  0  0  0  0  0
  -23.9795  -18.4462  146.7426 C   0  0  0  0  0  0  0  0  0  0  0  0
  -25.1593  -16.8262  145.6925 C   0  0  0  0  0  0  0  0  0  0  0  0
  -26.3426  -16.9003  146.3448 C   0  0  0  0  0  0  0  0  0  0  0  0
  -24.9078  -18.3640  147.8289 C   0  0  0  0  0  0  0  0  0  0  0  0
  -26.0312  -17.5122  147.7122 C   0  0  0  0  0  0  0  0  0  0  0  0
  -27.2035  -15.7146  146.5281 C   0  0  0  0  0  0  0  0  0  0  0  0
  -26.8859  -14.5680  145.7843 C   0  0  0  0  0  0  0  0  0  0  0  0
  -25.7792  -14.5270  144.8893 C   0  0  0  0  0  0  0  0  0  0  0  0
  -24.9642  -15.5988  144.8074 C   0  0  0  0  0  0  0  0  0  0  0  0
  -23.8772  -15.4815  144.1163 F   0  0  0  0  0  0  0  0  0  0  0  0
  -28.4802  -15.7911  147.2293 C   0  0  0  0  0  0  0  0  0  0  0  0
  -29.4063  -14.7522  147.3315 C   0  0  0  0  0  0  0  0  0  0  0  0
  -29.0748  -13.4926  146.9219 C   0  0  0  0  0  0  0  0  0  0  0  0
  -27.8543  -13.3051  146.0548 C   0  0  0  0  0  0  0  0  0  0  0  0
  -29.8910  -12.2948  147.0683 C   0  0  0  0  0  0  0  0  0  0  0  0
  -29.9608  -11.3260  146.2700 O   0  0  0  0  0  0  0  0  0  0  0  0
  -30.3301  -12.0512  148.3822 O   0  0  0  0  0  0  0  0  0  0  0  0
  -25.5637  -13.3147  144.1094 C   0  0  0  0  0  0  0  0  0  0  0  0
  -25.1084  -12.3116  144.6150 O   0  0  0  0  0  0  0  0  0  0  0  0
  -25.8877  -13.4249  142.8899 O   0  0  0  0  0  0  0  0  0  0  0  0
  -23.8750  -12.2674  145.3012 C   0  0  0  0  0  0  0  0  0  0  0  0
  -23.8449  -12.5631  146.7436 C   0  0  0  0  0  0  0  0  0  0  0  0
  -22.6420  -12.8036  144.6326 C   0  0  0  0  0  0  0  0  0  0  0  0
  -31.6982  -12.1224  148.4609 C   0  0  0  0  0  0  0  0  0  0  0  0
  -32.1778  -12.1036  149.9164 C   0  0  0  0  0  0  0  0  0  0  0  0
  -33.1882  -12.0490  150.2039 C   0  0  0  0  0  0  0  0  0  0  0  0
  -33.6733  -11.8153  151.6537 C   0  0  0  0  0  0  0  0  0  0  0  0
  -32.5794  -11.8764  152.6493 C   0  0  0  0  0  0  0  0  0  0  0  0
  -31.2920  -12.1080  152.1640 C   0  0  0  0  0  0  0  0  0  0  0  0
  -31.0189  -12.1701  150.8244 C   0  0  0  0  0  0  0  0  0  0  0  0
  -32.8892  -11.6186  153.9418 O   0  0  0  0  0  0  0  0  0  0  0  0
  -34.3305  -11.8469  149.4118 O   0  0  0  0  0  0  0  0  0  0  0  0
  -32.2317  -10.6002  154.6172 C   0  0  0  0  0  0  0  0  0  0  0  0
  1  2  1  0
  1  3  1  0
  2  5  1  0
  4  6  1  0
  5  6  1  0
 10 11  1  0
 14 16  1  0
 16 17  2  0
 16 18  1  0
  9 19  1  0
 19 20  1  0
 19 21  2  0
 20 22  1  0
 22 23  1  0
 22 24  1  0
 18 25  1  0
 25 26  1  0
 29 32  1  0
 27 33  1  0
 32 34  1  0
  3  4  2  0
  4  7  1  0
  8  9  1  0
  9 10  2  0
 10  3  1  0
  7  8  2  0
  8 15  1  0
 15 14  2  0
 14 13  1  0
 13 12  2  0
 12  7  1  0
 26 27  2  0
 27 28  1  0
 28 29  2  0
 29 30  1  0
 30 31  2  0
 31 26  1  0
M  END

$$$$
No_911-/dssg/home/sw_qyf/PocketFlow/Model-Generation-Results/5HT2A_7WC7_rec_A_10.pdb/2024-01-01-03-54-21/
     RDKit          3D

 11 11  0  0  0  0  0  0  0  0999 V2000
  -23.1746  -16.6014  144.8668 C   0  0  0  0  0  0  0  0  0  0  0  0
  -23.7011  -17.0158  145.9774 C   0  0  0  0  0  0  0  0  0  0  0  0
  -24.7096  -16.6222  146.3577 C   0  0  0  0  0  0  0  0  0  0  0  0
  -24.9847  -15.5183  146.7687 C   0  0  0  0  0  0  0  0  0  0  0  0
  -23.5803  -15.1678  144.5733 C   0  0  0  0  0  0  0  0  0  0  0  0
  -24.5551  -14.5817  145.5074 C   0  0  0  0  0  0  0  0  0  0  0  0
  -24.8955  -13.1208  145.4658 C   0  0  0  0  0  0  0  0  0  0  0  0
  -23.9454  -12.2473  145.7979 C   0  0  0  0  0  0  0  0  0  0  0  0
  -26.2046  -12.8418  145.1349 C   0  0  0  0  0  0  0  0  0  0  0  0
  -26.8880  -13.3371  144.2950 C   0  0  0  0  0  0  0  0  0  0  0  0
  -24.4650  -10.9286  145.9596 N   0  0  0  0  0  0  0  0  0  0  0  0
  6  7  1  0
  7  8  1  0
  7  9  1  0
  9 10  2  0
  8 11  1  0
  1  2  2  0
  2  3  1  0
  3  4  2  0
  4  6  1  0
  6  5  2  0
  5  1  1  0
M  END

$$$$
No_912-/dssg/home/sw_qyf/PocketFlow/Model-Generation-Results/5HT2A_7WC7_rec_A_10.pdb/2024-01-01-03-54-21/
     RDKit          3D

 35 38  0  0  0  0  0  0  0  0999 V2000
  -24.1553  -17.8465  145.7021 C   0  0  0  0  0  0  0  0  0  0  0  0
  -23.9795  -18.4462  146.7426 C   0  0  0  0  0  0  0  0  0  0  0  0
  -25.1593  -16.8262  145.6925 C   0  0  0  0  0  0  0  0  0  0  0  0
  -26.3426  -16.9003  146.3448 C   0  0  0  0  0  0  0  0  0  0  0  0
  -27.5316  -16.4146  145.9922 C   0  0  0  0  0  0  0  0  0  0  0  0
  -23.9685  -17.8980  147.8136 C   0  0  0  0  0  0  0  0  0  0  0  0
  -25.1279  -17.2594  148.5567 C   0  0  0  0  0  0  0  0  0  0  0  0
  -26.0507  -16.6011  147.7547 C   0  0  0  0  0  0  0  0  0  0  0  0
  -24.9306  -15.5577  144.9303 C   0  0  0  0  0  0  0  0  0  0  0  0
  -25.9508  -14.6616  144.5979 C   0  0  0  0  0  0  0  0  0  0  0  0
  -27.3086  -15.1121  145.1900 C   0  0  0  0  0  0  0  0  0  0  0  0
  -23.5977  -15.2313  144.3919 C   0  0  0  0  0  0  0  0  0  0  0  0
  -22.7889  -16.0232  144.3327 O   0  0  0  0  0  0  0  0  0  0  0  0
  -23.4016  -13.8977  144.1925 N   0  0  0  0  0  0  0  0  0  0  0  0
  -25.1981  -17.2631  150.0222 C   0  0  0  0  0  0  0  0  0  0  0  0
  -24.1415  -16.8839  150.7128 N   0  0  0  0  0  0  0  0  0  0  0  0
  -26.2740  -17.8261  150.5845 N   0  0  0  0  0  0  0  0  0  0  0  0
  -22.0924  -13.3719  143.8725 C   0  0  0  0  0  0  0  0  0  0  0  0
  -28.7791  -16.8434  146.3529 C   0  0  0  0  0  0  0  0  0  0  0  0
  -26.0927  -18.2612  151.8965 C   0  0  0  0  0  0  0  0  0  0  0  0
  -23.6159  -17.5331  151.4048 C   0  0  0  0  0  0  0  0  0  0  0  0
  -27.0730  -18.8238  152.5358 N   0  0  0  0  0  0  0  0  0  0  0  0
  -24.9254  -18.1921  152.5253 N   0  0  0  0  0  0  0  0  0  0  0  0
  -28.0847  -18.6785  153.0035 C   0  0  0  0  0  0  0  0  0  0  0  0
  -29.0812  -18.0927  152.3209 C   0  0  0  0  0  0  0  0  0  0  0  0
  -30.2483  -17.4760  152.9694 C   0  0  0  0  0  0  0  0  0  0  0  0
  -31.1480  -16.7042  152.2651 C   0  0  0  0  0  0  0  0  0  0  0  0
  -30.8214  -16.3373  150.9164 C   0  0  0  0  0  0  0  0  0  0  0  0
  -29.7068  -16.8560  150.3006 C   0  0  0  0  0  0  0  0  0  0  0  0
  -28.9361  -17.6404  150.9671 C   0  0  0  0  0  0  0  0  0  0  0  0
  -31.7763  -15.3492  150.3158 C   0  0  0  0  0  0  0  0  0  0  0  0
  -31.2033  -14.2979  149.5192 C   0  0  0  0  0  0  0  0  0  0  0  0
  -30.2186  -14.3816  148.5729 C   0  0  0  0  0  0  0  0  0  0  0  0
  -29.7533  -13.2930  147.8484 C   0  0  0  0  0  0  0  0  0  0  0  0
  -28.6188  -13.2414  146.9951 C   0  0  0  0  0  0  0  0  0  0  0  0
  1  2  1  0
  1  3  1  0
  2  6  2  0
  6  7  1  0
  4  8  1  0
  7  8  2  0
  9 12  1  0
 12 13  2  0
 12 14  1  0
  7 15  1  0
 14 18  1  0
  5 19  1  0
 20 22  1  0
 22 24  1  0
 24 25  1  0
 28 31  1  0
 31 32  1  0
 32 33  2  3
 33 34  1  0
 34 35  1  0
 15 16  2  0
 16 21  1  0
 21 23  2  0
 23 20  1  0
 20 17  2  0
 17 15  1  0
 25 26  2  0
 26 27  1  0
 27 28  2  0
 28 29  1  0
 29 30  2  0
 30 25  1  0
  3  4  2  0
  4  5  1  0
  5 11  2  0
 11 10  1  0
 10  9  2  0
  9  3  1  0
M  END

$$$$
No_913-/dssg/home/sw_qyf/PocketFlow/Model-Generation-Results/5HT2A_7WC7_rec_A_10.pdb/2024-01-01-03-54-21/
     RDKit          3D

 23 25  0  0  0  0  0  0  0  0999 V2000
  -24.1553  -17.8465  145.7021 C   0  0  0  0  0  0  0  0  0  0  0  0
  -24.2856  -16.6364  145.3494 C   0  0  0  0  0  0  0  0  0  0  0  0
  -24.7211  -15.5955  146.2115 C   0  0  0  0  0  0  0  0  0  0  0  0
  -25.1322  -16.0374  147.5372 C   0  0  0  0  0  0  0  0  0  0  0  0
  -24.5163  -18.2968  146.9928 C   0  0  0  0  0  0  0  0  0  0  0  0
  -24.9534  -17.3074  147.9886 C   0  0  0  0  0  0  0  0  0  0  0  0
  -24.8651  -14.1840  145.8143 C   0  0  0  0  0  0  0  0  0  0  0  0
  -25.4675  -13.2486  146.5302 C   0  0  0  0  0  0  0  0  0  0  0  0
  -25.5114  -11.9044  146.1977 C   0  0  0  0  0  0  0  0  0  0  0  0
  -24.9290  -11.4393  145.0318 C   0  0  0  0  0  0  0  0  0  0  0  0
  -24.2279  -13.8017  144.5615 C   0  0  0  0  0  0  0  0  0  0  0  0
  -23.5339  -14.5899  143.8154 N   0  0  0  0  0  0  0  0  0  0  0  0
  -24.2112  -12.3628  144.2663 C   0  0  0  0  0  0  0  0  0  0  0  0
  -23.5532  -15.9714  144.2113 C   0  0  0  0  0  0  0  0  0  0  0  0
  -25.3230  -17.7240  149.3861 C   0  0  0  0  0  0  0  0  0  0  0  0
  -24.3660  -17.1893  150.3933 C   0  0  0  0  0  0  0  0  0  0  0  0
  -23.2487  -17.7462  150.4184 F   0  0  0  0  0  0  0  0  0  0  0  0
  -24.2554  -15.8590  150.4126 F   0  0  0  0  0  0  0  0  0  0  0  0
  -24.9556  -17.5148  151.6925 F   0  0  0  0  0  0  0  0  0  0  0  0
  -23.7068  -18.8248  144.9335 O   0  0  0  0  0  0  0  0  0  0  0  0
  -25.0224  -10.1667  144.6641 O   0  0  0  0  0  0  0  0  0  0  0  0
  -26.2557  -11.0039  146.9647 O   0  0  0  0  0  0  0  0  0  0  0  0
  -23.7099  -20.0747  145.5058 C   0  0  0  0  0  0  0  0  0  0  0  0
  6 15  1  0
 15 16  1  0
 16 17  1  0
 16 18  1  0
 16 19  1  0
  1 20  1  0
 10 21  1  0
  9 22  1  0
 20 23  1  0
  3  7  1  0
 11 12  1  0
 12 14  2  0
 14  2  1  0
  1  2  2  0
  2  3  1  0
  3  4  2  0
  4  6  1  0
  6  5  2  0
  5  1  1  0
  7  8  2  0
  8  9  1  0
  9 10  2  0
 10 13  1  0
 13 11  2  0
 11  7  1  0
M  END

$$$$
No_914-/dssg/home/sw_qyf/PocketFlow/Model-Generation-Results/5HT2A_7WC7_rec_A_10.pdb/2024-01-01-03-54-21/
     RDKit          3D

 31 34  0  0  0  0  0  0  0  0999 V2000
  -23.1746  -16.6014  144.8668 C   0  0  0  0  0  0  0  0  0  0  0  0
  -23.8963  -15.5346  144.7885 C   0  0  0  0  0  0  0  0  0  0  0  0
  -25.0303  -15.2549  144.5358 C   0  0  0  0  0  0  0  0  0  0  0  0
  -25.6045  -13.9524  144.2294 C   0  0  0  0  0  0  0  0  0  0  0  0
  -24.8624  -12.8904  144.6738 C   0  0  0  0  0  0  0  0  0  0  0  0
  -23.5278  -13.1645  145.1476 C   0  0  0  0  0  0  0  0  0  0  0  0
  -23.0570  -14.3847  145.1774 N   0  0  0  0  0  0  0  0  0  0  0  0
  -22.7523  -12.1439  145.5019 O   0  0  0  0  0  0  0  0  0  0  0  0
  -23.6922  -17.7128  145.8314 C   0  0  0  0  0  0  0  0  0  0  0  0
  -23.6652  -18.9506  145.7522 C   0  0  0  0  0  0  0  0  0  0  0  0
  -24.4133  -19.6861  146.8211 C   0  0  0  0  0  0  0  0  0  0  0  0
  -25.0338  -18.8567  147.7597 C   0  0  0  0  0  0  0  0  0  0  0  0
  -24.5574  -17.2558  147.0594 C   0  0  0  0  0  0  0  0  0  0  0  0
  -26.9980  -13.7212  143.8321 C   0  0  0  0  0  0  0  0  0  0  0  0
  -27.0266  -13.1802  142.4697 C   0  0  0  0  0  0  0  0  0  0  0  0
  -27.5855  -11.8756  142.2361 C   0  0  0  0  0  0  0  0  0  0  0  0
  -28.2527  -11.1283  143.2136 C   0  0  0  0  0  0  0  0  0  0  0  0
  -28.9181   -9.9044  142.8801 C   0  0  0  0  0  0  0  0  0  0  0  0
  -29.5969   -9.0722  143.8132 C   0  0  0  0  0  0  0  0  0  0  0  0
  -30.3000   -7.9894  143.3616 C   0  0  0  0  0  0  0  0  0  0  0  0
  -30.2587   -7.5558  142.0361 C   0  0  0  0  0  0  0  0  0  0  0  0
  -29.5368   -8.3333  141.1236 C   0  0  0  0  0  0  0  0  0  0  0  0
  -28.8850   -9.5088  141.5220 C   0  0  0  0  0  0  0  0  0  0  0  0
  -29.4553   -7.7669  139.7619 C   0  0  0  0  0  0  0  0  0  0  0  0
  -30.2360   -7.1332  139.3873 F   0  0  0  0  0  0  0  0  0  0  0  0
  -28.2131   -7.0229  139.6353 F   0  0  0  0  0  0  0  0  0  0  0  0
  -29.1068   -8.8818  138.8898 F   0  0  0  0  0  0  0  0  0  0  0  0
  -26.6243  -13.9237  141.3625 C   0  0  0  0  0  0  0  0  0  0  0  0
  -26.6597  -13.2271  140.1307 C   0  0  0  0  0  0  0  0  0  0  0  0
  -27.1620  -12.0159  139.8889 C   0  0  0  0  0  0  0  0  0  0  0  0
  -27.6614  -11.3593  140.9452 C   0  0  0  0  0  0  0  0  0  0  0  0
  1  2  1  0
  3  4  1  0
  5  6  1  0
  2  7  1  0
  6  7  1  0
  6  8  2  0
  1  9  1  0
  9 10  2  0
 10 11  1  0
 11 12  2  0
  9 13  1  0
 12 13  1  0
  4 14  1  0
 14 15  1  0
 17 18  1  0
 22 24  1  0
 24 25  1  0
 24 26  1  0
 24 27  1  0
 17 16  1  0
  5  4  1  0
  3  2  1  0
 15 16  2  0
 16 31  1  0
 31 30  2  0
 30 29  1  0
 29 28  2  0
 28 15  1  0
 18 19  2  0
 19 20  1  0
 20 21  2  0
 21 22  1  0
 22 23  2  0
 23 18  1  0
M  END

$$$$
No_915-/dssg/home/sw_qyf/PocketFlow/Model-Generation-Results/5HT2A_7WC7_rec_A_10.pdb/2024-01-01-03-54-21/
     RDKit          3D

 35 38  0  0  0  0  0  0  0  0999 V2000
  -23.1746  -16.6014  144.8668 C   0  0  0  0  0  0  0  0  0  0  0  0
  -24.0189  -16.0564  145.8445 C   0  0  0  0  0  0  0  0  0  0  0  0
  -24.4145  -16.8299  146.9062 C   0  0  0  0  0  0  0  0  0  0  0  0
  -23.9612  -18.1384  147.0126 C   0  0  0  0  0  0  0  0  0  0  0  0
  -23.1429  -18.6221  146.0418 C   0  0  0  0  0  0  0  0  0  0  0  0
  -22.8095  -17.8231  145.0610 N   0  0  0  0  0  0  0  0  0  0  0  0
  -24.6333  -14.6994  145.8683 C   0  0  0  0  0  0  0  0  0  0  0  0
  -25.9346  -14.3769  145.8366 C   0  0  0  0  0  0  0  0  0  0  0  0
  -26.4007  -13.5473  145.4176 C   0  0  0  0  0  0  0  0  0  0  0  0
  -25.6802  -12.2254  145.1772 C   0  0  0  0  0  0  0  0  0  0  0  0
  -24.2378  -12.4077  145.2910 C   0  0  0  0  0  0  0  0  0  0  0  0
  -23.7357  -13.6178  145.6004 C   0  0  0  0  0  0  0  0  0  0  0  0
  -26.2445  -10.8949  144.9269 C   0  0  0  0  0  0  0  0  0  0  0  0
  -27.5946  -10.7160  144.5828 C   0  0  0  0  0  0  0  0  0  0  0  0
  -28.4925  -11.5889  145.0217 C   0  0  0  0  0  0  0  0  0  0  0  0
  -29.9141  -11.0985  145.1352 C   0  0  0  0  0  0  0  0  0  0  0  0
  -30.6160  -11.5462  146.5396 Cl  0  0  0  0  0  0  0  0  0  0  0  0
  -30.3693  -10.1533  144.4769 O   0  0  0  0  0  0  0  0  0  0  0  0
  -27.8636   -9.6679  143.6789 C   0  0  0  0  0  0  0  0  0  0  0  0
  -29.4305   -9.3341  143.7588 C   0  0  0  0  0  0  0  0  0  0  0  0
  -29.9532   -8.3053  142.8972 C   0  0  0  0  0  0  0  0  0  0  0  0
  -29.2971   -7.2250  142.4412 C   0  0  0  0  0  0  0  0  0  0  0  0
  -31.3825   -8.3432  142.5544 C   0  0  0  0  0  0  0  0  0  0  0  0
  -29.1705   -6.7426  141.0557 C   0  0  0  0  0  0  0  0  0  0  0  0
  -29.1227   -7.6399  140.1238 N   0  0  0  0  0  0  0  0  0  0  0  0
  -29.4796   -8.7214  139.9802 C   0  0  0  0  0  0  0  0  0  0  0  0
  -28.8299   -9.4314  138.9875 N   0  0  0  0  0  0  0  0  0  0  0  0
  -28.2874   -8.3831  138.2762 C   0  0  0  0  0  0  0  0  0  0  0  0
  -28.4423   -7.3091  139.0243 N   0  0  0  0  0  0  0  0  0  0  0  0
  -32.0181   -9.2609  142.2034 O   0  0  0  0  0  0  0  0  0  0  0  0
  -32.0327   -7.4294  143.3307 O   0  0  0  0  0  0  0  0  0  0  0  0
  -25.4092  -16.1727  148.2240 Cl  0  0  0  0  0  0  0  0  0  0  0  0
  -22.8902  -15.9002  143.8941 O   0  0  0  0  0  0  0  0  0  0  0  0
  -23.4313  -11.3701  145.0669 O   0  0  0  0  0  0  0  0  0  0  0  0
  -29.4195   -5.4663  140.8972 O   0  0  0  0  0  0  0  0  0  0  0  0
  1  2  1  0
  3  4  1  0
  1  6  1  0
  5  6  1  0
  2  7  1  0
 10 13  1  0
 13 14  1  0
 14 15  1  0
 15 16  1  0
 16 17  1  0
 16 18  1  0
 14 19  1  0
 18 20  1  0
 19 20  2  0
 20 21  1  0
 21 22  2  3
 21 23  1  0
 22 24  1  0
 24 25  1  0
 25 26  1  0
 26 27  2  0
 27 28  1  0
 25 29  1  0
 28 29  2  0
 23 30  1  0
 23 31  2  0
  3 32  1  0
  1 33  2  0
 11 34  1  0
 24 35  2  0
  2  3  1  0
  4  5  1  0
  7  8  2  0
  8  9  1  0
  9 10  2  0
 10 11  1  0
 11 12  2  0
 12  7  1  0
M  END

$$$$
No_916-/dssg/home/sw_qyf/PocketFlow/Model-Generation-Results/5HT2A_7WC7_rec_A_10.pdb/2024-01-01-03-54-21/
     RDKit          3D

 35 40  0  0  0  0  0  0  0  0999 V2000
  -24.1553  -17.8465  145.7021 C   0  0  0  0  0  0  0  0  0  0  0  0
  -23.9795  -18.4462  146.7426 C   0  0  0  0  0  0  0  0  0  0  0  0
  -25.1196  -16.8106  145.6409 C   0  0  0  0  0  0  0  0  0  0  0  0
  -25.2440  -15.8776  144.5240 C   0  0  0  0  0  0  0  0  0  0  0  0
  -25.1544  -14.5048  144.8371 C   0  0  0  0  0  0  0  0  0  0  0  0
  -26.0606  -13.9589  145.6947 C   0  0  0  0  0  0  0  0  0  0  0  0
  -26.1160  -12.5599  145.9278 C   0  0  0  0  0  0  0  0  0  0  0  0
  -25.2190  -11.7504  145.2825 C   0  0  0  0  0  0  0  0  0  0  0  0
  -24.5890  -18.0877  148.0026 C   0  0  0  0  0  0  0  0  0  0  0  0
  -25.4382  -16.9722  148.0482 C   0  0  0  0  0  0  0  0  0  0  0  0
  -25.6272  -16.2360  146.8976 C   0  0  0  0  0  0  0  0  0  0  0  0
  -24.1661  -12.2801  144.5753 C   0  0  0  0  0  0  0  0  0  0  0  0
  -24.1975  -13.6344  144.2737 C   0  0  0  0  0  0  0  0  0  0  0  0
  -26.1750  -14.8451  147.0166 C   0  0  0  0  0  0  0  0  0  0  0  0
  -27.5855  -11.8655  145.9632 C   0  0  0  0  0  0  0  0  0  0  0  0
  -28.1202  -11.2541  144.9328 C   0  0  0  0  0  0  0  0  0  0  0  0
  -27.5710  -10.9270  143.6797 C   0  0  0  0  0  0  0  0  0  0  0  0
  -28.3025  -10.2642  142.7133 C   0  0  0  0  0  0  0  0  0  0  0  0
  -27.9228  -10.2109  141.3956 C   0  0  0  0  0  0  0  0  0  0  0  0
  -27.1553  -11.2747  140.8365 C   0  0  0  0  0  0  0  0  0  0  0  0
  -26.9095  -11.2622  139.4448 C   0  0  0  0  0  0  0  0  0  0  0  0
  -26.3973  -12.4943  138.9628 C   0  0  0  0  0  0  0  0  0  0  0  0
  -29.3687  -10.5806  145.2678 C   0  0  0  0  0  0  0  0  0  0  0  0
  -30.1360   -9.8468  144.3233 C   0  0  0  0  0  0  0  0  0  0  0  0
  -29.6143   -9.7639  143.0423 C   0  0  0  0  0  0  0  0  0  0  0  0
  -30.4513   -9.0986  142.0654 C   0  0  0  0  0  0  0  0  0  0  0  0
  -29.9207   -8.0373  141.3056 C   0  0  0  0  0  0  0  0  0  0  0  0
  -29.3658   -8.2094  140.0103 C   0  0  0  0  0  0  0  0  0  0  0  0
  -28.1231   -9.1878  140.1858 C   0  0  0  0  0  0  0  0  0  0  0  0
  -27.9125  -10.0387  138.9938 N   0  0  0  0  0  0  0  0  0  0  0  0
  -30.1531   -8.5422  138.8846 C   0  0  0  0  0  0  0  0  0  0  0  0
  -25.2316  -12.4928  138.8792 O   0  0  0  0  0  0  0  0  0  0  0  0
  -27.8733  -11.8526  147.2546 O   0  0  0  0  0  0  0  0  0  0  0  0
  -26.0283  -16.6586  149.1967 F   0  0  0  0  0  0  0  0  0  0  0  0
  -27.2852  -13.0853  138.2474 O   0  0  0  0  0  0  0  0  0  0  0  0
  3  4  1  0
  4  5  1  0
  6 14  1  0
 11 14  1  0
  7 15  1  0
 18 19  1  0
 19 20  2  0
 20 21  1  0
 21 22  1  0
 25 26  1  0
 26 27  1  0
 27 28  1  0
 19 29  1  0
 28 29  2  0
 21 30  1  0
 29 30  1  0
 28 31  1  0
 22 32  2  0
 15 33  1  0
 10 34  1  0
 22 35  1  0
 15 16  1  0
  5  6  2  0
  6  7  1  0
  7  8  2  0
  8 12  1  0
 12 13  2  0
 13  5  1  0
 16 17  2  0
 17 18  1  0
 18 25  2  0
 25 24  1  0
 24 23  2  0
 23 16  1  0
  1  2  2  0
  2  9  1  0
  9 10  2  0
 10 11  1  0
 11  3  2  0
  3  1  1  0
M  END

$$$$
No_917-/dssg/home/sw_qyf/PocketFlow/Model-Generation-Results/5HT2A_7WC7_rec_A_10.pdb/2024-01-01-03-54-21/
     RDKit          3D

 17 19  0  0  0  0  0  0  0  0999 V2000
  -24.1553  -17.8465  145.7021 C   0  0  0  0  0  0  0  0  0  0  0  0
  -24.2856  -16.6364  145.3494 C   0  0  0  0  0  0  0  0  0  0  0  0
  -25.0033  -15.6772  146.0737 C   0  0  0  0  0  0  0  0  0  0  0  0
  -25.6964  -16.1810  147.2049 C   0  0  0  0  0  0  0  0  0  0  0  0
  -24.8143  -18.3454  146.8324 C   0  0  0  0  0  0  0  0  0  0  0  0
  -25.5291  -17.4614  147.6374 C   0  0  0  0  0  0  0  0  0  0  0  0
  -23.5978  -16.0422  144.1195 C   0  0  0  0  0  0  0  0  0  0  0  0
  -22.9888  -15.0078  144.3022 O   0  0  0  0  0  0  0  0  0  0  0  0
  -25.1556  -14.2383  145.7518 C   0  0  0  0  0  0  0  0  0  0  0  0
  -24.3131  -13.7115  145.2411 C   0  0  0  0  0  0  0  0  0  0  0  0
  -22.6187  -14.0421  143.9559 C   0  0  0  0  0  0  0  0  0  0  0  0
  -23.2751  -13.4157  144.6559 C   0  0  0  0  0  0  0  0  0  0  0  0
  -22.9207  -11.9880  145.0100 C   0  0  0  0  0  0  0  0  0  0  0  0
  -24.9742  -12.1416  144.8975 C   0  0  0  0  0  0  0  0  0  0  0  0
  -24.0342  -11.2091  145.2035 C   0  0  0  0  0  0  0  0  0  0  0  0
  -26.3553  -11.9095  144.6274 C   0  0  0  0  0  0  0  0  0  0  0  0
  -27.0110  -12.0106  143.4697 C   0  0  0  0  0  0  0  0  0  0  0  0
  2  7  1  0
  7  8  1  0
  3  9  1  0
  9 10  2  3
  8 11  1  0
 10 12  1  0
 11 12  1  0
 12 13  1  0
 10 14  1  0
 13 15  1  0
 14 15  1  0
 14 16  1  0
 16 17  1  0
  1  2  2  0
  2  3  1  0
  3  4  2  0
  4  6  1  0
  6  5  2  0
  5  1  1  0
M  END

$$$$
No_918-/dssg/home/sw_qyf/PocketFlow/Model-Generation-Results/5HT2A_7WC7_rec_A_10.pdb/2024-01-01-03-54-21/
     RDKit          3D

 35 37  0  0  0  0  0  0  0  0999 V2000
  -23.8042  -18.1535  145.4053 O   0  0  0  0  0  0  0  0  0  0  0  0
  -23.9974  -18.3151  146.4113 C   0  0  0  0  0  0  0  0  0  0  0  0
  -25.3639  -18.3226  146.8995 C   0  0  0  0  0  0  0  0  0  0  0  0
  -25.9330  -16.9107  146.7659 C   0  0  0  0  0  0  0  0  0  0  0  0
  -25.2069  -15.9852  147.5237 C   0  0  0  0  0  0  0  0  0  0  0  0
  -25.2376  -14.6158  147.0571 C   0  0  0  0  0  0  0  0  0  0  0  0
  -26.3447  -14.0843  146.3500 C   0  0  0  0  0  0  0  0  0  0  0  0
  -27.3134  -15.1018  145.9820 C   0  0  0  0  0  0  0  0  0  0  0  0
  -26.9850  -16.5104  146.0186 C   0  0  0  0  0  0  0  0  0  0  0  0
  -26.6397  -12.7445  146.1608 C   0  0  0  0  0  0  0  0  0  0  0  0
  -25.6164  -11.8763  145.6084 C   0  0  0  0  0  0  0  0  0  0  0  0
  -24.2886  -12.3022  145.5551 C   0  0  0  0  0  0  0  0  0  0  0  0
  -23.7549  -12.5350  144.3932 C   0  0  0  0  0  0  0  0  0  0  0  0
  -22.3027  -13.0221  144.4882 C   0  0  0  0  0  0  0  0  0  0  0  0
  -27.9494  -12.2152  146.3958 C   0  0  0  0  0  0  0  0  0  0  0  0
  -28.6251  -11.4423  145.4238 C   0  0  0  0  0  0  0  0  0  0  0  0
  -29.9472  -10.9311  145.8456 C   0  0  0  0  0  0  0  0  0  0  0  0
  -28.1946  -11.1284  144.1783 C   0  0  0  0  0  0  0  0  0  0  0  0
  -28.6890  -10.1841  143.5062 C   0  0  0  0  0  0  0  0  0  0  0  0
  -28.0379   -9.5830  142.4265 C   0  0  0  0  0  0  0  0  0  0  0  0
  -30.4964   -9.9242  145.1203 N   0  0  0  0  0  0  0  0  0  0  0  0
  -29.9702   -9.4757  143.9845 C   0  0  0  0  0  0  0  0  0  0  0  0
  -30.6557   -8.4867  143.4305 N   0  0  0  0  0  0  0  0  0  0  0  0
  -30.8287   -8.1570  142.4180 C   0  0  0  0  0  0  0  0  0  0  0  0
  -31.8109   -7.3246  141.9009 N   0  0  0  0  0  0  0  0  0  0  0  0
  -30.0481   -8.7455  141.1877 C   0  0  0  0  0  0  0  0  0  0  0  0
  -28.7624   -9.2109  141.3246 C   0  0  0  0  0  0  0  0  0  0  0  0
  -27.9779   -9.0604  140.0892 C   0  0  0  0  0  0  0  0  0  0  0  0
  -27.2533  -10.2050  139.6861 C   0  0  0  0  0  0  0  0  0  0  0  0
  -27.8084  -11.5324  139.2894 C   0  0  0  0  0  0  0  0  0  0  0  0
  -28.2902  -12.4114  140.1609 C   0  0  0  0  0  0  0  0  0  0  0  0
  -30.4798  -11.2895  146.9565 O   0  0  0  0  0  0  0  0  0  0  0  0
  -27.8875  -11.8764  137.9106 C   0  0  0  0  0  0  0  0  0  0  0  0
  -21.9431  -13.3400  143.1793 C   0  0  0  0  0  0  0  0  0  0  0  0
  -23.0116  -18.3714  147.3782 O   0  0  0  0  0  0  0  0  0  0  0  0
  1  2  2  0
  2  3  1  0
  3  4  1  0
  7 10  1  0
 10 11  1  0
 11 12  2  3
 12 13  1  0
 13 14  2  3
 10 15  1  0
 15 16  2  3
 16 17  1  0
 16 18  1  0
 18 19  1  0
 19 20  2  0
 17 21  1  0
 19 22  1  0
 21 22  1  0
 22 23  1  0
 23 24  1  0
 24 25  1  0
 24 26  1  0
 20 27  1  0
 26 27  1  0
 27 28  1  0
 28 29  2  3
 29 30  1  0
 30 31  1  0
 17 32  2  0
 30 33  1  0
 14 34  1  0
  2 35  1  0
  4  5  2  0
  5  6  1  0
  6  7  2  0
  7  8  1  0
  8  9  2  0
  9  4  1  0
M  END

$$$$
No_919-/dssg/home/sw_qyf/PocketFlow/Model-Generation-Results/5HT2A_7WC7_rec_A_10.pdb/2024-01-01-03-54-21/
     RDKit          3D

 12 12  0  0  0  0  0  0  0  0999 V2000
  -23.8042  -18.1535  145.4053 O   0  0  0  0  0  0  0  0  0  0  0  0
  -23.9974  -18.3151  146.4113 C   0  0  0  0  0  0  0  0  0  0  0  0
  -24.7032  -17.3763  147.2783 C   0  0  0  0  0  0  0  0  0  0  0  0
  -25.3337  -16.5713  146.8922 C   0  0  0  0  0  0  0  0  0  0  0  0
  -26.6590  -16.1901  147.1481 C   0  0  0  0  0  0  0  0  0  0  0  0
  -27.3886  -15.1238  146.5710 C   0  0  0  0  0  0  0  0  0  0  0  0
  -26.6971  -14.3315  145.6494 C   0  0  0  0  0  0  0  0  0  0  0  0
  -25.4116  -14.6252  145.2401 C   0  0  0  0  0  0  0  0  0  0  0  0
  -24.7247  -15.7460  145.8367 C   0  0  0  0  0  0  0  0  0  0  0  0
  -27.2787  -13.1693  144.8928 C   0  0  0  0  0  0  0  0  0  0  0  0
  -26.7633  -11.9821  144.9948 C   0  0  0  0  0  0  0  0  0  0  0  0
  -25.6559  -11.7100  145.8320 C   0  0  0  0  0  0  0  0  0  0  0  0
  1  2  2  0
  2  3  1  0
  3  4  1  0
  7 10  1  0
 10 11  3  0
 11 12  1  0
  4  5  2  0
  5  6  1  0
  6  7  2  0
  7  8  1  0
  8  9  2  0
  9  4  1  0
M  END

$$$$
No_920-/dssg/home/sw_qyf/PocketFlow/Model-Generation-Results/5HT2A_7WC7_rec_A_10.pdb/2024-01-01-03-54-21/
     RDKit          3D

 35 37  0  0  0  0  0  0  0  0999 V2000
  -24.1553  -17.8465  145.7021 C   0  0  0  0  0  0  0  0  0  0  0  0
  -23.9795  -18.4462  146.7426 C   0  0  0  0  0  0  0  0  0  0  0  0
  -25.1196  -16.8106  145.6409 C   0  0  0  0  0  0  0  0  0  0  0  0
  -25.9236  -16.5070  146.7422 C   0  0  0  0  0  0  0  0  0  0  0  0
  -25.6627  -17.1841  147.9274 C   0  0  0  0  0  0  0  0  0  0  0  0
  -24.6813  -18.1540  148.0079 C   0  0  0  0  0  0  0  0  0  0  0  0
  -26.9716  -15.4553  146.6645 C   0  0  0  0  0  0  0  0  0  0  0  0
  -28.1968  -15.6101  147.2311 C   0  0  0  0  0  0  0  0  0  0  0  0
  -29.1733  -14.6256  147.1740 C   0  0  0  0  0  0  0  0  0  0  0  0
  -28.9088  -13.3960  146.5951 C   0  0  0  0  0  0  0  0  0  0  0  0
  -27.6037  -13.1378  146.0240 C   0  0  0  0  0  0  0  0  0  0  0  0
  -26.6539  -14.1411  146.0868 C   0  0  0  0  0  0  0  0  0  0  0  0
  -29.9147  -12.2608  146.6131 C   0  0  0  0  0  0  0  0  0  0  0  0
  -29.7693  -11.2364  145.7500 N   0  0  0  0  0  0  0  0  0  0  0  0
  -28.6801  -11.0139  144.9980 C   0  0  0  0  0  0  0  0  0  0  0  0
  -28.5686   -9.8935  144.1528 C   0  0  0  0  0  0  0  0  0  0  0  0
  -27.5268  -11.9664  145.1171 C   0  0  0  0  0  0  0  0  0  0  0  0
  -29.1535   -9.9549  142.8262 C   0  0  0  0  0  0  0  0  0  0  0  0
  -28.9909  -10.8246  141.9979 C   0  0  0  0  0  0  0  0  0  0  0  0
  -29.1481  -10.6145  140.5238 C   0  0  0  0  0  0  0  0  0  0  0  0
  -28.1176   -9.9043  140.0633 C   0  0  0  0  0  0  0  0  0  0  0  0
  -27.2258  -10.2636  139.0549 C   0  0  0  0  0  0  0  0  0  0  0  0
  -30.1325   -8.8270  142.5815 C   0  0  0  0  0  0  0  0  0  0  0  0
  -31.4490   -8.9397  142.8473 C   0  0  0  0  0  0  0  0  0  0  0  0
  -29.6168   -7.5727  142.0530 C   0  0  0  0  0  0  0  0  0  0  0  0
  -29.8105   -6.3710  142.9631 C   0  0  0  0  0  0  0  0  0  0  0  0
  -29.1164   -5.1585  142.5017 C   0  0  0  0  0  0  0  0  0  0  0  0
  -28.5243   -4.4283  143.6506 C   0  0  0  0  0  0  0  0  0  0  0  0
  -29.1897   -3.1886  143.9119 C   0  0  0  0  0  0  0  0  0  0  0  0
  -28.7456   -1.9609  143.3125 C   0  0  0  0  0  0  0  0  0  0  0  0
  -29.3399   -0.7792  143.8422 C   0  0  0  0  0  0  0  0  0  0  0  0
  -26.2989  -11.5991  144.8696 O   0  0  0  0  0  0  0  0  0  0  0  0
  -26.9965  -11.6872  139.1138 C   0  0  0  0  0  0  0  0  0  0  0  0
  -27.9793  -12.4706  139.3781 N   0  0  0  0  0  0  0  0  0  0  0  0
  -25.8483  -12.1545  138.8257 O   0  0  0  0  0  0  0  0  0  0  0  0
  4  7  1  0
 10 13  1  0
 13 14  1  0
 14 15  1  0
 15 16  1  0
 11 17  1  0
 15 17  1  0
 16 18  1  0
 18 19  2  3
 19 20  1  0
 20 21  2  3
 21 22  1  0
 18 23  1  0
 23 24  1  0
 23 25  1  0
 25 26  2  3
 26 27  1  0
 27 28  1  0
 28 29  1  0
 29 30  1  0
 30 31  1  0
 17 32  2  0
 22 33  1  0
 33 34  1  0
 33 35  2  0
  1  2  2  0
  2  6  1  0
  6  5  2  0
  5  4  1  0
  4  3  2  0
  3  1  1  0
  7  8  2  0
  8  9  1  0
  9 10  2  0
 10 11  1  0
 11 12  2  0
 12  7  1  0
M  END

$$$$
No_921-/dssg/home/sw_qyf/PocketFlow/Model-Generation-Results/5HT2A_7WC7_rec_A_10.pdb/2024-01-01-03-54-21/
     RDKit          3D

 23 24  0  0  0  0  0  0  0  0999 V2000
  -23.1746  -16.6014  144.8668 C   0  0  0  0  0  0  0  0  0  0  0  0
  -23.7011  -17.0158  145.9774 C   0  0  0  0  0  0  0  0  0  0  0  0
  -24.2593  -16.1244  146.9100 C   0  0  0  0  0  0  0  0  0  0  0  0
  -24.5135  -14.7390  146.5020 C   0  0  0  0  0  0  0  0  0  0  0  0
  -25.1000  -13.7514  147.2685 C   0  0  0  0  0  0  0  0  0  0  0  0
  -23.9785  -14.4113  145.1814 C   0  0  0  0  0  0  0  0  0  0  0  0
  -24.1271  -13.1306  144.7126 N   0  0  0  0  0  0  0  0  0  0  0  0
  -23.4073  -15.3724  144.4079 N   0  0  0  0  0  0  0  0  0  0  0  0
  -25.1000  -12.3915  146.8118 C   0  0  0  0  0  0  0  0  0  0  0  0
  -24.6306  -12.1644  145.5058 C   0  0  0  0  0  0  0  0  0  0  0  0
  -23.4975  -18.4457  146.4752 C   0  0  0  0  0  0  0  0  0  0  0  0
  -22.6402  -18.9367  146.7465 O   0  0  0  0  0  0  0  0  0  0  0  0
  -24.7976  -19.0850  146.5504 N   0  0  0  0  0  0  0  0  0  0  0  0
  -24.7313  -10.9505  145.0470 O   0  0  0  0  0  0  0  0  0  0  0  0
  -24.5350  -16.5581  148.1709 O   0  0  0  0  0  0  0  0  0  0  0  0
  -23.6919  -16.8050  149.1157 C   0  0  0  0  0  0  0  0  0  0  0  0
  -23.8923  -17.8199  150.1353 C   0  0  0  0  0  0  0  0  0  0  0  0
  -24.6992  -17.1185  151.1798 C   0  0  0  0  0  0  0  0  0  0  0  0
  -25.9009  -16.7705  150.7655 O   0  0  0  0  0  0  0  0  0  0  0  0
  -26.6392  -17.8520  150.2405 C   0  0  0  0  0  0  0  0  0  0  0  0
  -27.9155  -17.3386  149.8158 C   0  0  0  0  0  0  0  0  0  0  0  0
  -28.8811  -17.2192  150.4425 O   0  0  0  0  0  0  0  0  0  0  0  0
  -27.7686  -16.5961  148.6789 F   0  0  0  0  0  0  0  0  0  0  0  0
  4  5  1  0
  6  7  1  0
  7 10  1  0
  9 10  1  0
  2 11  1  0
 11 12  2  0
 11 13  1  0
 10 14  2  0
  3 15  1  0
 15 16  1  0
 16 17  1  0
 17 18  1  0
 18 19  1  0
 19 20  1  0
 20 21  1  0
 21 22  2  0
 21 23  1  0
  5  9  1  0
  1  2  2  0
  2  3  1  0
  3  4  2  0
  4  6  1  0
  6  8  2  0
  8  1  1  0
M  END

$$$$
No_922-/dssg/home/sw_qyf/PocketFlow/Model-Generation-Results/5HT2A_7WC7_rec_A_10.pdb/2024-01-01-03-54-21/
     RDKit          3D

 29 31  0  0  0  0  0  0  0  0999 V2000
  -24.1553  -17.8465  145.7021 C   0  0  0  0  0  0  0  0  0  0  0  0
  -24.6364  -17.2931  146.7091 C   0  0  0  0  0  0  0  0  0  0  0  0
  -24.5709  -15.9334  146.8074 C   0  0  0  0  0  0  0  0  0  0  0  0
  -24.3883  -15.1807  145.6115 C   0  0  0  0  0  0  0  0  0  0  0  0
  -24.5560  -13.7894  145.5018 C   0  0  0  0  0  0  0  0  0  0  0  0
  -25.5487  -13.2157  146.2574 C   0  0  0  0  0  0  0  0  0  0  0  0
  -23.7774  -17.2004  144.5275 C   0  0  0  0  0  0  0  0  0  0  0  0
  -23.9185  -15.7910  144.5630 C   0  0  0  0  0  0  0  0  0  0  0  0
  -25.8580  -11.8024  146.1274 C   0  0  0  0  0  0  0  0  0  0  0  0
  -25.2797  -11.1161  145.0583 C   0  0  0  0  0  0  0  0  0  0  0  0
  -23.8026  -12.9768  144.6082 C   0  0  0  0  0  0  0  0  0  0  0  0
  -24.0534  -11.5764  144.5370 C   0  0  0  0  0  0  0  0  0  0  0  0
  -24.0390  -19.2850  145.6652 N   0  0  0  0  0  0  0  0  0  0  0  0
  -22.8227  -13.4186  143.9578 O   0  0  0  0  0  0  0  0  0  0  0  0
  -26.9788  -11.3430  146.7454 O   0  0  0  0  0  0  0  0  0  0  0  0
  -28.0598  -12.0994  146.7672 C   0  0  0  0  0  0  0  0  0  0  0  0
  -29.3171  -11.5172  147.0185 C   0  0  0  0  0  0  0  0  0  0  0  0
  -30.4865  -12.3912  147.1180 C   0  0  0  0  0  0  0  0  0  0  0  0
  -30.2312  -13.7671  147.2406 C   0  0  0  0  0  0  0  0  0  0  0  0
  -29.0327  -14.3512  147.0245 C   0  0  0  0  0  0  0  0  0  0  0  0
  -27.8897  -13.5123  146.8381 C   0  0  0  0  0  0  0  0  0  0  0  0
  -28.8879  -15.8195  147.0035 C   0  0  0  0  0  0  0  0  0  0  0  0
  -28.3231  -16.4711  148.1481 C   0  0  0  0  0  0  0  0  0  0  0  0
  -29.0055  -16.8852  149.2247 C   0  0  0  0  0  0  0  0  0  0  0  0
  -28.7459  -17.3696  150.2303 N   0  0  0  0  0  0  0  0  0  0  0  0
  -29.6234  -17.7380  151.1553 C   0  0  0  0  0  0  0  0  0  0  0  0
  -29.3353  -18.2742  152.4377 C   0  0  0  0  0  0  0  0  0  0  0  0
  -28.2089  -18.9205  152.6430 C   0  0  0  0  0  0  0  0  0  0  0  0
  -27.1471  -18.5936  151.7244 C   0  0  0  0  0  0  0  0  0  0  0  0
  4  5  1  0
  1 13  1  0
 11 14  1  0
  9 15  1  0
 15 16  1  0
 20 22  1  0
 22 23  1  0
 23 24  1  0
 24 25  2  3
 25 26  1  0
 26 27  1  0
 27 28  1  0
 28 29  2  0
 16 17  2  0
 17 18  1  0
 18 19  2  0
 19 20  1  0
 20 21  2  0
 21 16  1  0
  1  2  2  0
  2  3  1  0
  3  4  2  0
  4  8  1  0
  8  7  2  0
  7  1  1  0
  5  6  2  0
  6  9  1  0
  9 10  2  0
 10 12  1  0
 12 11  2  0
 11  5  1  0
M  END

$$$$
No_923-/dssg/home/sw_qyf/PocketFlow/Model-Generation-Results/5HT2A_7WC7_rec_A_10.pdb/2024-01-01-03-54-21/
     RDKit          3D

 28 32  0  0  0  0  0  0  0  0999 V2000
  -24.1553  -17.8465  145.7021 C   0  0  0  0  0  0  0  0  0  0  0  0
  -24.2855  -16.6364  145.3494 C   0  0  0  0  0  0  0  0  0  0  0  0
  -24.1962  -15.9414  144.2650 C   0  0  0  0  0  0  0  0  0  0  0  0
  -24.3870  -14.5486  144.1162 C   0  0  0  0  0  0  0  0  0  0  0  0
  -24.7523  -13.8439  145.3544 C   0  0  0  0  0  0  0  0  0  0  0  0
  -24.8215  -12.3993  145.3596 C   0  0  0  0  0  0  0  0  0  0  0  0
  -24.2456  -18.3779  147.0229 C   0  0  0  0  0  0  0  0  0  0  0  0
  -25.8967  -11.8549  146.0221 C   0  0  0  0  0  0  0  0  0  0  0  0
  -24.6394  -15.5043  146.4337 C   0  0  0  0  0  0  0  0  0  0  0  0
  -25.9407  -13.6791  145.8842 O   0  0  0  0  0  0  0  0  0  0  0  0
  -24.9324  -15.4569  147.6870 C   0  0  0  0  0  0  0  0  0  0  0  0
  -23.5709  -15.0396  146.8430 O   0  0  0  0  0  0  0  0  0  0  0  0
  -25.3657  -16.5779  148.1270 C   0  0  0  0  0  0  0  0  0  0  0  0
  -24.4956  -17.5633  148.0979 C   0  0  0  0  0  0  0  0  0  0  0  0
  -27.0420  -11.4611  145.2365 C   0  0  0  0  0  0  0  0  0  0  0  0
  -27.1127  -10.4673  144.3641 C   0  0  0  0  0  0  0  0  0  0  0  0
  -28.2929  -10.1974  143.7461 C   0  0  0  0  0  0  0  0  0  0  0  0
  -29.5256  -10.4773  144.3775 C   0  0  0  0  0  0  0  0  0  0  0  0
  -29.4499  -11.3682  145.5567 C   0  0  0  0  0  0  0  0  0  0  0  0
  -28.2283  -11.7587  146.0295 C   0  0  0  0  0  0  0  0  0  0  0  0
  -23.6466  -11.7986  145.8420 N   0  0  0  0  0  0  0  0  0  0  0  0
  -23.4492  -13.6339  146.4001 C   0  0  0  0  0  0  0  0  0  0  0  0
  -25.3113  -14.1524  143.1673 O   0  0  0  0  0  0  0  0  0  0  0  0
  -22.3130  -12.1015  145.4167 C   0  0  0  0  0  0  0  0  0  0  0  0
  -22.5210  -13.1474  145.9334 O   0  0  0  0  0  0  0  0  0  0  0  0
  -28.4714   -9.2965  142.6021 C   0  0  0  0  0  0  0  0  0  0  0  0
  -29.3832   -9.7393  141.6917 C   0  0  0  0  0  0  0  0  0  0  0  0
  -29.0712   -9.6100  140.7329 C   0  0  0  0  0  0  0  0  0  0  0  0
  1  2  2  0
  2  3  1  0
  3  4  1  0
  4  5  1  0
  5  6  1  0
  1  7  1  0
  6  8  2  0
  2  9  1  0
  5 10  1  0
  8 10  1  0
  9 11  1  0
  9 12  1  0
 11 13  2  0
  7 14  2  0
 13 14  1  0
  8 15  1  0
  6 21  1  0
  5 22  1  0
 12 22  1  0
  4 23  1  0
 21 24  1  0
 22 25  1  0
 24 25  1  0
 17 26  1  0
 26 27  1  0
 27 28  2  0
 15 16  2  0
 16 17  1  0
 17 18  2  0
 18 19  1  0
 19 20  2  0
 20 15  1  0
M  END

$$$$
No_924-/dssg/home/sw_qyf/PocketFlow/Model-Generation-Results/5HT2A_7WC7_rec_A_10.pdb/2024-01-01-03-54-21/
     RDKit          3D

 10 10  0  0  0  0  0  0  0  0999 V2000
  -24.1553  -17.8465  145.7021 C   0  0  0  0  0  0  0  0  0  0  0  0
  -24.2856  -16.6364  145.3494 C   0  0  0  0  0  0  0  0  0  0  0  0
  -24.5733  -15.7651  145.9979 C   0  0  0  0  0  0  0  0  0  0  0  0
  -25.0272  -15.9886  147.3700 C   0  0  0  0  0  0  0  0  0  0  0  0
  -24.4993  -18.2276  147.0208 C   0  0  0  0  0  0  0  0  0  0  0  0
  -24.9009  -17.2232  147.9329 C   0  0  0  0  0  0  0  0  0  0  0  0
  -24.7156  -14.2654  145.5569 C   0  0  0  0  0  0  0  0  0  0  0  0
  -23.9527  -13.7875  144.6641 C   0  0  0  0  0  0  0  0  0  0  0  0
  -23.3860  -14.4647  143.8324 O   0  0  0  0  0  0  0  0  0  0  0  0
  -23.5225  -12.5003  144.8694 O   0  0  0  0  0  0  0  0  0  0  0  0
  3  7  1  0
  7  8  1  0
  8  9  2  0
  8 10  1  0
  1  2  2  0
  2  3  1  0
  3  4  2  0
  4  6  1  0
  6  5  2  0
  5  1  1  0
M  END

$$$$
No_925-/dssg/home/sw_qyf/PocketFlow/Model-Generation-Results/5HT2A_7WC7_rec_A_10.pdb/2024-01-01-03-54-21/
     RDKit          3D

 17 18  0  0  0  0  0  0  0  0999 V2000
  -23.1746  -16.6014  144.8668 C   0  0  0  0  0  0  0  0  0  0  0  0
  -23.7011  -17.0158  145.9774 C   0  0  0  0  0  0  0  0  0  0  0  0
  -23.7336  -18.2775  146.3737 C   0  0  0  0  0  0  0  0  0  0  0  0
  -23.8112  -15.3694  144.2738 C   0  0  0  0  0  0  0  0  0  0  0  0
  -24.5304  -14.4294  145.1463 C   0  0  0  0  0  0  0  0  0  0  0  0
  -24.9728  -14.8639  146.4398 C   0  0  0  0  0  0  0  0  0  0  0  0
  -24.5583  -16.1491  146.8676 C   0  0  0  0  0  0  0  0  0  0  0  0
  -24.8527  -13.0961  144.6371 C   0  0  0  0  0  0  0  0  0  0  0  0
  -25.3544  -12.1962  145.7477 C   0  0  0  0  0  0  0  0  0  0  0  0
  -26.6412  -11.4644  145.3485 C   0  0  0  0  0  0  0  0  0  0  0  0
  -26.4666  -10.5251  144.4779 C   0  0  0  0  0  0  0  0  0  0  0  0
  -27.6370   -9.7933  144.0349 C   0  0  0  0  0  0  0  0  0  0  0  0
  -27.7338   -8.9087  143.0618 C   0  0  0  0  0  0  0  0  0  0  0  0
  -28.8641  -10.5352  144.4350 C   0  0  0  0  0  0  0  0  0  0  0  0
  -30.0799   -9.8969  144.0365 C   0  0  0  0  0  0  0  0  0  0  0  0
  -30.1855   -8.8427  143.1880 C   0  0  0  0  0  0  0  0  0  0  0  0
  -28.9594   -8.2104  142.7930 C   0  0  0  0  0  0  0  0  0  0  0  0
  2  3  1  0
  5  8  1  0
  8  9  1  0
  9 10  1  0
 10 11  1  0
 11 12  1  0
 12 13  2  0
 13 17  1  0
 17 16  2  0
 16 15  1  0
 15 14  2  0
 14 12  1  0
  1  2  2  0
  2  7  1  0
  7  6  2  0
  6  5  1  0
  5  4  2  0
  4  1  1  0
M  END

$$$$
No_926-/dssg/home/sw_qyf/PocketFlow/Model-Generation-Results/5HT2A_7WC7_rec_A_10.pdb/2024-01-01-03-54-21/
     RDKit          3D

 30 31  0  0  0  0  0  0  0  0999 V2000
  -23.1746  -16.6014  144.8668 C   0  0  0  0  0  0  0  0  0  0  0  0
  -23.8963  -15.5346  144.7885 C   0  0  0  0  0  0  0  0  0  0  0  0
  -23.6398  -14.5115  145.3282 C   0  0  0  0  0  0  0  0  0  0  0  0
  -24.4028  -13.2284  145.0157 C   0  0  0  0  0  0  0  0  0  0  0  0
  -25.6408  -13.3255  144.5043 C   0  0  0  0  0  0  0  0  0  0  0  0
  -26.7135  -12.9792  145.4910 C   0  0  0  0  0  0  0  0  0  0  0  0
  -27.2647  -13.6883  146.2742 C   0  0  0  0  0  0  0  0  0  0  0  0
  -28.4368  -13.2620  147.0508 C   0  0  0  0  0  0  0  0  0  0  0  0
  -29.0239  -11.9852  146.7347 C   0  0  0  0  0  0  0  0  0  0  0  0
  -28.4522  -11.2165  145.7589 C   0  0  0  0  0  0  0  0  0  0  0  0
  -27.3819  -11.6726  145.0822 C   0  0  0  0  0  0  0  0  0  0  0  0
  -23.7978  -17.9388  144.7774 C   0  0  0  0  0  0  0  0  0  0  0  0
  -23.3736  -18.7946  145.8931 C   0  0  0  0  0  0  0  0  0  0  0  0
  -23.2007  -18.0890  146.9479 O   0  0  0  0  0  0  0  0  0  0  0  0
  -30.1409  -11.6072  147.4438 O   0  0  0  0  0  0  0  0  0  0  0  0
  -23.7811  -11.9061  145.1710 C   0  0  0  0  0  0  0  0  0  0  0  0
  -24.2125  -17.8473  147.9258 C   0  0  0  0  0  0  0  0  0  0  0  0
  -23.6608  -17.2197  149.1307 C   0  0  0  0  0  0  0  0  0  0  0  0
  -24.4941  -17.1558  150.2740 C   0  0  0  0  0  0  0  0  0  0  0  0
  -25.7894  -17.2135  150.1323 O   0  0  0  0  0  0  0  0  0  0  0  0
  -26.5257  -18.2410  150.6577 C   0  0  0  0  0  0  0  0  0  0  0  0
  -27.9339  -17.8843  150.9110 C   0  0  0  0  0  0  0  0  0  0  0  0
  -28.4913  -17.3913  149.9083 O   0  0  0  0  0  0  0  0  0  0  0  0
  -28.9879  -16.1018  149.8618 C   0  0  0  0  0  0  0  0  0  0  0  0
  -29.2260  -15.7569  148.3263 C   0  0  0  0  0  0  0  0  0  0  0  0
  -30.2010  -14.7610  148.0959 C   0  0  0  0  0  0  0  0  0  0  0  0
  -30.0934  -14.3842  146.7572 C   0  0  0  0  0  0  0  0  0  0  0  0
  -29.1093  -14.0705  147.8583 O   0  0  0  0  0  0  0  0  0  0  0  0
  -29.6377  -16.8970  147.8143 N   0  0  0  0  0  0  0  0  0  0  0  0
  -22.4514  -11.8205  145.3829 O   0  0  0  0  0  0  0  0  0  0  0  0
  1  2  1  0
  2  3  1  0
  3  4  1  0
  4  5  1  0
  5  6  1  0
  1 12  1  0
 12 13  1  0
 13 14  1  0
  9 15  1  0
  4 16  1  0
 14 17  1  0
 17 18  1  0
 18 19  1  0
 19 20  1  0
 20 21  1  0
 21 22  1  0
 22 23  1  0
 23 24  1  0
 24 25  1  0
 25 26  2  3
 26 27  1  0
  8 28  1  0
 27 28  1  0
 25 29  1  0
 16 30  2  0
  6  7  2  0
  7  8  1  0
  8  9  2  0
  9 10  1  0
 10 11  2  0
 11  6  1  0
M  END

$$$$
No_927-/dssg/home/sw_qyf/PocketFlow/Model-Generation-Results/5HT2A_7WC7_rec_A_10.pdb/2024-01-01-03-54-21/
     RDKit          3D

 24 26  0  0  0  0  0  0  0  0999 V2000
  -24.1553  -17.8465  145.7021 C   0  0  0  0  0  0  0  0  0  0  0  0
  -24.2856  -16.6364  145.3494 C   0  0  0  0  0  0  0  0  0  0  0  0
  -23.7824  -15.9602  144.3554 C   0  0  0  0  0  0  0  0  0  0  0  0
  -24.0538  -14.4894  144.2905 C   0  0  0  0  0  0  0  0  0  0  0  0
  -24.9129  -13.8911  145.2692 C   0  0  0  0  0  0  0  0  0  0  0  0
  -25.5152  -14.6873  146.2905 C   0  0  0  0  0  0  0  0  0  0  0  0
  -25.1284  -16.0263  146.3485 C   0  0  0  0  0  0  0  0  0  0  0  0
  -23.0595  -18.6658  145.5853 C   0  0  0  0  0  0  0  0  0  0  0  0
  -23.1721  -19.9249  146.1099 N   0  0  0  0  0  0  0  0  0  0  0  0
  -25.1743  -18.7322  146.2512 C   0  0  0  0  0  0  0  0  0  0  0  0
  -24.4558  -19.9563  146.4291 N   0  0  0  0  0  0  0  0  0  0  0  0
  -25.1400  -12.4305  145.1934 C   0  0  0  0  0  0  0  0  0  0  0  0
  -26.4321  -11.9230  145.3757 C   0  0  0  0  0  0  0  0  0  0  0  0
  -26.9670  -10.8419  144.7300 C   0  0  0  0  0  0  0  0  0  0  0  0
  -28.4013  -10.6177  144.7710 C   0  0  0  0  0  0  0  0  0  0  0  0
  -29.1627  -11.2828  145.7528 C   0  0  0  0  0  0  0  0  0  0  0  0
  -28.5693  -12.2874  146.4955 C   0  0  0  0  0  0  0  0  0  0  0  0
  -27.2068  -12.5827  146.3865 C   0  0  0  0  0  0  0  0  0  0  0  0
  -29.0127   -9.5296  143.9661 C   0  0  0  0  0  0  0  0  0  0  0  0
  -29.7064   -9.9826  142.8604 C   0  0  0  0  0  0  0  0  0  0  0  0
  -29.6737   -9.4220  141.9651 C   0  0  0  0  0  0  0  0  0  0  0  0
  -30.1072   -8.3873  141.5286 C   0  0  0  0  0  0  0  0  0  0  0  0
  -29.9468   -7.5372  140.9807 C   0  0  0  0  0  0  0  0  0  0  0  0
  -30.0641   -6.0522  141.1844 C   0  0  0  0  0  0  0  0  0  0  0  0
  1  2  1  0
  1  8  1  0
  8  9  2  0
  1 10  1  0
  9 11  1  0
 10 11  2  0
  5 12  1  0
 12 13  1  0
 15 19  1  0
 19 20  1  0
 20 21  2  3
 21 22  1  0
 22 23  3  0
 23 24  1  0
  2  3  2  0
  3  4  1  0
  4  5  2  0
  5  6  1  0
  6  7  2  0
  7  2  1  0
 13 14  2  0
 14 15  1  0
 15 16  2  0
 16 17  1  0
 17 18  2  0
 18 13  1  0
M  END

$$$$
No_928-/dssg/home/sw_qyf/PocketFlow/Model-Generation-Results/5HT2A_7WC7_rec_A_10.pdb/2024-01-01-03-54-21/
     RDKit          3D

 35 36  0  0  0  0  0  0  0  0999 V2000
  -23.1746  -16.6014  144.8668 C   0  0  0  0  0  0  0  0  0  0  0  0
  -23.7011  -17.0158  145.9774 C   0  0  0  0  0  0  0  0  0  0  0  0
  -24.7095  -16.6222  146.3578 C   0  0  0  0  0  0  0  0  0  0  0  0
  -25.2589  -16.9410  147.8028 C   0  0  0  0  0  0  0  0  0  0  0  0
  -24.3234  -17.5558  148.6398 C   0  0  0  0  0  0  0  0  0  0  0  0
  -23.7919  -15.5148  144.2100 C   0  0  0  0  0  0  0  0  0  0  0  0
  -24.8968  -14.8816  144.7775 C   0  0  0  0  0  0  0  0  0  0  0  0
  -25.3730  -15.4146  145.9639 C   0  0  0  0  0  0  0  0  0  0  0  0
  -24.7003  -17.7377  150.0497 C   0  0  0  0  0  0  0  0  0  0  0  0
  -25.5630  -13.7418  144.1105 C   0  0  0  0  0  0  0  0  0  0  0  0
  -26.3568  -12.9300  144.9998 C   0  0  0  0  0  0  0  0  0  0  0  0
  -26.9435  -11.6991  144.5629 C   0  0  0  0  0  0  0  0  0  0  0  0
  -26.2886  -10.6327  144.4128 C   0  0  0  0  0  0  0  0  0  0  0  0
  -27.6124  -11.9666  143.0893 C   0  0  0  0  0  0  0  0  0  0  0  0
  -26.5667  -17.7513  147.7830 C   0  0  0  0  0  0  0  0  0  0  0  0
  -27.6552  -16.6595  147.7693 C   0  0  0  0  0  0  0  0  0  0  0  0
  -28.2468  -16.2282  146.7383 C   0  0  0  0  0  0  0  0  0  0  0  0
  -27.8140  -16.3983  145.4928 C   0  0  0  0  0  0  0  0  0  0  0  0
  -28.0939  -10.8895  142.3954 C   0  0  0  0  0  0  0  0  0  0  0  0
  -27.9094  -10.8416  141.0722 C   0  0  0  0  0  0  0  0  0  0  0  0
  -27.7126  -11.9037  140.2247 C   0  0  0  0  0  0  0  0  0  0  0  0
  -27.5412  -11.7734  138.8222 C   0  0  0  0  0  0  0  0  0  0  0  0
  -27.8880  -10.6533  138.3485 N   0  0  0  0  0  0  0  0  0  0  0  0
  -28.1259   -9.5403  139.0325 C   0  0  0  0  0  0  0  0  0  0  0  0
  -28.2721   -9.6236  140.5058 C   0  0  0  0  0  0  0  0  0  0  0  0
  -28.3552   -8.1994  138.4209 C   0  0  0  0  0  0  0  0  0  0  0  0
  -25.8581  -17.6232  150.5171 C   0  0  0  0  0  0  0  0  0  0  0  0
  -25.9848  -18.1318  151.8632 N   0  0  0  0  0  0  0  0  0  0  0  0
  -27.7584   -7.8924  137.4627 O   0  0  0  0  0  0  0  0  0  0  0  0
  -29.4731   -7.4950  138.9653 N   0  0  0  0  0  0  0  0  0  0  0  0
  -29.4243  -15.3185  146.9391 C   0  0  0  0  0  0  0  0  0  0  0  0
  -29.5328  -14.6722  148.2586 C   0  0  0  0  0  0  0  0  0  0  0  0
  -30.4561  -13.6420  148.3927 C   0  0  0  0  0  0  0  0  0  0  0  0
  -31.1821  -13.3751  149.6085 C   0  0  0  0  0  0  0  0  0  0  0  0
  -32.0242  -12.2483  149.6773 C   0  0  0  0  0  0  0  0  0  0  0  0
  3  4  1  0
  4  5  2  3
  5  9  1  0
  7 10  1  0
 10 11  1  0
 11 12  1  0
 12 13  1  0
 12 14  1  0
  4 15  1  0
 15 16  1  0
 16 17  2  3
 17 18  1  0
 14 19  1  0
 19 20  1  0
 24 26  1  0
  9 27  2  3
 27 28  1  0
 26 29  2  0
 26 30  1  0
 17 31  1  0
 31 32  2  3
 32 33  1  0
 33 34  2  3
 34 35  1  0
  1  2  2  0
  2  3  1  0
  3  8  2  0
  8  7  1  0
  7  6  2  0
  6  1  1  0
 20 21  2  0
 21 22  1  0
 22 23  2  0
 23 24  1  0
 24 25  2  0
 25 20  1  0
M  END

$$$$
No_929-/dssg/home/sw_qyf/PocketFlow/Model-Generation-Results/5HT2A_7WC7_rec_A_10.pdb/2024-01-01-03-54-21/
     RDKit          3D

 20 21  0  0  0  0  0  0  0  0999 V2000
  -24.1553  -17.8465  145.7021 C   0  0  0  0  0  0  0  0  0  0  0  0
  -23.9795  -18.4462  146.7426 C   0  0  0  0  0  0  0  0  0  0  0  0
  -23.2486  -17.2339  144.9771 C   0  0  0  0  0  0  0  0  0  0  0  0
  -24.9812  -19.0362  147.5824 C   0  0  0  0  0  0  0  0  0  0  0  0
  -23.7180  -16.2391  144.0023 C   0  0  0  0  0  0  0  0  0  0  0  0
  -24.1691  -14.9522  144.6878 C   0  0  0  0  0  0  0  0  0  0  0  0
  -24.1546  -13.8262  144.0736 C   0  0  0  0  0  0  0  0  0  0  0  0
  -24.5972  -12.5957  144.8994 C   0  0  0  0  0  0  0  0  0  0  0  0
  -25.5767  -12.7652  145.6906 C   0  0  0  0  0  0  0  0  0  0  0  0
  -25.8073  -14.0600  146.3562 C   0  0  0  0  0  0  0  0  0  0  0  0
  -25.2041  -15.1852  145.7713 C   0  0  0  0  0  0  0  0  0  0  0  0
  -26.2241  -11.5628  146.3360 C   0  0  0  0  0  0  0  0  0  0  0  0
  -27.6633  -11.5616  145.9673 C   0  0  0  0  0  0  0  0  0  0  0  0
  -28.2187  -10.8397  144.9365 C   0  0  0  0  0  0  0  0  0  0  0  0
  -29.5893  -10.5847  144.7911 C   0  0  0  0  0  0  0  0  0  0  0  0
  -30.2829  -11.2608  145.7388 F   0  0  0  0  0  0  0  0  0  0  0  0
  -30.3374   -9.5174  143.8356 Cl  0  0  0  0  0  0  0  0  0  0  0  0
  -26.2425  -18.5238  147.0715 C   0  0  0  0  0  0  0  0  0  0  0  0
  -26.4029  -17.6791  146.0999 C   0  0  0  0  0  0  0  0  0  0  0  0
  -25.4320  -17.2263  145.4625 C   0  0  0  0  0  0  0  0  0  0  0  0
  3  5  1  0
  5  6  1  0
  9 12  1  0
 12 13  1  0
 13 14  2  3
 14 15  1  0
 15 16  1  0
 15 17  1  0
  3  1  1  0
  6  7  2  0
  7  8  1  0
  8  9  2  0
  9 10  1  0
 10 11  2  0
 11  6  1  0
  1  2  2  0
  2  4  1  0
  4 18  2  0
 18 19  1  0
 19 20  2  0
 20  1  1  0
M  END

$$$$
No_930-/dssg/home/sw_qyf/PocketFlow/Model-Generation-Results/5HT2A_7WC7_rec_A_10.pdb/2024-01-01-03-54-21/
     RDKit          3D

 15 16  0  0  0  0  0  0  0  0999 V2000
  -23.1746  -16.6014  144.8668 C   0  0  0  0  0  0  0  0  0  0  0  0
  -23.7011  -17.0158  145.9774 C   0  0  0  0  0  0  0  0  0  0  0  0
  -24.7095  -16.6222  146.3578 C   0  0  0  0  0  0  0  0  0  0  0  0
  -25.4819  -15.5594  145.8227 C   0  0  0  0  0  0  0  0  0  0  0  0
  -24.9840  -15.0029  144.6879 C   0  0  0  0  0  0  0  0  0  0  0  0
  -25.5866  -13.9088  143.9853 C   0  0  0  0  0  0  0  0  0  0  0  0
  -23.7718  -15.5127  144.2079 C   0  0  0  0  0  0  0  0  0  0  0  0
  -26.6357  -13.2015  144.7404 C   0  0  0  0  0  0  0  0  0  0  0  0
  -26.2210  -12.0739  145.2445 C   0  0  0  0  0  0  0  0  0  0  0  0
  -24.9143  -11.5618  145.5132 C   0  0  0  0  0  0  0  0  0  0  0  0
  -27.3671  -11.1161  145.7765 C   0  0  0  0  0  0  0  0  0  0  0  0
  -22.8182  -18.4178  146.7208 Cl  0  0  0  0  0  0  0  0  0  0  0  0
  -28.5185  -11.6199  146.1455 C   0  0  0  0  0  0  0  0  0  0  0  0
  -28.7037  -13.0473  146.2276 C   0  0  0  0  0  0  0  0  0  0  0  0
  -27.8129  -13.8083  145.3245 C   0  0  0  0  0  0  0  0  0  0  0  0
  5  6  1  0
  6  8  1  0
  9 10  1  0
  2 12  1  0
  1  2  2  0
  2  3  1  0
  3  4  2  0
  4  5  1  0
  5  7  2  0
  7  1  1  0
  8  9  2  0
  9 11  1  0
 11 13  2  0
 13 14  1  0
 14 15  2  0
 15  8  1  0
M  END

$$$$
No_931-/dssg/home/sw_qyf/PocketFlow/Model-Generation-Results/5HT2A_7WC7_rec_A_10.pdb/2024-01-01-03-54-21/
     RDKit          3D

 21 22  0  0  0  0  0  0  0  0999 V2000
  -23.1746  -16.6014  144.8668 C   0  0  0  0  0  0  0  0  0  0  0  0
  -23.8963  -15.5346  144.7885 C   0  0  0  0  0  0  0  0  0  0  0  0
  -23.6398  -14.5115  145.3281 C   0  0  0  0  0  0  0  0  0  0  0  0
  -24.6397  -13.8424  146.2286 C   0  0  0  0  0  0  0  0  0  0  0  0
  -24.5240  -12.4425  146.5052 C   0  0  0  0  0  0  0  0  0  0  0  0
  -25.6906  -11.8270  147.0677 C   0  0  0  0  0  0  0  0  0  0  0  0
  -22.9865  -16.9621  146.2618 C   0  0  0  0  0  0  0  0  0  0  0  0
  -27.0054  -12.3103  146.6436 C   0  0  0  0  0  0  0  0  0  0  0  0
  -27.0529  -13.7222  146.3683 C   0  0  0  0  0  0  0  0  0  0  0  0
  -25.8446  -14.4044  145.9789 C   0  0  0  0  0  0  0  0  0  0  0  0
  -28.3499  -14.3536  146.3649 C   0  0  0  0  0  0  0  0  0  0  0  0
  -29.4512  -13.7027  146.8561 C   0  0  0  0  0  0  0  0  0  0  0  0
  -30.6397  -14.4192  147.2345 C   0  0  0  0  0  0  0  0  0  0  0  0
  -24.0949  -17.6252  146.9060 C   0  0  0  0  0  0  0  0  0  0  0  0
  -24.1012  -17.3327  148.3375 C   0  0  0  0  0  0  0  0  0  0  0  0
  -25.2760  -17.2087  149.1587 C   0  0  0  0  0  0  0  0  0  0  0  0
  -25.2181  -17.1847  150.5448 C   0  0  0  0  0  0  0  0  0  0  0  0
  -23.9444  -17.0558  151.1977 C   0  0  0  0  0  0  0  0  0  0  0  0
  -22.7637  -17.2458  150.4431 C   0  0  0  0  0  0  0  0  0  0  0  0
  -22.8533  -17.4249  149.0837 C   0  0  0  0  0  0  0  0  0  0  0  0
  -24.2095  -19.0808  146.5584 C   0  0  0  0  0  0  0  0  0  0  0  0
  1  2  1  0
  2  3  1  0
  3  4  1  0
  1  7  1  0
  9 11  1  0
 11 12  2  3
 12 13  1  0
  7 14  1  0
 14 15  1  0
 14 21  1  0
 15 16  2  0
 16 17  1  0
 17 18  2  0
 18 19  1  0
 19 20  2  0
 20 15  1  0
  4  5  2  0
  5  6  1  0
  6  8  2  0
  8  9  1  0
  9 10  2  0
 10  4  1  0
M  END

$$$$
No_932-/dssg/home/sw_qyf/PocketFlow/Model-Generation-Results/5HT2A_7WC7_rec_A_10.pdb/2024-01-01-03-54-21/
     RDKit          3D

 35 37  0  0  0  0  0  0  0  0999 V2000
  -24.1553  -17.8465  145.7021 C   0  0  0  0  0  0  0  0  0  0  0  0
  -24.6364  -17.2931  146.7091 C   0  0  0  0  0  0  0  0  0  0  0  0
  -25.8608  -16.5591  146.5934 C   0  0  0  0  0  0  0  0  0  0  0  0
  -25.9533  -15.5604  145.6681 C   0  0  0  0  0  0  0  0  0  0  0  0
  -25.0552  -14.7529  145.5673 C   0  0  0  0  0  0  0  0  0  0  0  0
  -25.1099  -13.3595  145.6973 C   0  0  0  0  0  0  0  0  0  0  0  0
  -26.1296  -12.6176  146.0243 C   0  0  0  0  0  0  0  0  0  0  0  0
  -26.1297  -11.1785  145.9441 C   0  0  0  0  0  0  0  0  0  0  0  0
  -23.4548  -16.8317  144.8143 C   0  0  0  0  0  0  0  0  0  0  0  0
  -24.0850  -15.5049  144.5951 C   0  0  0  0  0  0  0  0  0  0  0  0
  -23.7614  -12.5872  145.7163 C   0  0  0  0  0  0  0  0  0  0  0  0
  -25.1608  -10.5467  145.2500 C   0  0  0  0  0  0  0  0  0  0  0  0
  -23.8956  -11.2803  145.1044 C   0  0  0  0  0  0  0  0  0  0  0  0
  -27.0145  -16.9641  147.4197 C   0  0  0  0  0  0  0  0  0  0  0  0
  -27.2034  -16.3528  148.6942 C   0  0  0  0  0  0  0  0  0  0  0  0
  -28.3445  -17.2174  146.7505 C   0  0  0  0  0  0  0  0  0  0  0  0
  -23.1045  -18.9306  145.9911 C   0  0  0  0  0  0  0  0  0  0  0  0
  -23.2823  -20.0686  145.4619 O   0  0  0  0  0  0  0  0  0  0  0  0
  -21.9815  -18.5472  146.6319 O   0  0  0  0  0  0  0  0  0  0  0  0
  -23.3641  -14.6825  143.8595 O   0  0  0  0  0  0  0  0  0  0  0  0
  -27.2414  -13.2067  146.4960 O   0  0  0  0  0  0  0  0  0  0  0  0
  -28.4324  -12.5322  146.6369 C   0  0  0  0  0  0  0  0  0  0  0  0
  -28.9304  -11.6278  145.8796 C   0  0  0  0  0  0  0  0  0  0  0  0
  -28.8556  -11.6223  144.4685 C   0  0  0  0  0  0  0  0  0  0  0  0
  -29.5211  -10.6306  143.6845 C   0  0  0  0  0  0  0  0  0  0  0  0
  -29.5105  -10.6559  142.3125 C   0  0  0  0  0  0  0  0  0  0  0  0
  -30.1662   -9.6033  141.5955 C   0  0  0  0  0  0  0  0  0  0  0  0
  -30.9085   -8.6101  142.3436 C   0  0  0  0  0  0  0  0  0  0  0  0
  -30.8839   -8.6420  143.7155 C   0  0  0  0  0  0  0  0  0  0  0  0
  -30.2071   -9.6412  144.4428 C   0  0  0  0  0  0  0  0  0  0  0  0
  -29.3000  -13.2023  147.7074 C   0  0  0  0  0  0  0  0  0  0  0  0
  -30.6055  -13.6607  147.4193 C   0  0  0  0  0  0  0  0  0  0  0  0
  -28.7794  -11.4719  141.5473 N   0  0  0  0  0  0  0  0  0  0  0  0
  -28.1800  -11.2487  140.3615 C   0  0  0  0  0  0  0  0  0  0  0  0
  -27.5832  -12.3322  139.6701 C   0  0  0  0  0  0  0  0  0  0  0  0
  1  2  1  0
  2  3  1  0
  3  4  2  0
  4  5  1  0
  5  6  1  0
  1  9  1  0
  5 10  1  0
  9 10  1  0
  3 14  1  0
 14 15  1  0
 14 16  1  0
  1 17  1  0
 17 18  2  0
 17 19  1  0
 10 20  2  0
  7 21  1  0
 21 22  1  0
 22 23  1  0
 23 24  2  3
 24 25  1  0
 22 31  1  0
 31 32  1  0
 26 33  1  0
 33 34  1  0
 34 35  1  0
 25 26  2  0
 26 27  1  0
 27 28  2  0
 28 29  1  0
 29 30  2  0
 30 25  1  0
  6  7  1  0
  7  8  2  0
  8 12  1  0
 12 13  2  0
 13 11  1  0
 11  6  2  0
M  END

$$$$
No_933-/dssg/home/sw_qyf/PocketFlow/Model-Generation-Results/5HT2A_7WC7_rec_A_10.pdb/2024-01-01-03-54-21/
     RDKit          3D

 13 13  0  0  0  0  0  0  0  0999 V2000
  -23.1746  -16.6014  144.8668 C   0  0  0  0  0  0  0  0  0  0  0  0
  -23.7011  -17.0158  145.9774 C   0  0  0  0  0  0  0  0  0  0  0  0
  -24.2134  -16.0722  146.8877 C   0  0  0  0  0  0  0  0  0  0  0  0
  -23.3742  -15.2706  144.3922 C   0  0  0  0  0  0  0  0  0  0  0  0
  -24.0638  -14.3065  145.2723 C   0  0  0  0  0  0  0  0  0  0  0  0
  -24.2650  -12.9175  144.8725 C   0  0  0  0  0  0  0  0  0  0  0  0
  -24.4346  -14.7166  146.5554 C   0  0  0  0  0  0  0  0  0  0  0  0
  -24.7755  -11.9198  145.8903 Br  0  0  0  0  0  0  0  0  0  0  0  0
  -23.5464  -18.4409  146.4416 C   0  0  0  0  0  0  0  0  0  0  0  0
  -22.5508  -18.6587  147.1413 F   0  0  0  0  0  0  0  0  0  0  0  0
  -23.4865  -19.2758  145.4300 F   0  0  0  0  0  0  0  0  0  0  0  0
  -24.6695  -18.7828  147.1617 F   0  0  0  0  0  0  0  0  0  0  0  0
  -23.7178  -12.6490  143.7465 F   0  0  0  0  0  0  0  0  0  0  0  0
  5  6  1  0
  6  8  1  0
  2  9  1  0
  9 10  1  0
  9 11  1  0
  9 12  1  0
  6 13  1  0
  1  2  2  0
  2  3  1  0
  3  7  2  0
  7  5  1  0
  5  4  2  0
  4  1  1  0
M  END

$$$$
No_934-/dssg/home/sw_qyf/PocketFlow/Model-Generation-Results/5HT2A_7WC7_rec_A_10.pdb/2024-01-01-03-54-21/
     RDKit          3D

 32 34  0  0  0  0  0  0  0  0999 V2000
  -23.1746  -16.6014  144.8668 C   0  0  0  0  0  0  0  0  0  0  0  0
  -23.7011  -17.0158  145.9774 C   0  0  0  0  0  0  0  0  0  0  0  0
  -24.2134  -16.0722  146.8877 C   0  0  0  0  0  0  0  0  0  0  0  0
  -24.5407  -14.7704  146.3552 C   0  0  0  0  0  0  0  0  0  0  0  0
  -24.9626  -13.7061  147.1333 C   0  0  0  0  0  0  0  0  0  0  0  0
  -24.9236  -14.8864  144.9704 C   0  0  0  0  0  0  0  0  0  0  0  0
  -23.8359  -15.4952  144.1797 C   0  0  0  0  0  0  0  0  0  0  0  0
  -25.8625  -12.7936  146.5582 C   0  0  0  0  0  0  0  0  0  0  0  0
  -25.6034  -11.7003  145.8736 C   0  0  0  0  0  0  0  0  0  0  0  0
  -26.5900  -10.8358  145.2958 C   0  0  0  0  0  0  0  0  0  0  0  0
  -27.9741  -11.1921  145.3197 C   0  0  0  0  0  0  0  0  0  0  0  0
  -28.2553  -12.3470  146.1555 C   0  0  0  0  0  0  0  0  0  0  0  0
  -27.2795  -13.1785  146.6672 C   0  0  0  0  0  0  0  0  0  0  0  0
  -28.9887  -10.3930  144.7461 C   0  0  0  0  0  0  0  0  0  0  0  0
  -29.0812  -10.1122  143.4137 C   0  0  0  0  0  0  0  0  0  0  0  0
  -29.3839   -9.1114  142.9987 C   0  0  0  0  0  0  0  0  0  0  0  0
  -29.5570   -8.8415  141.5032 C   0  0  0  0  0  0  0  0  0  0  0  0
  -28.9298   -9.6510  140.6373 C   0  0  0  0  0  0  0  0  0  0  0  0
  -28.2838  -10.8036  141.2161 C   0  0  0  0  0  0  0  0  0  0  0  0
  -28.3165  -11.0814  142.6184 C   0  0  0  0  0  0  0  0  0  0  0  0
  -27.6394  -11.7747  140.3266 C   0  0  0  0  0  0  0  0  0  0  0  0
  -27.5189  -11.5519  138.9439 C   0  0  0  0  0  0  0  0  0  0  0  0
  -27.2338  -13.0240  140.9480 C   0  0  0  0  0  0  0  0  0  0  0  0
  -23.2001  -18.3040  146.6318 C   0  0  0  0  0  0  0  0  0  0  0  0
  -30.1645   -7.5774  140.9905 C   0  0  0  0  0  0  0  0  0  0  0  0
  -29.4987  -12.6748  146.2842 F   0  0  0  0  0  0  0  0  0  0  0  0
  -30.4278   -6.7368  141.8275 O   0  0  0  0  0  0  0  0  0  0  0  0
  -30.2918   -7.4728  139.8175 O   0  0  0  0  0  0  0  0  0  0  0  0
  -23.3400  -18.5015  147.8167 O   0  0  0  0  0  0  0  0  0  0  0  0
  -22.5514  -19.0932  145.9220 O   0  0  0  0  0  0  0  0  0  0  0  0
  -26.1492  -13.6241  140.6133 O   0  0  0  0  0  0  0  0  0  0  0  0
  -29.9657  -10.0508  145.5837 O   0  0  0  0  0  0  0  0  0  0  0  0
  1  2  1  0
  2  3  1  0
  3  4  1  0
  4  5  1  0
  4  6  1  0
  1  7  1  0
  6  7  1  0
  5  8  1  0
 11 14  1  0
 14 15  1  0
 19 21  1  0
 21 22  1  0
 21 23  1  0
  2 24  1  0
 17 25  1  0
 12 26  1  0
 25 27  1  0
 25 28  2  0
 24 29  2  0
 24 30  1  0
 23 31  1  0
 14 32  2  0
 15 16  2  0
 16 17  1  0
 17 18  2  0
 18 19  1  0
 19 20  2  0
 20 15  1  0
  8  9  2  0
  9 10  1  0
 10 11  2  0
 11 12  1  0
 12 13  2  0
 13  8  1  0
M  END

$$$$
No_935-/dssg/home/sw_qyf/PocketFlow/Model-Generation-Results/5HT2A_7WC7_rec_A_10.pdb/2024-01-01-03-54-21/
     RDKit          3D

  7  7  0  0  0  0  0  0  0  0999 V2000
  -23.8931  -18.2534  145.3804 F   0  0  0  0  0  0  0  0  0  0  0  0
  -24.1483  -17.4442  146.3400 C   0  0  0  0  0  0  0  0  0  0  0  0
  -24.1779  -17.7762  147.6608 C   0  0  0  0  0  0  0  0  0  0  0  0
  -24.8740  -16.1294  145.9567 C   0  0  0  0  0  0  0  0  0  0  0  0
  -25.4648  -15.3573  146.8554 C   0  0  0  0  0  0  0  0  0  0  0  0
  -24.6542  -16.8910  148.6918 C   0  0  0  0  0  0  0  0  0  0  0  0
  -25.3015  -15.7599  148.3550 C   0  0  0  0  0  0  0  0  0  0  0  0
  1  2  1  0
  2  3  2  0
  3  6  1  0
  6  7  2  0
  7  5  1  0
  5  4  2  0
  4  2  1  0
M  END

$$$$
No_936-/dssg/home/sw_qyf/PocketFlow/Model-Generation-Results/5HT2A_7WC7_rec_A_10.pdb/2024-01-01-03-54-21/
     RDKit          3D

 18 19  0  0  0  0  0  0  0  0999 V2000
  -24.1553  -17.8465  145.7021 C   0  0  0  0  0  0  0  0  0  0  0  0
  -24.6364  -17.2931  146.7091 C   0  0  0  0  0  0  0  0  0  0  0  0
  -25.8608  -16.5592  146.5934 C   0  0  0  0  0  0  0  0  0  0  0  0
  -26.9933  -16.9082  147.1889 C   0  0  0  0  0  0  0  0  0  0  0  0
  -28.2114  -16.1477  146.9896 C   0  0  0  0  0  0  0  0  0  0  0  0
  -28.1869  -14.8900  146.3591 C   0  0  0  0  0  0  0  0  0  0  0  0
  -26.9306  -14.4696  145.8021 C   0  0  0  0  0  0  0  0  0  0  0  0
  -25.7608  -15.2964  145.9443 C   0  0  0  0  0  0  0  0  0  0  0  0
  -26.8153  -13.1560  145.1435 C   0  0  0  0  0  0  0  0  0  0  0  0
  -26.8521  -13.1519  143.8358 C   0  0  0  0  0  0  0  0  0  0  0  0
  -26.1079  -14.0468  143.0240 C   0  0  0  0  0  0  0  0  0  0  0  0
  -26.1408  -13.9383  141.6206 C   0  0  0  0  0  0  0  0  0  0  0  0
  -26.9918  -13.0245  140.9532 C   0  0  0  0  0  0  0  0  0  0  0  0
  -27.7752  -12.1443  141.7490 C   0  0  0  0  0  0  0  0  0  0  0  0
  -27.6765  -12.2083  143.1329 C   0  0  0  0  0  0  0  0  0  0  0  0
  -24.0081  -17.4711  148.0556 C   0  0  0  0  0  0  0  0  0  0  0  0
  -22.8221  -17.8073  147.9931 F   0  0  0  0  0  0  0  0  0  0  0  0
  -24.0101  -16.2074  148.7912 F   0  0  0  0  0  0  0  0  0  0  0  0
  1  2  1  0
  2  3  1  0
  7  9  1  0
  9 10  1  0
  2 16  1  0
 16 17  1  0
 16 18  1  0
  3  4  2  0
  4  5  1  0
  5  6  2  0
  6  7  1  0
  7  8  2  0
  8  3  1  0
 10 11  2  0
 11 12  1  0
 12 13  2  0
 13 14  1  0
 14 15  2  0
 15 10  1  0
M  END

$$$$
No_937-/dssg/home/sw_qyf/PocketFlow/Model-Generation-Results/5HT2A_7WC7_rec_A_10.pdb/2024-01-01-03-54-21/
     RDKit          3D

  9  9  0  0  0  0  0  0  0  0999 V2000
  -24.1553  -17.8465  145.7021 C   0  0  0  0  0  0  0  0  0  0  0  0
  -24.2856  -16.6364  145.3494 C   0  0  0  0  0  0  0  0  0  0  0  0
  -24.7211  -15.5955  146.2115 C   0  0  0  0  0  0  0  0  0  0  0  0
  -25.1322  -16.0374  147.5372 C   0  0  0  0  0  0  0  0  0  0  0  0
  -24.5163  -18.2968  146.9928 C   0  0  0  0  0  0  0  0  0  0  0  0
  -24.9534  -17.3074  147.9886 C   0  0  0  0  0  0  0  0  0  0  0  0
  -24.8795  -14.1918  145.8039 C   0  0  0  0  0  0  0  0  0  0  0  0
  -25.6511  -13.2777  146.3865 C   0  0  0  0  0  0  0  0  0  0  0  0
  -25.6393  -11.9359  145.9978 C   0  0  0  0  0  0  0  0  0  0  0  0
  3  7  1  0
  7  8  2  3
  8  9  1  0
  1  2  2  0
  2  3  1  0
  3  4  2  0
  4  6  1  0
  6  5  2  0
  5  1  1  0
M  END

$$$$
No_938-/dssg/home/sw_qyf/PocketFlow/Model-Generation-Results/5HT2A_7WC7_rec_A_10.pdb/2024-01-01-03-54-21/
     RDKit          3D

 16 16  0  0  0  0  0  0  0  0999 V2000
  -23.1746  -16.6014  144.8668 C   0  0  0  0  0  0  0  0  0  0  0  0
  -23.8963  -15.5346  144.7885 C   0  0  0  0  0  0  0  0  0  0  0  0
  -25.0304  -15.2549  144.5358 C   0  0  0  0  0  0  0  0  0  0  0  0
  -25.6045  -13.9524  144.2294 C   0  0  0  0  0  0  0  0  0  0  0  0
  -24.8624  -12.8904  144.6738 C   0  0  0  0  0  0  0  0  0  0  0  0
  -23.5278  -13.1645  145.1476 C   0  0  0  0  0  0  0  0  0  0  0  0
  -23.0148  -14.3796  145.1899 C   0  0  0  0  0  0  0  0  0  0  0  0
  -23.7422  -17.6667  145.8444 C   0  0  0  0  0  0  0  0  0  0  0  0
  -23.6067  -17.2843  147.1315 C   0  0  0  0  0  0  0  0  0  0  0  0
  -22.6626  -17.3548  147.9242 C   0  0  0  0  0  0  0  0  0  0  0  0
  -24.9010  -16.6673  147.6849 C   0  0  0  0  0  0  0  0  0  0  0  0
  -22.7339  -11.8848  145.4632 C   0  0  0  0  0  0  0  0  0  0  0  0
  -25.2925  -15.5721  147.5920 C   0  0  0  0  0  0  0  0  0  0  0  0
  -26.6624  -15.1429  148.0261 C   0  0  0  0  0  0  0  0  0  0  0  0
  -27.5464  -16.1817  148.3802 C   0  0  0  0  0  0  0  0  0  0  0  0
  -26.9862  -17.4049  148.6859 C   0  0  0  0  0  0  0  0  0  0  0  0
  1  2  1  0
  1  8  1  0
  8  9  1  0
  9 10  1  0
  9 11  1  0
  6 12  1  0
 11 13  2  3
 13 14  1  0
 14 15  2  3
 15 16  1  0
  2  3  2  0
  3  4  1  0
  4  5  2  0
  5  6  1  0
  6  7  2  0
  7  2  1  0
M  END

$$$$
No_939-/dssg/home/sw_qyf/PocketFlow/Model-Generation-Results/5HT2A_7WC7_rec_A_10.pdb/2024-01-01-03-54-21/
     RDKit          3D

 34 35  0  0  0  0  0  0  0  0999 V2000
  -23.1746  -16.6014  144.8668 C   0  0  0  0  0  0  0  0  0  0  0  0
  -23.8963  -15.5346  144.7885 C   0  0  0  0  0  0  0  0  0  0  0  0
  -23.4976  -14.2961  145.1226 C   0  0  0  0  0  0  0  0  0  0  0  0
  -23.9189  -13.0599  144.7480 C   0  0  0  0  0  0  0  0  0  0  0  0
  -24.2390  -12.1464  145.9050 C   0  0  0  0  0  0  0  0  0  0  0  0
  -24.4751  -12.6755  147.1933 C   0  0  0  0  0  0  0  0  0  0  0  0
  -23.7344  -17.7767  145.0178 C   0  0  0  0  0  0  0  0  0  0  0  0
  -24.1695  -18.1900  146.3040 C   0  0  0  0  0  0  0  0  0  0  0  0
  -23.4579  -17.7733  147.2944 C   0  0  0  0  0  0  0  0  0  0  0  0
  -24.1187  -17.2223  148.6237 C   0  0  0  0  0  0  0  0  0  0  0  0
  -25.3446  -16.5844  148.4725 C   0  0  0  0  0  0  0  0  0  0  0  0
  -26.4820  -17.2431  149.0252 C   0  0  0  0  0  0  0  0  0  0  0  0
  -27.8173  -16.8162  148.6904 C   0  0  0  0  0  0  0  0  0  0  0  0
  -27.9619  -15.5890  147.9987 C   0  0  0  0  0  0  0  0  0  0  0  0
  -29.1721  -14.9913  147.7325 C   0  0  0  0  0  0  0  0  0  0  0  0
  -29.2594  -13.7801  146.9827 C   0  0  0  0  0  0  0  0  0  0  0  0
  -30.2131  -12.7346  147.2146 C   0  0  0  0  0  0  0  0  0  0  0  0
  -29.9608  -11.4639  146.6259 C   0  0  0  0  0  0  0  0  0  0  0  0
  -29.0627  -11.2232  145.5358 C   0  0  0  0  0  0  0  0  0  0  0  0
  -28.9148  -10.0244  144.9072 C   0  0  0  0  0  0  0  0  0  0  0  0
  -29.0723  -10.0510  143.6089 C   0  0  0  0  0  0  0  0  0  0  0  0
  -28.2418  -10.7310  142.7242 C   0  0  0  0  0  0  0  0  0  0  0  0
  -27.7877  -11.9789  143.4595 C   0  0  0  0  0  0  0  0  0  0  0  0
  -28.4086  -12.3081  144.8418 C   0  0  0  0  0  0  0  0  0  0  0  0
  -28.0583  -10.6076  141.4157 C   0  0  0  0  0  0  0  0  0  0  0  0
  -28.3102   -9.4093  140.7256 C   0  0  0  0  0  0  0  0  0  0  0  0
  -29.1032   -8.3314  141.2115 C   0  0  0  0  0  0  0  0  0  0  0  0
  -29.5259   -7.2978  140.4303 C   0  0  0  0  0  0  0  0  0  0  0  0
  -29.1023   -7.3177  139.0838 C   0  0  0  0  0  0  0  0  0  0  0  0
  -28.2969   -8.3079  138.5644 C   0  0  0  0  0  0  0  0  0  0  0  0
  -27.9480   -9.3802  139.3453 C   0  0  0  0  0  0  0  0  0  0  0  0
  -27.5322  -11.6023  140.7707 O   0  0  0  0  0  0  0  0  0  0  0  0
  -28.2543  -12.6256  140.1606 C   0  0  0  0  0  0  0  0  0  0  0  0
  -27.8840   -8.2039  136.9510 Cl  0  0  0  0  0  0  0  0  0  0  0  0
  1  2  2  3
  2  3  1  0
  3  4  1  0
  4  5  1  0
  5  6  1  0
  1  7  1  0
  7  8  1  0
  8  9  1  0
  9 10  1  0
 10 11  1  0
 11 12  1  0
 12 13  1  0
 13 14  1  0
 14 15  2  3
 15 16  1  0
 16 17  2  3
 17 18  1  0
 22 25  1  0
 25 32  1  0
 32 33  1  0
 30 34  1  0
 25 26  1  0
 18 19  1  0
 26 27  2  0
 27 28  1  0
 28 29  2  0
 29 30  1  0
 30 31  2  0
 31 26  1  0
 19 20  2  0
 20 21  1  0
 21 22  2  0
 22 23  1  0
 23 24  2  0
 24 19  1  0
M  END

$$$$
No_940-/dssg/home/sw_qyf/PocketFlow/Model-Generation-Results/5HT2A_7WC7_rec_A_10.pdb/2024-01-01-03-54-21/
     RDKit          3D

 11 11  0  0  0  0  0  0  0  0999 V2000
  -23.1746  -16.6014  144.8668 C   0  0  0  0  0  0  0  0  0  0  0  0
  -23.8963  -15.5346  144.7885 C   0  0  0  0  0  0  0  0  0  0  0  0
  -24.5755  -15.0383  145.9043 C   0  0  0  0  0  0  0  0  0  0  0  0
  -25.0618  -13.6819  146.0347 C   0  0  0  0  0  0  0  0  0  0  0  0
  -25.4100  -13.0255  144.9749 C   0  0  0  0  0  0  0  0  0  0  0  0
  -25.2396  -13.6946  143.7675 C   0  0  0  0  0  0  0  0  0  0  0  0
  -24.5079  -14.9162  143.6723 C   0  0  0  0  0  0  0  0  0  0  0  0
  -26.0172  -11.7372  145.0288 C   0  0  0  0  0  0  0  0  0  0  0  0
  -25.4964  -11.1217  145.7879 F   0  0  0  0  0  0  0  0  0  0  0  0
  -25.8404  -10.9842  143.8665 F   0  0  0  0  0  0  0  0  0  0  0  0
  -27.3508  -11.8473  145.2001 F   0  0  0  0  0  0  0  0  0  0  0  0
  1  2  1  0
  5  8  1  0
  8  9  1  0
  8 10  1  0
  8 11  1  0
  2  3  2  0
  3  4  1  0
  4  5  2  0
  5  6  1  0
  6  7  2  0
  7  2  1  0
M  END

$$$$
No_941-/dssg/home/sw_qyf/PocketFlow/Model-Generation-Results/5HT2A_7WC7_rec_A_10.pdb/2024-01-01-03-54-21/
     RDKit          3D

 31 34  0  0  0  0  0  0  0  0999 V2000
  -24.1553  -17.8465  145.7021 C   0  0  0  0  0  0  0  0  0  0  0  0
  -24.2856  -16.6364  145.3494 C   0  0  0  0  0  0  0  0  0  0  0  0
  -23.7824  -15.9602  144.3553 C   0  0  0  0  0  0  0  0  0  0  0  0
  -24.0538  -14.4894  144.2905 C   0  0  0  0  0  0  0  0  0  0  0  0
  -24.6859  -13.9584  145.2506 C   0  0  0  0  0  0  0  0  0  0  0  0
  -25.2468  -14.5867  146.3965 C   0  0  0  0  0  0  0  0  0  0  0  0
  -24.9504  -15.9390  146.4563 C   0  0  0  0  0  0  0  0  0  0  0  0
  -24.8770  -18.2720  146.8300 C   0  0  0  0  0  0  0  0  0  0  0  0
  -25.3400  -17.0496  147.3724 C   0  0  0  0  0  0  0  0  0  0  0  0
  -24.9185  -12.3853  145.2081 C   0  0  0  0  0  0  0  0  0  0  0  0
  -24.0284  -11.5560  145.7289 C   0  0  0  0  0  0  0  0  0  0  0  0
  -26.2039  -11.8848  144.7976 C   0  0  0  0  0  0  0  0  0  0  0  0
  -26.4690  -10.6237  144.8196 C   0  0  0  0  0  0  0  0  0  0  0  0
  -22.7832  -12.0870  146.1247 N   0  0  0  0  0  0  0  0  0  0  0  0
  -27.7684  -10.1512  144.4866 C   0  0  0  0  0  0  0  0  0  0  0  0
  -28.1250   -9.5625  143.3074 C   0  0  0  0  0  0  0  0  0  0  0  0
  -29.4110   -8.8529  143.2369 C   0  0  0  0  0  0  0  0  0  0  0  0
  -29.6229   -7.8938  142.2441 C   0  0  0  0  0  0  0  0  0  0  0  0
  -30.3914   -6.8596  142.2982 C   0  0  0  0  0  0  0  0  0  0  0  0
  -29.5009   -8.5035  140.8239 C   0  0  0  0  0  0  0  0  0  0  0  0
  -29.3773   -7.4794  139.8166 C   0  0  0  0  0  0  0  0  0  0  0  0
  -29.1693   -8.0544  138.5625 C   0  0  0  0  0  0  0  0  0  0  0  0
  -28.1012   -8.9997  138.3606 C   0  0  0  0  0  0  0  0  0  0  0  0
  -26.1075  -16.7558  148.5957 C   0  0  0  0  0  0  0  0  0  0  0  0
  -25.3822  -17.0317  149.8245 C   0  0  0  0  0  0  0  0  0  0  0  0
  -24.0430  -16.7116  150.0494 C   0  0  0  0  0  0  0  0  0  0  0  0
  -23.3650  -17.3020  151.1279 C   0  0  0  0  0  0  0  0  0  0  0  0
  -27.5394   -9.3375  139.5514 C   0  0  0  0  0  0  0  0  0  0  0  0
  -28.2753   -9.4683  140.8522 C   0  0  0  0  0  0  0  0  0  0  0  0
  -27.6831   -9.9873  141.9784 C   0  0  0  0  0  0  0  0  0  0  0  0
  -27.4127  -16.3723  148.4866 C   0  0  0  0  0  0  0  0  0  0  0  0
  1  2  1  0
  1  8  2  0
  7  9  1  0
  8  9  1  0
  5 10  1  0
 10 11  1  0
 10 12  1  0
 12 13  2  3
 11 14  1  0
 13 15  1  0
 18 19  1  0
  9 24  1  0
 24 25  1  0
 25 26  1  0
 26 27  2  0
 24 31  1  0
 15 16  1  0
 16 17  2  0
 17 18  1  0
 18 20  2  0
 29 30  2  0
 30 16  1  0
  2  3  2  0
  3  4  1  0
  4  5  2  0
  5  6  1  0
  6  7  2  0
  7  2  1  0
 20 21  1  0
 21 22  2  0
 22 23  1  0
 23 28  2  0
 28 29  1  0
 29 20  1  0
M  END

$$$$
No_942-/dssg/home/sw_qyf/PocketFlow/Model-Generation-Results/5HT2A_7WC7_rec_A_10.pdb/2024-01-01-03-54-21/
     RDKit          3D

 35 38  0  0  0  0  0  0  0  0999 V2000
  -23.1746  -16.6014  144.8668 C   0  0  0  0  0  0  0  0  0  0  0  0
  -23.8963  -15.5346  144.7885 C   0  0  0  0  0  0  0  0  0  0  0  0
  -23.6398  -14.5115  145.3281 C   0  0  0  0  0  0  0  0  0  0  0  0
  -24.3241  -13.3648  145.1281 C   0  0  0  0  0  0  0  0  0  0  0  0
  -25.5072  -13.2953  144.4353 C   0  0  0  0  0  0  0  0  0  0  0  0
  -25.9151  -14.5889  143.8605 C   0  0  0  0  0  0  0  0  0  0  0  0
  -25.1243  -15.6356  144.0574 C   0  0  0  0  0  0  0  0  0  0  0  0
  -22.1163  -16.5787  145.2940 F   0  0  0  0  0  0  0  0  0  0  0  0
  -23.0361  -17.3295  143.6249 F   0  0  0  0  0  0  0  0  0  0  0  0
  -26.4447  -12.1571  144.2953 C   0  0  0  0  0  0  0  0  0  0  0  0
  -27.5247  -12.2069  145.2362 C   0  0  0  0  0  0  0  0  0  0  0  0
  -27.4052  -12.7204  146.5562 C   0  0  0  0  0  0  0  0  0  0  0  0
  -28.5111  -12.8082  147.4329 C   0  0  0  0  0  0  0  0  0  0  0  0
  -29.7564  -12.1495  147.0485 C   0  0  0  0  0  0  0  0  0  0  0  0
  -29.8179  -11.5529  145.8013 C   0  0  0  0  0  0  0  0  0  0  0  0
  -28.7447  -11.5534  144.9568 C   0  0  0  0  0  0  0  0  0  0  0  0
  -28.9619  -10.9595  143.7544 N   0  0  0  0  0  0  0  0  0  0  0  0
  -29.8512  -10.0112  143.4604 C   0  0  0  0  0  0  0  0  0  0  0  0
  -29.7834   -9.4265  142.1690 C   0  0  0  0  0  0  0  0  0  0  0  0
  -30.6710   -8.3037  141.9544 C   0  0  0  0  0  0  0  0  0  0  0  0
  -31.6576   -8.0407  142.9964 C   0  0  0  0  0  0  0  0  0  0  0  0
  -31.5492   -8.6119  144.2479 C   0  0  0  0  0  0  0  0  0  0  0  0
  -30.6515   -9.5393  144.5175 C   0  0  0  0  0  0  0  0  0  0  0  0
  -28.8813   -9.8251  141.2134 C   0  0  0  0  0  0  0  0  0  0  0  0
  -28.6938  -11.1220  140.8547 C   0  0  0  0  0  0  0  0  0  0  0  0
  -27.7962  -11.5344  139.8560 C   0  0  0  0  0  0  0  0  0  0  0  0
  -27.0924  -10.5893  139.0668 C   0  0  0  0  0  0  0  0  0  0  0  0
  -27.3155   -9.2087  139.4923 C   0  0  0  0  0  0  0  0  0  0  0  0
  -28.2580   -8.8206  140.4352 C   0  0  0  0  0  0  0  0  0  0  0  0
  -30.7786  -12.1870  147.9391 N   0  0  0  0  0  0  0  0  0  0  0  0
  -30.9805  -13.1086  148.8528 C   0  0  0  0  0  0  0  0  0  0  0  0
  -31.9964  -12.9666  149.8523 C   0  0  0  0  0  0  0  0  0  0  0  0
  -32.8312  -11.9148  149.7561 C   0  0  0  0  0  0  0  0  0  0  0  0
  -32.0956  -13.8767  150.9305 C   0  0  0  0  0  0  0  0  0  0  0  0
  -31.3307  -14.9891  150.9888 C   0  0  0  0  0  0  0  0  0  0  0  0
  1  2  1  0
  1  8  1  0
  1  9  1  0
  5 10  1  0
 10 11  1  0
 16 17  1  0
 17 18  1  0
 19 24  1  0
 14 30  1  0
 30 31  1  0
 31 32  1  0
 32 33  1  0
 32 34  1  0
 34 35  2  0
 11 12  2  0
 12 13  1  0
 13 14  2  0
 14 15  1  0
 15 16  2  0
 16 11  1  0
  2  3  2  0
  3  4  1  0
  4  5  2  0
  5  6  1  0
  6  7  2  0
  7  2  1  0
 24 25  2  0
 25 26  1  0
 26 27  2  0
 27 28  1  0
 28 29  2  0
 29 24  1  0
 18 19  1  0
 19 20  2  0
 20 21  1  0
 21 22  2  0
 22 23  1  0
 23 18  2  0
M  END

$$$$
No_943-/dssg/home/sw_qyf/PocketFlow/Model-Generation-Results/5HT2A_7WC7_rec_A_10.pdb/2024-01-01-03-54-21/
     RDKit          3D

 35 37  0  0  0  0  0  0  0  0999 V2000
  -24.1553  -17.8465  145.7021 C   0  0  0  0  0  0  0  0  0  0  0  0
  -24.2856  -16.6364  145.3494 C   0  0  0  0  0  0  0  0  0  0  0  0
  -24.5733  -15.7651  145.9979 C   0  0  0  0  0  0  0  0  0  0  0  0
  -24.7088  -14.2765  145.5906 C   0  0  0  0  0  0  0  0  0  0  0  0
  -24.0081  -14.0223  144.3771 C   0  0  0  0  0  0  0  0  0  0  0  0
  -24.5461  -18.2167  147.0077 C   0  0  0  0  0  0  0  0  0  0  0  0
  -24.9798  -17.2136  147.8740 C   0  0  0  0  0  0  0  0  0  0  0  0
  -24.9933  -15.8410  147.4193 C   0  0  0  0  0  0  0  0  0  0  0  0
  -25.3883  -13.3088  146.3470 C   0  0  0  0  0  0  0  0  0  0  0  0
  -25.4028  -11.9738  145.9131 C   0  0  0  0  0  0  0  0  0  0  0  0
  -26.4613  -11.6245  145.2997 C   0  0  0  0  0  0  0  0  0  0  0  0
  -27.7110  -12.0443  145.6265 C   0  0  0  0  0  0  0  0  0  0  0  0
  -28.6964  -11.6143  146.3980 C   0  0  0  0  0  0  0  0  0  0  0  0
  -29.8775  -12.3059  146.8120 C   0  0  0  0  0  0  0  0  0  0  0  0
  -29.7036  -13.6988  146.8728 C   0  0  0  0  0  0  0  0  0  0  0  0
  -28.6049  -14.3471  146.3475 C   0  0  0  0  0  0  0  0  0  0  0  0
  -27.5457  -13.5818  145.8205 C   0  0  0  0  0  0  0  0  0  0  0  0
  -26.5628  -10.4247  144.3942 C   0  0  0  0  0  0  0  0  0  0  0  0
  -27.6341  -14.0369  144.6419 F   0  0  0  0  0  0  0  0  0  0  0  0
  -26.3552  -13.9483  146.5789 C   0  0  0  0  0  0  0  0  0  0  0  0
  -30.8970  -11.6168  147.3133 O   0  0  0  0  0  0  0  0  0  0  0  0
  -25.3216  -17.4751  149.1418 F   0  0  0  0  0  0  0  0  0  0  0  0
  -23.9118  -16.4452  144.0248 F   0  0  0  0  0  0  0  0  0  0  0  0
  -28.3601  -15.3888  147.1708 O   0  0  0  0  0  0  0  0  0  0  0  0
  -30.8017  -14.3517  147.3218 O   0  0  0  0  0  0  0  0  0  0  0  0
  -25.5142   -9.9275  144.1939 F   0  0  0  0  0  0  0  0  0  0  0  0
  -27.0986  -10.7998  143.1590 F   0  0  0  0  0  0  0  0  0  0  0  0
  -27.3756   -9.3945  144.7810 F   0  0  0  0  0  0  0  0  0  0  0  0
  -28.6244  -16.6597  146.6902 C   0  0  0  0  0  0  0  0  0  0  0  0
  -22.9328  -13.4049  144.6041 O   0  0  0  0  0  0  0  0  0  0  0  0
  -22.0620  -13.0774  143.5647 C   0  0  0  0  0  0  0  0  0  0  0  0
  -23.6156  -19.0153  145.1426 O   0  0  0  0  0  0  0  0  0  0  0  0
  -31.2369  -11.7880  148.7414 C   0  0  0  0  0  0  0  0  0  0  0  0
  -32.5844  -11.5766  149.1132 C   0  0  0  0  0  0  0  0  0  0  0  0
  -32.8368  -11.3525  150.4656 C   0  0  0  0  0  0  0  0  0  0  0  0
  3  4  1  0
  4  5  2  3
  4  9  1  0
  9 10  1  0
 10 11  1  0
 11 12  1  0
 12 13  2  0
 13 14  1  0
 14 15  2  0
 15 16  1  0
 12 17  1  0
 16 17  1  0
 11 18  1  0
 17 19  1  0
  9 20  1  0
 17 20  1  0
 14 21  1  0
  7 22  1  0
  2 23  1  0
 16 24  1  0
 15 25  1  0
 18 26  1  0
 18 27  1  0
 18 28  1  0
 24 29  1  0
  5 30  1  0
 30 31  1  0
  1 32  1  0
 21 33  1  0
 33 34  1  0
 34 35  2  0
  1  2  2  0
  2  3  1  0
  3  8  2  0
  8  7  1  0
  7  6  2  0
  6  1  1  0
M  END

$$$$
No_944-/dssg/home/sw_qyf/PocketFlow/Model-Generation-Results/5HT2A_7WC7_rec_A_10.pdb/2024-01-01-03-54-21/
     RDKit          3D

 18 18  0  0  0  0  0  0  0  0999 V2000
  -24.1553  -17.8465  145.7021 C   0  0  0  0  0  0  0  0  0  0  0  0
  -24.6364  -17.2931  146.7091 C   0  0  0  0  0  0  0  0  0  0  0  0
  -24.0780  -17.2921  147.9389 C   0  0  0  0  0  0  0  0  0  0  0  0
  -24.6869  -16.7004  149.1440 C   0  0  0  0  0  0  0  0  0  0  0  0
  -26.0385  -16.2385  148.9552 C   0  0  0  0  0  0  0  0  0  0  0  0
  -26.6430  -16.2999  147.7413 C   0  0  0  0  0  0  0  0  0  0  0  0
  -25.9652  -16.9120  146.6642 C   0  0  0  0  0  0  0  0  0  0  0  0
  -23.8942  -19.0875  145.6350 F   0  0  0  0  0  0  0  0  0  0  0  0
  -22.7979  -17.2485  145.3296 F   0  0  0  0  0  0  0  0  0  0  0  0
  -28.0751  -15.8779  147.6801 C   0  0  0  0  0  0  0  0  0  0  0  0
  -28.3804  -15.0211  146.5964 C   0  0  0  0  0  0  0  0  0  0  0  0
  -29.4252  -14.0562  146.7679 C   0  0  0  0  0  0  0  0  0  0  0  0
  -29.5258  -12.9200  145.9643 C   0  0  0  0  0  0  0  0  0  0  0  0
  -30.3115  -11.7827  146.4394 C   0  0  0  0  0  0  0  0  0  0  0  0
  -30.8607  -11.8088  147.6788 O   0  0  0  0  0  0  0  0  0  0  0  0
  -30.2217  -10.6636  145.8263 O   0  0  0  0  0  0  0  0  0  0  0  0
  -24.7328  -17.4167  144.5300 F   0  0  0  0  0  0  0  0  0  0  0  0
  -28.7640  -12.7267  145.0135 F   0  0  0  0  0  0  0  0  0  0  0  0
  1  2  1  0
  1  8  1  0
  1  9  1  0
  6 10  1  0
 10 11  1  0
 11 12  2  3
 12 13  1  0
 13 14  1  0
 14 15  1  0
 14 16  2  0
  1 17  1  0
 13 18  1  0
  2  3  2  0
  3  4  1  0
  4  5  2  0
  5  6  1  0
  6  7  2  0
  7  2  1  0
M  END

$$$$
No_945-/dssg/home/sw_qyf/PocketFlow/Model-Generation-Results/5HT2A_7WC7_rec_A_10.pdb/2024-01-01-03-54-21/
     RDKit          3D

 34 36  0  0  0  0  0  0  0  0999 V2000
  -23.1746  -16.6014  144.8668 C   0  0  0  0  0  0  0  0  0  0  0  0
  -23.8963  -15.5346  144.7885 C   0  0  0  0  0  0  0  0  0  0  0  0
  -24.6479  -15.0447  145.8164 C   0  0  0  0  0  0  0  0  0  0  0  0
  -25.3835  -13.7782  145.7887 C   0  0  0  0  0  0  0  0  0  0  0  0
  -25.5840  -12.9393  146.6927 C   0  0  0  0  0  0  0  0  0  0  0  0
  -23.3260  -17.4394  146.0484 C   0  0  0  0  0  0  0  0  0  0  0  0
  -24.0657  -17.0203  147.1562 C   0  0  0  0  0  0  0  0  0  0  0  0
  -24.7664  -15.7793  147.0832 C   0  0  0  0  0  0  0  0  0  0  0  0
  -25.9888  -11.6217  146.2773 C   0  0  0  0  0  0  0  0  0  0  0  0
  -26.4374  -11.3169  145.0537 C   0  0  0  0  0  0  0  0  0  0  0  0
  -26.2128  -12.3044  144.0992 C   0  0  0  0  0  0  0  0  0  0  0  0
  -25.6415  -13.5403  144.3714 C   0  0  0  0  0  0  0  0  0  0  0  0
  -26.9638  -10.0210  144.6568 C   0  0  0  0  0  0  0  0  0  0  0  0
  -27.7879   -9.8742  143.5366 C   0  0  0  0  0  0  0  0  0  0  0  0
  -28.7893   -8.9397  143.4583 C   0  0  0  0  0  0  0  0  0  0  0  0
  -29.5297   -8.7785  142.2388 C   0  0  0  0  0  0  0  0  0  0  0  0
  -29.0762   -9.4741  141.1033 C   0  0  0  0  0  0  0  0  0  0  0  0
  -28.0198  -10.3955  141.2394 C   0  0  0  0  0  0  0  0  0  0  0  0
  -27.3407  -10.5372  142.4529 C   0  0  0  0  0  0  0  0  0  0  0  0
  -27.6921  -11.1272  139.9963 C   0  0  0  0  0  0  0  0  0  0  0  0
  -27.5088  -12.5369  140.0274 C   0  0  0  0  0  0  0  0  0  0  0  0
  -27.6210  -10.5116  138.7623 C   0  0  0  0  0  0  0  0  0  0  0  0
  -30.6062   -7.8081  142.1330 C   0  0  0  0  0  0  0  0  0  0  0  0
  -31.3390   -7.8288  142.8158 F   0  0  0  0  0  0  0  0  0  0  0  0
  -30.0229   -6.5352  142.0197 F   0  0  0  0  0  0  0  0  0  0  0  0
  -31.1363   -7.8261  140.8029 F   0  0  0  0  0  0  0  0  0  0  0  0
  -27.7097  -13.4420  141.6381 Br  0  0  0  0  0  0  0  0  0  0  0  0
  -24.0931  -17.7601  148.4329 C   0  0  0  0  0  0  0  0  0  0  0  0
  -22.9440  -17.8554  149.0592 F   0  0  0  0  0  0  0  0  0  0  0  0
  -24.5314  -19.0346  148.1986 F   0  0  0  0  0  0  0  0  0  0  0  0
  -25.0098  -17.2279  149.3251 F   0  0  0  0  0  0  0  0  0  0  0  0
  -27.4582   -9.2561  138.7916 O   0  0  0  0  0  0  0  0  0  0  0  0
  -28.1568  -11.1319  137.7863 N   0  0  0  0  0  0  0  0  0  0  0  0
  -23.8018  -14.8370  143.7043 O   0  0  0  0  0  0  0  0  0  0  0  0
  3  4  1  0
 10 13  1  0
 13 14  1  0
 18 20  1  0
 20 21  2  3
 20 22  1  0
 16 23  1  0
 23 24  1  0
 23 25  1  0
 23 26  1  0
 21 27  1  0
  7 28  1  0
 28 29  1  0
 28 30  1  0
 28 31  1  0
 22 32  1  0
 22 33  1  0
  2 34  1  0
 14 15  2  0
 15 16  1  0
 16 17  2  0
 17 18  1  0
 18 19  2  0
 19 14  1  0
  1  2  2  0
  2  3  1  0
  3  8  2  0
  8  7  1  0
  7  6  2  0
  6  1  1  0
  4  5  2  0
  5  9  1  0
  9 10  2  0
 10 11  1  0
 11 12  2  0
 12  4  1  0
M  END

$$$$
No_946-/dssg/home/sw_qyf/PocketFlow/Model-Generation-Results/5HT2A_7WC7_rec_A_10.pdb/2024-01-01-03-54-21/
     RDKit          3D

 15 16  0  0  0  0  0  0  0  0999 V2000
  -24.1553  -17.8465  145.7021 C   0  0  0  0  0  0  0  0  0  0  0  0
  -23.9795  -18.4462  146.7426 C   0  0  0  0  0  0  0  0  0  0  0  0
  -24.3577  -16.4380  145.7329 C   0  0  0  0  0  0  0  0  0  0  0  0
  -24.9751  -15.8839  146.4136 C   0  0  0  0  0  0  0  0  0  0  0  0
  -25.3012  -14.4332  146.4375 C   0  0  0  0  0  0  0  0  0  0  0  0
  -26.1986  -13.7705  147.2809 C   0  0  0  0  0  0  0  0  0  0  0  0
  -24.4827  -17.8739  147.9807 C   0  0  0  0  0  0  0  0  0  0  0  0
  -24.8604  -16.4820  147.9199 C   0  0  0  0  0  0  0  0  0  0  0  0
  -24.5923  -13.6112  145.5078 C   0  0  0  0  0  0  0  0  0  0  0  0
  -23.5079  -13.8952  144.7361 C   0  0  0  0  0  0  0  0  0  0  0  0
  -23.0883  -12.6777  144.0396 C   0  0  0  0  0  0  0  0  0  0  0  0
  -22.5967  -11.8456  145.1274 C   0  0  0  0  0  0  0  0  0  0  0  0
  -27.0822  -12.9798  146.4860 C   0  0  0  0  0  0  0  0  0  0  0  0
  -26.5432  -11.9728  145.5386 C   0  0  0  0  0  0  0  0  0  0  0  0
  -25.3126  -12.4127  144.9072 C   0  0  0  0  0  0  0  0  0  0  0  0
  4  5  1  0
  9 10  1  0
 10 11  1  0
 11 12  1  0
  5  6  2  0
  6 13  1  0
 13 14  2  0
 14 15  1  0
 15  9  2  0
  9  5  1  0
  1  2  2  0
  2  7  1  0
  7  8  2  0
  8  4  1  0
  4  3  2  0
  3  1  1  0
M  END

$$$$
No_947-/dssg/home/sw_qyf/PocketFlow/Model-Generation-Results/5HT2A_7WC7_rec_A_10.pdb/2024-01-01-03-54-21/
     RDKit          3D

 13 13  0  0  0  0  0  0  0  0999 V2000
  -23.1746  -16.6014  144.8668 C   0  0  0  0  0  0  0  0  0  0  0  0
  -24.0189  -16.0564  145.8445 C   0  0  0  0  0  0  0  0  0  0  0  0
  -24.4850  -14.7380  145.6359 C   0  0  0  0  0  0  0  0  0  0  0  0
  -24.0244  -13.9858  144.5634 C   0  0  0  0  0  0  0  0  0  0  0  0
  -24.3842  -12.6749  144.5063 N   0  0  0  0  0  0  0  0  0  0  0  0
  -22.7426  -15.7801  143.9285 N   0  0  0  0  0  0  0  0  0  0  0  0
  -23.0395  -14.5149  143.8586 C   0  0  0  0  0  0  0  0  0  0  0  0
  -23.7688  -11.8732  145.4946 C   0  0  0  0  0  0  0  0  0  0  0  0
  -24.5739  -16.9417  146.9166 C   0  0  0  0  0  0  0  0  0  0  0  0
  -25.6261  -16.3978  147.9769 Cl  0  0  0  0  0  0  0  0  0  0  0  0
  -23.3127  -17.4065  147.7345 C   0  0  0  0  0  0  0  0  0  0  0  0
  -24.3126  -10.5641  145.4541 N   0  0  0  0  0  0  0  0  0  0  0  0
  -25.1096  -18.2101  146.2835 C   0  0  0  0  0  0  0  0  0  0  0  0
  4  5  1  0
  5  8  1  0
  2  9  1  0
  9 10  1  0
  9 11  1  0
  8 12  2  0
  9 13  1  0
  1  2  2  0
  2  3  1  0
  3  4  2  0
  4  7  1  0
  7  6  2  0
  6  1  1  0
M  END

$$$$
No_948-/dssg/home/sw_qyf/PocketFlow/Model-Generation-Results/5HT2A_7WC7_rec_A_10.pdb/2024-01-01-03-54-21/
     RDKit          3D

 24 25  0  0  0  0  0  0  0  0999 V2000
  -23.1746  -16.6014  144.8668 C   0  0  0  0  0  0  0  0  0  0  0  0
  -23.8963  -15.5346  144.7885 C   0  0  0  0  0  0  0  0  0  0  0  0
  -23.6398  -14.5115  145.3281 C   0  0  0  0  0  0  0  0  0  0  0  0
  -24.3241  -13.3648  145.1281 C   0  0  0  0  0  0  0  0  0  0  0  0
  -25.5072  -13.2953  144.4354 C   0  0  0  0  0  0  0  0  0  0  0  0
  -26.3858  -12.2346  144.3608 C   0  0  0  0  0  0  0  0  0  0  0  0
  -27.7065  -12.3483  143.7416 C   0  0  0  0  0  0  0  0  0  0  0  0
  -28.5834  -11.2836  143.8798 C   0  0  0  0  0  0  0  0  0  0  0  0
  -29.3459  -11.2356  144.9720 C   0  0  0  0  0  0  0  0  0  0  0  0
  -29.1653  -12.0015  145.9772 O   0  0  0  0  0  0  0  0  0  0  0  0
  -29.9486  -10.0122  145.3814 O   0  0  0  0  0  0  0  0  0  0  0  0
  -23.6730  -17.6395  145.6405 C   0  0  0  0  0  0  0  0  0  0  0  0
  -24.7575  -17.2945  146.5297 C   0  0  0  0  0  0  0  0  0  0  0  0
  -24.7244  -16.4995  147.2169 C   0  0  0  0  0  0  0  0  0  0  0  0
  -25.0816  -15.5041  144.0613 N   0  0  0  0  0  0  0  0  0  0  0  0
  -25.8157  -14.4588  143.8717 C   0  0  0  0  0  0  0  0  0  0  0  0
  -25.7686  -16.2301  148.3215 C   0  0  0  0  0  0  0  0  0  0  0  0
  -27.0700  -16.7194  148.0771 C   0  0  0  0  0  0  0  0  0  0  0  0
  -27.1824  -17.5492  146.8991 C   0  0  0  0  0  0  0  0  0  0  0  0
  -26.0661  -17.9570  146.2036 C   0  0  0  0  0  0  0  0  0  0  0  0
  -29.4623  -11.0985  142.6334 C   0  0  0  0  0  0  0  0  0  0  0  0
  -29.9877   -9.7189  142.4824 C   0  0  0  0  0  0  0  0  0  0  0  0
  -31.2728   -9.4045  142.8685 C   0  0  0  0  0  0  0  0  0  0  0  0
  -31.7062   -8.1706  142.4613 N   0  0  0  0  0  0  0  0  0  0  0  0
  1  2  1  0
  5  6  1  0
  6  7  1  0
  7  8  1  0
  8  9  1  0
  9 10  2  0
  9 11  1  0
  1 12  1  0
 12 13  1  0
  8 21  1  0
 21 22  1  0
 22 23  1  0
 23 24  1  0
  2  3  2  0
  3  4  1  0
  4  5  2  0
  5 16  1  0
 16 15  2  0
 15  2  1  0
 13 14  2  0
 14 17  1  0
 17 18  2  0
 18 19  1  0
 19 20  2  0
 20 13  1  0
M  END

$$$$
No_949-/dssg/home/sw_qyf/PocketFlow/Model-Generation-Results/5HT2A_7WC7_rec_A_10.pdb/2024-01-01-03-54-21/
     RDKit          3D

 35 37  0  0  0  0  0  0  0  0999 V2000
  -23.1746  -16.6014  144.8668 C   0  0  0  0  0  0  0  0  0  0  0  0
  -23.8963  -15.5346  144.7885 C   0  0  0  0  0  0  0  0  0  0  0  0
  -24.5755  -15.0383  145.9043 C   0  0  0  0  0  0  0  0  0  0  0  0
  -25.0618  -13.6819  146.0347 C   0  0  0  0  0  0  0  0  0  0  0  0
  -24.0242  -12.8249  145.9593 C   0  0  0  0  0  0  0  0  0  0  0  0
  -23.6749  -17.5341  145.8338 C   0  0  0  0  0  0  0  0  0  0  0  0
  -24.4362  -17.1976  146.9180 C   0  0  0  0  0  0  0  0  0  0  0  0
  -24.8856  -15.8807  147.0288 C   0  0  0  0  0  0  0  0  0  0  0  0
  -26.3413  -13.2238  146.1482 C   0  0  0  0  0  0  0  0  0  0  0  0
  -26.6972  -11.8736  146.2161 C   0  0  0  0  0  0  0  0  0  0  0  0
  -24.3440  -11.3619  145.9486 C   0  0  0  0  0  0  0  0  0  0  0  0
  -25.6284  -10.9502  146.0312 C   0  0  0  0  0  0  0  0  0  0  0  0
  -27.4458  -14.2266  146.2667 C   0  0  0  0  0  0  0  0  0  0  0  0
  -28.2446  -14.0420  147.3545 C   0  0  0  0  0  0  0  0  0  0  0  0
  -29.3392  -15.0239  147.5569 C   0  0  0  0  0  0  0  0  0  0  0  0
  -30.3566  -14.7140  148.5073 C   0  0  0  0  0  0  0  0  0  0  0  0
  -31.0111  -13.5642  148.3607 C   0  0  0  0  0  0  0  0  0  0  0  0
  -30.1869  -12.4009  148.0418 C   0  0  0  0  0  0  0  0  0  0  0  0
  -28.9651  -12.6419  147.2735 C   0  0  0  0  0  0  0  0  0  0  0  0
  -24.5752  -18.1646  148.0255 C   0  0  0  0  0  0  0  0  0  0  0  0
  -23.8730  -17.6063  149.2873 C   0  0  0  0  0  0  0  0  0  0  0  0
  -22.6125  -17.2910  149.3032 C   0  0  0  0  0  0  0  0  0  0  0  0
  -22.3748  -16.3950  150.4898 C   0  0  0  0  0  0  0  0  0  0  0  0
  -24.7038  -17.5420  150.5075 C   0  0  0  0  0  0  0  0  0  0  0  0
  -26.0925  -17.9986  150.5555 C   0  0  0  0  0  0  0  0  0  0  0  0
  -20.9835  -16.1539  150.5704 N   0  0  0  0  0  0  0  0  0  0  0  0
  -23.6849  -14.6111  143.8591 O   0  0  0  0  0  0  0  0  0  0  0  0
  -23.1441  -18.8175  145.8168 O   0  0  0  0  0  0  0  0  0  0  0  0
  -32.2269  -13.2459  149.1409 C   0  0  0  0  0  0  0  0  0  0  0  0
  -32.3375  -12.0933  149.7264 O   0  0  0  0  0  0  0  0  0  0  0  0
  -33.3417  -11.5090  150.0676 C   0  0  0  0  0  0  0  0  0  0  0  0
  -33.3467  -11.2564  151.5453 C   0  0  0  0  0  0  0  0  0  0  0  0
  -33.4004  -12.2661  152.2790 O   0  0  0  0  0  0  0  0  0  0  0  0
  -26.7383  -18.1877  151.4586 C   0  0  0  0  0  0  0  0  0  0  0  0
  -28.0243  -18.6992  151.4874 C   0  0  0  0  0  0  0  0  0  0  0  0
  3  4  1  0
  9 13  1  0
 13 14  1  0
  7 20  1  0
 20 21  1  0
 21 22  1  0
 22 23  2  3
 21 24  1  0
 24 25  1  0
 23 26  1  0
  2 27  1  0
  6 28  1  0
 17 29  1  0
 29 30  1  0
 30 31  1  0
 31 32  1  0
 32 33  1  0
 25 34  1  0
 34 35  2  0
 14 15  2  0
 15 16  1  0
 16 17  2  0
 17 18  1  0
 18 19  2  0
 19 14  1  0
  1  2  2  0
  2  3  1  0
  3  8  2  0
  8  7  1  0
  7  6  2  0
  6  1  1  0
  4  5  2  0
  5 11  1  0
 11 12  2  0
 12 10  1  0
 10  9  2  0
  9  4  1  0
M  END

$$$$
No_950-/dssg/home/sw_qyf/PocketFlow/Model-Generation-Results/5HT2A_7WC7_rec_A_10.pdb/2024-01-01-03-54-21/
     RDKit          3D

 15 15  0  0  0  0  0  0  0  0999 V2000
  -23.1746  -16.6014  144.8668 C   0  0  0  0  0  0  0  0  0  0  0  0
  -23.8963  -15.5346  144.7885 C   0  0  0  0  0  0  0  0  0  0  0  0
  -23.6398  -14.5115  145.3281 C   0  0  0  0  0  0  0  0  0  0  0  0
  -24.3240  -13.3648  145.1280 C   0  0  0  0  0  0  0  0  0  0  0  0
  -25.5072  -13.2953  144.4353 C   0  0  0  0  0  0  0  0  0  0  0  0
  -25.9151  -14.5889  143.8604 C   0  0  0  0  0  0  0  0  0  0  0  0
  -25.1243  -15.6356  144.0574 C   0  0  0  0  0  0  0  0  0  0  0  0
  -23.5082  -17.6231  145.7803 N   0  0  0  0  0  0  0  0  0  0  0  0
  -23.5654  -17.2502  147.0434 C   0  0  0  0  0  0  0  0  0  0  0  0
  -24.8379  -17.6727  147.7507 C   0  0  0  0  0  0  0  0  0  0  0  0
  -25.6241  -16.5345  148.2604 C   0  0  0  0  0  0  0  0  0  0  0  0
  -26.4192  -16.8254  149.2009 F   0  0  0  0  0  0  0  0  0  0  0  0
  -26.5125  -16.0466  147.2288 F   0  0  0  0  0  0  0  0  0  0  0  0
  -26.4974  -11.9115  144.2542 Cl  0  0  0  0  0  0  0  0  0  0  0  0
  -23.8414  -18.9309  145.4368 C   0  0  0  0  0  0  0  0  0  0  0  0
  1  2  1  0
  1  8  1  0
  8  9  1  0
  9 10  1  0
 10 11  1  0
 11 12  1  0
 11 13  1  0
  5 14  1  0
  8 15  1  0
  2  3  2  0
  3  4  1  0
  4  5  2  0
  5  6  1  0
  6  7  2  0
  7  2  1  0
M  END

$$$$
No_951-/dssg/home/sw_qyf/PocketFlow/Model-Generation-Results/5HT2A_7WC7_rec_A_10.pdb/2024-01-01-03-54-21/
     RDKit          3D

 33 35  0  0  0  0  0  0  0  0999 V2000
  -24.1553  -17.8465  145.7021 C   0  0  0  0  0  0  0  0  0  0  0  0
  -23.9795  -18.4462  146.7426 C   0  0  0  0  0  0  0  0  0  0  0  0
  -24.2723  -16.4220  145.8037 C   0  0  0  0  0  0  0  0  0  0  0  0
  -24.0151  -15.5895  144.6874 C   0  0  0  0  0  0  0  0  0  0  0  0
  -24.0834  -17.9646  148.0883 C   0  0  0  0  0  0  0  0  0  0  0  0
  -24.2949  -16.5690  148.2409 C   0  0  0  0  0  0  0  0  0  0  0  0
  -24.3289  -15.7594  147.1024 C   0  0  0  0  0  0  0  0  0  0  0  0
  -25.1690  -14.7006  144.3757 C   0  0  0  0  0  0  0  0  0  0  0  0
  -25.0972  -13.7252  143.4422 C   0  0  0  0  0  0  0  0  0  0  0  0
  -26.3298  -13.0561  143.0811 C   0  0  0  0  0  0  0  0  0  0  0  0
  -27.0489  -12.6338  144.2180 N   0  0  0  0  0  0  0  0  0  0  0  0
  -27.1498  -13.5074  145.3743 C   0  0  0  0  0  0  0  0  0  0  0  0
  -27.9345  -13.0354  146.5002 C   0  0  0  0  0  0  0  0  0  0  0  0
  -28.1965  -11.6375  146.6379 C   0  0  0  0  0  0  0  0  0  0  0  0
  -26.2524  -14.4567  145.4505 C   0  0  0  0  0  0  0  0  0  0  0  0
  -29.1647  -13.8731  146.8227 C   0  0  0  0  0  0  0  0  0  0  0  0
  -27.0209  -13.1235  141.8722 C   0  0  0  0  0  0  0  0  0  0  0  0
  -26.8774  -12.1175  140.8368 C   0  0  0  0  0  0  0  0  0  0  0  0
  -27.5938  -10.9746  141.0405 C   0  0  0  0  0  0  0  0  0  0  0  0
  -28.5087  -10.6095  142.0961 C   0  0  0  0  0  0  0  0  0  0  0  0
  -29.3013   -9.4642  142.1628 C   0  0  0  0  0  0  0  0  0  0  0  0
  -30.1068   -9.1110  143.3262 C   0  0  0  0  0  0  0  0  0  0  0  0
  -31.0361   -8.1227  143.2733 C   0  0  0  0  0  0  0  0  0  0  0  0
  -29.3209   -8.5025  141.1352 C   0  0  0  0  0  0  0  0  0  0  0  0
  -30.0342   -8.7624  139.9613 C   0  0  0  0  0  0  0  0  0  0  0  0
  -26.3276  -12.4522  139.5946 C   0  0  0  0  0  0  0  0  0  0  0  0
  -29.5320  -14.1091  148.2036 C   0  0  0  0  0  0  0  0  0  0  0  0
  -30.0093   -9.9375  144.5513 C   0  0  0  0  0  0  0  0  0  0  0  0
  -25.1745  -12.4671  139.3357 O   0  0  0  0  0  0  0  0  0  0  0  0
  -27.2019  -12.3922  138.5221 O   0  0  0  0  0  0  0  0  0  0  0  0
  -29.0533  -10.6865  144.8176 O   0  0  0  0  0  0  0  0  0  0  0  0
  -28.7690  -11.2706  146.0489 C   0  0  0  0  0  0  0  0  0  0  0  0
  -30.1816  -11.1038  146.5995 F   0  0  0  0  0  0  0  0  0  0  0  0
  1  2  1  0
  1  3  1  0
  3  4  2  3
  2  5  1  0
  5  6  1  0
  3  7  1  0
  6  7  1  0
  4  8  1  0
 12 13  1  0
 13 14  1  0
 13 16  1  0
 10 17  1  0
 17 18  2  3
 18 19  1  0
 19 20  2  3
 20 21  1  0
 21 22  1  0
 22 23  1  0
 21 24  1  0
 24 25  2  0
 18 26  1  0
 16 27  1  0
 22 28  1  0
 26 29  1  0
 26 30  2  0
 28 31  1  0
 14 32  2  3
 31 32  1  0
 32 33  1  0
  8  9  2  0
  9 10  1  0
 10 11  2  0
 11 12  1  0
 12 15  2  0
 15  8  1  0
M  END

$$$$
No_952-/dssg/home/sw_qyf/PocketFlow/Model-Generation-Results/5HT2A_7WC7_rec_A_10.pdb/2024-01-01-03-54-21/
     RDKit          3D

 35 38  0  0  0  0  0  0  0  0999 V2000
  -23.1746  -16.6014  144.8668 C   0  0  0  0  0  0  0  0  0  0  0  0
  -23.7011  -17.0158  145.9774 C   0  0  0  0  0  0  0  0  0  0  0  0
  -24.7096  -16.6222  146.3577 C   0  0  0  0  0  0  0  0  0  0  0  0
  -24.9847  -15.5183  146.7687 C   0  0  0  0  0  0  0  0  0  0  0  0
  -23.5803  -15.1678  144.5733 C   0  0  0  0  0  0  0  0  0  0  0  0
  -24.5551  -14.5817  145.5074 C   0  0  0  0  0  0  0  0  0  0  0  0
  -24.8955  -13.1208  145.4658 C   0  0  0  0  0  0  0  0  0  0  0  0
  -23.9454  -12.2472  145.7979 C   0  0  0  0  0  0  0  0  0  0  0  0
  -26.1803  -12.8362  145.1188 C   0  0  0  0  0  0  0  0  0  0  0  0
  -26.7089  -11.5548  145.1484 C   0  0  0  0  0  0  0  0  0  0  0  0
  -28.0277  -11.2727  145.0931 C   0  0  0  0  0  0  0  0  0  0  0  0
  -29.0313  -11.6032  146.1028 C   0  0  0  0  0  0  0  0  0  0  0  0
  -28.8165  -12.5235  147.0954 C   0  0  0  0  0  0  0  0  0  0  0  0
  -29.8218  -12.8821  148.0468 C   0  0  0  0  0  0  0  0  0  0  0  0
  -29.8751  -14.1957  148.5179 C   0  0  0  0  0  0  0  0  0  0  0  0
  -29.2139  -15.0809  147.7488 C   0  0  0  0  0  0  0  0  0  0  0  0
  -29.0239  -16.4600  148.1684 C   0  0  0  0  0  0  0  0  0  0  0  0
  -28.2010  -17.2990  147.3922 C   0  0  0  0  0  0  0  0  0  0  0  0
  -27.8114  -16.9261  146.0844 C   0  0  0  0  0  0  0  0  0  0  0  0
  -27.9759  -15.5984  145.6915 C   0  0  0  0  0  0  0  0  0  0  0  0
  -28.6466  -14.6800  146.5519 C   0  0  0  0  0  0  0  0  0  0  0  0
  -28.4784  -10.4742  143.9395 C   0  0  0  0  0  0  0  0  0  0  0  0
  -29.7766   -9.9234  143.8372 C   0  0  0  0  0  0  0  0  0  0  0  0
  -30.2099   -9.3200  142.6767 C   0  0  0  0  0  0  0  0  0  0  0  0
  -31.4104   -8.6021  142.5861 C   0  0  0  0  0  0  0  0  0  0  0  0
  -29.5016   -9.6566  141.4654 C   0  0  0  0  0  0  0  0  0  0  0  0
  -28.6267  -10.6787  141.3322 C   0  0  0  0  0  0  0  0  0  0  0  0
  -27.9886  -11.0397  140.2017 C   0  0  0  0  0  0  0  0  0  0  0  0
  -27.4842  -10.1201  139.2526 C   0  0  0  0  0  0  0  0  0  0  0  0
  -28.1113  -11.3409  142.6924 C   0  0  0  0  0  0  0  0  0  0  0  0
  -27.8253  -12.4212  139.8090 C   0  0  0  0  0  0  0  0  0  0  0  0
  -27.2896  -12.6147  138.5813 N   0  0  0  0  0  0  0  0  0  0  0  0
  -27.8783  -13.4970  147.0310 O   0  0  0  0  0  0  0  0  0  0  0  0
  -32.1335   -8.6256  143.5345 O   0  0  0  0  0  0  0  0  0  0  0  0
  -31.7403   -7.9380  141.5682 O   0  0  0  0  0  0  0  0  0  0  0  0
  6  7  1  0
  7  8  2  0
  7  9  1  0
  9 10  1  0
 10 11  1  0
 11 12  2  3
 12 13  1  0
 13 14  1  0
 14 15  2  0
 15 16  1  0
 11 22  1  0
 24 25  1  0
 27 28  1  0
 28 29  2  0
 28 31  1  0
 31 32  1  0
 13 33  1  0
 21 33  1  0
 25 34  1  0
 25 35  2  0
 22 23  2  0
 23 24  1  0
 24 26  2  0
 26 27  1  0
 27 30  2  0
 30 22  1  0
  1  2  2  0
  2  3  1  0
  3  4  2  0
  4  6  1  0
  6  5  2  0
  5  1  1  0
 16 17  2  0
 17 18  1  0
 18 19  2  0
 19 20  1  0
 20 21  2  0
 21 16  1  0
M  END

$$$$
No_953-/dssg/home/sw_qyf/PocketFlow/Model-Generation-Results/5HT2A_7WC7_rec_A_10.pdb/2024-01-01-03-54-21/
     RDKit          3D

 22 23  0  0  0  0  0  0  0  0999 V2000
  -24.1553  -17.8465  145.7021 C   0  0  0  0  0  0  0  0  0  0  0  0
  -23.9795  -18.4462  146.7426 C   0  0  0  0  0  0  0  0  0  0  0  0
  -25.1196  -16.8106  145.6409 C   0  0  0  0  0  0  0  0  0  0  0  0
  -25.9236  -16.5070  146.7422 C   0  0  0  0  0  0  0  0  0  0  0  0
  -26.9537  -15.5312  146.7010 C   0  0  0  0  0  0  0  0  0  0  0  0
  -26.8497  -14.5891  145.6741 C   0  0  0  0  0  0  0  0  0  0  0  0
  -27.8089  -13.4970  145.5935 C   0  0  0  0  0  0  0  0  0  0  0  0
  -27.5599  -12.3314  144.8096 C   0  0  0  0  0  0  0  0  0  0  0  0
  -27.0035  -12.5023  143.5947 C   0  0  0  0  0  0  0  0  0  0  0  0
  -24.6720  -18.2461  147.9477 C   0  0  0  0  0  0  0  0  0  0  0  0
  -25.6840  -17.2029  147.9392 C   0  0  0  0  0  0  0  0  0  0  0  0
  -26.0408  -13.6393  143.4912 C   0  0  0  0  0  0  0  0  0  0  0  0
  -25.3111  -13.8573  142.3147 C   0  0  0  0  0  0  0  0  0  0  0  0
  -26.0810  -14.7175  144.5003 C   0  0  0  0  0  0  0  0  0  0  0  0
  -28.5196  -11.1544  144.9977 C   0  0  0  0  0  0  0  0  0  0  0  0
  -28.3017  -10.0276  144.1749 C   0  0  0  0  0  0  0  0  0  0  0  0
  -27.1679   -9.5929  143.7823 C   0  0  0  0  0  0  0  0  0  0  0  0
  -29.5318   -9.4798  143.5533 C   0  0  0  0  0  0  0  0  0  0  0  0
  -29.5606   -8.4528  142.7257 C   0  0  0  0  0  0  0  0  0  0  0  0
  -29.6116   -8.3776  141.5364 C   0  0  0  0  0  0  0  0  0  0  0  0
  -29.4497   -7.1501  140.7069 C   0  0  0  0  0  0  0  0  0  0  0  0
  -29.2977   -6.0541  141.5231 N   0  0  0  0  0  0  0  0  0  0  0  0
  4  5  1  0
  5  6  1  0
  6  7  1  0
  7  8  1  0
  8  9  1  0
  9 12  1  0
 12 13  1  0
  6 14  1  0
 12 14  1  0
  8 15  1  0
 15 16  2  3
 16 17  1  0
 16 18  1  0
 18 19  2  3
 19 20  1  0
 20 21  2  3
 21 22  1  0
  1  2  2  0
  2 10  1  0
 10 11  2  0
 11  4  1  0
  4  3  2  0
  3  1  1  0
M  END

$$$$
No_954-/dssg/home/sw_qyf/PocketFlow/Model-Generation-Results/5HT2A_7WC7_rec_A_10.pdb/2024-01-01-03-54-21/
     RDKit          3D

 35 38  0  0  0  0  0  0  0  0999 V2000
  -23.1746  -16.6014  144.8668 C   0  0  0  0  0  0  0  0  0  0  0  0
  -23.8963  -15.5346  144.7885 C   0  0  0  0  0  0  0  0  0  0  0  0
  -24.5755  -15.0383  145.9043 C   0  0  0  0  0  0  0  0  0  0  0  0
  -24.8345  -15.9108  146.9141 C   0  0  0  0  0  0  0  0  0  0  0  0
  -24.2398  -17.1433  146.9649 C   0  0  0  0  0  0  0  0  0  0  0  0
  -23.4221  -17.5266  145.9093 C   0  0  0  0  0  0  0  0  0  0  0  0
  -25.2356  -13.7053  145.7249 C   0  0  0  0  0  0  0  0  0  0  0  0
  -24.3290  -12.6611  146.0444 C   0  0  0  0  0  0  0  0  0  0  0  0
  -24.2394  -11.7312  145.1301 C   0  0  0  0  0  0  0  0  0  0  0  0
  -26.5053  -13.4822  145.4366 C   0  0  0  0  0  0  0  0  0  0  0  0
  -26.7495  -12.4541  144.5118 C   0  0  0  0  0  0  0  0  0  0  0  0
  -25.8453  -11.2447  144.7622 C   0  0  0  0  0  0  0  0  0  0  0  0
  -26.4643  -12.8874  143.0648 C   0  0  0  0  0  0  0  0  0  0  0  0
  -24.3112  -18.0500  148.1646 C   0  0  0  0  0  0  0  0  0  0  0  0
  -23.5664  -17.4899  149.3951 C   0  0  0  0  0  0  0  0  0  0  0  0
  -24.2743  -17.1231  150.6004 C   0  0  0  0  0  0  0  0  0  0  0  0
  -27.3224  -12.2362  142.1381 C   0  0  0  0  0  0  0  0  0  0  0  0
  -28.2773  -11.2477  142.4899 C   0  0  0  0  0  0  0  0  0  0  0  0
  -29.0183  -10.6347  141.4666 C   0  0  0  0  0  0  0  0  0  0  0  0
  -27.4257  -12.7184  140.7959 C   0  0  0  0  0  0  0  0  0  0  0  0
  -28.2000  -12.1372  139.8302 C   0  0  0  0  0  0  0  0  0  0  0  0
  -29.0056  -11.0755  140.2176 C   0  0  0  0  0  0  0  0  0  0  0  0
  -29.9124   -9.4812  141.8470 C   0  0  0  0  0  0  0  0  0  0  0  0
  -29.6499   -8.1667  141.4003 C   0  0  0  0  0  0  0  0  0  0  0  0
  -29.5741   -7.1199  142.3786 C   0  0  0  0  0  0  0  0  0  0  0  0
  -29.0248   -5.7962  141.9901 C   0  0  0  0  0  0  0  0  0  0  0  0
  -29.2565   -5.4786  140.6355 C   0  0  0  0  0  0  0  0  0  0  0  0
  -29.2576   -7.8829  140.0679 C   0  0  0  0  0  0  0  0  0  0  0  0
  -29.1006   -6.5282  139.7198 C   0  0  0  0  0  0  0  0  0  0  0  0
  -30.9812   -9.6939  142.5397 O   0  0  0  0  0  0  0  0  0  0  0  0
  -28.1658  -12.6109  138.2615 Cl  0  0  0  0  0  0  0  0  0  0  0  0
  -23.6229  -16.7015  151.6383 O   0  0  0  0  0  0  0  0  0  0  0  0
  -25.5393  -17.3019  150.6546 O   0  0  0  0  0  0  0  0  0  0  0  0
  -29.1706   -4.7278  142.9985 C   0  0  0  0  0  0  0  0  0  0  0  0
  -28.8431   -3.4857  142.6766 N   0  0  0  0  0  0  0  0  0  0  0  0
  3  7  1  0
  7  8  1  0
  8  9  1  0
  7 10  1  0
 10 11  1  0
  9 12  1  0
 11 12  1  0
 11 13  1  0
  5 14  1  0
 14 15  1  0
 15 16  1  0
 19 23  1  0
 23 24  1  0
 23 30  2  0
 21 31  1  0
 16 32  1  0
 16 33  2  0
 26 34  1  0
 34 35  1  0
 13 17  1  0
  1  2  2  0
  2  3  1  0
  3  4  2  0
  4  5  1  0
  5  6  2  0
  6  1  1  0
 17 18  2  0
 18 19  1  0
 19 22  2  0
 22 21  1  0
 21 20  2  0
 20 17  1  0
 24 25  2  0
 25 26  1  0
 26 27  2  0
 27 29  1  0
 29 28  2  0
 28 24  1  0
M  END

$$$$
No_955-/dssg/home/sw_qyf/PocketFlow/Model-Generation-Results/5HT2A_7WC7_rec_A_10.pdb/2024-01-01-03-54-21/
     RDKit          3D

 18 19  0  0  0  0  0  0  0  0999 V2000
  -23.1746  -16.6014  144.8668 C   0  0  0  0  0  0  0  0  0  0  0  0
  -23.7011  -17.0158  145.9774 C   0  0  0  0  0  0  0  0  0  0  0  0
  -24.2134  -16.0722  146.8877 C   0  0  0  0  0  0  0  0  0  0  0  0
  -25.2064  -15.3422  146.4171 C   0  0  0  0  0  0  0  0  0  0  0  0
  -26.3570  -15.1251  146.8987 C   0  0  0  0  0  0  0  0  0  0  0  0
  -27.2702  -14.1584  146.3358 C   0  0  0  0  0  0  0  0  0  0  0  0
  -28.5230  -13.8009  146.8800 C   0  0  0  0  0  0  0  0  0  0  0  0
  -29.1531  -14.7224  147.7427 C   0  0  0  0  0  0  0  0  0  0  0  0
  -23.8099  -15.3139  144.5076 C   0  0  0  0  0  0  0  0  0  0  0  0
  -24.4626  -14.6534  145.3706 C   0  0  0  0  0  0  0  0  0  0  0  0
  -28.4480  -15.9008  148.1204 C   0  0  0  0  0  0  0  0  0  0  0  0
  -27.1127  -16.0788  147.7427 C   0  0  0  0  0  0  0  0  0  0  0  0
  -29.2651  -12.6103  146.4372 C   0  0  0  0  0  0  0  0  0  0  0  0
  -29.0816  -12.1218  145.3613 O   0  0  0  0  0  0  0  0  0  0  0  0
  -30.3588  -12.1615  147.2674 O   0  0  0  0  0  0  0  0  0  0  0  0
  -23.1233  -18.3643  146.5590 C   0  0  0  0  0  0  0  0  0  0  0  0
  -23.2004  -19.3252  145.9439 O   0  0  0  0  0  0  0  0  0  0  0  0
  -22.6258  -18.2696  147.7949 O   0  0  0  0  0  0  0  0  0  0  0  0
  7 13  1  0
 13 14  2  0
 13 15  1  0
  2 16  1  0
 16 17  2  0
 16 18  1  0
  5  4  1  0
  5  6  2  0
  6  7  1  0
  7  8  2  0
  8 11  1  0
 11 12  2  0
 12  5  1  0
  1  2  2  0
  2  3  1  0
  3  4  2  0
  4 10  1  0
 10  9  2  0
  9  1  1  0
M  END

$$$$
No_956-/dssg/home/sw_qyf/PocketFlow/Model-Generation-Results/5HT2A_7WC7_rec_A_10.pdb/2024-01-01-03-54-21/
     RDKit          3D

 14 15  0  0  0  0  0  0  0  0999 V2000
  -24.1553  -17.8465  145.7021 C   0  0  0  0  0  0  0  0  0  0  0  0
  -24.2856  -16.6364  145.3494 C   0  0  0  0  0  0  0  0  0  0  0  0
  -24.7211  -15.5955  146.2115 C   0  0  0  0  0  0  0  0  0  0  0  0
  -24.8539  -14.2010  145.8739 C   0  0  0  0  0  0  0  0  0  0  0  0
  -24.1440  -13.8321  144.7074 C   0  0  0  0  0  0  0  0  0  0  0  0
  -24.0661  -12.5356  144.4304 N   0  0  0  0  0  0  0  0  0  0  0  0
  -24.6157  -18.2704  146.9610 C   0  0  0  0  0  0  0  0  0  0  0  0
  -25.1305  -17.4023  147.9249 C   0  0  0  0  0  0  0  0  0  0  0  0
  -25.2112  -15.9965  147.5628 C   0  0  0  0  0  0  0  0  0  0  0  0
  -25.5252  -13.2066  146.5713 C   0  0  0  0  0  0  0  0  0  0  0  0
  -25.4066  -11.8487  146.3565 C   0  0  0  0  0  0  0  0  0  0  0  0
  -24.6390  -11.5647  145.1290 C   0  0  0  0  0  0  0  0  0  0  0  0
  -23.5538  -14.6017  143.9804 O   0  0  0  0  0  0  0  0  0  0  0  0
  -26.1474  -10.8912  146.9363 N   0  0  0  0  0  0  0  0  0  0  0  0
  3  4  1  0
  4  5  1  0
  5  6  1  0
  4 10  1  0
  6 12  1  0
 11 12  1  0
  5 13  2  0
 11 14  1  0
 10 11  1  0
  1  2  2  0
  2  3  1  0
  3  9  2  0
  9  8  1  0
  8  7  2  0
  7  1  1  0
M  END

$$$$
No_957-/dssg/home/sw_qyf/PocketFlow/Model-Generation-Results/5HT2A_7WC7_rec_A_10.pdb/2024-01-01-03-54-21/
     RDKit          3D

 12 12  0  0  0  0  0  0  0  0999 V2000
  -24.1553  -17.8465  145.7021 C   0  0  0  0  0  0  0  0  0  0  0  0
  -24.2855  -16.6364  145.3494 C   0  0  0  0  0  0  0  0  0  0  0  0
  -24.7211  -15.5955  146.2116 C   0  0  0  0  0  0  0  0  0  0  0  0
  -24.8538  -14.2010  145.8739 C   0  0  0  0  0  0  0  0  0  0  0  0
  -25.3912  -13.2248  146.7184 C   0  0  0  0  0  0  0  0  0  0  0  0
  -24.5930  -18.2699  146.9809 C   0  0  0  0  0  0  0  0  0  0  0  0
  -25.1554  -17.3846  147.9076 C   0  0  0  0  0  0  0  0  0  0  0  0
  -25.2071  -15.9636  147.5445 C   0  0  0  0  0  0  0  0  0  0  0  0
  -24.3640  -13.8250  144.5657 C   0  0  0  0  0  0  0  0  0  0  0  0
  -25.3419  -11.8445  146.2821 C   0  0  0  0  0  0  0  0  0  0  0  0
  -24.1668  -14.6864  143.7449 F   0  0  0  0  0  0  0  0  0  0  0  0
  -24.8579  -11.5540  144.9749 C   0  0  0  0  0  0  0  0  0  0  0  0
  3  4  1  0
  4  5  1  0
  4  9  1  0
  5 10  2  3
  9 11  1  0
 10 12  1  0
  1  2  2  0
  2  3  1  0
  3  8  2  0
  8  7  1  0
  7  6  2  0
  6  1  1  0
M  END

$$$$
No_958-/dssg/home/sw_qyf/PocketFlow/Model-Generation-Results/5HT2A_7WC7_rec_A_10.pdb/2024-01-01-03-54-21/
     RDKit          3D

  7  6  0  0  0  0  0  0  0  0999 V2000
  -23.8042  -18.1535  145.4053 O   0  0  0  0  0  0  0  0  0  0  0  0
  -24.3135  -17.1214  145.8338 C   0  0  0  0  0  0  0  0  0  0  0  0
  -24.4856  -15.9950  145.0258 C   0  0  0  0  0  0  0  0  0  0  0  0
  -25.3951  -14.9381  145.2879 C   0  0  0  0  0  0  0  0  0  0  0  0
  -25.2282  -13.6469  144.8697 C   0  0  0  0  0  0  0  0  0  0  0  0
  -26.0821  -12.5877  145.2583 C   0  0  0  0  0  0  0  0  0  0  0  0
  -25.8268  -11.3530  145.2550 C   0  0  0  0  0  0  0  0  0  0  0  0
  1  2  1  0
  2  3  1  0
  3  4  1  0
  4  5  1  0
  5  6  1  0
  6  7  3  0
M  END

$$$$
No_959-/dssg/home/sw_qyf/PocketFlow/Model-Generation-Results/5HT2A_7WC7_rec_A_10.pdb/2024-01-01-03-54-21/
     RDKit          3D

 35 38  0  0  0  0  0  0  0  0999 V2000
  -24.1553  -17.8465  145.7021 C   0  0  0  0  0  0  0  0  0  0  0  0
  -24.6364  -17.2931  146.7091 C   0  0  0  0  0  0  0  0  0  0  0  0
  -24.5709  -15.9334  146.8074 C   0  0  0  0  0  0  0  0  0  0  0  0
  -25.1945  -15.2026  145.8427 C   0  0  0  0  0  0  0  0  0  0  0  0
  -26.3677  -14.6515  145.8558 C   0  0  0  0  0  0  0  0  0  0  0  0
  -27.2730  -14.5463  146.9119 C   0  0  0  0  0  0  0  0  0  0  0  0
  -24.0472  -17.0389  144.5772 N   0  0  0  0  0  0  0  0  0  0  0  0
  -24.6551  -15.7656  144.6602 C   0  0  0  0  0  0  0  0  0  0  0  0
  -28.3813  -13.7068  147.0053 C   0  0  0  0  0  0  0  0  0  0  0  0
  -29.3748  -13.7713  147.9474 C   0  0  0  0  0  0  0  0  0  0  0  0
  -30.4262  -12.8211  148.0430 C   0  0  0  0  0  0  0  0  0  0  0  0
  -30.2848  -11.7852  147.1418 N   0  0  0  0  0  0  0  0  0  0  0  0
  -29.3011  -11.6113  146.3037 C   0  0  0  0  0  0  0  0  0  0  0  0
  -28.3170  -12.5516  146.2122 C   0  0  0  0  0  0  0  0  0  0  0  0
  -29.1740  -10.5577  145.3737 N   0  0  0  0  0  0  0  0  0  0  0  0
  -29.0693  -10.6115  144.1359 C   0  0  0  0  0  0  0  0  0  0  0  0
  -29.4452   -9.4840  143.3122 C   0  0  0  0  0  0  0  0  0  0  0  0
  -30.2479   -8.5496  143.7449 C   0  0  0  0  0  0  0  0  0  0  0  0
  -30.7467   -7.4551  142.9466 C   0  0  0  0  0  0  0  0  0  0  0  0
  -30.3822   -7.4419  141.5956 C   0  0  0  0  0  0  0  0  0  0  0  0
  -29.5062   -8.4475  141.1056 C   0  0  0  0  0  0  0  0  0  0  0  0
  -29.0714   -9.4684  141.9715 C   0  0  0  0  0  0  0  0  0  0  0  0
  -29.0358   -8.3928  139.7463 C   0  0  0  0  0  0  0  0  0  0  0  0
  -29.3993   -7.4973  138.7616 C   0  0  0  0  0  0  0  0  0  0  0  0
  -27.7202   -9.0003  139.4484 C   0  0  0  0  0  0  0  0  0  0  0  0
  -28.1591  -11.4105  143.7034 O   0  0  0  0  0  0  0  0  0  0  0  0
  -23.7995  -19.0867  145.3604 N   0  0  0  0  0  0  0  0  0  0  0  0
  -31.4304  -12.8781  148.8824 N   0  0  0  0  0  0  0  0  0  0  0  0
  -28.9726   -7.7420  137.5644 N   0  0  0  0  0  0  0  0  0  0  0  0
  -24.6826  -15.0490  143.5484 O   0  0  0  0  0  0  0  0  0  0  0  0
  -27.3109  -10.0087  140.2601 N   0  0  0  0  0  0  0  0  0  0  0  0
  -27.9798  -10.2368  141.5381 C   0  0  0  0  0  0  0  0  0  0  0  0
  -24.2954  -18.0744  147.9830 N   0  0  0  0  0  0  0  0  0  0  0  0
  -24.0357  -17.4053  149.2016 C   0  0  0  0  0  0  0  0  0  0  0  0
  -25.0629  -17.3390  150.1872 C   0  0  0  0  0  0  0  0  0  0  0  0
  1  2  1  0
  2  3  1  0
  3  4  1  0
  4  5  2  3
  5  6  1  0
  1  7  1  0
  4  8  1  0
  7  8  1  0
 13 15  1  0
 15 16  1  0
 16 17  1  0
 21 23  1  0
 23 24  1  0
 23 25  1  0
 16 26  2  0
  1 27  1  0
 11 28  1  0
 24 29  1  0
  8 30  2  0
 25 31  1  0
 22 32  1  0
 31 32  1  0
  2 33  1  0
 33 34  1  0
 34 35  1  0
  6  9  1  0
 17 18  2  0
 18 19  1  0
 19 20  2  0
 20 21  1  0
 21 22  2  0
 22 17  1  0
  9 10  2  0
 10 11  1  0
 11 12  2  0
 12 13  1  0
 13 14  2  0
 14  9  1  0
M  END

$$$$
No_960-/dssg/home/sw_qyf/PocketFlow/Model-Generation-Results/5HT2A_7WC7_rec_A_10.pdb/2024-01-01-03-54-21/
     RDKit          3D

 35 37  0  0  0  0  0  0  0  0999 V2000
  -24.1553  -17.8465  145.7021 C   0  0  0  0  0  0  0  0  0  0  0  0
  -23.9795  -18.4462  146.7426 C   0  0  0  0  0  0  0  0  0  0  0  0
  -25.1593  -16.8262  145.6925 C   0  0  0  0  0  0  0  0  0  0  0  0
  -26.3426  -16.9003  146.3448 C   0  0  0  0  0  0  0  0  0  0  0  0
  -24.9078  -18.3640  147.8289 C   0  0  0  0  0  0  0  0  0  0  0  0
  -26.0312  -17.5122  147.7122 C   0  0  0  0  0  0  0  0  0  0  0  0
  -27.4996  -16.1150  146.1993 C   0  0  0  0  0  0  0  0  0  0  0  0
  -27.8219  -14.9876  146.4483 C   0  0  0  0  0  0  0  0  0  0  0  0
  -26.9413  -13.8450  146.3210 C   0  0  0  0  0  0  0  0  0  0  0  0
  -25.5355  -13.8421  146.1298 C   0  0  0  0  0  0  0  0  0  0  0  0
  -24.7606  -12.6805  146.2401 C   0  0  0  0  0  0  0  0  0  0  0  0
  -23.3733  -12.7006  145.9807 C   0  0  0  0  0  0  0  0  0  0  0  0
  -23.1183  -12.3325  144.6535 C   0  0  0  0  0  0  0  0  0  0  0  0
  -27.4664  -12.4257  146.4482 C   0  0  0  0  0  0  0  0  0  0  0  0
  -27.9122  -11.9341  145.2107 C   0  0  0  0  0  0  0  0  0  0  0  0
  -27.1086  -11.3121  144.2849 C   0  0  0  0  0  0  0  0  0  0  0  0
  -27.7658  -10.3543  143.5210 C   0  0  0  0  0  0  0  0  0  0  0  0
  -29.1149  -10.4284  143.1307 C   0  0  0  0  0  0  0  0  0  0  0  0
  -29.7035   -9.5957  142.2511 C   0  0  0  0  0  0  0  0  0  0  0  0
  -29.1459   -9.2107  141.2043 C   0  0  0  0  0  0  0  0  0  0  0  0
  -29.6409   -8.1632  140.3596 C   0  0  0  0  0  0  0  0  0  0  0  0
  -30.9386   -7.5729  140.8226 C   0  0  0  0  0  0  0  0  0  0  0  0
  -31.5176   -8.0997  141.9689 C   0  0  0  0  0  0  0  0  0  0  0  0
  -30.9379   -9.0921  142.7202 C   0  0  0  0  0  0  0  0  0  0  0  0
  -28.9608   -7.7408  139.2157 C   0  0  0  0  0  0  0  0  0  0  0  0
  -28.0377   -8.4475  138.7508 O   0  0  0  0  0  0  0  0  0  0  0  0
  -29.2488  -11.0387  145.2334 C   0  0  0  0  0  0  0  0  0  0  0  0
  -29.8864  -10.6019  144.2663 O   0  0  0  0  0  0  0  0  0  0  0  0
  -29.9987  -11.1369  146.6270 C   0  0  0  0  0  0  0  0  0  0  0  0
  -29.4545  -11.6180  147.6742 O   0  0  0  0  0  0  0  0  0  0  0  0
  -31.0719  -10.6330  146.6401 O   0  0  0  0  0  0  0  0  0  0  0  0
  -22.0252  -13.3327  144.1946 C   0  0  0  0  0  0  0  0  0  0  0  0
  -23.3521  -17.7764  144.6715 F   0  0  0  0  0  0  0  0  0  0  0  0
  -27.9190   -8.4116  137.4013 C   0  0  0  0  0  0  0  0  0  0  0  0
  -28.2962  -16.8309  144.9332 Cl  0  0  0  0  0  0  0  0  0  0  0  0
  4  7  1  0
  7  8  2  3
  8  9  1  0
  9 10  2  3
 10 11  1  0
 11 12  1  0
 12 13  1  0
  9 14  1  0
 14 15  1  0
 15 16  2  0
 16 17  1  0
 17 18  2  0
 18 19  1  0
 21 25  1  0
 25 26  1  0
 15 27  1  0
 18 28  1  0
 27 28  1  0
 27 29  1  0
 29 30  1  0
 29 31  2  0
 13 32  1  0
  1 33  1  0
 26 34  1  0
  7 35  1  0
  1  2  2  0
  2  5  1  0
  5  6  2  0
  6  4  1  0
  4  3  2  0
  3  1  1  0
 19 20  2  0
 20 21  1  0
 21 22  2  0
 22 23  1  0
 23 24  2  0
 24 19  1  0
M  END

$$$$
No_961-/dssg/home/sw_qyf/PocketFlow/Model-Generation-Results/5HT2A_7WC7_rec_A_10.pdb/2024-01-01-03-54-21/
     RDKit          3D

 27 30  0  0  0  0  0  0  0  0999 V2000
  -24.1553  -17.8465  145.7021 C   0  0  0  0  0  0  0  0  0  0  0  0
  -24.2855  -16.6364  145.3494 C   0  0  0  0  0  0  0  0  0  0  0  0
  -25.0033  -15.6772  146.0737 C   0  0  0  0  0  0  0  0  0  0  0  0
  -25.6964  -16.1809  147.2049 C   0  0  0  0  0  0  0  0  0  0  0  0
  -24.8143  -18.3454  146.8324 C   0  0  0  0  0  0  0  0  0  0  0  0
  -25.5291  -17.4614  147.6374 C   0  0  0  0  0  0  0  0  0  0  0  0
  -23.4800  -15.9558  143.9416 Cl  0  0  0  0  0  0  0  0  0  0  0  0
  -25.1871  -14.2310  145.6876 C   0  0  0  0  0  0  0  0  0  0  0  0
  -25.1382  -13.6292  144.5928 C   0  0  0  0  0  0  0  0  0  0  0  0
  -25.1457  -12.4025  144.5351 O   0  0  0  0  0  0  0  0  0  0  0  0
  -26.1239  -11.7609  145.3117 C   0  0  0  0  0  0  0  0  0  0  0  0
  -26.4709  -10.5013  145.2277 C   0  0  0  0  0  0  0  0  0  0  0  0
  -26.6624  -12.5475  146.4460 C   0  0  0  0  0  0  0  0  0  0  0  0
  -26.2709  -13.8414  146.6197 C   0  0  0  0  0  0  0  0  0  0  0  0
  -27.8139  -10.2115  144.5141 C   0  0  0  0  0  0  0  0  0  0  0  0
  -28.8464  -10.9572  144.9351 C   0  0  0  0  0  0  0  0  0  0  0  0
  -30.1410  -10.5309  144.4804 C   0  0  0  0  0  0  0  0  0  0  0  0
  -30.2835   -9.3748  143.6205 C   0  0  0  0  0  0  0  0  0  0  0  0
  -29.1253   -8.7142  143.2250 C   0  0  0  0  0  0  0  0  0  0  0  0
  -27.8329   -9.0845  143.7120 C   0  0  0  0  0  0  0  0  0  0  0  0
  -31.5928   -8.9643  143.1519 C   0  0  0  0  0  0  0  0  0  0  0  0
  -31.8204   -7.9487  142.5409 O   0  0  0  0  0  0  0  0  0  0  0  0
  -29.3459   -7.4192  142.6362 C   0  0  0  0  0  0  0  0  0  0  0  0
  -30.6991   -7.1755  142.0304 C   0  0  0  0  0  0  0  0  0  0  0  0
  -32.6203   -9.7178  143.2690 O   0  0  0  0  0  0  0  0  0  0  0  0
  -23.4956  -18.7779  144.9488 O   0  0  0  0  0  0  0  0  0  0  0  0
  -28.4802   -6.4812  142.5322 O   0  0  0  0  0  0  0  0  0  0  0  0
  2  7  1  0
  3  8  1  0
  8  9  1  0
  9 10  1  0
 10 11  1  0
 11 12  1  0
 11 13  1  0
  8 14  1  0
 13 14  2  0
 12 15  1  0
 18 21  1  0
 21 22  1  0
 19 23  1  0
 22 24  1  0
 23 24  1  0
 21 25  2  0
  1 26  1  0
 23 27  2  0
 15 16  2  0
 16 17  1  0
 17 18  2  0
 18 19  1  0
 19 20  2  0
 20 15  1  0
  1  2  2  0
  2  3  1  0
  3  4  2  0
  4  6  1  0
  6  5  2  0
  5  1  1  0
M  END

$$$$
No_962-/dssg/home/sw_qyf/PocketFlow/Model-Generation-Results/5HT2A_7WC7_rec_A_10.pdb/2024-01-01-03-54-21/
     RDKit          3D

 35 37  0  0  0  0  0  0  0  0999 V2000
  -23.1746  -16.6014  144.8668 C   0  0  0  0  0  0  0  0  0  0  0  0
  -23.8963  -15.5346  144.7885 C   0  0  0  0  0  0  0  0  0  0  0  0
  -25.0304  -15.2549  144.5358 C   0  0  0  0  0  0  0  0  0  0  0  0
  -25.6045  -13.9524  144.2294 C   0  0  0  0  0  0  0  0  0  0  0  0
  -24.8624  -12.8904  144.6738 C   0  0  0  0  0  0  0  0  0  0  0  0
  -23.5278  -13.1645  145.1476 C   0  0  0  0  0  0  0  0  0  0  0  0
  -23.0148  -14.3796  145.1899 C   0  0  0  0  0  0  0  0  0  0  0  0
  -23.7422  -17.6667  145.8444 C   0  0  0  0  0  0  0  0  0  0  0  0
  -23.7968  -18.9192  145.7006 C   0  0  0  0  0  0  0  0  0  0  0  0
  -24.5232  -19.6487  146.7650 C   0  0  0  0  0  0  0  0  0  0  0  0
  -22.7295  -11.8775  145.4512 C   0  0  0  0  0  0  0  0  0  0  0  0
  -25.2125  -18.6518  147.4566 C   0  0  0  0  0  0  0  0  0  0  0  0
  -24.7170  -17.3581  146.9812 C   0  0  0  0  0  0  0  0  0  0  0  0
  -27.0164  -13.7597  143.8437 C   0  0  0  0  0  0  0  0  0  0  0  0
  -27.2487  -12.3979  143.3490 C   0  0  0  0  0  0  0  0  0  0  0  0
  -27.8429  -11.5277  144.2480 C   0  0  0  0  0  0  0  0  0  0  0  0
  -28.7132  -10.7326  143.9787 C   0  0  0  0  0  0  0  0  0  0  0  0
  -29.0502  -10.0428  142.8230 C   0  0  0  0  0  0  0  0  0  0  0  0
  -28.4331  -10.6931  141.7245 C   0  0  0  0  0  0  0  0  0  0  0  0
  -27.6576  -12.0524  141.9780 C   0  0  0  0  0  0  0  0  0  0  0  0
  -29.8165   -8.9411  142.5036 C   0  0  0  0  0  0  0  0  0  0  0  0
  -29.5759   -7.9401  141.5799 C   0  0  0  0  0  0  0  0  0  0  0  0
  -31.3148   -9.0174  142.7961 C   0  0  0  0  0  0  0  0  0  0  0  0
  -29.5961   -7.9170  140.2289 C   0  0  0  0  0  0  0  0  0  0  0  0
  -30.5278   -8.1306  139.3962 C   0  0  0  0  0  0  0  0  0  0  0  0
  -31.6928   -7.9981  139.8460 C   0  0  0  0  0  0  0  0  0  0  0  0
  -31.5229   -8.4932  143.9520 O   0  0  0  0  0  0  0  0  0  0  0  0
  -27.0511  -12.8129  140.6320 Cl  0  0  0  0  0  0  0  0  0  0  0  0
  -32.0870   -9.6865  142.2284 O   0  0  0  0  0  0  0  0  0  0  0  0
  -31.9173   -7.9194  141.1117 F   0  0  0  0  0  0  0  0  0  0  0  0
  -25.6626  -16.2401  146.9134 C   0  0  0  0  0  0  0  0  0  0  0  0
  -27.0337  -16.4658  147.0577 C   0  0  0  0  0  0  0  0  0  0  0  0
  -27.9643  -15.4222  147.2497 C   0  0  0  0  0  0  0  0  0  0  0  0
  -29.3428  -15.5479  147.0535 C   0  0  0  0  0  0  0  0  0  0  0  0
  -30.2114  -14.4659  147.3062 C   0  0  0  0  0  0  0  0  0  0  0  0
  1  2  1  0
  1  8  1  0
  8  9  2  0
  9 10  1  0
  6 11  1  0
 10 12  2  0
  8 13  1  0
 12 13  1  0
  4 14  1  0
 14 15  1  0
 18 21  1  0
 21 22  2  3
 21 23  1  0
 22 24  1  0
 24 25  2  3
 25 26  1  0
 23 27  1  0
 20 28  1  0
 23 29  2  0
 26 30  1  0
 13 31  1  0
 31 32  2  3
 32 33  1  0
 33 34  2  3
 34 35  1  0
 15 16  2  0
 16 17  1  0
 17 18  2  0
 18 19  1  0
 19 20  2  0
 20 15  1  0
  2  3  2  0
  3  4  1  0
  4  5  2  0
  5  6  1  0
  6  7  2  0
  7  2  1  0
M  END

$$$$
No_963-/dssg/home/sw_qyf/PocketFlow/Model-Generation-Results/5HT2A_7WC7_rec_A_10.pdb/2024-01-01-03-54-21/
     RDKit          3D

 27 29  0  0  0  0  0  0  0  0999 V2000
  -24.1553  -17.8465  145.7021 C   0  0  0  0  0  0  0  0  0  0  0  0
  -24.2856  -16.6364  145.3494 C   0  0  0  0  0  0  0  0  0  0  0  0
  -23.7824  -15.9602  144.3553 C   0  0  0  0  0  0  0  0  0  0  0  0
  -24.0538  -14.4894  144.2905 C   0  0  0  0  0  0  0  0  0  0  0  0
  -24.6859  -13.9584  145.2506 C   0  0  0  0  0  0  0  0  0  0  0  0
  -24.8968  -12.4395  145.2807 C   0  0  0  0  0  0  0  0  0  0  0  0
  -25.9689  -11.9013  146.0821 C   0  0  0  0  0  0  0  0  0  0  0  0
  -25.0257  -15.7136  146.3535 C   0  0  0  0  0  0  0  0  0  0  0  0
  -25.2050  -14.4428  146.3585 C   0  0  0  0  0  0  0  0  0  0  0  0
  -24.8473  -18.5858  146.6839 C   0  0  0  0  0  0  0  0  0  0  0  0
  -25.4562  -17.7952  147.6835 C   0  0  0  0  0  0  0  0  0  0  0  0
  -25.5655  -16.5332  147.6408 C   0  0  0  0  0  0  0  0  0  0  0  0
  -26.4256  -10.5436  145.7559 C   0  0  0  0  0  0  0  0  0  0  0  0
  -27.1222  -10.3671  144.4741 C   0  0  0  0  0  0  0  0  0  0  0  0
  -28.3245   -9.6578  144.4965 C   0  0  0  0  0  0  0  0  0  0  0  0
  -28.9013   -9.2812  143.2813 C   0  0  0  0  0  0  0  0  0  0  0  0
  -28.6063  -10.0305  142.1349 C   0  0  0  0  0  0  0  0  0  0  0  0
  -27.4963  -10.9666  142.2197 C   0  0  0  0  0  0  0  0  0  0  0  0
  -26.7525  -11.1258  143.4055 C   0  0  0  0  0  0  0  0  0  0  0  0
  -30.1153   -8.4497  143.2404 C   0  0  0  0  0  0  0  0  0  0  0  0
  -30.3454   -7.6980  142.4754 C   0  0  0  0  0  0  0  0  0  0  0  0
  -29.4199   -7.4061  141.3625 C   0  0  0  0  0  0  0  0  0  0  0  0
  -29.1786   -8.1988  140.2399 C   0  0  0  0  0  0  0  0  0  0  0  0
  -28.8813   -7.7314  139.0190 C   0  0  0  0  0  0  0  0  0  0  0  0
  -28.2877   -8.7563  138.0816 C   0  0  0  0  0  0  0  0  0  0  0  0
  -27.9485   -9.9929  138.5359 C   0  0  0  0  0  0  0  0  0  0  0  0
  -28.1895  -10.3644  139.8447 C   0  0  0  0  0  0  0  0  0  0  0  0
  5  6  1  0
  6  7  2  3
  7 13  1  0
 13 14  1  0
 16 20  1  0
 20 21  2  3
 21 22  1  0
 22 23  2  3
 23 24  1  0
 24 25  2  3
 25 26  1  0
 26 27  2  0
 14 15  2  0
 15 16  1  0
 16 17  2  0
 17 18  1  0
 18 19  2  0
 19 14  1  0
  2  3  1  0
  3  4  2  0
  4  5  1  0
  5  9  2  0
  9  8  1  0
  1  2  2  0
  2  8  1  0
  8 12  2  0
 12 11  1  0
 11 10  2  0
 10  1  1  0
M  END

$$$$
No_964-/dssg/home/sw_qyf/PocketFlow/Model-Generation-Results/5HT2A_7WC7_rec_A_10.pdb/2024-01-01-03-54-21/
     RDKit          3D

 18 20  0  0  0  0  0  0  0  0999 V2000
  -23.1746  -16.6014  144.8668 C   0  0  0  0  0  0  0  0  0  0  0  0
  -24.0189  -16.0564  145.8445 C   0  0  0  0  0  0  0  0  0  0  0  0
  -24.4850  -14.7380  145.6359 C   0  0  0  0  0  0  0  0  0  0  0  0
  -24.0208  -14.0081  144.6269 C   0  0  0  0  0  0  0  0  0  0  0  0
  -24.4092  -12.5999  144.5318 C   0  0  0  0  0  0  0  0  0  0  0  0
  -25.4740  -12.1564  145.3988 C   0  0  0  0  0  0  0  0  0  0  0  0
  -26.2979  -12.7040  145.5651 C   0  0  0  0  0  0  0  0  0  0  0  0
  -25.9063  -14.2191  146.1193 C   0  0  0  0  0  0  0  0  0  0  0  0
  -25.0295  -16.9055  146.5475 C   0  0  0  0  0  0  0  0  0  0  0  0
  -24.4903  -18.1061  146.9489 C   0  0  0  0  0  0  0  0  0  0  0  0
  -23.8893  -18.9477  145.9826 C   0  0  0  0  0  0  0  0  0  0  0  0
  -23.0237  -18.2136  145.0349 C   0  0  0  0  0  0  0  0  0  0  0  0
  -27.7158  -12.5167  145.9764 C   0  0  0  0  0  0  0  0  0  0  0  0
  -28.5520  -11.5569  146.3376 C   0  0  0  0  0  0  0  0  0  0  0  0
  -29.8897  -11.5619  146.6384 C   0  0  0  0  0  0  0  0  0  0  0  0
  -30.2673  -12.7939  146.9735 N   0  0  0  0  0  0  0  0  0  0  0  0
  -29.6241  -13.9433  146.8643 C   0  0  0  0  0  0  0  0  0  0  0  0
  -28.3051  -13.8732  146.4307 C   0  0  0  0  0  0  0  0  0  0  0  0
  2  3  1  0
  7 13  1  0
  1  2  2  0
  2  9  1  0
  9 10  2  0
 10 11  1  0
 11 12  2  0
 12  1  1  0
 13 14  2  0
 14 15  1  0
 15 16  2  0
 16 17  1  0
 17 18  2  0
 18 13  1  0
  3  4  2  0
  4  5  1  0
  5  6  2  0
  6  7  1  0
  7  8  2  0
  8  3  1  0
M  END

$$$$
No_965-/dssg/home/sw_qyf/PocketFlow/Model-Generation-Results/5HT2A_7WC7_rec_A_10.pdb/2024-01-01-03-54-21/
     RDKit          3D

 15 15  0  0  0  0  0  0  0  0999 V2000
  -24.1553  -17.8465  145.7021 C   0  0  0  0  0  0  0  0  0  0  0  0
  -23.9795  -18.4462  146.7426 C   0  0  0  0  0  0  0  0  0  0  0  0
  -23.2486  -17.2339  144.9771 C   0  0  0  0  0  0  0  0  0  0  0  0
  -23.8337  -18.0729  147.7803 C   0  0  0  0  0  0  0  0  0  0  0  0
  -23.3262  -16.6146  147.9114 C   0  0  0  0  0  0  0  0  0  0  0  0
  -23.8406  -16.2087  144.0297 C   0  0  0  0  0  0  0  0  0  0  0  0
  -24.2265  -14.8725  144.7060 C   0  0  0  0  0  0  0  0  0  0  0  0
  -24.6383  -13.8491  144.0254 C   0  0  0  0  0  0  0  0  0  0  0  0
  -25.3208  -13.1072  144.7774 C   0  0  0  0  0  0  0  0  0  0  0  0
  -25.2401  -13.2637  146.1586 C   0  0  0  0  0  0  0  0  0  0  0  0
  -24.5660  -14.5746  146.1647 C   0  0  0  0  0  0  0  0  0  0  0  0
  -22.8725  -16.3931  149.3832 C   0  0  0  0  0  0  0  0  0  0  0  0
  -23.8769  -19.7818  146.5031 O   0  0  0  0  0  0  0  0  0  0  0  0
  -23.3872  -17.3105  150.3110 C   0  0  0  0  0  0  0  0  0  0  0  0
  -22.9821  -16.9464  151.6245 N   0  0  0  0  0  0  0  0  0  0  0  0
  1  2  1  0
  1  3  2  3
  2  4  1  0
  4  5  1  0
  3  6  1  0
  6  7  1  0
  7  8  2  0
  8  9  1  0
  9 10  2  0
  7 11  1  0
 10 11  1  0
  5 12  1  0
  2 13  2  0
 12 14  2  3
 14 15  1  0
M  END

$$$$
No_966-/dssg/home/sw_qyf/PocketFlow/Model-Generation-Results/5HT2A_7WC7_rec_A_10.pdb/2024-01-01-03-54-21/
     RDKit          3D

 33 34  0  0  0  0  0  0  0  0999 V2000
  -23.1746  -16.6014  144.8668 C   0  0  0  0  0  0  0  0  0  0  0  0
  -23.7011  -17.0158  145.9774 C   0  0  0  0  0  0  0  0  0  0  0  0
  -23.7336  -18.2775  146.3737 C   0  0  0  0  0  0  0  0  0  0  0  0
  -23.2769  -15.1496  144.5841 C   0  0  0  0  0  0  0  0  0  0  0  0
  -24.0862  -14.2431  145.3742 C   0  0  0  0  0  0  0  0  0  0  0  0
  -24.7183  -14.7375  146.5381 C   0  0  0  0  0  0  0  0  0  0  0  0
  -24.5256  -16.1192  146.8667 C   0  0  0  0  0  0  0  0  0  0  0  0
  -24.1215  -12.8263  145.0526 C   0  0  0  0  0  0  0  0  0  0  0  0
  -23.0297  -12.3475  144.7425 O   0  0  0  0  0  0  0  0  0  0  0  0
  -25.1185  -12.0988  145.4182 N   0  0  0  0  0  0  0  0  0  0  0  0
  -26.3900  -12.4688  145.9453 C   0  0  0  0  0  0  0  0  0  0  0  0
  -27.4670  -11.5331  145.4984 C   0  0  0  0  0  0  0  0  0  0  0  0
  -27.3454  -10.5757  144.5455 C   0  0  0  0  0  0  0  0  0  0  0  0
  -28.4265   -9.8418  144.0773 C   0  0  0  0  0  0  0  0  0  0  0  0
  -28.3245   -8.9045  143.0729 C   0  0  0  0  0  0  0  0  0  0  0  0
  -29.4378   -8.5399  142.3142 C   0  0  0  0  0  0  0  0  0  0  0  0
  -30.7443   -8.9455  142.7179 C   0  0  0  0  0  0  0  0  0  0  0  0
  -31.7231   -8.6153  141.9492 F   0  0  0  0  0  0  0  0  0  0  0  0
  -30.8061   -9.8408  143.7758 C   0  0  0  0  0  0  0  0  0  0  0  0
  -29.7125  -10.3195  144.4574 C   0  0  0  0  0  0  0  0  0  0  0  0
  -29.2813   -7.5332  141.2235 C   0  0  0  0  0  0  0  0  0  0  0  0
  -29.8242   -6.2662  141.2262 C   0  0  0  0  0  0  0  0  0  0  0  0
  -28.6879   -7.9967  140.0432 C   0  0  0  0  0  0  0  0  0  0  0  0
  -28.0115   -9.1555  139.8742 C   0  0  0  0  0  0  0  0  0  0  0  0
  -27.8298  -10.0550  138.9263 C   0  0  0  0  0  0  0  0  0  0  0  0
  -27.1379  -11.2987  139.1621 C   0  0  0  0  0  0  0  0  0  0  0  0
  -27.8080  -12.4909  139.1205 C   0  0  0  0  0  0  0  0  0  0  0  0
  -22.8499  -18.9519  146.5620 O   0  0  0  0  0  0  0  0  0  0  0  0
  -24.9413  -18.9433  146.5073 O   0  0  0  0  0  0  0  0  0  0  0  0
  -29.1925  -12.4149  139.3122 C   0  0  0  0  0  0  0  0  0  0  0  0
  -28.9361   -5.4668  141.7269 F   0  0  0  0  0  0  0  0  0  0  0  0
  -29.9392   -5.8344  139.9747 F   0  0  0  0  0  0  0  0  0  0  0  0
  -26.4458  -13.0701  147.0197 O   0  0  0  0  0  0  0  0  0  0  0  0
  2  3  1  0
  5  8  1  0
  8  9  2  0
  8 10  1  0
 10 11  1  0
 11 12  1  0
 12 13  2  3
 13 14  1  0
 17 18  1  0
 16 21  1  0
 21 22  1  0
 21 23  1  0
 23 24  2  3
 24 25  1  0
 25 26  2  3
 26 27  1  0
  3 28  2  0
  3 29  1  0
 27 30  1  0
 22 31  1  0
 22 32  1  0
 11 33  2  0
  1  2  2  0
  2  7  1  0
  7  6  2  0
  6  5  1  0
  5  4  2  0
  4  1  1  0
 14 15  2  0
 15 16  1  0
 16 17  2  0
 17 19  1  0
 19 20  2  0
 20 14  1  0
M  END

$$$$
No_967-/dssg/home/sw_qyf/PocketFlow/Model-Generation-Results/5HT2A_7WC7_rec_A_10.pdb/2024-01-01-03-54-21/
     RDKit          3D

 35 38  0  0  0  0  0  0  0  0999 V2000
  -24.1553  -17.8465  145.7021 C   0  0  0  0  0  0  0  0  0  0  0  0
  -23.9795  -18.4462  146.7426 C   0  0  0  0  0  0  0  0  0  0  0  0
  -25.1196  -16.8106  145.6408 C   0  0  0  0  0  0  0  0  0  0  0  0
  -25.2440  -15.8776  144.5240 C   0  0  0  0  0  0  0  0  0  0  0  0
  -26.0733  -14.7284  144.7060 C   0  0  0  0  0  0  0  0  0  0  0  0
  -27.0964  -14.7050  145.6625 C   0  0  0  0  0  0  0  0  0  0  0  0
  -28.0285  -13.6627  145.7566 C   0  0  0  0  0  0  0  0  0  0  0  0
  -27.7984  -12.4875  144.9467 C   0  0  0  0  0  0  0  0  0  0  0  0
  -28.6026  -11.2998  145.2033 C   0  0  0  0  0  0  0  0  0  0  0  0
  -29.5826  -11.2233  146.1567 C   0  0  0  0  0  0  0  0  0  0  0  0
  -29.7191  -12.2768  147.1102 C   0  0  0  0  0  0  0  0  0  0  0  0
  -28.9734  -13.5181  146.9052 C   0  0  0  0  0  0  0  0  0  0  0  0
  -24.5894  -18.0572  148.0063 C   0  0  0  0  0  0  0  0  0  0  0  0
  -25.0615  -16.8031  147.9821 C   0  0  0  0  0  0  0  0  0  0  0  0
  -25.4656  -16.0765  146.8730 C   0  0  0  0  0  0  0  0  0  0  0  0
  -26.1444  -14.8999  146.9460 C   0  0  0  0  0  0  0  0  0  0  0  0
  -28.4417  -10.1647  144.2504 C   0  0  0  0  0  0  0  0  0  0  0  0
  -28.9564  -10.3044  142.9277 C   0  0  0  0  0  0  0  0  0  0  0  0
  -29.4828   -9.2032  142.2694 C   0  0  0  0  0  0  0  0  0  0  0  0
  -30.5674   -8.4646  142.6819 C   0  0  0  0  0  0  0  0  0  0  0  0
  -30.6470   -7.2398  142.4277 O   0  0  0  0  0  0  0  0  0  0  0  0
  -30.6220  -12.2225  148.1532 N   0  0  0  0  0  0  0  0  0  0  0  0
  -31.5036   -9.0590  143.3550 O   0  0  0  0  0  0  0  0  0  0  0  0
  -28.9012   -8.8171  140.9508 C   0  0  0  0  0  0  0  0  0  0  0  0
  -28.0063   -9.6463  140.3143 C   0  0  0  0  0  0  0  0  0  0  0  0
  -27.6806   -9.3836  138.9722 C   0  0  0  0  0  0  0  0  0  0  0  0
  -28.2087   -8.1854  138.4254 C   0  0  0  0  0  0  0  0  0  0  0  0
  -29.1329   -7.3735  139.1553 C   0  0  0  0  0  0  0  0  0  0  0  0
  -29.5082   -7.7401  140.3354 C   0  0  0  0  0  0  0  0  0  0  0  0
  -31.6461  -12.6255  148.5982 C   0  0  0  0  0  0  0  0  0  0  0  0
  -32.1596  -13.5238  147.9843 O   0  0  0  0  0  0  0  0  0  0  0  0
  -32.4831  -11.7009  149.5003 C   0  0  0  0  0  0  0  0  0  0  0  0
  -33.8774  -11.8755  149.4880 C   0  0  0  0  0  0  0  0  0  0  0  0
  -27.8968   -7.8891  137.2276 F   0  0  0  0  0  0  0  0  0  0  0  0
  -26.1271  -16.7354  149.0128 F   0  0  0  0  0  0  0  0  0  0  0  0
  6  7  1  0
  7  8  1  0
  8  9  1  0
  9 10  1  0
 10 11  1  0
  7 12  1  0
 11 12  1  0
  9 17  1  0
 17 18  1  0
 18 19  1  0
 19 20  1  0
 20 21  2  0
 11 22  1  0
 20 23  1  0
 19 24  1  0
 22 30  1  0
 30 31  2  0
 30 32  1  0
 32 33  1  0
 27 34  1  0
 14 35  1  0
  3  4  2  0
  4  5  1  0
  5  6  2  0
  6 16  1  0
 16 15  2  0
 24 25  2  0
 25 26  1  0
 26 27  2  0
 27 28  1  0
 28 29  2  0
 29 24  1  0
  1  2  2  0
  2 13  1  0
 13 14  2  0
 14 15  1  0
 15  3  1  0
  3  1  1  0
M  END

$$$$
No_968-/dssg/home/sw_qyf/PocketFlow/Model-Generation-Results/5HT2A_7WC7_rec_A_10.pdb/2024-01-01-03-54-21/
     RDKit          3D

 28 29  0  0  0  0  0  0  0  0999 V2000
  -24.1553  -17.8465  145.7021 C   0  0  0  0  0  0  0  0  0  0  0  0
  -24.6364  -17.2931  146.7091 C   0  0  0  0  0  0  0  0  0  0  0  0
  -25.8608  -16.5591  146.5934 C   0  0  0  0  0  0  0  0  0  0  0  0
  -26.9933  -16.9082  147.1889 C   0  0  0  0  0  0  0  0  0  0  0  0
  -28.2350  -16.1839  146.8943 C   0  0  0  0  0  0  0  0  0  0  0  0
  -28.1591  -14.9305  146.2109 C   0  0  0  0  0  0  0  0  0  0  0  0
  -26.9098  -14.5235  145.6600 C   0  0  0  0  0  0  0  0  0  0  0  0
  -25.7461  -15.3614  145.8720 C   0  0  0  0  0  0  0  0  0  0  0  0
  -26.8049  -13.2839  144.9023 C   0  0  0  0  0  0  0  0  0  0  0  0
  -26.5767  -13.3510  143.6470 C   0  0  0  0  0  0  0  0  0  0  0  0
  -27.4426  -13.1896  142.6517 C   0  0  0  0  0  0  0  0  0  0  0  0
  -26.9841  -12.8556  141.3372 C   0  0  0  0  0  0  0  0  0  0  0  0
  -27.7448  -12.1048  140.4491 C   0  0  0  0  0  0  0  0  0  0  0  0
  -27.1294  -10.9807  139.8893 C   0  0  0  0  0  0  0  0  0  0  0  0
  -28.0386   -9.8954  139.4445 C   0  0  0  0  0  0  0  0  0  0  0  0
  -28.8826   -8.9763  140.1913 C   0  0  0  0  0  0  0  0  0  0  0  0
  -29.3128   -9.3045  141.4496 C   0  0  0  0  0  0  0  0  0  0  0  0
  -30.2445   -8.5025  142.1562 C   0  0  0  0  0  0  0  0  0  0  0  0
  -31.0485   -9.0035  143.1826 C   0  0  0  0  0  0  0  0  0  0  0  0
  -32.2046   -8.5784  143.4175 O   0  0  0  0  0  0  0  0  0  0  0  0
  -24.0116  -17.4693  148.0627 C   0  0  0  0  0  0  0  0  0  0  0  0
  -24.5573  -17.1334  149.2623 C   0  0  0  0  0  0  0  0  0  0  0  0
  -23.8469  -17.2697  150.4817 C   0  0  0  0  0  0  0  0  0  0  0  0
  -22.4407  -17.3584  150.4295 C   0  0  0  0  0  0  0  0  0  0  0  0
  -21.8603  -17.1434  149.1914 C   0  0  0  0  0  0  0  0  0  0  0  0
  -22.5706  -17.3564  148.0148 C   0  0  0  0  0  0  0  0  0  0  0  0
  -29.1441   -7.6800  139.7387 C   0  0  0  0  0  0  0  0  0  0  0  0
  -30.5476   -9.7817  144.0935 O   0  0  0  0  0  0  0  0  0  0  0  0
  1  2  1  0
  2  3  1  0
  7  9  1  0
  9 10  2  3
 10 11  1  0
 11 12  2  3
 12 13  1  0
 13 14  1  0
 14 15  1  0
 15 16  1  0
 16 17  1  0
 17 18  2  3
 18 19  1  0
 19 20  1  0
  2 21  1  0
 16 27  1  0
 19 28  2  0
  3  4  2  0
  4  5  1  0
  5  6  2  0
  6  7  1  0
  7  8  2  0
  8  3  1  0
 21 22  2  0
 22 23  1  0
 23 24  2  0
 24 25  1  0
 25 26  2  0
 26 21  1  0
M  END

$$$$
No_969-/dssg/home/sw_qyf/PocketFlow/Model-Generation-Results/5HT2A_7WC7_rec_A_10.pdb/2024-01-01-03-54-21/
     RDKit          3D

 24 25  0  0  0  0  0  0  0  0999 V2000
  -24.1553  -17.8465  145.7021 C   0  0  0  0  0  0  0  0  0  0  0  0
  -24.2856  -16.6364  145.3494 C   0  0  0  0  0  0  0  0  0  0  0  0
  -24.7211  -15.5955  146.2116 C   0  0  0  0  0  0  0  0  0  0  0  0
  -25.1321  -16.0374  147.5372 C   0  0  0  0  0  0  0  0  0  0  0  0
  -24.5141  -18.2630  147.0046 C   0  0  0  0  0  0  0  0  0  0  0  0
  -24.9573  -17.2963  147.9769 C   0  0  0  0  0  0  0  0  0  0  0  0
  -24.8720  -14.1818  145.7974 C   0  0  0  0  0  0  0  0  0  0  0  0
  -24.1212  -13.7395  144.8114 C   0  0  0  0  0  0  0  0  0  0  0  0
  -23.4158  -12.8053  144.7442 C   0  0  0  0  0  0  0  0  0  0  0  0
  -22.2595  -12.5650  143.9032 C   0  0  0  0  0  0  0  0  0  0  0  0
  -22.0430  -13.5921  143.1435 F   0  0  0  0  0  0  0  0  0  0  0  0
  -23.6047  -11.5693  145.7095 C   0  0  0  0  0  0  0  0  0  0  0  0
  -24.6423  -11.9433  146.7608 C   0  0  0  0  0  0  0  0  0  0  0  0
  -25.1601  -13.2320  146.8909 C   0  0  0  0  0  0  0  0  0  0  0  0
  -21.0244  -12.4528  144.7253 F   0  0  0  0  0  0  0  0  0  0  0  0
  -25.2930  -17.7042  149.3796 C   0  0  0  0  0  0  0  0  0  0  0  0
  -24.4347  -17.3778  150.3820 N   0  0  0  0  0  0  0  0  0  0  0  0
  -23.3962  -16.6063  150.2740 C   0  0  0  0  0  0  0  0  0  0  0  0
  -23.1410  -15.8925  149.3542 F   0  0  0  0  0  0  0  0  0  0  0  0
  -22.2772  -16.8806  151.1845 N   0  0  0  0  0  0  0  0  0  0  0  0
  -23.7881  -18.7897  144.8613 F   0  0  0  0  0  0  0  0  0  0  0  0
  -22.2446  -11.4934  143.3500 F   0  0  0  0  0  0  0  0  0  0  0  0
  -23.9466  -16.2507  144.1497 F   0  0  0  0  0  0  0  0  0  0  0  0
  -26.4196  -18.0825  149.6231 O   0  0  0  0  0  0  0  0  0  0  0  0
  3  7  1  0
  9 10  1  0
 10 11  1  0
 10 15  1  0
  6 16  1  0
 16 17  1  0
 17 18  1  0
 18 19  1  0
 18 20  1  0
  1 21  1  0
 10 22  1  0
  2 23  1  0
 16 24  2  0
  7  8  2  0
  8  9  1  0
  9 12  2  0
 12 13  1  0
 13 14  2  0
 14  7  1  0
  1  2  2  0
  2  3  1  0
  3  4  2  0
  4  6  1  0
  6  5  2  0
  5  1  1  0
M  END

$$$$
No_970-/dssg/home/sw_qyf/PocketFlow/Model-Generation-Results/5HT2A_7WC7_rec_A_10.pdb/2024-01-01-03-54-21/
     RDKit          3D

 18 19  0  0  0  0  0  0  0  0999 V2000
  -24.1553  -17.8465  145.7021 C   0  0  0  0  0  0  0  0  0  0  0  0
  -24.2856  -16.6364  145.3494 C   0  0  0  0  0  0  0  0  0  0  0  0
  -24.7211  -15.5955  146.2116 C   0  0  0  0  0  0  0  0  0  0  0  0
  -25.1321  -16.0374  147.5372 C   0  0  0  0  0  0  0  0  0  0  0  0
  -24.5163  -18.2968  146.9928 C   0  0  0  0  0  0  0  0  0  0  0  0
  -24.9534  -17.3074  147.9886 C   0  0  0  0  0  0  0  0  0  0  0  0
  -24.8795  -14.1918  145.8039 C   0  0  0  0  0  0  0  0  0  0  0  0
  -24.0624  -13.7230  144.8076 C   0  0  0  0  0  0  0  0  0  0  0  0
  -23.9270  -12.2788  144.7434 C   0  0  0  0  0  0  0  0  0  0  0  0
  -24.9492  -11.5434  145.4501 C   0  0  0  0  0  0  0  0  0  0  0  0
  -25.5085  -13.0803  146.5351 C   0  0  0  0  0  0  0  0  0  0  0  0
  -25.2384  -17.6590  149.4075 C   0  0  0  0  0  0  0  0  0  0  0  0
  -25.5402  -16.5358  149.9885 F   0  0  0  0  0  0  0  0  0  0  0  0
  -24.0784  -18.1423  150.0271 F   0  0  0  0  0  0  0  0  0  0  0  0
  -25.7774  -11.8031  146.5846 C   0  0  0  0  0  0  0  0  0  0  0  0
  -27.1738  -11.5162  146.1596 C   0  0  0  0  0  0  0  0  0  0  0  0
  -27.4671  -10.7924  145.0233 C   0  0  0  0  0  0  0  0  0  0  0  0
  -26.6328  -10.3229  144.0512 C   0  0  0  0  0  0  0  0  0  0  0  0
  3  7  1  0
  7  8  2  0
  8  9  1  0
  9 10  2  0
  7 11  1  0
 10 11  1  0
  6 12  1  0
 12 13  1  0
 12 14  1  0
 11 15  1  0
 15 16  1  0
 16 17  2  3
 17 18  1  0
  1  2  2  0
  2  3  1  0
  3  4  2  0
  4  6  1  0
  6  5  2  0
  5  1  1  0
M  END

$$$$
No_971-/dssg/home/sw_qyf/PocketFlow/Model-Generation-Results/5HT2A_7WC7_rec_A_10.pdb/2024-01-01-03-54-21/
     RDKit          3D

 26 29  0  0  0  0  0  0  0  0999 V2000
  -24.1553  -17.8465  145.7021 C   0  0  0  0  0  0  0  0  0  0  0  0
  -23.9795  -18.4462  146.7426 C   0  0  0  0  0  0  0  0  0  0  0  0
  -24.3577  -16.4380  145.7329 C   0  0  0  0  0  0  0  0  0  0  0  0
  -24.4745  -15.6012  144.5587 C   0  0  0  0  0  0  0  0  0  0  0  0
  -24.5845  -14.1656  144.8311 C   0  0  0  0  0  0  0  0  0  0  0  0
  -24.6908  -13.6330  146.1427 C   0  0  0  0  0  0  0  0  0  0  0  0
  -24.6742  -12.2578  146.3968 C   0  0  0  0  0  0  0  0  0  0  0  0
  -23.9827  -17.8753  148.0839 C   0  0  0  0  0  0  0  0  0  0  0  0
  -24.2674  -16.4832  148.1889 C   0  0  0  0  0  0  0  0  0  0  0  0
  -24.4278  -15.7419  147.0519 C   0  0  0  0  0  0  0  0  0  0  0  0
  -24.5822  -14.3700  147.1589 N   0  0  0  0  0  0  0  0  0  0  0  0
  -24.9020  -11.3442  145.2549 C   0  0  0  0  0  0  0  0  0  0  0  0
  -26.2668  -10.8817  145.1074 C   0  0  0  0  0  0  0  0  0  0  0  0
  -27.2830  -11.3455  145.8261 C   0  0  0  0  0  0  0  0  0  0  0  0
  -28.6556  -11.1543  145.3996 C   0  0  0  0  0  0  0  0  0  0  0  0
  -28.8455  -10.7089  144.2829 C   0  0  0  0  0  0  0  0  0  0  0  0
  -27.8746  -10.2000  143.3758 C   0  0  0  0  0  0  0  0  0  0  0  0
  -26.5216  -10.4588  143.8302 C   0  0  0  0  0  0  0  0  0  0  0  0
  -29.7722  -11.5212  146.3485 C   0  0  0  0  0  0  0  0  0  0  0  0
  -30.5334  -10.6071  146.7955 O   0  0  0  0  0  0  0  0  0  0  0  0
  -29.6185  -12.6492  147.0510 N   0  0  0  0  0  0  0  0  0  0  0  0
  -30.4760  -12.9840  148.0762 C   0  0  0  0  0  0  0  0  0  0  0  0
  -30.2897  -14.3021  148.6742 C   0  0  0  0  0  0  0  0  0  0  0  0
  -29.4783  -15.1727  147.9339 C   0  0  0  0  0  0  0  0  0  0  0  0
  -28.6780  -14.8062  146.8805 C   0  0  0  0  0  0  0  0  0  0  0  0
  -28.8240  -13.6112  146.4146 C   0  0  0  0  0  0  0  0  0  0  0  0
  3  4  1  0
  4  5  1  0
  5  6  1  0
  6  7  1  0
  6 11  1  0
 10 11  1  0
  7 12  1  0
 12 13  1  0
 15 19  1  0
 19 20  2  0
 19 21  1  0
 21 22  1  0
 23 24  1  0
 21 26  1  0
 25 26  1  0
 22 23  1  0
 24 25  1  0
 13 14  2  0
 14 15  1  0
 15 16  2  0
 16 17  1  0
 17 18  2  0
 18 13  1  0
  1  2  2  0
  2  8  1  0
  8  9  2  0
  9 10  1  0
 10  3  2  0
  3  1  1  0
M  END

$$$$
No_972-/dssg/home/sw_qyf/PocketFlow/Model-Generation-Results/5HT2A_7WC7_rec_A_10.pdb/2024-01-01-03-54-21/
     RDKit          3D

 35 39  0  0  0  0  0  0  0  0999 V2000
  -23.1746  -16.6014  144.8668 C   0  0  0  0  0  0  0  0  0  0  0  0
  -23.8963  -15.5346  144.7885 C   0  0  0  0  0  0  0  0  0  0  0  0
  -23.4976  -14.2961  145.1226 C   0  0  0  0  0  0  0  0  0  0  0  0
  -24.3175  -13.3088  145.7775 C   0  0  0  0  0  0  0  0  0  0  0  0
  -23.7843  -12.0647  146.2451 C   0  0  0  0  0  0  0  0  0  0  0  0
  -23.6992  -17.6478  145.6597 C   0  0  0  0  0  0  0  0  0  0  0  0
  -24.8471  -17.4887  146.4863 C   0  0  0  0  0  0  0  0  0  0  0  0
  -25.7563  -16.5204  146.2273 C   0  0  0  0  0  0  0  0  0  0  0  0
  -26.9987  -16.3153  146.9234 C   0  0  0  0  0  0  0  0  0  0  0  0
  -27.8545  -15.3002  146.5673 C   0  0  0  0  0  0  0  0  0  0  0  0
  -27.3764  -14.3240  145.6596 C   0  0  0  0  0  0  0  0  0  0  0  0
  -26.2438  -14.5419  144.8911 C   0  0  0  0  0  0  0  0  0  0  0  0
  -25.4839  -15.6477  145.1564 C   0  0  0  0  0  0  0  0  0  0  0  0
  -25.5181  -13.0759  145.0950 C   0  0  0  0  0  0  0  0  0  0  0  0
  -29.1473  -15.1852  147.2353 C   0  0  0  0  0  0  0  0  0  0  0  0
  -29.9661  -13.9867  147.0555 C   0  0  0  0  0  0  0  0  0  0  0  0
  -29.6455  -12.7896  147.8639 C   0  0  0  0  0  0  0  0  0  0  0  0
  -29.9193  -11.4892  147.2419 C   0  0  0  0  0  0  0  0  0  0  0  0
  -29.6223  -11.3234  145.8964 C   0  0  0  0  0  0  0  0  0  0  0  0
  -28.4364  -10.5314  145.6004 C   0  0  0  0  0  0  0  0  0  0  0  0
  -28.0882  -10.4798  144.3047 C   0  0  0  0  0  0  0  0  0  0  0  0
  -29.0636  -10.1205  143.2799 C   0  0  0  0  0  0  0  0  0  0  0  0
  -28.7382  -10.0944  141.9822 C   0  0  0  0  0  0  0  0  0  0  0  0
  -29.4503   -9.3347  141.0627 C   0  0  0  0  0  0  0  0  0  0  0  0
  -28.8813   -8.8464  139.8394 C   0  0  0  0  0  0  0  0  0  0  0  0
  -29.3673   -7.6874  139.1597 C   0  0  0  0  0  0  0  0  0  0  0  0
  -27.8167   -9.5959  139.2227 C   0  0  0  0  0  0  0  0  0  0  0  0
  -27.3636   -9.3693  138.0303 C   0  0  0  0  0  0  0  0  0  0  0  0
  -27.9606   -8.2369  137.3599 C   0  0  0  0  0  0  0  0  0  0  0  0
  -28.9454   -7.4673  137.9014 C   0  0  0  0  0  0  0  0  0  0  0  0
  -27.3101  -10.6958  140.0554 C   0  0  0  0  0  0  0  0  0  0  0  0
  -27.6121  -10.8751  141.4331 C   0  0  0  0  0  0  0  0  0  0  0  0
  -30.2384   -9.7635  143.6582 O   0  0  0  0  0  0  0  0  0  0  0  0
  -26.4160  -11.5132  139.5285 O   0  0  0  0  0  0  0  0  0  0  0  0
  -26.8494  -12.8538  139.4029 C   0  0  0  0  0  0  0  0  0  0  0  0
  2  3  1  0
  3  4  1  0
  4  5  1  0
  4 14  1  0
 12 14  1  0
 10 15  1  0
 15 16  2  3
 16 17  1  0
 17 18  1  0
 18 19  1  0
 19 20  1  0
 20 21  2  3
 21 22  1  0
 22 33  1  0
 31 34  1  0
 34 35  1  0
 22 23  1  0
  1  2  2  0
  2 13  1  0
  8  7  1  0
  7  6  2  0
  6  1  1  0
 23 24  2  0
 24 25  1  0
 27 31  1  0
 31 32  2  0
 32 23  1  0
 25 26  2  0
 26 30  1  0
 30 29  2  0
 29 28  1  0
 28 27  2  0
 27 25  1  0
  8  9  2  0
  9 10  1  0
 10 11  2  0
 11 12  1  0
 12 13  2  0
 13  8  1  0
M  END

$$$$
No_973-/dssg/home/sw_qyf/PocketFlow/Model-Generation-Results/5HT2A_7WC7_rec_A_10.pdb/2024-01-01-03-54-21/
     RDKit          3D

 32 35  0  0  0  0  0  0  0  0999 V2000
  -24.1553  -17.8465  145.7021 C   0  0  0  0  0  0  0  0  0  0  0  0
  -23.9795  -18.4462  146.7426 C   0  0  0  0  0  0  0  0  0  0  0  0
  -24.2723  -16.4220  145.8037 C   0  0  0  0  0  0  0  0  0  0  0  0
  -24.9934  -15.8374  146.8363 C   0  0  0  0  0  0  0  0  0  0  0  0
  -25.2878  -14.4778  146.8072 C   0  0  0  0  0  0  0  0  0  0  0  0
  -24.4015  -18.0073  148.0208 C   0  0  0  0  0  0  0  0  0  0  0  0
  -24.7473  -16.6561  148.1531 C   0  0  0  0  0  0  0  0  0  0  0  0
  -25.7523  -13.9097  145.7899 C   0  0  0  0  0  0  0  0  0  0  0  0
  -26.3577  -14.4818  144.8113 C   0  0  0  0  0  0  0  0  0  0  0  0
  -26.9443  -13.8566  143.6598 C   0  0  0  0  0  0  0  0  0  0  0  0
  -27.4141  -12.5115  143.8018 C   0  0  0  0  0  0  0  0  0  0  0  0
  -26.9135  -11.8263  144.9915 C   0  0  0  0  0  0  0  0  0  0  0  0
  -26.1593  -12.5159  146.0036 C   0  0  0  0  0  0  0  0  0  0  0  0
  -28.0060  -11.8082  142.7152 C   0  0  0  0  0  0  0  0  0  0  0  0
  -28.8422  -10.7842  143.0177 N   0  0  0  0  0  0  0  0  0  0  0  0
  -29.5310  -10.6542  144.1012 C   0  0  0  0  0  0  0  0  0  0  0  0
  -30.3509   -9.4916  144.2515 N   0  0  0  0  0  0  0  0  0  0  0  0
  -29.2575   -9.8671  141.9850 C   0  0  0  0  0  0  0  0  0  0  0  0
  -29.1505   -8.8460  142.0914 C   0  0  0  0  0  0  0  0  0  0  0  0
  -29.4090   -7.7792  140.9993 C   0  0  0  0  0  0  0  0  0  0  0  0
  -30.1882   -8.4737  143.3216 C   0  0  0  0  0  0  0  0  0  0  0  0
  -30.0085   -6.6126  141.1959 C   0  0  0  0  0  0  0  0  0  0  0  0
  -29.0165   -8.1509  139.6969 C   0  0  0  0  0  0  0  0  0  0  0  0
  -29.2396   -8.6565  138.8546 C   0  0  0  0  0  0  0  0  0  0  0  0
  -28.4738   -8.6718  137.5660 C   0  0  0  0  0  0  0  0  0  0  0  0
  -29.5442  -11.3871  145.1460 O   0  0  0  0  0  0  0  0  0  0  0  0
  -28.9994   -9.2435  136.5110 N   0  0  0  0  0  0  0  0  0  0  0  0
  -27.6945  -12.1495  141.6084 O   0  0  0  0  0  0  0  0  0  0  0  0
  -24.1285  -15.7066  144.6501 N   0  0  0  0  0  0  0  0  0  0  0  0
  -24.8846  -14.7197  144.2632 C   0  0  0  0  0  0  0  0  0  0  0  0
  -22.9470  -16.0076  143.9454 C   0  0  0  0  0  0  0  0  0  0  0  0
  -27.4602   -7.8607  137.4998 N   0  0  0  0  0  0  0  0  0  0  0  0
  5  8  1  0
 11 14  1  0
 14 15  1  0
 15 16  1  0
 16 17  1  0
 15 18  1  0
 18 19  1  0
 19 20  1  0
 19 21  1  0
 20 22  2  0
 20 23  1  0
 23 24  3  0
 24 25  1  0
 16 26  2  0
 25 27  1  0
 14 28  2  0
  3 29  1  0
  9 30  1  0
 29 30  1  0
 29 31  1  0
 25 32  2  0
  5  4  1  0
 17 21  1  0
  1  2  2  0
  2  6  1  0
  6  7  2  0
  7  4  1  0
  4  3  2  0
  3  1  1  0
  8  9  2  0
  9 10  1  0
 10 11  2  0
 11 12  1  0
 12 13  2  0
 13  8  1  0
M  END

$$$$
No_974-/dssg/home/sw_qyf/PocketFlow/Model-Generation-Results/5HT2A_7WC7_rec_A_10.pdb/2024-01-01-03-54-21/
     RDKit          3D

 25 25  0  0  0  0  0  0  0  0999 V2000
  -24.1553  -17.8465  145.7021 C   0  0  0  0  0  0  0  0  0  0  0  0
  -23.9795  -18.4462  146.7426 C   0  0  0  0  0  0  0  0  0  0  0  0
  -23.2486  -17.2339  144.9771 C   0  0  0  0  0  0  0  0  0  0  0  0
  -23.8337  -18.0729  147.7803 C   0  0  0  0  0  0  0  0  0  0  0  0
  -23.3262  -16.6146  147.9115 C   0  0  0  0  0  0  0  0  0  0  0  0
  -23.8406  -16.2087  144.0298 C   0  0  0  0  0  0  0  0  0  0  0  0
  -24.9346  -15.3239  144.6098 C   0  0  0  0  0  0  0  0  0  0  0  0
  -25.0260  -14.0191  144.1317 C   0  0  0  0  0  0  0  0  0  0  0  0
  -23.8879  -13.2840  144.1058 C   0  0  0  0  0  0  0  0  0  0  0  0
  -23.6274  -12.4058  145.2765 C   0  0  0  0  0  0  0  0  0  0  0  0
  -24.5864  -12.3731  146.5421 Cl  0  0  0  0  0  0  0  0  0  0  0  0
  -25.9251  -15.9301  145.4095 C   0  0  0  0  0  0  0  0  0  0  0  0
  -27.0797  -15.2572  145.8100 C   0  0  0  0  0  0  0  0  0  0  0  0
  -27.2057  -13.8219  145.7632 C   0  0  0  0  0  0  0  0  0  0  0  0
  -28.3423  -13.0930  146.2577 C   0  0  0  0  0  0  0  0  0  0  0  0
  -28.5296  -11.7365  145.9143 C   0  0  0  0  0  0  0  0  0  0  0  0
  -29.7754  -11.1368  146.3174 C   0  0  0  0  0  0  0  0  0  0  0  0
  -30.4643  -11.7480  147.3069 N   0  0  0  0  0  0  0  0  0  0  0  0
  -30.1286  -12.9845  147.8077 C   0  0  0  0  0  0  0  0  0  0  0  0
  -29.0491  -13.6555  147.3061 C   0  0  0  0  0  0  0  0  0  0  0  0
  -30.9684  -13.4934  148.7204 N   0  0  0  0  0  0  0  0  0  0  0  0
  -27.7558  -11.1351  144.8901 C   0  0  0  0  0  0  0  0  0  0  0  0
  -26.7979  -10.4853  145.3800 F   0  0  0  0  0  0  0  0  0  0  0  0
  -28.4808  -10.1593  144.1938 F   0  0  0  0  0  0  0  0  0  0  0  0
  -27.1824  -12.1202  143.8486 C   0  0  0  0  0  0  0  0  0  0  0  0
  1  2  1  0
  1  3  2  3
  2  4  1  0
  4  5  1  0
  3  6  1  0
  6  7  1  0
  7  8  2  3
  8  9  1  0
  9 10  1  0
 10 11  1  0
  7 12  1  0
 12 13  2  3
 13 14  1  0
 14 15  1  0
 19 21  1  0
 16 22  1  0
 22 23  1  0
 22 24  1  0
 22 25  1  0
 15 16  2  0
 16 17  1  0
 17 18  2  0
 18 19  1  0
 19 20  2  0
 20 15  1  0
M  END

$$$$
No_975-/dssg/home/sw_qyf/PocketFlow/Model-Generation-Results/5HT2A_7WC7_rec_A_10.pdb/2024-01-01-03-54-21/
     RDKit          3D

 14 15  0  0  0  0  0  0  0  0999 V2000
  -24.1553  -17.8465  145.7021 C   0  0  0  0  0  0  0  0  0  0  0  0
  -24.2856  -16.6364  145.3494 C   0  0  0  0  0  0  0  0  0  0  0  0
  -25.0033  -15.6772  146.0737 C   0  0  0  0  0  0  0  0  0  0  0  0
  -24.8869  -14.2981  145.8377 C   0  0  0  0  0  0  0  0  0  0  0  0
  -25.4725  -13.2451  146.6015 C   0  0  0  0  0  0  0  0  0  0  0  0
  -24.9068  -18.3577  146.7742 C   0  0  0  0  0  0  0  0  0  0  0  0
  -25.6744  -17.5124  147.5202 C   0  0  0  0  0  0  0  0  0  0  0  0
  -25.7107  -16.1247  147.2563 C   0  0  0  0  0  0  0  0  0  0  0  0
  -24.1776  -13.8654  144.6519 C   0  0  0  0  0  0  0  0  0  0  0  0
  -25.2475  -11.8971  146.3066 C   0  0  0  0  0  0  0  0  0  0  0  0
  -23.8858  -14.5970  143.7425 O   0  0  0  0  0  0  0  0  0  0  0  0
  -24.6560  -11.5397  145.1080 C   0  0  0  0  0  0  0  0  0  0  0  0
  -24.0771  -12.3899  144.4180 C   0  0  0  0  0  0  0  0  0  0  0  0
  -25.9427  -10.9616  147.0861 O   0  0  0  0  0  0  0  0  0  0  0  0
  4  5  1  0
  4  9  1  0
  5 10  1  0
  9 11  2  0
 10 12  1  0
  9 13  1  0
 12 13  1  0
 10 14  1  0
  4  3  1  0
  1  2  2  0
  2  3  1  0
  3  8  2  0
  8  7  1  0
  7  6  2  0
  6  1  1  0
M  END

$$$$
No_976-/dssg/home/sw_qyf/PocketFlow/Model-Generation-Results/5HT2A_7WC7_rec_A_10.pdb/2024-01-01-03-54-21/
     RDKit          3D

 11 11  0  0  0  0  0  0  0  0999 V2000
  -23.1746  -16.6014  144.8668 C   0  0  0  0  0  0  0  0  0  0  0  0
  -23.7011  -17.0158  145.9774 C   0  0  0  0  0  0  0  0  0  0  0  0
  -24.2593  -16.1244  146.9100 C   0  0  0  0  0  0  0  0  0  0  0  0
  -24.5135  -14.7390  146.5020 C   0  0  0  0  0  0  0  0  0  0  0  0
  -24.1060  -14.3555  145.2328 C   0  0  0  0  0  0  0  0  0  0  0  0
  -24.2836  -12.9909  144.8285 C   0  0  0  0  0  0  0  0  0  0  0  0
  -23.4337  -15.2559  144.4548 C   0  0  0  0  0  0  0  0  0  0  0  0
  -23.9093  -12.0735  145.5099 C   0  0  0  0  0  0  0  0  0  0  0  0
  -23.5488  -18.3611  146.4286 N   0  0  0  0  0  0  0  0  0  0  0  0
  -24.4006  -10.8086  145.0565 N   0  0  0  0  0  0  0  0  0  0  0  0
  -22.6555  -18.9170  146.7267 O   0  0  0  0  0  0  0  0  0  0  0  0
  5  6  1  0
  6  8  1  0
  2  9  1  0
  8 10  1  0
  9 11  2  0
  1  2  2  0
  2  3  1  0
  3  4  2  0
  4  5  1  0
  5  7  2  0
  7  1  1  0
M  END

$$$$
No_977-/dssg/home/sw_qyf/PocketFlow/Model-Generation-Results/5HT2A_7WC7_rec_A_10.pdb/2024-01-01-03-54-21/
     RDKit          3D

 27 29  0  0  0  0  0  0  0  0999 V2000
  -24.1553  -17.8465  145.7021 C   0  0  0  0  0  0  0  0  0  0  0  0
  -23.9795  -18.4462  146.7426 C   0  0  0  0  0  0  0  0  0  0  0  0
  -25.1593  -16.8262  145.6925 C   0  0  0  0  0  0  0  0  0  0  0  0
  -25.9346  -16.5763  146.8154 C   0  0  0  0  0  0  0  0  0  0  0  0
  -27.0180  -15.6510  146.7805 C   0  0  0  0  0  0  0  0  0  0  0  0
  -26.9026  -14.6404  145.8447 C   0  0  0  0  0  0  0  0  0  0  0  0
  -25.9737  -14.7283  144.7379 C   0  0  0  0  0  0  0  0  0  0  0  0
  -25.0430  -15.7730  144.7534 C   0  0  0  0  0  0  0  0  0  0  0  0
  -23.5013  -17.8024  147.7855 C   0  0  0  0  0  0  0  0  0  0  0  0
  -24.4780  -17.1245  148.7762 C   0  0  0  0  0  0  0  0  0  0  0  0
  -25.5061  -16.3191  148.1738 C   0  0  0  0  0  0  0  0  0  0  0  0
  -26.0659  -13.8088  143.6209 C   0  0  0  0  0  0  0  0  0  0  0  0
  -27.3129  -13.5121  143.0400 C   0  0  0  0  0  0  0  0  0  0  0  0
  -27.5576  -12.0716  143.1086 C   0  0  0  0  0  0  0  0  0  0  0  0
  -27.6770  -11.3859  144.3023 C   0  0  0  0  0  0  0  0  0  0  0  0
  -28.3354  -10.3526  144.4355 C   0  0  0  0  0  0  0  0  0  0  0  0
  -28.8894   -9.5710  143.3638 C   0  0  0  0  0  0  0  0  0  0  0  0
  -28.6954  -10.2242  142.0971 C   0  0  0  0  0  0  0  0  0  0  0  0
  -28.1901  -11.5107  141.9651 C   0  0  0  0  0  0  0  0  0  0  0  0
  -28.0429  -12.0884  140.6501 C   0  0  0  0  0  0  0  0  0  0  0  0
  -27.4282  -11.3347  139.6182 C   0  0  0  0  0  0  0  0  0  0  0  0
  -27.2111  -12.0987  138.3583 C   0  0  0  0  0  0  0  0  0  0  0  0
  -24.3062  -17.2481  150.2249 C   0  0  0  0  0  0  0  0  0  0  0  0
  -29.5633   -8.3376  143.4790 C   0  0  0  0  0  0  0  0  0  0  0  0
  -30.6348   -8.1700  142.7411 C   0  0  0  0  0  0  0  0  0  0  0  0
  -31.7469   -8.5953  143.0869 O   0  0  0  0  0  0  0  0  0  0  0  0
  -30.6002   -7.5143  141.5664 O   0  0  0  0  0  0  0  0  0  0  0  0
  1  2  1  0
  2  9  2  0
  9 10  1  0
  4 11  1  0
 10 11  1  0
  7 12  1  0
 12 13  1  0
 13 14  1  0
 19 20  1  0
 20 21  1  0
 21 22  2  0
 10 23  1  0
 17 24  1  0
 24 25  1  0
 25 26  1  0
 25 27  2  0
  1  3  1  0
 14 15  2  0
 15 16  1  0
 16 17  2  0
 17 18  1  0
 18 19  2  0
 19 14  1  0
  3  4  2  0
  4  5  1  0
  5  6  2  0
  6  7  1  0
  7  8  2  0
  8  3  1  0
M  END

$$$$
No_978-/dssg/home/sw_qyf/PocketFlow/Model-Generation-Results/5HT2A_7WC7_rec_A_10.pdb/2024-01-01-03-54-21/
     RDKit          3D

 18 19  0  0  0  0  0  0  0  0999 V2000
  -23.1746  -16.6014  144.8668 C   0  0  0  0  0  0  0  0  0  0  0  0
  -23.7011  -17.0158  145.9774 C   0  0  0  0  0  0  0  0  0  0  0  0
  -24.7095  -16.6222  146.3578 C   0  0  0  0  0  0  0  0  0  0  0  0
  -25.2589  -16.9410  147.8028 C   0  0  0  0  0  0  0  0  0  0  0  0
  -26.4622  -16.4173  148.3314 C   0  0  0  0  0  0  0  0  0  0  0  0
  -23.7737  -15.4555  144.2384 C   0  0  0  0  0  0  0  0  0  0  0  0
  -24.8785  -14.8391  144.8305 C   0  0  0  0  0  0  0  0  0  0  0  0
  -25.3633  -15.3910  146.0026 C   0  0  0  0  0  0  0  0  0  0  0  0
  -27.1855  -15.4410  147.6073 C   0  0  0  0  0  0  0  0  0  0  0  0
  -26.5865  -14.8558  146.4698 C   0  0  0  0  0  0  0  0  0  0  0  0
  -26.8262  -13.4393  146.3930 C   0  0  0  0  0  0  0  0  0  0  0  0
  -28.2149  -13.0264  146.3546 C   0  0  0  0  0  0  0  0  0  0  0  0
  -28.5231  -11.6200  145.9022 C   0  0  0  0  0  0  0  0  0  0  0  0
  -29.8836  -11.1431  145.8509 C   0  0  0  0  0  0  0  0  0  0  0  0
  -30.0562   -9.6246  145.1870 P   0  0  0  0  0  0  0  0  0  0  0  0
  -31.2518   -9.1134  145.5494 O   0  0  0  0  0  0  0  0  0  0  0  0
  -28.9240   -8.8594  145.3404 O   0  0  0  0  0  0  0  0  0  0  0  0
  -30.0383  -10.0170  143.6410 O   0  0  0  0  0  0  0  0  0  0  0  0
 10 11  1  0
 11 12  2  3
 12 13  1  0
 13 14  2  3
 14 15  1  0
 15 16  1  0
 15 17  1  0
 15 18  2  0
  1  2  2  0
  2  3  1  0
  8  7  1  0
  7  6  2  0
  6  1  1  0
  3  4  2  0
  4  5  1  0
  5  9  2  0
  9 10  1  0
 10  8  2  0
  8  3  1  0
M  END

$$$$
No_979-/dssg/home/sw_qyf/PocketFlow/Model-Generation-Results/5HT2A_7WC7_rec_A_10.pdb/2024-01-01-03-54-21/
     RDKit          3D

 18 19  0  0  0  0  0  0  0  0999 V2000
  -23.1746  -16.6014  144.8668 C   0  0  0  0  0  0  0  0  0  0  0  0
  -23.8963  -15.5346  144.7885 C   0  0  0  0  0  0  0  0  0  0  0  0
  -23.6398  -14.5115  145.3281 C   0  0  0  0  0  0  0  0  0  0  0  0
  -24.3241  -13.3648  145.1281 C   0  0  0  0  0  0  0  0  0  0  0  0
  -25.5072  -13.2953  144.4353 C   0  0  0  0  0  0  0  0  0  0  0  0
  -25.9151  -14.5889  143.8605 C   0  0  0  0  0  0  0  0  0  0  0  0
  -25.1243  -15.6356  144.0574 C   0  0  0  0  0  0  0  0  0  0  0  0
  -22.4970  -16.8404  145.8394 O   0  0  0  0  0  0  0  0  0  0  0  0
  -26.4518  -12.1531  144.3168 C   0  0  0  0  0  0  0  0  0  0  0  0
  -27.4297  -12.0700  143.3833 C   0  0  0  0  0  0  0  0  0  0  0  0
  -28.3613  -11.0471  143.3003 C   0  0  0  0  0  0  0  0  0  0  0  0
  -29.3126  -10.8503  142.3541 C   0  0  0  0  0  0  0  0  0  0  0  0
  -30.2744   -9.7884  142.4581 C   0  0  0  0  0  0  0  0  0  0  0  0
  -30.7113   -9.0318  141.5232 C   0  0  0  0  0  0  0  0  0  0  0  0
  -31.4206   -7.8461  141.9200 C   0  0  0  0  0  0  0  0  0  0  0  0
  -31.7252   -7.8107  143.4121 C   0  0  0  0  0  0  0  0  0  0  0  0
  -31.1393   -8.5893  144.3602 C   0  0  0  0  0  0  0  0  0  0  0  0
  -30.3517   -9.6372  143.9326 C   0  0  0  0  0  0  0  0  0  0  0  0
  1  2  1  0
  1  8  1  0
  5  9  1  0
  9 10  1  0
 10 11  2  3
 11 12  1  0
 12 13  1  0
  2  3  2  0
  3  4  1  0
  4  5  2  0
  5  6  1  0
  6  7  2  0
  7  2  1  0
 13 14  2  0
 14 15  1  0
 15 16  2  0
 16 17  1  0
 17 18  2  0
 18 13  1  0
M  END

$$$$
No_980-/dssg/home/sw_qyf/PocketFlow/Model-Generation-Results/5HT2A_7WC7_rec_A_10.pdb/2024-01-01-03-54-21/
     RDKit          3D

 35 37  0  0  0  0  0  0  0  0999 V2000
  -23.1746  -16.6014  144.8668 C   0  0  0  0  0  0  0  0  0  0  0  0
  -23.8963  -15.5346  144.7885 C   0  0  0  0  0  0  0  0  0  0  0  0
  -23.6398  -14.5115  145.3281 C   0  0  0  0  0  0  0  0  0  0  0  0
  -24.3240  -13.3648  145.1281 C   0  0  0  0  0  0  0  0  0  0  0  0
  -23.8303  -12.0965  145.7921 C   0  0  0  0  0  0  0  0  0  0  0  0
  -25.4359  -13.2050  144.2865 C   0  0  0  0  0  0  0  0  0  0  0  0
  -26.6960  -12.9564  145.0065 C   0  0  0  0  0  0  0  0  0  0  0  0
  -27.2480  -13.7867  145.9709 C   0  0  0  0  0  0  0  0  0  0  0  0
  -28.4323  -13.4134  146.6029 C   0  0  0  0  0  0  0  0  0  0  0  0
  -29.1034  -12.2285  146.2093 C   0  0  0  0  0  0  0  0  0  0  0  0
  -28.6173  -11.4411  145.2025 C   0  0  0  0  0  0  0  0  0  0  0  0
  -27.3894  -11.7741  144.5957 C   0  0  0  0  0  0  0  0  0  0  0  0
  -29.4413  -10.2536  144.7784 C   0  0  0  0  0  0  0  0  0  0  0  0
  -30.5658  -10.0286  145.3587 N   0  0  0  0  0  0  0  0  0  0  0  0
  -29.3920   -9.8595  143.3767 C   0  0  0  0  0  0  0  0  0  0  0  0
  -28.5157  -10.1293  142.4554 C   0  0  0  0  0  0  0  0  0  0  0  0
  -28.6753   -9.5571  141.2109 C   0  0  0  0  0  0  0  0  0  0  0  0
  -27.9245   -9.8525  140.0217 C   0  0  0  0  0  0  0  0  0  0  0  0
  -28.0270   -9.1188  138.8581 C   0  0  0  0  0  0  0  0  0  0  0  0
  -28.8852   -7.9738  138.8807 C   0  0  0  0  0  0  0  0  0  0  0  0
  -29.5117   -7.5800  140.1092 C   0  0  0  0  0  0  0  0  0  0  0  0
  -29.3669   -8.3294  141.2430 C   0  0  0  0  0  0  0  0  0  0  0  0
  -30.3739   -8.8141  143.0806 C   0  0  0  0  0  0  0  0  0  0  0  0
  -30.3847   -8.0559  142.0353 C   0  0  0  0  0  0  0  0  0  0  0  0
  -23.5870  -17.8032  145.6102 C   0  0  0  0  0  0  0  0  0  0  0  0
  -23.5419  -17.5190  146.9935 C   0  0  0  0  0  0  0  0  0  0  0  0
  -24.7393  -17.6325  147.8064 C   0  0  0  0  0  0  0  0  0  0  0  0
  -25.1564  -16.3541  148.3962 C   0  0  0  0  0  0  0  0  0  0  0  0
  -27.0555  -11.0785  139.9778 C   0  0  0  0  0  0  0  0  0  0  0  0
  -26.2050  -11.1153  140.7297 F   0  0  0  0  0  0  0  0  0  0  0  0
  -26.4029  -11.1336  138.7614 F   0  0  0  0  0  0  0  0  0  0  0  0
  -27.8072  -12.1997  140.0574 F   0  0  0  0  0  0  0  0  0  0  0  0
  -29.0345  -14.2971  147.6569 C   0  0  0  0  0  0  0  0  0  0  0  0
  -30.0247  -14.9159  147.8232 N   0  0  0  0  0  0  0  0  0  0  0  0
  -30.2014  -15.7007  148.9681 C   0  0  0  0  0  0  0  0  0  0  0  0
  1  2  1  0
  2  3  2  3
  3  4  1  0
  4  5  1  0
  4  6  1  0
  6  7  1  0
 11 13  1  0
 13 14  1  0
 13 15  1  0
  1 25  1  0
 25 26  1  0
 26 27  1  0
 27 28  1  0
 18 29  1  0
 29 30  1  0
 29 31  1  0
 29 32  1  0
  9 33  1  0
 33 34  2  3
 34 35  1  0
 17 18  2  0
 18 19  1  0
 19 20  2  0
 20 21  1  0
 21 22  2  0
 15 16  2  0
 16 17  1  0
 17 22  1  0
 22 24  1  0
 24 23  2  0
 23 15  1  0
  7  8  2  0
  8  9  1  0
  9 10  2  0
 10 11  1  0
 11 12  2  0
 12  7  1  0
M  END

$$$$
No_981-/dssg/home/sw_qyf/PocketFlow/Model-Generation-Results/5HT2A_7WC7_rec_A_10.pdb/2024-01-01-03-54-21/
     RDKit          3D

 16 17  0  0  0  0  0  0  0  0999 V2000
  -23.1746  -16.6014  144.8668 C   0  0  0  0  0  0  0  0  0  0  0  0
  -23.7011  -17.0158  145.9774 C   0  0  0  0  0  0  0  0  0  0  0  0
  -23.7336  -18.2775  146.3737 C   0  0  0  0  0  0  0  0  0  0  0  0
  -24.1960  -18.6445  147.6858 C   0  0  0  0  0  0  0  0  0  0  0  0
  -24.7100  -17.6145  148.5486 C   0  0  0  0  0  0  0  0  0  0  0  0
  -24.7929  -16.2635  148.0870 C   0  0  0  0  0  0  0  0  0  0  0  0
  -24.2508  -15.9434  146.8891 C   0  0  0  0  0  0  0  0  0  0  0  0
  -23.2387  -15.3709  144.4144 O   0  0  0  0  0  0  0  0  0  0  0  0
  -23.8815  -14.4591  145.1885 C   0  0  0  0  0  0  0  0  0  0  0  0
  -23.9723  -13.0680  144.6134 C   0  0  0  0  0  0  0  0  0  0  0  0
  -24.3100  -14.6573  146.4085 N   0  0  0  0  0  0  0  0  0  0  0  0
  -23.8319  -11.9506  145.5830 Cl  0  0  0  0  0  0  0  0  0  0  0  0
  -23.2858  -19.2483  145.6764 O   0  0  0  0  0  0  0  0  0  0  0  0
  -24.8503  -13.1157  143.7184 F   0  0  0  0  0  0  0  0  0  0  0  0
  -25.1888  -17.9859  149.7609 O   0  0  0  0  0  0  0  0  0  0  0  0
  -24.6387  -17.2844  150.7983 C   0  0  0  0  0  0  0  0  0  0  0  0
  1  2  1  0
  1  8  1  0
  8  9  1  0
  9 10  2  3
  7 11  1  0
  9 11  1  0
 10 12  1  0
  3 13  1  0
 10 14  1  0
  5 15  1  0
 15 16  1  0
  2  3  2  0
  3  4  1  0
  4  5  2  0
  5  6  1  0
  6  7  2  0
  7  2  1  0
M  END

$$$$
No_982-/dssg/home/sw_qyf/PocketFlow/Model-Generation-Results/5HT2A_7WC7_rec_A_10.pdb/2024-01-01-03-54-21/
     RDKit          3D

 21 21  0  0  0  0  0  0  0  0999 V2000
  -23.1746  -16.6014  144.8668 C   0  0  0  0  0  0  0  0  0  0  0  0
  -24.0189  -16.0564  145.8445 C   0  0  0  0  0  0  0  0  0  0  0  0
  -24.4145  -16.8299  146.9062 C   0  0  0  0  0  0  0  0  0  0  0  0
  -25.2730  -16.2838  147.9150 C   0  0  0  0  0  0  0  0  0  0  0  0
  -25.7919  -14.9951  147.6737 C   0  0  0  0  0  0  0  0  0  0  0  0
  -24.4339  -14.6271  145.8269 C   0  0  0  0  0  0  0  0  0  0  0  0
  -23.9830  -13.7461  144.7945 C   0  0  0  0  0  0  0  0  0  0  0  0
  -25.3495  -14.1406  146.7982 C   0  0  0  0  0  0  0  0  0  0  0  0
  -24.7167  -12.1757  144.6154 Br  0  0  0  0  0  0  0  0  0  0  0  0
  -24.0265  -18.2154  147.0257 C   0  0  0  0  0  0  0  0  0  0  0  0
  -23.3886  -18.7505  147.8544 O   0  0  0  0  0  0  0  0  0  0  0  0
  -24.6426  -19.0658  146.1730 O   0  0  0  0  0  0  0  0  0  0  0  0
  -23.0137  -14.0334  143.9605 O   0  0  0  0  0  0  0  0  0  0  0  0
  -25.7715  -17.1081  149.0557 C   0  0  0  0  0  0  0  0  0  0  0  0
  -27.0200  -17.3908  149.1620 O   0  0  0  0  0  0  0  0  0  0  0  0
  -24.9476  -17.4162  150.0415 O   0  0  0  0  0  0  0  0  0  0  0  0
  -23.4613  -17.7271  144.5102 O   0  0  0  0  0  0  0  0  0  0  0  0
  -24.7876  -16.6333  151.1944 C   0  0  0  0  0  0  0  0  0  0  0  0
  -25.9253  -12.5386  146.7859 Cl  0  0  0  0  0  0  0  0  0  0  0  0
  -23.2669  -16.9039  151.5158 C   0  0  0  0  0  0  0  0  0  0  0  0
  -22.7454  -17.6917  150.6114 O   0  0  0  0  0  0  0  0  0  0  0  0
  1  2  1  0
  6  7  1  0
  7  9  1  0
  3 10  1  0
 10 11  2  0
 10 12  1  0
  7 13  2  0
  4 14  1  0
 14 15  2  0
 14 16  1  0
  1 17  1  0
 16 18  1  0
  8 19  1  0
 18 20  1  0
 20 21  1  0
  2  3  2  0
  3  4  1  0
  4  5  2  0
  5  8  1  0
  8  6  2  0
  6  2  1  0
M  END

$$$$
No_983-/dssg/home/sw_qyf/PocketFlow/Model-Generation-Results/5HT2A_7WC7_rec_A_10.pdb/2024-01-01-03-54-21/
     RDKit          3D

 28 31  0  0  0  0  0  0  0  0999 V2000
  -23.1746  -16.6014  144.8668 C   0  0  0  0  0  0  0  0  0  0  0  0
  -23.8963  -15.5346  144.7885 C   0  0  0  0  0  0  0  0  0  0  0  0
  -24.5755  -15.0383  145.9043 C   0  0  0  0  0  0  0  0  0  0  0  0
  -25.0618  -13.6819  146.0347 C   0  0  0  0  0  0  0  0  0  0  0  0
  -25.4099  -13.0255  144.9749 C   0  0  0  0  0  0  0  0  0  0  0  0
  -25.2396  -13.6946  143.7675 C   0  0  0  0  0  0  0  0  0  0  0  0
  -24.5079  -14.9162  143.6723 C   0  0  0  0  0  0  0  0  0  0  0  0
  -26.0172  -11.7372  145.0288 C   0  0  0  0  0  0  0  0  0  0  0  0
  -26.5467  -11.1166  145.9085 C   0  0  0  0  0  0  0  0  0  0  0  0
  -22.8107  -17.1436  145.9366 F   0  0  0  0  0  0  0  0  0  0  0  0
  -27.2754   -9.9019  145.8117 C   0  0  0  0  0  0  0  0  0  0  0  0
  -27.5568   -9.5192  144.4270 C   0  0  0  0  0  0  0  0  0  0  0  0
  -27.7915  -10.3154  143.6576 C   0  0  0  0  0  0  0  0  0  0  0  0
  -26.8080  -11.5752  143.7200 C   0  0  0  0  0  0  0  0  0  0  0  0
  -28.4060  -10.0986  142.3450 C   0  0  0  0  0  0  0  0  0  0  0  0
  -28.4632  -10.9111  141.2775 C   0  0  0  0  0  0  0  0  0  0  0  0
  -28.0216  -12.2364  141.3091 C   0  0  0  0  0  0  0  0  0  0  0  0
  -27.8423  -12.9569  140.0787 C   0  0  0  0  0  0  0  0  0  0  0  0
  -28.0285  -12.1571  138.9248 C   0  0  0  0  0  0  0  0  0  0  0  0
  -28.1430  -10.8225  138.8439 C   0  0  0  0  0  0  0  0  0  0  0  0
  -28.2573  -10.1323  140.0960 C   0  0  0  0  0  0  0  0  0  0  0  0
  -28.5301   -8.6842  140.0541 C   0  0  0  0  0  0  0  0  0  0  0  0
  -28.3352   -7.9588  138.9266 C   0  0  0  0  0  0  0  0  0  0  0  0
  -29.0226   -8.0025  141.2574 C   0  0  0  0  0  0  0  0  0  0  0  0
  -28.9056   -8.7254  142.4761 C   0  0  0  0  0  0  0  0  0  0  0  0
  -23.9338  -17.5923  144.0788 F   0  0  0  0  0  0  0  0  0  0  0  0
  -28.9152   -6.9152  138.8744 F   0  0  0  0  0  0  0  0  0  0  0  0
  -28.6306   -8.7588  137.8328 F   0  0  0  0  0  0  0  0  0  0  0  0
  1  2  1  0
  5  8  1  0
  1 10  1  0
 13 15  1  0
  1 26  1  0
 23 27  1  0
 23 28  1  0
 23 22  1  0
  2  3  2  0
  3  4  1  0
  4  5  2  0
  5  6  1  0
  6  7  2  0
  7  2  1  0
  8  9  2  0
  9 11  1  0
 11 12  2  0
 12 13  1  0
 13 14  2  0
 14  8  1  0
 15 16  1  0
 21 22  1  0
 22 24  2  0
 24 25  1  0
 25 15  2  0
 16 17  2  0
 17 18  1  0
 18 19  2  0
 19 20  1  0
 20 21  2  0
 21 16  1  0
M  END

$$$$
No_984-/dssg/home/sw_qyf/PocketFlow/Model-Generation-Results/5HT2A_7WC7_rec_A_10.pdb/2024-01-01-03-54-21/
     RDKit          3D

 21 23  0  0  0  0  0  0  0  0999 V2000
  -23.1746  -16.6014  144.8668 C   0  0  0  0  0  0  0  0  0  0  0  0
  -23.7011  -17.0158  145.9774 C   0  0  0  0  0  0  0  0  0  0  0  0
  -24.2134  -16.0722  146.8877 C   0  0  0  0  0  0  0  0  0  0  0  0
  -24.5407  -14.7704  146.3553 C   0  0  0  0  0  0  0  0  0  0  0  0
  -24.1607  -14.4055  145.0934 C   0  0  0  0  0  0  0  0  0  0  0  0
  -23.4579  -15.3395  144.3578 C   0  0  0  0  0  0  0  0  0  0  0  0
  -23.4151  -18.5957  146.6227 Cl  0  0  0  0  0  0  0  0  0  0  0  0
  -24.3203  -13.0109  144.6689 C   0  0  0  0  0  0  0  0  0  0  0  0
  -23.1770  -12.4462  144.6463 O   0  0  0  0  0  0  0  0  0  0  0  0
  -25.3460  -12.4795  144.5731 O   0  0  0  0  0  0  0  0  0  0  0  0
  -24.6929  -16.5068  148.2841 C   0  0  0  0  0  0  0  0  0  0  0  0
  -23.8120  -17.0385  149.1582 C   0  0  0  0  0  0  0  0  0  0  0  0
  -24.1785  -17.3765  150.4918 C   0  0  0  0  0  0  0  0  0  0  0  0
  -25.3562  -17.6273  150.6327 C   0  0  0  0  0  0  0  0  0  0  0  0
  -26.4259  -17.1442  149.7545 C   0  0  0  0  0  0  0  0  0  0  0  0
  -26.0128  -16.6497  148.5038 C   0  0  0  0  0  0  0  0  0  0  0  0
  -27.1141  -16.2489  147.6075 C   0  0  0  0  0  0  0  0  0  0  0  0
  -27.0951  -15.5714  146.7195 C   0  0  0  0  0  0  0  0  0  0  0  0
  -28.3218  -15.0155  146.0722 C   0  0  0  0  0  0  0  0  0  0  0  0
  -29.4196  -15.3297  146.8276 C   0  0  0  0  0  0  0  0  0  0  0  0
  -28.5426  -16.3261  148.0733 C   0  0  0  0  0  0  0  0  0  0  0  0
  2  7  1  0
  5  8  1  0
  8  9  1  0
  8 10  2  0
  3 11  1  0
 16 17  1  0
 17 18  1  0
 18 19  2  0
 19 20  1  0
 17 21  1  0
 20 21  2  0
 11 12  2  0
 12 13  1  0
 13 14  2  0
 14 15  1  0
 15 16  2  0
 16 11  1  0
  1  2  2  0
  2  3  1  0
  3  4  2  0
  4  5  1  0
  5  6  2  0
  6  1  1  0
M  END

$$$$
No_985-/dssg/home/sw_qyf/PocketFlow/Model-Generation-Results/5HT2A_7WC7_rec_A_10.pdb/2024-01-01-03-54-21/
     RDKit          3D

 24 23  0  0  0  0  0  0  0  0999 V2000
  -24.1553  -17.8465  145.7021 C   0  0  0  0  0  0  0  0  0  0  0  0
  -23.9795  -18.4462  146.7426 C   0  0  0  0  0  0  0  0  0  0  0  0
  -23.3558  -17.2450  144.9339 C   0  0  0  0  0  0  0  0  0  0  0  0
  -24.9341  -19.0253  147.6214 C   0  0  0  0  0  0  0  0  0  0  0  0
  -23.9048  -16.1596  144.0438 C   0  0  0  0  0  0  0  0  0  0  0  0
  -24.2991  -14.9323  144.8306 C   0  0  0  0  0  0  0  0  0  0  0  0
  -24.2475  -13.7370  144.2031 C   0  0  0  0  0  0  0  0  0  0  0  0
  -24.8149  -12.5957  145.0384 C   0  0  0  0  0  0  0  0  0  0  0  0
  -26.2512  -12.5178  145.0710 C   0  0  0  0  0  0  0  0  0  0  0  0
  -26.8098  -11.2764  144.8762 C   0  0  0  0  0  0  0  0  0  0  0  0
  -27.6736  -11.0241  143.8911 C   0  0  0  0  0  0  0  0  0  0  0  0
  -28.9219  -10.4115  144.1787 C   0  0  0  0  0  0  0  0  0  0  0  0
  -29.6703  -10.7247  145.3195 C   0  0  0  0  0  0  0  0  0  0  0  0
  -29.2966  -11.7571  145.9869 O   0  0  0  0  0  0  0  0  0  0  0  0
  -29.7950  -12.1933  147.2166 C   0  0  0  0  0  0  0  0  0  0  0  0
  -30.4341  -13.4178  147.2791 C   0  0  0  0  0  0  0  0  0  0  0  0
  -29.3461  -14.4469  147.7907 C   0  0  0  0  0  0  0  0  0  0  0  0
  -28.8251  -15.3326  146.8488 C   0  0  0  0  0  0  0  0  0  0  0  0
  -27.8971  -16.3183  147.2740 C   0  0  0  0  0  0  0  0  0  0  0  0
  -29.4438   -9.4247  143.2109 C   0  0  0  0  0  0  0  0  0  0  0  0
  -29.1673   -9.3278  141.9651 C   0  0  0  0  0  0  0  0  0  0  0  0
  -29.6824   -8.2587  141.2144 C   0  0  0  0  0  0  0  0  0  0  0  0
  -30.9350   -7.6785  141.6949 C   0  0  0  0  0  0  0  0  0  0  0  0
  -31.4069   -7.9295  142.9473 C   0  0  0  0  0  0  0  0  0  0  0  0
  1  2  2  3
  1  3  1  0
  2  4  1  0
  3  5  1  0
  5  6  1  0
  6  7  1  0
  7  8  1  0
  8  9  1  0
  9 10  1  0
 10 11  1  0
 11 12  1  0
 12 13  1  0
 13 14  1  0
 14 15  1  0
 15 16  1  0
 16 17  1  0
 17 18  1  0
 18 19  1  0
 12 20  1  0
 20 21  2  3
 21 22  1  0
 22 23  2  3
 23 24  1  0
M  END

$$$$
No_986-/dssg/home/sw_qyf/PocketFlow/Model-Generation-Results/5HT2A_7WC7_rec_A_10.pdb/2024-01-01-03-54-21/
     RDKit          3D

 13 13  0  0  0  0  0  0  0  0999 V2000
  -23.1746  -16.6014  144.8668 C   0  0  0  0  0  0  0  0  0  0  0  0
  -24.0189  -16.0564  145.8445 C   0  0  0  0  0  0  0  0  0  0  0  0
  -24.4850  -14.7380  145.6359 C   0  0  0  0  0  0  0  0  0  0  0  0
  -25.2717  -14.0560  146.5949 C   0  0  0  0  0  0  0  0  0  0  0  0
  -25.6617  -12.7328  146.4162 C   0  0  0  0  0  0  0  0  0  0  0  0
  -25.2756  -11.9986  145.2553 C   0  0  0  0  0  0  0  0  0  0  0  0
  -24.3335  -12.6494  144.4294 C   0  0  0  0  0  0  0  0  0  0  0  0
  -23.8839  -13.9831  144.6056 C   0  0  0  0  0  0  0  0  0  0  0  0
  -24.4895  -16.8196  146.9335 C   0  0  0  0  0  0  0  0  0  0  0  0
  -25.2360  -16.6706  147.7933 C   0  0  0  0  0  0  0  0  0  0  0  0
  -25.3106  -17.3938  149.1092 C   0  0  0  0  0  0  0  0  0  0  0  0
  -26.0827  -17.0260  150.2494 C   0  0  0  0  0  0  0  0  0  0  0  0
  -25.6931  -10.4028  145.0024 Cl  0  0  0  0  0  0  0  0  0  0  0  0
  1  2  1  0
  2  3  1  0
  2  9  1  0
  9 10  2  3
 10 11  1  0
 11 12  2  0
  6 13  1  0
  3  4  2  0
  4  5  1  0
  5  6  2  0
  6  7  1  0
  7  8  2  0
  8  3  1  0
M  END

$$$$
No_987-/dssg/home/sw_qyf/PocketFlow/Model-Generation-Results/5HT2A_7WC7_rec_A_10.pdb/2024-01-01-03-54-21/
     RDKit          3D

 35 39  0  0  0  0  0  0  0  0999 V2000
  -24.1553  -17.8465  145.7021 C   0  0  0  0  0  0  0  0  0  0  0  0
  -23.9795  -18.4462  146.7426 C   0  0  0  0  0  0  0  0  0  0  0  0
  -24.3577  -16.4380  145.7329 C   0  0  0  0  0  0  0  0  0  0  0  0
  -24.4745  -15.6012  144.5587 C   0  0  0  0  0  0  0  0  0  0  0  0
  -24.5845  -14.1656  144.8311 C   0  0  0  0  0  0  0  0  0  0  0  0
  -25.4952  -13.5661  145.3467 C   0  0  0  0  0  0  0  0  0  0  0  0
  -24.0407  -17.8881  148.0828 C   0  0  0  0  0  0  0  0  0  0  0  0
  -24.2814  -16.5035  148.1944 C   0  0  0  0  0  0  0  0  0  0  0  0
  -24.4153  -15.7595  147.0613 C   0  0  0  0  0  0  0  0  0  0  0  0
  -25.8190  -12.2157  145.0845 C   0  0  0  0  0  0  0  0  0  0  0  0
  -24.8336  -11.2255  145.5169 C   0  0  0  0  0  0  0  0  0  0  0  0
  -23.5313  -11.5986  144.9318 C   0  0  0  0  0  0  0  0  0  0  0  0
  -23.3026  -13.1311  144.9366 C   0  0  0  0  0  0  0  0  0  0  0  0
  -27.2026  -11.7123  145.8548 C   0  0  0  0  0  0  0  0  0  0  0  0
  -27.8126  -12.5252  146.7577 C   0  0  0  0  0  0  0  0  0  0  0  0
  -29.0869  -12.2418  147.2191 C   0  0  0  0  0  0  0  0  0  0  0  0
  -29.7838  -13.0467  148.1909 C   0  0  0  0  0  0  0  0  0  0  0  0
  -29.4206  -14.4282  148.2582 C   0  0  0  0  0  0  0  0  0  0  0  0
  -28.2716  -14.8446  147.4869 C   0  0  0  0  0  0  0  0  0  0  0  0
  -27.4959  -13.9619  146.7449 C   0  0  0  0  0  0  0  0  0  0  0  0
  -26.5372  -14.3919  146.0819 C   0  0  0  0  0  0  0  0  0  0  0  0
  -31.0129  -12.6011  148.8996 C   0  0  0  0  0  0  0  0  0  0  0  0
  -31.7952  -11.7080  148.4283 N   0  0  0  0  0  0  0  0  0  0  0  0
  -31.3360  -13.2438  149.9632 O   0  0  0  0  0  0  0  0  0  0  0  0
  -26.2905  -12.1685  143.6257 C   0  0  0  0  0  0  0  0  0  0  0  0
  -27.7861  -12.3575  143.4371 C   0  0  0  0  0  0  0  0  0  0  0  0
  -28.1750  -11.3993  142.3264 C   0  0  0  0  0  0  0  0  0  0  0  0
  -29.1136  -10.3332  142.7571 C   0  0  0  0  0  0  0  0  0  0  0  0
  -29.4158   -9.3203  141.8293 C   0  0  0  0  0  0  0  0  0  0  0  0
  -28.7974   -9.3698  140.5379 C   0  0  0  0  0  0  0  0  0  0  0  0
  -27.8796  -10.4046  140.2384 C   0  0  0  0  0  0  0  0  0  0  0  0
  -27.5215  -11.3514  141.1756 C   0  0  0  0  0  0  0  0  0  0  0  0
  -30.3443   -8.2302  142.1401 C   0  0  0  0  0  0  0  0  0  0  0  0
  -30.7083   -7.4667  141.4654 O   0  0  0  0  0  0  0  0  0  0  0  0
  -31.0337   -8.4181  143.4424 O   0  0  0  0  0  0  0  0  0  0  0  0
  3  4  1  0
  4  5  1  0
  6 10  1  0
 10 11  1  0
 11 12  1  0
  5 13  1  0
 12 13  1  0
 10 14  1  0
  6 21  1  0
 20 21  1  0
 17 22  1  0
 22 23  1  0
 22 24  2  0
 10 25  1  0
 25 26  1  0
 26 27  1  0
 29 33  1  0
 33 34  2  0
 33 35  1  0
 15 14  1  0
  6  5  1  0
 15 16  2  0
 16 17  1  0
 17 18  2  0
 18 19  1  0
 19 20  2  0
 20 15  1  0
  1  2  2  0
  2  7  1  0
  7  8  2  0
  8  9  1  0
  9  3  2  0
  3  1  1  0
 27 28  2  0
 28 29  1  0
 29 30  2  0
 30 31  1  0
 31 32  2  0
 32 27  1  0
M  END

$$$$
No_988-/dssg/home/sw_qyf/PocketFlow/Model-Generation-Results/5HT2A_7WC7_rec_A_10.pdb/2024-01-01-03-54-21/
     RDKit          3D

 19 19  0  0  0  0  0  0  0  0999 V2000
  -24.1553  -17.8465  145.7021 C   0  0  0  0  0  0  0  0  0  0  0  0
  -24.6364  -17.2931  146.7091 C   0  0  0  0  0  0  0  0  0  0  0  0
  -25.8608  -16.5592  146.5934 C   0  0  0  0  0  0  0  0  0  0  0  0
  -26.9933  -16.9082  147.1889 C   0  0  0  0  0  0  0  0  0  0  0  0
  -28.2114  -16.1477  146.9896 C   0  0  0  0  0  0  0  0  0  0  0  0
  -28.1869  -14.8900  146.3591 C   0  0  0  0  0  0  0  0  0  0  0  0
  -26.9306  -14.4696  145.8021 C   0  0  0  0  0  0  0  0  0  0  0  0
  -25.7608  -15.2964  145.9443 C   0  0  0  0  0  0  0  0  0  0  0  0
  -26.8039  -13.1572  145.1459 C   0  0  0  0  0  0  0  0  0  0  0  0
  -25.9326  -12.4707  145.7149 F   0  0  0  0  0  0  0  0  0  0  0  0
  -28.0166  -12.5399  145.3589 F   0  0  0  0  0  0  0  0  0  0  0  0
  -26.5254  -13.2992  143.9217 F   0  0  0  0  0  0  0  0  0  0  0  0
  -24.0162  -17.5072  148.0468 C   0  0  0  0  0  0  0  0  0  0  0  0
  -23.3104  -16.5125  148.6875 C   0  0  0  0  0  0  0  0  0  0  0  0
  -23.4834  -17.0980  144.8315 F   0  0  0  0  0  0  0  0  0  0  0  0
  -24.3003  -19.0388  145.4057 F   0  0  0  0  0  0  0  0  0  0  0  0
  -22.6866  -16.9305  149.9700 C   0  0  0  0  0  0  0  0  0  0  0  0
  -22.9938  -15.9583  150.8645 F   0  0  0  0  0  0  0  0  0  0  0  0
  -23.2785  -18.0542  150.4801 F   0  0  0  0  0  0  0  0  0  0  0  0
  1  2  1  0
  2  3  1  0
  7  9  1  0
  9 10  1  0
  9 11  1  0
  9 12  1  0
  2 13  1  0
 13 14  1  0
  1 15  1  0
  1 16  1  0
 14 17  2  3
 17 18  1  0
 17 19  1  0
  3  4  2  0
  4  5  1  0
  5  6  2  0
  6  7  1  0
  7  8  2  0
  8  3  1  0
M  END

$$$$
No_989-/dssg/home/sw_qyf/PocketFlow/Model-Generation-Results/5HT2A_7WC7_rec_A_10.pdb/2024-01-01-03-54-21/
     RDKit          3D

 14 15  0  0  0  0  0  0  0  0999 V2000
  -23.1746  -16.6014  144.8668 C   0  0  0  0  0  0  0  0  0  0  0  0
  -23.8963  -15.5346  144.7885 C   0  0  0  0  0  0  0  0  0  0  0  0
  -24.5755  -15.0383  145.9043 C   0  0  0  0  0  0  0  0  0  0  0  0
  -25.0618  -13.6819  146.0347 C   0  0  0  0  0  0  0  0  0  0  0  0
  -24.0242  -12.8249  145.9593 C   0  0  0  0  0  0  0  0  0  0  0  0
  -23.8786  -17.6652  145.6663 C   0  0  0  0  0  0  0  0  0  0  0  0
  -24.6984  -17.2858  146.7874 C   0  0  0  0  0  0  0  0  0  0  0  0
  -25.2546  -15.9953  146.8612 C   0  0  0  0  0  0  0  0  0  0  0  0
  -26.3476  -13.1988  146.2246 C   0  0  0  0  0  0  0  0  0  0  0  0
  -27.4750  -13.9172  146.3731 C   0  0  0  0  0  0  0  0  0  0  0  0
  -28.6693  -13.2688  146.6151 C   0  0  0  0  0  0  0  0  0  0  0  0
  -28.7474  -11.8455  146.3460 C   0  0  0  0  0  0  0  0  0  0  0  0
  -27.6420  -11.1510  145.9381 C   0  0  0  0  0  0  0  0  0  0  0  0
  -26.4046  -11.7104  145.9377 C   0  0  0  0  0  0  0  0  0  0  0  0
  1  2  1  0
  2  3  1  0
  3  4  1  0
  4  5  1  0
  1  6  1  0
  6  7  1  0
  3  8  1  0
  7  8  1  0
  4  9  1  0
  9 10  2  0
 10 11  1  0
 11 12  2  0
 12 13  1  0
 13 14  2  0
 14  9  1  0
M  END

$$$$
No_990-/dssg/home/sw_qyf/PocketFlow/Model-Generation-Results/5HT2A_7WC7_rec_A_10.pdb/2024-01-01-03-54-21/
     RDKit          3D

 12 12  0  0  0  0  0  0  0  0999 V2000
  -23.1746  -16.6014  144.8668 C   0  0  0  0  0  0  0  0  0  0  0  0
  -23.8963  -15.5346  144.7885 C   0  0  0  0  0  0  0  0  0  0  0  0
  -25.0304  -15.2549  144.5358 C   0  0  0  0  0  0  0  0  0  0  0  0
  -26.0482  -16.0541  145.3273 C   0  0  0  0  0  0  0  0  0  0  0  0
  -24.1314  -17.6118  145.6547 C   0  0  0  0  0  0  0  0  0  0  0  0
  -23.5692  -18.8019  146.1778 C   0  0  0  0  0  0  0  0  0  0  0  0
  -25.4889  -17.2702  145.8147 C   0  0  0  0  0  0  0  0  0  0  0  0
  -25.6162  -13.8862  144.0971 C   0  0  0  0  0  0  0  0  0  0  0  0
  -26.0064  -14.0349  142.9292 O   0  0  0  0  0  0  0  0  0  0  0  0
  -22.7789  -18.6689  147.1334 O   0  0  0  0  0  0  0  0  0  0  0  0
  -23.9691  -19.8960  145.7857 O   0  0  0  0  0  0  0  0  0  0  0  0
  -25.8569  -12.8787  144.7968 O   0  0  0  0  0  0  0  0  0  0  0  0
  5  6  1  0
  3  8  1  0
  8  9  1  0
  6 10  1  0
  6 11  2  0
  8 12  2  0
  1  2  2  0
  2  3  1  0
  3  4  2  0
  4  7  1  0
  7  5  2  0
  5  1  1  0
M  END

$$$$
No_991-/dssg/home/sw_qyf/PocketFlow/Model-Generation-Results/5HT2A_7WC7_rec_A_10.pdb/2024-01-01-03-54-21/
     RDKit          3D

 23 23  0  0  0  0  0  0  0  0999 V2000
  -23.8931  -18.2534  145.3804 F   0  0  0  0  0  0  0  0  0  0  0  0
  -24.1483  -17.4442  146.3400 C   0  0  0  0  0  0  0  0  0  0  0  0
  -24.1779  -17.7762  147.6608 C   0  0  0  0  0  0  0  0  0  0  0  0
  -24.6113  -16.0736  145.9746 C   0  0  0  0  0  0  0  0  0  0  0  0
  -24.5593  -15.5724  144.7344 C   0  0  0  0  0  0  0  0  0  0  0  0
  -25.1915  -14.2921  144.4445 C   0  0  0  0  0  0  0  0  0  0  0  0
  -23.1730  -17.9534  148.3276 C   0  0  0  0  0  0  0  0  0  0  0  0
  -24.8373  -13.6319  143.5571 C   0  0  0  0  0  0  0  0  0  0  0  0
  -22.9790  -17.0199  149.4782 C   0  0  0  0  0  0  0  0  0  0  0  0
  -26.3651  -14.0015  145.2767 C   0  0  0  0  0  0  0  0  0  0  0  0
  -26.8275  -12.6738  145.2623 C   0  0  0  0  0  0  0  0  0  0  0  0
  -26.2075  -11.7173  145.9382 C   0  0  0  0  0  0  0  0  0  0  0  0
  -26.6572  -10.4206  145.7791 N   0  0  0  0  0  0  0  0  0  0  0  0
  -27.5764  -10.3520  144.7543 C   0  0  0  0  0  0  0  0  0  0  0  0
  -27.7810  -12.0846  144.4017 C   0  0  0  0  0  0  0  0  0  0  0  0
  -28.8788   -9.8135  144.8345 C   0  0  0  0  0  0  0  0  0  0  0  0
  -29.9520  -10.5663  145.3562 C   0  0  0  0  0  0  0  0  0  0  0  0
  -25.2050  -11.8830  146.8504 O   0  0  0  0  0  0  0  0  0  0  0  0
  -29.7048  -11.6064  145.9808 O   0  0  0  0  0  0  0  0  0  0  0  0
  -30.9782   -9.8137  145.6969 O   0  0  0  0  0  0  0  0  0  0  0  0
  -21.7622  -17.0553  150.2597 C   0  0  0  0  0  0  0  0  0  0  0  0
  -21.4956  -15.8354  150.9375 C   0  0  0  0  0  0  0  0  0  0  0  0
  -23.3916  -15.8476  144.1021 N   0  0  0  0  0  0  0  0  0  0  0  0
  1  2  1  0
  2  3  2  3
  2  4  1  0
  4  5  1  0
  5  6  1  0
  3  7  1  0
  6  8  2  0
  7  9  1  0
  6 10  1  0
 10 11  1  0
 11 12  1  0
 12 13  1  0
 13 14  1  0
 11 15  1  0
 14 15  1  0
 14 16  1  0
 16 17  1  0
 12 18  2  0
 17 19  1  0
 17 20  2  0
  9 21  1  0
 21 22  2  0
  5 23  1  0
M  END

$$$$
No_992-/dssg/home/sw_qyf/PocketFlow/Model-Generation-Results/5HT2A_7WC7_rec_A_10.pdb/2024-01-01-03-54-21/
     RDKit          3D

 30 31  0  0  0  0  0  0  0  0999 V2000
  -24.1553  -17.8465  145.7021 C   0  0  0  0  0  0  0  0  0  0  0  0
  -24.2855  -16.6364  145.3494 C   0  0  0  0  0  0  0  0  0  0  0  0
  -24.5733  -15.7651  145.9979 C   0  0  0  0  0  0  0  0  0  0  0  0
  -24.7790  -14.3201  145.5846 C   0  0  0  0  0  0  0  0  0  0  0  0
  -23.9937  -13.9985  144.4527 C   0  0  0  0  0  0  0  0  0  0  0  0
  -24.4911  -18.2238  147.0073 C   0  0  0  0  0  0  0  0  0  0  0  0
  -24.9509  -17.2552  147.8929 C   0  0  0  0  0  0  0  0  0  0  0  0
  -24.9923  -15.8662  147.4411 C   0  0  0  0  0  0  0  0  0  0  0  0
  -25.5634  -13.3705  146.2903 C   0  0  0  0  0  0  0  0  0  0  0  0
  -25.5843  -12.0123  145.9454 C   0  0  0  0  0  0  0  0  0  0  0  0
  -26.8225  -11.3491  145.9053 C   0  0  0  0  0  0  0  0  0  0  0  0
  -27.1289  -10.5974  144.6995 C   0  0  0  0  0  0  0  0  0  0  0  0
  -28.4599  -10.3279  144.4367 C   0  0  0  0  0  0  0  0  0  0  0  0
  -28.8788   -9.5875  143.3090 C   0  0  0  0  0  0  0  0  0  0  0  0
  -29.6287   -8.4331  143.4365 C   0  0  0  0  0  0  0  0  0  0  0  0
  -30.6682   -8.3075  142.5069 C   0  0  0  0  0  0  0  0  0  0  0  0
  -30.3776   -8.1730  141.2973 O   0  0  0  0  0  0  0  0  0  0  0  0
  -28.4215   -9.9464  141.9739 C   0  0  0  0  0  0  0  0  0  0  0  0
  -28.2386  -11.2585  141.5466 C   0  0  0  0  0  0  0  0  0  0  0  0
  -27.8896  -11.5367  140.2514 C   0  0  0  0  0  0  0  0  0  0  0  0
  -27.7082  -12.8645  139.7582 C   0  0  0  0  0  0  0  0  0  0  0  0
  -31.9120   -8.1476  142.9119 O   0  0  0  0  0  0  0  0  0  0  0  0
  -23.0765  -13.0856  144.7461 O   0  0  0  0  0  0  0  0  0  0  0  0
  -25.1959  -17.5547  149.3395 C   0  0  0  0  0  0  0  0  0  0  0  0
  -24.3479  -17.6059  150.2051 O   0  0  0  0  0  0  0  0  0  0  0  0
  -26.4437  -17.2490  149.7375 O   0  0  0  0  0  0  0  0  0  0  0  0
  -27.7842  -10.4278  139.3205 C   0  0  0  0  0  0  0  0  0  0  0  0
  -27.0426  -13.6288  140.7919 C   0  0  0  0  0  0  0  0  0  0  0  0
  -28.2474   -9.1255  139.4413 C   0  0  0  0  0  0  0  0  0  0  0  0
  -28.4450   -8.8153  141.0505 C   0  0  0  0  0  0  0  0  0  0  0  0
  3  4  1  0
  4  5  2  3
  4  9  1  0
  9 10  1  0
 10 11  1  0
 11 12  1  0
 12 13  2  3
 13 14  1  0
 14 15  1  0
 15 16  1  0
 16 17  1  0
 14 18  1  0
 16 22  2  0
  5 23  1  0
  7 24  1  0
 24 25  2  0
 24 26  1  0
 21 28  1  0
 21 20  1  0
  1  2  2  0
  2  3  1  0
  3  8  2  0
  8  7  1  0
  7  6  2  0
  6  1  1  0
 18 19  2  0
 19 20  1  0
 20 27  2  0
 27 29  1  0
 29 30  2  0
 30 18  1  0
M  END

$$$$
No_993-/dssg/home/sw_qyf/PocketFlow/Model-Generation-Results/5HT2A_7WC7_rec_A_10.pdb/2024-01-01-03-54-21/
     RDKit          3D

 19 19  0  0  0  0  0  0  0  0999 V2000
  -23.1746  -16.6014  144.8668 C   0  0  0  0  0  0  0  0  0  0  0  0
  -23.7011  -17.0158  145.9774 C   0  0  0  0  0  0  0  0  0  0  0  0
  -23.7336  -18.2775  146.3737 C   0  0  0  0  0  0  0  0  0  0  0  0
  -23.2769  -15.1496  144.5841 C   0  0  0  0  0  0  0  0  0  0  0  0
  -24.0862  -14.2431  145.3742 C   0  0  0  0  0  0  0  0  0  0  0  0
  -24.7183  -14.7375  146.5381 C   0  0  0  0  0  0  0  0  0  0  0  0
  -25.5351  -13.8730  147.2808 C   0  0  0  0  0  0  0  0  0  0  0  0
  -24.4941  -16.0975  146.8395 C   0  0  0  0  0  0  0  0  0  0  0  0
  -24.1044  -12.8079  145.0638 C   0  0  0  0  0  0  0  0  0  0  0  0
  -22.8883  -12.1175  144.9941 C   0  0  0  0  0  0  0  0  0  0  0  0
  -25.3310  -12.1731  144.7651 C   0  0  0  0  0  0  0  0  0  0  0  0
  -25.0189  -10.9827  144.8121 F   0  0  0  0  0  0  0  0  0  0  0  0
  -26.1180  -12.3769  145.8608 F   0  0  0  0  0  0  0  0  0  0  0  0
  -26.5587  -13.0886  146.6995 C   0  0  0  0  0  0  0  0  0  0  0  0
  -27.1717  -12.3539  147.6932 F   0  0  0  0  0  0  0  0  0  0  0  0
  -27.5687  -14.0158  145.9446 C   0  0  0  0  0  0  0  0  0  0  0  0
  -27.5996  -12.7959  146.6898 Cl  0  0  0  0  0  0  0  0  0  0  0  0
  -28.5473  -14.8336  146.6133 C   0  0  0  0  0  0  0  0  0  0  0  0
  -27.2450  -14.4639  144.7156 C   0  0  0  0  0  0  0  0  0  0  0  0
  1  2  1  0
  2  3  1  0
  1  4  1  0
  4  5  1  0
  5  6  1  0
  6  7  2  3
  2  8  1  0
  6  8  1  0
  5  9  1  0
  9 10  1  0
  9 11  1  0
 11 12  1  0
 11 13  1  0
  7 14  1  0
 14 15  1  0
 14 16  1  0
 14 17  1  0
 16 18  1  0
 16 19  1  0
M  END

$$$$
No_994-/dssg/home/sw_qyf/PocketFlow/Model-Generation-Results/5HT2A_7WC7_rec_A_10.pdb/2024-01-01-03-54-21/
     RDKit          3D

 35 37  0  0  0  0  0  0  0  0999 V2000
  -24.1553  -17.8465  145.7021 C   0  0  0  0  0  0  0  0  0  0  0  0
  -24.2856  -16.6364  145.3494 C   0  0  0  0  0  0  0  0  0  0  0  0
  -24.7211  -15.5955  146.2116 C   0  0  0  0  0  0  0  0  0  0  0  0
  -25.1321  -16.0374  147.5372 C   0  0  0  0  0  0  0  0  0  0  0  0
  -24.5141  -18.2630  147.0046 C   0  0  0  0  0  0  0  0  0  0  0  0
  -24.9573  -17.2963  147.9769 C   0  0  0  0  0  0  0  0  0  0  0  0
  -24.8720  -14.1818  145.7974 C   0  0  0  0  0  0  0  0  0  0  0  0
  -25.6103  -13.2835  146.3221 C   0  0  0  0  0  0  0  0  0  0  0  0
  -25.6053  -11.9244  145.9376 C   0  0  0  0  0  0  0  0  0  0  0  0
  -24.5902  -11.4450  145.1295 C   0  0  0  0  0  0  0  0  0  0  0  0
  -23.8209  -13.7154  144.8599 C   0  0  0  0  0  0  0  0  0  0  0  0
  -23.6945  -12.3404  144.6201 C   0  0  0  0  0  0  0  0  0  0  0  0
  -23.9548  -16.2477  144.1170 O   0  0  0  0  0  0  0  0  0  0  0  0
  -25.2813  -17.6883  149.3829 C   0  0  0  0  0  0  0  0  0  0  0  0
  -24.4058  -17.3604  150.3772 N   0  0  0  0  0  0  0  0  0  0  0  0
  -23.0816  -17.1802  150.1702 C   0  0  0  0  0  0  0  0  0  0  0  0
  -22.3494  -16.7698  151.3049 N   0  0  0  0  0  0  0  0  0  0  0  0
  -22.4738  -17.4121  149.1602 O   0  0  0  0  0  0  0  0  0  0  0  0
  -26.4653  -10.9876  146.5090 O   0  0  0  0  0  0  0  0  0  0  0  0
  -23.7771  -18.8207  144.9131 O   0  0  0  0  0  0  0  0  0  0  0  0
  -27.4086  -10.5850  145.7020 C   0  0  0  0  0  0  0  0  0  0  0  0
  -27.2408   -9.9457  144.5213 C   0  0  0  0  0  0  0  0  0  0  0  0
  -28.3188   -9.6054  143.7670 C   0  0  0  0  0  0  0  0  0  0  0  0
  -29.6479   -9.8010  144.2515 C   0  0  0  0  0  0  0  0  0  0  0  0
  -29.7766  -10.5198  145.4964 C   0  0  0  0  0  0  0  0  0  0  0  0
  -28.7386  -10.9251  146.1528 C   0  0  0  0  0  0  0  0  0  0  0  0
  -30.8697   -9.4755  143.4763 C   0  0  0  0  0  0  0  0  0  0  0  0
  -31.7829   -9.9244  143.6943 O   0  0  0  0  0  0  0  0  0  0  0  0
  -30.7600   -8.3684  142.6922 N   0  0  0  0  0  0  0  0  0  0  0  0
  -31.8946   -8.0229  141.8218 C   0  0  0  0  0  0  0  0  0  0  0  0
  -29.6205   -7.4860  142.5971 C   0  0  0  0  0  0  0  0  0  0  0  0
  -29.2525   -7.2136  141.2131 C   0  0  0  0  0  0  0  0  0  0  0  0
  -29.7448   -8.0602  140.1272 C   0  0  0  0  0  0  0  0  0  0  0  0
  -28.8860   -8.1988  139.0777 C   0  0  0  0  0  0  0  0  0  0  0  0
  -27.5878   -8.0441  139.2051 C   0  0  0  0  0  0  0  0  0  0  0  0
  3  7  1  0
  2 13  1  0
  6 14  1  0
 14 15  1  0
 15 16  1  0
 16 17  1  0
 16 18  2  0
  9 19  1  0
  1 20  1  0
 19 21  1  0
 24 27  1  0
 27 28  2  0
 27 29  1  0
 29 30  1  0
 29 31  1  0
 31 32  1  0
 32 33  1  0
 33 34  1  0
 34 35  1  0
  7  8  2  0
  8  9  1  0
  9 10  2  0
 10 12  1  0
 12 11  2  0
 11  7  1  0
  1  2  2  0
  2  3  1  0
  3  4  2  0
  4  6  1  0
  6  5  2  0
  5  1  1  0
 21 22  2  0
 22 23  1  0
 23 24  2  0
 24 25  1  0
 25 26  2  0
 26 21  1  0
M  END

$$$$
No_995-/dssg/home/sw_qyf/PocketFlow/Model-Generation-Results/5HT2A_7WC7_rec_A_10.pdb/2024-01-01-03-54-21/
     RDKit          3D

 35 38  0  0  0  0  0  0  0  0999 V2000
  -23.1746  -16.6014  144.8668 C   0  0  0  0  0  0  0  0  0  0  0  0
  -23.7011  -17.0158  145.9774 C   0  0  0  0  0  0  0  0  0  0  0  0
  -24.7096  -16.6222  146.3577 C   0  0  0  0  0  0  0  0  0  0  0  0
  -25.2589  -16.9410  147.8027 C   0  0  0  0  0  0  0  0  0  0  0  0
  -24.3234  -17.5558  148.6398 C   0  0  0  0  0  0  0  0  0  0  0  0
  -23.7919  -15.5148  144.2100 C   0  0  0  0  0  0  0  0  0  0  0  0
  -24.8968  -14.8817  144.7775 C   0  0  0  0  0  0  0  0  0  0  0  0
  -25.3730  -15.4146  145.9639 C   0  0  0  0  0  0  0  0  0  0  0  0
  -24.7339  -17.8072  150.0231 C   0  0  0  0  0  0  0  0  0  0  0  0
  -25.4977  -17.0819  150.5503 C   0  0  0  0  0  0  0  0  0  0  0  0
  -26.5924  -16.5319  149.7676 C   0  0  0  0  0  0  0  0  0  0  0  0
  -26.3154  -16.3241  148.3961 C   0  0  0  0  0  0  0  0  0  0  0  0
  -25.4840  -13.8098  143.9398 C   0  0  0  0  0  0  0  0  0  0  0  0
  -25.2721  -12.6816  144.3739 F   0  0  0  0  0  0  0  0  0  0  0  0
  -25.1076  -13.8464  142.6644 F   0  0  0  0  0  0  0  0  0  0  0  0
  -26.8782  -13.9357  143.9621 F   0  0  0  0  0  0  0  0  0  0  0  0
  -23.3123  -18.2538  148.3229 F   0  0  0  0  0  0  0  0  0  0  0  0
  -27.4894  -15.3974  147.5931 Cl  0  0  0  0  0  0  0  0  0  0  0  0
  -25.8971  -17.2898  151.8683 O   0  0  0  0  0  0  0  0  0  0  0  0
  -26.5439  -18.5088  152.2413 C   0  0  0  0  0  0  0  0  0  0  0  0
  -27.9368  -18.3832  152.6287 C   0  0  0  0  0  0  0  0  0  0  0  0
  -28.2516  -18.8060  153.6472 C   0  0  0  0  0  0  0  0  0  0  0  0
  -29.6809  -18.6192  154.0969 C   0  0  0  0  0  0  0  0  0  0  0  0
  -30.4903  -17.8007  153.3114 C   0  0  0  0  0  0  0  0  0  0  0  0
  -30.0592  -17.3950  152.0774 C   0  0  0  0  0  0  0  0  0  0  0  0
  -28.7315  -17.6442  151.7178 C   0  0  0  0  0  0  0  0  0  0  0  0
  -30.9386  -16.5740  151.2595 C   0  0  0  0  0  0  0  0  0  0  0  0
  -31.8900  -15.6700  151.8033 C   0  0  0  0  0  0  0  0  0  0  0  0
  -32.5103  -14.7082  151.0816 C   0  0  0  0  0  0  0  0  0  0  0  0
  -31.9060  -14.3231  149.8124 C   0  0  0  0  0  0  0  0  0  0  0  0
  -30.6888  -14.9552  149.4086 C   0  0  0  0  0  0  0  0  0  0  0  0
  -30.2124  -16.0300  150.1517 C   0  0  0  0  0  0  0  0  0  0  0  0
  -32.4908  -12.8786  148.8175 Br  0  0  0  0  0  0  0  0  0  0  0  0
  -33.5615  -13.9943  151.5331 N   0  0  0  0  0  0  0  0  0  0  0  0
  -33.5547  -12.6135  151.6347 C   0  0  0  0  0  0  0  0  0  0  0  0
  3  4  1  0
  7 13  1  0
 13 14  1  0
 13 15  1  0
 13 16  1  0
  5 17  1  0
 12 18  1  0
 10 19  1  0
 19 20  1  0
 20 21  1  0
 25 27  1  0
 30 33  1  0
 29 34  1  0
 34 35  1  0
 27 28  2  0
 28 29  1  0
 29 30  2  0
 30 31  1  0
 31 32  2  0
 32 27  1  0
  1  2  2  0
  2  3  1  0
  3  8  2  0
  8  7  1  0
  7  6  2  0
  6  1  1  0
  4  5  2  0
  5  9  1  0
  9 10  2  0
 10 11  1  0
 11 12  2  0
 12  4  1  0
 21 22  2  0
 22 23  1  0
 23 24  2  0
 24 25  1  0
 25 26  2  0
 26 21  1  0
M  END

$$$$
No_996-/dssg/home/sw_qyf/PocketFlow/Model-Generation-Results/5HT2A_7WC7_rec_A_10.pdb/2024-01-01-03-54-21/
     RDKit          3D

 35 37  0  0  0  0  0  0  0  0999 V2000
  -23.1746  -16.6014  144.8668 C   0  0  0  0  0  0  0  0  0  0  0  0
  -23.7011  -17.0158  145.9774 C   0  0  0  0  0  0  0  0  0  0  0  0
  -24.2134  -16.0722  146.8877 C   0  0  0  0  0  0  0  0  0  0  0  0
  -25.2064  -15.3422  146.4171 C   0  0  0  0  0  0  0  0  0  0  0  0
  -26.3570  -15.1251  146.8987 C   0  0  0  0  0  0  0  0  0  0  0  0
  -27.2237  -14.1018  146.4138 C   0  0  0  0  0  0  0  0  0  0  0  0
  -26.7421  -13.3441  145.3168 C   0  0  0  0  0  0  0  0  0  0  0  0
  -25.5180  -13.5937  144.7665 C   0  0  0  0  0  0  0  0  0  0  0  0
  -24.6920  -14.5773  145.2654 C   0  0  0  0  0  0  0  0  0  0  0  0
  -23.9632  -15.4069  144.3083 C   0  0  0  0  0  0  0  0  0  0  0  0
  -27.6203  -12.2181  144.8996 C   0  0  0  0  0  0  0  0  0  0  0  0
  -27.4661  -11.5356  143.7247 C   0  0  0  0  0  0  0  0  0  0  0  0
  -28.3080  -10.5197  143.2648 C   0  0  0  0  0  0  0  0  0  0  0  0
  -29.4568  -10.1716  144.0451 C   0  0  0  0  0  0  0  0  0  0  0  0
  -29.5777  -10.8295  145.3544 C   0  0  0  0  0  0  0  0  0  0  0  0
  -28.7586  -11.8233  145.7539 C   0  0  0  0  0  0  0  0  0  0  0  0
  -30.3436   -9.0866  143.6969 C   0  0  0  0  0  0  0  0  0  0  0  0
  -30.0917   -8.1197  142.9195 N   0  0  0  0  0  0  0  0  0  0  0  0
  -30.5345   -8.2535  141.5691 C   0  0  0  0  0  0  0  0  0  0  0  0
  -29.6877   -7.5273  140.6391 C   0  0  0  0  0  0  0  0  0  0  0  0
  -29.0915   -8.1566  139.5305 C   0  0  0  0  0  0  0  0  0  0  0  0
  -28.4476   -9.3384  139.7425 C   0  0  0  0  0  0  0  0  0  0  0  0
  -27.7830  -10.0634  139.1352 C   0  0  0  0  0  0  0  0  0  0  0  0
  -27.3180  -11.4151  139.2329 C   0  0  0  0  0  0  0  0  0  0  0  0
  -27.4092  -12.1084  140.4421 C   0  0  0  0  0  0  0  0  0  0  0  0
  -27.0316  -13.4723  140.6120 C   0  0  0  0  0  0  0  0  0  0  0  0
  -31.4773   -9.0707  144.3356 O   0  0  0  0  0  0  0  0  0  0  0  0
  -23.1840  -18.3414  146.5677 C   0  0  0  0  0  0  0  0  0  0  0  0
  -22.3627  -18.8536  146.2423 O   0  0  0  0  0  0  0  0  0  0  0  0
  -24.2464  -18.9678  147.3206 O   0  0  0  0  0  0  0  0  0  0  0  0
  -27.2678  -13.9795  141.9723 C   0  0  0  0  0  0  0  0  0  0  0  0
  -26.8170  -15.2187  142.3119 C   0  0  0  0  0  0  0  0  0  0  0  0
  -26.7683  -12.0465  138.2948 F   0  0  0  0  0  0  0  0  0  0  0  0
  -28.1685   -7.2193  139.0032 F   0  0  0  0  0  0  0  0  0  0  0  0
  -29.7073   -8.1968  138.2879 F   0  0  0  0  0  0  0  0  0  0  0  0
  1  2  1  0
  2  3  1  0
  3  4  1  0
  1 10  1  0
  9 10  1  0
  7 11  1  0
 14 17  1  0
 17 18  1  0
 18 19  1  0
 19 20  1  0
 20 21  1  0
 21 22  1  0
 22 23  2  3
 23 24  1  0
 24 25  2  3
 25 26  1  0
 17 27  2  0
  2 28  1  0
 28 29  2  0
 28 30  1  0
 26 31  2  3
 31 32  1  0
 24 33  1  0
 21 34  1  0
 21 35  1  0
 11 12  2  0
 12 13  1  0
 13 14  2  0
 14 15  1  0
 15 16  2  0
 16 11  1  0
  4  5  2  0
  5  6  1  0
  6  7  2  0
  7  8  1  0
  8  9  2  0
  9  4  1  0
M  END

$$$$
No_997-/dssg/home/sw_qyf/PocketFlow/Model-Generation-Results/5HT2A_7WC7_rec_A_10.pdb/2024-01-01-03-54-21/
     RDKit          3D

 30 32  0  0  0  0  0  0  0  0999 V2000
  -24.1553  -17.8465  145.7021 C   0  0  0  0  0  0  0  0  0  0  0  0
  -24.2856  -16.6364  145.3494 C   0  0  0  0  0  0  0  0  0  0  0  0
  -24.5733  -15.7651  145.9979 C   0  0  0  0  0  0  0  0  0  0  0  0
  -25.0272  -15.9886  147.3700 C   0  0  0  0  0  0  0  0  0  0  0  0
  -24.4993  -18.2276  147.0208 C   0  0  0  0  0  0  0  0  0  0  0  0
  -24.9009  -17.2232  147.9329 C   0  0  0  0  0  0  0  0  0  0  0  0
  -24.7137  -14.2591  145.5600 C   0  0  0  0  0  0  0  0  0  0  0  0
  -25.6084  -13.3968  146.1515 C   0  0  0  0  0  0  0  0  0  0  0  0
  -25.5159  -12.0274  145.9049 C   0  0  0  0  0  0  0  0  0  0  0  0
  -24.5054  -11.4990  145.1128 C   0  0  0  0  0  0  0  0  0  0  0  0
  -23.7464  -13.7488  144.6406 C   0  0  0  0  0  0  0  0  0  0  0  0
  -23.5662  -12.3582  144.5563 C   0  0  0  0  0  0  0  0  0  0  0  0
  -25.2175  -17.5168  149.3533 C   0  0  0  0  0  0  0  0  0  0  0  0
  -26.3885  -17.4724  149.8098 O   0  0  0  0  0  0  0  0  0  0  0  0
  -24.1820  -17.6487  150.2443 O   0  0  0  0  0  0  0  0  0  0  0  0
  -23.9820  -16.2730  143.9918 F   0  0  0  0  0  0  0  0  0  0  0  0
  -26.4136  -11.1328  146.4963 O   0  0  0  0  0  0  0  0  0  0  0  0
  -24.0878  -16.7340  151.2584 C   0  0  0  0  0  0  0  0  0  0  0  0
  -27.5771  -10.9919  145.7764 C   0  0  0  0  0  0  0  0  0  0  0  0
  -27.5984  -10.2703  144.6395 C   0  0  0  0  0  0  0  0  0  0  0  0
  -28.8283   -9.9827  144.0020 C   0  0  0  0  0  0  0  0  0  0  0  0
  -28.9064   -9.5217  142.6961 C   0  0  0  0  0  0  0  0  0  0  0  0
  -28.4045  -10.3428  141.6107 C   0  0  0  0  0  0  0  0  0  0  0  0
  -28.4410  -11.7166  141.6101 C   0  0  0  0  0  0  0  0  0  0  0  0
  -27.9316  -12.4547  140.4806 C   0  0  0  0  0  0  0  0  0  0  0  0
  -27.4129  -11.7951  139.3688 C   0  0  0  0  0  0  0  0  0  0  0  0
  -27.3503  -10.3744  139.4043 C   0  0  0  0  0  0  0  0  0  0  0  0
  -27.7764   -9.6725  140.4807 C   0  0  0  0  0  0  0  0  0  0  0  0
  -30.0276  -10.2261  144.7699 C   0  0  0  0  0  0  0  0  0  0  0  0
  -31.1264   -9.7818  144.4662 O   0  0  0  0  0  0  0  0  0  0  0  0
  3  7  1  0
  6 13  1  0
 13 14  2  0
 13 15  1  0
  2 16  1  0
  9 17  1  0
 15 18  1  0
 17 19  1  0
 19 20  2  3
 20 21  1  0
 21 22  1  0
 22 23  1  0
 21 29  1  0
 29 30  2  0
  7  8  2  0
  8  9  1  0
  9 10  2  0
 10 12  1  0
 12 11  2  0
 11  7  1  0
 23 24  2  0
 24 25  1  0
 25 26  2  0
 26 27  1  0
 27 28  2  0
 28 23  1  0
  1  2  2  0
  2  3  1  0
  3  4  2  0
  4  6  1  0
  6  5  2  0
  5  1  1  0
M  END

$$$$
No_998-/dssg/home/sw_qyf/PocketFlow/Model-Generation-Results/5HT2A_7WC7_rec_A_10.pdb/2024-01-01-03-54-21/
     RDKit          3D

 28 29  0  0  0  0  0  0  0  0999 V2000
  -24.1553  -17.8465  145.7021 C   0  0  0  0  0  0  0  0  0  0  0  0
  -24.6364  -17.2931  146.7091 C   0  0  0  0  0  0  0  0  0  0  0  0
  -24.0780  -17.2921  147.9389 C   0  0  0  0  0  0  0  0  0  0  0  0
  -24.6761  -16.7363  149.1478 C   0  0  0  0  0  0  0  0  0  0  0  0
  -24.1428  -16.9673  150.4142 C   0  0  0  0  0  0  0  0  0  0  0  0
  -24.4938  -17.3927  144.4210 C   0  0  0  0  0  0  0  0  0  0  0  0
  -24.6302  -15.9376  144.5620 C   0  0  0  0  0  0  0  0  0  0  0  0
  -24.5156  -15.0089  143.4830 C   0  0  0  0  0  0  0  0  0  0  0  0
  -25.3767  -16.1200  146.2786 C   0  0  0  0  0  0  0  0  0  0  0  0
  -24.8681  -13.5821  144.1047 C   0  0  0  0  0  0  0  0  0  0  0  0
  -26.0047  -13.1446  144.2814 N   0  0  0  0  0  0  0  0  0  0  0  0
  -26.3156  -12.0646  144.9387 C   0  0  0  0  0  0  0  0  0  0  0  0
  -27.0547  -11.8786  145.8276 C   0  0  0  0  0  0  0  0  0  0  0  0
  -28.2991  -12.5589  145.8384 C   0  0  0  0  0  0  0  0  0  0  0  0
  -29.2916  -12.2851  147.0261 C   0  0  0  0  0  0  0  0  0  0  0  0
  -30.0483  -12.9886  147.4617 C   0  0  0  0  0  0  0  0  0  0  0  0
  -30.8758  -12.6669  148.6800 C   0  0  0  0  0  0  0  0  0  0  0  0
  -31.6048  -13.5678  149.3026 C   0  0  0  0  0  0  0  0  0  0  0  0
  -32.3889  -13.1719  150.3945 C   0  0  0  0  0  0  0  0  0  0  0  0
  -32.9018  -14.0967  151.3740 C   0  0  0  0  0  0  0  0  0  0  0  0
  -33.7749  -13.6775  152.3706 C   0  0  0  0  0  0  0  0  0  0  0  0
  -34.2660  -14.5272  153.2091 N   0  0  0  0  0  0  0  0  0  0  0  0
  -34.0177  -15.8118  152.9468 C   0  0  0  0  0  0  0  0  0  0  0  0
  -33.1975  -16.3013  152.0953 N   0  0  0  0  0  0  0  0  0  0  0  0
  -32.6457  -15.4068  151.2732 C   0  0  0  0  0  0  0  0  0  0  0  0
  -32.8654  -11.7642  150.4251 C   0  0  0  0  0  0  0  0  0  0  0  0
  -33.9880  -11.8025  151.1212 F   0  0  0  0  0  0  0  0  0  0  0  0
  -31.9903  -11.0695  151.2578 F   0  0  0  0  0  0  0  0  0  0  0  0
  1  2  1  0
  2  3  2  3
  3  4  1  0
  4  5  1  0
  1  6  2  0
  6  7  1  0
  7  8  1  0
  2  9  1  0
  7  9  1  0
  8 10  1  0
 10 11  1  0
 11 12  1  0
 12 13  1  0
 13 14  1  0
 14 15  1  0
 15 16  2  3
 16 17  1  0
 17 18  2  3
 18 19  1  0
 19 20  1  0
 19 26  1  0
 26 27  1  0
 26 28  1  0
 20 21  2  0
 21 22  1  0
 22 23  2  0
 23 24  1  0
 24 25  2  0
 25 20  1  0
M  END

$$$$
No_999-/dssg/home/sw_qyf/PocketFlow/Model-Generation-Results/5HT2A_7WC7_rec_A_10.pdb/2024-01-01-03-54-21/
     RDKit          3D

 30 33  0  0  0  0  0  0  0  0999 V2000
  -23.1746  -16.6014  144.8668 C   0  0  0  0  0  0  0  0  0  0  0  0
  -23.7011  -17.0158  145.9774 C   0  0  0  0  0  0  0  0  0  0  0  0
  -24.7096  -16.6222  146.3577 C   0  0  0  0  0  0  0  0  0  0  0  0
  -25.4819  -15.5594  145.8226 C   0  0  0  0  0  0  0  0  0  0  0  0
  -26.6929  -14.9922  146.4004 C   0  0  0  0  0  0  0  0  0  0  0  0
  -27.2819  -13.8194  145.9771 C   0  0  0  0  0  0  0  0  0  0  0  0
  -26.7551  -13.0644  145.3453 C   0  0  0  0  0  0  0  0  0  0  0  0
  -25.4057  -13.4223  144.7070 C   0  0  0  0  0  0  0  0  0  0  0  0
  -24.7166  -12.4317  143.8732 C   0  0  0  0  0  0  0  0  0  0  0  0
  -24.7666  -14.5266  145.0686 C   0  0  0  0  0  0  0  0  0  0  0  0
  -23.4795  -15.1375  144.5191 C   0  0  0  0  0  0  0  0  0  0  0  0
  -27.3019  -11.7144  144.9451 C   0  0  0  0  0  0  0  0  0  0  0  0
  -27.0763  -11.0733  143.8670 C   0  0  0  0  0  0  0  0  0  0  0  0
  -25.5654  -11.2954  143.3857 C   0  0  0  0  0  0  0  0  0  0  0  0
  -27.9671  -10.6310  142.9240 C   0  0  0  0  0  0  0  0  0  0  0  0
  -28.2654  -10.8520  141.6639 C   0  0  0  0  0  0  0  0  0  0  0  0
  -28.9245  -10.0333  140.8422 C   0  0  0  0  0  0  0  0  0  0  0  0
  -29.2730   -8.8463  141.3631 C   0  0  0  0  0  0  0  0  0  0  0  0
  -29.2014   -8.4809  142.7556 C   0  0  0  0  0  0  0  0  0  0  0  0
  -28.4521   -9.2798  143.5345 C   0  0  0  0  0  0  0  0  0  0  0  0
  -30.0854   -7.8570  140.4980 C   0  0  0  0  0  0  0  0  0  0  0  0
  -25.6969  -17.7271  147.0021 C   0  0  0  0  0  0  0  0  0  0  0  0
  -25.3319  -18.5386  147.7213 O   0  0  0  0  0  0  0  0  0  0  0  0
  -26.9505  -17.7726  146.7155 O   0  0  0  0  0  0  0  0  0  0  0  0
  -29.5067   -6.6953  140.3816 F   0  0  0  0  0  0  0  0  0  0  0  0
  -31.3150   -7.6700  141.0590 F   0  0  0  0  0  0  0  0  0  0  0  0
  -30.1523   -8.2158  139.2481 F   0  0  0  0  0  0  0  0  0  0  0  0
  -28.6782  -13.6418  146.6363 C   0  0  0  0  0  0  0  0  0  0  0  0
  -29.4411  -14.5892  147.2898 C   0  0  0  0  0  0  0  0  0  0  0  0
  -30.6664  -14.1593  147.7722 N   0  0  0  0  0  0  0  0  0  0  0  0
 13 15  1  0
 18 21  1  0
  3 22  1  0
 22 23  2  0
 22 24  1  0
 21 25  1  0
 21 26  1  0
 21 27  1  0
  6 28  1  0
 28 29  2  3
 29 30  1  0
  1  2  2  0
  2  3  1  0
  3  4  2  0
 10 11  2  0
 11  1  1  0
  8  9  2  0
  9 14  1  0
 14 13  2  0
 13 12  1  0
 12  7  2  0
 15 16  2  0
 16 17  1  0
 17 18  2  0
 18 19  1  0
 19 20  2  0
 20 15  1  0
  4  5  1  0
  5  6  2  0
  6  7  1  0
  7  8  1  0
  8 10  1  0
 10  4  1  0
M  END

$$$$
No_1000-/dssg/home/sw_qyf/PocketFlow/Model-Generation-Results/5HT2A_7WC7_rec_A_10.pdb/2024-01-01-03-54-21/
     RDKit          3D

 26 28  0  0  0  0  0  0  0  0999 V2000
  -24.1553  -17.8465  145.7021 C   0  0  0  0  0  0  0  0  0  0  0  0
  -24.2856  -16.6364  145.3494 C   0  0  0  0  0  0  0  0  0  0  0  0
  -24.5733  -15.7651  145.9979 C   0  0  0  0  0  0  0  0  0  0  0  0
  -25.0272  -15.9886  147.3700 C   0  0  0  0  0  0  0  0  0  0  0  0
  -24.4993  -18.2276  147.0208 C   0  0  0  0  0  0  0  0  0  0  0  0
  -24.9009  -17.2232  147.9329 C   0  0  0  0  0  0  0  0  0  0  0  0
  -24.7156  -14.2654  145.5569 C   0  0  0  0  0  0  0  0  0  0  0  0
  -25.6315  -13.4122  146.0508 C   0  0  0  0  0  0  0  0  0  0  0  0
  -25.5681  -12.0671  145.7520 C   0  0  0  0  0  0  0  0  0  0  0  0
  -24.4589  -11.5012  145.1169 C   0  0  0  0  0  0  0  0  0  0  0  0
  -23.6779  -13.7646  144.6790 C   0  0  0  0  0  0  0  0  0  0  0  0
  -23.4754  -12.3647  144.6350 C   0  0  0  0  0  0  0  0  0  0  0  0
  -26.5456  -11.0963  146.4099 C   0  0  0  0  0  0  0  0  0  0  0  0
  -27.9251  -11.6092  146.2403 C   0  0  0  0  0  0  0  0  0  0  0  0
  -28.5081  -12.2292  147.1613 C   0  0  0  0  0  0  0  0  0  0  0  0
  -29.9349  -12.6201  147.1464 C   0  0  0  0  0  0  0  0  0  0  0  0
  -30.4287  -13.3319  148.2494 C   0  0  0  0  0  0  0  0  0  0  0  0
  -28.6166  -11.2434  145.0653 C   0  0  0  0  0  0  0  0  0  0  0  0
  -29.8914  -10.6002  145.2412 C   0  0  0  0  0  0  0  0  0  0  0  0
  -30.3716   -9.8682  144.2356 N   0  0  0  0  0  0  0  0  0  0  0  0
  -29.6261   -9.5641  143.2438 C   0  0  0  0  0  0  0  0  0  0  0  0
  -30.0921   -8.5695  142.3550 C   0  0  0  0  0  0  0  0  0  0  0  0
  -29.4613   -8.1500  141.1449 C   0  0  0  0  0  0  0  0  0  0  0  0
  -28.5706   -9.1739  140.6087 C   0  0  0  0  0  0  0  0  0  0  0  0
  -28.1097  -10.2852  141.4282 C   0  0  0  0  0  0  0  0  0  0  0  0
  -28.7199  -10.5220  142.6531 C   0  0  0  0  0  0  0  0  0  0  0  0
  3  7  1  0
  9 13  1  0
 13 14  1  0
 14 15  2  3
 15 16  1  0
 16 17  2  0
 14 18  1  0
 18 19  1  0
 19 20  1  0
 20 21  1  0
  7  8  2  0
  8  9  1  0
  9 10  2  0
 10 12  1  0
 12 11  2  0
 11  7  1  0
  1  2  2  0
  2  3  1  0
  3  4  2  0
  4  6  1  0
  6  5  2  0
  5  1  1  0
 21 22  2  0
 22 23  1  0
 23 24  2  0
 24 25  1  0
 25 26  2  0
 26 21  1  0
M  END

$$$$
No_1001-/dssg/home/sw_qyf/PocketFlow/Model-Generation-Results/5HT2A_7WC7_rec_A_10.pdb/2024-01-01-03-54-21/
     RDKit          3D

 26 28  0  0  0  0  0  0  0  0999 V2000
  -24.1553  -17.8465  145.7021 C   0  0  0  0  0  0  0  0  0  0  0  0
  -24.2856  -16.6364  145.3494 C   0  0  0  0  0  0  0  0  0  0  0  0
  -24.5733  -15.7651  145.9979 C   0  0  0  0  0  0  0  0  0  0  0  0
  -25.0272  -15.9886  147.3700 C   0  0  0  0  0  0  0  0  0  0  0  0
  -24.4993  -18.2276  147.0208 C   0  0  0  0  0  0  0  0  0  0  0  0
  -24.9009  -17.2232  147.9329 C   0  0  0  0  0  0  0  0  0  0  0  0
  -24.6115  -14.3666  145.3786 C   0  0  0  0  0  0  0  0  0  0  0  0
  -25.2852  -13.3111  146.0105 C   0  0  0  0  0  0  0  0  0  0  0  0
  -25.2575  -11.9933  145.6174 C   0  0  0  0  0  0  0  0  0  0  0  0
  -23.9521  -13.9892  144.2454 C   0  0  0  0  0  0  0  0  0  0  0  0
  -26.3746  -11.1329  145.8268 C   0  0  0  0  0  0  0  0  0  0  0  0
  -27.3969  -11.1780  144.8881 C   0  0  0  0  0  0  0  0  0  0  0  0
  -27.6316  -10.0586  144.1040 C   0  0  0  0  0  0  0  0  0  0  0  0
  -28.8351   -9.9487  143.2792 C   0  0  0  0  0  0  0  0  0  0  0  0
  -29.8271   -9.4245  143.3588 C   0  0  0  0  0  0  0  0  0  0  0  0
  -30.7747   -9.0551  142.3866 C   0  0  0  0  0  0  0  0  0  0  0  0
  -30.3757   -8.0545  141.5938 C   0  0  0  0  0  0  0  0  0  0  0  0
  -29.3189   -8.3845  140.6034 C   0  0  0  0  0  0  0  0  0  0  0  0
  -29.0524   -7.4515  139.5938 C   0  0  0  0  0  0  0  0  0  0  0  0
  -28.2213   -7.8593  138.5229 C   0  0  0  0  0  0  0  0  0  0  0  0
  -28.6689  -11.2092  142.2745 C   0  0  0  0  0  0  0  0  0  0  0  0
  -28.3646   -9.1926  138.2566 C   0  0  0  0  0  0  0  0  0  0  0  0
  -27.9219  -10.1985  139.2356 C   0  0  0  0  0  0  0  0  0  0  0  0
  -27.8530  -10.0424  140.5043 C   0  0  0  0  0  0  0  0  0  0  0  0
  -28.6689   -9.1644  141.2181 C   0  0  0  0  0  0  0  0  0  0  0  0
  -29.3264   -9.7974  142.1523 N   0  0  0  0  0  0  0  0  0  0  0  0
  3  7  1  0
  7  8  2  3
  8  9  1  0
  7 10  1  0
  9 11  1  0
 11 12  1  0
 12 13  1  0
 13 14  1  0
 14 15  1  0
 15 16  2  0
 16 17  1  0
 17 18  1  0
 18 19  1  0
 19 20  2  0
 14 21  1  0
 20 22  1  0
 22 23  1  0
 23 24  2  0
 18 25  1  0
 24 25  1  0
 14 26  1  0
 25 26  1  0
  1  2  2  0
  2  3  1  0
  3  4  2  0
  4  6  1  0
  6  5  2  0
  5  1  1  0
M  END

$$$$
No_1002-/dssg/home/sw_qyf/PocketFlow/Model-Generation-Results/5HT2A_7WC7_rec_A_10.pdb/2024-01-01-03-54-21/
     RDKit          3D

 35 38  0  0  0  0  0  0  0  0999 V2000
  -23.1746  -16.6014  144.8668 C   0  0  0  0  0  0  0  0  0  0  0  0
  -23.8963  -15.5346  144.7885 C   0  0  0  0  0  0  0  0  0  0  0  0
  -23.6398  -14.5115  145.3282 C   0  0  0  0  0  0  0  0  0  0  0  0
  -24.3239  -13.3647  145.1279 C   0  0  0  0  0  0  0  0  0  0  0  0
  -25.5070  -13.2952  144.4351 C   0  0  0  0  0  0  0  0  0  0  0  0
  -25.9151  -14.5889  143.8604 C   0  0  0  0  0  0  0  0  0  0  0  0
  -25.1243  -15.6356  144.0574 C   0  0  0  0  0  0  0  0  0  0  0  0
  -23.5175  -17.6172  145.7856 N   0  0  0  0  0  0  0  0  0  0  0  0
  -24.3929  -17.4142  146.6280 C   0  0  0  0  0  0  0  0  0  0  0  0
  -25.3988  -17.7473  146.8839 C   0  0  0  0  0  0  0  0  0  0  0  0
  -26.3748  -17.3654  147.9180 C   0  0  0  0  0  0  0  0  0  0  0  0
  -25.7803  -16.4638  148.8783 C   0  0  0  0  0  0  0  0  0  0  0  0
  -24.5811  -15.9274  148.6838 C   0  0  0  0  0  0  0  0  0  0  0  0
  -23.8143  -16.3264  147.6454 C   0  0  0  0  0  0  0  0  0  0  0  0
  -23.8628  -12.0036  145.7784 C   0  0  0  0  0  0  0  0  0  0  0  0
  -22.9472  -12.1909  146.6291 F   0  0  0  0  0  0  0  0  0  0  0  0
  -24.9538  -11.4886  146.4651 F   0  0  0  0  0  0  0  0  0  0  0  0
  -23.4643  -11.2579  144.7860 F   0  0  0  0  0  0  0  0  0  0  0  0
  -23.0975  -19.0202  145.6590 C   0  0  0  0  0  0  0  0  0  0  0  0
  -22.9129  -19.5730  147.0086 C   0  0  0  0  0  0  0  0  0  0  0  0
  -27.2131  -14.5122  143.1401 C   0  0  0  0  0  0  0  0  0  0  0  0
  -27.1832  -13.4415  142.0564 C   0  0  0  0  0  0  0  0  0  0  0  0
  -26.8635  -13.7736  140.7758 C   0  0  0  0  0  0  0  0  0  0  0  0
  -26.8338  -12.6841  139.8463 C   0  0  0  0  0  0  0  0  0  0  0  0
  -27.4442  -11.4022  140.1383 C   0  0  0  0  0  0  0  0  0  0  0  0
  -27.7285  -12.0806  142.3594 C   0  0  0  0  0  0  0  0  0  0  0  0
  -27.8388  -11.1280  141.4311 C   0  0  0  0  0  0  0  0  0  0  0  0
  -27.5440  -10.4310  139.0796 C   0  0  0  0  0  0  0  0  0  0  0  0
  -27.7217  -10.5076  137.8615 C   0  0  0  0  0  0  0  0  0  0  0  0
  -28.3369   -9.4108  137.1306 C   0  0  0  0  0  0  0  0  0  0  0  0
  -28.4755   -8.1538  137.8635 C   0  0  0  0  0  0  0  0  0  0  0  0
  -28.2391   -8.0456  139.2062 C   0  0  0  0  0  0  0  0  0  0  0  0
  -27.8730   -9.1309  139.9028 C   0  0  0  0  0  0  0  0  0  0  0  0
  -28.8156   -9.5765  135.5729 Cl  0  0  0  0  0  0  0  0  0  0  0  0
  -26.3109  -12.8477  138.6907 O   0  0  0  0  0  0  0  0  0  0  0  0
  1  2  1  0
  1  8  1  0
  8  9  1  0
  4 15  1  0
 15 16  1  0
 15 17  1  0
 15 18  1  0
  8 19  1  0
 19 20  1  0
  6 21  1  0
 21 22  1  0
 25 28  1  0
 30 34  1  0
 24 35  1  0
 28 29  2  0
 29 30  1  0
 30 31  2  0
 31 32  1  0
 32 33  2  0
 33 28  1  0
  2  3  2  0
  3  4  1  0
  4  5  2  0
  5  6  1  0
  6  7  2  0
  7  2  1  0
 22 23  2  0
 23 24  1  0
 24 25  2  0
 25 27  1  0
 27 26  2  0
 26 22  1  0
  9 10  2  0
 10 11  1  0
 11 12  2  0
 12 13  1  0
 13 14  2  0
 14  9  1  0
M  END

$$$$
No_1003-/dssg/home/sw_qyf/PocketFlow/Model-Generation-Results/5HT2A_7WC7_rec_A_10.pdb/2024-01-01-03-54-21/
     RDKit          3D

 31 32  0  0  0  0  0  0  0  0999 V2000
  -23.1746  -16.6014  144.8668 C   0  0  0  0  0  0  0  0  0  0  0  0
  -23.8963  -15.5346  144.7885 C   0  0  0  0  0  0  0  0  0  0  0  0
  -23.6398  -14.5115  145.3281 C   0  0  0  0  0  0  0  0  0  0  0  0
  -24.3240  -13.3648  145.1281 C   0  0  0  0  0  0  0  0  0  0  0  0
  -23.8303  -12.0965  145.7920 C   0  0  0  0  0  0  0  0  0  0  0  0
  -25.3059  -13.1626  144.3110 O   0  0  0  0  0  0  0  0  0  0  0  0
  -23.6153  -17.8026  145.6028 C   0  0  0  0  0  0  0  0  0  0  0  0
  -22.9860  -17.8492  146.6369 F   0  0  0  0  0  0  0  0  0  0  0  0
  -23.3911  -18.9900  144.9091 F   0  0  0  0  0  0  0  0  0  0  0  0
  -24.8839  -17.7586  145.9313 F   0  0  0  0  0  0  0  0  0  0  0  0
  -26.4516  -12.5281  144.7651 C   0  0  0  0  0  0  0  0  0  0  0  0
  -26.6163  -11.2844  144.0046 C   0  0  0  0  0  0  0  0  0  0  0  0
  -27.2935  -10.2673  144.9326 C   0  0  0  0  0  0  0  0  0  0  0  0
  -27.7214  -13.4602  144.5087 C   0  0  0  0  0  0  0  0  0  0  0  0
  -27.1283  -14.5390  144.1597 C   0  0  0  0  0  0  0  0  0  0  0  0
  -28.6927  -10.1776  144.5980 C   0  0  0  0  0  0  0  0  0  0  0  0
  -29.0640   -9.3764  143.5656 C   0  0  0  0  0  0  0  0  0  0  0  0
  -30.4768   -9.1522  143.3092 C   0  0  0  0  0  0  0  0  0  0  0  0
  -30.7617   -8.1572  142.9520 O   0  0  0  0  0  0  0  0  0  0  0  0
  -30.1335   -7.7220  141.7709 C   0  0  0  0  0  0  0  0  0  0  0  0
  -29.3999   -8.5649  141.0237 C   0  0  0  0  0  0  0  0  0  0  0  0
  -28.6531   -9.5362  141.9424 C   0  0  0  0  0  0  0  0  0  0  0  0
  -28.5210   -7.9817  140.0559 C   0  0  0  0  0  0  0  0  0  0  0  0
  -28.3334   -8.8462  138.7945 C   0  0  0  0  0  0  0  0  0  0  0  0
  -28.1736  -10.1539  138.9030 C   0  0  0  0  0  0  0  0  0  0  0  0
  -28.1956  -11.0989  137.9339 C   0  0  0  0  0  0  0  0  0  0  0  0
  -27.7243  -12.3613  138.3461 N   0  0  0  0  0  0  0  0  0  0  0  0
  -27.2416  -12.1484  139.6854 C   0  0  0  0  0  0  0  0  0  0  0  0
  -27.4133  -10.8254  139.9842 N   0  0  0  0  0  0  0  0  0  0  0  0
  -28.3916   -8.2101  137.5405 C   0  0  0  0  0  0  0  0  0  0  0  0
  -31.1088  -10.2691  142.5668 O   0  0  0  0  0  0  0  0  0  0  0  0
  1  2  1  0
  2  3  2  3
  3  4  1  0
  4  5  1  0
  4  6  1  0
  1  7  1  0
  7  8  1  0
  7  9  1  0
  7 10  1  0
  6 11  1  0
 11 12  1  0
 12 13  1  0
 11 14  1  0
 14 15  1  0
 13 16  1  0
 16 17  2  3
 17 18  1  0
 18 19  1  0
 19 20  1  0
 20 21  1  0
 17 22  1  0
 21 22  1  0
 21 23  1  0
 23 24  1  0
 24 25  2  3
 25 26  1  0
 26 27  1  0
 27 28  2  0
 25 29  1  0
 28 29  1  0
 24 30  1  0
 18 31  1  0
M  END

$$$$
No_1004-/dssg/home/sw_qyf/PocketFlow/Model-Generation-Results/5HT2A_7WC7_rec_A_10.pdb/2024-01-01-03-54-21/
     RDKit          3D

 22 25  0  0  0  0  0  0  0  0999 V2000
  -24.1553  -17.8465  145.7021 C   0  0  0  0  0  0  0  0  0  0  0  0
  -24.6364  -17.2931  146.7091 C   0  0  0  0  0  0  0  0  0  0  0  0
  -24.0780  -17.2921  147.9389 C   0  0  0  0  0  0  0  0  0  0  0  0
  -24.6761  -16.7363  149.1478 C   0  0  0  0  0  0  0  0  0  0  0  0
  -25.9985  -16.2638  148.9932 C   0  0  0  0  0  0  0  0  0  0  0  0
  -26.6270  -16.3412  147.7728 C   0  0  0  0  0  0  0  0  0  0  0  0
  -27.9899  -15.9394  147.5329 C   0  0  0  0  0  0  0  0  0  0  0  0
  -26.0201  -16.8885  146.6761 C   0  0  0  0  0  0  0  0  0  0  0  0
  -29.0925  -16.2047  148.2595 C   0  0  0  0  0  0  0  0  0  0  0  0
  -28.1374  -14.7487  146.7317 C   0  0  0  0  0  0  0  0  0  0  0  0
  -27.0954  -14.1733  145.9713 C   0  0  0  0  0  0  0  0  0  0  0  0
  -27.2868  -13.0049  145.2841 C   0  0  0  0  0  0  0  0  0  0  0  0
  -26.3837  -12.4921  144.3570 C   0  0  0  0  0  0  0  0  0  0  0  0
  -25.8204  -13.5298  143.6940 C   0  0  0  0  0  0  0  0  0  0  0  0
  -25.1913  -14.5824  144.5611 C   0  0  0  0  0  0  0  0  0  0  0  0
  -24.0583  -15.2864  143.9830 C   0  0  0  0  0  0  0  0  0  0  0  0
  -26.0480  -14.9842  145.4366 C   0  0  0  0  0  0  0  0  0  0  0  0
  -28.3733  -12.0300  145.8427 C   0  0  0  0  0  0  0  0  0  0  0  0
  -29.3240  -12.3143  146.7209 C   0  0  0  0  0  0  0  0  0  0  0  0
  -29.1797  -13.7452  147.3135 C   0  0  0  0  0  0  0  0  0  0  0  0
  -30.1493  -14.2701  148.2210 C   0  0  0  0  0  0  0  0  0  0  0  0
  -29.9853  -15.3382  148.8721 N   0  0  0  0  0  0  0  0  0  0  0  0
  1  2  1  0
  6  7  1  0
 12 13  1  0
 13 14  1  0
 14 15  1  0
 15 16  1  0
 11 17  1  0
 15 17  1  0
 10 11  2  0
 11 12  1  0
 12 18  2  0
 18 19  1  0
 19 20  2  0
  2  3  2  0
  3  4  1  0
  4  5  2  0
  5  6  1  0
  6  8  2  0
  8  2  1  0
  7  9  2  0
  9 22  1  0
 22 21  2  0
 21 20  1  0
 20 10  1  0
 10  7  1  0
M  END

$$$$
No_1005-/dssg/home/sw_qyf/PocketFlow/Model-Generation-Results/5HT2A_7WC7_rec_A_10.pdb/2024-01-01-03-54-21/
     RDKit          3D

 22 22  0  0  0  0  0  0  0  0999 V2000
  -23.1746  -16.6014  144.8668 C   0  0  0  0  0  0  0  0  0  0  0  0
  -23.8963  -15.5346  144.7885 C   0  0  0  0  0  0  0  0  0  0  0  0
  -24.5755  -15.0383  145.9043 C   0  0  0  0  0  0  0  0  0  0  0  0
  -25.0618  -13.6819  146.0347 C   0  0  0  0  0  0  0  0  0  0  0  0
  -25.4100  -13.0255  144.9749 C   0  0  0  0  0  0  0  0  0  0  0  0
  -25.8382  -11.6977  145.1929 C   0  0  0  0  0  0  0  0  0  0  0  0
  -26.4751  -10.9742  144.1457 C   0  0  0  0  0  0  0  0  0  0  0  0
  -27.9521  -11.1160  144.2915 C   0  0  0  0  0  0  0  0  0  0  0  0
  -28.6127  -11.7148  145.2800 C   0  0  0  0  0  0  0  0  0  0  0  0
  -28.2024  -12.7779  145.9648 C   0  0  0  0  0  0  0  0  0  0  0  0
  -23.5094  -17.5134  146.0293 C   0  0  0  0  0  0  0  0  0  0  0  0
  -24.0720  -17.0709  147.2038 C   0  0  0  0  0  0  0  0  0  0  0  0
  -24.6338  -15.8600  147.1913 C   0  0  0  0  0  0  0  0  0  0  0  0
  -28.6967  -10.4248  143.1703 C   0  0  0  0  0  0  0  0  0  0  0  0
  -29.8643   -9.7127  143.4391 C   0  0  0  0  0  0  0  0  0  0  0  0
  -29.9833   -8.9588  144.4606 C   0  0  0  0  0  0  0  0  0  0  0  0
  -29.0557  -13.3968  146.9094 C   0  0  0  0  0  0  0  0  0  0  0  0
  -30.8344   -9.8407  142.4157 C   0  0  0  0  0  0  0  0  0  0  0  0
  -30.0389  -12.6533  147.5278 C   0  0  0  0  0  0  0  0  0  0  0  0
  -30.8773  -13.1861  148.5447 C   0  0  0  0  0  0  0  0  0  0  0  0
  -30.5294  -14.4680  148.9607 C   0  0  0  0  0  0  0  0  0  0  0  0
  -29.5590  -15.2361  148.3293 C   0  0  0  0  0  0  0  0  0  0  0  0
  3  4  1  0
  4  5  1  0
  5  6  1  0
  6  7  1  0
  7  8  1  0
  8  9  1  0
  9 10  1  0
  8 14  1  0
 14 15  1  0
 15 16  1  0
 10 17  2  3
 15 18  1  0
 17 19  1  0
 19 20  2  3
 20 21  1  0
 21 22  2  0
  1  2  2  0
  2  3  1  0
  3 13  2  0
 13 12  1  0
 12 11  2  0
 11  1  1  0
M  END

$$$$
No_1006-/dssg/home/sw_qyf/PocketFlow/Model-Generation-Results/5HT2A_7WC7_rec_A_10.pdb/2024-01-01-03-54-21/
     RDKit          3D

 24 27  0  0  0  0  0  0  0  0999 V2000
  -23.1746  -16.6014  144.8668 C   0  0  0  0  0  0  0  0  0  0  0  0
  -23.7011  -17.0158  145.9774 C   0  0  0  0  0  0  0  0  0  0  0  0
  -24.7095  -16.6222  146.3577 C   0  0  0  0  0  0  0  0  0  0  0  0
  -25.5364  -15.5960  145.8666 C   0  0  0  0  0  0  0  0  0  0  0  0
  -26.7637  -15.0862  146.4419 C   0  0  0  0  0  0  0  0  0  0  0  0
  -27.3929  -13.9236  146.0963 C   0  0  0  0  0  0  0  0  0  0  0  0
  -26.7190  -13.1729  145.0318 C   0  0  0  0  0  0  0  0  0  0  0  0
  -25.5196  -13.6329  144.4962 C   0  0  0  0  0  0  0  0  0  0  0  0
  -24.9374  -14.7915  144.8806 C   0  0  0  0  0  0  0  0  0  0  0  0
  -23.7225  -15.3132  144.3261 C   0  0  0  0  0  0  0  0  0  0  0  0
  -27.4158  -11.9421  144.5340 C   0  0  0  0  0  0  0  0  0  0  0  0
  -27.4840  -11.4917  143.3355 C   0  0  0  0  0  0  0  0  0  0  0  0
  -28.3318  -10.4086  142.9206 C   0  0  0  0  0  0  0  0  0  0  0  0
  -28.2352   -9.7761  141.7350 C   0  0  0  0  0  0  0  0  0  0  0  0
  -29.0370   -8.6470  141.4154 C   0  0  0  0  0  0  0  0  0  0  0  0
  -29.1920   -8.0560  140.1254 C   0  0  0  0  0  0  0  0  0  0  0  0
  -28.4258   -8.5859  139.1188 C   0  0  0  0  0  0  0  0  0  0  0  0
  -28.4530   -8.0804  137.7961 C   0  0  0  0  0  0  0  0  0  0  0  0
  -27.5725   -9.7290  139.4203 C   0  0  0  0  0  0  0  0  0  0  0  0
  -27.5594  -10.2851  140.7173 C   0  0  0  0  0  0  0  0  0  0  0  0
  -29.3564  -10.0784  143.9434 C   0  0  0  0  0  0  0  0  0  0  0  0
  -29.3516  -10.6784  145.2864 C   0  0  0  0  0  0  0  0  0  0  0  0
  -28.4419  -11.6559  145.5904 C   0  0  0  0  0  0  0  0  0  0  0  0
  -30.3614  -10.2709  146.1711 N   0  0  0  0  0  0  0  0  0  0  0  0
  7 11  1  0
 17 18  1  0
 22 24  1  0
 13 14  1  0
 14 15  2  0
 15 16  1  0
 16 17  2  0
 17 19  1  0
 19 20  2  0
 20 14  1  0
  1  2  2  0
  2  3  1  0
  3  4  2  0
  9 10  2  0
 10  1  1  0
 11 12  2  0
 12 13  1  0
 13 21  2  0
 21 22  1  0
 22 23  2  0
 23 11  1  0
  4  5  1  0
  5  6  2  0
  6  7  1  0
  7  8  2  0
  8  9  1  0
  9  4  1  0
M  END

$$$$
No_1007-/dssg/home/sw_qyf/PocketFlow/Model-Generation-Results/5HT2A_7WC7_rec_A_10.pdb/2024-01-01-03-54-21/
     RDKit          3D

 35 37  0  0  0  0  0  0  0  0999 V2000
  -23.8042  -18.1535  145.4053 O   0  0  0  0  0  0  0  0  0  0  0  0
  -23.9974  -18.3151  146.4113 C   0  0  0  0  0  0  0  0  0  0  0  0
  -23.4927  -17.5000  147.5242 C   0  0  0  0  0  0  0  0  0  0  0  0
  -24.3929  -16.8101  148.4296 C   0  0  0  0  0  0  0  0  0  0  0  0
  -25.6229  -17.3837  148.6043 C   0  0  0  0  0  0  0  0  0  0  0  0
  -26.6872  -16.5221  148.4295 C   0  0  0  0  0  0  0  0  0  0  0  0
  -27.2685  -16.3074  147.1958 C   0  0  0  0  0  0  0  0  0  0  0  0
  -28.3538  -15.5043  146.9903 C   0  0  0  0  0  0  0  0  0  0  0  0
  -28.3367  -14.4549  146.1317 C   0  0  0  0  0  0  0  0  0  0  0  0
  -29.0838  -13.1959  146.3591 C   0  0  0  0  0  0  0  0  0  0  0  0
  -28.7922  -11.9618  145.7220 C   0  0  0  0  0  0  0  0  0  0  0  0
  -27.8695  -11.8699  144.7370 C   0  0  0  0  0  0  0  0  0  0  0  0
  -27.7253  -10.6573  144.0389 C   0  0  0  0  0  0  0  0  0  0  0  0
  -28.9197   -9.8328  143.9512 C   0  0  0  0  0  0  0  0  0  0  0  0
  -29.9925  -10.0395  144.9092 C   0  0  0  0  0  0  0  0  0  0  0  0
  -30.0233  -11.1460  145.6853 C   0  0  0  0  0  0  0  0  0  0  0  0
  -28.9248   -8.6720  143.0964 C   0  0  0  0  0  0  0  0  0  0  0  0
  -28.9216   -7.3812  143.5734 C   0  0  0  0  0  0  0  0  0  0  0  0
  -29.0748   -6.2019  142.7279 C   0  0  0  0  0  0  0  0  0  0  0  0
  -29.3931   -6.4332  141.3842 C   0  0  0  0  0  0  0  0  0  0  0  0
  -29.5176   -7.7381  140.9297 C   0  0  0  0  0  0  0  0  0  0  0  0
  -29.3255   -8.8814  141.7788 C   0  0  0  0  0  0  0  0  0  0  0  0
  -30.1058  -13.3683  147.4144 C   0  0  0  0  0  0  0  0  0  0  0  0
  -30.7650  -12.4033  147.7983 O   0  0  0  0  0  0  0  0  0  0  0  0
  -30.1369  -14.5645  148.1833 C   0  0  0  0  0  0  0  0  0  0  0  0
  -29.2839  -15.5034  148.0899 C   0  0  0  0  0  0  0  0  0  0  0  0
  -29.7656   -8.0952  139.6626 N   0  0  0  0  0  0  0  0  0  0  0  0
  -28.7689   -8.6344  138.8681 C   0  0  0  0  0  0  0  0  0  0  0  0
  -28.8586   -8.5664  137.4577 C   0  0  0  0  0  0  0  0  0  0  0  0
  -27.6249   -9.3248  139.4200 C   0  0  0  0  0  0  0  0  0  0  0  0
  -27.6297  -10.6931  139.7794 C   0  0  0  0  0  0  0  0  0  0  0  0
  -27.3625  -11.6816  138.9662 C   0  0  0  0  0  0  0  0  0  0  0  0
  -26.9897  -12.9956  139.6369 C   0  0  0  0  0  0  0  0  0  0  0  0
  -27.2598  -13.0920  140.8927 C   0  0  0  0  0  0  0  0  0  0  0  0
  -27.7492  -12.1312  141.7685 C   0  0  0  0  0  0  0  0  0  0  0  0
  1  2  2  0
  2  3  1  0
  3  4  1  0
  4  5  1  0
  5  6  1  0
  6  7  1  0
  7  8  1  0
 10 11  1  0
 14 17  1  0
 23 24  1  0
 21 27  1  0
 27 28  1  0
 28 29  1  0
 28 30  1  0
 30 31  1  0
 31 32  1  0
 32 33  1  0
 33 34  2  3
 34 35  1  0
 17 18  2  0
 18 19  1  0
 19 20  2  0
 20 21  1  0
 21 22  2  0
 22 17  1  0
 11 12  2  0
 12 13  1  0
 13 14  2  0
 14 15  1  0
 15 16  2  0
 16 11  1  0
  8  9  2  0
  9 10  1  0
 10 23  2  0
 23 25  1  0
 25 26  2  0
 26  8  1  0
M  END

$$$$
No_1008-/dssg/home/sw_qyf/PocketFlow/Model-Generation-Results/5HT2A_7WC7_rec_A_10.pdb/2024-01-01-03-54-21/
     RDKit          3D

 35 38  0  0  0  0  0  0  0  0999 V2000
  -24.1553  -17.8465  145.7021 C   0  0  0  0  0  0  0  0  0  0  0  0
  -23.9795  -18.4462  146.7426 C   0  0  0  0  0  0  0  0  0  0  0  0
  -24.2723  -16.4220  145.8037 C   0  0  0  0  0  0  0  0  0  0  0  0
  -24.0151  -15.5895  144.6874 C   0  0  0  0  0  0  0  0  0  0  0  0
  -24.0834  -17.9646  148.0883 C   0  0  0  0  0  0  0  0  0  0  0  0
  -24.2949  -16.5690  148.2409 C   0  0  0  0  0  0  0  0  0  0  0  0
  -24.3289  -15.7594  147.1024 C   0  0  0  0  0  0  0  0  0  0  0  0
  -24.3318  -14.1513  144.8501 C   0  0  0  0  0  0  0  0  0  0  0  0
  -24.9693  -13.7232  143.9870 C   0  0  0  0  0  0  0  0  0  0  0  0
  -26.1977  -13.0505  144.4897 C   0  0  0  0  0  0  0  0  0  0  0  0
  -27.3582  -13.4065  144.0335 C   0  0  0  0  0  0  0  0  0  0  0  0
  -27.5812  -12.6272  143.2313 C   0  0  0  0  0  0  0  0  0  0  0  0
  -27.9712  -11.1982  143.5086 C   0  0  0  0  0  0  0  0  0  0  0  0
  -28.6281  -10.4593  142.5148 C   0  0  0  0  0  0  0  0  0  0  0  0
  -29.2425   -9.2758  142.7612 C   0  0  0  0  0  0  0  0  0  0  0  0
  -29.6589   -8.4859  141.7037 C   0  0  0  0  0  0  0  0  0  0  0  0
  -29.0907   -8.5353  140.4413 C   0  0  0  0  0  0  0  0  0  0  0  0
  -29.5154   -7.7054  139.3743 C   0  0  0  0  0  0  0  0  0  0  0  0
  -28.3101   -9.7107  140.1079 C   0  0  0  0  0  0  0  0  0  0  0  0
  -28.0160  -10.6052  141.2053 C   0  0  0  0  0  0  0  0  0  0  0  0
  -27.9261  -10.7047  144.9075 C   0  0  0  0  0  0  0  0  0  0  0  0
  -27.7718   -9.9025  138.8477 C   0  0  0  0  0  0  0  0  0  0  0  0
  -26.7673  -10.9677  145.7688 C   0  0  0  0  0  0  0  0  0  0  0  0
  -26.1826  -12.3370  145.7261 C   0  0  0  0  0  0  0  0  0  0  0  0
  -30.5437   -7.2648  142.1177 C   0  0  0  0  0  0  0  0  0  0  0  0
  -31.3050   -7.7098  142.9388 C   0  0  0  0  0  0  0  0  0  0  0  0
  -31.8611   -8.9704  143.1403 C   0  0  0  0  0  0  0  0  0  0  0  0
  -24.8490  -13.8444  142.7282 O   0  0  0  0  0  0  0  0  0  0  0  0
  -29.1559   -7.7124  138.4317 N   0  0  0  0  0  0  0  0  0  0  0  0
  -28.2489   -8.8269  137.9555 C   0  0  0  0  0  0  0  0  0  0  0  0
  -32.9988   -9.2046  143.1483 O   0  0  0  0  0  0  0  0  0  0  0  0
  -31.0142   -9.8476  143.5722 O   0  0  0  0  0  0  0  0  0  0  0  0
  -23.8140  -19.8132  146.6153 O   0  0  0  0  0  0  0  0  0  0  0  0
  -24.0770  -20.3109  145.4053 C   0  0  0  0  0  0  0  0  0  0  0  0
  -28.4853   -8.5871  143.8847 O   0  0  0  0  0  0  0  0  0  0  0  0
  1  2  1  0
  1  3  1  0
  3  4  2  3
  2  5  1  0
  5  6  1  0
  3  7  1  0
  6  7  1  0
  4  8  1  0
  8  9  1  0
  9 10  1  0
 10 11  1  0
 11 12  1  0
 12 13  1  0
 13 14  1  0
 13 21  1  0
 21 23  2  0
 10 24  1  0
 23 24  1  0
 16 25  1  0
 25 26  1  0
 26 27  1  0
  9 28  2  0
 27 31  2  0
 27 32  1  0
  2 33  1  0
 33 34  1  0
 15 35  1  0
 17 18  1  0
 18 29  2  0
 29 30  1  0
 30 22  2  0
 22 19  1  0
 14 15  2  0
 15 16  1  0
 16 17  2  0
 17 19  1  0
 19 20  2  0
 20 14  1  0
M  END

$$$$
No_1009-/dssg/home/sw_qyf/PocketFlow/Model-Generation-Results/5HT2A_7WC7_rec_A_10.pdb/2024-01-01-03-54-21/
     RDKit          3D

 22 23  0  0  0  0  0  0  0  0999 V2000
  -23.1746  -16.6014  144.8668 C   0  0  0  0  0  0  0  0  0  0  0  0
  -23.8963  -15.5346  144.7885 C   0  0  0  0  0  0  0  0  0  0  0  0
  -24.5755  -15.0383  145.9043 C   0  0  0  0  0  0  0  0  0  0  0  0
  -25.0618  -13.6819  146.0347 C   0  0  0  0  0  0  0  0  0  0  0  0
  -24.0242  -12.8249  145.9593 C   0  0  0  0  0  0  0  0  0  0  0  0
  -23.5540  -17.4786  146.0177 C   0  0  0  0  0  0  0  0  0  0  0  0
  -24.1966  -17.0989  147.1375 C   0  0  0  0  0  0  0  0  0  0  0  0
  -24.7054  -15.8596  147.1718 C   0  0  0  0  0  0  0  0  0  0  0  0
  -26.1352  -13.2925  145.0511 C   0  0  0  0  0  0  0  0  0  0  0  0
  -27.4450  -12.8648  145.6538 C   0  0  0  0  0  0  0  0  0  0  0  0
  -27.7017  -11.4938  145.6053 C   0  0  0  0  0  0  0  0  0  0  0  0
  -29.0773  -11.0426  145.8697 C   0  0  0  0  0  0  0  0  0  0  0  0
  -29.8604  -11.8439  146.8079 C   0  0  0  0  0  0  0  0  0  0  0  0
  -29.3679  -13.1837  147.0622 C   0  0  0  0  0  0  0  0  0  0  0  0
  -30.1917  -14.0014  147.9293 C   0  0  0  0  0  0  0  0  0  0  0  0
  -28.2006  -13.6782  146.5593 C   0  0  0  0  0  0  0  0  0  0  0  0
  -31.2554  -13.5609  148.3645 F   0  0  0  0  0  0  0  0  0  0  0  0
  -29.4091  -14.4203  149.0470 F   0  0  0  0  0  0  0  0  0  0  0  0
  -30.4131  -15.1805  147.2146 F   0  0  0  0  0  0  0  0  0  0  0  0
  -26.9597  -10.6021  144.7144 C   0  0  0  0  0  0  0  0  0  0  0  0
  -27.4844   -9.3055  143.9998 Cl  0  0  0  0  0  0  0  0  0  0  0  0
  -23.7859  -14.6776  143.8210 O   0  0  0  0  0  0  0  0  0  0  0  0
  3  4  1  0
  4  5  1  0
  4  9  1  0
  9 10  1  0
 14 15  1  0
 15 17  1  0
 15 18  1  0
 15 19  1  0
 11 20  1  0
 20 21  1  0
  2 22  1  0
  1  2  2  0
  2  3  1  0
  3  8  2  0
  8  7  1  0
  7  6  2  0
  6  1  1  0
 10 11  2  0
 11 12  1  0
 12 13  2  0
 13 14  1  0
 14 16  2  0
 16 10  1  0
M  END

$$$$
No_1010-/dssg/home/sw_qyf/PocketFlow/Model-Generation-Results/5HT2A_7WC7_rec_A_10.pdb/2024-01-01-03-54-21/
     RDKit          3D

 13 14  0  0  0  0  0  0  0  0999 V2000
  -24.1553  -17.8465  145.7021 C   0  0  0  0  0  0  0  0  0  0  0  0
  -24.2856  -16.6364  145.3494 C   0  0  0  0  0  0  0  0  0  0  0  0
  -25.0033  -15.6772  146.0737 C   0  0  0  0  0  0  0  0  0  0  0  0
  -24.8869  -14.2981  145.8377 C   0  0  0  0  0  0  0  0  0  0  0  0
  -24.0229  -13.8996  144.7516 C   0  0  0  0  0  0  0  0  0  0  0  0
  -24.9285  -18.3589  146.7591 C   0  0  0  0  0  0  0  0  0  0  0  0
  -23.8788  -12.4699  144.5256 C   0  0  0  0  0  0  0  0  0  0  0  0
  -24.6565  -11.6223  145.3599 C   0  0  0  0  0  0  0  0  0  0  0  0
  -25.5396  -11.9487  146.3697 C   0  0  0  0  0  0  0  0  0  0  0  0
  -25.6957  -13.3481  146.5508 C   0  0  0  0  0  0  0  0  0  0  0  0
  -25.3949  -16.3025  147.2111 C   0  0  0  0  0  0  0  0  0  0  0  0
  -25.4429  -17.5393  147.6115 C   0  0  0  0  0  0  0  0  0  0  0  0
  -23.6556  -16.2150  144.1923 O   0  0  0  0  0  0  0  0  0  0  0  0
  2 13  1  0
  4  3  1  0
  1  2  2  0
  2  3  1  0
  3 11  2  0
 11 12  1  0
 12  6  2  0
  6  1  1  0
  4  5  2  0
  5  7  1  0
  7  8  2  0
  8  9  1  0
  9 10  2  0
 10  4  1  0
M  END

$$$$
No_1011-/dssg/home/sw_qyf/PocketFlow/Model-Generation-Results/5HT2A_7WC7_rec_A_10.pdb/2024-01-01-03-54-21/
     RDKit          3D

 11 10  0  0  0  0  0  0  0  0999 V2000
  -23.1746  -16.6014  144.8668 C   0  0  0  0  0  0  0  0  0  0  0  0
  -23.8963  -15.5346  144.7885 C   0  0  0  0  0  0  0  0  0  0  0  0
  -23.6398  -14.5115  145.3281 C   0  0  0  0  0  0  0  0  0  0  0  0
  -24.4028  -13.2284  145.0157 C   0  0  0  0  0  0  0  0  0  0  0  0
  -23.8195  -12.0541  145.5896 C   0  0  0  0  0  0  0  0  0  0  0  0
  -25.4117  -13.2274  144.3095 O   0  0  0  0  0  0  0  0  0  0  0  0
  -23.6935  -17.8142  145.5221 C   0  0  0  0  0  0  0  0  0  0  0  0
  -24.6413  -17.4837  146.5797 C   0  0  0  0  0  0  0  0  0  0  0  0
  -24.2823  -17.7632  147.9189 C   0  0  0  0  0  0  0  0  0  0  0  0
  -24.6238  -16.8478  148.9206 C   0  0  0  0  0  0  0  0  0  0  0  0
  -24.2452  -17.0298  150.2914 C   0  0  0  0  0  0  0  0  0  0  0  0
  1  2  1  0
  2  3  1  0
  3  4  1  0
  4  5  1  0
  4  6  2  0
  1  7  1  0
  7  8  1  0
  8  9  2  3
  9 10  1  0
 10 11  1  0
M  END

$$$$
No_1012-/dssg/home/sw_qyf/PocketFlow/Model-Generation-Results/5HT2A_7WC7_rec_A_10.pdb/2024-01-01-03-54-21/
     RDKit          3D

  6  6  0  0  0  0  0  0  0  0999 V2000
  -23.1746  -16.6014  144.8668 C   0  0  0  0  0  0  0  0  0  0  0  0
  -23.7011  -17.0158  145.9774 C   0  0  0  0  0  0  0  0  0  0  0  0
  -24.2134  -16.0722  146.8877 C   0  0  0  0  0  0  0  0  0  0  0  0
  -23.3742  -15.2706  144.3922 C   0  0  0  0  0  0  0  0  0  0  0  0
  -24.0445  -14.2973  145.2608 C   0  0  0  0  0  0  0  0  0  0  0  0
  -24.4773  -14.7066  146.5258 C   0  0  0  0  0  0  0  0  0  0  0  0
  1  2  2  0
  2  3  1  0
  3  6  2  0
  6  5  1  0
  5  4  2  0
  4  1  1  0
M  END

$$$$
No_1013-/dssg/home/sw_qyf/PocketFlow/Model-Generation-Results/5HT2A_7WC7_rec_A_10.pdb/2024-01-01-03-54-21/
     RDKit          3D

 26 27  0  0  0  0  0  0  0  0999 V2000
  -24.1553  -17.8465  145.7021 C   0  0  0  0  0  0  0  0  0  0  0  0
  -24.2856  -16.6364  145.3494 C   0  0  0  0  0  0  0  0  0  0  0  0
  -23.7824  -15.9602  144.3554 C   0  0  0  0  0  0  0  0  0  0  0  0
  -24.0538  -14.4894  144.2905 C   0  0  0  0  0  0  0  0  0  0  0  0
  -24.9129  -13.8911  145.2692 C   0  0  0  0  0  0  0  0  0  0  0  0
  -25.5152  -14.6873  146.2905 C   0  0  0  0  0  0  0  0  0  0  0  0
  -25.1284  -16.0263  146.3485 C   0  0  0  0  0  0  0  0  0  0  0  0
  -24.9076  -18.2551  146.8232 C   0  0  0  0  0  0  0  0  0  0  0  0
  -25.4937  -17.0819  147.2826 C   0  0  0  0  0  0  0  0  0  0  0  0
  -25.1506  -12.4440  145.1518 C   0  0  0  0  0  0  0  0  0  0  0  0
  -26.1577  -11.8680  144.7375 O   0  0  0  0  0  0  0  0  0  0  0  0
  -26.5358  -10.5793  144.8928 C   0  0  0  0  0  0  0  0  0  0  0  0
  -27.9513  -10.3597  145.0930 C   0  0  0  0  0  0  0  0  0  0  0  0
  -28.7298   -9.7571  144.0808 C   0  0  0  0  0  0  0  0  0  0  0  0
  -30.1236   -9.9194  144.0949 C   0  0  0  0  0  0  0  0  0  0  0  0
  -30.6691  -10.1364  145.2941 O   0  0  0  0  0  0  0  0  0  0  0  0
  -30.8922   -9.6883  143.1507 O   0  0  0  0  0  0  0  0  0  0  0  0
  -26.3212  -16.8791  148.3151 F   0  0  0  0  0  0  0  0  0  0  0  0
  -24.0105  -11.6779  145.2475 O   0  0  0  0  0  0  0  0  0  0  0  0
  -28.2916  -10.4090  142.6401 C   0  0  0  0  0  0  0  0  0  0  0  0
  -27.6548  -11.5534  142.5593 C   0  0  0  0  0  0  0  0  0  0  0  0
  -27.5469  -12.1224  141.2596 C   0  0  0  0  0  0  0  0  0  0  0  0
  -28.1192  -11.4940  140.2088 C   0  0  0  0  0  0  0  0  0  0  0  0
  -27.7511  -11.9681  138.8764 C   0  0  0  0  0  0  0  0  0  0  0  0
  -28.4178  -11.9286  137.8712 O   0  0  0  0  0  0  0  0  0  0  0  0
  -26.3860  -12.0927  138.7513 O   0  0  0  0  0  0  0  0  0  0  0  0
  1  2  1  0
  1  8  2  0
  7  9  1  0
  8  9  1  0
  5 10  1  0
 10 11  1  0
 11 12  1  0
 12 13  1  0
 13 14  1  0
 14 15  1  0
 15 16  1  0
 15 17  2  0
  9 18  1  0
 10 19  2  0
 14 20  1  0
 20 21  1  0
 21 22  2  3
 22 23  1  0
 23 24  1  0
 24 25  1  0
 24 26  2  0
  2  3  2  0
  3  4  1  0
  4  5  2  0
  5  6  1  0
  6  7  2  0
  7  2  1  0
M  END

$$$$
No_1014-/dssg/home/sw_qyf/PocketFlow/Model-Generation-Results/5HT2A_7WC7_rec_A_10.pdb/2024-01-01-03-54-21/
     RDKit          3D

 29 31  0  0  0  0  0  0  0  0999 V2000
  -24.1553  -17.8465  145.7021 C   0  0  0  0  0  0  0  0  0  0  0  0
  -23.9795  -18.4462  146.7426 C   0  0  0  0  0  0  0  0  0  0  0  0
  -24.3577  -16.4380  145.7329 C   0  0  0  0  0  0  0  0  0  0  0  0
  -24.6120  -15.7738  146.9649 C   0  0  0  0  0  0  0  0  0  0  0  0
  -24.4666  -16.5590  148.1483 C   0  0  0  0  0  0  0  0  0  0  0  0
  -24.1608  -17.8621  148.1048 C   0  0  0  0  0  0  0  0  0  0  0  0
  -24.4858  -15.5973  144.5498 C   0  0  0  0  0  0  0  0  0  0  0  0
  -25.5899  -14.6690  144.5486 C   0  0  0  0  0  0  0  0  0  0  0  0
  -25.7524  -13.8036  143.4263 C   0  0  0  0  0  0  0  0  0  0  0  0
  -26.9287  -13.0181  143.4388 C   0  0  0  0  0  0  0  0  0  0  0  0
  -27.6019  -12.7454  144.6943 C   0  0  0  0  0  0  0  0  0  0  0  0
  -27.3714  -13.5104  145.8254 C   0  0  0  0  0  0  0  0  0  0  0  0
  -26.2581  -14.4330  145.7866 C   0  0  0  0  0  0  0  0  0  0  0  0
  -25.5398  -14.6387  147.0574 C   0  0  0  0  0  0  0  0  0  0  0  0
  -27.3769  -12.3911  142.2121 C   0  0  0  0  0  0  0  0  0  0  0  0
  -27.5153  -13.3332  141.3109 F   0  0  0  0  0  0  0  0  0  0  0  0
  -26.5926  -11.4471  141.7584 F   0  0  0  0  0  0  0  0  0  0  0  0
  -28.6149  -11.7201  142.3418 F   0  0  0  0  0  0  0  0  0  0  0  0
  -23.7083  -18.5048  144.2095 Cl  0  0  0  0  0  0  0  0  0  0  0  0
  -28.1194  -13.3367  146.9091 O   0  0  0  0  0  0  0  0  0  0  0  0
  -29.4727  -13.0551  146.8517 C   0  0  0  0  0  0  0  0  0  0  0  0
  -29.7868  -11.7399  147.4332 C   0  0  0  0  0  0  0  0  0  0  0  0
  -30.3327  -14.1143  147.4151 C   0  0  0  0  0  0  0  0  0  0  0  0
  -30.9626  -11.5066  147.9772 O   0  0  0  0  0  0  0  0  0  0  0  0
  -29.7210  -14.5749  148.6927 C   0  0  0  0  0  0  0  0  0  0  0  0
  -29.5678  -15.8660  148.5287 F   0  0  0  0  0  0  0  0  0  0  0  0
  -30.8305  -14.5315  149.6529 F   0  0  0  0  0  0  0  0  0  0  0  0
  -28.9976  -10.7800  147.1312 O   0  0  0  0  0  0  0  0  0  0  0  0
  -30.7107  -15.0194  146.5269 F   0  0  0  0  0  0  0  0  0  0  0  0
  3  7  1  0
  7  8  1  0
  4 14  1  0
 13 14  1  0
 10 15  1  0
 15 16  1  0
 15 17  1  0
 15 18  1  0
  1 19  1  0
 12 20  1  0
 20 21  1  0
 21 22  1  0
 21 23  1  0
 22 24  1  0
 23 25  1  0
 25 26  1  0
 25 27  1  0
 22 28  2  0
 23 29  1  0
  1  2  2  0
  2  6  1  0
  6  5  2  0
  5  4  1  0
  4  3  2  0
  3  1  1  0
  8  9  2  0
  9 10  1  0
 10 11  2  0
 11 12  1  0
 12 13  2  0
 13  8  1  0
M  END

$$$$
No_1015-/dssg/home/sw_qyf/PocketFlow/Model-Generation-Results/5HT2A_7WC7_rec_A_10.pdb/2024-01-01-03-54-21/
     RDKit          3D

 19 21  0  0  0  0  0  0  0  0999 V2000
  -24.1553  -17.8465  145.7021 C   0  0  0  0  0  0  0  0  0  0  0  0
  -24.2855  -16.6364  145.3494 C   0  0  0  0  0  0  0  0  0  0  0  0
  -25.0033  -15.6772  146.0737 C   0  0  0  0  0  0  0  0  0  0  0  0
  -24.8869  -14.2981  145.8377 C   0  0  0  0  0  0  0  0  0  0  0  0
  -24.0151  -13.8866  144.8228 C   0  0  0  0  0  0  0  0  0  0  0  0
  -24.2774  -18.2640  146.6404 C   0  0  0  0  0  0  0  0  0  0  0  0
  -25.0506  -17.5319  147.7126 C   0  0  0  0  0  0  0  0  0  0  0  0
  -25.2644  -16.1629  147.4670 C   0  0  0  0  0  0  0  0  0  0  0  0
  -23.9745  -12.4700  144.5247 C   0  0  0  0  0  0  0  0  0  0  0  0
  -24.6448  -11.7295  145.3990 C   0  0  0  0  0  0  0  0  0  0  0  0
  -25.4076  -13.0754  146.4750 C   0  0  0  0  0  0  0  0  0  0  0  0
  -23.9648  -16.1710  144.0622 O   0  0  0  0  0  0  0  0  0  0  0  0
  -23.7127  -14.8148  143.9182 C   0  0  0  0  0  0  0  0  0  0  0  0
  -23.6062  -18.7516  144.7309 O   0  0  0  0  0  0  0  0  0  0  0  0
  -25.2719  -17.9757  148.9997 O   0  0  0  0  0  0  0  0  0  0  0  0
  -25.3336  -17.0318  150.1305 C   0  0  0  0  0  0  0  0  0  0  0  0
  -25.7476  -17.8670  151.2729 C   0  0  0  0  0  0  0  0  0  0  0  0
  -26.5916  -18.7999  150.9939 O   0  0  0  0  0  0  0  0  0  0  0  0
  -26.8196  -19.4944  152.1648 F   0  0  0  0  0  0  0  0  0  0  0  0
  3  4  1  0
  4  5  2  0
  5  9  1  0
  9 10  2  0
  4 11  1  0
 10 11  1  0
  2 12  1  0
  5 13  1  0
 12 13  1  0
  1 14  1  0
  7 15  1  0
 15 16  1  0
 16 17  1  0
 17 18  1  0
 18 19  1  0
  1  2  2  0
  2  3  1  0
  3  8  2  0
  8  7  1  0
  7  6  2  0
  6  1  1  0
M  END

$$$$
No_1016-/dssg/home/sw_qyf/PocketFlow/Model-Generation-Results/5HT2A_7WC7_rec_A_10.pdb/2024-01-01-03-54-21/
     RDKit          3D

 35 37  0  0  0  0  0  0  0  0999 V2000
  -24.1553  -17.8465  145.7021 C   0  0  0  0  0  0  0  0  0  0  0  0
  -24.6364  -17.2931  146.7091 C   0  0  0  0  0  0  0  0  0  0  0  0
  -25.8608  -16.5592  146.5934 C   0  0  0  0  0  0  0  0  0  0  0  0
  -25.9533  -15.5604  145.6681 C   0  0  0  0  0  0  0  0  0  0  0  0
  -27.0179  -14.6632  145.5500 C   0  0  0  0  0  0  0  0  0  0  0  0
  -24.0512  -16.8635  144.5478 C   0  0  0  0  0  0  0  0  0  0  0  0
  -25.0352  -15.8697  144.5502 C   0  0  0  0  0  0  0  0  0  0  0  0
  -27.9972  -14.5549  146.4905 C   0  0  0  0  0  0  0  0  0  0  0  0
  -28.8713  -13.4294  146.5738 C   0  0  0  0  0  0  0  0  0  0  0  0
  -28.6976  -12.3509  145.6527 C   0  0  0  0  0  0  0  0  0  0  0  0
  -27.6954  -12.4183  144.7046 C   0  0  0  0  0  0  0  0  0  0  0  0
  -26.7869  -13.5059  144.6933 C   0  0  0  0  0  0  0  0  0  0  0  0
  -29.6452  -11.1803  145.7582 C   0  0  0  0  0  0  0  0  0  0  0  0
  -30.3241  -11.0541  146.8315 O   0  0  0  0  0  0  0  0  0  0  0  0
  -29.9479  -10.4521  144.6950 O   0  0  0  0  0  0  0  0  0  0  0  0
  -24.1398  -17.5811  148.1685 C   0  0  0  0  0  0  0  0  0  0  0  0
  -22.8391  -17.1952  148.5294 C   0  0  0  0  0  0  0  0  0  0  0  0
  -25.1073  -17.8775  149.1500 C   0  0  0  0  0  0  0  0  0  0  0  0
  -29.0546   -9.7355  144.1486 C   0  0  0  0  0  0  0  0  0  0  0  0
  -29.7015   -8.7980  143.1581 C   0  0  0  0  0  0  0  0  0  0  0  0
  -30.8317   -8.3525  143.4539 C   0  0  0  0  0  0  0  0  0  0  0  0
  -31.5501   -7.4687  142.4903 C   0  0  0  0  0  0  0  0  0  0  0  0
  -30.7876   -7.3714  141.2714 C   0  0  0  0  0  0  0  0  0  0  0  0
  -29.5717   -7.9125  140.9787 C   0  0  0  0  0  0  0  0  0  0  0  0
  -29.0044   -8.7386  141.9952 C   0  0  0  0  0  0  0  0  0  0  0  0
  -28.9788   -7.6974  139.7109 C   0  0  0  0  0  0  0  0  0  0  0  0
  -29.0578   -6.6187  138.8997 C   0  0  0  0  0  0  0  0  0  0  0  0
  -28.1270   -8.8296  139.2300 C   0  0  0  0  0  0  0  0  0  0  0  0
  -27.8256   -8.7263  137.9667 N   0  0  0  0  0  0  0  0  0  0  0  0
  -27.6964   -9.8279  139.9256 N   0  0  0  0  0  0  0  0  0  0  0  0
  -27.0483  -10.8696  139.3708 C   0  0  0  0  0  0  0  0  0  0  0  0
  -27.5203  -12.2448  139.8501 C   0  0  0  0  0  0  0  0  0  0  0  0
  -28.7550  -12.4463  139.8993 O   0  0  0  0  0  0  0  0  0  0  0  0
  -26.6714  -13.1533  140.1730 O   0  0  0  0  0  0  0  0  0  0  0  0
  -24.7586  -17.4200  150.4459 N   0  0  0  0  0  0  0  0  0  0  0  0
  1  2  1  0
  2  3  1  0
  3  4  1  0
  1  6  1  0
  4  7  1  0
  6  7  1  0
 10 13  1  0
 13 14  2  0
 13 15  1  0
  2 16  1  0
 16 17  1  0
 16 18  1  0
 15 19  1  0
 19 20  1  0
 24 26  1  0
 26 27  2  0
 26 28  1  0
 28 29  1  0
 28 30  2  3
 30 31  1  0
 31 32  1  0
 32 33  1  0
 32 34  2  0
 18 35  1  0
  4  5  1  0
  5  8  2  0
  8  9  1  0
  9 10  2  0
 10 11  1  0
 11 12  2  0
 12  5  1  0
 20 21  2  0
 21 22  1  0
 22 23  2  0
 23 24  1  0
 24 25  2  0
 25 20  1  0
M  END

$$$$
No_1017-/dssg/home/sw_qyf/PocketFlow/Model-Generation-Results/5HT2A_7WC7_rec_A_10.pdb/2024-01-01-03-54-21/
     RDKit          3D

 23 25  0  0  0  0  0  0  0  0999 V2000
  -23.1746  -16.6014  144.8668 C   0  0  0  0  0  0  0  0  0  0  0  0
  -23.8963  -15.5346  144.7885 C   0  0  0  0  0  0  0  0  0  0  0  0
  -24.5755  -15.0383  145.9043 C   0  0  0  0  0  0  0  0  0  0  0  0
  -25.0618  -13.6819  146.0347 C   0  0  0  0  0  0  0  0  0  0  0  0
  -26.1212  -13.2239  146.2655 C   0  0  0  0  0  0  0  0  0  0  0  0
  -23.3988  -17.5289  145.9572 C   0  0  0  0  0  0  0  0  0  0  0  0
  -24.0509  -17.0603  147.1196 C   0  0  0  0  0  0  0  0  0  0  0  0
  -24.6392  -15.7936  147.1455 C   0  0  0  0  0  0  0  0  0  0  0  0
  -26.5137  -11.7978  146.2518 C   0  0  0  0  0  0  0  0  0  0  0  0
  -23.9707  -12.6258  145.7083 C   0  0  0  0  0  0  0  0  0  0  0  0
  -24.3153  -11.2783  145.4617 C   0  0  0  0  0  0  0  0  0  0  0  0
  -25.5693  -10.9076  145.7757 C   0  0  0  0  0  0  0  0  0  0  0  0
  -23.8240  -14.7051  143.7924 O   0  0  0  0  0  0  0  0  0  0  0  0
  -24.1006  -17.9245  148.3681 C   0  0  0  0  0  0  0  0  0  0  0  0
  -24.4587  -17.1363  149.6778 C   0  0  0  0  0  0  0  0  0  0  0  0
  -25.6702  -17.4494  150.3044 C   0  0  0  0  0  0  0  0  0  0  0  0
  -26.8028  -17.8328  149.6987 C   0  0  0  0  0  0  0  0  0  0  0  0
  -27.8850  -17.2283  150.1505 C   0  0  0  0  0  0  0  0  0  0  0  0
  -28.9692  -17.0359  149.2448 C   0  0  0  0  0  0  0  0  0  0  0  0
  -28.6810  -16.8720  147.8804 C   0  0  0  0  0  0  0  0  0  0  0  0
  -27.4584  -17.1859  147.3619 C   0  0  0  0  0  0  0  0  0  0  0  0
  -26.4908  -17.1204  148.2273 C   0  0  0  0  0  0  0  0  0  0  0  0
  -27.2546  -17.3340  145.9848 C   0  0  0  0  0  0  0  0  0  0  0  0
  3  4  1  0
  2 13  1  0
  7 14  1  0
 14 15  1  0
 15 16  2  3
 16 17  1  0
 21 23  1  0
 17 18  2  0
 18 19  1  0
 19 20  2  0
 20 21  1  0
 21 22  2  0
 22 17  1  0
  4  5  2  0
  5  9  1  0
  9 12  2  0
 12 11  1  0
 11 10  2  0
 10  4  1  0
  1  2  2  0
  2  3  1  0
  3  8  2  0
  8  7  1  0
  7  6  2  0
  6  1  1  0
M  END

$$$$
No_1018-/dssg/home/sw_qyf/PocketFlow/Model-Generation-Results/5HT2A_7WC7_rec_A_10.pdb/2024-01-01-03-54-21/
     RDKit          3D

 10 10  0  0  0  0  0  0  0  0999 V2000
  -23.1746  -16.6014  144.8668 C   0  0  0  0  0  0  0  0  0  0  0  0
  -23.7011  -17.0158  145.9774 C   0  0  0  0  0  0  0  0  0  0  0  0
  -24.7095  -16.6222  146.3578 C   0  0  0  0  0  0  0  0  0  0  0  0
  -25.4819  -15.5594  145.8227 C   0  0  0  0  0  0  0  0  0  0  0  0
  -24.9840  -15.0029  144.6879 C   0  0  0  0  0  0  0  0  0  0  0  0
  -23.7823  -15.5257  144.1978 C   0  0  0  0  0  0  0  0  0  0  0  0
  -25.7336  -13.8669  144.1547 C   0  0  0  0  0  0  0  0  0  0  0  0
  -25.9208  -13.8500  142.9754 N   0  0  0  0  0  0  0  0  0  0  0  0
  -26.3779  -12.8598  145.0083 C   0  0  0  0  0  0  0  0  0  0  0  0
  -26.1536  -12.6565  146.1687 C   0  0  0  0  0  0  0  0  0  0  0  0
  5  7  1  0
  7  8  1  0
  7  9  1  0
  9 10  2  0
  1  2  2  0
  2  3  1  0
  3  4  2  0
  4  5  1  0
  5  6  2  0
  6  1  1  0
M  END

$$$$
No_1019-/dssg/home/sw_qyf/PocketFlow/Model-Generation-Results/5HT2A_7WC7_rec_A_10.pdb/2024-01-01-03-54-21/
     RDKit          3D

 13 14  0  0  0  0  0  0  0  0999 V2000
  -23.1746  -16.6014  144.8668 C   0  0  0  0  0  0  0  0  0  0  0  0
  -23.8963  -15.5346  144.7885 C   0  0  0  0  0  0  0  0  0  0  0  0
  -25.3063  -15.4625  144.8521 C   0  0  0  0  0  0  0  0  0  0  0  0
  -26.0192  -14.2249  144.6050 C   0  0  0  0  0  0  0  0  0  0  0  0
  -26.6274  -13.6680  145.2524 C   0  0  0  0  0  0  0  0  0  0  0  0
  -27.1869  -12.3173  145.0200 C   0  0  0  0  0  0  0  0  0  0  0  0
  -27.4832  -11.4088  146.1248 C   0  0  0  0  0  0  0  0  0  0  0  0
  -23.9440  -17.7847  145.3878 C   0  0  0  0  0  0  0  0  0  0  0  0
  -25.2421  -17.6338  145.8014 C   0  0  0  0  0  0  0  0  0  0  0  0
  -25.9360  -16.4750  145.5098 C   0  0  0  0  0  0  0  0  0  0  0  0
  -26.3772  -14.0896  143.1178 C   0  0  0  0  0  0  0  0  0  0  0  0
  -27.0410  -12.8933  142.7496 C   0  0  0  0  0  0  0  0  0  0  0  0
  -27.4918  -12.0455  143.7729 C   0  0  0  0  0  0  0  0  0  0  0  0
  3  4  1  0
  6  7  1  0
  1  2  2  0
  2  3  1  0
  3 10  2  0
 10  9  1  0
  9  8  2  0
  8  1  1  0
  4  5  2  0
  5  6  1  0
  6 13  2  0
 13 12  1  0
 12 11  2  0
 11  4  1  0
M  END

$$$$
No_1020-/dssg/home/sw_qyf/PocketFlow/Model-Generation-Results/5HT2A_7WC7_rec_A_10.pdb/2024-01-01-03-54-21/
     RDKit          3D

 21 23  0  0  0  0  0  0  0  0999 V2000
  -23.1746  -16.6014  144.8668 C   0  0  0  0  0  0  0  0  0  0  0  0
  -23.7011  -17.0158  145.9774 C   0  0  0  0  0  0  0  0  0  0  0  0
  -24.2134  -16.0722  146.8877 C   0  0  0  0  0  0  0  0  0  0  0  0
  -23.7442  -15.4017  144.4017 C   0  0  0  0  0  0  0  0  0  0  0  0
  -24.3536  -14.3730  145.2061 C   0  0  0  0  0  0  0  0  0  0  0  0
  -24.7141  -13.0825  144.7385 C   0  0  0  0  0  0  0  0  0  0  0  0
  -24.6249  -14.7809  146.5611 C   0  0  0  0  0  0  0  0  0  0  0  0
  -26.0067  -12.7602  144.8622 C   0  0  0  0  0  0  0  0  0  0  0  0
  -26.4763  -12.3219  146.0676 C   0  0  0  0  0  0  0  0  0  0  0  0
  -27.9534  -11.9217  146.1805 C   0  0  0  0  0  0  0  0  0  0  0  0
  -28.5441  -11.1167  145.1686 C   0  0  0  0  0  0  0  0  0  0  0  0
  -27.9766  -11.2297  143.8565 C   0  0  0  0  0  0  0  0  0  0  0  0
  -26.7738  -12.0696  143.7129 C   0  0  0  0  0  0  0  0  0  0  0  0
  -28.6356  -10.5661  142.7888 C   0  0  0  0  0  0  0  0  0  0  0  0
  -28.4061  -10.7520  141.4948 C   0  0  0  0  0  0  0  0  0  0  0  0
  -28.7550   -9.8566  140.5331 C   0  0  0  0  0  0  0  0  0  0  0  0
  -28.1869   -9.7793  139.2136 C   0  0  0  0  0  0  0  0  0  0  0  0
  -28.2450   -8.5685  138.4748 C   0  0  0  0  0  0  0  0  0  0  0  0
  -29.1657   -7.5533  139.0205 C   0  0  0  0  0  0  0  0  0  0  0  0
  -29.3803   -8.5087  140.7948 C   0  0  0  0  0  0  0  0  0  0  0  0
  -29.5177   -7.5696  140.1874 N   0  0  0  0  0  0  0  0  0  0  0  0
  5  6  1  0
  6  8  1  0
 12 14  1  0
 14 15  2  3
 15 16  1  0
  1  2  2  0
  2  3  1  0
  3  7  2  0
  7  5  1  0
  5  4  2  0
  4  1  1  0
  8  9  2  0
  9 10  1  0
 10 11  2  0
 11 12  1  0
 12 13  2  0
 13  8  1  0
 16 17  2  0
 17 18  1  0
 18 19  2  0
 19 21  1  0
 21 20  2  0
 20 16  1  0
M  END

$$$$
No_1021-/dssg/home/sw_qyf/PocketFlow/Model-Generation-Results/5HT2A_7WC7_rec_A_10.pdb/2024-01-01-03-54-21/
     RDKit          3D

 35 37  0  0  0  0  0  0  0  0999 V2000
  -24.1553  -17.8465  145.7021 C   0  0  0  0  0  0  0  0  0  0  0  0
  -24.2856  -16.6364  145.3494 C   0  0  0  0  0  0  0  0  0  0  0  0
  -25.0033  -15.6772  146.0737 C   0  0  0  0  0  0  0  0  0  0  0  0
  -24.8869  -14.2981  145.8377 C   0  0  0  0  0  0  0  0  0  0  0  0
  -24.0229  -13.8996  144.7516 C   0  0  0  0  0  0  0  0  0  0  0  0
  -24.9285  -18.3589  146.7591 C   0  0  0  0  0  0  0  0  0  0  0  0
  -23.2387  -14.8170  144.0919 C   0  0  0  0  0  0  0  0  0  0  0  0
  -23.3448  -16.1149  144.3263 C   0  0  0  0  0  0  0  0  0  0  0  0
  -25.6758  -17.4654  147.5535 C   0  0  0  0  0  0  0  0  0  0  0  0
  -25.7289  -16.1202  147.2873 C   0  0  0  0  0  0  0  0  0  0  0  0
  -25.6013  -13.2601  146.5870 C   0  0  0  0  0  0  0  0  0  0  0  0
  -26.9608  -13.0393  146.2092 C   0  0  0  0  0  0  0  0  0  0  0  0
  -27.4516  -11.8041  146.2368 C   0  0  0  0  0  0  0  0  0  0  0  0
  -28.7487  -11.5010  145.7013 C   0  0  0  0  0  0  0  0  0  0  0  0
  -28.9102  -10.5790  144.6665 C   0  0  0  0  0  0  0  0  0  0  0  0
  -27.8466  -10.1955  143.9314 C   0  0  0  0  0  0  0  0  0  0  0  0
  -28.0651   -9.3156  142.8632 C   0  0  0  0  0  0  0  0  0  0  0  0
  -29.3079   -8.6443  142.6666 C   0  0  0  0  0  0  0  0  0  0  0  0
  -30.4102   -9.0289  143.5274 C   0  0  0  0  0  0  0  0  0  0  0  0
  -30.2119   -9.9637  144.5094 C   0  0  0  0  0  0  0  0  0  0  0  0
  -29.4644   -7.6492  141.6285 C   0  0  0  0  0  0  0  0  0  0  0  0
  -29.9823   -6.3872  141.8027 C   0  0  0  0  0  0  0  0  0  0  0  0
  -29.1821   -8.0440  140.2828 C   0  0  0  0  0  0  0  0  0  0  0  0
  -28.2125   -8.0885  139.5360 C   0  0  0  0  0  0  0  0  0  0  0  0
  -28.2576   -8.4833  138.1295 C   0  0  0  0  0  0  0  0  0  0  0  0
  -29.8518  -12.1150  146.4030 C   0  0  0  0  0  0  0  0  0  0  0  0
  -29.9382  -11.8186  147.8338 C   0  0  0  0  0  0  0  0  0  0  0  0
  -30.9996  -12.5980  148.5550 C   0  0  0  0  0  0  0  0  0  0  0  0
  -31.7876  -12.0751  149.2988 O   0  0  0  0  0  0  0  0  0  0  0  0
  -32.8926  -12.6631  149.8003 C   0  0  0  0  0  0  0  0  0  0  0  0
  -27.8627   -9.6664  137.9181 F   0  0  0  0  0  0  0  0  0  0  0  0
  -28.7657   -7.8271  137.1959 F   0  0  0  0  0  0  0  0  0  0  0  0
  -31.6043   -8.4701  143.3424 O   0  0  0  0  0  0  0  0  0  0  0  0
  -32.9831  -12.2242  151.2080 C   0  0  0  0  0  0  0  0  0  0  0  0
  -33.0227  -11.0369  151.6180 O   0  0  0  0  0  0  0  0  0  0  0  0
  4 11  1  0
 11 12  1  0
 12 13  2  3
 13 14  1  0
 14 15  1  0
 18 21  1  0
 21 22  2  0
 21 23  1  0
 23 24  2  3
 24 25  1  0
 14 26  1  0
 26 27  1  0
 27 28  1  0
 28 29  1  0
 29 30  1  0
 25 31  1  0
 25 32  1  0
 19 33  1  0
 30 34  1  0
 34 35  1  0
 15 16  2  0
 16 17  1  0
 17 18  2  0
 18 19  1  0
 19 20  2  0
 20 15  1  0
  1  2  2  0
  3 10  2  0
 10  9  1  0
  9  6  2  0
  6  1  1  0
  2  3  1  0
  3  4  1  0
  4  5  2  0
  5  7  1  0
  7  8  2  0
  8  2  1  0
M  END

$$$$
No_1022-/dssg/home/sw_qyf/PocketFlow/Model-Generation-Results/5HT2A_7WC7_rec_A_10.pdb/2024-01-01-03-54-21/
     RDKit          3D

 10 11  0  0  0  0  0  0  0  0999 V2000
  -24.1553  -17.8465  145.7021 C   0  0  0  0  0  0  0  0  0  0  0  0
  -23.9795  -18.4462  146.7426 C   0  0  0  0  0  0  0  0  0  0  0  0
  -25.1593  -16.8262  145.6925 C   0  0  0  0  0  0  0  0  0  0  0  0
  -25.3302  -15.8818  144.5925 C   0  0  0  0  0  0  0  0  0  0  0  0
  -24.4570  -18.1009  148.0274 C   0  0  0  0  0  0  0  0  0  0  0  0
  -25.3496  -17.0286  148.1023 C   0  0  0  0  0  0  0  0  0  0  0  0
  -25.5669  -16.2449  146.9641 C   0  0  0  0  0  0  0  0  0  0  0  0
  -26.3741  -14.9288  144.6496 C   0  0  0  0  0  0  0  0  0  0  0  0
  -27.1201  -14.6927  145.8365 C   0  0  0  0  0  0  0  0  0  0  0  0
  -26.6137  -15.2304  146.9847 C   0  0  0  0  0  0  0  0  0  0  0  0
  1  2  2  0
  2  5  1  0
  5  6  2  0
  6  7  1  0
  3  1  1  0
  3  4  2  0
  4  8  1  0
  8  9  2  0
  9 10  1  0
 10  7  2  0
  7  3  1  0
M  END

$$$$
No_1023-/dssg/home/sw_qyf/PocketFlow/Model-Generation-Results/5HT2A_7WC7_rec_A_10.pdb/2024-01-01-03-54-21/
     RDKit          3D

 21 23  0  0  0  0  0  0  0  0999 V2000
  -23.1746  -16.6014  144.8668 C   0  0  0  0  0  0  0  0  0  0  0  0
  -24.0189  -16.0564  145.8445 C   0  0  0  0  0  0  0  0  0  0  0  0
  -24.4850  -14.7380  145.6359 C   0  0  0  0  0  0  0  0  0  0  0  0
  -25.3334  -14.0797  146.6105 C   0  0  0  0  0  0  0  0  0  0  0  0
  -25.7120  -12.7595  146.4431 C   0  0  0  0  0  0  0  0  0  0  0  0
  -25.2808  -11.9605  145.3602 C   0  0  0  0  0  0  0  0  0  0  0  0
  -24.2994  -12.5741  144.5564 C   0  0  0  0  0  0  0  0  0  0  0  0
  -23.8450  -13.9153  144.6819 C   0  0  0  0  0  0  0  0  0  0  0  0
  -25.0675  -16.9296  146.4081 C   0  0  0  0  0  0  0  0  0  0  0  0
  -24.5455  -18.1277  146.9103 C   0  0  0  0  0  0  0  0  0  0  0  0
  -23.5360  -18.3368  147.1231 C   0  0  0  0  0  0  0  0  0  0  0  0
  -22.3047  -17.8102  147.1877 C   0  0  0  0  0  0  0  0  0  0  0  0
  -25.7033  -10.3637  145.1482 Cl  0  0  0  0  0  0  0  0  0  0  0  0
  -26.4063  -16.5786  146.3054 C   0  0  0  0  0  0  0  0  0  0  0  0
  -27.2056  -16.6154  147.4400 C   0  0  0  0  0  0  0  0  0  0  0  0
  -26.9407  -16.9940  148.6876 C   0  0  0  0  0  0  0  0  0  0  0  0
  -27.5860  -17.1088  149.5671 C   0  0  0  0  0  0  0  0  0  0  0  0
  -29.0700  -16.8546  149.4368 C   0  0  0  0  0  0  0  0  0  0  0  0
  -29.4907  -16.3083  148.2568 C   0  0  0  0  0  0  0  0  0  0  0  0
  -28.6609  -16.2531  147.2740 C   0  0  0  0  0  0  0  0  0  0  0  0
  -21.9198  -17.1844  145.8179 C   0  0  0  0  0  0  0  0  0  0  0  0
  1  2  1  0
  2  9  1  0
  9 10  1  0
 10 11  2  0
 11 12  1  0
  6 13  1  0
  9 14  1  0
  1 21  1  0
 12 21  1  0
 14 15  1  0
  2  3  1  0
 15 16  2  0
 16 17  1  0
 17 18  2  0
 18 19  1  0
 19 20  2  0
 20 15  1  0
  3  4  2  0
  4  5  1  0
  5  6  2  0
  6  7  1  0
  7  8  2  0
  8  3  1  0
M  END

$$$$
No_1024-/dssg/home/sw_qyf/PocketFlow/Model-Generation-Results/5HT2A_7WC7_rec_A_10.pdb/2024-01-01-03-54-21/
     RDKit          3D

 35 37  0  0  0  0  0  0  0  0999 V2000
  -23.1746  -16.6014  144.8668 C   0  0  0  0  0  0  0  0  0  0  0  0
  -23.7011  -17.0158  145.9774 C   0  0  0  0  0  0  0  0  0  0  0  0
  -24.7096  -16.6222  146.3577 C   0  0  0  0  0  0  0  0  0  0  0  0
  -25.5380  -15.6354  145.8602 C   0  0  0  0  0  0  0  0  0  0  0  0
  -26.7421  -15.1155  146.4532 C   0  0  0  0  0  0  0  0  0  0  0  0
  -27.3116  -16.0330  147.3952 C   0  0  0  0  0  0  0  0  0  0  0  0
  -23.7371  -15.4003  144.3027 C   0  0  0  0  0  0  0  0  0  0  0  0
  -24.9440  -14.9505  144.8216 C   0  0  0  0  0  0  0  0  0  0  0  0
  -26.5722  -16.9857  148.0898 C   0  0  0  0  0  0  0  0  0  0  0  0
  -25.3224  -17.3568  147.6262 C   0  0  0  0  0  0  0  0  0  0  0  0
  -27.5048  -14.0677  145.9147 C   0  0  0  0  0  0  0  0  0  0  0  0
  -28.5427  -13.4529  146.6915 C   0  0  0  0  0  0  0  0  0  0  0  0
  -29.5139  -14.0215  147.1547 C   0  0  0  0  0  0  0  0  0  0  0  0
  -30.6152  -13.7115  147.7166 C   0  0  0  0  0  0  0  0  0  0  0  0
  -30.5568  -12.8834  148.8982 C   0  0  0  0  0  0  0  0  0  0  0  0
  -31.7805  -12.4197  149.4870 C   0  0  0  0  0  0  0  0  0  0  0  0
  -32.2245  -11.4333  149.7106 C   0  0  0  0  0  0  0  0  0  0  0  0
  -33.5779  -11.1661  150.3962 C   0  0  0  0  0  0  0  0  0  0  0  0
  -22.9054  -18.2708  146.5434 C   0  0  0  0  0  0  0  0  0  0  0  0
  -34.2057  -12.0704  150.4537 F   0  0  0  0  0  0  0  0  0  0  0  0
  -34.1611  -10.0594  149.7951 F   0  0  0  0  0  0  0  0  0  0  0  0
  -28.4959  -11.9233  146.7208 C   0  0  0  0  0  0  0  0  0  0  0  0
  -28.3319  -11.2746  145.4373 C   0  0  0  0  0  0  0  0  0  0  0  0
  -29.3706  -10.6932  144.7685 C   0  0  0  0  0  0  0  0  0  0  0  0
  -29.2914  -10.0037  143.5896 C   0  0  0  0  0  0  0  0  0  0  0  0
  -28.1369  -10.2475  142.8083 C   0  0  0  0  0  0  0  0  0  0  0  0
  -27.0733  -10.9868  143.4907 C   0  0  0  0  0  0  0  0  0  0  0  0
  -27.1519  -11.5175  144.7704 C   0  0  0  0  0  0  0  0  0  0  0  0
  -30.4082   -9.2790  143.0262 C   0  0  0  0  0  0  0  0  0  0  0  0
  -32.1634   -9.6148  143.3829 Br  0  0  0  0  0  0  0  0  0  0  0  0
  -30.1137   -8.1522  142.1261 C   0  0  0  0  0  0  0  0  0  0  0  0
  -29.8106   -6.9078  142.4957 C   0  0  0  0  0  0  0  0  0  0  0  0
  -29.4194   -5.8380  141.6302 C   0  0  0  0  0  0  0  0  0  0  0  0
  -29.2634   -6.2382  140.2802 C   0  0  0  0  0  0  0  0  0  0  0  0
  -29.4667   -7.5640  139.9068 C   0  0  0  0  0  0  0  0  0  0  0  0
  5 11  1  0
 11 12  1  0
 12 13  2  3
 13 14  1  0
 14 15  2  3
 15 16  1  0
 16 17  2  3
 17 18  1  0
  2 19  1  0
 18 20  1  0
 18 21  1  0
 12 22  1  0
 22 23  1  0
 25 29  1  0
 29 30  1  0
 29 31  1  0
 31 32  2  3
 32 33  1  0
 33 34  2  3
 34 35  1  0
 23 24  2  0
 24 25  1  0
 25 26  2  0
 26 27  1  0
 27 28  2  0
 28 23  1  0
  1  2  2  0
  2  3  1  0
  4  8  1  0
  8  7  2  0
  7  1  1  0
  3  4  2  0
  4  5  1  0
  5  6  2  0
  6  9  1  0
  9 10  2  0
 10  3  1  0
M  END

$$$$
No_1025-/dssg/home/sw_qyf/PocketFlow/Model-Generation-Results/5HT2A_7WC7_rec_A_10.pdb/2024-01-01-03-54-21/
     RDKit          3D

 35 38  0  0  0  0  0  0  0  0999 V2000
  -24.1553  -17.8465  145.7021 C   0  0  0  0  0  0  0  0  0  0  0  0
  -24.6364  -17.2931  146.7091 C   0  0  0  0  0  0  0  0  0  0  0  0
  -25.8608  -16.5592  146.5934 C   0  0  0  0  0  0  0  0  0  0  0  0
  -25.9533  -15.5604  145.6681 C   0  0  0  0  0  0  0  0  0  0  0  0
  -27.0179  -14.6632  145.5500 C   0  0  0  0  0  0  0  0  0  0  0  0
  -26.9074  -13.7000  144.5153 C   0  0  0  0  0  0  0  0  0  0  0  0
  -23.9825  -16.8561  144.5715 C   0  0  0  0  0  0  0  0  0  0  0  0
  -25.0690  -15.8539  144.5456 C   0  0  0  0  0  0  0  0  0  0  0  0
  -27.4861  -12.4242  144.5975 C   0  0  0  0  0  0  0  0  0  0  0  0
  -28.3007  -12.0888  145.6843 C   0  0  0  0  0  0  0  0  0  0  0  0
  -28.5508  -13.1410  146.7158 C   0  0  0  0  0  0  0  0  0  0  0  0
  -27.8054  -14.2920  146.7088 C   0  0  0  0  0  0  0  0  0  0  0  0
  -27.5056  -11.4002  143.5596 C   0  0  0  0  0  0  0  0  0  0  0  0
  -28.5361  -11.2887  142.9291 O   0  0  0  0  0  0  0  0  0  0  0  0
  -29.2664  -10.1807  143.0531 C   0  0  0  0  0  0  0  0  0  0  0  0
  -30.3349  -10.0023  143.7657 C   0  0  0  0  0  0  0  0  0  0  0  0
  -31.1058   -8.7924  143.7855 C   0  0  0  0  0  0  0  0  0  0  0  0
  -30.8113   -7.7450  142.9124 C   0  0  0  0  0  0  0  0  0  0  0  0
  -29.7097   -7.8978  142.0082 C   0  0  0  0  0  0  0  0  0  0  0  0
  -28.9654   -9.1110  142.0789 C   0  0  0  0  0  0  0  0  0  0  0  0
  -29.3445   -6.8887  141.0524 C   0  0  0  0  0  0  0  0  0  0  0  0
  -29.0414   -7.2501  139.8307 N   0  0  0  0  0  0  0  0  0  0  0  0
  -28.7462   -8.3449  139.3312 C   0  0  0  0  0  0  0  0  0  0  0  0
  -28.2612   -8.4268  137.9865 C   0  0  0  0  0  0  0  0  0  0  0  0
  -29.4734  -12.8333  147.8360 C   0  0  0  0  0  0  0  0  0  0  0  0
  -30.8437  -13.1838  147.6523 C   0  0  0  0  0  0  0  0  0  0  0  0
  -31.6620  -12.6623  148.7984 C   0  0  0  0  0  0  0  0  0  0  0  0
  -24.0573  -17.4937  148.1557 C   0  0  0  0  0  0  0  0  0  0  0  0
  -24.8665  -17.3856  149.3122 C   0  0  0  0  0  0  0  0  0  0  0  0
  -24.2665  -17.3596  150.5884 C   0  0  0  0  0  0  0  0  0  0  0  0
  -22.8712  -17.1915  150.7043 C   0  0  0  0  0  0  0  0  0  0  0  0
  -22.1356  -16.8601  149.5437 C   0  0  0  0  0  0  0  0  0  0  0  0
  -22.7724  -17.0789  148.3209 C   0  0  0  0  0  0  0  0  0  0  0  0
  -32.6400  -13.2638  149.2695 C   0  0  0  0  0  0  0  0  0  0  0  0
  -33.5886  -12.3020  149.9736 C   0  0  0  0  0  0  0  0  0  0  0  0
  1  2  1  0
  2  3  1  0
  3  4  1  0
  4  5  1  0
  1  7  1  0
  4  8  1  0
  7  8  1  0
  9 13  1  0
 13 14  1  0
 14 15  1  0
 19 21  1  0
 21 22  1  0
 22 23  1  0
 23 24  2  0
 11 25  1  0
 25 26  1  0
 26 27  1  0
  2 28  1  0
 27 34  1  0
 34 35  1  0
 15 16  2  0
 16 17  1  0
 17 18  2  0
 18 19  1  0
 19 20  2  0
 20 15  1  0
 28 29  2  0
 29 30  1  0
 30 31  2  0
 31 32  1  0
 32 33  2  0
 33 28  1  0
  5  6  2  0
  6  9  1  0
  9 10  2  0
 10 11  1  0
 11 12  2  0
 12  5  1  0
M  END

$$$$
No_1026-/dssg/home/sw_qyf/PocketFlow/Model-Generation-Results/5HT2A_7WC7_rec_A_10.pdb/2024-01-01-03-54-21/
     RDKit          3D

 31 32  0  0  0  0  0  0  0  0999 V2000
  -23.1746  -16.6014  144.8668 C   0  0  0  0  0  0  0  0  0  0  0  0
  -23.7011  -17.0158  145.9774 C   0  0  0  0  0  0  0  0  0  0  0  0
  -23.7336  -18.2775  146.3737 C   0  0  0  0  0  0  0  0  0  0  0  0
  -24.1960  -18.6445  147.6858 C   0  0  0  0  0  0  0  0  0  0  0  0
  -24.7100  -17.6145  148.5486 C   0  0  0  0  0  0  0  0  0  0  0  0
  -24.7929  -16.2635  148.0870 C   0  0  0  0  0  0  0  0  0  0  0  0
  -24.2508  -15.9434  146.8891 C   0  0  0  0  0  0  0  0  0  0  0  0
  -22.9131  -15.3694  144.6484 O   0  0  0  0  0  0  0  0  0  0  0  0
  -23.8814  -14.3539  144.5093 C   0  0  0  0  0  0  0  0  0  0  0  0
  -23.2710  -13.2232  144.9684 C   0  0  0  0  0  0  0  0  0  0  0  0
  -24.1167  -12.0632  145.5197 C   0  0  0  0  0  0  0  0  0  0  0  0
  -25.1607  -11.5520  144.8393 C   0  0  0  0  0  0  0  0  0  0  0  0
  -26.3476  -11.5700  145.4009 C   0  0  0  0  0  0  0  0  0  0  0  0
  -27.3795  -12.1699  144.9572 C   0  0  0  0  0  0  0  0  0  0  0  0
  -28.7310  -12.0754  145.7141 C   0  0  0  0  0  0  0  0  0  0  0  0
  -29.1773  -12.9833  146.3662 C   0  0  0  0  0  0  0  0  0  0  0  0
  -30.3301  -12.7248  147.3643 C   0  0  0  0  0  0  0  0  0  0  0  0
  -30.5808  -13.6492  148.4058 C   0  0  0  0  0  0  0  0  0  0  0  0
  -29.8308  -14.8921  148.3243 C   0  0  0  0  0  0  0  0  0  0  0  0
  -28.8772  -15.1416  147.3732 C   0  0  0  0  0  0  0  0  0  0  0  0
  -28.5070  -14.1602  146.5197 C   0  0  0  0  0  0  0  0  0  0  0  0
  -29.5468  -10.9128  145.1539 C   0  0  0  0  0  0  0  0  0  0  0  0
  -29.4727  -10.5013  143.8259 C   0  0  0  0  0  0  0  0  0  0  0  0
  -30.2535   -9.3920  143.4877 C   0  0  0  0  0  0  0  0  0  0  0  0
  -30.1766   -9.0267  142.1630 C   0  0  0  0  0  0  0  0  0  0  0  0
  -30.8631   -7.8274  141.6307 C   0  0  0  0  0  0  0  0  0  0  0  0
  -29.2900   -9.6661  141.2336 C   0  0  0  0  0  0  0  0  0  0  0  0
  -28.9337   -9.1766  140.0230 C   0  0  0  0  0  0  0  0  0  0  0  0
  -27.9388   -9.6832  139.2038 C   0  0  0  0  0  0  0  0  0  0  0  0
  -27.4695  -10.9592  139.6160 C   0  0  0  0  0  0  0  0  0  0  0  0
  -26.5370  -11.6573  138.8195 C   0  0  0  0  0  0  0  0  0  0  0  0
  1  2  1  0
  1  8  1  0
  8  9  1  0
  9 10  1  0
 10 11  2  3
 11 12  1  0
 12 13  1  0
 13 14  2  3
 14 15  1  0
 15 22  1  0
 22 23  1  0
 23 24  1  0
 24 25  2  3
 25 26  1  0
 25 27  1  0
 27 28  1  0
 28 29  2  3
 29 30  1  0
 30 31  1  0
 15 16  1  0
  2  3  2  0
  3  4  1  0
  4  5  2  0
  5  6  1  0
  6  7  2  0
  7  2  1  0
 16 17  2  0
 17 18  1  0
 18 19  2  0
 19 20  1  0
 20 21  2  0
 21 16  1  0
M  END

$$$$
No_1027-/dssg/home/sw_qyf/PocketFlow/Model-Generation-Results/5HT2A_7WC7_rec_A_10.pdb/2024-01-01-03-54-21/
     RDKit          3D

  9  9  0  0  0  0  0  0  0  0999 V2000
  -23.1746  -16.6014  144.8668 C   0  0  0  0  0  0  0  0  0  0  0  0
  -23.7011  -17.0158  145.9774 C   0  0  0  0  0  0  0  0  0  0  0  0
  -24.2134  -16.0722  146.8877 C   0  0  0  0  0  0  0  0  0  0  0  0
  -24.5407  -14.7704  146.3552 C   0  0  0  0  0  0  0  0  0  0  0  0
  -24.9626  -13.7061  147.1333 C   0  0  0  0  0  0  0  0  0  0  0  0
  -24.0995  -14.5614  145.0046 C   0  0  0  0  0  0  0  0  0  0  0  0
  -23.4166  -15.4695  144.2822 C   0  0  0  0  0  0  0  0  0  0  0  0
  -25.3857  -12.4503  146.3858 C   0  0  0  0  0  0  0  0  0  0  0  0
  -24.9046  -12.1540  145.1729 C   0  0  0  0  0  0  0  0  0  0  0  0
  4  5  1  0
  5  8  1  0
  8  9  2  0
  1  2  2  0
  2  3  1  0
  3  4  2  0
  4  6  1  0
  6  7  2  0
  7  1  1  0
M  END

$$$$
No_1028-/dssg/home/sw_qyf/PocketFlow/Model-Generation-Results/5HT2A_7WC7_rec_A_10.pdb/2024-01-01-03-54-21/
     RDKit          3D

 32 33  0  0  0  0  0  0  0  0999 V2000
  -23.1746  -16.6014  144.8668 C   0  0  0  0  0  0  0  0  0  0  0  0
  -23.8963  -15.5346  144.7885 C   0  0  0  0  0  0  0  0  0  0  0  0
  -23.6398  -14.5115  145.3281 C   0  0  0  0  0  0  0  0  0  0  0  0
  -24.3866  -13.2477  145.3906 C   0  0  0  0  0  0  0  0  0  0  0  0
  -23.7391  -12.0982  145.9891 C   0  0  0  0  0  0  0  0  0  0  0  0
  -25.7153  -13.1102  144.9365 C   0  0  0  0  0  0  0  0  0  0  0  0
  -26.3103  -13.6742  144.1428 C   0  0  0  0  0  0  0  0  0  0  0  0
  -27.6804  -13.3807  143.7851 C   0  0  0  0  0  0  0  0  0  0  0  0
  -28.0226  -12.2097  144.4912 C   0  0  0  0  0  0  0  0  0  0  0  0
  -29.4057  -11.6444  144.2762 C   0  0  0  0  0  0  0  0  0  0  0  0
  -26.7390  -12.0208  145.4207 C   0  0  0  0  0  0  0  0  0  0  0  0
  -29.2997  -10.4107  143.4269 C   0  0  0  0  0  0  0  0  0  0  0  0
  -28.9620  -10.5443  142.1441 C   0  0  0  0  0  0  0  0  0  0  0  0
  -28.8194   -9.4731  141.2818 C   0  0  0  0  0  0  0  0  0  0  0  0
  -28.4149   -9.5860  139.9046 C   0  0  0  0  0  0  0  0  0  0  0  0
  -27.6018  -10.5905  139.4167 C   0  0  0  0  0  0  0  0  0  0  0  0
  -27.8696  -11.8943  139.9829 C   0  0  0  0  0  0  0  0  0  0  0  0
  -27.2403  -13.0473  139.5352 C   0  0  0  0  0  0  0  0  0  0  0  0
  -28.3335  -11.7692  141.5250 C   0  0  0  0  0  0  0  0  0  0  0  0
  -29.9013   -9.3231  143.8642 O   0  0  0  0  0  0  0  0  0  0  0  0
  -28.4191   -8.2654  139.1476 C   0  0  0  0  0  0  0  0  0  0  0  0
  -29.2694   -7.7333  138.5852 N   0  0  0  0  0  0  0  0  0  0  0  0
  -23.6582  -17.8133  145.5400 C   0  0  0  0  0  0  0  0  0  0  0  0
  -24.3693  -17.5830  146.7126 C   0  0  0  0  0  0  0  0  0  0  0  0
  -23.9615  -16.6351  147.6619 C   0  0  0  0  0  0  0  0  0  0  0  0
  -24.3499  -16.9979  149.0314 C   0  0  0  0  0  0  0  0  0  0  0  0
  -25.7979  -17.2101  149.2285 C   0  0  0  0  0  0  0  0  0  0  0  0
  -26.0233  -17.3875  150.6072 C   0  0  0  0  0  0  0  0  0  0  0  0
  -27.1643  -18.1900  150.9516 C   0  0  0  0  0  0  0  0  0  0  0  0
  -28.1683  -18.0491  150.4483 O   0  0  0  0  0  0  0  0  0  0  0  0
  -27.1885  -18.7438  152.2185 O   0  0  0  0  0  0  0  0  0  0  0  0
  -26.2081  -12.7716  138.5958 C   0  0  0  0  0  0  0  0  0  0  0  0
  1  2  1  0
  2  3  2  3
  3  4  1  0
  4  5  1  0
  4  6  1  0
  6  7  1  0
  7  8  1  0
  8  9  2  0
  9 10  1  0
  6 11  1  0
  9 11  1  0
 10 12  1  0
 12 13  1  0
 17 18  1  0
 12 20  2  0
 15 21  1  0
 21 22  2  0
  1 23  1  0
 23 24  1  0
 24 25  1  0
 25 26  1  0
 26 27  1  0
 27 28  1  0
 28 29  1  0
 29 30  2  0
 29 31  1  0
 18 32  2  0
 13 14  2  0
 14 15  1  0
 15 16  2  0
 16 17  1  0
 17 19  2  0
 19 13  1  0
M  END

$$$$
No_1029-/dssg/home/sw_qyf/PocketFlow/Model-Generation-Results/5HT2A_7WC7_rec_A_10.pdb/2024-01-01-03-54-21/
     RDKit          3D

 16 17  0  0  0  0  0  0  0  0999 V2000
  -24.1553  -17.8465  145.7021 C   0  0  0  0  0  0  0  0  0  0  0  0
  -23.9795  -18.4462  146.7426 C   0  0  0  0  0  0  0  0  0  0  0  0
  -25.1196  -16.8106  145.6409 C   0  0  0  0  0  0  0  0  0  0  0  0
  -25.2440  -15.8776  144.5240 C   0  0  0  0  0  0  0  0  0  0  0  0
  -26.0733  -14.7284  144.7061 C   0  0  0  0  0  0  0  0  0  0  0  0
  -27.0964  -14.7050  145.6625 C   0  0  0  0  0  0  0  0  0  0  0  0
  -27.1085  -15.7327  146.6117 C   0  0  0  0  0  0  0  0  0  0  0  0
  -26.1368  -16.7554  146.5717 C   0  0  0  0  0  0  0  0  0  0  0  0
  -24.8362  -18.3075  147.8893 C   0  0  0  0  0  0  0  0  0  0  0  0
  -25.9348  -17.4136  147.8448 C   0  0  0  0  0  0  0  0  0  0  0  0
  -26.0806  -13.7463  143.5835 C   0  0  0  0  0  0  0  0  0  0  0  0
  -26.8377  -12.8506  143.8685 F   0  0  0  0  0  0  0  0  0  0  0  0
  -26.4955  -14.3807  142.4221 F   0  0  0  0  0  0  0  0  0  0  0  0
  -24.8201  -13.3621  143.3732 F   0  0  0  0  0  0  0  0  0  0  0  0
  -26.7625  -17.3484  148.8507 O   0  0  0  0  0  0  0  0  0  0  0  0
  -28.1432  -13.6890  145.7649 C   0  0  0  0  0  0  0  0  0  0  0  0
  5 11  1  0
 11 12  1  0
 11 13  1  0
 11 14  1  0
 10 15  1  0
  6 16  1  0
  1  2  2  0
  2  9  1  0
  9 10  2  0
 10  8  1  0
  3  1  1  0
  3  4  2  0
  4  5  1  0
  5  6  2  0
  6  7  1  0
  7  8  2  0
  8  3  1  0
M  END

$$$$
No_1030-/dssg/home/sw_qyf/PocketFlow/Model-Generation-Results/5HT2A_7WC7_rec_A_10.pdb/2024-01-01-03-54-21/
     RDKit          3D

 16 18  0  0  0  0  0  0  0  0999 V2000
  -24.1553  -17.8465  145.7021 C   0  0  0  0  0  0  0  0  0  0  0  0
  -23.9795  -18.4462  146.7426 C   0  0  0  0  0  0  0  0  0  0  0  0
  -25.1196  -16.8105  145.6408 C   0  0  0  0  0  0  0  0  0  0  0  0
  -25.9236  -16.5070  146.7422 C   0  0  0  0  0  0  0  0  0  0  0  0
  -25.6173  -17.2153  147.9099 C   0  0  0  0  0  0  0  0  0  0  0  0
  -24.6179  -18.1473  147.9619 C   0  0  0  0  0  0  0  0  0  0  0  0
  -26.9636  -15.4823  146.6618 C   0  0  0  0  0  0  0  0  0  0  0  0
  -28.1934  -15.6518  147.2415 C   0  0  0  0  0  0  0  0  0  0  0  0
  -29.1683  -14.6637  147.1886 C   0  0  0  0  0  0  0  0  0  0  0  0
  -28.8996  -13.4260  146.6411 C   0  0  0  0  0  0  0  0  0  0  0  0
  -27.6059  -13.1467  146.1051 C   0  0  0  0  0  0  0  0  0  0  0  0
  -26.6444  -14.1462  146.1410 C   0  0  0  0  0  0  0  0  0  0  0  0
  -27.3099  -11.8047  145.5575 C   0  0  0  0  0  0  0  0  0  0  0  0
  -25.9547  -11.5223  145.3231 C   0  0  0  0  0  0  0  0  0  0  0  0
  -24.9619  -12.5191  145.4204 C   0  0  0  0  0  0  0  0  0  0  0  0
  -25.2850  -13.7912  145.8916 C   0  0  0  0  0  0  0  0  0  0  0  0
  4  7  1  0
 12 16  2  0
 16 15  1  0
 15 14  2  0
 14 13  1  0
 13 11  2  0
  1  2  2  0
  2  6  1  0
  6  5  2  0
  5  4  1  0
  4  3  2  0
  3  1  1  0
  7  8  2  0
  8  9  1  0
  9 10  2  0
 10 11  1  0
 11 12  1  0
 12  7  1  0
M  END

$$$$
No_1031-/dssg/home/sw_qyf/PocketFlow/Model-Generation-Results/5HT2A_7WC7_rec_A_10.pdb/2024-01-01-03-54-21/
     RDKit          3D

 35 38  0  0  0  0  0  0  0  0999 V2000
  -24.1553  -17.8465  145.7021 C   0  0  0  0  0  0  0  0  0  0  0  0
  -24.2856  -16.6364  145.3494 C   0  0  0  0  0  0  0  0  0  0  0  0
  -25.0033  -15.6772  146.0737 C   0  0  0  0  0  0  0  0  0  0  0  0
  -25.6964  -16.1810  147.2049 C   0  0  0  0  0  0  0  0  0  0  0  0
  -24.8143  -18.3454  146.8324 C   0  0  0  0  0  0  0  0  0  0  0  0
  -25.5292  -17.4614  147.6373 C   0  0  0  0  0  0  0  0  0  0  0  0
  -23.5056  -16.2160  144.2697 F   0  0  0  0  0  0  0  0  0  0  0  0
  -25.1498  -14.2365  145.8638 C   0  0  0  0  0  0  0  0  0  0  0  0
  -26.2910  -13.7116  145.4491 C   0  0  0  0  0  0  0  0  0  0  0  0
  -26.3845  -12.3036  145.1977 C   0  0  0  0  0  0  0  0  0  0  0  0
  -27.6325  -11.6272  144.8718 C   0  0  0  0  0  0  0  0  0  0  0  0
  -28.8135  -11.5850  145.6966 C   0  0  0  0  0  0  0  0  0  0  0  0
  -29.8916  -10.7756  145.3235 C   0  0  0  0  0  0  0  0  0  0  0  0
  -29.8184   -9.9512  144.2092 C   0  0  0  0  0  0  0  0  0  0  0  0
  -28.6866   -9.9593  143.4124 C   0  0  0  0  0  0  0  0  0  0  0  0
  -27.5467  -10.7626  143.8174 C   0  0  0  0  0  0  0  0  0  0  0  0
  -25.1840  -11.5958  145.3865 C   0  0  0  0  0  0  0  0  0  0  0  0
  -23.9801  -12.1216  145.7921 C   0  0  0  0  0  0  0  0  0  0  0  0
  -23.9137  -13.5501  146.0311 C   0  0  0  0  0  0  0  0  0  0  0  0
  -30.9731   -9.1109  143.8846 C   0  0  0  0  0  0  0  0  0  0  0  0
  -30.9209   -8.3049  142.6015 C   0  0  0  0  0  0  0  0  0  0  0  0
  -29.8722   -7.3124  142.5744 C   0  0  0  0  0  0  0  0  0  0  0  0
  -29.4107   -6.8516  141.3290 C   0  0  0  0  0  0  0  0  0  0  0  0
  -29.3610   -7.5677  140.1756 C   0  0  0  0  0  0  0  0  0  0  0  0
  -28.3576   -7.4557  139.2905 C   0  0  0  0  0  0  0  0  0  0  0  0
  -28.4180   -8.3499  138.1127 C   0  0  0  0  0  0  0  0  0  0  0  0
  -28.8731  -12.4430  146.9445 C   0  0  0  0  0  0  0  0  0  0  0  0
  -30.0215  -13.3316  147.0725 C   0  0  0  0  0  0  0  0  0  0  0  0
  -29.8625  -14.1511  147.9090 C   0  0  0  0  0  0  0  0  0  0  0  0
  -29.3724  -15.4917  147.8523 C   0  0  0  0  0  0  0  0  0  0  0  0
  -29.2141  -16.3950  148.9025 C   0  0  0  0  0  0  0  0  0  0  0  0
  -28.3978  -17.4744  148.9080 C   0  0  0  0  0  0  0  0  0  0  0  0
  -28.0232  -17.7727  147.6503 N   0  0  0  0  0  0  0  0  0  0  0  0
  -28.2669  -17.0512  146.5629 C   0  0  0  0  0  0  0  0  0  0  0  0
  -28.9066  -15.8354  146.6825 C   0  0  0  0  0  0  0  0  0  0  0  0
  2  7  1  0
  3  8  1  0
 10 11  1  0
 14 20  1  0
 20 21  1  0
 21 22  1  0
 22 23  2  3
 23 24  1  0
 24 25  1  0
 25 26  2  0
 12 27  1  0
 27 28  1  0
 28 29  2  3
 29 30  1  0
  8  9  2  0
  9 10  1  0
 10 17  2  0
 17 18  1  0
 18 19  2  0
 19  8  1  0
 11 12  1  0
 12 13  2  0
 13 14  1  0
 14 15  2  0
 15 16  1  0
 16 11  2  0
  1  2  2  0
  2  3  1  0
  3  4  2  0
  4  6  1  0
  6  5  2  0
  5  1  1  0
 30 31  2  0
 31 32  1  0
 32 33  2  0
 33 34  1  0
 34 35  2  0
 35 30  1  0
M  END

$$$$
No_1032-/dssg/home/sw_qyf/PocketFlow/Model-Generation-Results/5HT2A_7WC7_rec_A_10.pdb/2024-01-01-03-54-21/
     RDKit          3D

 14 14  0  0  0  0  0  0  0  0999 V2000
  -24.1553  -17.8465  145.7021 C   0  0  0  0  0  0  0  0  0  0  0  0
  -23.9795  -18.4462  146.7426 C   0  0  0  0  0  0  0  0  0  0  0  0
  -25.1196  -16.8106  145.6408 C   0  0  0  0  0  0  0  0  0  0  0  0
  -25.5716  -16.3544  146.4211 C   0  0  0  0  0  0  0  0  0  0  0  0
  -25.4257  -16.8469  147.8252 C   0  0  0  0  0  0  0  0  0  0  0  0
  -24.4913  -17.8322  148.0252 C   0  0  0  0  0  0  0  0  0  0  0  0
  -26.5754  -15.0828  146.4233 C   0  0  0  0  0  0  0  0  0  0  0  0
  -26.8616  -14.5073  145.4427 C   0  0  0  0  0  0  0  0  0  0  0  0
  -26.2126  -14.6671  144.1057 C   0  0  0  0  0  0  0  0  0  0  0  0
  -26.4548  -13.5903  143.1478 C   0  0  0  0  0  0  0  0  0  0  0  0
  -26.4254  -14.0180  141.8485 C   0  0  0  0  0  0  0  0  0  0  0  0
  -27.3342  -13.2494  140.9015 C   0  0  0  0  0  0  0  0  0  0  0  0
  -27.8979  -11.9798  141.3521 C   0  0  0  0  0  0  0  0  0  0  0  0
  -27.8330  -11.6363  142.7508 C   0  0  0  0  0  0  0  0  0  0  0  0
  4  7  1  0
  7  8  2  3
  8  9  1  0
  9 10  2  3
 10 11  1  0
 11 12  2  3
 12 13  1  0
 13 14  2  0
  1  2  2  0
  2  6  1  0
  6  5  2  0
  5  4  1  0
  4  3  2  0
  3  1  1  0
M  END

$$$$
No_1033-/dssg/home/sw_qyf/PocketFlow/Model-Generation-Results/5HT2A_7WC7_rec_A_10.pdb/2024-01-01-03-54-21/
     RDKit          3D

 21 21  0  0  0  0  0  0  0  0999 V2000
  -24.1553  -17.8465  145.7021 C   0  0  0  0  0  0  0  0  0  0  0  0
  -24.6364  -17.2931  146.7091 C   0  0  0  0  0  0  0  0  0  0  0  0
  -25.8608  -16.5592  146.5934 C   0  0  0  0  0  0  0  0  0  0  0  0
  -26.9933  -16.9082  147.1889 C   0  0  0  0  0  0  0  0  0  0  0  0
  -28.0267  -15.9443  147.2666 C   0  0  0  0  0  0  0  0  0  0  0  0
  -28.0172  -14.7219  146.5958 C   0  0  0  0  0  0  0  0  0  0  0  0
  -26.7848  -14.3753  145.9699 C   0  0  0  0  0  0  0  0  0  0  0  0
  -25.6670  -15.2934  145.9910 C   0  0  0  0  0  0  0  0  0  0  0  0
  -26.6142  -13.0422  145.3733 C   0  0  0  0  0  0  0  0  0  0  0  0
  -26.6055  -13.0378  144.0749 C   0  0  0  0  0  0  0  0  0  0  0  0
  -25.9051  -14.0052  143.2931 C   0  0  0  0  0  0  0  0  0  0  0  0
  -24.0005  -17.5602  148.0418 C   0  0  0  0  0  0  0  0  0  0  0  0
  -22.8389  -17.9038  147.9191 F   0  0  0  0  0  0  0  0  0  0  0  0
  -23.8959  -16.3114  148.7930 F   0  0  0  0  0  0  0  0  0  0  0  0
  -27.4285  -12.1288  143.2645 C   0  0  0  0  0  0  0  0  0  0  0  0
  -28.2558  -11.1402  143.9084 C   0  0  0  0  0  0  0  0  0  0  0  0
  -28.4680  -11.0742  145.1970 C   0  0  0  0  0  0  0  0  0  0  0  0
  -27.7595  -11.7328  146.2753 C   0  0  0  0  0  0  0  0  0  0  0  0
  -27.7553  -11.8466  147.4534 O   0  0  0  0  0  0  0  0  0  0  0  0
  -26.6138  -11.1684  146.2375 O   0  0  0  0  0  0  0  0  0  0  0  0
  -25.3811  -12.5056  145.7135 F   0  0  0  0  0  0  0  0  0  0  0  0
  1  2  1  0
  2  3  1  0
  7  9  1  0
  9 10  1  0
 10 11  1  0
  2 12  1  0
 12 13  1  0
 12 14  1  0
 10 15  1  0
 15 16  1  0
 16 17  2  3
 17 18  1  0
 18 19  1  0
 18 20  1  0
  9 21  1  0
  3  4  2  0
  4  5  1  0
  5  6  2  0
  6  7  1  0
  7  8  2  0
  8  3  1  0
M  END

$$$$
No_1034-/dssg/home/sw_qyf/PocketFlow/Model-Generation-Results/5HT2A_7WC7_rec_A_10.pdb/2024-01-01-03-54-21/
     RDKit          3D

 16 18  0  0  0  0  0  0  0  0999 V2000
  -24.1553  -17.8465  145.7021 C   0  0  0  0  0  0  0  0  0  0  0  0
  -23.9795  -18.4462  146.7426 C   0  0  0  0  0  0  0  0  0  0  0  0
  -25.1196  -16.8106  145.6409 C   0  0  0  0  0  0  0  0  0  0  0  0
  -25.5716  -16.3544  146.4211 C   0  0  0  0  0  0  0  0  0  0  0  0
  -25.4257  -16.8469  147.8252 C   0  0  0  0  0  0  0  0  0  0  0  0
  -24.4913  -17.8322  148.0252 C   0  0  0  0  0  0  0  0  0  0  0  0
  -26.5541  -15.0650  146.3939 C   0  0  0  0  0  0  0  0  0  0  0  0
  -27.8512  -15.2380  146.7898 C   0  0  0  0  0  0  0  0  0  0  0  0
  -28.7019  -14.1285  146.7571 C   0  0  0  0  0  0  0  0  0  0  0  0
  -29.9977  -14.0090  147.4335 C   0  0  0  0  0  0  0  0  0  0  0  0
  -26.1653  -13.9648  145.6465 C   0  0  0  0  0  0  0  0  0  0  0  0
  -27.0336  -12.8196  145.6113 C   0  0  0  0  0  0  0  0  0  0  0  0
  -28.3596  -12.9007  146.2440 C   0  0  0  0  0  0  0  0  0  0  0  0
  -29.2400  -11.7563  146.1816 C   0  0  0  0  0  0  0  0  0  0  0  0
  -30.0989  -11.5210  147.2266 N   0  0  0  0  0  0  0  0  0  0  0  0
  -30.6075  -12.7770  147.8198 C   0  0  0  0  0  0  0  0  0  0  0  0
  4  7  1  0
  9 10  2  0
 10 16  1  0
 16 15  2  0
 15 14  1  0
 14 13  2  0
  1  2  2  0
  2  6  1  0
  6  5  2  0
  5  4  1  0
  4  3  2  0
  3  1  1  0
  7  8  2  0
  8  9  1  0
  9 13  1  0
 13 12  1  0
 12 11  2  0
 11  7  1  0
M  END

$$$$
No_1035-/dssg/home/sw_qyf/PocketFlow/Model-Generation-Results/5HT2A_7WC7_rec_A_10.pdb/2024-01-01-03-54-21/
     RDKit          3D

 35 36  0  0  0  0  0  0  0  0999 V2000
  -24.1553  -17.8465  145.7021 C   0  0  0  0  0  0  0  0  0  0  0  0
  -24.6364  -17.2931  146.7091 C   0  0  0  0  0  0  0  0  0  0  0  0
  -25.8608  -16.5591  146.5934 C   0  0  0  0  0  0  0  0  0  0  0  0
  -25.9533  -15.5604  145.6681 C   0  0  0  0  0  0  0  0  0  0  0  0
  -25.0552  -14.7529  145.5673 C   0  0  0  0  0  0  0  0  0  0  0  0
  -25.1293  -13.6360  144.7549 C   0  0  0  0  0  0  0  0  0  0  0  0
  -24.0398  -12.6661  144.7582 C   0  0  0  0  0  0  0  0  0  0  0  0
  -23.8997  -11.8839  145.8910 C   0  0  0  0  0  0  0  0  0  0  0  0
  -24.6647  -12.1166  147.0135 C   0  0  0  0  0  0  0  0  0  0  0  0
  -23.0251  -18.7759  145.8319 C   0  0  0  0  0  0  0  0  0  0  0  0
  -22.3718  -18.4905  146.9982 F   0  0  0  0  0  0  0  0  0  0  0  0
  -23.0111  -19.8703  145.3308 F   0  0  0  0  0  0  0  0  0  0  0  0
  -25.9551  -13.6108  143.6683 C   0  0  0  0  0  0  0  0  0  0  0  0
  -26.2568  -12.5072  143.2150 F   0  0  0  0  0  0  0  0  0  0  0  0
  -27.2966  -14.4653  143.9484 C   0  0  0  0  0  0  0  0  0  0  0  0
  -27.0026  -15.6500  144.6954 C   0  0  0  0  0  0  0  0  0  0  0  0
  -26.4893  -16.0897  147.9480 C   0  0  0  0  0  0  0  0  0  0  0  0
  -27.8490  -16.1354  148.0516 C   0  0  0  0  0  0  0  0  0  0  0  0
  -28.5723  -15.0847  147.5894 C   0  0  0  0  0  0  0  0  0  0  0  0
  -29.9778  -14.8829  148.0307 C   0  0  0  0  0  0  0  0  0  0  0  0
  -30.6864  -13.7026  147.6839 C   0  0  0  0  0  0  0  0  0  0  0  0
  -29.9348  -12.7848  146.8827 C   0  0  0  0  0  0  0  0  0  0  0  0
  -28.5693  -12.9188  146.5180 C   0  0  0  0  0  0  0  0  0  0  0  0
  -27.9380  -14.0085  146.9779 C   0  0  0  0  0  0  0  0  0  0  0  0
  -30.5160  -11.5923  146.4805 O   0  0  0  0  0  0  0  0  0  0  0  0
  -25.4331  -14.2152  142.5666 F   0  0  0  0  0  0  0  0  0  0  0  0
  -29.8392  -10.7783  145.6171 C   0  0  0  0  0  0  0  0  0  0  0  0
  -28.9547  -11.1755  144.6911 C   0  0  0  0  0  0  0  0  0  0  0  0
  -28.4017  -10.0080  143.5943 P   0  0  0  0  0  0  0  0  0  0  0  0
  -27.5810   -9.4380  143.7544 O   0  0  0  0  0  0  0  0  0  0  0  0
  -29.7789   -9.2305  143.5414 O   0  0  0  0  0  0  0  0  0  0  0  0
  -28.6175  -10.8210  142.2041 O   0  0  0  0  0  0  0  0  0  0  0  0
  -30.7220   -9.4782  144.1474 F   0  0  0  0  0  0  0  0  0  0  0  0
  -29.4446   -9.6336  146.3788 O   0  0  0  0  0  0  0  0  0  0  0  0
  -29.3296  -10.5370  141.1715 C   0  0  0  0  0  0  0  0  0  0  0  0
  1  2  1  0
  2  3  1  0
  4  5  1  0
  5  6  2  0
  6  7  1  0
  7  8  1  0
  8  9  2  0
  1 10  1  0
 10 11  1  0
 10 12  1  0
  6 13  1  0
 13 14  1  0
 13 15  1  0
  4 16  1  0
 15 16  1  0
  3 17  1  0
 17 18  1  0
 22 25  1  0
 13 26  1  0
 25 27  1  0
 27 28  1  0
 28 29  1  0
 29 30  2  0
 29 31  1  0
 29 32  1  0
 31 33  1  0
 27 34  1  0
 32 35  1  0
 18 19  1  0
  3  4  1  0
 19 20  2  0
 20 21  1  0
 21 22  2  0
 22 23  1  0
 23 24  2  0
 24 19  1  0
M  END

$$$$
No_1036-/dssg/home/sw_qyf/PocketFlow/Model-Generation-Results/5HT2A_7WC7_rec_A_10.pdb/2024-01-01-03-54-21/
     RDKit          3D

  7  6  0  0  0  0  0  0  0  0999 V2000
  -23.1746  -16.6014  144.8668 C   0  0  0  0  0  0  0  0  0  0  0  0
  -23.7011  -17.0158  145.9774 C   0  0  0  0  0  0  0  0  0  0  0  0
  -24.2134  -16.0722  146.8877 C   0  0  0  0  0  0  0  0  0  0  0  0
  -24.7882  -16.3410  148.2078 C   0  0  0  0  0  0  0  0  0  0  0  0
  -23.5800  -15.2232  144.4665 C   0  0  0  0  0  0  0  0  0  0  0  0
  -24.1905  -14.2896  145.4085 C   0  0  0  0  0  0  0  0  0  0  0  0
  -24.3638  -12.9400  145.0569 C   0  0  0  0  0  0  0  0  0  0  0  0
  1  2  1  0
  2  3  1  0
  3  4  1  0
  1  5  1  0
  5  6  2  3
  6  7  1  0
M  END

$$$$
No_1037-/dssg/home/sw_qyf/PocketFlow/Model-Generation-Results/5HT2A_7WC7_rec_A_10.pdb/2024-01-01-03-54-21/
     RDKit          3D

 28 29  0  0  0  0  0  0  0  0999 V2000
  -23.1746  -16.6014  144.8668 C   0  0  0  0  0  0  0  0  0  0  0  0
  -24.0189  -16.0564  145.8445 C   0  0  0  0  0  0  0  0  0  0  0  0
  -24.4145  -16.8299  146.9062 C   0  0  0  0  0  0  0  0  0  0  0  0
  -25.2730  -16.2838  147.9150 C   0  0  0  0  0  0  0  0  0  0  0  0
  -26.0161  -15.1622  147.5289 C   0  0  0  0  0  0  0  0  0  0  0  0
  -24.5617  -14.6879  145.6601 C   0  0  0  0  0  0  0  0  0  0  0  0
  -24.1519  -13.7878  144.6933 C   0  0  0  0  0  0  0  0  0  0  0  0
  -25.5816  -14.2506  146.6913 C   0  0  0  0  0  0  0  0  0  0  0  0
  -23.3640  -13.0554  144.9482 O   0  0  0  0  0  0  0  0  0  0  0  0
  -23.8918  -18.1737  147.1232 C   0  0  0  0  0  0  0  0  0  0  0  0
  -23.0982  -19.0289  145.5800 Br  0  0  0  0  0  0  0  0  0  0  0  0
  -24.7117  -13.8785  143.5266 O   0  0  0  0  0  0  0  0  0  0  0  0
  -26.0257  -13.0290  146.5767 O   0  0  0  0  0  0  0  0  0  0  0  0
  -25.2676  -11.8813  146.4556 C   0  0  0  0  0  0  0  0  0  0  0  0
  -26.2289  -10.7745  146.1591 C   0  0  0  0  0  0  0  0  0  0  0  0
  -26.2708  -10.4242  144.7092 C   0  0  0  0  0  0  0  0  0  0  0  0
  -27.6318  -10.6216  144.1523 C   0  0  0  0  0  0  0  0  0  0  0  0
  -27.8634  -10.2568  142.8492 C   0  0  0  0  0  0  0  0  0  0  0  0
  -29.0200   -9.4943  142.6077 C   0  0  0  0  0  0  0  0  0  0  0  0
  -30.1210   -9.4344  143.4319 C   0  0  0  0  0  0  0  0  0  0  0  0
  -31.2689   -8.7067  143.1264 C   0  0  0  0  0  0  0  0  0  0  0  0
  -31.0930   -7.7649  142.4397 N   0  0  0  0  0  0  0  0  0  0  0  0
  -30.1511   -7.6345  141.3833 C   0  0  0  0  0  0  0  0  0  0  0  0
  -29.0005   -8.5655  141.5930 C   0  0  0  0  0  0  0  0  0  0  0  0
  -30.2145  -10.4065  144.4720 F   0  0  0  0  0  0  0  0  0  0  0  0
  -30.1402   -6.6613  140.0632 Cl  0  0  0  0  0  0  0  0  0  0  0  0
  -22.9907  -15.8569  143.8472 O   0  0  0  0  0  0  0  0  0  0  0  0
  -32.2841   -8.7768  143.8654 O   0  0  0  0  0  0  0  0  0  0  0  0
  1  2  1  0
  2  3  1  0
  3  4  1  0
  4  5  1  0
  2  6  1  0
  6  7  1  0
  5  8  1  0
  6  8  1  0
  7  9  2  0
  3 10  1  0
 10 11  1  0
  7 12  1  0
  8 13  1  0
 13 14  1  0
 14 15  1  0
 15 16  1  0
 16 17  1  0
 17 18  1  0
 18 19  1  0
 20 21  1  0
 21 22  1  0
 22 23  1  0
 19 24  1  0
 23 24  1  0
 20 25  1  0
 23 26  1  0
  1 27  2  0
 21 28  2  0
 20 19  1  0
M  END

$$$$
No_1038-/dssg/home/sw_qyf/PocketFlow/Model-Generation-Results/5HT2A_7WC7_rec_A_10.pdb/2024-01-01-03-54-21/
     RDKit          3D

 32 34  0  0  0  0  0  0  0  0999 V2000
  -23.1746  -16.6014  144.8668 C   0  0  0  0  0  0  0  0  0  0  0  0
  -24.0189  -16.0564  145.8445 C   0  0  0  0  0  0  0  0  0  0  0  0
  -25.3176  -15.9168  145.6822 C   0  0  0  0  0  0  0  0  0  0  0  0
  -25.8961  -14.7967  146.1558 C   0  0  0  0  0  0  0  0  0  0  0  0
  -25.1177  -13.7443  146.6460 C   0  0  0  0  0  0  0  0  0  0  0  0
  -23.7824  -13.9213  146.8153 C   0  0  0  0  0  0  0  0  0  0  0  0
  -23.1801  -14.9731  146.2391 C   0  0  0  0  0  0  0  0  0  0  0  0
  -27.4222  -14.7181  146.1900 C   0  0  0  0  0  0  0  0  0  0  0  0
  -28.2221  -15.6472  146.7937 C   0  0  0  0  0  0  0  0  0  0  0  0
  -29.6063  -15.4179  146.9110 C   0  0  0  0  0  0  0  0  0  0  0  0
  -30.0942  -14.1023  146.7218 C   0  0  0  0  0  0  0  0  0  0  0  0
  -29.1944  -13.0921  146.3080 C   0  0  0  0  0  0  0  0  0  0  0  0
  -27.8319  -13.3275  146.0805 C   0  0  0  0  0  0  0  0  0  0  0  0
  -29.6678  -11.6840  146.0912 C   0  0  0  0  0  0  0  0  0  0  0  0
  -30.5156  -11.1891  146.8494 O   0  0  0  0  0  0  0  0  0  0  0  0
  -28.9665  -10.9260  145.2137 N   0  0  0  0  0  0  0  0  0  0  0  0
  -27.9693  -11.2675  144.3393 C   0  0  0  0  0  0  0  0  0  0  0  0
  -27.5289   -9.9456  143.7533 C   0  0  0  0  0  0  0  0  0  0  0  0
  -28.3884   -9.4880  142.6593 C   0  0  0  0  0  0  0  0  0  0  0  0
  -29.2826   -8.4533  143.0210 C   0  0  0  0  0  0  0  0  0  0  0  0
  -30.1887   -7.9261  141.9839 C   0  0  0  0  0  0  0  0  0  0  0  0
  -29.6371   -7.7607  140.6617 C   0  0  0  0  0  0  0  0  0  0  0  0
  -28.8128   -8.7962  140.1574 C   0  0  0  0  0  0  0  0  0  0  0  0
  -28.0539   -9.5405  141.2458 C   0  0  0  0  0  0  0  0  0  0  0  0
  -28.4024   -8.8190  138.8467 C   0  0  0  0  0  0  0  0  0  0  0  0
  -28.0657   -8.4259  137.9159 N   0  0  0  0  0  0  0  0  0  0  0  0
  -23.2145  -17.9261  144.9045 O   0  0  0  0  0  0  0  0  0  0  0  0
  -22.2760  -16.0792  144.1632 O   0  0  0  0  0  0  0  0  0  0  0  0
  -27.6498  -17.2186  147.0634 Cl  0  0  0  0  0  0  0  0  0  0  0  0
  -31.3928   -7.2314  142.4985 C   0  0  0  0  0  0  0  0  0  0  0  0
  -31.8418   -8.0111  143.5604 O   0  0  0  0  0  0  0  0  0  0  0  0
  -27.5952  -12.2653  143.9433 O   0  0  0  0  0  0  0  0  0  0  0  0
  1  2  1  0
  4  8  1  0
 12 14  1  0
 14 15  1  0
 14 16  1  0
 16 17  1  0
 17 18  1  0
 18 19  1  0
 23 25  1  0
 25 26  3  0
  1 27  2  0
  1 28  1  0
  9 29  1  0
 21 30  1  0
 30 31  1  0
 17 32  2  0
  2  3  2  0
  3  4  1  0
  4  5  2  0
  5  6  1  0
  6  7  2  0
  7  2  1  0
  8  9  2  0
  9 10  1  0
 10 11  2  0
 11 12  1  0
 12 13  2  0
 13  8  1  0
 19 20  2  0
 20 21  1  0
 21 22  2  0
 22 23  1  0
 23 24  2  0
 24 19  1  0
M  END

$$$$
No_1039-/dssg/home/sw_qyf/PocketFlow/Model-Generation-Results/5HT2A_7WC7_rec_A_10.pdb/2024-01-01-03-54-21/
     RDKit          3D

 19 21  0  0  0  0  0  0  0  0999 V2000
  -23.1746  -16.6014  144.8668 C   0  0  0  0  0  0  0  0  0  0  0  0
  -23.8963  -15.5346  144.7885 C   0  0  0  0  0  0  0  0  0  0  0  0
  -24.5755  -15.0383  145.9043 C   0  0  0  0  0  0  0  0  0  0  0  0
  -24.6688  -15.8869  147.0363 C   0  0  0  0  0  0  0  0  0  0  0  0
  -24.0226  -17.0824  147.0622 C   0  0  0  0  0  0  0  0  0  0  0  0
  -23.2575  -17.4593  145.9560 C   0  0  0  0  0  0  0  0  0  0  0  0
  -25.3270  -13.7158  145.9348 C   0  0  0  0  0  0  0  0  0  0  0  0
  -24.7096  -12.7416  145.4939 C   0  0  0  0  0  0  0  0  0  0  0  0
  -25.1776  -11.5956  145.3115 C   0  0  0  0  0  0  0  0  0  0  0  0
  -26.6022  -11.2882  145.7012 C   0  0  0  0  0  0  0  0  0  0  0  0
  -27.2776  -12.3807  146.2923 C   0  0  0  0  0  0  0  0  0  0  0  0
  -26.6565  -13.6602  146.3696 C   0  0  0  0  0  0  0  0  0  0  0  0
  -28.7000  -12.1950  146.6512 C   0  0  0  0  0  0  0  0  0  0  0  0
  -29.3402  -13.0679  147.5959 C   0  0  0  0  0  0  0  0  0  0  0  0
  -30.6420  -12.6984  148.1073 C   0  0  0  0  0  0  0  0  0  0  0  0
  -31.1113  -11.5327  147.6637 N   0  0  0  0  0  0  0  0  0  0  0  0
  -29.4500  -11.0722  146.2508 C   0  0  0  0  0  0  0  0  0  0  0  0
  -30.6361  -10.7903  146.7990 N   0  0  0  0  0  0  0  0  0  0  0  0
  -31.2007  -13.4089  149.0472 N   0  0  0  0  0  0  0  0  0  0  0  0
  3  7  1  0
 11 13  1  0
 15 19  1  0
  1  2  2  0
  2  3  1  0
  3  4  2  0
  4  5  1  0
  5  6  2  0
  6  1  1  0
 13 14  2  0
 14 15  1  0
 15 16  2  0
 16 18  1  0
 18 17  2  0
 17 13  1  0
  7  8  2  0
  8  9  1  0
  9 10  2  0
 10 11  1  0
 11 12  2  0
 12  7  1  0
M  END

$$$$
No_1040-/dssg/home/sw_qyf/PocketFlow/Model-Generation-Results/5HT2A_7WC7_rec_A_10.pdb/2024-01-01-03-54-21/
     RDKit          3D

 26 27  0  0  0  0  0  0  0  0999 V2000
  -23.1746  -16.6014  144.8668 C   0  0  0  0  0  0  0  0  0  0  0  0
  -23.8963  -15.5346  144.7885 C   0  0  0  0  0  0  0  0  0  0  0  0
  -24.6479  -15.0447  145.8164 C   0  0  0  0  0  0  0  0  0  0  0  0
  -24.7862  -15.8388  146.9698 C   0  0  0  0  0  0  0  0  0  0  0  0
  -24.1323  -17.0288  147.0733 C   0  0  0  0  0  0  0  0  0  0  0  0
  -24.2553  -17.8341  148.2417 C   0  0  0  0  0  0  0  0  0  0  0  0
  -23.3222  -17.4364  145.9967 C   0  0  0  0  0  0  0  0  0  0  0  0
  -24.0276  -17.0398  149.6099 C   0  0  0  0  0  0  0  0  0  0  0  0
  -25.4389  -13.7314  145.8216 C   0  0  0  0  0  0  0  0  0  0  0  0
  -24.7192  -12.5548  145.9131 C   0  0  0  0  0  0  0  0  0  0  0  0
  -26.7953  -13.7286  145.6015 C   0  0  0  0  0  0  0  0  0  0  0  0
  -27.5224  -12.4976  145.5796 C   0  0  0  0  0  0  0  0  0  0  0  0
  -26.8615  -11.2802  145.4285 C   0  0  0  0  0  0  0  0  0  0  0  0
  -25.4312  -11.3108  145.8100 C   0  0  0  0  0  0  0  0  0  0  0  0
  -22.7740  -16.7718  150.0148 C   0  0  0  0  0  0  0  0  0  0  0  0
  -27.6191  -15.1976  145.5417 Cl  0  0  0  0  0  0  0  0  0  0  0  0
  -22.4361  -16.9581  151.4674 C   0  0  0  0  0  0  0  0  0  0  0  0
  -23.5212  -12.3599  145.8830 F   0  0  0  0  0  0  0  0  0  0  0  0
  -25.2165  -16.8614  150.3768 C   0  0  0  0  0  0  0  0  0  0  0  0
  -21.3296  -16.3257  151.7587 F   0  0  0  0  0  0  0  0  0  0  0  0
  -23.8151  -14.6947  143.7153 O   0  0  0  0  0  0  0  0  0  0  0  0
  -28.9971  -12.4652  145.4468 C   0  0  0  0  0  0  0  0  0  0  0  0
  -29.5602  -12.3470  146.8804 C   0  0  0  0  0  0  0  0  0  0  0  0
  -30.1501  -11.1049  147.3808 C   0  0  0  0  0  0  0  0  0  0  0  0
  -29.6636  -13.5120  147.7159 C   0  0  0  0  0  0  0  0  0  0  0  0
  -29.1413  -14.7324  147.4134 C   0  0  0  0  0  0  0  0  0  0  0  0
  5  6  1  0
  6  8  1  0
  3  9  1  0
  8 15  1  0
 11 16  1  0
 15 17  2  3
 10 18  1  0
  8 19  1  0
 17 20  1  0
  2 21  1  0
 12 22  1  0
 22 23  1  0
 23 24  1  0
 23 25  1  0
 25 26  1  0
  1  2  2  0
  2  3  1  0
  3  4  2  0
  4  5  1  0
  5  7  2  0
  7  1  1  0
  9 10  2  0
 10 14  1  0
 14 13  2  0
 13 12  1  0
 12 11  2  0
 11  9  1  0
M  END

$$$$
No_1041-/dssg/home/sw_qyf/PocketFlow/Model-Generation-Results/5HT2A_7WC7_rec_A_10.pdb/2024-01-01-03-54-21/
     RDKit          3D

 24 25  0  0  0  0  0  0  0  0999 V2000
  -23.1746  -16.6014  144.8668 C   0  0  0  0  0  0  0  0  0  0  0  0
  -23.8963  -15.5346  144.7885 C   0  0  0  0  0  0  0  0  0  0  0  0
  -23.6398  -14.5115  145.3281 C   0  0  0  0  0  0  0  0  0  0  0  0
  -24.3241  -13.3648  145.1281 C   0  0  0  0  0  0  0  0  0  0  0  0
  -25.5072  -13.2953  144.4353 C   0  0  0  0  0  0  0  0  0  0  0  0
  -25.9151  -14.5889  143.8605 C   0  0  0  0  0  0  0  0  0  0  0  0
  -25.1243  -15.6356  144.0574 C   0  0  0  0  0  0  0  0  0  0  0  0
  -23.7319  -17.8245  144.5537 O   0  0  0  0  0  0  0  0  0  0  0  0
  -23.9475  -12.0522  145.6922 N   0  0  0  0  0  0  0  0  0  0  0  0
  -26.4548  -12.1584  144.2917 C   0  0  0  0  0  0  0  0  0  0  0  0
  -27.0064  -11.7804  143.2796 C   0  0  0  0  0  0  0  0  0  0  0  0
  -27.9851  -10.7229  143.2087 C   0  0  0  0  0  0  0  0  0  0  0  0
  -28.3041   -9.9878  142.2296 C   0  0  0  0  0  0  0  0  0  0  0  0
  -27.9467  -10.3694  140.9215 C   0  0  0  0  0  0  0  0  0  0  0  0
  -28.1905   -9.6601  139.7563 C   0  0  0  0  0  0  0  0  0  0  0  0
  -28.9149   -8.4242  139.8884 C   0  0  0  0  0  0  0  0  0  0  0  0
  -29.5122   -8.0936  141.1669 C   0  0  0  0  0  0  0  0  0  0  0  0
  -29.1868   -8.8666  142.2656 C   0  0  0  0  0  0  0  0  0  0  0  0
  -29.1446   -7.6577  138.9015 F   0  0  0  0  0  0  0  0  0  0  0  0
  -28.5629  -10.3921  144.5776 C   0  0  0  0  0  0  0  0  0  0  0  0
  -29.5354   -9.9701  144.7914 C   0  0  0  0  0  0  0  0  0  0  0  0
  -30.1337  -10.2761  146.1911 C   0  0  0  0  0  0  0  0  0  0  0  0
  -29.5262  -11.3419  146.9124 C   0  0  0  0  0  0  0  0  0  0  0  0
  -28.4230  -11.9940  146.4794 C   0  0  0  0  0  0  0  0  0  0  0  0
  1  2  1  0
  1  8  1  0
  4  9  1  0
  5 10  1  0
 10 11  2  3
 11 12  1  0
 12 13  1  0
 16 19  1  0
 12 20  1  0
 20 21  2  3
 21 22  1  0
 22 23  2  3
 23 24  1  0
  2  3  2  0
  3  4  1  0
  4  5  2  0
  5  6  1  0
  6  7  2  0
  7  2  1  0
 13 14  2  0
 14 15  1  0
 15 16  2  0
 16 17  1  0
 17 18  2  0
 18 13  1  0
M  END

$$$$
No_1042-/dssg/home/sw_qyf/PocketFlow/Model-Generation-Results/5HT2A_7WC7_rec_A_10.pdb/2024-01-01-03-54-21/
     RDKit          3D

 35 37  0  0  0  0  0  0  0  0999 V2000
  -23.1746  -16.6014  144.8668 C   0  0  0  0  0  0  0  0  0  0  0  0
  -23.7011  -17.0158  145.9774 C   0  0  0  0  0  0  0  0  0  0  0  0
  -24.2134  -16.0722  146.8877 C   0  0  0  0  0  0  0  0  0  0  0  0
  -23.3742  -15.2706  144.3922 C   0  0  0  0  0  0  0  0  0  0  0  0
  -24.0638  -14.3065  145.2723 C   0  0  0  0  0  0  0  0  0  0  0  0
  -24.4769  -14.7246  146.5384 C   0  0  0  0  0  0  0  0  0  0  0  0
  -24.2143  -12.8848  144.8927 C   0  0  0  0  0  0  0  0  0  0  0  0
  -25.3007  -12.5258  144.7077 O   0  0  0  0  0  0  0  0  0  0  0  0
  -23.0530  -12.2092  144.8455 O   0  0  0  0  0  0  0  0  0  0  0  0
  -23.5459  -18.2758  146.4051 F   0  0  0  0  0  0  0  0  0  0  0  0
  -25.6702  -11.2994  145.3643 C   0  0  0  0  0  0  0  0  0  0  0  0
  -26.6029  -10.5095  144.6581 C   0  0  0  0  0  0  0  0  0  0  0  0
  -27.8321  -10.7983  144.9029 O   0  0  0  0  0  0  0  0  0  0  0  0
  -28.8665  -10.1390  144.1716 C   0  0  0  0  0  0  0  0  0  0  0  0
  -28.6741   -9.4513  143.1176 C   0  0  0  0  0  0  0  0  0  0  0  0
  -29.6798   -8.6780  142.5747 C   0  0  0  0  0  0  0  0  0  0  0  0
  -29.5340   -7.8667  141.3719 C   0  0  0  0  0  0  0  0  0  0  0  0
  -29.9232   -6.6170  141.2451 C   0  0  0  0  0  0  0  0  0  0  0  0
  -28.8969   -8.5234  140.2303 C   0  0  0  0  0  0  0  0  0  0  0  0
  -28.3946   -9.7464  140.1600 C   0  0  0  0  0  0  0  0  0  0  0  0
  -27.7212  -10.1926  139.0284 C   0  0  0  0  0  0  0  0  0  0  0  0
  -27.0771  -11.4719  139.1670 C   0  0  0  0  0  0  0  0  0  0  0  0
  -27.4308  -12.3295  140.3173 C   0  0  0  0  0  0  0  0  0  0  0  0
  -28.1376  -11.7966  141.4501 C   0  0  0  0  0  0  0  0  0  0  0  0
  -28.6361  -10.5172  141.3902 C   0  0  0  0  0  0  0  0  0  0  0  0
  -29.7070  -10.4768  141.9933 O   0  0  0  0  0  0  0  0  0  0  0  0
  -30.8689  -10.7898  142.0162 C   0  0  0  0  0  0  0  0  0  0  0  0
  -31.0680   -9.0399  143.0167 O   0  0  0  0  0  0  0  0  0  0  0  0
  -31.7544   -9.8754  142.5144 C   0  0  0  0  0  0  0  0  0  0  0  0
  -27.5241   -8.8963  143.0496 O   0  0  0  0  0  0  0  0  0  0  0  0
  -29.0624   -5.7395  141.1814 N   0  0  0  0  0  0  0  0  0  0  0  0
  -26.4272  -12.0824  138.2672 O   0  0  0  0  0  0  0  0  0  0  0  0
  -24.7162  -16.6185  148.2848 C   0  0  0  0  0  0  0  0  0  0  0  0
  -26.0196  -16.7847  148.6534 C   0  0  0  0  0  0  0  0  0  0  0  0
  -26.9870  -16.0897  147.9624 C   0  0  0  0  0  0  0  0  0  0  0  0
  5  7  1  0
  7  8  1  0
  7  9  2  0
  2 10  1  0
  8 11  1  0
 11 12  1  0
 12 13  1  0
 13 14  1  0
 14 15  2  3
 15 16  1  0
 16 17  1  0
 17 18  2  3
 17 19  1  0
 19 20  1  0
 25 26  1  0
 26 27  1  0
 16 28  1  0
 27 29  1  0
 28 29  1  0
 15 30  1  0
 18 31  1  0
 22 32  1  0
  3 33  1  0
 33 34  1  0
 34 35  2  0
  1  2  2  0
  2  3  1  0
  3  6  2  0
  6  5  1  0
  5  4  2  0
  4  1  1  0
 20 21  2  0
 21 22  1  0
 22 23  2  0
 23 24  1  0
 24 25  2  0
 25 20  1  0
M  END

$$$$
No_1043-/dssg/home/sw_qyf/PocketFlow/Model-Generation-Results/5HT2A_7WC7_rec_A_10.pdb/2024-01-01-03-54-21/
     RDKit          3D

 35 38  0  0  0  0  0  0  0  0999 V2000
  -23.1746  -16.6014  144.8668 C   0  0  0  0  0  0  0  0  0  0  0  0
  -23.7011  -17.0158  145.9774 C   0  0  0  0  0  0  0  0  0  0  0  0
  -24.7096  -16.6222  146.3577 C   0  0  0  0  0  0  0  0  0  0  0  0
  -25.2589  -16.9410  147.8027 C   0  0  0  0  0  0  0  0  0  0  0  0
  -24.3234  -17.5558  148.6398 C   0  0  0  0  0  0  0  0  0  0  0  0
  -23.7919  -15.5148  144.2100 C   0  0  0  0  0  0  0  0  0  0  0  0
  -24.8968  -14.8817  144.7775 C   0  0  0  0  0  0  0  0  0  0  0  0
  -25.5660  -13.7503  144.1997 C   0  0  0  0  0  0  0  0  0  0  0  0
  -25.3630  -15.3922  145.9797 C   0  0  0  0  0  0  0  0  0  0  0  0
  -26.2033  -12.8149  145.0767 C   0  0  0  0  0  0  0  0  0  0  0  0
  -26.0225  -11.4639  144.9270 C   0  0  0  0  0  0  0  0  0  0  0  0
  -24.7271  -17.7213  150.0491 C   0  0  0  0  0  0  0  0  0  0  0  0
  -25.4621  -10.6643  145.6861 C   0  0  0  0  0  0  0  0  0  0  0  0
  -26.5797  -17.7338  147.7885 C   0  0  0  0  0  0  0  0  0  0  0  0
  -27.6426  -16.5967  147.7996 C   0  0  0  0  0  0  0  0  0  0  0  0
  -28.5079  -16.5319  148.3601 C   0  0  0  0  0  0  0  0  0  0  0  0
  -29.5849  -15.4475  148.2434 C   0  0  0  0  0  0  0  0  0  0  0  0
  -29.3751  -14.5232  147.2339 C   0  0  0  0  0  0  0  0  0  0  0  0
  -28.2534  -14.6834  146.4475 C   0  0  0  0  0  0  0  0  0  0  0  0
  -27.4119  -15.7207  146.6530 C   0  0  0  0  0  0  0  0  0  0  0  0
  -26.2345  -15.6318  145.9732 N   0  0  0  0  0  0  0  0  0  0  0  0
  -30.4216  -13.4884  147.0449 C   0  0  0  0  0  0  0  0  0  0  0  0
  -29.7645  -12.1219  147.0260 C   0  0  0  0  0  0  0  0  0  0  0  0
  -29.2672  -11.6468  146.2654 O   0  0  0  0  0  0  0  0  0  0  0  0
  -29.9438  -11.5090  148.3472 O   0  0  0  0  0  0  0  0  0  0  0  0
  -24.4154  -16.6314  150.9198 C   0  0  0  0  0  0  0  0  0  0  0  0
  -26.8493  -10.8327  143.8479 C   0  0  0  0  0  0  0  0  0  0  0  0
  -27.9019   -9.9245  144.2635 C   0  0  0  0  0  0  0  0  0  0  0  0
  -28.6160   -9.1336  143.3205 C   0  0  0  0  0  0  0  0  0  0  0  0
  -29.0178   -9.6684  142.1431 C   0  0  0  0  0  0  0  0  0  0  0  0
  -30.0098   -9.1409  141.4002 C   0  0  0  0  0  0  0  0  0  0  0  0
  -30.7525   -8.0007  141.9634 C   0  0  0  0  0  0  0  0  0  0  0  0
  -30.4396   -7.3837  143.1730 C   0  0  0  0  0  0  0  0  0  0  0  0
  -29.4506   -7.9950  143.8375 C   0  0  0  0  0  0  0  0  0  0  0  0
  -28.2824  -11.0108  141.4357 Cl  0  0  0  0  0  0  0  0  0  0  0  0
  3  4  1  0
  4  5  2  3
  7  8  1  0
  8 10  1  0
 10 11  2  3
  5 12  1  0
 11 13  1  0
  4 14  1  0
 14 15  1  0
  9 21  1  0
 20 21  1  0
 18 22  1  0
 22 23  1  0
 23 24  2  0
 23 25  1  0
 12 26  1  0
 11 27  1  0
 27 28  1  0
 28 29  1  0
 30 35  1  0
 15 16  2  0
 16 17  1  0
 17 18  2  0
 18 19  1  0
 19 20  2  0
 20 15  1  0
 29 30  2  0
 30 31  1  0
 31 32  2  0
 32 33  1  0
 33 34  2  0
 34 29  1  0
  1  2  2  0
  2  3  1  0
  3  9  2  0
  9  7  1  0
  7  6  2  0
  6  1  1  0
M  END

$$$$
No_1044-/dssg/home/sw_qyf/PocketFlow/Model-Generation-Results/5HT2A_7WC7_rec_A_10.pdb/2024-01-01-03-54-21/
     RDKit          3D

 26 28  0  0  0  0  0  0  0  0999 V2000
  -23.1746  -16.6014  144.8668 C   0  0  0  0  0  0  0  0  0  0  0  0
  -23.7011  -17.0158  145.9774 C   0  0  0  0  0  0  0  0  0  0  0  0
  -24.7096  -16.6222  146.3577 C   0  0  0  0  0  0  0  0  0  0  0  0
  -25.2851  -16.9368  147.7686 C   0  0  0  0  0  0  0  0  0  0  0  0
  -26.5146  -16.4887  148.2680 C   0  0  0  0  0  0  0  0  0  0  0  0
  -23.7626  -15.4639  144.2488 C   0  0  0  0  0  0  0  0  0  0  0  0
  -24.8722  -14.8452  144.8385 C   0  0  0  0  0  0  0  0  0  0  0  0
  -25.3591  -15.3916  145.9904 C   0  0  0  0  0  0  0  0  0  0  0  0
  -27.2315  -15.9129  147.3616 C   0  0  0  0  0  0  0  0  0  0  0  0
  -28.5749  -15.4323  147.7635 C   0  0  0  0  0  0  0  0  0  0  0  0
  -26.7310  -15.0439  146.4071 C   0  0  0  0  0  0  0  0  0  0  0  0
  -29.3616  -14.4222  147.1696 C   0  0  0  0  0  0  0  0  0  0  0  0
  -28.6976  -13.6046  146.2413 C   0  0  0  0  0  0  0  0  0  0  0  0
  -27.3865  -13.8945  145.8255 C   0  0  0  0  0  0  0  0  0  0  0  0
  -24.4331  -17.9306  148.6171 C   0  0  0  0  0  0  0  0  0  0  0  0
  -24.2230  -17.3301  150.0165 C   0  0  0  0  0  0  0  0  0  0  0  0
  -29.3543  -12.3843  145.7092 C   0  0  0  0  0  0  0  0  0  0  0  0
  -28.5947  -11.1038  146.0429 C   0  0  0  0  0  0  0  0  0  0  0  0
  -28.8424  -10.0563  145.0461 C   0  0  0  0  0  0  0  0  0  0  0  0
  -29.0928  -10.5984  143.7466 C   0  0  0  0  0  0  0  0  0  0  0  0
  -28.0730  -10.6706  142.8210 C   0  0  0  0  0  0  0  0  0  0  0  0
  -28.3912  -10.8863  141.4726 C   0  0  0  0  0  0  0  0  0  0  0  0
  -27.8290  -11.6664  140.7097 C   0  0  0  0  0  0  0  0  0  0  0  0
  -27.6194  -11.4800  139.3426 C   0  0  0  0  0  0  0  0  0  0  0  0
  -27.8594  -10.2234  138.8055 C   0  0  0  0  0  0  0  0  0  0  0  0
  -28.3409   -9.1435  139.7260 C   0  0  0  0  0  0  0  0  0  0  0  0
  4 15  1  0
 15 16  1  0
 13 17  1  0
 17 18  1  0
 18 19  1  0
 19 20  1  0
 20 21  1  0
 21 22  2  3
 22 23  1  0
 23 24  2  3
 24 25  1  0
 25 26  2  0
  1  2  2  0
  2  3  1  0
  8  7  1  0
  7  6  2  0
  6  1  1  0
  9 10  1  0
 10 12  2  0
 12 13  1  0
 13 14  2  0
 14 11  1  0
  3  4  2  0
  4  5  1  0
  5  9  2  0
  9 11  1  0
 11  8  2  0
  8  3  1  0
M  END

$$$$
No_1045-/dssg/home/sw_qyf/PocketFlow/Model-Generation-Results/5HT2A_7WC7_rec_A_10.pdb/2024-01-01-03-54-21/
     RDKit          3D

 20 22  0  0  0  0  0  0  0  0999 V2000
  -24.1553  -17.8465  145.7021 C   0  0  0  0  0  0  0  0  0  0  0  0
  -24.2856  -16.6364  145.3494 C   0  0  0  0  0  0  0  0  0  0  0  0
  -25.0033  -15.6772  146.0737 C   0  0  0  0  0  0  0  0  0  0  0  0
  -25.7224  -16.0756  147.0213 C   0  0  0  0  0  0  0  0  0  0  0  0
  -25.4436  -17.2546  147.7755 C   0  0  0  0  0  0  0  0  0  0  0  0
  -24.6852  -18.2947  147.0247 C   0  0  0  0  0  0  0  0  0  0  0  0
  -25.1564  -14.2808  145.4705 C   0  0  0  0  0  0  0  0  0  0  0  0
  -26.0720  -13.7749  145.4138 C   0  0  0  0  0  0  0  0  0  0  0  0
  -26.2530  -12.3855  144.9653 C   0  0  0  0  0  0  0  0  0  0  0  0
  -25.0790  -11.5615  145.1474 C   0  0  0  0  0  0  0  0  0  0  0  0
  -23.8310  -13.4795  145.4739 C   0  0  0  0  0  0  0  0  0  0  0  0
  -23.8902  -12.1188  145.3495 C   0  0  0  0  0  0  0  0  0  0  0  0
  -27.4852  -11.6100  145.6385 C   0  0  0  0  0  0  0  0  0  0  0  0
  -28.3965  -11.0108  144.8143 C   0  0  0  0  0  0  0  0  0  0  0  0
  -29.7095  -10.6465  145.2973 C   0  0  0  0  0  0  0  0  0  0  0  0
  -30.4374   -9.8750  144.5227 N   0  0  0  0  0  0  0  0  0  0  0  0
  -29.9774   -9.3688  143.3523 C   0  0  0  0  0  0  0  0  0  0  0  0
  -28.7389   -9.7495  142.8644 C   0  0  0  0  0  0  0  0  0  0  0  0
  -27.9149  -10.5020  143.6077 C   0  0  0  0  0  0  0  0  0  0  0  0
  -30.1503  -11.0731  146.5022 N   0  0  0  0  0  0  0  0  0  0  0  0
  3  7  1  0
  9 13  1  0
 13 14  1  0
 15 20  1  0
  7  8  2  0
  8  9  1  0
  9 10  2  0
 10 12  1  0
 12 11  2  0
 11  7  1  0
  1  2  2  0
  2  3  1  0
  3  4  2  0
  4  5  1  0
  5  6  2  0
  6  1  1  0
 14 15  2  0
 15 16  1  0
 16 17  2  0
 17 18  1  0
 18 19  2  0
 19 14  1  0
M  END

$$$$
No_1046-/dssg/home/sw_qyf/PocketFlow/Model-Generation-Results/5HT2A_7WC7_rec_A_10.pdb/2024-01-01-03-54-21/
     RDKit          3D

 16 16  0  0  0  0  0  0  0  0999 V2000
  -24.1553  -17.8465  145.7021 C   0  0  0  0  0  0  0  0  0  0  0  0
  -24.6364  -17.2931  146.7091 C   0  0  0  0  0  0  0  0  0  0  0  0
  -25.8608  -16.5591  146.5933 C   0  0  0  0  0  0  0  0  0  0  0  0
  -25.9533  -15.5604  145.6681 C   0  0  0  0  0  0  0  0  0  0  0  0
  -27.0179  -14.6632  145.5500 C   0  0  0  0  0  0  0  0  0  0  0  0
  -24.0512  -16.8635  144.5478 C   0  0  0  0  0  0  0  0  0  0  0  0
  -24.5326  -15.5693  144.8982 C   0  0  0  0  0  0  0  0  0  0  0  0
  -26.8900  -13.4607  146.1795 C   0  0  0  0  0  0  0  0  0  0  0  0
  -26.9550  -12.3190  145.5714 C   0  0  0  0  0  0  0  0  0  0  0  0
  -25.9026  -11.3647  145.4233 C   0  0  0  0  0  0  0  0  0  0  0  0
  -28.2485  -11.7984  145.0870 C   0  0  0  0  0  0  0  0  0  0  0  0
  -29.4203  -11.7484  145.8546 C   0  0  0  0  0  0  0  0  0  0  0  0
  -29.9837  -10.9991  146.3509 N   0  0  0  0  0  0  0  0  0  0  0  0
  -24.7454  -11.8379  145.9315 F   0  0  0  0  0  0  0  0  0  0  0  0
  -26.0336  -10.2043  146.2391 F   0  0  0  0  0  0  0  0  0  0  0  0
  -25.6907  -10.8810  144.0526 C   0  0  0  0  0  0  0  0  0  0  0  0
  1  2  1  0
  2  3  1  0
  3  4  1  0
  4  5  2  3
  1  6  1  0
  4  7  1  0
  6  7  1  0
  5  8  1  0
  8  9  1  0
  9 10  1  0
  9 11  1  0
 11 12  2  0
 12 13  2  0
 10 14  1  0
 10 15  1  0
 10 16  1  0
M  END

$$$$
No_1047-/dssg/home/sw_qyf/PocketFlow/Model-Generation-Results/5HT2A_7WC7_rec_A_10.pdb/2024-01-01-03-54-21/
     RDKit          3D

 30 34  0  0  0  0  0  0  0  0999 V2000
  -24.1553  -17.8465  145.7021 C   0  0  0  0  0  0  0  0  0  0  0  0
  -24.2856  -16.6364  145.3494 C   0  0  0  0  0  0  0  0  0  0  0  0
  -23.7824  -15.9602  144.3553 C   0  0  0  0  0  0  0  0  0  0  0  0
  -24.0538  -14.4894  144.2905 C   0  0  0  0  0  0  0  0  0  0  0  0
  -23.0052  -13.6036  144.7731 C   0  0  0  0  0  0  0  0  0  0  0  0
  -24.8582  -18.5352  146.7498 C   0  0  0  0  0  0  0  0  0  0  0  0
  -25.7556  -17.7126  147.4898 C   0  0  0  0  0  0  0  0  0  0  0  0
  -26.0336  -16.3968  147.1586 C   0  0  0  0  0  0  0  0  0  0  0  0
  -25.2686  -15.7836  146.0992 C   0  0  0  0  0  0  0  0  0  0  0  0
  -23.4394  -12.2823  145.3087 C   0  0  0  0  0  0  0  0  0  0  0  0
  -24.7828  -11.9104  145.4076 C   0  0  0  0  0  0  0  0  0  0  0  0
  -25.1632  -10.7162  146.1023 C   0  0  0  0  0  0  0  0  0  0  0  0
  -26.6829  -10.5149  146.0828 C   0  0  0  0  0  0  0  0  0  0  0  0
  -27.5483  -11.2773  145.2919 C   0  0  0  0  0  0  0  0  0  0  0  0
  -27.0123  -12.3760  144.5957 C   0  0  0  0  0  0  0  0  0  0  0  0
  -25.6843  -12.6942  144.6225 C   0  0  0  0  0  0  0  0  0  0  0  0
  -25.3612  -13.9898  144.2644 C   0  0  0  0  0  0  0  0  0  0  0  0
  -28.9485  -10.8299  145.2346 C   0  0  0  0  0  0  0  0  0  0  0  0
  -29.4613  -10.1139  144.1329 C   0  0  0  0  0  0  0  0  0  0  0  0
  -30.6838   -9.3991  144.2640 C   0  0  0  0  0  0  0  0  0  0  0  0
  -28.9039  -10.1409  142.8922 C   0  0  0  0  0  0  0  0  0  0  0  0
  -28.5085  -11.2552  142.2251 C   0  0  0  0  0  0  0  0  0  0  0  0
  -28.0841  -11.1690  140.8799 C   0  0  0  0  0  0  0  0  0  0  0  0
  -28.0616   -9.9134  140.2267 C   0  0  0  0  0  0  0  0  0  0  0  0
  -27.5819   -9.7733  138.9240 C   0  0  0  0  0  0  0  0  0  0  0  0
  -30.9312   -8.1435  143.5539 C   0  0  0  0  0  0  0  0  0  0  0  0
  -30.2857   -8.0996  142.2726 C   0  0  0  0  0  0  0  0  0  0  0  0
  -29.2984   -9.0756  141.9439 C   0  0  0  0  0  0  0  0  0  0  0  0
  -28.8102   -8.8278  140.8149 C   0  0  0  0  0  0  0  0  0  0  0  0
  -28.8645   -7.7498  140.1651 F   0  0  0  0  0  0  0  0  0  0  0  0
  2  3  1  0
  3  4  1  0
 14 18  1  0
 24 25  1  0
 29 30  1  0
 18 19  1  0
  1  2  2  0
  2  9  1  0
  9  8  2  0
  8  7  1  0
  7  6  2  0
  6  1  1  0
 21 22  2  0
 22 23  1  0
 23 24  2  0
 24 29  1  0
 29 28  2  0
 11 12  1  0
 12 13  2  0
 13 14  1  0
 14 15  2  0
 15 16  1  0
  4  5  2  0
  5 10  1  0
 10 11  2  0
 11 16  1  0
 16 17  2  0
 17  4  1  0
 19 20  2  0
 20 26  1  0
 26 27  2  0
 27 28  1  0
 28 21  1  0
 21 19  1  0
M  END

$$$$
No_1048-/dssg/home/sw_qyf/PocketFlow/Model-Generation-Results/5HT2A_7WC7_rec_A_10.pdb/2024-01-01-03-54-21/
     RDKit          3D

  9  9  0  0  0  0  0  0  0  0999 V2000
  -23.1746  -16.6014  144.8668 C   0  0  0  0  0  0  0  0  0  0  0  0
  -23.7011  -17.0158  145.9774 C   0  0  0  0  0  0  0  0  0  0  0  0
  -24.2134  -16.0722  146.8877 C   0  0  0  0  0  0  0  0  0  0  0  0
  -23.6191  -15.3702  144.4057 C   0  0  0  0  0  0  0  0  0  0  0  0
  -24.2909  -14.3938  145.2254 C   0  0  0  0  0  0  0  0  0  0  0  0
  -24.6051  -14.7662  146.4983 C   0  0  0  0  0  0  0  0  0  0  0  0
  -24.5036  -13.1488  144.8687 F   0  0  0  0  0  0  0  0  0  0  0  0
  -23.4438  -18.3089  146.5018 N   0  0  0  0  0  0  0  0  0  0  0  0
  -24.0489  -19.2727  146.2956 O   0  0  0  0  0  0  0  0  0  0  0  0
  5  7  1  0
  2  8  1  0
  8  9  2  0
  1  2  2  0
  2  3  1  0
  3  6  2  0
  6  5  1  0
  5  4  2  0
  4  1  1  0
M  END

$$$$
No_1049-/dssg/home/sw_qyf/PocketFlow/Model-Generation-Results/5HT2A_7WC7_rec_A_10.pdb/2024-01-01-03-54-21/
     RDKit          3D

 13 13  0  0  0  0  0  0  0  0999 V2000
  -24.1553  -17.8465  145.7021 C   0  0  0  0  0  0  0  0  0  0  0  0
  -24.2855  -16.6364  145.3494 C   0  0  0  0  0  0  0  0  0  0  0  0
  -24.7838  -15.7223  145.8474 C   0  0  0  0  0  0  0  0  0  0  0  0
  -25.6063  -15.9757  147.0425 C   0  0  0  0  0  0  0  0  0  0  0  0
  -24.8561  -18.2319  146.8940 C   0  0  0  0  0  0  0  0  0  0  0  0
  -25.5371  -17.2345  147.6142 C   0  0  0  0  0  0  0  0  0  0  0  0
  -24.9595  -14.2204  145.6077 C   0  0  0  0  0  0  0  0  0  0  0  0
  -26.0153  -13.5396  145.5812 C   0  0  0  0  0  0  0  0  0  0  0  0
  -26.0893  -12.1479  145.3798 C   0  0  0  0  0  0  0  0  0  0  0  0
  -27.2738  -11.3140  145.4046 C   0  0  0  0  0  0  0  0  0  0  0  0
  -28.4554  -11.9577  145.7882 C   0  0  0  0  0  0  0  0  0  0  0  0
  -29.6875  -11.2390  145.8724 C   0  0  0  0  0  0  0  0  0  0  0  0
  -29.8373  -10.1608  145.0821 O   0  0  0  0  0  0  0  0  0  0  0  0
  3  7  1  0
  7  8  2  3
  8  9  1  0
  9 10  2  3
 10 11  1  0
 11 12  1  0
 12 13  1  0
  1  2  2  0
  2  3  1  0
  3  4  2  0
  4  6  1  0
  6  5  2  0
  5  1  1  0
M  END

$$$$
No_1050-/dssg/home/sw_qyf/PocketFlow/Model-Generation-Results/5HT2A_7WC7_rec_A_10.pdb/2024-01-01-03-54-21/
     RDKit          3D

 35 37  0  0  0  0  0  0  0  0999 V2000
  -24.1553  -17.8465  145.7021 C   0  0  0  0  0  0  0  0  0  0  0  0
  -24.2856  -16.6364  145.3494 C   0  0  0  0  0  0  0  0  0  0  0  0
  -24.5733  -15.7651  145.9979 C   0  0  0  0  0  0  0  0  0  0  0  0
  -24.7088  -14.2765  145.5906 C   0  0  0  0  0  0  0  0  0  0  0  0
  -24.0081  -14.0223  144.3771 C   0  0  0  0  0  0  0  0  0  0  0  0
  -24.5461  -18.2167  147.0077 C   0  0  0  0  0  0  0  0  0  0  0  0
  -24.9798  -17.2136  147.8740 C   0  0  0  0  0  0  0  0  0  0  0  0
  -24.9934  -15.8410  147.4193 C   0  0  0  0  0  0  0  0  0  0  0  0
  -25.3884  -13.3088  146.3470 C   0  0  0  0  0  0  0  0  0  0  0  0
  -25.4028  -11.9738  145.9131 C   0  0  0  0  0  0  0  0  0  0  0  0
  -26.4613  -11.6245  145.2997 C   0  0  0  0  0  0  0  0  0  0  0  0
  -27.7110  -12.0443  145.6265 C   0  0  0  0  0  0  0  0  0  0  0  0
  -28.3205  -12.1130  146.4644 C   0  0  0  0  0  0  0  0  0  0  0  0
  -29.7377  -12.5824  146.6946 C   0  0  0  0  0  0  0  0  0  0  0  0
  -30.1313  -13.1514  147.8655 C   0  0  0  0  0  0  0  0  0  0  0  0
  -30.2152  -12.5797  148.7919 N   0  0  0  0  0  0  0  0  0  0  0  0
  -30.4221  -14.4212  147.7731 O   0  0  0  0  0  0  0  0  0  0  0  0
  -26.2710  -10.4817  144.5735 F   0  0  0  0  0  0  0  0  0  0  0  0
  -25.2853  -17.5330  149.3490 C   0  0  0  0  0  0  0  0  0  0  0  0
  -26.5159  -17.5934  149.8443 N   0  0  0  0  0  0  0  0  0  0  0  0
  -26.5618  -17.8874  151.1758 C   0  0  0  0  0  0  0  0  0  0  0  0
  -24.2214  -17.6071  150.2628 C   0  0  0  0  0  0  0  0  0  0  0  0
  -22.8684  -17.4464  149.8551 N   0  0  0  0  0  0  0  0  0  0  0  0
  -25.5505  -18.0783  151.9518 N   0  0  0  0  0  0  0  0  0  0  0  0
  -24.4432  -17.8918  151.6178 C   0  0  0  0  0  0  0  0  0  0  0  0
  -23.8437  -16.4301  144.0065 O   0  0  0  0  0  0  0  0  0  0  0  0
  -24.0422  -12.7594  143.9208 O   0  0  0  0  0  0  0  0  0  0  0  0
  -23.7790  -15.0782  143.6384 C   0  0  0  0  0  0  0  0  0  0  0  0
  -27.9014  -18.1826  151.6428 N   0  0  0  0  0  0  0  0  0  0  0  0
  -23.7790  -18.8915  144.9726 F   0  0  0  0  0  0  0  0  0  0  0  0
  -28.3884  -12.2448  144.2431 C   0  0  0  0  0  0  0  0  0  0  0  0
  -27.5111  -12.3100  143.1470 C   0  0  0  0  0  0  0  0  0  0  0  0
  -28.0272  -11.9000  141.9102 C   0  0  0  0  0  0  0  0  0  0  0  0
  -27.5107  -12.4713  140.6785 C   0  0  0  0  0  0  0  0  0  0  0  0
  -27.8139  -11.8414  139.4660 C   0  0  0  0  0  0  0  0  0  0  0  0
  3  4  1  0
  4  5  2  0
  4  9  1  0
  9 10  1  0
 10 11  1  0
 11 12  1  0
 12 13  2  3
 13 14  1  0
 14 15  1  0
 15 16  1  0
 15 17  2  0
 11 18  1  0
  7 19  1  0
 22 23  1  0
  2 26  1  0
  5 27  1  0
  5 28  1  0
 26 28  1  0
 21 29  1  0
  1 30  1  0
 12 31  1  0
 31 32  1  0
 32 33  2  3
 33 34  1  0
 34 35  2  0
 19 20  2  0
 20 21  1  0
 21 24  2  0
 24 25  1  0
 25 22  2  0
 22 19  1  0
  1  2  2  0
  2  3  1  0
  3  8  2  0
  8  7  1  0
  7  6  2  0
  6  1  1  0
M  END

$$$$
No_1051-/dssg/home/sw_qyf/PocketFlow/Model-Generation-Results/5HT2A_7WC7_rec_A_10.pdb/2024-01-01-03-54-21/
     RDKit          3D

 35 38  0  0  0  0  0  0  0  0999 V2000
  -23.1746  -16.6014  144.8668 C   0  0  0  0  0  0  0  0  0  0  0  0
  -23.7011  -17.0158  145.9774 C   0  0  0  0  0  0  0  0  0  0  0  0
  -24.2134  -16.0722  146.8877 C   0  0  0  0  0  0  0  0  0  0  0  0
  -23.3742  -15.2706  144.3922 C   0  0  0  0  0  0  0  0  0  0  0  0
  -24.0638  -14.3065  145.2723 C   0  0  0  0  0  0  0  0  0  0  0  0
  -24.4769  -14.7246  146.5384 C   0  0  0  0  0  0  0  0  0  0  0  0
  -24.2073  -12.8864  144.8852 C   0  0  0  0  0  0  0  0  0  0  0  0
  -25.4114  -12.2738  145.4521 C   0  0  0  0  0  0  0  0  0  0  0  0
  -26.1234  -12.9140  146.2635 C   0  0  0  0  0  0  0  0  0  0  0  0
  -25.6415  -14.1295  147.0607 C   0  0  0  0  0  0  0  0  0  0  0  0
  -25.7340  -10.9379  144.9950 C   0  0  0  0  0  0  0  0  0  0  0  0
  -26.8528  -10.7540  144.0362 C   0  0  0  0  0  0  0  0  0  0  0  0
  -27.7996   -9.7391  144.3203 C   0  0  0  0  0  0  0  0  0  0  0  0
  -28.8355   -9.4517  143.3665 C   0  0  0  0  0  0  0  0  0  0  0  0
  -28.6525   -9.8346  142.0862 C   0  0  0  0  0  0  0  0  0  0  0  0
  -27.6487  -10.8324  141.8084 C   0  0  0  0  0  0  0  0  0  0  0  0
  -26.7479  -11.2021  142.7858 C   0  0  0  0  0  0  0  0  0  0  0  0
  -27.6549  -11.3486  140.4131 C   0  0  0  0  0  0  0  0  0  0  0  0
  -27.8909  -12.7170  140.1521 C   0  0  0  0  0  0  0  0  0  0  0  0
  -27.4283  -10.4774  139.3250 C   0  0  0  0  0  0  0  0  0  0  0  0
  -27.7695  -10.8979  138.0455 C   0  0  0  0  0  0  0  0  0  0  0  0
  -23.4374  -18.4068  146.4644 C   0  0  0  0  0  0  0  0  0  0  0  0
  -23.8651  -19.1253  145.6354 F   0  0  0  0  0  0  0  0  0  0  0  0
  -24.2122  -18.5736  147.6410 F   0  0  0  0  0  0  0  0  0  0  0  0
  -22.2089  -18.5695  146.8946 F   0  0  0  0  0  0  0  0  0  0  0  0
  -28.0383  -13.4995  141.2800 N   0  0  0  0  0  0  0  0  0  0  0  0
  -27.6811  -12.3000  137.7552 C   0  0  0  0  0  0  0  0  0  0  0  0
  -27.9159  -13.0369  138.8393 C   0  0  0  0  0  0  0  0  0  0  0  0
  -29.9019   -8.5037  143.7256 C   0  0  0  0  0  0  0  0  0  0  0  0
  -31.1536   -8.6926  143.0350 C   0  0  0  0  0  0  0  0  0  0  0  0
  -31.4565   -7.7634  142.2220 O   0  0  0  0  0  0  0  0  0  0  0  0
  -31.8960   -9.6391  143.1636 O   0  0  0  0  0  0  0  0  0  0  0  0
  -27.2936  -12.4114  146.7963 O   0  0  0  0  0  0  0  0  0  0  0  0
  -28.4089  -13.1539  146.8997 C   0  0  0  0  0  0  0  0  0  0  0  0
  -29.5907  -12.4229  147.3482 C   0  0  0  0  0  0  0  0  0  0  0  0
  8 11  1  0
 11 12  1  0
 16 18  1  0
  2 22  1  0
 22 23  1  0
 22 24  1  0
 22 25  1  0
 19 26  1  0
 14 29  1  0
 29 30  1  0
 30 31  2  0
 30 32  1  0
  9 33  1  0
 33 34  1  0
 34 35  2  0
 12 13  2  0
 13 14  1  0
 14 15  2  0
 15 16  1  0
 16 17  2  0
 17 12  1  0
  6 10  1  0
 10  9  2  0
  9  8  1  0
  8  7  2  0
  7  5  1  0
  1  2  2  0
  2  3  1  0
  3  6  2  0
  6  5  1  0
  5  4  2  0
  4  1  1  0
 18 19  2  0
 19 28  1  0
 28 27  2  0
 27 21  1  0
 21 20  2  0
 20 18  1  0
M  END

$$$$
No_1052-/dssg/home/sw_qyf/PocketFlow/Model-Generation-Results/5HT2A_7WC7_rec_A_10.pdb/2024-01-01-03-54-21/
     RDKit          3D

 35 39  0  0  0  0  0  0  0  0999 V2000
  -23.1746  -16.6014  144.8668 C   0  0  0  0  0  0  0  0  0  0  0  0
  -23.8963  -15.5346  144.7885 C   0  0  0  0  0  0  0  0  0  0  0  0
  -24.5755  -15.0383  145.9043 C   0  0  0  0  0  0  0  0  0  0  0  0
  -25.6726  -15.0536  146.1073 C   0  0  0  0  0  0  0  0  0  0  0  0
  -23.3810  -17.3233  146.1036 C   0  0  0  0  0  0  0  0  0  0  0  0
  -26.1029  -15.6733  147.4434 C   0  0  0  0  0  0  0  0  0  0  0  0
  -25.1837  -16.4884  148.1572 C   0  0  0  0  0  0  0  0  0  0  0  0
  -23.8722  -17.2166  147.1581 C   0  0  0  0  0  0  0  0  0  0  0  0
  -26.5907  -13.9211  145.7649 C   0  0  0  0  0  0  0  0  0  0  0  0
  -27.7519  -13.6729  146.4230 C   0  0  0  0  0  0  0  0  0  0  0  0
  -28.5071  -12.4733  146.1454 C   0  0  0  0  0  0  0  0  0  0  0  0
  -29.6239  -12.0280  146.9791 C   0  0  0  0  0  0  0  0  0  0  0  0
  -30.0283  -12.8703  148.0724 C   0  0  0  0  0  0  0  0  0  0  0  0
  -29.3536  -14.0916  148.2771 C   0  0  0  0  0  0  0  0  0  0  0  0
  -28.2274  -14.4568  147.5451 C   0  0  0  0  0  0  0  0  0  0  0  0
  -27.4096  -15.4694  148.0599 C   0  0  0  0  0  0  0  0  0  0  0  0
  -30.3554  -10.9089  146.6163 N   0  0  0  0  0  0  0  0  0  0  0  0
  -28.1437  -11.5929  145.0695 C   0  0  0  0  0  0  0  0  0  0  0  0
  -29.0131  -10.7157  144.4859 C   0  0  0  0  0  0  0  0  0  0  0  0
  -30.0961  -10.2357  145.4936 C   0  0  0  0  0  0  0  0  0  0  0  0
  -28.8542   -9.9180  143.3885 C   0  0  0  0  0  0  0  0  0  0  0  0
  -29.3723   -8.7086  143.1236 C   0  0  0  0  0  0  0  0  0  0  0  0
  -29.5293   -8.1481  141.8123 C   0  0  0  0  0  0  0  0  0  0  0  0
  -30.2505   -6.9444  141.5491 C   0  0  0  0  0  0  0  0  0  0  0  0
  -28.0804  -10.5257  142.2955 C   0  0  0  0  0  0  0  0  0  0  0  0
  -28.8997   -8.8738  140.7150 C   0  0  0  0  0  0  0  0  0  0  0  0
  -28.9178   -8.3840  139.3779 C   0  0  0  0  0  0  0  0  0  0  0  0
  -28.1613  -10.0893  141.0221 C   0  0  0  0  0  0  0  0  0  0  0  0
  -29.6800   -8.7280  138.4686 C   0  0  0  0  0  0  0  0  0  0  0  0
  -25.1640  -17.0616  149.2473 F   0  0  0  0  0  0  0  0  0  0  0  0
  -23.9062  -14.8002  143.6999 O   0  0  0  0  0  0  0  0  0  0  0  0
  -27.4571  -10.7325  139.9648 C   0  0  0  0  0  0  0  0  0  0  0  0
  -27.6289  -12.1844  139.8927 C   0  0  0  0  0  0  0  0  0  0  0  0
  -28.2114  -12.7735  140.7717 O   0  0  0  0  0  0  0  0  0  0  0  0
  -27.1319  -12.7650  138.9032 O   0  0  0  0  0  0  0  0  0  0  0  0
  1  2  1  0
  2  3  1  0
  1  5  1  0
  6  7  1  0
  5  8  1  0
  7  8  1  0
 19 21  1  0
 23 24  1  0
 26 27  1  0
 27 29  1  0
  7 30  1  0
  2 31  2  0
 28 32  1  0
 32 33  1  0
 33 34  2  0
 33 35  1  0
  3  4  1  0
 21 22  2  0
 22 23  1  0
 23 26  2  0
 26 28  1  0
 28 25  2  0
 25 21  1  0
 12 17  2  0
 17 20  1  0
 20 19  2  0
 19 18  1  0
 18 11  2  0
 10 11  1  0
 11 12  1  0
 12 13  1  0
 13 14  2  0
 14 15  1  0
  4  6  2  0
  6 16  1  0
 16 15  2  0
 15 10  1  0
 10  9  2  0
  9  4  1  0
M  END

$$$$
No_1053-/dssg/home/sw_qyf/PocketFlow/Model-Generation-Results/5HT2A_7WC7_rec_A_10.pdb/2024-01-01-03-54-21/
     RDKit          3D

 18 20  0  0  0  0  0  0  0  0999 V2000
  -24.1553  -17.8465  145.7021 C   0  0  0  0  0  0  0  0  0  0  0  0
  -23.9795  -18.4462  146.7426 C   0  0  0  0  0  0  0  0  0  0  0  0
  -24.3577  -16.4380  145.7329 C   0  0  0  0  0  0  0  0  0  0  0  0
  -24.4745  -15.6012  144.5587 C   0  0  0  0  0  0  0  0  0  0  0  0
  -24.5845  -14.1656  144.8311 C   0  0  0  0  0  0  0  0  0  0  0  0
  -24.6908  -13.6330  146.1427 C   0  0  0  0  0  0  0  0  0  0  0  0
  -24.6854  -14.5896  147.2980 C   0  0  0  0  0  0  0  0  0  0  0  0
  -24.5188  -15.8933  147.1052 C   0  0  0  0  0  0  0  0  0  0  0  0
  -24.0589  -18.0012  148.0781 C   0  0  0  0  0  0  0  0  0  0  0  0
  -24.3315  -16.7118  148.2982 C   0  0  0  0  0  0  0  0  0  0  0  0
  -25.3051  -12.2912  146.3242 C   0  0  0  0  0  0  0  0  0  0  0  0
  -26.3574  -11.8027  145.4966 C   0  0  0  0  0  0  0  0  0  0  0  0
  -27.5964  -12.1767  145.8581 C   0  0  0  0  0  0  0  0  0  0  0  0
  -27.9361  -13.3707  146.4727 C   0  0  0  0  0  0  0  0  0  0  0  0
  -29.2525  -13.6557  146.8272 C   0  0  0  0  0  0  0  0  0  0  0  0
  -30.2134  -12.5767  146.6768 C   0  0  0  0  0  0  0  0  0  0  0  0
  -29.8428  -11.3326  146.1695 C   0  0  0  0  0  0  0  0  0  0  0  0
  -28.5029  -11.1026  145.8531 C   0  0  0  0  0  0  0  0  0  0  0  0
  3  4  1  0
  4  5  1  0
  5  6  1  0
  6  7  1  0
  7  8  1  0
  6 11  1  0
 11 12  1  0
 12 13  1  0
  1  2  2  0
  2  9  1  0
  9 10  2  0
 10  8  1  0
  8  3  2  0
  3  1  1  0
 13 14  2  0
 14 15  1  0
 15 16  2  0
 16 17  1  0
 17 18  2  0
 18 13  1  0
M  END

$$$$
No_1054-/dssg/home/sw_qyf/PocketFlow/Model-Generation-Results/5HT2A_7WC7_rec_A_10.pdb/2024-01-01-03-54-21/
     RDKit          3D

 35 37  0  0  0  0  0  0  0  0999 V2000
  -24.1553  -17.8465  145.7021 C   0  0  0  0  0  0  0  0  0  0  0  0
  -23.9795  -18.4462  146.7426 C   0  0  0  0  0  0  0  0  0  0  0  0
  -25.1593  -16.8262  145.6925 C   0  0  0  0  0  0  0  0  0  0  0  0
  -24.9465  -15.5961  144.9952 C   0  0  0  0  0  0  0  0  0  0  0  0
  -25.8223  -14.4752  145.0170 C   0  0  0  0  0  0  0  0  0  0  0  0
  -26.5395  -14.2060  146.1042 C   0  0  0  0  0  0  0  0  0  0  0  0
  -27.0405  -15.4293  146.8111 C   0  0  0  0  0  0  0  0  0  0  0  0
  -26.0581  -16.5745  146.8608 C   0  0  0  0  0  0  0  0  0  0  0  0
  -27.6411  -13.1401  146.0019 C   0  0  0  0  0  0  0  0  0  0  0  0
  -28.5243  -12.7706  146.9543 C   0  0  0  0  0  0  0  0  0  0  0  0
  -29.4289  -11.6899  146.8940 C   0  0  0  0  0  0  0  0  0  0  0  0
  -29.4468  -10.9079  145.7282 C   0  0  0  0  0  0  0  0  0  0  0  0
  -28.4437  -11.1213  144.8083 C   0  0  0  0  0  0  0  0  0  0  0  0
  -27.5415  -12.2051  144.9194 C   0  0  0  0  0  0  0  0  0  0  0  0
  -22.4855  -18.3093  147.2248 C   0  0  0  0  0  0  0  0  0  0  0  0
  -28.3483  -10.2411  143.6128 C   0  0  0  0  0  0  0  0  0  0  0  0
  -27.9112  -10.6561  142.5620 N   0  0  0  0  0  0  0  0  0  0  0  0
  -28.6534  -10.7980  141.4154 C   0  0  0  0  0  0  0  0  0  0  0  0
  -28.0640  -11.5937  140.3614 C   0  0  0  0  0  0  0  0  0  0  0  0
  -28.4051  -11.5847  139.0426 C   0  0  0  0  0  0  0  0  0  0  0  0
  -27.6176  -12.4495  138.2354 C   0  0  0  0  0  0  0  0  0  0  0  0
  -26.2716  -12.0779  138.4909 C   0  0  0  0  0  0  0  0  0  0  0  0
  -25.7599  -12.5458  139.2117 N   0  0  0  0  0  0  0  0  0  0  0  0
  -26.6933  -12.1551  140.7360 C   0  0  0  0  0  0  0  0  0  0  0  0
  -29.7858  -10.4218  141.3383 O   0  0  0  0  0  0  0  0  0  0  0  0
  -30.3210   -9.9077  145.7020 O   0  0  0  0  0  0  0  0  0  0  0  0
  -23.6034  -15.5045  143.8976 Cl  0  0  0  0  0  0  0  0  0  0  0  0
  -30.3739  -11.6213  147.8964 O   0  0  0  0  0  0  0  0  0  0  0  0
  -30.3309  -12.4401  148.9024 C   0  0  0  0  0  0  0  0  0  0  0  0
  -30.6860  -13.7909  148.5086 C   0  0  0  0  0  0  0  0  0  0  0  0
  -30.7103  -14.2005  147.4535 O   0  0  0  0  0  0  0  0  0  0  0  0
  -31.0370  -14.5703  149.6418 N   0  0  0  0  0  0  0  0  0  0  0  0
  -30.6519  -16.0073  149.6869 C   0  0  0  0  0  0  0  0  0  0  0  0
  -29.2946  -16.2411  149.2132 C   0  0  0  0  0  0  0  0  0  0  0  0
  -28.7490  -17.5067  149.4764 C   0  0  0  0  0  0  0  0  0  0  0  0
  1  2  1  0
  1  3  1  0
  6  9  1  0
  2 15  1  0
 13 16  1  0
 16 17  1  0
 17 18  1  0
 18 19  1  0
 18 25  2  0
 12 26  1  0
  4 27  1  0
 11 28  1  0
 28 29  1  0
 29 30  1  0
 30 31  1  0
 30 32  1  0
 32 33  1  0
 33 34  1  0
 34 35  2  0
  3  4  2  0
  4  5  1  0
  5  6  2  0
  6  7  1  0
  7  8  2  0
  8  3  1  0
  9 10  2  0
 10 11  1  0
 11 12  2  0
 12 13  1  0
 13 14  2  0
 14  9  1  0
 19 20  2  0
 20 21  1  0
 21 22  2  0
 22 23  1  0
 23 24  2  0
 24 19  1  0
M  END

$$$$
No_1055-/dssg/home/sw_qyf/PocketFlow/Model-Generation-Results/5HT2A_7WC7_rec_A_10.pdb/2024-01-01-03-54-21/
     RDKit          3D

 32 35  0  0  0  0  0  0  0  0999 V2000
  -24.1553  -17.8465  145.7021 C   0  0  0  0  0  0  0  0  0  0  0  0
  -23.9795  -18.4462  146.7426 C   0  0  0  0  0  0  0  0  0  0  0  0
  -25.1196  -16.8106  145.6409 C   0  0  0  0  0  0  0  0  0  0  0  0
  -25.9236  -16.5070  146.7422 C   0  0  0  0  0  0  0  0  0  0  0  0
  -25.6627  -17.1841  147.9274 C   0  0  0  0  0  0  0  0  0  0  0  0
  -24.6813  -18.1540  148.0079 C   0  0  0  0  0  0  0  0  0  0  0  0
  -26.9716  -15.4553  146.6645 C   0  0  0  0  0  0  0  0  0  0  0  0
  -28.1968  -15.6101  147.2311 C   0  0  0  0  0  0  0  0  0  0  0  0
  -29.1733  -14.6256  147.1740 C   0  0  0  0  0  0  0  0  0  0  0  0
  -28.9088  -13.3960  146.5951 C   0  0  0  0  0  0  0  0  0  0  0  0
  -27.6037  -13.1378  146.0240 C   0  0  0  0  0  0  0  0  0  0  0  0
  -26.7280  -14.0859  146.0349 C   0  0  0  0  0  0  0  0  0  0  0  0
  -29.9363  -12.2633  146.6309 C   0  0  0  0  0  0  0  0  0  0  0  0
  -30.6543  -12.0711  147.6084 O   0  0  0  0  0  0  0  0  0  0  0  0
  -30.0524  -11.5043  145.5254 O   0  0  0  0  0  0  0  0  0  0  0  0
  -25.1515  -15.9067  144.7011 F   0  0  0  0  0  0  0  0  0  0  0  0
  -28.8998  -11.2278  144.7915 C   0  0  0  0  0  0  0  0  0  0  0  0
  -29.0029  -10.1729  143.7944 C   0  0  0  0  0  0  0  0  0  0  0  0
  -28.0301  -10.0784  142.8565 C   0  0  0  0  0  0  0  0  0  0  0  0
  -27.6927  -11.8919  144.7931 C   0  0  0  0  0  0  0  0  0  0  0  0
  -30.1097   -9.2365  143.7843 C   0  0  0  0  0  0  0  0  0  0  0  0
  -30.2380   -8.2307  142.8987 C   0  0  0  0  0  0  0  0  0  0  0  0
  -29.3044   -8.1936  141.8190 C   0  0  0  0  0  0  0  0  0  0  0  0
  -29.4646   -7.2959  140.7200 C   0  0  0  0  0  0  0  0  0  0  0  0
  -28.2951   -9.3019  141.7814 C   0  0  0  0  0  0  0  0  0  0  0  0
  -29.0050   -7.5486  139.5258 N   0  0  0  0  0  0  0  0  0  0  0  0
  -29.5181   -8.4259  138.6691 C   0  0  0  0  0  0  0  0  0  0  0  0
  -28.7191   -8.6955  137.5251 C   0  0  0  0  0  0  0  0  0  0  0  0
  -31.3608   -7.3081  142.9554 C   0  0  0  0  0  0  0  0  0  0  0  0
  -23.4556  -18.0156  144.5579 O   0  0  0  0  0  0  0  0  0  0  0  0
  -28.8641   -9.7750  136.9337 O   0  0  0  0  0  0  0  0  0  0  0  0
  -27.7667   -7.8570  137.2455 O   0  0  0  0  0  0  0  0  0  0  0  0
  4  7  1  0
 10 13  1  0
 13 14  2  0
 13 15  1  0
  3 16  1  0
 15 17  1  0
 17 18  1  0
 11 20  1  0
 17 20  1  0
 23 24  1  0
 24 26  1  0
 26 27  1  0
 27 28  1  0
 22 29  1  0
  1 30  1  0
 28 31  1  0
 28 32  2  0
 18 19  2  0
 19 25  1  0
 25 23  2  0
 23 22  1  0
 22 21  2  0
 21 18  1  0
  1  2  2  0
  2  6  1  0
  6  5  2  0
  5  4  1  0
  4  3  2  0
  3  1  1  0
  7  8  2  0
  8  9  1  0
  9 10  2  0
 10 11  1  0
 11 12  2  0
 12  7  1  0
M  END

$$$$
No_1056-/dssg/home/sw_qyf/PocketFlow/Model-Generation-Results/5HT2A_7WC7_rec_A_10.pdb/2024-01-01-03-54-21/
     RDKit          3D

 30 32  0  0  0  0  0  0  0  0999 V2000
  -24.1553  -17.8465  145.7021 C   0  0  0  0  0  0  0  0  0  0  0  0
  -24.6364  -17.2931  146.7091 C   0  0  0  0  0  0  0  0  0  0  0  0
  -24.0780  -17.2921  147.9389 C   0  0  0  0  0  0  0  0  0  0  0  0
  -22.7158  -17.6979  148.0096 C   0  0  0  0  0  0  0  0  0  0  0  0
  -22.1536  -18.1706  146.8775 N   0  0  0  0  0  0  0  0  0  0  0  0
  -22.7983  -18.2156  145.7533 C   0  0  0  0  0  0  0  0  0  0  0  0
  -26.1066  -16.8127  146.6873 C   0  0  0  0  0  0  0  0  0  0  0  0
  -26.3868  -15.6822  145.8503 C   0  0  0  0  0  0  0  0  0  0  0  0
  -27.6363  -15.0109  145.9846 C   0  0  0  0  0  0  0  0  0  0  0  0
  -27.7673  -13.7261  145.3909 C   0  0  0  0  0  0  0  0  0  0  0  0
  -26.6923  -13.1558  144.6283 C   0  0  0  0  0  0  0  0  0  0  0  0
  -25.4924  -13.9082  144.5331 C   0  0  0  0  0  0  0  0  0  0  0  0
  -25.3284  -15.1034  145.1623 C   0  0  0  0  0  0  0  0  0  0  0  0
  -26.8700  -11.8701  143.9708 C   0  0  0  0  0  0  0  0  0  0  0  0
  -26.8154  -12.0694  142.8002 F   0  0  0  0  0  0  0  0  0  0  0  0
  -25.9417  -10.9322  144.2899 F   0  0  0  0  0  0  0  0  0  0  0  0
  -28.1030  -11.2839  144.3361 F   0  0  0  0  0  0  0  0  0  0  0  0
  -28.6834  -15.5583  146.8032 C   0  0  0  0  0  0  0  0  0  0  0  0
  -29.8256  -14.7458  147.1422 C   0  0  0  0  0  0  0  0  0  0  0  0
  -29.5623  -13.5329  148.0465 C   0  0  0  0  0  0  0  0  0  0  0  0
  -30.6624  -12.6767  148.4101 C   0  0  0  0  0  0  0  0  0  0  0  0
  -31.6849  -13.1945  149.1484 C   0  0  0  0  0  0  0  0  0  0  0  0
  -32.7327  -12.3235  149.5019 C   0  0  0  0  0  0  0  0  0  0  0  0
  -33.1754  -11.4065  148.5441 C   0  0  0  0  0  0  0  0  0  0  0  0
  -32.2595  -11.1229  147.5472 C   0  0  0  0  0  0  0  0  0  0  0  0
  -31.0069  -11.7361  147.4667 C   0  0  0  0  0  0  0  0  0  0  0  0
  -30.1810  -11.3200  146.5275 O   0  0  0  0  0  0  0  0  0  0  0  0
  -24.7060  -16.7389  149.2232 C   0  0  0  0  0  0  0  0  0  0  0  0
  -25.0784  -17.8651  150.2036 C   0  0  0  0  0  0  0  0  0  0  0  0
  -24.4278  -17.6016  151.4216 C   0  0  0  0  0  0  0  0  0  0  0  0
  2  7  1  0
 11 14  1  0
 14 15  1  0
 14 16  1  0
 14 17  1  0
  9 18  1  0
 18 19  2  3
 19 20  1  0
 20 21  1  0
 26 27  1  0
  3 28  1  0
 28 29  1  0
 29 30  1  0
  7  8  1  0
  1  2  2  0
  2  3  1  0
  3  4  2  0
  4  5  1  0
  5  6  2  0
  6  1  1  0
  8  9  1  0
  9 10  2  0
 10 11  1  0
 11 12  2  0
 12 13  1  0
 13  8  2  0
 21 22  2  0
 22 23  1  0
 23 24  2  0
 24 25  1  0
 25 26  2  0
 26 21  1  0
M  END

$$$$
No_1057-/dssg/home/sw_qyf/PocketFlow/Model-Generation-Results/5HT2A_7WC7_rec_A_10.pdb/2024-01-01-03-54-21/
     RDKit          3D

 33 36  0  0  0  0  0  0  0  0999 V2000
  -23.1746  -16.6014  144.8668 C   0  0  0  0  0  0  0  0  0  0  0  0
  -24.0189  -16.0564  145.8445 C   0  0  0  0  0  0  0  0  0  0  0  0
  -24.4850  -14.7380  145.6359 C   0  0  0  0  0  0  0  0  0  0  0  0
  -25.2717  -14.0560  146.5949 C   0  0  0  0  0  0  0  0  0  0  0  0
  -25.5669  -12.6700  146.4456 C   0  0  0  0  0  0  0  0  0  0  0  0
  -25.1774  -11.9727  145.2644 C   0  0  0  0  0  0  0  0  0  0  0  0
  -24.2583  -12.6444  144.4323 C   0  0  0  0  0  0  0  0  0  0  0  0
  -23.9746  -14.0153  144.6649 C   0  0  0  0  0  0  0  0  0  0  0  0
  -24.4407  -16.8601  146.9515 C   0  0  0  0  0  0  0  0  0  0  0  0
  -25.1111  -16.6229  147.9710 C   0  0  0  0  0  0  0  0  0  0  0  0
  -24.9821  -17.2513  149.2422 C   0  0  0  0  0  0  0  0  0  0  0  0
  -25.7749  -17.0271  150.4135 C   0  0  0  0  0  0  0  0  0  0  0  0
  -23.5025  -17.9803  147.0776 C   0  0  0  0  0  0  0  0  0  0  0  0
  -25.4624  -10.6963  145.1277 O   0  0  0  0  0  0  0  0  0  0  0  0
  -26.3071  -10.4263  144.0732 C   0  0  0  0  0  0  0  0  0  0  0  0
  -27.5351   -9.8437  144.6205 C   0  0  0  0  0  0  0  0  0  0  0  0
  -28.7573  -10.4054  144.0766 C   0  0  0  0  0  0  0  0  0  0  0  0
  -29.2874   -9.8418  143.0954 C   0  0  0  0  0  0  0  0  0  0  0  0
  -30.6160   -9.8831  142.7422 C   0  0  0  0  0  0  0  0  0  0  0  0
  -31.4440   -9.5731  143.8608 C   0  0  0  0  0  0  0  0  0  0  0  0
  -30.9365   -9.8810  145.1010 N   0  0  0  0  0  0  0  0  0  0  0  0
  -29.6523  -10.3420  145.2952 C   0  0  0  0  0  0  0  0  0  0  0  0
  -26.9528  -16.7807  150.2371 C   0  0  0  0  0  0  0  0  0  0  0  0
  -27.4589  -16.4336  148.8639 C   0  0  0  0  0  0  0  0  0  0  0  0
  -26.5467  -16.3012  147.8239 C   0  0  0  0  0  0  0  0  0  0  0  0
  -28.4084  -10.3113  141.7475 C   0  0  0  0  0  0  0  0  0  0  0  0
  -28.1815  -11.6252  141.5615 C   0  0  0  0  0  0  0  0  0  0  0  0
  -27.4946  -12.0564  140.4162 C   0  0  0  0  0  0  0  0  0  0  0  0
  -27.1460  -11.2597  139.3624 C   0  0  0  0  0  0  0  0  0  0  0  0
  -27.3944   -9.8483  139.6289 C   0  0  0  0  0  0  0  0  0  0  0  0
  -28.1024   -9.3942  140.7098 C   0  0  0  0  0  0  0  0  0  0  0  0
  -31.0690   -8.9965  141.6908 O   0  0  0  0  0  0  0  0  0  0  0  0
  -23.6764  -19.0530  146.3483 O   0  0  0  0  0  0  0  0  0  0  0  0
  1  2  1  0
  2  3  1  0
  2  9  1  0
  9 10  1  0
  9 13  1  0
  6 14  1  0
 14 15  1  0
 15 16  1  0
 16 17  1  0
 18 26  1  0
 19 32  1  0
 13 33  1  0
 26 27  2  0
 27 28  1  0
 28 29  2  0
 29 30  1  0
 30 31  2  0
 31 26  1  0
  3  4  2  0
  4  5  1  0
  5  6  2  0
  6  7  1  0
  7  8  2  0
  8  3  1  0
 10 11  2  0
 11 12  1  0
 12 23  2  0
 23 24  1  0
 24 25  2  0
 25 10  1  0
 17 18  1  0
 18 19  2  0
 19 20  1  0
 20 21  2  0
 21 22  1  0
 22 17  2  0
M  END

$$$$
No_1058-/dssg/home/sw_qyf/PocketFlow/Model-Generation-Results/5HT2A_7WC7_rec_A_10.pdb/2024-01-01-03-54-21/
     RDKit          3D

 35 38  0  0  0  0  0  0  0  0999 V2000
  -24.1553  -17.8465  145.7021 C   0  0  0  0  0  0  0  0  0  0  0  0
  -24.6364  -17.2931  146.7091 C   0  0  0  0  0  0  0  0  0  0  0  0
  -24.5709  -15.9334  146.8074 C   0  0  0  0  0  0  0  0  0  0  0  0
  -24.3883  -15.1807  145.6115 C   0  0  0  0  0  0  0  0  0  0  0  0
  -24.5560  -13.7894  145.5018 C   0  0  0  0  0  0  0  0  0  0  0  0
  -23.4836  -12.9897  145.0641 C   0  0  0  0  0  0  0  0  0  0  0  0
  -23.7527  -17.2171  144.5471 C   0  0  0  0  0  0  0  0  0  0  0  0
  -23.8713  -15.8194  144.5541 C   0  0  0  0  0  0  0  0  0  0  0  0
  -25.7009  -13.1317  146.0677 C   0  0  0  0  0  0  0  0  0  0  0  0
  -25.9352  -11.7591  146.0046 C   0  0  0  0  0  0  0  0  0  0  0  0
  -23.6506  -11.5197  145.1298 C   0  0  0  0  0  0  0  0  0  0  0  0
  -24.8569  -10.9393  145.5234 C   0  0  0  0  0  0  0  0  0  0  0  0
  -23.9993  -19.2469  145.8527 N   0  0  0  0  0  0  0  0  0  0  0  0
  -27.0665  -11.2427  146.4598 O   0  0  0  0  0  0  0  0  0  0  0  0
  -28.0927  -11.1798  145.5936 C   0  0  0  0  0  0  0  0  0  0  0  0
  -29.4009  -11.3415  146.1474 C   0  0  0  0  0  0  0  0  0  0  0  0
  -30.5033  -11.1080  145.3298 C   0  0  0  0  0  0  0  0  0  0  0  0
  -30.2592  -10.4235  144.1019 C   0  0  0  0  0  0  0  0  0  0  0  0
  -29.1174  -10.1268  143.7979 C   0  0  0  0  0  0  0  0  0  0  0  0
  -27.9196  -10.4345  144.4685 C   0  0  0  0  0  0  0  0  0  0  0  0
  -28.9787   -9.3664  142.4420 C   0  0  0  0  0  0  0  0  0  0  0  0
  -28.2635   -9.8607  141.3596 C   0  0  0  0  0  0  0  0  0  0  0  0
  -27.5964  -11.0877  141.3093 C   0  0  0  0  0  0  0  0  0  0  0  0
  -27.7472  -11.8285  140.1584 C   0  0  0  0  0  0  0  0  0  0  0  0
  -27.5710  -13.2508  140.0593 C   0  0  0  0  0  0  0  0  0  0  0  0
  -29.7489   -8.1393  142.3560 C   0  0  0  0  0  0  0  0  0  0  0  0
  -30.8742   -7.7591  143.0128 C   0  0  0  0  0  0  0  0  0  0  0  0
  -29.3089   -7.1966  141.3821 C   0  0  0  0  0  0  0  0  0  0  0  0
  -29.1676   -7.5526  140.0821 C   0  0  0  0  0  0  0  0  0  0  0  0
  -29.1189   -6.8597  138.9419 C   0  0  0  0  0  0  0  0  0  0  0  0
  -28.2995   -9.0188  140.1111 C   0  0  0  0  0  0  0  0  0  0  0  0
  -29.5736  -12.1192  147.4258 C   0  0  0  0  0  0  0  0  0  0  0  0
  -28.7398  -12.6813  147.8573 O   0  0  0  0  0  0  0  0  0  0  0  0
  -30.6493  -11.7214  148.1982 N   0  0  0  0  0  0  0  0  0  0  0  0
  -27.4391  -13.7280  141.5253 C   0  0  0  0  0  0  0  0  0  0  0  0
  1  2  1  0
  2  3  1  0
  3  4  1  0
  4  5  1  0
  1  7  1  0
  4  8  1  0
  7  8  1  0
  1 13  1  0
 10 14  1  0
 14 15  1  0
 19 21  1  0
 21 22  1  0
 22 23  1  0
 23 24  2  3
 24 25  1  0
 21 26  1  0
 26 27  1  0
 26 28  1  0
 28 29  1  0
 29 30  1  0
 22 31  1  0
 29 31  1  0
 16 32  1  0
 32 33  2  0
 32 34  1  0
 25 35  1  0
 15 16  2  0
 16 17  1  0
 17 18  2  0
 18 19  1  0
 19 20  2  0
 20 15  1  0
  5  6  2  0
  6 11  1  0
 11 12  2  0
 12 10  1  0
 10  9  2  0
  9  5  1  0
M  END

$$$$
No_1059-/dssg/home/sw_qyf/PocketFlow/Model-Generation-Results/5HT2A_7WC7_rec_A_10.pdb/2024-01-01-03-54-21/
     RDKit          3D

 35 37  0  0  0  0  0  0  0  0999 V2000
  -24.1553  -17.8465  145.7021 C   0  0  0  0  0  0  0  0  0  0  0  0
  -24.2856  -16.6364  145.3494 C   0  0  0  0  0  0  0  0  0  0  0  0
  -25.0033  -15.6772  146.0737 C   0  0  0  0  0  0  0  0  0  0  0  0
  -25.6964  -16.1810  147.2049 C   0  0  0  0  0  0  0  0  0  0  0  0
  -24.8143  -18.3454  146.8324 C   0  0  0  0  0  0  0  0  0  0  0  0
  -25.5291  -17.4614  147.6374 C   0  0  0  0  0  0  0  0  0  0  0  0
  -23.6447  -16.0678  144.2141 N   0  0  0  0  0  0  0  0  0  0  0  0
  -25.1743  -14.2616  145.6420 C   0  0  0  0  0  0  0  0  0  0  0  0
  -24.5031  -13.7857  144.6583 C   0  0  0  0  0  0  0  0  0  0  0  0
  -23.6687  -14.7520  143.9356 N   0  0  0  0  0  0  0  0  0  0  0  0
  -25.9522  -13.3611  146.4982 C   0  0  0  0  0  0  0  0  0  0  0  0
  -26.4487  -12.1908  145.7811 C   0  0  0  0  0  0  0  0  0  0  0  0
  -27.7135  -11.8790  145.5417 C   0  0  0  0  0  0  0  0  0  0  0  0
  -28.2159  -10.8636  144.8266 C   0  0  0  0  0  0  0  0  0  0  0  0
  -29.5739  -10.6198  144.4984 C   0  0  0  0  0  0  0  0  0  0  0  0
  -29.9304   -9.5310  143.7840 C   0  0  0  0  0  0  0  0  0  0  0  0
  -29.0728   -9.0212  142.8486 C   0  0  0  0  0  0  0  0  0  0  0  0
  -29.4980   -7.9600  142.0339 C   0  0  0  0  0  0  0  0  0  0  0  0
  -29.0590   -7.8700  140.6825 C   0  0  0  0  0  0  0  0  0  0  0  0
  -29.2860   -8.9982  139.9026 C   0  0  0  0  0  0  0  0  0  0  0  0
  -28.2443   -9.8940  140.3344 C   0  0  0  0  0  0  0  0  0  0  0  0
  -27.7068  -10.8782  139.3796 C   0  0  0  0  0  0  0  0  0  0  0  0
  -27.0669  -12.0451  139.8666 C   0  0  0  0  0  0  0  0  0  0  0  0
  -28.0828  -10.1180  141.8732 C   0  0  0  0  0  0  0  0  0  0  0  0
  -27.5733  -12.7024  140.9791 C   0  0  0  0  0  0  0  0  0  0  0  0
  -26.6351  -13.5159  141.7763 C   0  0  0  0  0  0  0  0  0  0  0  0
  -30.0553   -6.8303  142.7502 C   0  0  0  0  0  0  0  0  0  0  0  0
  -31.2981   -9.4678  143.5613 O   0  0  0  0  0  0  0  0  0  0  0  0
  -25.6613  -11.8882  139.8279 O   0  0  0  0  0  0  0  0  0  0  0  0
  -28.7105  -12.8683  146.0520 C   0  0  0  0  0  0  0  0  0  0  0  0
  -29.7600  -12.4089  146.9434 C   0  0  0  0  0  0  0  0  0  0  0  0
  -30.1661  -13.2987  148.0123 C   0  0  0  0  0  0  0  0  0  0  0  0
  -29.5772  -14.5430  148.0319 C   0  0  0  0  0  0  0  0  0  0  0  0
  -29.7858  -15.4424  147.2610 C   0  0  0  0  0  0  0  0  0  0  0  0
  -28.8981  -16.6294  147.2605 C   0  0  0  0  0  0  0  0  0  0  0  0
  2  7  1  0
  3  8  1  0
  8  9  1  0
  7 10  1  0
  9 10  1  0
  8 11  1  0
 11 12  1  0
 12 13  1  0
 13 14  2  3
 14 15  1  0
 15 16  1  0
 16 17  1  0
 17 18  1  0
 18 19  1  0
 19 20  1  0
 20 21  1  0
 21 22  1  0
 22 23  2  3
 17 24  1  0
 21 24  1  0
 23 25  1  0
 25 26  2  0
 18 27  1  0
 16 28  1  0
 23 29  1  0
 13 30  1  0
 30 31  1  0
 31 32  2  3
 32 33  1  0
 33 34  2  3
 34 35  1  0
  1  2  2  0
  2  3  1  0
  3  4  2  0
  4  6  1  0
  6  5  2  0
  5  1  1  0
M  END

$$$$
No_1060-/dssg/home/sw_qyf/PocketFlow/Model-Generation-Results/5HT2A_7WC7_rec_A_10.pdb/2024-01-01-03-54-21/
     RDKit          3D

 32 34  0  0  0  0  0  0  0  0999 V2000
  -23.1746  -16.6014  144.8668 C   0  0  0  0  0  0  0  0  0  0  0  0
  -24.0189  -16.0564  145.8445 C   0  0  0  0  0  0  0  0  0  0  0  0
  -25.3176  -15.9168  145.6822 C   0  0  0  0  0  0  0  0  0  0  0  0
  -26.1693  -16.6799  146.4632 C   0  0  0  0  0  0  0  0  0  0  0  0
  -27.6295  -16.5109  146.3614 C   0  0  0  0  0  0  0  0  0  0  0  0
  -28.0110  -15.3282  145.7069 C   0  0  0  0  0  0  0  0  0  0  0  0
  -27.0921  -14.4405  145.1851 C   0  0  0  0  0  0  0  0  0  0  0  0
  -25.7066  -14.7589  145.1469 C   0  0  0  0  0  0  0  0  0  0  0  0
  -27.7277  -13.2262  144.6683 C   0  0  0  0  0  0  0  0  0  0  0  0
  -27.2818  -11.9552  145.1829 C   0  0  0  0  0  0  0  0  0  0  0  0
  -26.5106  -11.8416  146.2022 C   0  0  0  0  0  0  0  0  0  0  0  0
  -27.5299  -10.7999  144.3569 C   0  0  0  0  0  0  0  0  0  0  0  0
  -28.8597  -10.4884  144.1299 C   0  0  0  0  0  0  0  0  0  0  0  0
  -29.3046   -9.5035  143.2133 C   0  0  0  0  0  0  0  0  0  0  0  0
  -29.8691   -8.4080  143.6913 C   0  0  0  0  0  0  0  0  0  0  0  0
  -30.7414   -7.6996  142.7420 C   0  0  0  0  0  0  0  0  0  0  0  0
  -30.1982   -7.7039  141.4146 C   0  0  0  0  0  0  0  0  0  0  0  0
  -29.1161   -8.1731  141.2467 C   0  0  0  0  0  0  0  0  0  0  0  0
  -28.6574   -9.3640  141.9681 C   0  0  0  0  0  0  0  0  0  0  0  0
  -28.5811   -8.1636  139.8227 C   0  0  0  0  0  0  0  0  0  0  0  0
  -28.9857   -7.3711  138.8097 C   0  0  0  0  0  0  0  0  0  0  0  0
  -28.4758   -7.6359  137.5134 C   0  0  0  0  0  0  0  0  0  0  0  0
  -27.5230   -9.1041  139.4247 C   0  0  0  0  0  0  0  0  0  0  0  0
  -27.1884  -10.1949  140.3463 C   0  0  0  0  0  0  0  0  0  0  0  0
  -27.7519  -10.2807  141.6200 C   0  0  0  0  0  0  0  0  0  0  0  0
  -26.3837  -12.4220  147.1858 O   0  0  0  0  0  0  0  0  0  0  0  0
  -25.5241  -10.7532  146.2660 O   0  0  0  0  0  0  0  0  0  0  0  0
  -29.8266  -11.0194  144.8638 O   0  0  0  0  0  0  0  0  0  0  0  0
  -24.9145  -13.8851  144.6246 F   0  0  0  0  0  0  0  0  0  0  0  0
  -22.9148  -17.8266  144.7828 O   0  0  0  0  0  0  0  0  0  0  0  0
  -22.5347  -15.8034  144.0212 O   0  0  0  0  0  0  0  0  0  0  0  0
  -25.7667  -17.8948  146.9697 O   0  0  0  0  0  0  0  0  0  0  0  0
  1  2  1  0
  7  9  1  0
  9 10  1  0
 10 11  1  0
 10 12  1  0
 12 13  1  0
 20 21  1  0
 21 22  2  0
 11 26  2  0
 11 27  1  0
 13 28  1  0
  8 29  1  0
  1 30  2  0
  1 31  1  0
  4 32  1  0
 13 14  1  0
  2  3  1  0
 14 15  2  0
 15 16  1  0
 16 17  2  0
 17 18  1  0
 19 14  1  0
  3  4  2  0
  4  5  1  0
  5  6  2  0
  6  7  1  0
  7  8  2  0
  8  3  1  0
 18 19  2  0
 19 25  1  0
 25 24  2  0
 24 23  1  0
 23 20  2  0
 20 18  1  0
M  END

$$$$
No_1061-/dssg/home/sw_qyf/PocketFlow/Model-Generation-Results/5HT2A_7WC7_rec_A_10.pdb/2024-01-01-03-54-21/
     RDKit          3D

 35 37  0  0  0  0  0  0  0  0999 V2000
  -24.1553  -17.8465  145.7021 C   0  0  0  0  0  0  0  0  0  0  0  0
  -24.6364  -17.2931  146.7091 C   0  0  0  0  0  0  0  0  0  0  0  0
  -24.0780  -17.2921  147.9389 C   0  0  0  0  0  0  0  0  0  0  0  0
  -24.6761  -16.7363  149.1478 C   0  0  0  0  0  0  0  0  0  0  0  0
  -25.9986  -16.2638  148.9932 C   0  0  0  0  0  0  0  0  0  0  0  0
  -26.6271  -16.3412  147.7728 C   0  0  0  0  0  0  0  0  0  0  0  0
  -25.9735  -16.9165  146.6819 C   0  0  0  0  0  0  0  0  0  0  0  0
  -23.8064  -16.8947  144.5712 C   0  0  0  0  0  0  0  0  0  0  0  0
  -24.1210  -15.5392  145.0034 C   0  0  0  0  0  0  0  0  0  0  0  0
  -23.3935  -14.4826  144.4235 C   0  0  0  0  0  0  0  0  0  0  0  0
  -23.7458  -13.0929  144.8375 C   0  0  0  0  0  0  0  0  0  0  0  0
  -22.8102  -12.0606  144.6108 C   0  0  0  0  0  0  0  0  0  0  0  0
  -25.0026  -12.7659  145.4461 C   0  0  0  0  0  0  0  0  0  0  0  0
  -26.1154  -13.1945  145.1244 C   0  0  0  0  0  0  0  0  0  0  0  0
  -27.2499  -12.6515  145.7447 C   0  0  0  0  0  0  0  0  0  0  0  0
  -27.9555  -11.8685  145.4510 C   0  0  0  0  0  0  0  0  0  0  0  0
  -27.8235  -10.9622  144.3473 C   0  0  0  0  0  0  0  0  0  0  0  0
  -28.9173  -10.0276  143.9383 C   0  0  0  0  0  0  0  0  0  0  0  0
  -28.8383   -9.2411  142.8507 C   0  0  0  0  0  0  0  0  0  0  0  0
  -28.3489   -9.8287  141.6454 C   0  0  0  0  0  0  0  0  0  0  0  0
  -28.3535   -9.1629  140.4276 C   0  0  0  0  0  0  0  0  0  0  0  0
  -29.0518   -7.9155  140.2788 C   0  0  0  0  0  0  0  0  0  0  0  0
  -29.6307   -7.3637  141.4733 C   0  0  0  0  0  0  0  0  0  0  0  0
  -29.5785   -8.0326  142.7065 C   0  0  0  0  0  0  0  0  0  0  0  0
  -27.7461   -9.7027  139.2184 C   0  0  0  0  0  0  0  0  0  0  0  0
  -27.5804   -9.0361  138.3313 F   0  0  0  0  0  0  0  0  0  0  0  0
  -27.3534  -11.0075  139.2251 N   0  0  0  0  0  0  0  0  0  0  0  0
  -27.8757  -12.0433  138.4607 C   0  0  0  0  0  0  0  0  0  0  0  0
  -30.0045   -9.9680  144.8998 C   0  0  0  0  0  0  0  0  0  0  0  0
  -30.9983   -9.2173  144.6626 O   0  0  0  0  0  0  0  0  0  0  0  0
  -30.0047  -10.5941  146.1376 N   0  0  0  0  0  0  0  0  0  0  0  0
  -29.1327  -11.5618  146.3748 C   0  0  0  0  0  0  0  0  0  0  0  0
  -29.2829  -12.2813  147.4668 O   0  0  0  0  0  0  0  0  0  0  0  0
  -23.8047  -19.2165  145.5692 C   0  0  0  0  0  0  0  0  0  0  0  0
  -28.0068  -15.8031  147.6927 C   0  0  0  0  0  0  0  0  0  0  0  0
  1  2  1  0
  1  8  1  0
  8  9  1  0
  9 10  2  3
 10 11  1  0
 11 12  1  0
 11 13  1  0
 13 14  2  3
 14 15  1  0
 16 17  1  0
 18 19  1  0
 21 25  1  0
 25 26  1  0
 25 27  1  0
 27 28  1  0
 18 29  1  0
 29 30  1  0
 29 31  1  0
 16 32  1  0
 31 32  1  0
 32 33  2  0
  1 34  1  0
  6 35  1  0
 15 16  1  0
 17 18  1  0
  2  3  2  0
  3  4  1  0
  4  5  2  0
  5  6  1  0
  6  7  2  0
  7  2  1  0
 19 20  2  0
 20 21  1  0
 21 22  2  0
 22 23  1  0
 23 24  2  0
 24 19  1  0
M  END

$$$$
No_1062-/dssg/home/sw_qyf/PocketFlow/Model-Generation-Results/5HT2A_7WC7_rec_A_10.pdb/2024-01-01-03-54-21/
     RDKit          3D

 24 25  0  0  0  0  0  0  0  0999 V2000
  -24.1553  -17.8465  145.7021 C   0  0  0  0  0  0  0  0  0  0  0  0
  -24.2856  -16.6364  145.3494 C   0  0  0  0  0  0  0  0  0  0  0  0
  -23.7824  -15.9602  144.3553 C   0  0  0  0  0  0  0  0  0  0  0  0
  -23.9871  -14.5276  144.1537 C   0  0  0  0  0  0  0  0  0  0  0  0
  -24.7876  -13.8357  145.1352 C   0  0  0  0  0  0  0  0  0  0  0  0
  -24.9985  -12.3993  145.0246 C   0  0  0  0  0  0  0  0  0  0  0  0
  -26.0491  -11.8137  145.9720 C   0  0  0  0  0  0  0  0  0  0  0  0
  -24.8000  -18.4945  146.8163 C   0  0  0  0  0  0  0  0  0  0  0  0
  -26.9989  -12.7860  146.3959 C   0  0  0  0  0  0  0  0  0  0  0  0
  -27.0476  -13.8309  145.8456 C   0  0  0  0  0  0  0  0  0  0  0  0
  -25.8576  -14.5654  145.3442 C   0  0  0  0  0  0  0  0  0  0  0  0
  -25.6040  -15.9331  145.9296 C   0  0  0  0  0  0  0  0  0  0  0  0
  -24.6592  -17.8415  147.8503 C   0  0  0  0  0  0  0  0  0  0  0  0
  -23.5131  -17.6835  148.7706 C   0  0  0  0  0  0  0  0  0  0  0  0
  -23.4231  -16.9414  149.9758 C   0  0  0  0  0  0  0  0  0  0  0  0
  -28.2283  -12.1552  147.0210 C   0  0  0  0  0  0  0  0  0  0  0  0
  -29.5365  -12.3658  146.5101 C   0  0  0  0  0  0  0  0  0  0  0  0
  -30.4320  -11.5948  146.4406 O   0  0  0  0  0  0  0  0  0  0  0  0
  -22.1701  -16.9777  150.7136 C   0  0  0  0  0  0  0  0  0  0  0  0
  -29.8170  -13.5524  146.0913 O   0  0  0  0  0  0  0  0  0  0  0  0
  -23.7414  -11.6110  145.2778 O   0  0  0  0  0  0  0  0  0  0  0  0
  -21.5556  -15.8491  151.2726 C   0  0  0  0  0  0  0  0  0  0  0  0
  -22.5012  -12.2575  145.0135 C   0  0  0  0  0  0  0  0  0  0  0  0
  -21.5745  -11.2811  144.3398 C   0  0  0  0  0  0  0  0  0  0  0  0
  1  2  1  0
  5  6  1  0
  6  7  1  0
  1  8  2  3
  7  9  1  0
  9 10  1  0
 10 11  1  0
  8 13  1  0
 13 14  2  3
 14 15  1  0
  9 16  1  0
 16 17  1  0
 17 18  1  0
 15 19  2  3
 17 20  2  0
  6 21  1  0
 19 22  1  0
 21 23  1  0
 23 24  1  0
  2  3  2  0
  3  4  1  0
  4  5  2  0
  5 11  1  0
 11 12  2  0
 12  2  1  0
M  END

$$$$
No_1063-/dssg/home/sw_qyf/PocketFlow/Model-Generation-Results/5HT2A_7WC7_rec_A_10.pdb/2024-01-01-03-54-21/
     RDKit          3D

 35 37  0  0  0  0  0  0  0  0999 V2000
  -23.1746  -16.6014  144.8668 C   0  0  0  0  0  0  0  0  0  0  0  0
  -23.8963  -15.5346  144.7885 C   0  0  0  0  0  0  0  0  0  0  0  0
  -23.6398  -14.5115  145.3281 C   0  0  0  0  0  0  0  0  0  0  0  0
  -24.3241  -13.3648  145.1281 C   0  0  0  0  0  0  0  0  0  0  0  0
  -23.8303  -12.0965  145.7921 C   0  0  0  0  0  0  0  0  0  0  0  0
  -25.3060  -13.1626  144.3111 O   0  0  0  0  0  0  0  0  0  0  0  0
  -23.6153  -17.8026  145.6028 C   0  0  0  0  0  0  0  0  0  0  0  0
  -23.5839  -17.5337  146.9891 C   0  0  0  0  0  0  0  0  0  0  0  0
  -24.7849  -17.6004  147.7852 C   0  0  0  0  0  0  0  0  0  0  0  0
  -25.3487  -16.1993  148.0098 C   0  0  0  0  0  0  0  0  0  0  0  0
  -26.2071  -14.0443  144.1922 C   0  0  0  0  0  0  0  0  0  0  0  0
  -26.4702  -15.1460  144.8300 C   0  0  0  0  0  0  0  0  0  0  0  0
  -25.3382  -16.1847  144.8070 C   0  0  0  0  0  0  0  0  0  0  0  0
  -27.4698  -13.2935  144.2234 F   0  0  0  0  0  0  0  0  0  0  0  0
  -26.7469  -16.1899  148.4738 C   0  0  0  0  0  0  0  0  0  0  0  0
  -27.6938  -16.6271  147.4889 C   0  0  0  0  0  0  0  0  0  0  0  0
  -28.9103  -15.8044  147.4593 C   0  0  0  0  0  0  0  0  0  0  0  0
  -29.1271  -14.9046  148.4825 C   0  0  0  0  0  0  0  0  0  0  0  0
  -30.2065  -14.0368  148.2056 C   0  0  0  0  0  0  0  0  0  0  0  0
  -30.6231  -13.0178  149.1832 C   0  0  0  0  0  0  0  0  0  0  0  0
  -31.9139  -12.9201  149.4640 C   0  0  0  0  0  0  0  0  0  0  0  0
  -32.7218  -13.5759  149.6608 C   0  0  0  0  0  0  0  0  0  0  0  0
  -32.3532  -14.9600  149.7366 C   0  0  0  0  0  0  0  0  0  0  0  0
  -31.1493  -15.2645  149.0103 C   0  0  0  0  0  0  0  0  0  0  0  0
  -30.5868  -13.8587  146.9423 C   0  0  0  0  0  0  0  0  0  0  0  0
  -32.2356  -11.4170  149.6427 O   0  0  0  0  0  0  0  0  0  0  0  0
  -33.5653  -11.1412  149.7520 C   0  0  0  0  0  0  0  0  0  0  0  0
  -22.6564  -18.5268  147.6361 O   0  0  0  0  0  0  0  0  0  0  0  0
  -33.7567  -10.0304  150.6385 C   0  0  0  0  0  0  0  0  0  0  0  0
  -33.4807   -8.8438  150.2618 O   0  0  0  0  0  0  0  0  0  0  0  0
  -34.4036  -12.1181  149.8730 O   0  0  0  0  0  0  0  0  0  0  0  0
  -34.0047  -13.3876  149.7071 C   0  0  0  0  0  0  0  0  0  0  0  0
  -27.7085  -15.8830  144.4783 O   0  0  0  0  0  0  0  0  0  0  0  0
  -25.3082  -18.5509  148.2842 O   0  0  0  0  0  0  0  0  0  0  0  0
  -22.7209  -11.9407  146.2153 O   0  0  0  0  0  0  0  0  0  0  0  0
  1  2  1  0
  2  3  2  0
  3  4  1  0
  4  5  1  0
  4  6  1  0
  1  7  1  0
  7  8  1  0
  8  9  1  0
  9 10  1  0
  6 11  1  0
 11 12  2  0
  2 13  1  0
 12 13  1  0
 11 14  1  0
 10 15  1  0
 15 16  1  0
 16 17  1  0
 17 18  2  3
 18 19  1  0
 19 20  1  0
 20 21  1  0
 22 23  1  0
 19 24  1  0
 19 25  1  0
 21 26  1  0
 26 27  1  0
  8 28  1  0
 27 29  1  0
 29 30  2  0
 27 31  1  0
 22 32  1  0
 31 32  1  0
 12 33  1  0
  9 34  2  0
  5 35  2  0
 21 22  1  0
 23 24  1  0
M  END

$$$$
No_1064-/dssg/home/sw_qyf/PocketFlow/Model-Generation-Results/5HT2A_7WC7_rec_A_10.pdb/2024-01-01-03-54-21/
     RDKit          3D

 35 38  0  0  0  0  0  0  0  0999 V2000
  -23.1746  -16.6014  144.8668 C   0  0  0  0  0  0  0  0  0  0  0  0
  -23.8963  -15.5346  144.7885 C   0  0  0  0  0  0  0  0  0  0  0  0
  -24.5755  -15.0383  145.9043 C   0  0  0  0  0  0  0  0  0  0  0  0
  -25.0618  -13.6819  146.0347 C   0  0  0  0  0  0  0  0  0  0  0  0
  -26.1211  -13.2239  146.2655 C   0  0  0  0  0  0  0  0  0  0  0  0
  -23.3988  -17.5289  145.9572 C   0  0  0  0  0  0  0  0  0  0  0  0
  -24.0509  -17.0603  147.1196 C   0  0  0  0  0  0  0  0  0  0  0  0
  -24.6392  -15.7936  147.1455 C   0  0  0  0  0  0  0  0  0  0  0  0
  -26.5137  -11.7977  146.2518 C   0  0  0  0  0  0  0  0  0  0  0  0
  -23.9707  -12.6258  145.7082 C   0  0  0  0  0  0  0  0  0  0  0  0
  -24.3153  -11.2783  145.4616 C   0  0  0  0  0  0  0  0  0  0  0  0
  -25.5693  -10.9076  145.7757 C   0  0  0  0  0  0  0  0  0  0  0  0
  -23.8243  -14.7075  143.7921 O   0  0  0  0  0  0  0  0  0  0  0  0
  -24.0993  -17.9224  148.3690 C   0  0  0  0  0  0  0  0  0  0  0  0
  -25.3691  -17.7183  149.0824 C   0  0  0  0  0  0  0  0  0  0  0  0
  -26.1418  -16.6221  148.7846 C   0  0  0  0  0  0  0  0  0  0  0  0
  -25.8985  -15.6781  147.7638 C   0  0  0  0  0  0  0  0  0  0  0  0
  -27.8062  -11.4457  146.5506 O   0  0  0  0  0  0  0  0  0  0  0  0
  -28.7392  -11.4580  145.6547 C   0  0  0  0  0  0  0  0  0  0  0  0
  -28.6821  -11.4480  144.2992 C   0  0  0  0  0  0  0  0  0  0  0  0
  -29.4505  -10.4657  143.5474 C   0  0  0  0  0  0  0  0  0  0  0  0
  -29.0146   -9.3270  143.2991 C   0  0  0  0  0  0  0  0  0  0  0  0
  -29.5898   -8.4833  142.4675 C   0  0  0  0  0  0  0  0  0  0  0  0
  -29.0663   -7.9034  141.2290 C   0  0  0  0  0  0  0  0  0  0  0  0
  -28.3240   -8.6740  140.4375 C   0  0  0  0  0  0  0  0  0  0  0  0
  -28.2183   -8.4156  138.9928 C   0  0  0  0  0  0  0  0  0  0  0  0
  -30.0743  -11.7472  146.2925 C   0  0  0  0  0  0  0  0  0  0  0  0
  -30.0823  -12.5006  147.3462 O   0  0  0  0  0  0  0  0  0  0  0  0
  -27.6722   -9.2783  138.0989 C   0  0  0  0  0  0  0  0  0  0  0  0
  -27.3542  -10.5896  138.6147 C   0  0  0  0  0  0  0  0  0  0  0  0
  -27.5119  -10.9593  140.0047 C   0  0  0  0  0  0  0  0  0  0  0  0
  -28.0346  -10.0317  140.8553 C   0  0  0  0  0  0  0  0  0  0  0  0
  -29.3984   -6.7030  140.8995 O   0  0  0  0  0  0  0  0  0  0  0  0
  -30.9613   -7.9612  142.8628 C   0  0  0  0  0  0  0  0  0  0  0  0
  -31.2413   -7.6930  143.9807 O   0  0  0  0  0  0  0  0  0  0  0  0
  3  4  1  0
  2 13  1  0
  9 18  1  0
 18 19  1  0
 19 20  1  0
 20 21  2  3
 21 22  1  0
 22 23  2  3
 23 24  1  0
 24 25  1  0
 19 27  1  0
 27 28  1  0
 24 33  2  0
 23 34  1  0
 34 35  2  0
  4  5  2  0
  5  9  1  0
  9 12  2  0
 12 11  1  0
 11 10  2  0
 10  4  1  0
  8 17  1  0
 17 16  2  0
 16 15  1  0
 15 14  2  0
 14  7  1  0
  1  2  2  0
  2  3  1  0
  3  8  2  0
  8  7  1  0
  7  6  2  0
  6  1  1  0
 25 26  2  0
 26 29  1  0
 29 30  2  0
 30 31  1  0
 31 32  2  0
 32 25  1  0
M  END

$$$$
No_1065-/dssg/home/sw_qyf/PocketFlow/Model-Generation-Results/5HT2A_7WC7_rec_A_10.pdb/2024-01-01-03-54-21/
     RDKit          3D

 12 12  0  0  0  0  0  0  0  0999 V2000
  -23.1746  -16.6014  144.8668 C   0  0  0  0  0  0  0  0  0  0  0  0
  -23.8963  -15.5346  144.7885 C   0  0  0  0  0  0  0  0  0  0  0  0
  -24.5755  -15.0383  145.9043 C   0  0  0  0  0  0  0  0  0  0  0  0
  -25.0618  -13.6819  146.0347 C   0  0  0  0  0  0  0  0  0  0  0  0
  -24.0242  -12.8249  145.9593 C   0  0  0  0  0  0  0  0  0  0  0  0
  -23.5540  -17.4786  146.0177 C   0  0  0  0  0  0  0  0  0  0  0  0
  -24.6396  -17.5267  146.5047 C   0  0  0  0  0  0  0  0  0  0  0  0
  -25.1800  -16.0826  146.8831 C   0  0  0  0  0  0  0  0  0  0  0  0
  -26.3585  -13.2268  146.2407 C   0  0  0  0  0  0  0  0  0  0  0  0
  -27.4767  -13.9692  146.3886 C   0  0  0  0  0  0  0  0  0  0  0  0
  -27.6527  -15.3081  146.5557 C   0  0  0  0  0  0  0  0  0  0  0  0
  -28.8969  -15.8459  146.9696 C   0  0  0  0  0  0  0  0  0  0  0  0
  1  2  1  0
  2  3  1  0
  3  4  1  0
  4  5  1  0
  1  6  1  0
  6  7  1  0
  3  8  1  0
  7  8  1  0
  4  9  1  0
  9 10  1  0
 10 11  2  3
 11 12  1  0
M  END

$$$$
No_1066-/dssg/home/sw_qyf/PocketFlow/Model-Generation-Results/5HT2A_7WC7_rec_A_10.pdb/2024-01-01-03-54-21/
     RDKit          3D

 35 37  0  0  0  0  0  0  0  0999 V2000
  -23.1746  -16.6014  144.8668 C   0  0  0  0  0  0  0  0  0  0  0  0
  -23.8963  -15.5346  144.7885 C   0  0  0  0  0  0  0  0  0  0  0  0
  -25.3063  -15.4625  144.8521 C   0  0  0  0  0  0  0  0  0  0  0  0
  -26.0192  -14.2249  144.6050 C   0  0  0  0  0  0  0  0  0  0  0  0
  -26.6274  -13.6680  145.2524 C   0  0  0  0  0  0  0  0  0  0  0  0
  -27.4505  -14.3834  146.3408 C   0  0  0  0  0  0  0  0  0  0  0  0
  -28.4427  -13.7561  147.0869 C   0  0  0  0  0  0  0  0  0  0  0  0
  -28.6303  -12.3274  146.9006 C   0  0  0  0  0  0  0  0  0  0  0  0
  -28.0302  -11.6257  145.8825 C   0  0  0  0  0  0  0  0  0  0  0  0
  -27.0283  -12.3121  145.1569 C   0  0  0  0  0  0  0  0  0  0  0  0
  -23.9276  -17.7621  145.4331 C   0  0  0  0  0  0  0  0  0  0  0  0
  -25.2226  -17.6293  145.8580 C   0  0  0  0  0  0  0  0  0  0  0  0
  -25.9151  -16.5162  145.5676 C   0  0  0  0  0  0  0  0  0  0  0  0
  -25.7736  -13.8820  143.1500 C   0  0  0  0  0  0  0  0  0  0  0  0
  -29.9246  -11.5867  147.8830 Cl  0  0  0  0  0  0  0  0  0  0  0  0
  -24.9786  -14.0811  142.4258 O   0  0  0  0  0  0  0  0  0  0  0  0
  -26.8476  -13.1350  142.6021 O   0  0  0  0  0  0  0  0  0  0  0  0
  -29.0256  -14.6107  148.0304 N   0  0  0  0  0  0  0  0  0  0  0  0
  -30.2484  -14.3349  148.5250 C   0  0  0  0  0  0  0  0  0  0  0  0
  -30.9844  -13.3230  148.0218 C   0  0  0  0  0  0  0  0  0  0  0  0
  -31.9556  -12.7986  148.9455 O   0  0  0  0  0  0  0  0  0  0  0  0
  -31.3045  -13.5310  146.8253 O   0  0  0  0  0  0  0  0  0  0  0  0
  -31.6640  -12.4742  150.2148 C   0  0  0  0  0  0  0  0  0  0  0  0
  -32.2657  -13.3224  151.1833 C   0  0  0  0  0  0  0  0  0  0  0  0
  -32.1811  -14.6655  150.9847 C   0  0  0  0  0  0  0  0  0  0  0  0
  -32.8155  -15.5803  151.8680 C   0  0  0  0  0  0  0  0  0  0  0  0
  -33.8118  -15.1132  152.7035 C   0  0  0  0  0  0  0  0  0  0  0  0
  -34.0632  -13.7098  152.8685 C   0  0  0  0  0  0  0  0  0  0  0  0
  -33.3830  -12.7668  152.0440 C   0  0  0  0  0  0  0  0  0  0  0  0
  -23.2114  -18.9321  145.6668 N   0  0  0  0  0  0  0  0  0  0  0  0
  -28.4085  -15.8663  148.3272 C   0  0  0  0  0  0  0  0  0  0  0  0
  -29.2798  -16.9871  148.1505 C   0  0  0  0  0  0  0  0  0  0  0  0
  -33.5445  -11.5038  152.1555 O   0  0  0  0  0  0  0  0  0  0  0  0
  -26.9977  -13.0203  141.2327 C   0  0  0  0  0  0  0  0  0  0  0  0
  -28.0994  -12.0950  140.8747 C   0  0  0  0  0  0  0  0  0  0  0  0
  3  4  1  0
  4 14  1  0
  8 15  1  0
 14 16  2  0
 14 17  1  0
  7 18  1  0
 18 19  1  0
 19 20  1  0
 20 21  1  0
 20 22  1  0
 21 23  1  0
 23 24  1  0
 11 30  1  0
 18 31  1  0
 31 32  1  0
 29 33  1  0
 17 34  1  0
 34 35  1  0
  4  5  1  0
 24 25  2  0
 25 26  1  0
 26 27  2  0
 27 28  1  0
 28 29  2  0
 29 24  1  0
  5  6  2  0
  6  7  1  0
  7  8  2  0
  8  9  1  0
  9 10  2  0
 10  5  1  0
  1  2  2  0
  2  3  1  0
  3 13  2  0
 13 12  1  0
 12 11  2  0
 11  1  1  0
M  END

$$$$
No_1067-/dssg/home/sw_qyf/PocketFlow/Model-Generation-Results/5HT2A_7WC7_rec_A_10.pdb/2024-01-01-03-54-21/
     RDKit          3D

 35 38  0  0  0  0  0  0  0  0999 V2000
  -24.1553  -17.8465  145.7021 C   0  0  0  0  0  0  0  0  0  0  0  0
  -23.9795  -18.4462  146.7426 C   0  0  0  0  0  0  0  0  0  0  0  0
  -24.3577  -16.4380  145.7329 C   0  0  0  0  0  0  0  0  0  0  0  0
  -24.4745  -15.6012  144.5587 C   0  0  0  0  0  0  0  0  0  0  0  0
  -24.5845  -14.1656  144.8311 C   0  0  0  0  0  0  0  0  0  0  0  0
  -25.4952  -13.5661  145.3467 C   0  0  0  0  0  0  0  0  0  0  0  0
  -24.0407  -17.8881  148.0828 C   0  0  0  0  0  0  0  0  0  0  0  0
  -24.2814  -16.5035  148.1944 C   0  0  0  0  0  0  0  0  0  0  0  0
  -24.4153  -15.7595  147.0613 C   0  0  0  0  0  0  0  0  0  0  0  0
  -25.8188  -12.2156  145.0846 C   0  0  0  0  0  0  0  0  0  0  0  0
  -24.8331  -11.2255  145.5168 C   0  0  0  0  0  0  0  0  0  0  0  0
  -23.5309  -11.5989  144.9318 C   0  0  0  0  0  0  0  0  0  0  0  0
  -23.3026  -13.1315  144.9365 C   0  0  0  0  0  0  0  0  0  0  0  0
  -27.2022  -11.7120  145.8551 C   0  0  0  0  0  0  0  0  0  0  0  0
  -27.8124  -12.5251  146.7576 C   0  0  0  0  0  0  0  0  0  0  0  0
  -29.0867  -12.2415  147.2190 C   0  0  0  0  0  0  0  0  0  0  0  0
  -29.7838  -13.0465  148.1907 C   0  0  0  0  0  0  0  0  0  0  0  0
  -31.0117  -12.6869  148.7767 C   0  0  0  0  0  0  0  0  0  0  0  0
  -31.6045  -13.3909  149.7831 C   0  0  0  0  0  0  0  0  0  0  0  0
  -31.0494  -14.7115  150.0534 C   0  0  0  0  0  0  0  0  0  0  0  0
  -29.9033  -15.1732  149.3805 C   0  0  0  0  0  0  0  0  0  0  0  0
  -29.3213  -14.3291  148.4267 C   0  0  0  0  0  0  0  0  0  0  0  0
  -29.7281  -11.1877  146.7083 O   0  0  0  0  0  0  0  0  0  0  0  0
  -26.1965  -11.9821  143.6320 C   0  0  0  0  0  0  0  0  0  0  0  0
  -27.3121  -12.8904  143.3139 C   0  0  0  0  0  0  0  0  0  0  0  0
  -27.6219  -12.7366  141.8875 C   0  0  0  0  0  0  0  0  0  0  0  0
  -27.9881  -11.4833  141.3966 C   0  0  0  0  0  0  0  0  0  0  0  0
  -27.6920  -11.1218  140.1008 C   0  0  0  0  0  0  0  0  0  0  0  0
  -27.3760  -12.0776  139.1118 C   0  0  0  0  0  0  0  0  0  0  0  0
  -28.1633   -9.7828  139.4994 C   0  0  0  0  0  0  0  0  0  0  0  0
  -28.3895   -8.6966  140.4375 C   0  0  0  0  0  0  0  0  0  0  0  0
  -28.8290   -9.0402  141.7621 C   0  0  0  0  0  0  0  0  0  0  0  0
  -28.4570  -10.3825  142.3367 C   0  0  0  0  0  0  0  0  0  0  0  0
  -29.2655   -7.9694  142.6268 C   0  0  0  0  0  0  0  0  0  0  0  0
  -29.2645   -6.6886  142.2419 C   0  0  0  0  0  0  0  0  0  0  0  0
  3  4  1  0
  4  5  1  0
  6 10  1  0
 10 11  1  0
 11 12  1  0
  5 13  1  0
 12 13  1  0
 10 14  1  0
 14 15  2  3
 15 16  1  0
 16 17  1  0
 16 23  2  0
 10 24  1  0
 24 25  1  0
 25 26  1  0
 26 27  1  0
 28 29  1  0
 32 34  1  0
 34 35  2  0
  6  5  1  0
 17 18  2  0
 18 19  1  0
 19 20  2  0
 20 21  1  0
 21 22  2  0
 22 17  1  0
  1  2  2  0
  2  7  1  0
  7  8  2  0
  8  9  1  0
  9  3  2  0
  3  1  1  0
 27 28  2  0
 28 30  1  0
 30 31  2  0
 31 32  1  0
 32 33  2  0
 33 27  1  0
M  END

$$$$
No_1068-/dssg/home/sw_qyf/PocketFlow/Model-Generation-Results/5HT2A_7WC7_rec_A_10.pdb/2024-01-01-03-54-21/
     RDKit          3D

 35 37  0  0  0  0  0  0  0  0999 V2000
  -23.1746  -16.6014  144.8668 C   0  0  0  0  0  0  0  0  0  0  0  0
  -24.0189  -16.0564  145.8445 C   0  0  0  0  0  0  0  0  0  0  0  0
  -24.4850  -14.7380  145.6359 C   0  0  0  0  0  0  0  0  0  0  0  0
  -24.0244  -13.9858  144.5634 C   0  0  0  0  0  0  0  0  0  0  0  0
  -23.0456  -13.0735  144.7065 P   0  0  0  0  0  0  0  0  0  0  0  0
  -23.4557  -11.6754  145.1107 O   0  0  0  0  0  0  0  0  0  0  0  0
  -21.9111  -12.9266  143.5368 O   0  0  0  0  0  0  0  0  0  0  0  0
  -24.3279  -16.8211  147.0360 C   0  0  0  0  0  0  0  0  0  0  0  0
  -23.8160  -17.9871  147.3558 C   0  0  0  0  0  0  0  0  0  0  0  0
  -23.0145  -18.6032  146.3206 C   0  0  0  0  0  0  0  0  0  0  0  0
  -22.7968  -17.9776  145.1510 C   0  0  0  0  0  0  0  0  0  0  0  0
  -22.1686  -13.2830  146.0673 O   0  0  0  0  0  0  0  0  0  0  0  0
  -24.7327  -14.1244  143.4541 O   0  0  0  0  0  0  0  0  0  0  0  0
  -25.1553  -16.0559  148.1279 C   0  0  0  0  0  0  0  0  0  0  0  0
  -25.5758  -16.9669  149.1829 C   0  0  0  0  0  0  0  0  0  0  0  0
  -24.5324  -17.4281  150.0379 C   0  0  0  0  0  0  0  0  0  0  0  0
  -23.6959  -16.5267  150.7534 C   0  0  0  0  0  0  0  0  0  0  0  0
  -22.2627  -16.6839  150.5082 C   0  0  0  0  0  0  0  0  0  0  0  0
  -21.4601  -15.9669  151.2170 O   0  0  0  0  0  0  0  0  0  0  0  0
  -22.0023  -16.9283  149.2701 O   0  0  0  0  0  0  0  0  0  0  0  0
  -26.7713  -17.7813  148.9613 C   0  0  0  0  0  0  0  0  0  0  0  0
  -27.9069  -16.8572  149.3441 C   0  0  0  0  0  0  0  0  0  0  0  0
  -28.5788  -16.1529  148.2578 C   0  0  0  0  0  0  0  0  0  0  0  0
  -28.4380  -16.2875  146.9558 C   0  0  0  0  0  0  0  0  0  0  0  0
  -29.6220  -15.1865  148.6870 C   0  0  0  0  0  0  0  0  0  0  0  0
  -30.1793  -14.2311  147.7580 C   0  0  0  0  0  0  0  0  0  0  0  0
  -30.8805  -13.1088  148.2099 C   0  0  0  0  0  0  0  0  0  0  0  0
  -30.5964  -11.8760  147.5397 C   0  0  0  0  0  0  0  0  0  0  0  0
  -29.7311  -11.8811  146.3759 C   0  0  0  0  0  0  0  0  0  0  0  0
  -28.8067  -12.9111  146.1640 C   0  0  0  0  0  0  0  0  0  0  0  0
  -27.9227  -12.8069  145.0908 C   0  0  0  0  0  0  0  0  0  0  0  0
  -29.3661  -14.2027  146.5459 C   0  0  0  0  0  0  0  0  0  0  0  0
  -28.4693  -15.1875  146.1272 C   0  0  0  0  0  0  0  0  0  0  0  0
  -29.5680  -10.6438  145.7888 O   0  0  0  0  0  0  0  0  0  0  0  0
  -29.1526  -10.5385  144.5622 C   0  0  0  0  0  0  0  0  0  0  0  0
  3  4  1  0
  4  5  1  0
  5  6  1  0
  5  7  2  0
  5 12  1  0
  4 13  1  0
  8 14  1  0
 14 15  1  0
 15 16  1  0
 16 17  1  0
 17 18  1  0
 18 19  2  0
 18 20  1  0
 15 21  1  0
 21 22  1  0
 22 23  1  0
 30 31  1  0
 29 34  1  0
 34 35  1  0
  3  2  1  0
 26 27  1  0
 27 28  2  0
 28 29  1  0
 29 30  2  0
 30 32  1  0
  1  2  2  0
  2  8  1  0
  8  9  2  0
  9 10  1  0
 10 11  2  0
 11  1  1  0
 23 24  2  0
 24 33  1  0
 33 32  2  0
 32 26  1  0
 26 25  2  0
 25 23  1  0
M  END

$$$$
No_1069-/dssg/home/sw_qyf/PocketFlow/Model-Generation-Results/5HT2A_7WC7_rec_A_10.pdb/2024-01-01-03-54-21/
     RDKit          3D

 14 15  0  0  0  0  0  0  0  0999 V2000
  -24.1553  -17.8465  145.7021 C   0  0  0  0  0  0  0  0  0  0  0  0
  -24.6364  -17.2931  146.7091 C   0  0  0  0  0  0  0  0  0  0  0  0
  -24.0780  -17.2921  147.9389 C   0  0  0  0  0  0  0  0  0  0  0  0
  -24.6761  -16.7363  149.1478 C   0  0  0  0  0  0  0  0  0  0  0  0
  -25.9986  -16.2638  148.9932 C   0  0  0  0  0  0  0  0  0  0  0  0
  -26.6271  -16.3412  147.7729 C   0  0  0  0  0  0  0  0  0  0  0  0
  -25.9735  -16.9165  146.6819 C   0  0  0  0  0  0  0  0  0  0  0  0
  -23.7938  -16.8806  144.5756 C   0  0  0  0  0  0  0  0  0  0  0  0
  -24.1383  -15.5368  145.0393 C   0  0  0  0  0  0  0  0  0  0  0  0
  -23.4976  -14.4427  144.3439 C   0  0  0  0  0  0  0  0  0  0  0  0
  -23.8161  -13.0592  144.8553 C   0  0  0  0  0  0  0  0  0  0  0  0
  -24.6329  -12.9386  146.0222 C   0  0  0  0  0  0  0  0  0  0  0  0
  -25.2042  -14.1473  146.6903 C   0  0  0  0  0  0  0  0  0  0  0  0
  -24.9001  -15.3566  146.1470 C   0  0  0  0  0  0  0  0  0  0  0  0
  1  2  1  0
  1  8  1  0
  8  9  1  0
  2  3  2  0
  3  4  1  0
  4  5  2  0
  5  6  1  0
  6  7  2  0
  7  2  1  0
  9 10  2  0
 10 11  1  0
 11 12  2  0
 12 13  1  0
 13 14  2  0
 14  9  1  0
M  END

$$$$
No_1070-/dssg/home/sw_qyf/PocketFlow/Model-Generation-Results/5HT2A_7WC7_rec_A_10.pdb/2024-01-01-03-54-21/
     RDKit          3D

 35 36  0  0  0  0  0  0  0  0999 V2000
  -23.1746  -16.6014  144.8668 C   0  0  0  0  0  0  0  0  0  0  0  0
  -23.7011  -17.0158  145.9774 C   0  0  0  0  0  0  0  0  0  0  0  0
  -23.7336  -18.2775  146.3737 C   0  0  0  0  0  0  0  0  0  0  0  0
  -23.2769  -15.1496  144.5841 C   0  0  0  0  0  0  0  0  0  0  0  0
  -24.0862  -14.2431  145.3742 C   0  0  0  0  0  0  0  0  0  0  0  0
  -24.7183  -14.7375  146.5381 C   0  0  0  0  0  0  0  0  0  0  0  0
  -24.5256  -16.1192  146.8667 C   0  0  0  0  0  0  0  0  0  0  0  0
  -24.1215  -12.8263  145.0526 C   0  0  0  0  0  0  0  0  0  0  0  0
  -25.1007  -12.1908  145.1357 O   0  0  0  0  0  0  0  0  0  0  0  0
  -26.2490  -12.6339  145.2053 C   0  0  0  0  0  0  0  0  0  0  0  0
  -27.1149  -12.6170  144.2657 C   0  0  0  0  0  0  0  0  0  0  0  0
  -26.8546  -12.9695  143.0352 C   0  0  0  0  0  0  0  0  0  0  0  0
  -27.6653  -12.7499  141.8895 C   0  0  0  0  0  0  0  0  0  0  0  0
  -27.4410  -11.7637  141.0901 C   0  0  0  0  0  0  0  0  0  0  0  0
  -26.7543  -11.9998  139.8631 C   0  0  0  0  0  0  0  0  0  0  0  0
  -26.7191  -10.8787  138.9958 N   0  0  0  0  0  0  0  0  0  0  0  0
  -22.8447  -12.2363  144.9104 N   0  0  0  0  0  0  0  0  0  0  0  0
  -27.6973  -10.4028  141.3853 C   0  0  0  0  0  0  0  0  0  0  0  0
  -27.8532   -9.4223  140.4249 C   0  0  0  0  0  0  0  0  0  0  0  0
  -28.4498   -8.1353  140.6422 C   0  0  0  0  0  0  0  0  0  0  0  0
  -27.2389   -9.7175  139.2536 C   0  0  0  0  0  0  0  0  0  0  0  0
  -29.9082   -8.2195  140.6011 C   0  0  0  0  0  0  0  0  0  0  0  0
  -22.9204  -19.0169  146.4424 O   0  0  0  0  0  0  0  0  0  0  0  0
  -25.0588  -18.9160  146.4457 N   0  0  0  0  0  0  0  0  0  0  0  0
  -30.5488   -7.8570  141.8906 C   0  0  0  0  0  0  0  0  0  0  0  0
  -30.4783   -8.7491  142.9742 C   0  0  0  0  0  0  0  0  0  0  0  0
  -29.4177   -9.1030  143.4326 C   0  0  0  0  0  0  0  0  0  0  0  0
  -29.3762   -9.9396  144.6902 C   0  0  0  0  0  0  0  0  0  0  0  0
  -30.2719   -9.7249  145.6780 C   0  0  0  0  0  0  0  0  0  0  0  0
  -30.2005  -10.7174  146.7146 C   0  0  0  0  0  0  0  0  0  0  0  0
  -29.2564  -11.7867  146.7076 C   0  0  0  0  0  0  0  0  0  0  0  0
  -29.3118  -12.6739  147.8490 C   0  0  0  0  0  0  0  0  0  0  0  0
  -30.4311  -12.8427  148.6171 C   0  0  0  0  0  0  0  0  0  0  0  0
  -26.2936  -13.0575  139.4648 O   0  0  0  0  0  0  0  0  0  0  0  0
  -31.3748  -11.8201  148.7106 C   0  0  0  0  0  0  0  0  0  0  0  0
  2  3  1  0
  5  8  1  0
  8  9  1  0
  9 10  1  0
 10 11  1  0
 11 12  2  3
 12 13  1  0
 14 15  1  0
 15 16  1  0
  8 17  2  0
 14 18  1  0
 19 20  1  0
 19 21  1  0
 20 22  1  0
  3 23  2  0
  3 24  1  0
 22 25  1  0
 25 26  1  0
 26 27  1  0
 27 28  1  0
 28 29  2  3
 29 30  1  0
 30 31  2  3
 31 32  1  0
 32 33  1  0
 15 34  2  0
 33 35  2  0
 13 14  1  0
 18 19  1  0
 21 16  1  0
  1  2  2  0
  2  7  1  0
  7  6  2  0
  6  5  1  0
  5  4  2  0
  4  1  1  0
M  END

$$$$
No_1071-/dssg/home/sw_qyf/PocketFlow/Model-Generation-Results/5HT2A_7WC7_rec_A_10.pdb/2024-01-01-03-54-21/
     RDKit          3D

 32 35  0  0  0  0  0  0  0  0999 V2000
  -24.1553  -17.8465  145.7021 C   0  0  0  0  0  0  0  0  0  0  0  0
  -24.2856  -16.6364  145.3494 C   0  0  0  0  0  0  0  0  0  0  0  0
  -25.0033  -15.6772  146.0737 C   0  0  0  0  0  0  0  0  0  0  0  0
  -25.1197  -14.2835  145.7299 C   0  0  0  0  0  0  0  0  0  0  0  0
  -24.2707  -13.8793  144.6500 C   0  0  0  0  0  0  0  0  0  0  0  0
  -24.8686  -18.3355  146.8179 C   0  0  0  0  0  0  0  0  0  0  0  0
  -23.4213  -14.7686  144.0334 C   0  0  0  0  0  0  0  0  0  0  0  0
  -23.3932  -16.0844  144.3175 C   0  0  0  0  0  0  0  0  0  0  0  0
  -25.6441  -17.4724  147.5881 C   0  0  0  0  0  0  0  0  0  0  0  0
  -25.7767  -16.1272  147.2748 C   0  0  0  0  0  0  0  0  0  0  0  0
  -25.9337  -13.3425  146.4506 C   0  0  0  0  0  0  0  0  0  0  0  0
  -25.5213  -11.9565  146.4655 C   0  0  0  0  0  0  0  0  0  0  0  0
  -25.8954  -11.2687  145.1713 C   0  0  0  0  0  0  0  0  0  0  0  0
  -27.1520  -11.3470  144.7452 C   0  0  0  0  0  0  0  0  0  0  0  0
  -28.1238  -11.9726  145.2920 C   0  0  0  0  0  0  0  0  0  0  0  0
  -29.5015  -11.6559  144.9137 C   0  0  0  0  0  0  0  0  0  0  0  0
  -29.6493  -10.5984  144.0192 C   0  0  0  0  0  0  0  0  0  0  0  0
  -28.6393   -9.9824  143.3878 C   0  0  0  0  0  0  0  0  0  0  0  0
  -27.4079  -10.1690  143.8247 C   0  0  0  0  0  0  0  0  0  0  0  0
  -28.9341   -8.8627  142.4992 C   0  0  0  0  0  0  0  0  0  0  0  0
  -28.9239   -9.2534  141.0792 C   0  0  0  0  0  0  0  0  0  0  0  0
  -29.1299   -8.2630  140.1098 C   0  0  0  0  0  0  0  0  0  0  0  0
  -29.6448   -7.0087  140.5516 C   0  0  0  0  0  0  0  0  0  0  0  0
  -29.4426   -7.5998  142.7904 C   0  0  0  0  0  0  0  0  0  0  0  0
  -29.6856   -6.6662  141.8608 C   0  0  0  0  0  0  0  0  0  0  0  0
  -28.9139   -8.5561  138.7443 C   0  0  0  0  0  0  0  0  0  0  0  0
  -27.8515   -8.7047  138.1113 N   0  0  0  0  0  0  0  0  0  0  0  0
  -29.8078   -7.9350  137.9582 O   0  0  0  0  0  0  0  0  0  0  0  0
  -24.8862  -10.6606  144.6900 O   0  0  0  0  0  0  0  0  0  0  0  0
  -23.5366  -18.7890  145.0198 O   0  0  0  0  0  0  0  0  0  0  0  0
  -28.5155  -10.3639  140.7481 F   0  0  0  0  0  0  0  0  0  0  0  0
  -22.5378  -14.2084  143.1909 O   0  0  0  0  0  0  0  0  0  0  0  0
  4 11  1  0
 11 12  1  0
 12 13  1  0
 13 14  1  0
 18 20  1  0
 22 26  1  0
 26 27  1  0
 26 28  2  0
 13 29  2  0
  1 30  1  0
 21 31  1  0
  7 32  1  0
  1  2  2  0
  3 10  2  0
 10  9  1  0
  9  6  2  0
  6  1  1  0
 20 21  2  0
 21 22  1  0
 22 23  2  0
 23 25  1  0
 25 24  2  0
 24 20  1  0
  2  3  1  0
  3  4  1  0
  4  5  2  0
  5  7  1  0
  7  8  2  0
  8  2  1  0
 14 15  2  0
 15 16  1  0
 16 17  2  0
 17 18  1  0
 18 19  2  0
 19 14  1  0
M  END

$$$$
No_1072-/dssg/home/sw_qyf/PocketFlow/Model-Generation-Results/5HT2A_7WC7_rec_A_10.pdb/2024-01-01-03-54-21/
     RDKit          3D

 13 13  0  0  0  0  0  0  0  0999 V2000
  -24.1553  -17.8465  145.7021 C   0  0  0  0  0  0  0  0  0  0  0  0
  -23.9795  -18.4462  146.7426 C   0  0  0  0  0  0  0  0  0  0  0  0
  -25.1593  -16.8262  145.6925 C   0  0  0  0  0  0  0  0  0  0  0  0
  -24.9465  -15.5961  144.9952 C   0  0  0  0  0  0  0  0  0  0  0  0
  -25.8339  -14.4742  145.0599 C   0  0  0  0  0  0  0  0  0  0  0  0
  -27.0182  -14.6297  145.8322 C   0  0  0  0  0  0  0  0  0  0  0  0
  -27.2859  -15.8685  146.4498 C   0  0  0  0  0  0  0  0  0  0  0  0
  -26.3483  -16.9196  146.4585 C   0  0  0  0  0  0  0  0  0  0  0  0
  -24.0317  -17.7397  148.0660 C   0  0  0  0  0  0  0  0  0  0  0  0
  -23.5423  -17.1207  148.9593 C   0  0  0  0  0  0  0  0  0  0  0  0
  -24.0081  -16.8901  150.2623 C   0  0  0  0  0  0  0  0  0  0  0  0
  -25.4060  -17.2554  150.5130 C   0  0  0  0  0  0  0  0  0  0  0  0
  -26.1469  -17.6651  149.4496 C   0  0  0  0  0  0  0  0  0  0  0  0
  1  2  1  0
  1  3  1  0
  2  9  1  0
  9 10  3  0
 10 11  1  0
 11 12  2  3
 12 13  1  0
  3  4  2  0
  4  5  1  0
  5  6  2  0
  6  7  1  0
  7  8  2  0
  8  3  1  0
M  END

$$$$
No_1073-/dssg/home/sw_qyf/PocketFlow/Model-Generation-Results/5HT2A_7WC7_rec_A_10.pdb/2024-01-01-03-54-21/
     RDKit          3D

 29 33  0  0  0  0  0  0  0  0999 V2000
  -24.1553  -17.8465  145.7021 C   0  0  0  0  0  0  0  0  0  0  0  0
  -24.2856  -16.6364  145.3494 C   0  0  0  0  0  0  0  0  0  0  0  0
  -25.0033  -15.6772  146.0737 C   0  0  0  0  0  0  0  0  0  0  0  0
  -25.6964  -16.1810  147.2049 C   0  0  0  0  0  0  0  0  0  0  0  0
  -24.8143  -18.3454  146.8324 C   0  0  0  0  0  0  0  0  0  0  0  0
  -25.5291  -17.4614  147.6373 C   0  0  0  0  0  0  0  0  0  0  0  0
  -23.6541  -16.0768  144.2055 N   0  0  0  0  0  0  0  0  0  0  0  0
  -25.1820  -14.2638  145.6423 C   0  0  0  0  0  0  0  0  0  0  0  0
  -24.4786  -13.7943  144.6613 C   0  0  0  0  0  0  0  0  0  0  0  0
  -23.5406  -14.5041  144.1143 C   0  0  0  0  0  0  0  0  0  0  0  0
  -25.9789  -13.3586  146.5723 C   0  0  0  0  0  0  0  0  0  0  0  0
  -25.5889  -11.9799  146.5422 C   0  0  0  0  0  0  0  0  0  0  0  0
  -25.4098  -11.4625  145.2457 C   0  0  0  0  0  0  0  0  0  0  0  0
  -24.3403  -12.2220  144.5130 C   0  0  0  0  0  0  0  0  0  0  0  0
  -26.6463  -11.0022  144.5534 C   0  0  0  0  0  0  0  0  0  0  0  0
  -27.5619  -11.5683  144.0516 C   0  0  0  0  0  0  0  0  0  0  0  0
  -28.6663  -10.8695  143.4388 C   0  0  0  0  0  0  0  0  0  0  0  0
  -29.8310  -10.9439  143.8566 C   0  0  0  0  0  0  0  0  0  0  0  0
  -30.8859   -9.9418  143.4814 C   0  0  0  0  0  0  0  0  0  0  0  0
  -30.5363   -9.0819  142.4356 C   0  0  0  0  0  0  0  0  0  0  0  0
  -29.2573   -9.0459  141.9137 C   0  0  0  0  0  0  0  0  0  0  0  0
  -28.2938   -9.9725  142.4338 C   0  0  0  0  0  0  0  0  0  0  0  0
  -31.4408   -8.2873  141.9074 F   0  0  0  0  0  0  0  0  0  0  0  0
  -29.0146   -7.9840  141.0005 C   0  0  0  0  0  0  0  0  0  0  0  0
  -28.4672   -8.3862  139.7359 C   0  0  0  0  0  0  0  0  0  0  0  0
  -28.0304   -9.6382  139.3650 C   0  0  0  0  0  0  0  0  0  0  0  0
  -27.2123  -10.4096  140.2224 C   0  0  0  0  0  0  0  0  0  0  0  0
  -27.6836  -10.8852  141.5559 C   0  0  0  0  0  0  0  0  0  0  0  0
  -28.2264   -7.4406  138.7861 N   0  0  0  0  0  0  0  0  0  0  0  0
 13 15  1  0
 15 16  2  3
 16 17  1  0
 20 23  1  0
 21 24  1  0
 24 25  2  0
 25 26  1  0
 26 27  1  0
 22 28  1  0
 27 28  1  0
 25 29  1  0
 17 18  2  0
 18 19  1  0
 19 20  2  0
 20 21  1  0
 21 22  2  0
 22 17  1  0
  9 14  2  0
 14 13  1  0
 13 12  2  0
 12 11  1  0
 11  8  2  0
  1  2  2  0
  3  4  2  0
  4  6  1  0
  6  5  2  0
  5  1  1  0
  2  3  1  0
  3  8  1  0
  8  9  1  0
  9 10  1  0
 10  7  2  0
  7  2  1  0
M  END

$$$$
No_1074-/dssg/home/sw_qyf/PocketFlow/Model-Generation-Results/5HT2A_7WC7_rec_A_10.pdb/2024-01-01-03-54-21/
     RDKit          3D

  7  7  0  0  0  0  0  0  0  0999 V2000
  -23.8931  -18.2534  145.3804 F   0  0  0  0  0  0  0  0  0  0  0  0
  -24.3394  -17.2619  146.1054 C   0  0  0  0  0  0  0  0  0  0  0  0
  -24.5544  -17.4430  147.4759 C   0  0  0  0  0  0  0  0  0  0  0  0
  -24.5412  -15.9711  145.4988 C   0  0  0  0  0  0  0  0  0  0  0  0
  -24.9437  -14.8222  146.2134 C   0  0  0  0  0  0  0  0  0  0  0  0
  -24.9780  -16.2156  148.2388 C   0  0  0  0  0  0  0  0  0  0  0  0
  -25.1442  -15.0067  147.6730 C   0  0  0  0  0  0  0  0  0  0  0  0
  1  2  1  0
  2  3  2  0
  3  6  1  0
  6  7  2  0
  7  5  1  0
  5  4  2  0
  4  2  1  0
M  END

$$$$
No_1075-/dssg/home/sw_qyf/PocketFlow/Model-Generation-Results/5HT2A_7WC7_rec_A_10.pdb/2024-01-01-03-54-21/
     RDKit          3D

 19 20  0  0  0  0  0  0  0  0999 V2000
  -24.1553  -17.8465  145.7021 C   0  0  0  0  0  0  0  0  0  0  0  0
  -24.6364  -17.2931  146.7091 C   0  0  0  0  0  0  0  0  0  0  0  0
  -25.8608  -16.5592  146.5934 C   0  0  0  0  0  0  0  0  0  0  0  0
  -26.9933  -16.9082  147.1889 C   0  0  0  0  0  0  0  0  0  0  0  0
  -28.2114  -16.1477  146.9896 C   0  0  0  0  0  0  0  0  0  0  0  0
  -28.1869  -14.8900  146.3591 C   0  0  0  0  0  0  0  0  0  0  0  0
  -26.9306  -14.4696  145.8021 C   0  0  0  0  0  0  0  0  0  0  0  0
  -26.8093  -13.2394  145.0985 C   0  0  0  0  0  0  0  0  0  0  0  0
  -25.7312  -15.3089  145.9745 C   0  0  0  0  0  0  0  0  0  0  0  0
  -26.6062  -13.2415  143.8470 C   0  0  0  0  0  0  0  0  0  0  0  0
  -27.1085  -12.2443  142.9405 C   0  0  0  0  0  0  0  0  0  0  0  0
  -27.2596  -12.5084  141.5398 C   0  0  0  0  0  0  0  0  0  0  0  0
  -27.9939  -11.7528  140.6855 C   0  0  0  0  0  0  0  0  0  0  0  0
  -28.5533  -10.5412  141.2455 C   0  0  0  0  0  0  0  0  0  0  0  0
  -28.4697  -10.2833  142.6507 C   0  0  0  0  0  0  0  0  0  0  0  0
  -27.7512  -11.1656  143.4633 C   0  0  0  0  0  0  0  0  0  0  0  0
  -24.0010  -17.4858  148.0488 C   0  0  0  0  0  0  0  0  0  0  0  0
  -24.5235  -17.3069  149.1969 N   0  0  0  0  0  0  0  0  0  0  0  0
  -23.8165  -17.3550  150.3518 C   0  0  0  0  0  0  0  0  0  0  0  0
  1  2  1  0
  2  3  1  0
  7  8  1  0
  8 10  2  3
 10 11  1  0
  2 17  1  0
 17 18  1  0
 18 19  1  0
 11 12  2  0
 12 13  1  0
 13 14  2  0
 14 15  1  0
 15 16  2  0
 16 11  1  0
  3  4  2  0
  4  5  1  0
  5  6  2  0
  6  7  1  0
  7  9  2  0
  9  3  1  0
M  END

$$$$
No_1076-/dssg/home/sw_qyf/PocketFlow/Model-Generation-Results/5HT2A_7WC7_rec_A_10.pdb/2024-01-01-03-54-21/
     RDKit          3D

  8  8  0  0  0  0  0  0  0  0999 V2000
  -24.1553  -17.8465  145.7021 C   0  0  0  0  0  0  0  0  0  0  0  0
  -24.6364  -17.2931  146.7091 C   0  0  0  0  0  0  0  0  0  0  0  0
  -24.0780  -17.2921  147.9389 C   0  0  0  0  0  0  0  0  0  0  0  0
  -24.3226  -16.7243  148.9587 C   0  0  0  0  0  0  0  0  0  0  0  0
  -25.7690  -16.1910  149.0219 C   0  0  0  0  0  0  0  0  0  0  0  0
  -26.5042  -16.3022  147.8715 C   0  0  0  0  0  0  0  0  0  0  0  0
  -25.9312  -16.8728  146.7789 C   0  0  0  0  0  0  0  0  0  0  0  0
  -23.3146  -17.0739  145.0188 N   0  0  0  0  0  0  0  0  0  0  0  0
  1  2  1  0
  1  8  1  0
  2  3  2  0
  3  4  1  0
  4  5  2  0
  5  6  1  0
  6  7  2  0
  7  2  1  0
M  END

$$$$
No_1077-/dssg/home/sw_qyf/PocketFlow/Model-Generation-Results/5HT2A_7WC7_rec_A_10.pdb/2024-01-01-03-54-21/
     RDKit          3D

 35 38  0  0  0  0  0  0  0  0999 V2000
  -24.1553  -17.8465  145.7021 C   0  0  0  0  0  0  0  0  0  0  0  0
  -23.9795  -18.4462  146.7426 C   0  0  0  0  0  0  0  0  0  0  0  0
  -25.1196  -16.8106  145.6409 C   0  0  0  0  0  0  0  0  0  0  0  0
  -25.2440  -15.8776  144.5240 C   0  0  0  0  0  0  0  0  0  0  0  0
  -26.0733  -14.7284  144.7061 C   0  0  0  0  0  0  0  0  0  0  0  0
  -27.0531  -14.7202  145.7229 C   0  0  0  0  0  0  0  0  0  0  0  0
  -27.9928  -13.6627  145.7972 C   0  0  0  0  0  0  0  0  0  0  0  0
  -27.7978  -12.5029  145.0163 C   0  0  0  0  0  0  0  0  0  0  0  0
  -28.6081  -11.3189  145.2602 C   0  0  0  0  0  0  0  0  0  0  0  0
  -28.3483  -10.1684  144.5479 C   0  0  0  0  0  0  0  0  0  0  0  0
  -24.5947  -18.0663  148.0039 C   0  0  0  0  0  0  0  0  0  0  0  0
  -25.4521  -16.9682  148.0543 C   0  0  0  0  0  0  0  0  0  0  0  0
  -25.6582  -16.2338  146.8943 C   0  0  0  0  0  0  0  0  0  0  0  0
  -26.6644  -15.2687  146.8841 C   0  0  0  0  0  0  0  0  0  0  0  0
  -28.6301  -10.1236  143.3819 C   0  0  0  0  0  0  0  0  0  0  0  0
  -27.8924  -11.0554  142.5066 C   0  0  0  0  0  0  0  0  0  0  0  0
  -28.2246  -11.0082  141.0899 C   0  0  0  0  0  0  0  0  0  0  0  0
  -27.8222  -11.9803  140.1973 C   0  0  0  0  0  0  0  0  0  0  0  0
  -26.6110  -11.7364  139.4152 C   0  0  0  0  0  0  0  0  0  0  0  0
  -26.7989  -11.2200  138.4914 O   0  0  0  0  0  0  0  0  0  0  0  0
  -29.4536   -9.1820  142.7542 C   0  0  0  0  0  0  0  0  0  0  0  0
  -30.7464   -9.0963  143.2475 C   0  0  0  0  0  0  0  0  0  0  0  0
  -31.7435   -8.2585  142.6030 C   0  0  0  0  0  0  0  0  0  0  0  0
  -31.3503   -7.3785  142.0757 O   0  0  0  0  0  0  0  0  0  0  0  0
  -26.3307  -13.8946  143.4794 C   0  0  0  0  0  0  0  0  0  0  0  0
  -26.8891  -12.6128  143.8796 C   0  0  0  0  0  0  0  0  0  0  0  0
  -27.1022  -11.6013  142.8551 C   0  0  0  0  0  0  0  0  0  0  0  0
  -30.7422   -8.7150  144.6692 O   0  0  0  0  0  0  0  0  0  0  0  0
  -25.6463  -12.6687  139.4991 O   0  0  0  0  0  0  0  0  0  0  0  0
  -23.7072  -18.2275  144.5728 O   0  0  0  0  0  0  0  0  0  0  0  0
  -26.0184  -16.6708  149.2484 O   0  0  0  0  0  0  0  0  0  0  0  0
  -29.1225  -13.7952  146.6844 C   0  0  0  0  0  0  0  0  0  0  0  0
  -29.3478  -13.6300  147.9341 N   0  0  0  0  0  0  0  0  0  0  0  0
  -30.4289  -13.8357  148.7511 C   0  0  0  0  0  0  0  0  0  0  0  0
  -31.4640  -12.8585  148.4879 C   0  0  0  0  0  0  0  0  0  0  0  0
  9 10  1  0
 10 15  1  0
 15 16  1  0
 16 17  1  0
 17 18  1  0
 18 19  1  0
 19 20  1  0
 15 21  1  0
 21 22  1  0
 22 23  1  0
 23 24  1  0
 16 27  1  0
 26 27  1  0
 22 28  1  0
 19 29  2  0
  1 30  1  0
 12 31  1  0
  7 32  1  0
 32 33  1  0
 33 34  1  0
 34 35  1  0
  9  8  1  0
  3  4  2  0
  4  5  1  0
  6 14  1  0
 14 13  2  0
  5  6  2  0
  6  7  1  0
  7  8  2  0
  8 26  1  0
 26 25  2  0
 25  5  1  0
  1  2  2  0
  2 11  1  0
 11 12  2  0
 12 13  1  0
 13  3  1  0
  3  1  1  0
M  END

$$$$
No_1078-/dssg/home/sw_qyf/PocketFlow/Model-Generation-Results/5HT2A_7WC7_rec_A_10.pdb/2024-01-01-03-54-21/
     RDKit          3D

  4  3  0  0  0  0  0  0  0  0999 V2000
  -24.1014  -18.6942  145.5347 P   0  0  0  0  0  0  0  0  0  0  0  0
  -23.2274  -18.0838  145.5914 O   0  0  0  0  0  0  0  0  0  0  0  0
  -25.4014  -17.9086  145.5866 O   0  0  0  0  0  0  0  0  0  0  0  0
  -24.3111  -20.1198  145.3703 O   0  0  0  0  0  0  0  0  0  0  0  0
  1  2  1  0
  1  3  1  0
  1  4  2  0
M  END

$$$$
No_1079-/dssg/home/sw_qyf/PocketFlow/Model-Generation-Results/5HT2A_7WC7_rec_A_10.pdb/2024-01-01-03-54-21/
     RDKit          3D

 23 25  0  0  0  0  0  0  0  0999 V2000
  -24.1553  -17.8465  145.7021 C   0  0  0  0  0  0  0  0  0  0  0  0
  -24.2856  -16.6364  145.3494 C   0  0  0  0  0  0  0  0  0  0  0  0
  -24.5733  -15.7651  145.9979 C   0  0  0  0  0  0  0  0  0  0  0  0
  -25.1772  -15.7608  146.8967 C   0  0  0  0  0  0  0  0  0  0  0  0
  -24.7491  -18.1486  146.9814 C   0  0  0  0  0  0  0  0  0  0  0  0
  -25.2478  -17.0667  147.7031 C   0  0  0  0  0  0  0  0  0  0  0  0
  -24.5930  -14.1936  145.3883 C   0  0  0  0  0  0  0  0  0  0  0  0
  -23.3620  -13.8096  144.6990 C   0  0  0  0  0  0  0  0  0  0  0  0
  -25.2211  -13.1490  146.0722 C   0  0  0  0  0  0  0  0  0  0  0  0
  -25.2951  -11.8557  145.6507 C   0  0  0  0  0  0  0  0  0  0  0  0
  -26.2130  -11.5796  144.9085 C   0  0  0  0  0  0  0  0  0  0  0  0
  -27.1288  -12.3487  144.5165 C   0  0  0  0  0  0  0  0  0  0  0  0
  -28.2298  -11.8767  143.6547 C   0  0  0  0  0  0  0  0  0  0  0  0
  -28.7708  -10.9326  143.7088 C   0  0  0  0  0  0  0  0  0  0  0  0
  -29.8427  -10.4127  142.9011 C   0  0  0  0  0  0  0  0  0  0  0  0
  -29.8050   -8.9970  142.3487 C   0  0  0  0  0  0  0  0  0  0  0  0
  -30.2745   -8.0240  143.1090 C   0  0  0  0  0  0  0  0  0  0  0  0
  -30.0673   -6.6501  142.6756 C   0  0  0  0  0  0  0  0  0  0  0  0
  -29.5190   -6.4440  141.3985 C   0  0  0  0  0  0  0  0  0  0  0  0
  -29.1517   -7.5254  140.6001 C   0  0  0  0  0  0  0  0  0  0  0  0
  -29.2542   -8.8378  141.1540 C   0  0  0  0  0  0  0  0  0  0  0  0
  -28.0362   -9.7911  144.5441 C   0  0  0  0  0  0  0  0  0  0  0  0
  -26.8133  -10.1419  145.2008 C   0  0  0  0  0  0  0  0  0  0  0  0
  3  7  1  0
  7  8  2  0
  7  9  1  0
  9 10  1  0
 10 11  1  0
 14 15  1  0
 15 16  1  0
 16 17  2  0
 17 18  1  0
 18 19  2  0
 19 20  1  0
 20 21  2  0
 21 16  1  0
  1  2  2  0
  2  3  1  0
  3  4  2  0
  4  6  1  0
  6  5  2  0
  5  1  1  0
 11 12  2  0
 12 13  1  0
 13 14  2  0
 14 22  1  0
 22 23  2  0
 23 11  1  0
M  END

$$$$
No_1080-/dssg/home/sw_qyf/PocketFlow/Model-Generation-Results/5HT2A_7WC7_rec_A_10.pdb/2024-01-01-03-54-21/
     RDKit          3D

 29 29  0  0  0  0  0  0  0  0999 V2000
  -24.1553  -17.8465  145.7021 C   0  0  0  0  0  0  0  0  0  0  0  0
  -23.9795  -18.4462  146.7426 C   0  0  0  0  0  0  0  0  0  0  0  0
  -23.2486  -17.2339  144.9771 C   0  0  0  0  0  0  0  0  0  0  0  0
  -23.7029  -16.0889  144.1444 C   0  0  0  0  0  0  0  0  0  0  0  0
  -24.9153  -15.3500  144.6726 C   0  0  0  0  0  0  0  0  0  0  0  0
  -25.7330  -15.8897  145.6045 C   0  0  0  0  0  0  0  0  0  0  0  0
  -25.3143  -17.1420  146.2258 C   0  0  0  0  0  0  0  0  0  0  0  0
  -26.9790  -15.2586  145.9847 C   0  0  0  0  0  0  0  0  0  0  0  0
  -27.2362  -13.9270  145.7790 C   0  0  0  0  0  0  0  0  0  0  0  0
  -26.4254  -13.0763  145.0152 C   0  0  0  0  0  0  0  0  0  0  0  0
  -26.8182  -11.6759  144.9710 C   0  0  0  0  0  0  0  0  0  0  0  0
  -25.8835  -10.6588  144.7189 C   0  0  0  0  0  0  0  0  0  0  0  0
  -28.1313  -11.4830  144.1789 C   0  0  0  0  0  0  0  0  0  0  0  0
  -29.1766  -10.9101  144.9420 C   0  0  0  0  0  0  0  0  0  0  0  0
  -30.0225   -9.8859  144.4513 C   0  0  0  0  0  0  0  0  0  0  0  0
  -30.9988   -9.4129  145.0939 O   0  0  0  0  0  0  0  0  0  0  0  0
  -30.0346   -9.7001  143.0836 N   0  0  0  0  0  0  0  0  0  0  0  0
  -30.8956   -8.7671  142.4683 C   0  0  0  0  0  0  0  0  0  0  0  0
  -30.2038   -7.9756  141.4200 C   0  0  0  0  0  0  0  0  0  0  0  0
  -30.0976   -8.4866  140.0798 C   0  0  0  0  0  0  0  0  0  0  0  0
  -28.7403   -8.0885  139.4713 C   0  0  0  0  0  0  0  0  0  0  0  0
  -28.1505   -9.0026  138.6630 C   0  0  0  0  0  0  0  0  0  0  0  0
  -23.4966  -18.1194  147.7939 O   0  0  0  0  0  0  0  0  0  0  0  0
  -24.6330  -19.6498  146.8864 O   0  0  0  0  0  0  0  0  0  0  0  0
  -28.0447  -16.1265  146.3945 C   0  0  0  0  0  0  0  0  0  0  0  0
  -27.9948  -10.3285  139.0471 C   0  0  0  0  0  0  0  0  0  0  0  0
  -28.2000  -11.4620  138.3881 C   0  0  0  0  0  0  0  0  0  0  0  0
  -27.8979  -12.6343  139.1250 N   0  0  0  0  0  0  0  0  0  0  0  0
  -27.5019  -12.1023  140.3450 C   0  0  0  0  0  0  0  0  0  0  0  0
  1  2  1  0
  6  8  1  0
  8  9  2  3
  9 10  1  0
 10 11  1  0
 11 12  1  0
 11 13  1  0
 13 14  1  0
 14 15  1  0
 15 16  2  0
 15 17  1  0
 17 18  1  0
 18 19  1  0
 19 20  1  0
 20 21  2  3
 21 22  1  0
  2 23  2  0
  2 24  1  0
  8 25  1  0
 22 26  2  3
 26 27  1  0
 27 28  1  0
 28 29  2  0
  1  3  2  0
  3  4  1  0
  4  5  2  0
  5  6  1  0
  6  7  2  0
  7  1  1  0
M  END

$$$$
No_1081-/dssg/home/sw_qyf/PocketFlow/Model-Generation-Results/5HT2A_7WC7_rec_A_10.pdb/2024-01-01-03-54-21/
     RDKit          3D

 19 19  0  0  0  0  0  0  0  0999 V2000
  -24.1553  -17.8465  145.7021 C   0  0  0  0  0  0  0  0  0  0  0  0
  -24.6364  -17.2931  146.7091 C   0  0  0  0  0  0  0  0  0  0  0  0
  -25.8608  -16.5592  146.5934 C   0  0  0  0  0  0  0  0  0  0  0  0
  -26.9933  -16.9082  147.1889 C   0  0  0  0  0  0  0  0  0  0  0  0
  -28.0267  -15.9443  147.2666 C   0  0  0  0  0  0  0  0  0  0  0  0
  -27.7859  -14.6750  147.0019 C   0  0  0  0  0  0  0  0  0  0  0  0
  -26.5697  -14.1985  146.5177 C   0  0  0  0  0  0  0  0  0  0  0  0
  -26.3019  -12.8595  146.1826 C   0  0  0  0  0  0  0  0  0  0  0  0
  -25.5646  -15.1313  146.3483 C   0  0  0  0  0  0  0  0  0  0  0  0
  -27.1499  -11.8599  145.7568 C   0  0  0  0  0  0  0  0  0  0  0  0
  -26.6781  -10.7527  144.9982 C   0  0  0  0  0  0  0  0  0  0  0  0
  -27.5999   -9.8046  144.4932 C   0  0  0  0  0  0  0  0  0  0  0  0
  -29.0205  -10.0237  144.5516 C   0  0  0  0  0  0  0  0  0  0  0  0
  -29.9388   -9.1319  144.0354 C   0  0  0  0  0  0  0  0  0  0  0  0
  -29.5279   -8.1535  143.1096 C   0  0  0  0  0  0  0  0  0  0  0  0
  -30.4126   -7.7433  142.1325 C   0  0  0  0  0  0  0  0  0  0  0  0
  -31.4858   -8.5969  141.9434 C   0  0  0  0  0  0  0  0  0  0  0  0
  -23.5109  -16.8462  147.6829 C   0  0  0  0  0  0  0  0  0  0  0  0
  -29.3570  -11.2709  145.2601 C   0  0  0  0  0  0  0  0  0  0  0  0
  1  2  1  0
  2  3  1  0
  8 10  1  0
 10 11  2  3
 11 12  1  0
 12 13  2  3
 13 14  1  0
 14 15  1  0
 15 16  1  0
 16 17  1  0
  2 18  1  0
 13 19  1  0
  8  7  1  0
  3  4  2  0
  4  5  1  0
  5  6  2  0
  6  7  1  0
  7  9  2  0
  9  3  1  0
M  END

$$$$
No_1082-/dssg/home/sw_qyf/PocketFlow/Model-Generation-Results/5HT2A_7WC7_rec_A_10.pdb/2024-01-01-03-54-21/
     RDKit          3D

 33 37  0  0  0  0  0  0  0  0999 V2000
  -24.1553  -17.8465  145.7021 C   0  0  0  0  0  0  0  0  0  0  0  0
  -23.9795  -18.4462  146.7426 C   0  0  0  0  0  0  0  0  0  0  0  0
  -24.2723  -16.4220  145.8037 C   0  0  0  0  0  0  0  0  0  0  0  0
  -24.0151  -15.5895  144.6874 C   0  0  0  0  0  0  0  0  0  0  0  0
  -24.0834  -17.9646  148.0883 C   0  0  0  0  0  0  0  0  0  0  0  0
  -24.2949  -16.5690  148.2409 C   0  0  0  0  0  0  0  0  0  0  0  0
  -24.3289  -15.7594  147.1024 C   0  0  0  0  0  0  0  0  0  0  0  0
  -24.2510  -14.2800  144.7510 N   0  0  0  0  0  0  0  0  0  0  0  0
  -25.3338  -13.6446  145.0493 C   0  0  0  0  0  0  0  0  0  0  0  0
  -25.1272  -12.3383  145.5765 C   0  0  0  0  0  0  0  0  0  0  0  0
  -26.1851  -11.6069  146.3227 C   0  0  0  0  0  0  0  0  0  0  0  0
  -27.3075  -11.5696  145.6312 C   0  0  0  0  0  0  0  0  0  0  0  0
  -26.6255  -14.1322  144.8608 C   0  0  0  0  0  0  0  0  0  0  0  0
  -27.8228  -11.4726  144.6638 C   0  0  0  0  0  0  0  0  0  0  0  0
  -29.0155  -10.5681  144.3768 C   0  0  0  0  0  0  0  0  0  0  0  0
  -29.1476   -9.8288  143.3422 C   0  0  0  0  0  0  0  0  0  0  0  0
  -28.5736  -10.3627  142.1297 C   0  0  0  0  0  0  0  0  0  0  0  0
  -28.7579   -9.7696  140.8566 C   0  0  0  0  0  0  0  0  0  0  0  0
  -28.6123   -8.5463  140.8310 C   0  0  0  0  0  0  0  0  0  0  0  0
  -28.7912   -7.8225  139.5238 C   0  0  0  0  0  0  0  0  0  0  0  0
  -28.0278  -11.6021  142.1411 C   0  0  0  0  0  0  0  0  0  0  0  0
  -27.4595  -12.1128  143.4529 C   0  0  0  0  0  0  0  0  0  0  0  0
  -28.4056   -8.4805  138.3528 C   0  0  0  0  0  0  0  0  0  0  0  0
  -28.1865   -9.8639  138.5145 C   0  0  0  0  0  0  0  0  0  0  0  0
  -28.2486  -10.4989  139.7062 C   0  0  0  0  0  0  0  0  0  0  0  0
  -27.3366  -13.5059  143.7353 C   0  0  0  0  0  0  0  0  0  0  0  0
  -23.0454  -13.4856  144.2717 C   0  0  0  0  0  0  0  0  0  0  0  0
  -29.8650   -8.7375  143.2920 O   0  0  0  0  0  0  0  0  0  0  0  0
  -31.1620   -8.6572  143.8393 C   0  0  0  0  0  0  0  0  0  0  0  0
  -31.9763   -7.7005  143.1024 C   0  0  0  0  0  0  0  0  0  0  0  0
  -23.7713  -11.8119  145.7199 C   0  0  0  0  0  0  0  0  0  0  0  0
  -22.7789  -12.4158  145.1421 N   0  0  0  0  0  0  0  0  0  0  0  0
  -28.3653   -7.8254  137.2832 O   0  0  0  0  0  0  0  0  0  0  0  0
  4  8  1  0
  8  9  1  0
  9 10  1  0
 10 11  2  3
 11 12  1  0
  9 13  1  0
 17 18  1  0
 13 26  1  0
 22 26  1  0
  8 27  1  0
 16 28  1  0
 28 29  1  0
 29 30  1  0
 10 31  1  0
 27 32  1  0
 31 32  1  0
 23 33  1  0
 12 14  1  0
  4  3  1  0
 18 19  2  0
 19 20  1  0
 20 23  2  0
 23 24  1  0
 24 25  2  0
 25 18  1  0
  1  2  2  0
  2  5  1  0
  5  6  2  0
  6  7  1  0
  7  3  2  0
  3  1  1  0
 14 15  2  0
 15 16  1  0
 16 17  2  0
 17 21  1  0
 21 22  2  0
 22 14  1  0
M  END

$$$$
No_1083-/dssg/home/sw_qyf/PocketFlow/Model-Generation-Results/5HT2A_7WC7_rec_A_10.pdb/2024-01-01-03-54-21/
     RDKit          3D

 14 15  0  0  0  0  0  0  0  0999 V2000
  -24.1553  -17.8465  145.7021 C   0  0  0  0  0  0  0  0  0  0  0  0
  -24.6364  -17.2931  146.7091 C   0  0  0  0  0  0  0  0  0  0  0  0
  -24.5709  -15.9334  146.8074 C   0  0  0  0  0  0  0  0  0  0  0  0
  -24.3883  -15.1807  145.6115 C   0  0  0  0  0  0  0  0  0  0  0  0
  -24.5560  -13.7894  145.5018 C   0  0  0  0  0  0  0  0  0  0  0  0
  -25.5487  -13.2157  146.2574 C   0  0  0  0  0  0  0  0  0  0  0  0
  -23.7338  -17.2189  144.5536 C   0  0  0  0  0  0  0  0  0  0  0  0
  -23.8904  -15.8128  144.5565 C   0  0  0  0  0  0  0  0  0  0  0  0
  -25.8252  -11.8028  146.1805 C   0  0  0  0  0  0  0  0  0  0  0  0
  -25.3696  -11.1519  144.9834 C   0  0  0  0  0  0  0  0  0  0  0  0
  -24.2063  -11.5793  144.4761 N   0  0  0  0  0  0  0  0  0  0  0  0
  -23.8972  -12.9297  144.5455 C   0  0  0  0  0  0  0  0  0  0  0  0
  -23.9962  -19.3893  145.6958 C   0  0  0  0  0  0  0  0  0  0  0  0
  -26.7182  -10.8354  143.8363 Cl  0  0  0  0  0  0  0  0  0  0  0  0
  1  2  1  0
  2  3  1  0
  3  4  1  0
  4  5  1  0
  1  7  1  0
  4  8  1  0
  7  8  1  0
  1 13  1  0
 10 14  1  0
  5  6  2  0
  6  9  1  0
  9 10  2  0
 10 11  1  0
 11 12  2  0
 12  5  1  0
M  END

$$$$
No_1084-/dssg/home/sw_qyf/PocketFlow/Model-Generation-Results/5HT2A_7WC7_rec_A_10.pdb/2024-01-01-03-54-21/
     RDKit          3D

 20 21  0  0  0  0  0  0  0  0999 V2000
  -23.1746  -16.6014  144.8668 C   0  0  0  0  0  0  0  0  0  0  0  0
  -23.7011  -17.0158  145.9774 C   0  0  0  0  0  0  0  0  0  0  0  0
  -23.7336  -18.2775  146.3737 C   0  0  0  0  0  0  0  0  0  0  0  0
  -24.1960  -18.6445  147.6858 C   0  0  0  0  0  0  0  0  0  0  0  0
  -24.6513  -17.5006  148.4909 C   0  0  0  0  0  0  0  0  0  0  0  0
  -24.7197  -16.1819  148.0625 C   0  0  0  0  0  0  0  0  0  0  0  0
  -24.1945  -15.9064  146.8364 C   0  0  0  0  0  0  0  0  0  0  0  0
  -23.8427  -16.4542  144.0167 F   0  0  0  0  0  0  0  0  0  0  0  0
  -25.2619  -17.8545  149.8747 C   0  0  0  0  0  0  0  0  0  0  0  0
  -24.5241  -17.7069  150.9770 N   0  0  0  0  0  0  0  0  0  0  0  0
  -22.2538  -17.5051  144.3264 F   0  0  0  0  0  0  0  0  0  0  0  0
  -26.4659  -18.0924  149.9386 O   0  0  0  0  0  0  0  0  0  0  0  0
  -24.2090  -14.5245  146.4075 C   0  0  0  0  0  0  0  0  0  0  0  0
  -24.8071  -13.5460  147.2282 C   0  0  0  0  0  0  0  0  0  0  0  0
  -24.8015  -12.1639  146.6993 C   0  0  0  0  0  0  0  0  0  0  0  0
  -24.4094  -11.8729  145.3811 C   0  0  0  0  0  0  0  0  0  0  0  0
  -23.8014  -12.9296  144.6792 C   0  0  0  0  0  0  0  0  0  0  0  0
  -23.7721  -14.1989  145.1079 C   0  0  0  0  0  0  0  0  0  0  0  0
  -22.3806  -15.5086  144.8688 F   0  0  0  0  0  0  0  0  0  0  0  0
  -25.0513  -14.4589  144.0979 C   0  0  0  0  0  0  0  0  0  0  0  0
  1  2  1  0
  1  8  1  0
  5  9  1  0
  9 10  1  0
  1 11  1  0
  9 12  2  0
  7 13  1  0
  1 19  1  0
 18 20  1  0
  2  3  2  0
  3  4  1  0
  4  5  2  0
  5  6  1  0
  6  7  2  0
  7  2  1  0
 13 14  2  0
 14 15  1  0
 15 16  2  0
 16 17  1  0
 17 18  2  0
 18 13  1  0
M  END

$$$$
No_1085-/dssg/home/sw_qyf/PocketFlow/Model-Generation-Results/5HT2A_7WC7_rec_A_10.pdb/2024-01-01-03-54-21/
     RDKit          3D

 16 16  0  0  0  0  0  0  0  0999 V2000
  -23.8931  -18.2534  145.3804 F   0  0  0  0  0  0  0  0  0  0  0  0
  -24.1483  -17.4442  146.3400 C   0  0  0  0  0  0  0  0  0  0  0  0
  -24.4181  -16.0969  145.9075 C   0  0  0  0  0  0  0  0  0  0  0  0
  -24.0234  -15.7071  144.6250 C   0  0  0  0  0  0  0  0  0  0  0  0
  -24.2232  -14.3188  144.2488 C   0  0  0  0  0  0  0  0  0  0  0  0
  -24.3218  -13.3935  145.4151 C   0  0  0  0  0  0  0  0  0  0  0  0
  -24.1774  -17.8345  147.5775 O   0  0  0  0  0  0  0  0  0  0  0  0
  -24.9955  -13.8987  146.6403 C   0  0  0  0  0  0  0  0  0  0  0  0
  -24.6227  -15.2282  147.0471 C   0  0  0  0  0  0  0  0  0  0  0  0
  -23.6608  -12.1257  145.4326 C   0  0  0  0  0  0  0  0  0  0  0  0
  -22.4057  -12.0119  145.4532 O   0  0  0  0  0  0  0  0  0  0  0  0
  -24.5074  -11.1163  145.2161 O   0  0  0  0  0  0  0  0  0  0  0  0
  -23.2365  -17.3712  148.4654 C   0  0  0  0  0  0  0  0  0  0  0  0
  -23.7050  -16.7107  149.7603 C   0  0  0  0  0  0  0  0  0  0  0  0
  -22.8576  -17.0822  150.9222 C   0  0  0  0  0  0  0  0  0  0  0  0
  -21.6057  -16.6764  150.9781 O   0  0  0  0  0  0  0  0  0  0  0  0
  1  2  1  0
  2  3  1  0
  2  7  1  0
  6 10  1  0
 10 11  1  0
 10 12  2  0
  7 13  1  0
 13 14  1  0
 14 15  1  0
 15 16  1  0
  3  4  2  0
  4  5  1  0
  5  6  2  0
  6  8  1  0
  8  9  2  0
  9  3  1  0
M  END

$$$$
No_1086-/dssg/home/sw_qyf/PocketFlow/Model-Generation-Results/5HT2A_7WC7_rec_A_10.pdb/2024-01-01-03-54-21/
     RDKit          3D

 16 17  0  0  0  0  0  0  0  0999 V2000
  -23.1746  -16.6014  144.8668 C   0  0  0  0  0  0  0  0  0  0  0  0
  -23.8963  -15.5346  144.7885 C   0  0  0  0  0  0  0  0  0  0  0  0
  -24.5755  -15.0383  145.9043 C   0  0  0  0  0  0  0  0  0  0  0  0
  -25.0618  -13.6819  146.0347 C   0  0  0  0  0  0  0  0  0  0  0  0
  -24.0242  -12.8249  145.9593 C   0  0  0  0  0  0  0  0  0  0  0  0
  -23.4085  -17.5675  145.8907 C   0  0  0  0  0  0  0  0  0  0  0  0
  -24.1896  -17.1707  147.0047 C   0  0  0  0  0  0  0  0  0  0  0  0
  -24.7247  -15.8941  147.1004 C   0  0  0  0  0  0  0  0  0  0  0  0
  -26.3540  -13.2621  146.1677 C   0  0  0  0  0  0  0  0  0  0  0  0
  -26.7195  -11.8998  146.1990 C   0  0  0  0  0  0  0  0  0  0  0  0
  -24.3699  -11.3722  145.9377 C   0  0  0  0  0  0  0  0  0  0  0  0
  -25.6543  -10.9688  146.0210 C   0  0  0  0  0  0  0  0  0  0  0  0
  -23.7505  -14.6471  143.8323 O   0  0  0  0  0  0  0  0  0  0  0  0
  -24.2734  -18.0763  148.1890 C   0  0  0  0  0  0  0  0  0  0  0  0
  -24.5545  -17.2422  149.5154 C   0  0  0  0  0  0  0  0  0  0  0  0
  -23.5525  -17.0831  150.4407 C   0  0  0  0  0  0  0  0  0  0  0  0
  3  4  1  0
  2 13  1  0
  7 14  1  0
 14 15  1  0
 15 16  2  0
  1  2  2  0
  2  3  1  0
  3  8  2  0
  8  7  1  0
  7  6  2  0
  6  1  1  0
  4  5  2  0
  5 11  1  0
 11 12  2  0
 12 10  1  0
 10  9  2  0
  9  4  1  0
M  END

$$$$
No_1087-/dssg/home/sw_qyf/PocketFlow/Model-Generation-Results/5HT2A_7WC7_rec_A_10.pdb/2024-01-01-03-54-21/
     RDKit          3D

 35 38  0  0  0  0  0  0  0  0999 V2000
  -23.1746  -16.6014  144.8668 C   0  0  0  0  0  0  0  0  0  0  0  0
  -24.0189  -16.0564  145.8445 C   0  0  0  0  0  0  0  0  0  0  0  0
  -24.4850  -14.7380  145.6359 C   0  0  0  0  0  0  0  0  0  0  0  0
  -25.2717  -14.0560  146.5949 C   0  0  0  0  0  0  0  0  0  0  0  0
  -25.5669  -12.6700  146.4456 C   0  0  0  0  0  0  0  0  0  0  0  0
  -25.1774  -11.9727  145.2644 C   0  0  0  0  0  0  0  0  0  0  0  0
  -24.2583  -12.6444  144.4323 C   0  0  0  0  0  0  0  0  0  0  0  0
  -23.9746  -14.0153  144.6649 C   0  0  0  0  0  0  0  0  0  0  0  0
  -24.4407  -16.8601  146.9515 C   0  0  0  0  0  0  0  0  0  0  0  0
  -25.1111  -16.6229  147.9710 C   0  0  0  0  0  0  0  0  0  0  0  0
  -25.2104  -17.3713  149.1832 C   0  0  0  0  0  0  0  0  0  0  0  0
  -24.3985  -18.2992  146.7477 C   0  0  0  0  0  0  0  0  0  0  0  0
  -25.4359  -10.6915  145.1414 O   0  0  0  0  0  0  0  0  0  0  0  0
  -26.2898  -10.4131  144.0903 C   0  0  0  0  0  0  0  0  0  0  0  0
  -27.6582  -10.4928  144.4828 C   0  0  0  0  0  0  0  0  0  0  0  0
  -28.6323   -9.8976  143.7087 C   0  0  0  0  0  0  0  0  0  0  0  0
  -28.4597   -9.5603  142.4593 C   0  0  0  0  0  0  0  0  0  0  0  0
  -27.7395  -10.3994  141.6168 C   0  0  0  0  0  0  0  0  0  0  0  0
  -29.3182   -8.5869  141.7513 C   0  0  0  0  0  0  0  0  0  0  0  0
  -30.4045   -7.9088  142.3874 C   0  0  0  0  0  0  0  0  0  0  0  0
  -31.2695   -8.5767  142.8564 C   0  0  0  0  0  0  0  0  0  0  0  0
  -30.9979   -9.2053  144.1963 N   0  0  0  0  0  0  0  0  0  0  0  0
  -30.0458  -10.1914  144.3534 C   0  0  0  0  0  0  0  0  0  0  0  0
  -28.6176   -8.0087  140.6098 C   0  0  0  0  0  0  0  0  0  0  0  0
  -29.3404   -6.9441  139.9711 C   0  0  0  0  0  0  0  0  0  0  0  0
  -27.8384   -8.8656  139.7708 C   0  0  0  0  0  0  0  0  0  0  0  0
  -27.5681   -8.5566  138.4314 C   0  0  0  0  0  0  0  0  0  0  0  0
  -27.3243  -10.1416  140.3683 C   0  0  0  0  0  0  0  0  0  0  0  0
  -24.7423  -16.9138  150.4469 C   0  0  0  0  0  0  0  0  0  0  0  0
  -30.0853  -10.9023  145.4097 O   0  0  0  0  0  0  0  0  0  0  0  0
  -24.2764  -18.8932  145.4590 C   0  0  0  0  0  0  0  0  0  0  0  0
  -23.2217  -18.1724  144.6825 C   0  0  0  0  0  0  0  0  0  0  0  0
  -23.4178  -16.3757  150.3824 C   0  0  0  0  0  0  0  0  0  0  0  0
  -22.3293  -17.4645  150.3981 C   0  0  0  0  0  0  0  0  0  0  0  0
  -26.8459   -9.0398  137.8819 F   0  0  0  0  0  0  0  0  0  0  0  0
  1  2  1  0
  2  3  1  0
  2  9  1  0
  9 10  2  3
 10 11  1  0
  9 12  1  0
  6 13  1  0
 13 14  1  0
 14 15  1  0
 15 16  1  0
 16 17  1  0
 19 20  1  0
 20 21  1  0
 21 22  1  0
 16 23  1  0
 22 23  1  0
 24 25  1  0
 26 27  1  0
 11 29  1  0
 23 30  1  0
 12 31  1  0
  1 32  1  0
 31 32  1  0
 29 33  1  0
 33 34  1  0
 27 35  1  0
  3  4  2  0
  4  5  1  0
  5  6  2  0
  6  7  1  0
  7  8  2  0
  8  3  1  0
 17 18  2  0
 18 28  1  0
 28 26  2  0
 26 24  1  0
 24 19  2  0
 19 17  1  0
M  END

$$$$
No_1088-/dssg/home/sw_qyf/PocketFlow/Model-Generation-Results/5HT2A_7WC7_rec_A_10.pdb/2024-01-01-03-54-21/
     RDKit          3D

 35 38  0  0  0  0  0  0  0  0999 V2000
  -24.1553  -17.8465  145.7021 C   0  0  0  0  0  0  0  0  0  0  0  0
  -24.2856  -16.6364  145.3494 C   0  0  0  0  0  0  0  0  0  0  0  0
  -23.7824  -15.9602  144.3554 C   0  0  0  0  0  0  0  0  0  0  0  0
  -23.6365  -14.5047  144.6114 C   0  0  0  0  0  0  0  0  0  0  0  0
  -24.7920  -18.5187  146.7814 C   0  0  0  0  0  0  0  0  0  0  0  0
  -22.9571  -13.6267  143.7737 C   0  0  0  0  0  0  0  0  0  0  0  0
  -24.4387  -13.9155  145.7296 C   0  0  0  0  0  0  0  0  0  0  0  0
  -25.0250  -14.7474  146.7327 C   0  0  0  0  0  0  0  0  0  0  0  0
  -24.8919  -16.0859  146.6286 C   0  0  0  0  0  0  0  0  0  0  0  0
  -25.1998  -17.2021  147.4770 C   0  0  0  0  0  0  0  0  0  0  0  0
  -24.6249  -17.0481  148.9620 C   0  0  0  0  0  0  0  0  0  0  0  0
  -25.4631  -17.3342  150.0550 C   0  0  0  0  0  0  0  0  0  0  0  0
  -26.8188  -17.7001  149.9306 C   0  0  0  0  0  0  0  0  0  0  0  0
  -27.5726  -18.1366  151.0142 C   0  0  0  0  0  0  0  0  0  0  0  0
  -28.9254  -18.3696  150.9556 C   0  0  0  0  0  0  0  0  0  0  0  0
  -29.5840  -17.5672  149.9251 C   0  0  0  0  0  0  0  0  0  0  0  0
  -28.8535  -16.8899  148.9420 C   0  0  0  0  0  0  0  0  0  0  0  0
  -27.4456  -16.8021  149.0174 C   0  0  0  0  0  0  0  0  0  0  0  0
  -22.3644  -12.5908  144.4016 O   0  0  0  0  0  0  0  0  0  0  0  0
  -23.2266  -16.8892  149.0599 C   0  0  0  0  0  0  0  0  0  0  0  0
  -22.5380  -16.3685  148.2894 O   0  0  0  0  0  0  0  0  0  0  0  0
  -22.7007  -16.8601  150.3282 F   0  0  0  0  0  0  0  0  0  0  0  0
  -29.5346  -16.0881  147.9211 C   0  0  0  0  0  0  0  0  0  0  0  0
  -30.0921  -14.7844  148.3043 C   0  0  0  0  0  0  0  0  0  0  0  0
  -30.4860  -14.2275  149.4794 C   0  0  0  0  0  0  0  0  0  0  0  0
  -31.3334  -13.1319  149.4036 C   0  0  0  0  0  0  0  0  0  0  0  0
  -31.0689  -12.2343  148.3238 C   0  0  0  0  0  0  0  0  0  0  0  0
  -30.0791  -13.7990  147.1884 C   0  0  0  0  0  0  0  0  0  0  0  0
  -30.5422  -12.6054  147.2463 C   0  0  0  0  0  0  0  0  0  0  0  0
  -30.3763  -11.6972  146.2346 N   0  0  0  0  0  0  0  0  0  0  0  0
  -29.1966  -11.5957  145.4408 C   0  0  0  0  0  0  0  0  0  0  0  0
  -27.9450  -12.1941  145.7510 C   0  0  0  0  0  0  0  0  0  0  0  0
  -26.8414  -11.9734  145.0380 C   0  0  0  0  0  0  0  0  0  0  0  0
  -26.9271  -11.1812  143.8921 C   0  0  0  0  0  0  0  0  0  0  0  0
  -29.1563  -10.5359  144.4960 C   0  0  0  0  0  0  0  0  0  0  0  0
  1  2  1  0
  1  5  2  0
  4  6  1  0
  5 10  1  0
  9 10  1  0
 10 11  1  0
 11 12  2  3
 12 13  1  0
  6 19  1  0
 11 20  1  0
 20 21  2  0
 20 22  1  0
 17 23  1  0
 23 24  1  0
 29 30  1  0
 30 31  1  0
 31 32  2  3
 32 33  1  0
 33 34  2  0
 31 35  1  0
 13 14  2  0
 14 15  1  0
 15 16  2  0
 16 17  1  0
 17 18  2  0
 18 13  1  0
  2  3  2  0
  3  4  1  0
  4  7  2  0
  7  8  1  0
  8  9  2  0
  9  2  1  0
 24 25  2  0
 25 26  1  0
 26 27  2  0
 27 29  1  0
 29 28  2  0
 28 24  1  0
M  END

$$$$
No_1089-/dssg/home/sw_qyf/PocketFlow/Model-Generation-Results/5HT2A_7WC7_rec_A_10.pdb/2024-01-01-03-54-21/
     RDKit          3D

 13 14  0  0  0  0  0  0  0  0999 V2000
  -23.1746  -16.6014  144.8668 C   0  0  0  0  0  0  0  0  0  0  0  0
  -23.7011  -17.0158  145.9774 C   0  0  0  0  0  0  0  0  0  0  0  0
  -24.2134  -16.0722  146.8877 C   0  0  0  0  0  0  0  0  0  0  0  0
  -24.7882  -16.3410  148.2078 C   0  0  0  0  0  0  0  0  0  0  0  0
  -23.5800  -15.2232  144.4665 C   0  0  0  0  0  0  0  0  0  0  0  0
  -24.2035  -14.2633  145.2990 C   0  0  0  0  0  0  0  0  0  0  0  0
  -24.5441  -14.6899  146.5406 C   0  0  0  0  0  0  0  0  0  0  0  0
  -26.1996  -16.5934  148.4250 C   0  0  0  0  0  0  0  0  0  0  0  0
  -26.5828  -17.0939  149.7029 C   0  0  0  0  0  0  0  0  0  0  0  0
  -25.5677  -17.4481  150.6651 C   0  0  0  0  0  0  0  0  0  0  0  0
  -24.2171  -17.3239  150.3840 C   0  0  0  0  0  0  0  0  0  0  0  0
  -23.7938  -16.9281  149.1805 C   0  0  0  0  0  0  0  0  0  0  0  0
  -23.4754  -18.2963  146.3847 N   0  0  0  0  0  0  0  0  0  0  0  0
  3  4  1  0
  2 13  1  0
  4  8  2  0
  8  9  1  0
  9 10  2  0
 10 11  1  0
 11 12  2  0
 12  4  1  0
  1  2  2  0
  2  3  1  0
  3  7  2  0
  7  6  1  0
  6  5  2  0
  5  1  1  0
M  END

$$$$
No_1090-/dssg/home/sw_qyf/PocketFlow/Model-Generation-Results/5HT2A_7WC7_rec_A_10.pdb/2024-01-01-03-54-21/
     RDKit          3D

 21 22  0  0  0  0  0  0  0  0999 V2000
  -23.1746  -16.6014  144.8668 C   0  0  0  0  0  0  0  0  0  0  0  0
  -23.7011  -17.0158  145.9774 C   0  0  0  0  0  0  0  0  0  0  0  0
  -24.2134  -16.0722  146.8877 C   0  0  0  0  0  0  0  0  0  0  0  0
  -24.7882  -16.3410  148.2078 C   0  0  0  0  0  0  0  0  0  0  0  0
  -23.5800  -15.2232  144.4665 C   0  0  0  0  0  0  0  0  0  0  0  0
  -24.2035  -14.2633  145.2990 C   0  0  0  0  0  0  0  0  0  0  0  0
  -24.5441  -14.6899  146.5406 C   0  0  0  0  0  0  0  0  0  0  0  0
  -23.5296  -18.4166  146.4575 C   0  0  0  0  0  0  0  0  0  0  0  0
  -24.3584  -12.8867  144.8608 C   0  0  0  0  0  0  0  0  0  0  0  0
  -22.9503  -12.0630  144.8404 Cl  0  0  0  0  0  0  0  0  0  0  0  0
  -25.4802  -12.1600  145.8965 Cl  0  0  0  0  0  0  0  0  0  0  0  0
  -22.5929  -18.9596  146.8125 O   0  0  0  0  0  0  0  0  0  0  0  0
  -24.7573  -19.1313  146.4787 N   0  0  0  0  0  0  0  0  0  0  0  0
  -24.0360  -16.6868  149.1281 O   0  0  0  0  0  0  0  0  0  0  0  0
  -26.0972  -16.4238  148.4213 N   0  0  0  0  0  0  0  0  0  0  0  0
  -27.1160  -16.0446  147.5658 C   0  0  0  0  0  0  0  0  0  0  0  0
  -28.3034  -16.6064  147.5060 C   0  0  0  0  0  0  0  0  0  0  0  0
  -29.1554  -16.0239  146.6073 N   0  0  0  0  0  0  0  0  0  0  0  0
  -28.6113  -14.8697  146.2631 C   0  0  0  0  0  0  0  0  0  0  0  0
  -27.2680  -14.8321  146.8127 C   0  0  0  0  0  0  0  0  0  0  0  0
  -24.8831  -12.8851  143.6700 F   0  0  0  0  0  0  0  0  0  0  0  0
  3  4  1  0
  2  8  1  0
  6  9  1  0
  9 10  1  0
  9 11  1  0
  8 12  2  0
  8 13  1  0
  4 14  2  0
  4 15  1  0
 15 16  1  0
 16 17  2  0
 17 18  1  0
 18 19  2  0
 16 20  1  0
 19 20  1  0
  9 21  1  0
  1  2  2  0
  2  3  1  0
  3  7  2  0
  7  6  1  0
  6  5  2  0
  5  1  1  0
M  END

$$$$
No_1091-/dssg/home/sw_qyf/PocketFlow/Model-Generation-Results/5HT2A_7WC7_rec_A_10.pdb/2024-01-01-03-54-21/
     RDKit          3D

 16 16  0  0  0  0  0  0  0  0999 V2000
  -23.1746  -16.6014  144.8668 C   0  0  0  0  0  0  0  0  0  0  0  0
  -23.7011  -17.0158  145.9774 C   0  0  0  0  0  0  0  0  0  0  0  0
  -24.2134  -16.0722  146.8877 C   0  0  0  0  0  0  0  0  0  0  0  0
  -25.2064  -15.3422  146.4171 C   0  0  0  0  0  0  0  0  0  0  0  0
  -24.7890  -14.4834  145.3416 C   0  0  0  0  0  0  0  0  0  0  0  0
  -23.8927  -15.2280  144.3874 C   0  0  0  0  0  0  0  0  0  0  0  0
  -25.1890  -13.1385  145.1828 C   0  0  0  0  0  0  0  0  0  0  0  0
  -26.2784  -12.9595  144.4688 C   0  0  0  0  0  0  0  0  0  0  0  0
  -26.9936  -11.7232  144.5555 C   0  0  0  0  0  0  0  0  0  0  0  0
  -28.2885  -11.5275  144.3129 C   0  0  0  0  0  0  0  0  0  0  0  0
  -28.9167  -10.1762  144.1668 C   0  0  0  0  0  0  0  0  0  0  0  0
  -30.2940   -9.9614  144.1145 C   0  0  0  0  0  0  0  0  0  0  0  0
  -30.8890  -10.0089  143.1601 O   0  0  0  0  0  0  0  0  0  0  0  0
  -24.0323  -12.1629  144.8286 C   0  0  0  0  0  0  0  0  0  0  0  0
  -23.3774  -18.3842  146.4837 C   0  0  0  0  0  0  0  0  0  0  0  0
  -23.3284  -18.6463  147.6369 O   0  0  0  0  0  0  0  0  0  0  0  0
  1  2  1  0
  2  3  1  0
  3  4  1  0
  4  5  1  0
  1  6  1  0
  5  6  1  0
  5  7  1  0
  7  8  1  0
  8  9  1  0
  9 10  2  3
 10 11  1  0
 11 12  1  0
 12 13  2  0
  7 14  1  0
  2 15  1  0
 15 16  2  0
M  END

$$$$
No_1092-/dssg/home/sw_qyf/PocketFlow/Model-Generation-Results/5HT2A_7WC7_rec_A_10.pdb/2024-01-01-03-54-21/
     RDKit          3D

 19 19  0  0  0  0  0  0  0  0999 V2000
  -24.1553  -17.8465  145.7021 C   0  0  0  0  0  0  0  0  0  0  0  0
  -23.9795  -18.4462  146.7426 C   0  0  0  0  0  0  0  0  0  0  0  0
  -23.2486  -17.2339  144.9771 C   0  0  0  0  0  0  0  0  0  0  0  0
  -23.8337  -18.0729  147.7803 C   0  0  0  0  0  0  0  0  0  0  0  0
  -23.3262  -16.6146  147.9115 C   0  0  0  0  0  0  0  0  0  0  0  0
  -23.4769  -15.8689  144.7110 C   0  0  0  0  0  0  0  0  0  0  0  0
  -23.3658  -15.6468  146.8551 C   0  0  0  0  0  0  0  0  0  0  0  0
  -23.6598  -15.4697  145.8030 C   0  0  0  0  0  0  0  0  0  0  0  0
  -23.8743  -13.7993  145.6538 C   0  0  0  0  0  0  0  0  0  0  0  0
  -23.3893  -13.0510  144.6486 C   0  0  0  0  0  0  0  0  0  0  0  0
  -23.5162  -11.6573  144.8004 C   0  0  0  0  0  0  0  0  0  0  0  0
  -24.7964  -13.1390  146.6393 C   0  0  0  0  0  0  0  0  0  0  0  0
  -25.7140  -13.6272  147.1593 C   0  0  0  0  0  0  0  0  0  0  0  0
  -26.9707  -13.8714  146.3767 C   0  0  0  0  0  0  0  0  0  0  0  0
  -27.3883  -12.9814  145.4284 C   0  0  0  0  0  0  0  0  0  0  0  0
  -27.0020  -12.8508  144.2077 C   0  0  0  0  0  0  0  0  0  0  0  0
  -27.5459  -11.9535  143.2210 C   0  0  0  0  0  0  0  0  0  0  0  0
  -28.5453  -11.0746  143.6613 C   0  0  0  0  0  0  0  0  0  0  0  0
  -29.0556  -11.2127  145.0162 C   0  0  0  0  0  0  0  0  0  0  0  0
  1  2  1  0
  1  3  2  3
  2  4  1  0
  4  5  1  0
  3  6  1  0
  5  7  2  3
  6  8  2  3
  7  8  1  0
  8  9  1  0
  9 10  2  3
 10 11  1  0
  9 12  1  0
 12 13  1  0
 13 14  1  0
 14 15  2  3
 15 16  1  0
 16 17  2  3
 17 18  1  0
 18 19  2  0
M  END

$$$$
No_1093-/dssg/home/sw_qyf/PocketFlow/Model-Generation-Results/5HT2A_7WC7_rec_A_10.pdb/2024-01-01-03-54-21/
     RDKit          3D

 35 39  0  0  0  0  0  0  0  0999 V2000
  -23.1746  -16.6014  144.8668 C   0  0  0  0  0  0  0  0  0  0  0  0
  -24.0189  -16.0564  145.8445 C   0  0  0  0  0  0  0  0  0  0  0  0
  -24.4145  -16.8299  146.9062 C   0  0  0  0  0  0  0  0  0  0  0  0
  -25.2273  -16.2787  147.9854 C   0  0  0  0  0  0  0  0  0  0  0  0
  -25.7358  -15.0095  147.7773 C   0  0  0  0  0  0  0  0  0  0  0  0
  -25.3901  -14.2337  146.6672 C   0  0  0  0  0  0  0  0  0  0  0  0
  -24.5649  -14.6203  145.7923 C   0  0  0  0  0  0  0  0  0  0  0  0
  -24.1468  -13.8104  144.6638 C   0  0  0  0  0  0  0  0  0  0  0  0
  -24.9226  -13.5706  143.8727 O   0  0  0  0  0  0  0  0  0  0  0  0
  -22.8907  -13.3014  144.6596 O   0  0  0  0  0  0  0  0  0  0  0  0
  -23.9758  -18.2225  147.0631 C   0  0  0  0  0  0  0  0  0  0  0  0
  -24.4558  -19.0473  146.2284 C   0  0  0  0  0  0  0  0  0  0  0  0
  -23.5178  -19.3851  145.1583 C   0  0  0  0  0  0  0  0  0  0  0  0
  -23.0427  -18.2967  144.6204 C   0  0  0  0  0  0  0  0  0  0  0  0
  -25.8813  -12.8150  146.6657 C   0  0  0  0  0  0  0  0  0  0  0  0
  -25.0344  -11.6929  146.5830 C   0  0  0  0  0  0  0  0  0  0  0  0
  -25.8481  -10.5149  146.4821 N   0  0  0  0  0  0  0  0  0  0  0  0
  -27.0330  -10.9124  145.8554 C   0  0  0  0  0  0  0  0  0  0  0  0
  -27.0806  -12.3123  146.0365 C   0  0  0  0  0  0  0  0  0  0  0  0
  -25.6464  -17.1000  149.1442 C   0  0  0  0  0  0  0  0  0  0  0  0
  -26.8484  -17.3536  149.3791 O   0  0  0  0  0  0  0  0  0  0  0  0
  -24.6597  -17.6834  149.9767 O   0  0  0  0  0  0  0  0  0  0  0  0
  -24.8203  -17.3198  151.3358 C   0  0  0  0  0  0  0  0  0  0  0  0
  -28.2792  -13.0956  145.7805 C   0  0  0  0  0  0  0  0  0  0  0  0
  -29.5349  -12.4013  146.0711 C   0  0  0  0  0  0  0  0  0  0  0  0
  -29.3955  -11.0032  146.5690 C   0  0  0  0  0  0  0  0  0  0  0  0
  -28.3685  -10.1762  146.0562 C   0  0  0  0  0  0  0  0  0  0  0  0
  -30.2832  -13.2147  147.0003 O   0  0  0  0  0  0  0  0  0  0  0  0
  -29.9201  -13.0504  148.3287 C   0  0  0  0  0  0  0  0  0  0  0  0
  -30.8890  -13.8264  149.2688 C   0  0  0  0  0  0  0  0  0  0  0  0
  -31.9457  -13.0764  149.7446 C   0  0  0  0  0  0  0  0  0  0  0  0
  -32.4786  -13.3846  150.9737 C   0  0  0  0  0  0  0  0  0  0  0  0
  -32.1195  -14.6493  151.5328 C   0  0  0  0  0  0  0  0  0  0  0  0
  -31.0891  -15.4039  150.9772 C   0  0  0  0  0  0  0  0  0  0  0  0
  -30.4332  -14.9320  149.8288 C   0  0  0  0  0  0  0  0  0  0  0  0
  1  2  1  0
  7  8  1  0
  8  9  1  0
  8 10  2  0
  3 11  1  0
 11 12  1  0
 12 13  1  0
  1 14  1  0
 13 14  2  0
  6 15  1  0
 15 16  2  0
 16 17  1  0
 17 18  2  0
 15 19  1  0
 18 19  1  0
  4 20  1  0
 20 21  2  0
 20 22  1  0
 22 23  1  0
 19 24  1  0
 24 25  1  0
 25 26  1  0
 18 27  1  0
 26 27  1  0
 25 28  1  0
 28 29  1  0
 29 30  1  0
  2  3  2  0
  3  4  1  0
  4  5  2  0
  5  6  1  0
  6  7  2  0
  7  2  1  0
 30 31  2  0
 31 32  1  0
 32 33  2  0
 33 34  1  0
 34 35  2  0
 35 30  1  0
M  END

$$$$
No_1094-/dssg/home/sw_qyf/PocketFlow/Model-Generation-Results/5HT2A_7WC7_rec_A_10.pdb/2024-01-01-03-54-21/
     RDKit          3D

 35 39  0  0  0  0  0  0  0  0999 V2000
  -23.1746  -16.6014  144.8668 C   0  0  0  0  0  0  0  0  0  0  0  0
  -23.7011  -17.0158  145.9774 C   0  0  0  0  0  0  0  0  0  0  0  0
  -24.7096  -16.6222  146.3577 C   0  0  0  0  0  0  0  0  0  0  0  0
  -25.2589  -16.9410  147.8027 C   0  0  0  0  0  0  0  0  0  0  0  0
  -24.3234  -17.5558  148.6398 C   0  0  0  0  0  0  0  0  0  0  0  0
  -23.7919  -15.5148  144.2100 C   0  0  0  0  0  0  0  0  0  0  0  0
  -24.8968  -14.8817  144.7775 C   0  0  0  0  0  0  0  0  0  0  0  0
  -25.3730  -15.4146  145.9639 C   0  0  0  0  0  0  0  0  0  0  0  0
  -23.0971  -18.0150  148.1063 C   0  0  0  0  0  0  0  0  0  0  0  0
  -22.6908  -17.7297  146.8489 C   0  0  0  0  0  0  0  0  0  0  0  0
  -25.5974  -13.8278  144.0263 C   0  0  0  0  0  0  0  0  0  0  0  0
  -26.7112  -13.2800  144.7772 C   0  0  0  0  0  0  0  0  0  0  0  0
  -26.4260  -12.0528  145.3543 C   0  0  0  0  0  0  0  0  0  0  0  0
  -25.1799  -11.4325  145.5999 C   0  0  0  0  0  0  0  0  0  0  0  0
  -27.6786  -11.2552  145.8573 C   0  0  0  0  0  0  0  0  0  0  0  0
  -28.8478  -11.3834  145.1794 C   0  0  0  0  0  0  0  0  0  0  0  0
  -29.5503  -10.1337  144.9190 C   0  0  0  0  0  0  0  0  0  0  0  0
  -29.3848   -9.6392  143.5512 C   0  0  0  0  0  0  0  0  0  0  0  0
  -28.4508  -10.0019  142.7715 C   0  0  0  0  0  0  0  0  0  0  0  0
  -28.5977   -9.7670  141.3535 C   0  0  0  0  0  0  0  0  0  0  0  0
  -27.8414  -10.4114  140.3388 C   0  0  0  0  0  0  0  0  0  0  0  0
  -27.5161   -9.8945  139.1701 C   0  0  0  0  0  0  0  0  0  0  0  0
  -28.2102   -8.6431  138.8442 C   0  0  0  0  0  0  0  0  0  0  0  0
  -29.0672   -8.2117  139.6278 C   0  0  0  0  0  0  0  0  0  0  0  0
  -29.2037   -8.6016  141.0000 C   0  0  0  0  0  0  0  0  0  0  0  0
  -30.0772   -7.8445  141.9376 C   0  0  0  0  0  0  0  0  0  0  0  0
  -30.1857   -8.4967  143.2815 C   0  0  0  0  0  0  0  0  0  0  0  0
  -28.0312   -8.1583  137.4948 C   0  0  0  0  0  0  0  0  0  0  0  0
  -26.5228  -16.5553  148.2418 C   0  0  0  0  0  0  0  0  0  0  0  0
  -27.2573  -15.7425  147.6102 N   0  0  0  0  0  0  0  0  0  0  0  0
  -26.7618  -15.1209  146.4083 C   0  0  0  0  0  0  0  0  0  0  0  0
  -26.9943  -17.0382  149.3683 O   0  0  0  0  0  0  0  0  0  0  0  0
  -24.4437  -11.1362  144.7607 O   0  0  0  0  0  0  0  0  0  0  0  0
  -24.7883  -11.4826  146.9515 O   0  0  0  0  0  0  0  0  0  0  0  0
  -30.4681   -9.8094  145.7671 O   0  0  0  0  0  0  0  0  0  0  0  0
  7 11  1  0
 11 12  1  0
 12 13  2  3
 13 14  1  0
 13 15  1  0
 15 16  1  0
 16 17  1  0
 17 18  1  0
 23 28  1  0
  4 29  1  0
 29 30  1  0
  8 31  1  0
 30 31  1  0
 29 32  2  0
 14 33  2  0
 14 34  1  0
 17 35  2  0
  1  2  2  0
  3  8  2  0
  8  7  1  0
  7  6  2  0
  6  1  1  0
 18 19  2  0
 19 20  1  0
 25 26  1  0
 26 27  2  0
 27 18  1  0
 20 21  2  0
 21 22  1  0
 22 23  2  0
 23 24  1  0
 24 25  2  0
 25 20  1  0
  2  3  1  0
  3  4  1  0
  4  5  2  0
  5  9  1  0
  9 10  2  0
 10  2  1  0
M  END

$$$$
No_1095-/dssg/home/sw_qyf/PocketFlow/Model-Generation-Results/5HT2A_7WC7_rec_A_10.pdb/2024-01-01-03-54-21/
     RDKit          3D

 24 25  0  0  0  0  0  0  0  0999 V2000
  -24.1553  -17.8465  145.7021 C   0  0  0  0  0  0  0  0  0  0  0  0
  -24.6364  -17.2931  146.7091 C   0  0  0  0  0  0  0  0  0  0  0  0
  -24.5709  -15.9334  146.8074 C   0  0  0  0  0  0  0  0  0  0  0  0
  -24.2378  -15.1233  145.7159 C   0  0  0  0  0  0  0  0  0  0  0  0
  -23.7252  -15.7878  144.6028 C   0  0  0  0  0  0  0  0  0  0  0  0
  -23.7316  -17.0968  144.6427 N   0  0  0  0  0  0  0  0  0  0  0  0
  -24.0429  -19.2100  145.5626 N   0  0  0  0  0  0  0  0  0  0  0  0
  -24.2583  -13.6039  145.8467 C   0  0  0  0  0  0  0  0  0  0  0  0
  -23.3983  -12.8604  145.1617 C   0  0  0  0  0  0  0  0  0  0  0  0
  -23.5717  -11.4178  145.1716 C   0  0  0  0  0  0  0  0  0  0  0  0
  -24.9001  -10.9773  145.5409 C   0  0  0  0  0  0  0  0  0  0  0  0
  -25.8472  -11.8482  146.1459 C   0  0  0  0  0  0  0  0  0  0  0  0
  -25.5430  -13.1801  146.2311 C   0  0  0  0  0  0  0  0  0  0  0  0
  -27.0406  -11.3568  146.5731 O   0  0  0  0  0  0  0  0  0  0  0  0
  -28.0364  -11.3107  145.7157 C   0  0  0  0  0  0  0  0  0  0  0  0
  -29.3803  -11.3837  146.2397 C   0  0  0  0  0  0  0  0  0  0  0  0
  -30.3153  -10.9275  145.4946 F   0  0  0  0  0  0  0  0  0  0  0  0
  -29.7505  -12.7416  146.5088 F   0  0  0  0  0  0  0  0  0  0  0  0
  -29.6200  -10.7469  147.4659 F   0  0  0  0  0  0  0  0  0  0  0  0
  -24.9648  -18.0678  147.9554 C   0  0  0  0  0  0  0  0  0  0  0  0
  -24.8571  -17.2581  148.9616 F   0  0  0  0  0  0  0  0  0  0  0  0
  -25.7895  -18.8167  147.9334 F   0  0  0  0  0  0  0  0  0  0  0  0
  -23.7981  -18.8647  148.1738 F   0  0  0  0  0  0  0  0  0  0  0  0
  -27.8631  -10.9648  144.5091 O   0  0  0  0  0  0  0  0  0  0  0  0
  1  7  1  0
  4  8  1  0
 12 14  1  0
 14 15  1  0
 15 16  1  0
 16 17  1  0
 16 18  1  0
 16 19  1  0
  2 20  1  0
 20 21  1  0
 20 22  1  0
 20 23  1  0
 15 24  2  0
  1  2  2  0
  2  3  1  0
  3  4  2  0
  4  5  1  0
  5  6  2  0
  6  1  1  0
  8  9  2  0
  9 10  1  0
 10 11  2  0
 11 12  1  0
 12 13  2  0
 13  8  1  0
M  END

$$$$
No_1096-/dssg/home/sw_qyf/PocketFlow/Model-Generation-Results/5HT2A_7WC7_rec_A_10.pdb/2024-01-01-03-54-21/
     RDKit          3D

 16 17  0  0  0  0  0  0  0  0999 V2000
  -23.1746  -16.6014  144.8668 C   0  0  0  0  0  0  0  0  0  0  0  0
  -23.8963  -15.5346  144.7885 C   0  0  0  0  0  0  0  0  0  0  0  0
  -23.4976  -14.2961  145.1226 C   0  0  0  0  0  0  0  0  0  0  0  0
  -24.3175  -13.3088  145.7775 C   0  0  0  0  0  0  0  0  0  0  0  0
  -25.6586  -13.6027  146.0240 C   0  0  0  0  0  0  0  0  0  0  0  0
  -26.0737  -14.9390  145.9541 C   0  0  0  0  0  0  0  0  0  0  0  0
  -25.1974  -15.8784  145.3395 C   0  0  0  0  0  0  0  0  0  0  0  0
  -23.7691  -17.7548  145.4631 C   0  0  0  0  0  0  0  0  0  0  0  0
  -23.3219  -19.0120  145.7962 C   0  0  0  0  0  0  0  0  0  0  0  0
  -25.1048  -17.3571  145.9009 C   0  0  0  0  0  0  0  0  0  0  0  0
  -27.4071  -15.3454  146.2693 C   0  0  0  0  0  0  0  0  0  0  0  0
  -28.3865  -14.4958  146.7745 C   0  0  0  0  0  0  0  0  0  0  0  0
  -28.0637  -13.9459  147.9405 C   0  0  0  0  0  0  0  0  0  0  0  0
  -29.5738  -14.1651  146.1904 C   0  0  0  0  0  0  0  0  0  0  0  0
  -23.7922  -20.0388  145.4071 O   0  0  0  0  0  0  0  0  0  0  0  0
  -22.5700  -18.9920  146.9508 O   0  0  0  0  0  0  0  0  0  0  0  0
  1  8  1  0
  8  9  1  0
  7 10  1  0
  8 10  1  0
  6 11  1  0
 11 12  2  3
 12 13  1  0
 12 14  1  0
  9 15  2  0
  9 16  1  0
  1  2  1  0
  2  3  2  0
  3  4  1  0
  4  5  2  0
  5  6  1  0
  6  7  2  0
  7  2  1  0
M  END

$$$$
No_1097-/dssg/home/sw_qyf/PocketFlow/Model-Generation-Results/5HT2A_7WC7_rec_A_10.pdb/2024-01-01-03-54-21/
     RDKit          3D

 17 18  0  0  0  0  0  0  0  0999 V2000
  -23.1746  -16.6014  144.8668 C   0  0  0  0  0  0  0  0  0  0  0  0
  -23.7011  -17.0158  145.9774 C   0  0  0  0  0  0  0  0  0  0  0  0
  -24.7096  -16.6222  146.3577 C   0  0  0  0  0  0  0  0  0  0  0  0
  -25.4819  -15.5594  145.8226 C   0  0  0  0  0  0  0  0  0  0  0  0
  -24.9841  -15.0030  144.6879 C   0  0  0  0  0  0  0  0  0  0  0  0
  -23.7823  -15.5257  144.1978 C   0  0  0  0  0  0  0  0  0  0  0  0
  -25.6422  -13.8894  143.9561 C   0  0  0  0  0  0  0  0  0  0  0  0
  -25.7625  -13.7530  142.7506 C   0  0  0  0  0  0  0  0  0  0  0  0
  -26.8348  -13.0824  142.1005 C   0  0  0  0  0  0  0  0  0  0  0  0
  -27.1284  -13.1473  140.7519 C   0  0  0  0  0  0  0  0  0  0  0  0
  -28.1545  -12.3606  140.2587 C   0  0  0  0  0  0  0  0  0  0  0  0
  -27.7064  -10.9419  140.1264 C   0  0  0  0  0  0  0  0  0  0  0  0
  -27.2427  -10.5420  138.9122 C   0  0  0  0  0  0  0  0  0  0  0  0
  -26.4038  -12.9489  144.8912 C   0  0  0  0  0  0  0  0  0  0  0  0
  -27.3025  -12.0518  144.3484 C   0  0  0  0  0  0  0  0  0  0  0  0
  -27.5542  -12.1080  142.9490 C   0  0  0  0  0  0  0  0  0  0  0  0
  -22.9793  -18.0749  146.5748 F   0  0  0  0  0  0  0  0  0  0  0  0
  5  7  1  0
  9 10  1  0
 10 11  1  0
 11 12  1  0
 12 13  3  0
  2 17  1  0
  1  2  2  0
  2  3  1  0
  3  4  2  0
  4  5  1  0
  5  6  2  0
  6  1  1  0
  7  8  2  0
  8  9  1  0
  9 16  2  0
 16 15  1  0
 15 14  2  0
 14  7  1  0
M  END

$$$$
No_1098-/dssg/home/sw_qyf/PocketFlow/Model-Generation-Results/5HT2A_7WC7_rec_A_10.pdb/2024-01-01-03-54-21/
     RDKit          3D

 35 37  0  0  0  0  0  0  0  0999 V2000
  -24.1553  -17.8465  145.7021 C   0  0  0  0  0  0  0  0  0  0  0  0
  -23.9795  -18.4462  146.7426 C   0  0  0  0  0  0  0  0  0  0  0  0
  -25.1593  -16.8262  145.6925 C   0  0  0  0  0  0  0  0  0  0  0  0
  -26.3426  -16.9003  146.3448 C   0  0  0  0  0  0  0  0  0  0  0  0
  -27.5316  -16.4146  145.9922 C   0  0  0  0  0  0  0  0  0  0  0  0
  -24.9327  -18.4032  147.8082 C   0  0  0  0  0  0  0  0  0  0  0  0
  -26.0965  -17.6628  147.6170 C   0  0  0  0  0  0  0  0  0  0  0  0
  -27.8557  -15.1145  146.6673 C   0  0  0  0  0  0  0  0  0  0  0  0
  -28.9357  -14.9700  147.4814 C   0  0  0  0  0  0  0  0  0  0  0  0
  -29.3410  -13.6056  147.8692 C   0  0  0  0  0  0  0  0  0  0  0  0
  -28.5904  -12.5037  147.3519 C   0  0  0  0  0  0  0  0  0  0  0  0
  -27.5272  -12.7389  146.5028 C   0  0  0  0  0  0  0  0  0  0  0  0
  -27.1999  -13.9900  146.0931 C   0  0  0  0  0  0  0  0  0  0  0  0
  -26.7829  -11.5644  145.9294 C   0  0  0  0  0  0  0  0  0  0  0  0
  -27.1356  -10.7905  144.8894 C   0  0  0  0  0  0  0  0  0  0  0  0
  -27.9895  -11.0206  144.1041 C   0  0  0  0  0  0  0  0  0  0  0  0
  -28.4284  -10.0878  143.0402 C   0  0  0  0  0  0  0  0  0  0  0  0
  -29.1596   -8.9366  143.3591 C   0  0  0  0  0  0  0  0  0  0  0  0
  -29.4863   -8.0206  142.2715 C   0  0  0  0  0  0  0  0  0  0  0  0
  -29.1733   -8.3925  140.9162 C   0  0  0  0  0  0  0  0  0  0  0  0
  -28.5552   -9.6216  140.7220 C   0  0  0  0  0  0  0  0  0  0  0  0
  -28.2495  -10.4765  141.7505 C   0  0  0  0  0  0  0  0  0  0  0  0
  -29.4647   -7.5033  139.8454 C   0  0  0  0  0  0  0  0  0  0  0  0
  -30.1399   -6.4968  140.0605 O   0  0  0  0  0  0  0  0  0  0  0  0
  -28.6535   -7.5865  138.8243 O   0  0  0  0  0  0  0  0  0  0  0  0
  -25.4024  -11.4300  146.5918 C   0  0  0  0  0  0  0  0  0  0  0  0
  -30.5145  -13.4444  148.8153 C   0  0  0  0  0  0  0  0  0  0  0  0
  -31.4369  -12.3475  148.5772 C   0  0  0  0  0  0  0  0  0  0  0  0
  -32.5629  -12.2313  149.4236 C   0  0  0  0  0  0  0  0  0  0  0  0
  -33.3723  -11.0970  149.2822 C   0  0  0  0  0  0  0  0  0  0  0  0
  -23.2742  -17.6616  144.6858 F   0  0  0  0  0  0  0  0  0  0  0  0
  -24.3994  -12.4394  146.2562 C   0  0  0  0  0  0  0  0  0  0  0  0
  -23.2051  -12.1443  145.5849 C   0  0  0  0  0  0  0  0  0  0  0  0
  -22.8218  -13.0454  144.4137 C   0  0  0  0  0  0  0  0  0  0  0  0
  -23.4606  -14.3270  144.3612 C   0  0  0  0  0  0  0  0  0  0  0  0
  5  8  1  0
 12 14  1  0
 14 15  1  0
 15 16  2  3
 16 17  1  0
 20 23  1  0
 23 24  1  0
 23 25  2  0
 14 26  1  0
 10 27  1  0
 27 28  1  0
 28 29  2  3
 29 30  1  0
  1 31  1  0
 26 32  1  0
 32 33  2  3
 33 34  1  0
 34 35  2  0
  5  4  1  0
 17 18  2  0
 18 19  1  0
 19 20  2  0
 20 21  1  0
 21 22  2  0
 22 17  1  0
  1  2  2  0
  2  6  1  0
  6  7  2  0
  7  4  1  0
  4  3  2  0
  3  1  1  0
  8  9  2  0
  9 10  1  0
 10 11  2  0
 11 12  1  0
 12 13  2  0
 13  8  1  0
M  END

$$$$
No_1099-/dssg/home/sw_qyf/PocketFlow/Model-Generation-Results/5HT2A_7WC7_rec_A_10.pdb/2024-01-01-03-54-21/
     RDKit          3D

 34 36  0  0  0  0  0  0  0  0999 V2000
  -24.1553  -17.8465  145.7021 C   0  0  0  0  0  0  0  0  0  0  0  0
  -23.9795  -18.4462  146.7426 C   0  0  0  0  0  0  0  0  0  0  0  0
  -25.1196  -16.8106  145.6408 C   0  0  0  0  0  0  0  0  0  0  0  0
  -25.2440  -15.8776  144.5240 C   0  0  0  0  0  0  0  0  0  0  0  0
  -26.0733  -14.7284  144.7060 C   0  0  0  0  0  0  0  0  0  0  0  0
  -27.0964  -14.7050  145.6625 C   0  0  0  0  0  0  0  0  0  0  0  0
  -27.9657  -13.5888  145.7631 C   0  0  0  0  0  0  0  0  0  0  0  0
  -28.8483  -13.2832  146.8253 C   0  0  0  0  0  0  0  0  0  0  0  0
  -29.3365  -14.3313  147.6124 C   0  0  0  0  0  0  0  0  0  0  0  0
  -28.5499  -15.5361  147.6706 C   0  0  0  0  0  0  0  0  0  0  0  0
  -27.5519  -15.7508  146.6005 C   0  0  0  0  0  0  0  0  0  0  0  0
  -29.5500  -11.9583  146.9744 C   0  0  0  0  0  0  0  0  0  0  0  0
  -29.2026  -11.0110  146.2303 O   0  0  0  0  0  0  0  0  0  0  0  0
  -24.4922  -17.9863  148.0348 C   0  0  0  0  0  0  0  0  0  0  0  0
  -25.3785  -16.8601  148.0652 C   0  0  0  0  0  0  0  0  0  0  0  0
  -26.9172  -16.9383  146.2572 C   0  0  0  0  0  0  0  0  0  0  0  0
  -24.6483  -15.7275  148.6404 C   0  0  0  0  0  0  0  0  0  0  0  0
  -30.7346  -11.9033  147.6544 O   0  0  0  0  0  0  0  0  0  0  0  0
  -25.8942  -13.6350  143.8113 C   0  0  0  0  0  0  0  0  0  0  0  0
  -25.6558  -13.8720  142.6339 O   0  0  0  0  0  0  0  0  0  0  0  0
  -29.9930  -10.6108  145.1583 C   0  0  0  0  0  0  0  0  0  0  0  0
  -29.2641  -10.3065  143.9341 C   0  0  0  0  0  0  0  0  0  0  0  0
  -29.9882   -9.8859  142.8236 C   0  0  0  0  0  0  0  0  0  0  0  0
  -29.2690   -9.9123  141.5638 C   0  0  0  0  0  0  0  0  0  0  0  0
  -28.0897  -10.7540  141.4622 C   0  0  0  0  0  0  0  0  0  0  0  0
  -27.5115  -11.2685  142.7008 C   0  0  0  0  0  0  0  0  0  0  0  0
  -28.1701  -11.1400  143.9118 C   0  0  0  0  0  0  0  0  0  0  0  0
  -31.1828   -9.0866  142.8682 C   0  0  0  0  0  0  0  0  0  0  0  0
  -31.9970   -9.3981  143.6071 O   0  0  0  0  0  0  0  0  0  0  0  0
  -31.1205   -7.8231  142.4152 O   0  0  0  0  0  0  0  0  0  0  0  0
  -27.4502  -10.8438  140.2327 C   0  0  0  0  0  0  0  0  0  0  0  0
  -26.9956  -12.1407  139.7339 C   0  0  0  0  0  0  0  0  0  0  0  0
  -27.5587  -13.0734  140.1326 O   0  0  0  0  0  0  0  0  0  0  0  0
  -26.0595  -12.2540  138.8865 O   0  0  0  0  0  0  0  0  0  0  0  0
  1  2  2  3
  1  3  1  0
  3  4  1  0
  4  5  1  0
  5  6  1  0
  6  7  1  0
  7  8  1  0
  8  9  1  0
  9 10  1  0
  6 11  1  0
 10 11  1  0
  8 12  1  0
 12 13  1  0
  2 14  1  0
 14 15  2  3
  3 16  1  0
 11 16  1  0
 15 17  1  0
 12 18  2  0
  5 19  1  0
 19 20  1  0
 13 21  1  0
 21 22  1  0
 23 28  1  0
 28 29  1  0
 28 30  2  0
 25 31  1  0
 31 32  1  0
 32 33  2  0
 32 34  1  0
 22 23  2  0
 23 24  1  0
 24 25  2  0
 25 26  1  0
 26 27  2  0
 27 22  1  0
M  END

$$$$
No_1100-/dssg/home/sw_qyf/PocketFlow/Model-Generation-Results/5HT2A_7WC7_rec_A_10.pdb/2024-01-01-03-54-21/
     RDKit          3D

 18 19  0  0  0  0  0  0  0  0999 V2000
  -24.1553  -17.8465  145.7021 C   0  0  0  0  0  0  0  0  0  0  0  0
  -23.9795  -18.4462  146.7426 C   0  0  0  0  0  0  0  0  0  0  0  0
  -25.1593  -16.8262  145.6925 C   0  0  0  0  0  0  0  0  0  0  0  0
  -26.3426  -16.9003  146.3448 C   0  0  0  0  0  0  0  0  0  0  0  0
  -24.9078  -18.3640  147.8289 C   0  0  0  0  0  0  0  0  0  0  0  0
  -26.0312  -17.5122  147.7122 C   0  0  0  0  0  0  0  0  0  0  0  0
  -27.4996  -16.1150  146.1993 C   0  0  0  0  0  0  0  0  0  0  0  0
  -27.2984  -14.8027  146.7383 C   0  0  0  0  0  0  0  0  0  0  0  0
  -28.3546  -13.8322  146.6395 C   0  0  0  0  0  0  0  0  0  0  0  0
  -28.1627  -12.4262  146.4616 C   0  0  0  0  0  0  0  0  0  0  0  0
  -27.0595  -11.9852  145.7942 C   0  0  0  0  0  0  0  0  0  0  0  0
  -25.7959  -12.6312  146.2905 C   0  0  0  0  0  0  0  0  0  0  0  0
  -24.4816  -12.1250  145.9181 C   0  0  0  0  0  0  0  0  0  0  0  0
  -23.3500  -12.9469  146.1943 C   0  0  0  0  0  0  0  0  0  0  0  0
  -25.9470  -14.1088  146.3777 C   0  0  0  0  0  0  0  0  0  0  0  0
  -29.4339  -11.6397  146.4494 C   0  0  0  0  0  0  0  0  0  0  0  0
  -30.2811  -11.7662  147.4518 O   0  0  0  0  0  0  0  0  0  0  0  0
  -29.8036  -10.8604  145.3667 N   0  0  0  0  0  0  0  0  0  0  0  0
  4  7  1  0
  7  8  2  3
  8  9  1  0
  9 10  1  0
 10 11  1  0
 11 12  1  0
 12 13  2  3
 13 14  1  0
  8 15  1  0
 12 15  1  0
 10 16  1  0
 16 17  2  0
 16 18  1  0
  1  2  2  0
  2  5  1  0
  5  6  2  0
  6  4  1  0
  4  3  2  0
  3  1  1  0
M  END

$$$$
No_1101-/dssg/home/sw_qyf/PocketFlow/Model-Generation-Results/5HT2A_7WC7_rec_A_10.pdb/2024-01-01-03-54-21/
     RDKit          3D

 30 31  0  0  0  0  0  0  0  0999 V2000
  -24.1553  -17.8465  145.7021 C   0  0  0  0  0  0  0  0  0  0  0  0
  -23.9795  -18.4462  146.7426 C   0  0  0  0  0  0  0  0  0  0  0  0
  -24.2723  -16.4220  145.8037 C   0  0  0  0  0  0  0  0  0  0  0  0
  -24.9934  -15.8373  146.8363 C   0  0  0  0  0  0  0  0  0  0  0  0
  -26.2430  -15.7345  146.8632 C   0  0  0  0  0  0  0  0  0  0  0  0
  -27.2423  -15.3166  146.6269 C   0  0  0  0  0  0  0  0  0  0  0  0
  -27.7890  -14.3619  145.7746 C   0  0  0  0  0  0  0  0  0  0  0  0
  -28.5942  -13.2703  146.3991 C   0  0  0  0  0  0  0  0  0  0  0  0
  -28.6996  -11.9261  145.8468 C   0  0  0  0  0  0  0  0  0  0  0  0
  -29.7656  -11.2160  145.8999 C   0  0  0  0  0  0  0  0  0  0  0  0
  -29.6801   -9.9902  145.2760 N   0  0  0  0  0  0  0  0  0  0  0  0
  -29.0110   -9.8594  144.1797 C   0  0  0  0  0  0  0  0  0  0  0  0
  -27.8690  -10.6858  144.0212 C   0  0  0  0  0  0  0  0  0  0  0  0
  -27.7744  -11.7859  144.7852 C   0  0  0  0  0  0  0  0  0  0  0  0
  -28.4596  -16.0547  147.2996 C   0  0  0  0  0  0  0  0  0  0  0  0
  -23.8585  -15.5139  144.7603 C   0  0  0  0  0  0  0  0  0  0  0  0
  -24.4361  -14.4677  144.5332 O   0  0  0  0  0  0  0  0  0  0  0  0
  -22.5668  -15.5773  144.3723 O   0  0  0  0  0  0  0  0  0  0  0  0
  -30.5780  -11.2811  146.9811 O   0  0  0  0  0  0  0  0  0  0  0  0
  -29.1853   -8.7507  143.4896 F   0  0  0  0  0  0  0  0  0  0  0  0
  -28.1981  -17.0426  148.1230 C   0  0  0  0  0  0  0  0  0  0  0  0
  -26.8946  -17.2785  148.4865 C   0  0  0  0  0  0  0  0  0  0  0  0
  -26.3945  -16.8672  147.8238 O   0  0  0  0  0  0  0  0  0  0  0  0
  -23.4284  -17.8771  147.7538 O   0  0  0  0  0  0  0  0  0  0  0  0
  -26.9038  -10.4179  142.6381 Cl  0  0  0  0  0  0  0  0  0  0  0  0
  -24.2371  -19.6077  146.9925 O   0  0  0  0  0  0  0  0  0  0  0  0
  -24.2796  -13.1821  144.4539 C   0  0  0  0  0  0  0  0  0  0  0  0
  -23.8920  -12.5234  145.8130 C   0  0  0  0  0  0  0  0  0  0  0  0
  -24.8044  -12.1048  146.6151 O   0  0  0  0  0  0  0  0  0  0  0  0
  -22.6524  -12.3573  146.0655 O   0  0  0  0  0  0  0  0  0  0  0  0
  1  2  1  0
  1  3  1  0
  3  4  1  0
  4  5  2  3
  5  6  1  0
  6  7  1  0
  7  8  2  3
  8  9  1  0
  6 15  1  0
  3 16  1  0
 16 17  1  0
 16 18  2  0
 10 19  1  0
 12 20  1  0
 15 21  2  0
 21 22  1  0
  5 23  1  0
 22 23  1  0
  2 24  1  0
 13 25  1  0
  2 26  2  0
 17 27  1  0
 27 28  1  0
 28 29  2  0
 28 30  1  0
  9 10  2  0
 10 11  1  0
 11 12  2  0
 12 13  1  0
 13 14  2  0
 14  9  1  0
M  END

$$$$
No_1102-/dssg/home/sw_qyf/PocketFlow/Model-Generation-Results/5HT2A_7WC7_rec_A_10.pdb/2024-01-01-03-54-21/
     RDKit          3D

 35 38  0  0  0  0  0  0  0  0999 V2000
  -23.1746  -16.6014  144.8668 C   0  0  0  0  0  0  0  0  0  0  0  0
  -23.7011  -17.0158  145.9774 C   0  0  0  0  0  0  0  0  0  0  0  0
  -24.2134  -16.0722  146.8877 C   0  0  0  0  0  0  0  0  0  0  0  0
  -23.3742  -15.2706  144.3922 C   0  0  0  0  0  0  0  0  0  0  0  0
  -24.0638  -14.3065  145.2723 C   0  0  0  0  0  0  0  0  0  0  0  0
  -24.4769  -14.7246  146.5384 C   0  0  0  0  0  0  0  0  0  0  0  0
  -24.2073  -12.8864  144.8852 C   0  0  0  0  0  0  0  0  0  0  0  0
  -24.3418  -11.9651  145.9961 C   0  0  0  0  0  0  0  0  0  0  0  0
  -23.5477  -18.4425  146.4364 C   0  0  0  0  0  0  0  0  0  0  0  0
  -22.5689  -18.6416  147.1580 F   0  0  0  0  0  0  0  0  0  0  0  0
  -24.7036  -18.7116  147.2579 F   0  0  0  0  0  0  0  0  0  0  0  0
  -23.5528  -19.2847  145.4631 F   0  0  0  0  0  0  0  0  0  0  0  0
  -25.2680  -10.9906  145.7951 C   0  0  0  0  0  0  0  0  0  0  0  0
  -25.9985  -11.0072  144.5662 C   0  0  0  0  0  0  0  0  0  0  0  0
  -27.0613   -9.9756  144.5752 C   0  0  0  0  0  0  0  0  0  0  0  0
  -28.0320   -9.9994  143.8252 C   0  0  0  0  0  0  0  0  0  0  0  0
  -28.8750   -8.9144  143.3736 C   0  0  0  0  0  0  0  0  0  0  0  0
  -28.2557   -7.8048  142.9061 C   0  0  0  0  0  0  0  0  0  0  0  0
  -30.3492   -9.0090  143.1706 C   0  0  0  0  0  0  0  0  0  0  0  0
  -31.1297  -10.2138  143.8466 Cl  0  0  0  0  0  0  0  0  0  0  0  0
  -31.0114   -8.0268  142.4139 C   0  0  0  0  0  0  0  0  0  0  0  0
  -29.0119   -6.7211  142.3472 C   0  0  0  0  0  0  0  0  0  0  0  0
  -30.3813   -6.8955  142.0973 C   0  0  0  0  0  0  0  0  0  0  0  0
  -27.8254  -11.0459  142.6989 C   0  0  0  0  0  0  0  0  0  0  0  0
  -27.6501  -12.3810  143.1506 C   0  0  0  0  0  0  0  0  0  0  0  0
  -26.3493  -12.3153  144.0251 C   0  0  0  0  0  0  0  0  0  0  0  0
  -26.6648  -13.2050  144.8992 O   0  0  0  0  0  0  0  0  0  0  0  0
  -26.8408  -14.5410  144.6217 C   0  0  0  0  0  0  0  0  0  0  0  0
  -27.4273  -15.3031  145.7202 C   0  0  0  0  0  0  0  0  0  0  0  0
  -27.7064  -16.6773  145.5730 C   0  0  0  0  0  0  0  0  0  0  0  0
  -28.1827  -17.3590  146.7499 C   0  0  0  0  0  0  0  0  0  0  0  0
  -28.3790  -16.6333  147.9793 C   0  0  0  0  0  0  0  0  0  0  0  0
  -28.2212  -15.2597  148.0480 C   0  0  0  0  0  0  0  0  0  0  0  0
  -27.7103  -14.6062  147.0130 C   0  0  0  0  0  0  0  0  0  0  0  0
  -28.9253  -17.4450  149.1247 C   0  0  0  0  0  0  0  0  0  0  0  0
  5  7  1  0
  7  8  1  0
  2  9  1  0
  9 10  1  0
  9 11  1  0
  9 12  1  0
  8 13  1  0
 13 14  1  0
 16 17  1  0
 19 20  1  0
 26 27  1  0
 27 28  1  0
 32 35  1  0
 28 29  1  0
 29 30  2  0
 30 31  1  0
 31 32  2  0
 32 33  1  0
 33 34  2  0
 34 29  1  0
  1  2  2  0
  2  3  1  0
  3  6  2  0
  6  5  1  0
  5  4  2  0
  4  1  1  0
 17 18  2  0
 18 22  1  0
 22 23  2  0
 23 21  1  0
 21 19  2  0
 19 17  1  0
 14 15  2  0
 15 16  1  0
 16 24  2  0
 24 25  1  0
 25 26  2  0
 26 14  1  0
M  END

$$$$
No_1103-/dssg/home/sw_qyf/PocketFlow/Model-Generation-Results/5HT2A_7WC7_rec_A_10.pdb/2024-01-01-03-54-21/
     RDKit          3D

 32 33  0  0  0  0  0  0  0  0999 V2000
  -23.1746  -16.6014  144.8668 C   0  0  0  0  0  0  0  0  0  0  0  0
  -23.7011  -17.0158  145.9774 C   0  0  0  0  0  0  0  0  0  0  0  0
  -24.2593  -16.1244  146.9100 C   0  0  0  0  0  0  0  0  0  0  0  0
  -24.5135  -14.7390  146.5020 C   0  0  0  0  0  0  0  0  0  0  0  0
  -24.1060  -14.3555  145.2328 C   0  0  0  0  0  0  0  0  0  0  0  0
  -24.2836  -12.9909  144.8285 C   0  0  0  0  0  0  0  0  0  0  0  0
  -23.4337  -15.2559  144.4548 C   0  0  0  0  0  0  0  0  0  0  0  0
  -24.6009  -12.0255  145.6444 C   0  0  0  0  0  0  0  0  0  0  0  0
  -25.4885  -11.0050  145.2171 C   0  0  0  0  0  0  0  0  0  0  0  0
  -26.7469  -11.4403  144.6778 C   0  0  0  0  0  0  0  0  0  0  0  0
  -27.5169  -10.4611  144.0092 C   0  0  0  0  0  0  0  0  0  0  0  0
  -28.6684   -9.9901  144.7461 C   0  0  0  0  0  0  0  0  0  0  0  0
  -29.8380   -9.4939  144.0093 C   0  0  0  0  0  0  0  0  0  0  0  0
  -29.6814   -8.6905  142.9513 C   0  0  0  0  0  0  0  0  0  0  0  0
  -30.3486   -8.4758  142.1436 C   0  0  0  0  0  0  0  0  0  0  0  0
  -30.0180   -7.5836  140.9400 C   0  0  0  0  0  0  0  0  0  0  0  0
  -23.5293  -18.4462  146.4545 C   0  0  0  0  0  0  0  0  0  0  0  0
  -24.2786  -19.2347  146.2511 O   0  0  0  0  0  0  0  0  0  0  0  0
  -29.5295   -8.1499  139.7336 C   0  0  0  0  0  0  0  0  0  0  0  0
  -29.5668   -9.0241  139.2192 C   0  0  0  0  0  0  0  0  0  0  0  0
  -28.7934   -9.2780  137.9356 C   0  0  0  0  0  0  0  0  0  0  0  0
  -28.1521   -8.0961  137.6472 N   0  0  0  0  0  0  0  0  0  0  0  0
  -28.4689   -7.1331  138.9080 C   0  0  0  0  0  0  0  0  0  0  0  0
  -30.7700   -9.6558  141.4233 F   0  0  0  0  0  0  0  0  0  0  0  0
  -31.7932   -7.8575  142.5665 C   0  0  0  0  0  0  0  0  0  0  0  0
  -22.2366  -18.7242  146.7682 O   0  0  0  0  0  0  0  0  0  0  0  0
  -27.1941  -12.7594  144.6356 C   0  0  0  0  0  0  0  0  0  0  0  0
  -28.7471  -10.2237  137.0831 N   0  0  0  0  0  0  0  0  0  0  0  0
  -24.7507  -16.5768  148.2627 C   0  0  0  0  0  0  0  0  0  0  0  0
  -25.4138  -17.3585  148.6842 N   0  0  0  0  0  0  0  0  0  0  0  0
  -25.5816  -17.5821  150.0502 C   0  0  0  0  0  0  0  0  0  0  0  0
  -26.4811  -18.3226  150.6039 N   0  0  0  0  0  0  0  0  0  0  0  0
  5  6  1  0
  6  8  1  0
  8  9  1  0
  9 10  1  0
 10 11  1  0
 11 12  1  0
 12 13  1  0
 13 14  2  3
 14 15  1  0
 15 16  1  0
  2 17  1  0
 17 18  1  0
 16 19  1  0
 19 20  2  0
 20 21  1  0
 21 22  1  0
 19 23  1  0
 22 23  1  0
 15 24  1  0
 15 25  1  0
 17 26  2  0
 10 27  1  0
 21 28  1  0
  3 29  1  0
 29 30  1  0
 30 31  1  0
 31 32  2  0
  1  2  2  0
  2  3  1  0
  3  4  2  0
  4  5  1  0
  5  7  2  0
  7  1  1  0
M  END

$$$$
No_1104-/dssg/home/sw_qyf/PocketFlow/Model-Generation-Results/5HT2A_7WC7_rec_A_10.pdb/2024-01-01-03-54-21/
     RDKit          3D

 21 21  0  0  0  0  0  0  0  0999 V2000
  -24.1553  -17.8465  145.7021 C   0  0  0  0  0  0  0  0  0  0  0  0
  -24.6364  -17.2931  146.7091 C   0  0  0  0  0  0  0  0  0  0  0  0
  -24.0780  -17.2921  147.9389 C   0  0  0  0  0  0  0  0  0  0  0  0
  -24.6761  -16.7363  149.1478 C   0  0  0  0  0  0  0  0  0  0  0  0
  -25.9985  -16.2638  148.9932 C   0  0  0  0  0  0  0  0  0  0  0  0
  -26.6270  -16.3412  147.7728 C   0  0  0  0  0  0  0  0  0  0  0  0
  -27.9899  -15.9394  147.5329 C   0  0  0  0  0  0  0  0  0  0  0  0
  -26.0201  -16.8885  146.6761 C   0  0  0  0  0  0  0  0  0  0  0  0
  -29.0925  -16.2047  148.2595 C   0  0  0  0  0  0  0  0  0  0  0  0
  -28.2429  -14.9940  146.5063 C   0  0  0  0  0  0  0  0  0  0  0  0
  -23.2800  -17.4412  145.1364 O   0  0  0  0  0  0  0  0  0  0  0  0
  -27.1869  -14.4949  145.6279 C   0  0  0  0  0  0  0  0  0  0  0  0
  -27.3128  -13.4124  144.8431 C   0  0  0  0  0  0  0  0  0  0  0  0
  -26.6712  -13.3187  143.6656 C   0  0  0  0  0  0  0  0  0  0  0  0
  -27.4418  -12.9873  142.5152 C   0  0  0  0  0  0  0  0  0  0  0  0
  -27.8431  -11.7053  142.2658 C   0  0  0  0  0  0  0  0  0  0  0  0
  -28.5190  -11.3065  141.1425 C   0  0  0  0  0  0  0  0  0  0  0  0
  -28.0022  -11.7417  139.9390 C   0  0  0  0  0  0  0  0  0  0  0  0
  -27.6617  -11.8452  138.9839 C   0  0  0  0  0  0  0  0  0  0  0  0
  -24.5390  -19.1418  145.4361 O   0  0  0  0  0  0  0  0  0  0  0  0
  -28.5040  -11.7639  137.9238 O   0  0  0  0  0  0  0  0  0  0  0  0
  1  2  1  0
  6  7  1  0
  7  9  2  0
  7 10  1  0
  1 11  2  0
 10 12  1  0
 12 13  1  0
 13 14  1  0
 14 15  1  0
 15 16  2  3
 16 17  1  0
 17 18  1  0
 18 19  3  0
  1 20  1  0
 19 21  1  0
  2  3  2  0
  3  4  1  0
  4  5  2  0
  5  6  1  0
  6  8  2  0
  8  2  1  0
M  END

$$$$
No_1105-/dssg/home/sw_qyf/PocketFlow/Model-Generation-Results/5HT2A_7WC7_rec_A_10.pdb/2024-01-01-03-54-21/
     RDKit          3D

 35 37  0  0  0  0  0  0  0  0999 V2000
  -23.1746  -16.6014  144.8668 C   0  0  0  0  0  0  0  0  0  0  0  0
  -24.0189  -16.0564  145.8445 C   0  0  0  0  0  0  0  0  0  0  0  0
  -24.4145  -16.8299  146.9062 C   0  0  0  0  0  0  0  0  0  0  0  0
  -25.2730  -16.2838  147.9150 C   0  0  0  0  0  0  0  0  0  0  0  0
  -25.7919  -14.9951  147.6737 C   0  0  0  0  0  0  0  0  0  0  0  0
  -24.5377  -14.6789  145.6474 C   0  0  0  0  0  0  0  0  0  0  0  0
  -25.4158  -14.1968  146.6885 C   0  0  0  0  0  0  0  0  0  0  0  0
  -24.1010  -13.8436  144.6138 C   0  0  0  0  0  0  0  0  0  0  0  0
  -24.8126  -13.4108  143.9286 O   0  0  0  0  0  0  0  0  0  0  0  0
  -23.9600  -18.1949  147.0534 C   0  0  0  0  0  0  0  0  0  0  0  0
  -23.2726  -18.6245  147.9416 O   0  0  0  0  0  0  0  0  0  0  0  0
  -24.0918  -18.9454  145.9881 O   0  0  0  0  0  0  0  0  0  0  0  0
  -25.8686  -12.8159  146.5732 C   0  0  0  0  0  0  0  0  0  0  0  0
  -26.3399  -12.2656  145.3368 C   0  0  0  0  0  0  0  0  0  0  0  0
  -26.7221  -10.9552  145.5656 F   0  0  0  0  0  0  0  0  0  0  0  0
  -25.3143  -12.2404  144.2618 C   0  0  0  0  0  0  0  0  0  0  0  0
  -27.5962  -12.9434  144.8252 C   0  0  0  0  0  0  0  0  0  0  0  0
  -25.6463  -16.9849  148.9512 O   0  0  0  0  0  0  0  0  0  0  0  0
  -22.8152  -13.6694  144.4475 O   0  0  0  0  0  0  0  0  0  0  0  0
  -24.8756  -17.0304  150.1049 C   0  0  0  0  0  0  0  0  0  0  0  0
  -28.1371  -13.7149  145.7129 C   0  0  0  0  0  0  0  0  0  0  0  0
  -28.5984  -13.7970  146.7318 C   0  0  0  0  0  0  0  0  0  0  0  0
  -29.6999  -14.2420  147.2481 C   0  0  0  0  0  0  0  0  0  0  0  0
  -30.3294  -14.0614  148.5680 C   0  0  0  0  0  0  0  0  0  0  0  0
  -31.2477  -13.2424  148.8667 C   0  0  0  0  0  0  0  0  0  0  0  0
  -31.8820  -13.1920  150.1792 C   0  0  0  0  0  0  0  0  0  0  0  0
  -31.8109  -14.3248  151.0049 C   0  0  0  0  0  0  0  0  0  0  0  0
  -30.9034  -15.3689  150.5621 C   0  0  0  0  0  0  0  0  0  0  0  0
  -30.3079  -15.3391  149.3786 C   0  0  0  0  0  0  0  0  0  0  0  0
  -32.7374  -12.0391  150.6176 C   0  0  0  0  0  0  0  0  0  0  0  0
  -32.2558  -10.8967  150.5167 O   0  0  0  0  0  0  0  0  0  0  0  0
  -33.9531  -12.2534  150.9315 O   0  0  0  0  0  0  0  0  0  0  0  0
  -29.4187  -16.4354  148.9854 C   0  0  0  0  0  0  0  0  0  0  0  0
  -29.4297  -17.6094  149.8752 C   0  0  0  0  0  0  0  0  0  0  0  0
  -28.8105  -17.3926  151.0283 C   0  0  0  0  0  0  0  0  0  0  0  0
  1  2  1  0
  6  8  1  0
  8  9  1  0
  3 10  1  0
 10 11  1  0
 10 12  2  0
  7 13  1  0
 13 14  1  0
 14 15  1  0
  9 16  1  0
 14 16  1  0
 14 17  1  0
  4 18  1  0
  8 19  2  0
 18 20  1  0
 17 21  1  0
 21 22  1  0
 22 23  2  3
 23 24  1  0
 26 30  1  0
 30 31  1  0
 30 32  2  0
 29 33  1  0
 33 34  2  3
 34 35  1  0
 24 25  2  0
 25 26  1  0
 26 27  2  0
 27 28  1  0
 28 29  2  0
 29 24  1  0
  2  3  2  0
  3  4  1  0
  4  5  2  0
  5  7  1  0
  7  6  2  0
  6  2  1  0
M  END

$$$$
No_1106-/dssg/home/sw_qyf/PocketFlow/Model-Generation-Results/5HT2A_7WC7_rec_A_10.pdb/2024-01-01-03-54-21/
     RDKit          3D

 35 37  0  0  0  0  0  0  0  0999 V2000
  -24.1553  -17.8465  145.7021 C   0  0  0  0  0  0  0  0  0  0  0  0
  -23.9795  -18.4462  146.7426 C   0  0  0  0  0  0  0  0  0  0  0  0
  -24.2723  -16.4220  145.8037 C   0  0  0  0  0  0  0  0  0  0  0  0
  -24.9934  -15.8373  146.8363 C   0  0  0  0  0  0  0  0  0  0  0  0
  -24.4240  -17.9698  148.0343 C   0  0  0  0  0  0  0  0  0  0  0  0
  -25.3734  -16.6013  147.7934 C   0  0  0  0  0  0  0  0  0  0  0  0
  -24.0371  -15.5765  144.5823 C   0  0  0  0  0  0  0  0  0  0  0  0
  -24.5859  -14.2888  144.5663 C   0  0  0  0  0  0  0  0  0  0  0  0
  -23.7967  -13.3041  144.3188 C   0  0  0  0  0  0  0  0  0  0  0  0
  -23.6838  -12.1639  145.4174 C   0  0  0  0  0  0  0  0  0  0  0  0
  -24.8255  -11.3769  145.3819 C   0  0  0  0  0  0  0  0  0  0  0  0
  -26.1717  -12.0642  145.2697 C   0  0  0  0  0  0  0  0  0  0  0  0
  -26.4725  -13.2513  144.7610 C   0  0  0  0  0  0  0  0  0  0  0  0
  -25.9622  -14.2489  144.6743 C   0  0  0  0  0  0  0  0  0  0  0  0
  -27.1917  -10.8158  145.2099 C   0  0  0  0  0  0  0  0  0  0  0  0
  -28.5409  -11.1622  145.4401 C   0  0  0  0  0  0  0  0  0  0  0  0
  -28.9503  -12.1185  146.3705 C   0  0  0  0  0  0  0  0  0  0  0  0
  -30.0079  -11.7555  147.3573 C   0  0  0  0  0  0  0  0  0  0  0  0
  -30.3250  -12.7095  148.3758 C   0  0  0  0  0  0  0  0  0  0  0  0
  -29.7885  -14.0396  148.2244 C   0  0  0  0  0  0  0  0  0  0  0  0
  -28.7901  -14.3332  147.3113 C   0  0  0  0  0  0  0  0  0  0  0  0
  -28.4378  -13.3710  146.4061 C   0  0  0  0  0  0  0  0  0  0  0  0
  -29.4833  -10.4167  144.6585 C   0  0  0  0  0  0  0  0  0  0  0  0
  -29.2143   -9.6826  143.5248 C   0  0  0  0  0  0  0  0  0  0  0  0
  -30.0581   -9.3437  142.6905 C   0  0  0  0  0  0  0  0  0  0  0  0
  -30.4305   -8.2078  142.3622 C   0  0  0  0  0  0  0  0  0  0  0  0
  -29.3625   -7.2089  142.0661 C   0  0  0  0  0  0  0  0  0  0  0  0
  -29.4950   -6.2086  141.1423 C   0  0  0  0  0  0  0  0  0  0  0  0
  -23.1316  -15.9888  143.8286 O   0  0  0  0  0  0  0  0  0  0  0  0
  -31.5628  -12.3593  149.5100 Cl  0  0  0  0  0  0  0  0  0  0  0  0
  -30.6318  -10.4495  141.9925 O   0  0  0  0  0  0  0  0  0  0  0  0
  -31.6910   -7.7032  142.2596 O   0  0  0  0  0  0  0  0  0  0  0  0
  -28.3572  -15.6195  147.3094 N   0  0  0  0  0  0  0  0  0  0  0  0
  -27.9933  -16.4001  148.3631 C   0  0  0  0  0  0  0  0  0  0  0  0
  -28.3235  -16.4076  146.0861 C   0  0  0  0  0  0  0  0  0  0  0  0
  3  7  1  0
  7  8  1  0
  8  9  1  0
  9 10  1  0
 10 11  1  0
 11 12  1  0
 12 13  2  0
  8 14  1  0
 13 14  1  0
 12 15  1  0
 15 16  1  0
 16 17  1  0
 16 23  1  0
 23 24  2  3
 24 25  1  0
 25 26  1  0
 26 27  1  0
 27 28  1  0
  7 29  2  0
 19 30  1  0
 25 31  1  0
 26 32  2  0
 21 33  1  0
 33 34  1  0
 33 35  1  0
 17 18  2  0
 18 19  1  0
 19 20  2  0
 20 21  1  0
 21 22  2  0
 22 17  1  0
  1  2  2  0
  2  5  1  0
  5  6  2  0
  6  4  1  0
  4  3  2  0
  3  1  1  0
M  END

$$$$
No_1107-/dssg/home/sw_qyf/PocketFlow/Model-Generation-Results/5HT2A_7WC7_rec_A_10.pdb/2024-01-01-03-54-21/
     RDKit          3D

 20 22  0  0  0  0  0  0  0  0999 V2000
  -24.1553  -17.8465  145.7021 C   0  0  0  0  0  0  0  0  0  0  0  0
  -24.2856  -16.6364  145.3494 C   0  0  0  0  0  0  0  0  0  0  0  0
  -24.7211  -15.5955  146.2115 C   0  0  0  0  0  0  0  0  0  0  0  0
  -24.8539  -14.2010  145.8739 C   0  0  0  0  0  0  0  0  0  0  0  0
  -24.1440  -13.8321  144.7074 C   0  0  0  0  0  0  0  0  0  0  0  0
  -23.4275  -14.8130  143.9942 C   0  0  0  0  0  0  0  0  0  0  0  0
  -23.5366  -16.0900  144.3641 N   0  0  0  0  0  0  0  0  0  0  0  0
  -25.0287  -18.4322  146.6889 C   0  0  0  0  0  0  0  0  0  0  0  0
  -25.6349  -17.5048  147.5882 C   0  0  0  0  0  0  0  0  0  0  0  0
  -25.7351  -16.1243  147.2914 C   0  0  0  0  0  0  0  0  0  0  0  0
  -23.1177  -12.7797  145.1266 O   0  0  0  0  0  0  0  0  0  0  0  0
  -26.1351  -13.5567  146.1406 C   0  0  0  0  0  0  0  0  0  0  0  0
  -26.0609  -12.0873  146.1817 C   0  0  0  0  0  0  0  0  0  0  0  0
  -25.2404  -11.3525  145.4143 C   0  0  0  0  0  0  0  0  0  0  0  0
  -24.6782  -11.9346  144.3906 Cl  0  0  0  0  0  0  0  0  0  0  0  0
  -22.0994  -12.1816  144.9778 C   0  0  0  0  0  0  0  0  0  0  0  0
  -27.0925  -11.4786  146.9295 O   0  0  0  0  0  0  0  0  0  0  0  0
  -28.2521  -12.2026  147.0131 C   0  0  0  0  0  0  0  0  0  0  0  0
  -28.5273  -13.4420  146.6891 C   0  0  0  0  0  0  0  0  0  0  0  0
  -27.3051  -14.1820  146.4576 C   0  0  0  0  0  0  0  0  0  0  0  0
  3  4  1  0
  4  5  1  0
  5  6  1  0
  2  7  1  0
  6  7  1  0
  5 11  1  0
  4 12  1  0
 12 13  1  0
 13 14  1  0
 14 15  1  0
 11 16  1  0
 13 17  1  0
 17 18  1  0
 18 19  2  0
 12 20  1  0
 19 20  1  0
  1  2  2  0
  2  3  1  0
  3 10  2  0
 10  9  1  0
  9  8  2  0
  8  1  1  0
M  END

$$$$
No_1108-/dssg/home/sw_qyf/PocketFlow/Model-Generation-Results/5HT2A_7WC7_rec_A_10.pdb/2024-01-01-03-54-21/
     RDKit          3D

 13 14  0  0  0  0  0  0  0  0999 V2000
  -23.1746  -16.6014  144.8668 C   0  0  0  0  0  0  0  0  0  0  0  0
  -24.0189  -16.0564  145.8445 C   0  0  0  0  0  0  0  0  0  0  0  0
  -24.4850  -14.7380  145.6359 C   0  0  0  0  0  0  0  0  0  0  0  0
  -25.3334  -14.0797  146.6105 C   0  0  0  0  0  0  0  0  0  0  0  0
  -25.7120  -12.7595  146.4431 C   0  0  0  0  0  0  0  0  0  0  0  0
  -25.3190  -11.9841  145.3047 C   0  0  0  0  0  0  0  0  0  0  0  0
  -24.3451  -12.6067  144.4930 C   0  0  0  0  0  0  0  0  0  0  0  0
  -23.9468  -13.9401  144.7201 C   0  0  0  0  0  0  0  0  0  0  0  0
  -24.4836  -16.8193  146.9469 C   0  0  0  0  0  0  0  0  0  0  0  0
  -24.0177  -18.0902  147.1454 C   0  0  0  0  0  0  0  0  0  0  0  0
  -23.2652  -18.6715  146.1643 C   0  0  0  0  0  0  0  0  0  0  0  0
  -22.8951  -17.9712  145.0854 N   0  0  0  0  0  0  0  0  0  0  0  0
  -25.7631  -10.3848  145.0972 Cl  0  0  0  0  0  0  0  0  0  0  0  0
  6 13  1  0
  2  3  1  0
  1  2  2  0
  2  9  1  0
  9 10  2  0
 10 11  1  0
 11 12  2  0
 12  1  1  0
  3  4  2  0
  4  5  1  0
  5  6  2  0
  6  7  1  0
  7  8  2  0
  8  3  1  0
M  END

$$$$
No_1109-/dssg/home/sw_qyf/PocketFlow/Model-Generation-Results/5HT2A_7WC7_rec_A_10.pdb/2024-01-01-03-54-21/
     RDKit          3D

 19 20  0  0  0  0  0  0  0  0999 V2000
  -23.1746  -16.6014  144.8668 C   0  0  0  0  0  0  0  0  0  0  0  0
  -23.8963  -15.5346  144.7885 C   0  0  0  0  0  0  0  0  0  0  0  0
  -25.0304  -15.2549  144.5358 C   0  0  0  0  0  0  0  0  0  0  0  0
  -25.6045  -13.9524  144.2294 C   0  0  0  0  0  0  0  0  0  0  0  0
  -24.8624  -12.8904  144.6738 C   0  0  0  0  0  0  0  0  0  0  0  0
  -23.5278  -13.1645  145.1476 C   0  0  0  0  0  0  0  0  0  0  0  0
  -23.0570  -14.3847  145.1775 N   0  0  0  0  0  0  0  0  0  0  0  0
  -23.7125  -17.6198  145.9098 C   0  0  0  0  0  0  0  0  0  0  0  0
  -23.5792  -17.1825  147.1646 C   0  0  0  0  0  0  0  0  0  0  0  0
  -24.6840  -16.8158  148.0351 C   0  0  0  0  0  0  0  0  0  0  0  0
  -25.8228  -16.2594  147.6232 C   0  0  0  0  0  0  0  0  0  0  0  0
  -22.7036  -12.0961  145.4632 N   0  0  0  0  0  0  0  0  0  0  0  0
  -25.9652  -15.2036  146.9008 C   0  0  0  0  0  0  0  0  0  0  0  0
  -27.1208  -14.3729  146.8494 C   0  0  0  0  0  0  0  0  0  0  0  0
  -28.3281  -14.9098  147.4008 C   0  0  0  0  0  0  0  0  0  0  0  0
  -28.2447  -16.1429  148.1158 C   0  0  0  0  0  0  0  0  0  0  0  0
  -27.0297  -16.7886  148.2756 C   0  0  0  0  0  0  0  0  0  0  0  0
  -24.4482  -17.2136  149.5103 C   0  0  0  0  0  0  0  0  0  0  0  0
  -23.3282  -17.1722  150.1002 O   0  0  0  0  0  0  0  0  0  0  0  0
  1  2  1  0
  1  8  1  0
  8  9  1  0
  9 10  1  0
 10 11  1  0
  6 12  1  0
 10 18  1  0
 18 19  2  0
  2  3  2  0
  3  4  1  0
  4  5  2  0
  5  6  1  0
  6  7  2  0
  7  2  1  0
 11 13  2  0
 13 14  1  0
 14 15  2  0
 15 16  1  0
 16 17  2  0
 17 11  1  0
M  END

$$$$
No_1110-/dssg/home/sw_qyf/PocketFlow/Model-Generation-Results/5HT2A_7WC7_rec_A_10.pdb/2024-01-01-03-54-21/
     RDKit          3D

 35 38  0  0  0  0  0  0  0  0999 V2000
  -24.1553  -17.8465  145.7021 C   0  0  0  0  0  0  0  0  0  0  0  0
  -23.9795  -18.4462  146.7426 C   0  0  0  0  0  0  0  0  0  0  0  0
  -25.1593  -16.8262  145.6925 C   0  0  0  0  0  0  0  0  0  0  0  0
  -24.9465  -15.5961  144.9952 C   0  0  0  0  0  0  0  0  0  0  0  0
  -25.8339  -14.4742  145.0599 C   0  0  0  0  0  0  0  0  0  0  0  0
  -25.6290  -13.3152  144.3271 C   0  0  0  0  0  0  0  0  0  0  0  0
  -24.6336  -18.1358  147.9662 C   0  0  0  0  0  0  0  0  0  0  0  0
  -25.5331  -17.0778  148.0459 C   0  0  0  0  0  0  0  0  0  0  0  0
  -25.6760  -16.2601  146.9321 C   0  0  0  0  0  0  0  0  0  0  0  0
  -26.2982  -14.9827  146.8079 C   0  0  0  0  0  0  0  0  0  0  0  0
  -26.8984  -12.6783  143.9549 C   0  0  0  0  0  0  0  0  0  0  0  0
  -27.6911  -12.0849  144.9178 C   0  0  0  0  0  0  0  0  0  0  0  0
  -28.5655  -11.0543  144.6060 C   0  0  0  0  0  0  0  0  0  0  0  0
  -28.6184  -10.4618  143.4115 C   0  0  0  0  0  0  0  0  0  0  0  0
  -28.0640  -11.1667  142.3584 C   0  0  0  0  0  0  0  0  0  0  0  0
  -27.1313  -12.2376  142.6448 C   0  0  0  0  0  0  0  0  0  0  0  0
  -29.5772   -9.3849  143.1038 C   0  0  0  0  0  0  0  0  0  0  0  0
  -29.4018   -8.5265  142.0963 C   0  0  0  0  0  0  0  0  0  0  0  0
  -28.7691   -8.6156  140.9052 C   0  0  0  0  0  0  0  0  0  0  0  0
  -28.1827   -9.6386  140.2803 C   0  0  0  0  0  0  0  0  0  0  0  0
  -27.6361  -10.6949  141.0836 C   0  0  0  0  0  0  0  0  0  0  0  0
  -27.6610   -9.4809  138.9843 C   0  0  0  0  0  0  0  0  0  0  0  0
  -28.0595   -8.4214  138.2399 N   0  0  0  0  0  0  0  0  0  0  0  0
  -30.8419   -9.5776  143.5338 O   0  0  0  0  0  0  0  0  0  0  0  0
  -29.9878   -7.2019  142.4850 C   0  0  0  0  0  0  0  0  0  0  0  0
  -24.0201  -15.5028  144.0202 O   0  0  0  0  0  0  0  0  0  0  0  0
  -26.0455  -16.6657  149.2239 O   0  0  0  0  0  0  0  0  0  0  0  0
  -29.4165   -6.1338  141.9791 O   0  0  0  0  0  0  0  0  0  0  0  0
  -30.8829   -7.0420  143.4159 O   0  0  0  0  0  0  0  0  0  0  0  0
  -29.2403   -8.5023  137.4434 C   0  0  0  0  0  0  0  0  0  0  0  0
  -23.6340  -18.1813  144.5975 O   0  0  0  0  0  0  0  0  0  0  0  0
  -29.1183   -9.7032  136.6211 C   0  0  0  0  0  0  0  0  0  0  0  0
  -29.4075   -9.6260  135.3019 C   0  0  0  0  0  0  0  0  0  0  0  0
  -29.2877  -10.8520  134.7319 O   0  0  0  0  0  0  0  0  0  0  0  0
  -28.5166  -11.7364  135.6516 C   0  0  0  0  0  0  0  0  0  0  0  0
  1  2  1  0
  1  3  1  0
  3  4  2  0
  4  5  1  0
  5  6  2  3
  2  7  1  0
  7  8  1  0
  3  9  1  0
  8  9  1  0
  5 10  1  0
  9 10  1  0
  6 11  1  0
 14 17  1  0
 17 18  2  0
 18 19  1  0
 19 20  2  0
 15 21  1  0
 20 21  1  0
 20 22  1  0
 22 23  1  0
 17 24  1  0
 18 25  1  0
  4 26  1  0
  8 27  1  0
 25 28  2  0
 25 29  1  0
 23 30  1  0
  1 31  1  0
 30 32  1  0
 32 33  1  0
 33 34  1  0
 34 35  1  0
 11 12  2  0
 12 13  1  0
 13 14  2  0
 14 15  1  0
 15 16  2  0
 16 11  1  0
M  END

$$$$
No_1111-/dssg/home/sw_qyf/PocketFlow/Model-Generation-Results/5HT2A_7WC7_rec_A_10.pdb/2024-01-01-03-54-21/
     RDKit          3D

 25 26  0  0  0  0  0  0  0  0999 V2000
  -24.1553  -17.8465  145.7021 C   0  0  0  0  0  0  0  0  0  0  0  0
  -24.2855  -16.6364  145.3494 C   0  0  0  0  0  0  0  0  0  0  0  0
  -24.1962  -15.9414  144.2650 C   0  0  0  0  0  0  0  0  0  0  0  0
  -24.3870  -14.5486  144.1162 C   0  0  0  0  0  0  0  0  0  0  0  0
  -24.7523  -13.8439  145.3544 C   0  0  0  0  0  0  0  0  0  0  0  0
  -24.8596  -14.5458  146.5907 C   0  0  0  0  0  0  0  0  0  0  0  0
  -24.5646  -15.8706  146.6408 C   0  0  0  0  0  0  0  0  0  0  0  0
  -23.9595  -18.4544  146.5363 C   0  0  0  0  0  0  0  0  0  0  0  0
  -24.1551  -17.8397  147.9009 C   0  0  0  0  0  0  0  0  0  0  0  0
  -24.3936  -16.5176  147.9422 C   0  0  0  0  0  0  0  0  0  0  0  0
  -25.0645  -12.3991  145.3161 C   0  0  0  0  0  0  0  0  0  0  0  0
  -25.9060  -11.8048  146.2564 C   0  0  0  0  0  0  0  0  0  0  0  0
  -27.2648  -11.5052  145.6862 C   0  0  0  0  0  0  0  0  0  0  0  0
  -27.3875  -10.7830  144.6186 C   0  0  0  0  0  0  0  0  0  0  0  0
  -28.5942  -10.0824  144.3409 C   0  0  0  0  0  0  0  0  0  0  0  0
  -28.7811   -9.2928  143.2047 C   0  0  0  0  0  0  0  0  0  0  0  0
  -29.6012   -8.1771  143.1450 C   0  0  0  0  0  0  0  0  0  0  0  0
  -29.4094   -7.1221  142.2692 C   0  0  0  0  0  0  0  0  0  0  0  0
  -29.5485   -5.7597  142.5674 C   0  0  0  0  0  0  0  0  0  0  0  0
  -29.3945   -7.4730  140.8453 C   0  0  0  0  0  0  0  0  0  0  0  0
  -30.1746   -8.4569  140.3101 C   0  0  0  0  0  0  0  0  0  0  0  0
  -29.7004   -5.4759  143.8025 O   0  0  0  0  0  0  0  0  0  0  0  0
  -29.0833   -4.8686  141.7955 O   0  0  0  0  0  0  0  0  0  0  0  0
  -28.3960  -11.9509  146.4123 C   0  0  0  0  0  0  0  0  0  0  0  0
  -28.3193  -12.9061  147.5092 C   0  0  0  0  0  0  0  0  0  0  0  0
  2  3  1  0
  3  4  1  0
  4  5  1  0
  5  6  1  0
  6  7  1  0
  5 11  1  0
 11 12  1  0
 12 13  1  0
 13 14  1  0
 14 15  2  3
 15 16  1  0
 16 17  1  0
 17 18  1  0
 18 19  1  0
 18 20  1  0
 20 21  1  0
 19 22  2  0
 19 23  1  0
 13 24  1  0
 24 25  1  0
  1  2  2  0
  2  7  1  0
  7 10  2  0
 10  9  1  0
  9  8  2  0
  8  1  1  0
M  END

$$$$
No_1112-/dssg/home/sw_qyf/PocketFlow/Model-Generation-Results/5HT2A_7WC7_rec_A_10.pdb/2024-01-01-03-54-21/
     RDKit          3D

 27 30  0  0  0  0  0  0  0  0999 V2000
  -24.1553  -17.8465  145.7021 C   0  0  0  0  0  0  0  0  0  0  0  0
  -24.2856  -16.6364  145.3494 C   0  0  0  0  0  0  0  0  0  0  0  0
  -24.7211  -15.5955  146.2115 C   0  0  0  0  0  0  0  0  0  0  0  0
  -25.1322  -16.0374  147.5372 C   0  0  0  0  0  0  0  0  0  0  0  0
  -24.5163  -18.2968  146.9928 C   0  0  0  0  0  0  0  0  0  0  0  0
  -24.9534  -17.3074  147.9886 C   0  0  0  0  0  0  0  0  0  0  0  0
  -24.8711  -14.1852  145.8109 C   0  0  0  0  0  0  0  0  0  0  0  0
  -25.5241  -13.2608  146.5330 C   0  0  0  0  0  0  0  0  0  0  0  0
  -25.4755  -11.9231  146.2011 C   0  0  0  0  0  0  0  0  0  0  0  0
  -24.1557  -13.7534  144.6751 C   0  0  0  0  0  0  0  0  0  0  0  0
  -23.4373  -14.5413  143.8875 N   0  0  0  0  0  0  0  0  0  0  0  0
  -25.8683  -11.7492  145.0587 C   0  0  0  0  0  0  0  0  0  0  0  0
  -24.8836  -12.5183  144.1150 C   0  0  0  0  0  0  0  0  0  0  0  0
  -27.2947  -11.9439  144.6030 C   0  0  0  0  0  0  0  0  0  0  0  0
  -27.8333  -10.8996  143.8281 C   0  0  0  0  0  0  0  0  0  0  0  0
  -28.9383  -10.1552  144.3101 C   0  0  0  0  0  0  0  0  0  0  0  0
  -29.7109  -10.4623  145.4170 C   0  0  0  0  0  0  0  0  0  0  0  0
  -29.5132   -9.0746  143.4586 C   0  0  0  0  0  0  0  0  0  0  0  0
  -30.2959   -9.3280  142.4867 C   0  0  0  0  0  0  0  0  0  0  0  0
  -30.8467   -8.2669  141.6862 C   0  0  0  0  0  0  0  0  0  0  0  0
  -29.8316   -7.3254  141.0443 Cl  0  0  0  0  0  0  0  0  0  0  0  0
  -29.3870  -11.6108  146.2247 C   0  0  0  0  0  0  0  0  0  0  0  0
  -28.1460  -12.3324  145.7838 C   0  0  0  0  0  0  0  0  0  0  0  0
  -29.8275  -11.7004  147.5784 C   0  0  0  0  0  0  0  0  0  0  0  0
  -29.9087  -13.1560  148.0809 C   0  0  0  0  0  0  0  0  0  0  0  0
  -29.0161  -14.0787  147.7137 C   0  0  0  0  0  0  0  0  0  0  0  0
  -28.1943  -13.7437  146.4474 C   0  0  0  0  0  0  0  0  0  0  0  0
  3  7  1  0
 10 11  1  0
 12 14  1  0
 14 15  1  0
 15 16  1  0
 16 17  1  0
 16 18  1  0
 18 19  2  3
 19 20  1  0
 20 21  1  0
 17 22  1  0
 14 23  1  0
 22 23  2  0
 23 27  1  0
 27 26  2  0
 26 25  1  0
 25 24  2  0
 24 22  1  0
  7  8  2  0
  8  9  1  0
  9 12  2  0
 12 13  1  0
 13 10  2  0
 10  7  1  0
  1  2  2  0
  2  3  1  0
  3  4  2  0
  4  6  1  0
  6  5  2  0
  5  1  1  0
M  END

$$$$
No_1113-/dssg/home/sw_qyf/PocketFlow/Model-Generation-Results/5HT2A_7WC7_rec_A_10.pdb/2024-01-01-03-54-21/
     RDKit          3D

 13 14  0  0  0  0  0  0  0  0999 V2000
  -24.1553  -17.8465  145.7021 C   0  0  0  0  0  0  0  0  0  0  0  0
  -24.2856  -16.6364  145.3494 C   0  0  0  0  0  0  0  0  0  0  0  0
  -24.1962  -15.9414  144.2650 C   0  0  0  0  0  0  0  0  0  0  0  0
  -24.3870  -14.5486  144.1162 C   0  0  0  0  0  0  0  0  0  0  0  0
  -24.7524  -13.8439  145.3544 C   0  0  0  0  0  0  0  0  0  0  0  0
  -24.8216  -12.3993  145.3596 C   0  0  0  0  0  0  0  0  0  0  0  0
  -24.2456  -18.3779  147.0228 C   0  0  0  0  0  0  0  0  0  0  0  0
  -25.8967  -11.8548  146.0223 C   0  0  0  0  0  0  0  0  0  0  0  0
  -24.6395  -15.5044  146.4337 C   0  0  0  0  0  0  0  0  0  0  0  0
  -26.0225  -13.6083  145.9287 C   0  0  0  0  0  0  0  0  0  0  0  0
  -24.8443  -15.4842  147.7139 C   0  0  0  0  0  0  0  0  0  0  0  0
  -23.9883  -14.7095  146.3764 O   0  0  0  0  0  0  0  0  0  0  0  0
  -27.1847  -14.0943  145.9537 C   0  0  0  0  0  0  0  0  0  0  0  0
  1  2  2  3
  2  3  1  0
  3  4  1  0
  4  5  1  0
  5  6  1  0
  1  7  1  0
  6  8  2  0
  2  9  1  0
  5 10  1  0
  8 10  1  0
  9 11  2  0
  5 12  1  0
  9 12  1  0
 10 13  1  0
M  END

$$$$
No_1114-/dssg/home/sw_qyf/PocketFlow/Model-Generation-Results/5HT2A_7WC7_rec_A_10.pdb/2024-01-01-03-54-21/
     RDKit          3D

 35 36  0  0  0  0  0  0  0  0999 V2000
  -23.1746  -16.6014  144.8668 C   0  0  0  0  0  0  0  0  0  0  0  0
  -23.8963  -15.5346  144.7885 C   0  0  0  0  0  0  0  0  0  0  0  0
  -23.6398  -14.5115  145.3282 C   0  0  0  0  0  0  0  0  0  0  0  0
  -24.3239  -13.3647  145.1279 C   0  0  0  0  0  0  0  0  0  0  0  0
  -23.8302  -12.0965  145.7919 C   0  0  0  0  0  0  0  0  0  0  0  0
  -25.2248  -13.1425  144.2932 F   0  0  0  0  0  0  0  0  0  0  0  0
  -23.5893  -17.7772  145.6472 C   0  0  0  0  0  0  0  0  0  0  0  0
  -23.5608  -17.4791  147.0152 C   0  0  0  0  0  0  0  0  0  0  0  0
  -24.7999  -17.6253  147.8248 C   0  0  0  0  0  0  0  0  0  0  0  0
  -25.2598  -16.4399  148.3048 C   0  0  0  0  0  0  0  0  0  0  0  0
  -26.7957  -16.4290  148.4271 C   0  0  0  0  0  0  0  0  0  0  0  0
  -27.4678  -16.2874  147.1691 C   0  0  0  0  0  0  0  0  0  0  0  0
  -27.1046  -16.6988  146.0438 C   0  0  0  0  0  0  0  0  0  0  0  0
  -28.7420  -15.5736  147.2415 C   0  0  0  0  0  0  0  0  0  0  0  0
  -29.1661  -14.4953  146.4856 C   0  0  0  0  0  0  0  0  0  0  0  0
  -29.2120  -13.2164  147.0991 C   0  0  0  0  0  0  0  0  0  0  0  0
  -29.8377  -12.8743  148.2139 C   0  0  0  0  0  0  0  0  0  0  0  0
  -28.6620  -12.0697  146.2695 C   0  0  0  0  0  0  0  0  0  0  0  0
  -27.2754  -11.9904  146.0104 C   0  0  0  0  0  0  0  0  0  0  0  0
  -26.6804  -10.8161  145.5601 C   0  0  0  0  0  0  0  0  0  0  0  0
  -27.4899  -10.0526  144.5852 C   0  0  0  0  0  0  0  0  0  0  0  0
  -28.9063  -10.2228  144.6916 C   0  0  0  0  0  0  0  0  0  0  0  0
  -29.5106  -11.2465  145.4757 C   0  0  0  0  0  0  0  0  0  0  0  0
  -29.7298   -9.3376  143.8477 C   0  0  0  0  0  0  0  0  0  0  0  0
  -29.9398   -9.6300  142.5678 C   0  0  0  0  0  0  0  0  0  0  0  0
  -30.0813   -8.7050  141.7170 C   0  0  0  0  0  0  0  0  0  0  0  0
  -30.4587   -7.3533  142.1310 C   0  0  0  0  0  0  0  0  0  0  0  0
  -30.4302   -7.1368  143.5287 C   0  0  0  0  0  0  0  0  0  0  0  0
  -29.9999   -8.0560  144.4035 C   0  0  0  0  0  0  0  0  0  0  0  0
  -29.5352  -10.8212  142.0522 O   0  0  0  0  0  0  0  0  0  0  0  0
  -28.5542  -10.8543  141.0795 C   0  0  0  0  0  0  0  0  0  0  0  0
  -28.1885  -12.1864  140.6650 C   0  0  0  0  0  0  0  0  0  0  0  0
  -27.4221  -12.3142  139.4890 C   0  0  0  0  0  0  0  0  0  0  0  0
  -25.9661  -12.2722  139.6224 C   0  0  0  0  0  0  0  0  0  0  0  0
  -25.3801  -12.5594  138.4096 O   0  0  0  0  0  0  0  0  0  0  0  0
  1  2  1  0
  2  3  2  3
  3  4  1  0
  4  5  1  0
  4  6  1  0
  1  7  1  0
  7  8  2  3
  8  9  1  0
  9 10  1  0
 10 11  1  0
 11 12  1  0
 12 13  2  0
 12 14  1  0
 14 15  2  3
 15 16  1  0
 16 17  1  0
 16 18  1  0
 22 24  1  0
 25 30  1  0
 30 31  1  0
 31 32  1  0
 32 33  1  0
 33 34  1  0
 34 35  1  0
 18 19  2  0
 19 20  1  0
 20 21  2  0
 21 22  1  0
 22 23  2  0
 23 18  1  0
 24 25  2  0
 25 26  1  0
 26 27  2  0
 27 28  1  0
 28 29  2  0
 29 24  1  0
M  END

$$$$
No_1115-/dssg/home/sw_qyf/PocketFlow/Model-Generation-Results/5HT2A_7WC7_rec_A_10.pdb/2024-01-01-03-54-21/
     RDKit          3D

 35 37  0  0  0  0  0  0  0  0999 V2000
  -24.1553  -17.8465  145.7021 C   0  0  0  0  0  0  0  0  0  0  0  0
  -23.9795  -18.4462  146.7426 C   0  0  0  0  0  0  0  0  0  0  0  0
  -25.1593  -16.8262  145.6925 C   0  0  0  0  0  0  0  0  0  0  0  0
  -26.3426  -16.9003  146.3448 C   0  0  0  0  0  0  0  0  0  0  0  0
  -24.9078  -18.3640  147.8289 C   0  0  0  0  0  0  0  0  0  0  0  0
  -26.0312  -17.5122  147.7122 C   0  0  0  0  0  0  0  0  0  0  0  0
  -27.4996  -16.1150  146.1993 C   0  0  0  0  0  0  0  0  0  0  0  0
  -27.2984  -14.8027  146.7384 C   0  0  0  0  0  0  0  0  0  0  0  0
  -28.3155  -13.8330  146.6948 C   0  0  0  0  0  0  0  0  0  0  0  0
  -28.4201  -12.7772  146.0045 C   0  0  0  0  0  0  0  0  0  0  0  0
  -29.6013  -11.8603  146.0848 C   0  0  0  0  0  0  0  0  0  0  0  0
  -29.6101  -10.6428  145.3512 C   0  0  0  0  0  0  0  0  0  0  0  0
  -28.6176  -10.3473  144.4120 C   0  0  0  0  0  0  0  0  0  0  0  0
  -27.4349  -11.2100  144.4260 C   0  0  0  0  0  0  0  0  0  0  0  0
  -27.3662  -12.3430  145.1494 C   0  0  0  0  0  0  0  0  0  0  0  0
  -29.4543  -14.3149  147.5362 C   0  0  0  0  0  0  0  0  0  0  0  0
  -28.6086   -9.0918  143.6835 C   0  0  0  0  0  0  0  0  0  0  0  0
  -29.1371   -9.2747  142.2381 C   0  0  0  0  0  0  0  0  0  0  0  0
  -29.2603  -10.4142  141.6729 C   0  0  0  0  0  0  0  0  0  0  0  0
  -29.4524   -8.0557  141.5273 C   0  0  0  0  0  0  0  0  0  0  0  0
  -30.0897   -6.9894  142.1845 C   0  0  0  0  0  0  0  0  0  0  0  0
  -29.0410   -7.9174  140.2060 C   0  0  0  0  0  0  0  0  0  0  0  0
  -29.3210   -8.6546  139.2240 C   0  0  0  0  0  0  0  0  0  0  0  0
  -28.9844   -8.0817  137.9205 C   0  0  0  0  0  0  0  0  0  0  0  0
  -22.9877  -17.2250  145.0999 O   0  0  0  0  0  0  0  0  0  0  0  0
  -27.8928   -7.4216  137.9743 F   0  0  0  0  0  0  0  0  0  0  0  0
  -29.8994   -7.3572  137.3990 F   0  0  0  0  0  0  0  0  0  0  0  0
  -28.7939   -9.0594  136.9329 F   0  0  0  0  0  0  0  0  0  0  0  0
  -25.1725  -15.8578  144.6098 N   0  0  0  0  0  0  0  0  0  0  0  0
  -24.1103  -14.9732  144.4298 C   0  0  0  0  0  0  0  0  0  0  0  0
  -24.4729  -13.4942  144.0995 C   0  0  0  0  0  0  0  0  0  0  0  0
  -23.5415  -12.7253  144.2790 O   0  0  0  0  0  0  0  0  0  0  0  0
  -30.6245  -13.6377  147.5120 C   0  0  0  0  0  0  0  0  0  0  0  0
  -30.6920  -12.3153  146.9373 C   0  0  0  0  0  0  0  0  0  0  0  0
  -23.5332  -11.9240  145.5944 C   0  0  0  0  0  0  0  0  0  0  0  0
  4  7  1  0
  7  8  1  0
 13 17  1  0
 17 18  1  0
 18 19  1  0
 18 20  1  0
 20 21  1  0
 20 22  1  0
 22 23  2  3
 23 24  1  0
  1 25  1  0
 24 26  1  0
 24 27  1  0
 24 28  1  0
  3 29  1  0
 29 30  1  0
 30 31  1  0
 31 32  1  0
 32 35  1  0
  8  9  1  0
  9 10  1  0
 11 34  1  0
 34 33  2  0
 33 16  1  0
 16  9  2  0
  1  2  2  0
  2  5  1  0
  5  6  2  0
  6  4  1  0
  4  3  2  0
  3  1  1  0
 10 11  1  0
 11 12  2  0
 12 13  1  0
 13 14  2  0
 14 15  1  0
 15 10  2  0
M  END

$$$$
No_1116-/dssg/home/sw_qyf/PocketFlow/Model-Generation-Results/5HT2A_7WC7_rec_A_10.pdb/2024-01-01-03-54-21/
     RDKit          3D

 35 38  0  0  0  0  0  0  0  0999 V2000
  -23.1746  -16.6014  144.8668 C   0  0  0  0  0  0  0  0  0  0  0  0
  -23.8963  -15.5346  144.7885 C   0  0  0  0  0  0  0  0  0  0  0  0
  -23.6398  -14.5115  145.3281 C   0  0  0  0  0  0  0  0  0  0  0  0
  -23.4462  -13.2703  144.4419 C   0  0  0  0  0  0  0  0  0  0  0  0
  -23.6634  -17.6156  145.8685 C   0  0  0  0  0  0  0  0  0  0  0  0
  -23.9125  -18.7332  145.8156 C   0  0  0  0  0  0  0  0  0  0  0  0
  -23.3294  -13.4147  143.3288 O   0  0  0  0  0  0  0  0  0  0  0  0
  -23.2127  -12.0203  145.1184 N   0  0  0  0  0  0  0  0  0  0  0  0
  -23.3317  -19.5280  145.5477 C   0  0  0  0  0  0  0  0  0  0  0  0
  -25.3816  -19.0551  146.2704 C   0  0  0  0  0  0  0  0  0  0  0  0
  -24.3669  -16.8016  146.8204 O   0  0  0  0  0  0  0  0  0  0  0  0
  -23.5147  -16.7485  148.0605 C   0  0  0  0  0  0  0  0  0  0  0  0
  -24.4378  -17.0899  149.2778 C   0  0  0  0  0  0  0  0  0  0  0  0
  -25.8345  -16.9825  149.1469 C   0  0  0  0  0  0  0  0  0  0  0  0
  -26.6781  -17.8262  149.7117 C   0  0  0  0  0  0  0  0  0  0  0  0
  -28.0561  -17.4928  149.8219 C   0  0  0  0  0  0  0  0  0  0  0  0
  -28.6051  -16.4979  148.8820 C   0  0  0  0  0  0  0  0  0  0  0  0
  -27.6875  -15.7681  148.0658 C   0  0  0  0  0  0  0  0  0  0  0  0
  -26.3320  -15.9887  148.2269 C   0  0  0  0  0  0  0  0  0  0  0  0
  -28.4425  -14.8006  147.3196 C   0  0  0  0  0  0  0  0  0  0  0  0
  -29.6740  -14.2629  147.6060 C   0  0  0  0  0  0  0  0  0  0  0  0
  -30.1212  -13.0112  147.3479 C   0  0  0  0  0  0  0  0  0  0  0  0
  -29.3234  -12.1870  146.4639 C   0  0  0  0  0  0  0  0  0  0  0  0
  -28.0238  -12.6336  146.0932 C   0  0  0  0  0  0  0  0  0  0  0  0
  -27.5212  -13.9023  146.5927 C   0  0  0  0  0  0  0  0  0  0  0  0
  -27.1315  -11.7909  145.3292 C   0  0  0  0  0  0  0  0  0  0  0  0
  -26.1533  -11.9391  144.7596 C   0  0  0  0  0  0  0  0  0  0  0  0
  -25.6302  -10.8546  144.0588 N   0  0  0  0  0  0  0  0  0  0  0  0
  -29.7894  -10.8926  146.0487 C   0  0  0  0  0  0  0  0  0  0  0  0
  -30.8094  -10.4295  146.6368 F   0  0  0  0  0  0  0  0  0  0  0  0
  -29.2847  -10.2490  144.9337 C   0  0  0  0  0  0  0  0  0  0  0  0
  -27.9246  -10.6302  144.5805 C   0  0  0  0  0  0  0  0  0  0  0  0
  -27.2394   -9.9729  143.7915 N   0  0  0  0  0  0  0  0  0  0  0  0
  -23.8678  -17.5120  150.3771 O   0  0  0  0  0  0  0  0  0  0  0  0
  -30.1196   -9.7411  143.9120 C   0  0  0  0  0  0  0  0  0  0  0  0
  1  2  1  0
  2  3  1  0
  3  4  1  0
  1  5  1  0
  5  6  1  0
  4  7  2  0
  4  8  1  0
  6  9  1  0
  6 10  1  0
  5 11  1  0
 11 12  1  0
 12 13  1  0
 13 14  1  0
 18 20  1  0
 24 26  1  0
 26 27  2  0
 27 28  1  0
 23 29  1  0
 29 30  1  0
 29 31  1  0
 26 32  1  0
 31 32  1  0
 28 33  1  0
 32 33  1  0
 13 34  2  0
 31 35  1  0
 14 15  2  0
 15 16  1  0
 16 17  2  0
 17 18  1  0
 18 19  2  0
 19 14  1  0
 20 21  2  0
 21 22  1  0
 22 23  2  0
 23 24  1  0
 24 25  2  0
 25 20  1  0
M  END

$$$$
No_1117-/dssg/home/sw_qyf/PocketFlow/Model-Generation-Results/5HT2A_7WC7_rec_A_10.pdb/2024-01-01-03-54-21/
     RDKit          3D

 16 16  0  0  0  0  0  0  0  0999 V2000
  -23.1746  -16.6014  144.8668 C   0  0  0  0  0  0  0  0  0  0  0  0
  -23.8963  -15.5346  144.7885 C   0  0  0  0  0  0  0  0  0  0  0  0
  -23.6398  -14.5115  145.3281 C   0  0  0  0  0  0  0  0  0  0  0  0
  -24.6397  -13.8424  146.2286 C   0  0  0  0  0  0  0  0  0  0  0  0
  -25.6315  -14.4099  146.7658 C   0  0  0  0  0  0  0  0  0  0  0  0
  -26.8419  -14.4561  146.0187 C   0  0  0  0  0  0  0  0  0  0  0  0
  -27.8761  -15.3119  146.3468 C   0  0  0  0  0  0  0  0  0  0  0  0
  -23.7279  -17.6430  145.6951 C   0  0  0  0  0  0  0  0  0  0  0  0
  -24.5591  -17.1935  146.7020 C   0  0  0  0  0  0  0  0  0  0  0  0
  -24.7986  -18.1593  147.8585 C   0  0  0  0  0  0  0  0  0  0  0  0
  -27.0546  -13.5121  144.9724 C   0  0  0  0  0  0  0  0  0  0  0  0
  -26.4465  -13.7421  143.8183 C   0  0  0  0  0  0  0  0  0  0  0  0
  -27.2655  -13.3628  142.6111 C   0  0  0  0  0  0  0  0  0  0  0  0
  -27.7282  -12.0598  142.5191 C   0  0  0  0  0  0  0  0  0  0  0  0
  -28.2086  -11.4814  143.7884 C   0  0  0  0  0  0  0  0  0  0  0  0
  -27.8719  -12.3020  145.0406 C   0  0  0  0  0  0  0  0  0  0  0  0
  1  2  1  0
  2  3  1  0
  3  4  1  0
  4  5  1  0
  5  6  1  0
  6  7  2  0
  1  8  1  0
  8  9  1  0
  9 10  1  0
  6 11  1  0
 11 12  2  0
 12 13  1  0
 13 14  2  0
 14 15  1  0
 15 16  2  0
 16 11  1  0
M  END

$$$$
No_1118-/dssg/home/sw_qyf/PocketFlow/Model-Generation-Results/5HT2A_7WC7_rec_A_10.pdb/2024-01-01-03-54-21/
     RDKit          3D

 18 19  0  0  0  0  0  0  0  0999 V2000
  -24.1553  -17.8465  145.7021 C   0  0  0  0  0  0  0  0  0  0  0  0
  -24.2856  -16.6364  145.3494 C   0  0  0  0  0  0  0  0  0  0  0  0
  -24.7211  -15.5955  146.2116 C   0  0  0  0  0  0  0  0  0  0  0  0
  -24.8538  -14.2010  145.8739 C   0  0  0  0  0  0  0  0  0  0  0  0
  -24.1440  -13.8321  144.7074 C   0  0  0  0  0  0  0  0  0  0  0  0
  -24.0490  -12.4548  144.4544 C   0  0  0  0  0  0  0  0  0  0  0  0
  -24.6156  -18.2742  146.9602 C   0  0  0  0  0  0  0  0  0  0  0  0
  -25.1246  -17.4081  147.9306 C   0  0  0  0  0  0  0  0  0  0  0  0
  -25.2092  -15.9946  147.5609 C   0  0  0  0  0  0  0  0  0  0  0  0
  -24.3655  -11.8323  145.6186 C   0  0  0  0  0  0  0  0  0  0  0  0
  -25.0178  -13.0112  146.6620 C   0  0  0  0  0  0  0  0  0  0  0  0
  -23.7971  -14.6513  143.7393 O   0  0  0  0  0  0  0  0  0  0  0  0
  -25.4414  -17.7421  149.1976 O   0  0  0  0  0  0  0  0  0  0  0  0
  -24.6822  -17.2243  150.2533 C   0  0  0  0  0  0  0  0  0  0  0  0
  -23.2642  -17.0244  150.1126 C   0  0  0  0  0  0  0  0  0  0  0  0
  -22.5500  -16.7203  151.2067 F   0  0  0  0  0  0  0  0  0  0  0  0
  -22.9195  -16.1850  149.1225 F   0  0  0  0  0  0  0  0  0  0  0  0
  -22.6940  -18.2763  149.7934 F   0  0  0  0  0  0  0  0  0  0  0  0
  3  4  1  0
  4  5  1  0
  5  6  1  0
  6 10  2  0
  4 11  1  0
 10 11  1  0
  5 12  2  0
  8 13  1  0
 13 14  1  0
 14 15  1  0
 15 16  1  0
 15 17  1  0
 15 18  1  0
  1  2  2  0
  2  3  1  0
  3  9  2  0
  9  8  1  0
  8  7  2  0
  7  1  1  0
M  END

$$$$
No_1119-/dssg/home/sw_qyf/PocketFlow/Model-Generation-Results/5HT2A_7WC7_rec_A_10.pdb/2024-01-01-03-54-21/
     RDKit          3D

 18 19  0  0  0  0  0  0  0  0999 V2000
  -24.1553  -17.8465  145.7021 C   0  0  0  0  0  0  0  0  0  0  0  0
  -24.2856  -16.6364  145.3494 C   0  0  0  0  0  0  0  0  0  0  0  0
  -24.5733  -15.7651  145.9979 C   0  0  0  0  0  0  0  0  0  0  0  0
  -24.7088  -14.2765  145.5906 C   0  0  0  0  0  0  0  0  0  0  0  0
  -24.0081  -14.0223  144.3771 C   0  0  0  0  0  0  0  0  0  0  0  0
  -24.5461  -18.2167  147.0077 C   0  0  0  0  0  0  0  0  0  0  0  0
  -24.9798  -17.2136  147.8740 C   0  0  0  0  0  0  0  0  0  0  0  0
  -24.9933  -15.8410  147.4193 C   0  0  0  0  0  0  0  0  0  0  0  0
  -25.3883  -13.3088  146.3470 C   0  0  0  0  0  0  0  0  0  0  0  0
  -25.4028  -11.9738  145.9131 C   0  0  0  0  0  0  0  0  0  0  0  0
  -24.6702  -11.4994  144.9892 C   0  0  0  0  0  0  0  0  0  0  0  0
  -23.9634  -12.4880  144.0852 C   0  0  0  0  0  0  0  0  0  0  0  0
  -26.0696  -11.0429  146.7429 O   0  0  0  0  0  0  0  0  0  0  0  0
  -25.2655  -17.5449  149.3585 C   0  0  0  0  0  0  0  0  0  0  0  0
  -24.1291  -17.3008  150.6335 Br  0  0  0  0  0  0  0  0  0  0  0  0
  -23.8694  -16.4511  143.9948 O   0  0  0  0  0  0  0  0  0  0  0  0
  -26.5473  -17.7724  149.6851 O   0  0  0  0  0  0  0  0  0  0  0  0
  -23.8208  -18.9531  144.9615 O   0  0  0  0  0  0  0  0  0  0  0  0
  3  4  1  0
 10 13  1  0
  7 14  1  0
 14 15  1  0
  2 16  1  0
 14 17  2  0
  1 18  1  0
  4  5  2  0
  5 12  1  0
 12 11  2  0
 11 10  1  0
 10  9  2  0
  9  4  1  0
  1  2  2  0
  2  3  1  0
  3  8  2  0
  8  7  1  0
  7  6  2  0
  6  1  1  0
M  END

$$$$
No_1120-/dssg/home/sw_qyf/PocketFlow/Model-Generation-Results/5HT2A_7WC7_rec_A_10.pdb/2024-01-01-03-54-21/
     RDKit          3D

  9  9  0  0  0  0  0  0  0  0999 V2000
  -23.1746  -16.6014  144.8668 C   0  0  0  0  0  0  0  0  0  0  0  0
  -23.7011  -17.0158  145.9774 C   0  0  0  0  0  0  0  0  0  0  0  0
  -24.2134  -16.0722  146.8877 C   0  0  0  0  0  0  0  0  0  0  0  0
  -24.5407  -14.7704  146.3553 C   0  0  0  0  0  0  0  0  0  0  0  0
  -24.1477  -14.4045  145.0969 C   0  0  0  0  0  0  0  0  0  0  0  0
  -23.4211  -15.3299  144.3881 C   0  0  0  0  0  0  0  0  0  0  0  0
  -23.4890  -18.3920  146.5737 C   0  0  0  0  0  0  0  0  0  0  0  0
  -23.9804  -18.7647  147.6229 O   0  0  0  0  0  0  0  0  0  0  0  0
  -22.9324  -19.2659  145.8466 O   0  0  0  0  0  0  0  0  0  0  0  0
  2  7  1  0
  7  8  2  0
  7  9  1  0
  1  2  2  0
  2  3  1  0
  3  4  2  0
  4  5  1  0
  5  6  2  0
  6  1  1  0
M  END

$$$$
No_1121-/dssg/home/sw_qyf/PocketFlow/Model-Generation-Results/5HT2A_7WC7_rec_A_10.pdb/2024-01-01-03-54-21/
     RDKit          3D

 15 16  0  0  0  0  0  0  0  0999 V2000
  -24.1553  -17.8465  145.7021 C   0  0  0  0  0  0  0  0  0  0  0  0
  -24.6364  -17.2931  146.7091 C   0  0  0  0  0  0  0  0  0  0  0  0
  -24.0469  -17.2473  147.9274 C   0  0  0  0  0  0  0  0  0  0  0  0
  -24.6298  -16.6776  149.1482 C   0  0  0  0  0  0  0  0  0  0  0  0
  -25.9998  -16.2560  149.0017 C   0  0  0  0  0  0  0  0  0  0  0  0
  -26.6404  -16.3554  147.8106 C   0  0  0  0  0  0  0  0  0  0  0  0
  -25.9970  -16.9514  146.7138 C   0  0  0  0  0  0  0  0  0  0  0  0
  -23.8130  -16.8814  144.5826 C   0  0  0  0  0  0  0  0  0  0  0  0
  -24.1409  -15.5230  144.9773 C   0  0  0  0  0  0  0  0  0  0  0  0
  -23.9618  -14.5975  144.3367 C   0  0  0  0  0  0  0  0  0  0  0  0
  -24.2606  -13.1373  144.7814 C   0  0  0  0  0  0  0  0  0  0  0  0
  -24.9506  -13.0890  146.0717 C   0  0  0  0  0  0  0  0  0  0  0  0
  -25.0968  -14.2608  146.8632 C   0  0  0  0  0  0  0  0  0  0  0  0
  -24.7299  -15.3580  146.3102 C   0  0  0  0  0  0  0  0  0  0  0  0
  -23.4698  -15.3586  146.7670 O   0  0  0  0  0  0  0  0  0  0  0  0
  1  8  1  0
  8  9  1  0
 14 15  1  0
  1  2  1  0
  2  3  2  0
  3  4  1  0
  4  5  2  0
  5  6  1  0
  6  7  2  0
  7  2  1  0
  9 10  2  0
 10 11  1  0
 11 12  2  0
 12 13  1  0
 13 14  2  0
 14  9  1  0
M  END

$$$$
No_1122-/dssg/home/sw_qyf/PocketFlow/Model-Generation-Results/5HT2A_7WC7_rec_A_10.pdb/2024-01-01-03-54-21/
     RDKit          3D

 22 23  0  0  0  0  0  0  0  0999 V2000
  -23.1746  -16.6014  144.8668 C   0  0  0  0  0  0  0  0  0  0  0  0
  -23.7011  -17.0158  145.9774 C   0  0  0  0  0  0  0  0  0  0  0  0
  -23.7336  -18.2775  146.3737 C   0  0  0  0  0  0  0  0  0  0  0  0
  -23.8112  -15.3694  144.2738 C   0  0  0  0  0  0  0  0  0  0  0  0
  -23.1412  -14.0561  144.6259 C   0  0  0  0  0  0  0  0  0  0  0  0
  -24.0300  -13.0828  145.3764 C   0  0  0  0  0  0  0  0  0  0  0  0
  -24.6095  -13.5487  146.4992 C   0  0  0  0  0  0  0  0  0  0  0  0
  -24.0842  -18.4910  147.6981 N   0  0  0  0  0  0  0  0  0  0  0  0
  -24.3732  -17.2121  148.2310 C   0  0  0  0  0  0  0  0  0  0  0  0
  -24.1679  -16.3392  147.1727 N   0  0  0  0  0  0  0  0  0  0  0  0
  -23.3655  -19.4084  145.6645 N   0  0  0  0  0  0  0  0  0  0  0  0
  -25.4830  -12.5733  147.2233 C   0  0  0  0  0  0  0  0  0  0  0  0
  -26.5590  -12.3034  146.5073 C   0  0  0  0  0  0  0  0  0  0  0  0
  -26.2297  -11.5089  145.2643 C   0  0  0  0  0  0  0  0  0  0  0  0
  -25.3291  -11.6911  144.7415 C   0  0  0  0  0  0  0  0  0  0  0  0
  -24.0217  -11.6571  145.1490 N   0  0  0  0  0  0  0  0  0  0  0  0
  -27.4277  -10.6057  144.8779 C   0  0  0  0  0  0  0  0  0  0  0  0
  -28.3380  -10.9346  144.0134 C   0  0  0  0  0  0  0  0  0  0  0  0
  -29.3979  -10.0859  143.6355 C   0  0  0  0  0  0  0  0  0  0  0  0
  -29.6379   -9.7723  142.4028 C   0  0  0  0  0  0  0  0  0  0  0  0
  -30.6662   -8.8074  142.0217 C   0  0  0  0  0  0  0  0  0  0  0  0
  -30.6269   -7.8992  142.5008 C   0  0  0  0  0  0  0  0  0  0  0  0
  1  2  1  0
  2  3  1  0
  1  4  1  0
  4  5  1  0
  5  6  1  0
  6  7  2  0
  3  8  1  0
  8  9  2  0
  2 10  1  0
  9 10  1  0
  3 11  1  0
  7 12  1  0
 12 13  1  0
 13 14  1  0
 14 15  2  0
  6 16  1  0
 15 16  1  0
 14 17  1  0
 17 18  2  3
 18 19  1  0
 19 20  2  3
 20 21  1  0
 21 22  2  0
M  END

$$$$
No_1123-/dssg/home/sw_qyf/PocketFlow/Model-Generation-Results/5HT2A_7WC7_rec_A_10.pdb/2024-01-01-03-54-21/
     RDKit          3D

 19 20  0  0  0  0  0  0  0  0999 V2000
  -24.1553  -17.8465  145.7021 C   0  0  0  0  0  0  0  0  0  0  0  0
  -24.2855  -16.6364  145.3494 C   0  0  0  0  0  0  0  0  0  0  0  0
  -24.7211  -15.5955  146.2116 C   0  0  0  0  0  0  0  0  0  0  0  0
  -24.8538  -14.2010  145.8739 C   0  0  0  0  0  0  0  0  0  0  0  0
  -25.3912  -13.2248  146.7184 C   0  0  0  0  0  0  0  0  0  0  0  0
  -24.5930  -18.2699  146.9809 C   0  0  0  0  0  0  0  0  0  0  0  0
  -25.1554  -17.3846  147.9076 C   0  0  0  0  0  0  0  0  0  0  0  0
  -25.2071  -15.9636  147.5445 C   0  0  0  0  0  0  0  0  0  0  0  0
  -24.3640  -13.8250  144.5657 C   0  0  0  0  0  0  0  0  0  0  0  0
  -25.3419  -11.8445  146.2821 C   0  0  0  0  0  0  0  0  0  0  0  0
  -26.5969  -11.3506  145.8807 C   0  0  0  0  0  0  0  0  0  0  0  0
  -27.7629  -11.9095  146.0812 C   0  0  0  0  0  0  0  0  0  0  0  0
  -29.0012  -11.2865  145.7426 C   0  0  0  0  0  0  0  0  0  0  0  0
  -30.2711  -11.5306  146.3760 C   0  0  0  0  0  0  0  0  0  0  0  0
  -30.0321  -12.6024  147.4025 C   0  0  0  0  0  0  0  0  0  0  0  0
  -29.6504  -13.6229  147.1614 C   0  0  0  0  0  0  0  0  0  0  0  0
  -28.3595  -14.0889  146.7183 C   0  0  0  0  0  0  0  0  0  0  0  0
  -27.5586  -13.1551  146.1066 C   0  0  0  0  0  0  0  0  0  0  0  0
  -23.3228  -13.0142  144.6172 O   0  0  0  0  0  0  0  0  0  0  0  0
  3  4  1  0
  4  5  1  0
  4  9  1  0
  5 10  1  0
 10 11  1  0
 11 12  2  3
 12 13  1  0
 13 14  1  0
 14 15  2  0
 15 16  1  0
 16 17  2  0
 12 18  1  0
 17 18  1  0
  9 19  1  0
  1  2  2  0
  2  3  1  0
  3  8  2  0
  8  7  1  0
  7  6  2  0
  6  1  1  0
M  END

$$$$
No_1124-/dssg/home/sw_qyf/PocketFlow/Model-Generation-Results/5HT2A_7WC7_rec_A_10.pdb/2024-01-01-03-54-21/
     RDKit          3D

 35 38  0  0  0  0  0  0  0  0999 V2000
  -24.1553  -17.8465  145.7021 C   0  0  0  0  0  0  0  0  0  0  0  0
  -24.6364  -17.2931  146.7091 C   0  0  0  0  0  0  0  0  0  0  0  0
  -24.0780  -17.2921  147.9389 C   0  0  0  0  0  0  0  0  0  0  0  0
  -24.6762  -16.7363  149.1478 C   0  0  0  0  0  0  0  0  0  0  0  0
  -25.9986  -16.2638  148.9931 C   0  0  0  0  0  0  0  0  0  0  0  0
  -26.6273  -16.3410  147.7731 C   0  0  0  0  0  0  0  0  0  0  0  0
  -25.9736  -16.9165  146.6820 C   0  0  0  0  0  0  0  0  0  0  0  0
  -24.0889  -16.9284  144.6523 F   0  0  0  0  0  0  0  0  0  0  0  0
  -24.7809  -18.9442  145.1745 F   0  0  0  0  0  0  0  0  0  0  0  0
  -22.7737  -18.2127  145.8555 F   0  0  0  0  0  0  0  0  0  0  0  0
  -28.0474  -15.8748  147.7171 C   0  0  0  0  0  0  0  0  0  0  0  0
  -28.4079  -14.7490  146.9807 C   0  0  0  0  0  0  0  0  0  0  0  0
  -29.7611  -14.2221  147.1768 C   0  0  0  0  0  0  0  0  0  0  0  0
  -30.1618  -13.0107  146.5453 C   0  0  0  0  0  0  0  0  0  0  0  0
  -29.0707  -11.9890  146.7583 C   0  0  0  0  0  0  0  0  0  0  0  0
  -27.7545  -12.3353  146.3098 C   0  0  0  0  0  0  0  0  0  0  0  0
  -27.3590  -13.7128  146.9084 C   0  0  0  0  0  0  0  0  0  0  0  0
  -26.8478  -11.5510  145.7131 C   0  0  0  0  0  0  0  0  0  0  0  0
  -27.0646  -10.8257  144.5675 C   0  0  0  0  0  0  0  0  0  0  0  0
  -27.7802  -11.4865  143.6177 C   0  0  0  0  0  0  0  0  0  0  0  0
  -28.6101  -10.5801  142.7603 C   0  0  0  0  0  0  0  0  0  0  0  0
  -28.6302  -10.4815  141.6577 C   0  0  0  0  0  0  0  0  0  0  0  0
  -28.8876   -9.2858  140.8934 C   0  0  0  0  0  0  0  0  0  0  0  0
  -29.4993   -8.3615  141.2452 C   0  0  0  0  0  0  0  0  0  0  0  0
  -29.8184   -7.1004  140.6375 C   0  0  0  0  0  0  0  0  0  0  0  0
  -29.4692   -9.6426  143.6233 C   0  0  0  0  0  0  0  0  0  0  0  0
  -29.7882   -8.4242  142.8551 C   0  0  0  0  0  0  0  0  0  0  0  0
  -25.4550  -11.4258  146.3639 C   0  0  0  0  0  0  0  0  0  0  0  0
  -28.5485   -9.1955  139.4150 C   0  0  0  0  0  0  0  0  0  0  0  0
  -27.5347  -10.1118  138.8898 C   0  0  0  0  0  0  0  0  0  0  0  0
  -28.7795   -8.0720  138.6465 C   0  0  0  0  0  0  0  0  0  0  0  0
  -29.4829   -7.0616  139.3616 N   0  0  0  0  0  0  0  0  0  0  0  0
  -28.5251   -7.9177  137.5171 O   0  0  0  0  0  0  0  0  0  0  0  0
  -24.7984  -12.5901  146.7724 C   0  0  0  0  0  0  0  0  0  0  0  0
  -23.3875  -12.6641  146.6981 C   0  0  0  0  0  0  0  0  0  0  0  0
  1  2  1  0
  1  8  1  0
  1  9  1  0
  1 10  1  0
  6 11  1  0
 11 12  2  3
 12 13  1  0
 13 14  1  0
 14 15  1  0
 15 16  1  0
 12 17  1  0
 16 17  1  0
 16 18  1  0
 18 19  1  0
 19 20  1  0
 20 21  1  0
 18 28  1  0
 23 29  1  0
 29 30  1  0
 29 31  1  0
 25 32  1  0
 31 32  1  0
 31 33  2  0
 28 34  1  0
 34 35  1  0
 24 25  1  0
  2  3  2  0
  3  4  1  0
  4  5  2  0
  5  6  1  0
  6  7  2  0
  7  2  1  0
 21 22  2  0
 22 23  1  0
 23 24  2  0
 24 27  1  0
 27 26  2  0
 26 21  1  0
M  END

$$$$
No_1125-/dssg/home/sw_qyf/PocketFlow/Model-Generation-Results/5HT2A_7WC7_rec_A_10.pdb/2024-01-01-03-54-21/
     RDKit          3D

 15 16  0  0  0  0  0  0  0  0999 V2000
  -24.1553  -17.8465  145.7021 C   0  0  0  0  0  0  0  0  0  0  0  0
  -24.6364  -17.2931  146.7091 C   0  0  0  0  0  0  0  0  0  0  0  0
  -24.0780  -17.2921  147.9389 C   0  0  0  0  0  0  0  0  0  0  0  0
  -24.6761  -16.7363  149.1478 C   0  0  0  0  0  0  0  0  0  0  0  0
  -25.9986  -16.2638  148.9932 C   0  0  0  0  0  0  0  0  0  0  0  0
  -26.6271  -16.3412  147.7729 C   0  0  0  0  0  0  0  0  0  0  0  0
  -25.9735  -16.9165  146.6820 C   0  0  0  0  0  0  0  0  0  0  0  0
  -23.8064  -16.8947  144.5712 C   0  0  0  0  0  0  0  0  0  0  0  0
  -24.1210  -15.5392  145.0034 C   0  0  0  0  0  0  0  0  0  0  0  0
  -23.3935  -14.4826  144.4235 C   0  0  0  0  0  0  0  0  0  0  0  0
  -23.7252  -13.0968  144.8642 C   0  0  0  0  0  0  0  0  0  0  0  0
  -24.5795  -12.8564  145.9757 C   0  0  0  0  0  0  0  0  0  0  0  0
  -25.2109  -14.0567  146.6049 C   0  0  0  0  0  0  0  0  0  0  0  0
  -24.9466  -15.2403  146.1142 C   0  0  0  0  0  0  0  0  0  0  0  0
  -24.0640  -15.2884  147.1497 O   0  0  0  0  0  0  0  0  0  0  0  0
  1  2  1  0
  1  8  1  0
  8  9  1  0
 14 15  1  0
  2  3  2  0
  3  4  1  0
  4  5  2  0
  5  6  1  0
  6  7  2  0
  7  2  1  0
  9 10  2  0
 10 11  1  0
 11 12  2  0
 12 13  1  0
 13 14  2  0
 14  9  1  0
M  END

$$$$
No_1126-/dssg/home/sw_qyf/PocketFlow/Model-Generation-Results/5HT2A_7WC7_rec_A_10.pdb/2024-01-01-03-54-21/
     RDKit          3D

 19 20  0  0  0  0  0  0  0  0999 V2000
  -23.1746  -16.6014  144.8668 C   0  0  0  0  0  0  0  0  0  0  0  0
  -23.8963  -15.5346  144.7885 C   0  0  0  0  0  0  0  0  0  0  0  0
  -23.6398  -14.5115  145.3281 C   0  0  0  0  0  0  0  0  0  0  0  0
  -24.3866  -13.2477  145.3906 C   0  0  0  0  0  0  0  0  0  0  0  0
  -23.7391  -12.0982  145.9891 C   0  0  0  0  0  0  0  0  0  0  0  0
  -25.7153  -13.1102  144.9365 C   0  0  0  0  0  0  0  0  0  0  0  0
  -26.3103  -13.6742  144.1428 C   0  0  0  0  0  0  0  0  0  0  0  0
  -26.1473  -15.1349  143.6944 C   0  0  0  0  0  0  0  0  0  0  0  0
  -24.9522  -15.6974  143.9931 C   0  0  0  0  0  0  0  0  0  0  0  0
  -23.6727  -17.8095  144.5389 O   0  0  0  0  0  0  0  0  0  0  0  0
  -27.6009  -12.9208  143.1829 Cl  0  0  0  0  0  0  0  0  0  0  0  0
  -23.9292  -18.6279  145.7090 C   0  0  0  0  0  0  0  0  0  0  0  0
  -24.2445  -17.9399  146.8894 C   0  0  0  0  0  0  0  0  0  0  0  0
  -23.4292  -17.8660  147.8777 C   0  0  0  0  0  0  0  0  0  0  0  0
  -23.7350  -17.1189  149.1523 C   0  0  0  0  0  0  0  0  0  0  0  0
  -25.0761  -16.6658  149.2475 C   0  0  0  0  0  0  0  0  0  0  0  0
  -25.9638  -16.7131  148.1620 C   0  0  0  0  0  0  0  0  0  0  0  0
  -25.5390  -17.3988  147.0009 C   0  0  0  0  0  0  0  0  0  0  0  0
  -23.8767  -20.0303  145.6134 C   0  0  0  0  0  0  0  0  0  0  0  0
  1  2  1  0
  2  3  2  0
  3  4  1  0
  4  5  1  0
  4  6  1  0
  6  7  2  0
  7  8  1  0
  2  9  1  0
  8  9  1  0
  1 10  1  0
  7 11  1  0
 10 12  1  0
 12 13  1  0
 12 19  1  0
 13 14  2  0
 14 15  1  0
 15 16  2  0
 16 17  1  0
 17 18  2  0
 18 13  1  0
M  END

$$$$
No_1127-/dssg/home/sw_qyf/PocketFlow/Model-Generation-Results/5HT2A_7WC7_rec_A_10.pdb/2024-01-01-03-54-21/
     RDKit          3D

 21 22  0  0  0  0  0  0  0  0999 V2000
  -24.1553  -17.8465  145.7021 C   0  0  0  0  0  0  0  0  0  0  0  0
  -23.9795  -18.4462  146.7426 C   0  0  0  0  0  0  0  0  0  0  0  0
  -25.1196  -16.8106  145.6409 C   0  0  0  0  0  0  0  0  0  0  0  0
  -25.9236  -16.5070  146.7422 C   0  0  0  0  0  0  0  0  0  0  0  0
  -26.9588  -15.5563  146.6458 C   0  0  0  0  0  0  0  0  0  0  0  0
  -28.0525  -15.5152  147.4931 C   0  0  0  0  0  0  0  0  0  0  0  0
  -24.6778  -18.1822  147.9448 C   0  0  0  0  0  0  0  0  0  0  0  0
  -25.6764  -17.1706  147.9456 C   0  0  0  0  0  0  0  0  0  0  0  0
  -29.0391  -14.5145  147.4097 C   0  0  0  0  0  0  0  0  0  0  0  0
  -28.9088  -13.4428  146.5728 C   0  0  0  0  0  0  0  0  0  0  0  0
  -27.7866  -13.4078  145.6830 C   0  0  0  0  0  0  0  0  0  0  0  0
  -26.8328  -14.4000  145.7338 C   0  0  0  0  0  0  0  0  0  0  0  0
  -29.7787  -12.2733  146.7505 C   0  0  0  0  0  0  0  0  0  0  0  0
  -30.3593  -12.0206  147.8932 O   0  0  0  0  0  0  0  0  0  0  0  0
  -29.8448  -11.3327  145.8536 O   0  0  0  0  0  0  0  0  0  0  0  0
  -25.2311  -16.0914  144.4851 O   0  0  0  0  0  0  0  0  0  0  0  0
  -24.0945  -15.3214  144.2211 C   0  0  0  0  0  0  0  0  0  0  0  0
  -24.3062  -13.8474  144.0933 C   0  0  0  0  0  0  0  0  0  0  0  0
  -23.7018  -13.1065  145.3243 C   0  0  0  0  0  0  0  0  0  0  0  0
  -22.8396  -12.0401  144.9394 C   0  0  0  0  0  0  0  0  0  0  0  0
  -24.8363  -12.4726  146.2742 C   0  0  0  0  0  0  0  0  0  0  0  0
  4  5  1  0
 10 13  1  0
 13 14  1  0
 13 15  2  0
  3 16  1  0
 16 17  1  0
 17 18  1  0
 18 19  1  0
 19 20  1  0
 19 21  1  0
  5  6  2  0
  6  9  1  0
  9 10  2  0
 10 11  1  0
 11 12  2  0
 12  5  1  0
  1  2  2  0
  2  7  1  0
  7  8  2  0
  8  4  1  0
  4  3  2  0
  3  1  1  0
M  END

$$$$
No_1128-/dssg/home/sw_qyf/PocketFlow/Model-Generation-Results/5HT2A_7WC7_rec_A_10.pdb/2024-01-01-03-54-21/
     RDKit          3D

 35 38  0  0  0  0  0  0  0  0999 V2000
  -24.1553  -17.8465  145.7021 C   0  0  0  0  0  0  0  0  0  0  0  0
  -24.6364  -17.2931  146.7091 C   0  0  0  0  0  0  0  0  0  0  0  0
  -24.0780  -17.2921  147.9389 C   0  0  0  0  0  0  0  0  0  0  0  0
  -24.3226  -16.7243  148.9587 C   0  0  0  0  0  0  0  0  0  0  0  0
  -23.7796  -16.9955  150.2808 C   0  0  0  0  0  0  0  0  0  0  0  0
  -24.4428  -17.3748  144.4125 C   0  0  0  0  0  0  0  0  0  0  0  0
  -25.0299  -16.0799  144.4022 C   0  0  0  0  0  0  0  0  0  0  0  0
  -25.6253  -15.4959  145.5334 C   0  0  0  0  0  0  0  0  0  0  0  0
  -25.2525  -16.0603  146.8094 C   0  0  0  0  0  0  0  0  0  0  0  0
  -26.8996  -15.1853  145.6265 C   0  0  0  0  0  0  0  0  0  0  0  0
  -27.8486  -15.5303  146.3946 C   0  0  0  0  0  0  0  0  0  0  0  0
  -29.0841  -14.8703  146.7158 C   0  0  0  0  0  0  0  0  0  0  0  0
  -29.2672  -13.5352  146.3291 C   0  0  0  0  0  0  0  0  0  0  0  0
  -28.2509  -12.9328  145.5327 C   0  0  0  0  0  0  0  0  0  0  0  0
  -28.3695  -11.5415  145.1207 C   0  0  0  0  0  0  0  0  0  0  0  0
  -27.4155  -11.0395  144.2358 C   0  0  0  0  0  0  0  0  0  0  0  0
  -27.1092  -13.6119  145.1851 C   0  0  0  0  0  0  0  0  0  0  0  0
  -27.5784   -9.7602  143.7292 C   0  0  0  0  0  0  0  0  0  0  0  0
  -28.9049   -9.3421  143.3556 C   0  0  0  0  0  0  0  0  0  0  0  0
  -29.9302   -9.7133  144.2397 C   0  0  0  0  0  0  0  0  0  0  0  0
  -29.7479  -11.0049  145.0110 C   0  0  0  0  0  0  0  0  0  0  0  0
  -22.5231  -17.2248  150.2786 F   0  0  0  0  0  0  0  0  0  0  0  0
  -31.1493   -9.2424  144.2253 O   0  0  0  0  0  0  0  0  0  0  0  0
  -24.4246  -18.0968  150.9480 F   0  0  0  0  0  0  0  0  0  0  0  0
  -29.1740   -8.1799  142.5898 C   0  0  0  0  0  0  0  0  0  0  0  0
  -29.3755   -6.9077  143.0045 C   0  0  0  0  0  0  0  0  0  0  0  0
  -29.4189   -8.4164  141.1402 C   0  0  0  0  0  0  0  0  0  0  0  0
  -29.6589   -7.3474  140.2665 C   0  0  0  0  0  0  0  0  0  0  0  0
  -29.5089   -5.7518  142.1773 C   0  0  0  0  0  0  0  0  0  0  0  0
  -29.6160   -6.0330  140.8364 C   0  0  0  0  0  0  0  0  0  0  0  0
  -29.7435   -7.5086  138.9881 N   0  0  0  0  0  0  0  0  0  0  0  0
  -28.8645   -8.1897  138.2635 C   0  0  0  0  0  0  0  0  0  0  0  0
  -27.7054   -8.5110  138.8291 N   0  0  0  0  0  0  0  0  0  0  0  0
  -29.0723   -8.7299  137.0500 N   0  0  0  0  0  0  0  0  0  0  0  0
  -23.5312  -19.2114  145.7538 C   0  0  0  0  0  0  0  0  0  0  0  0
  2  3  1  0
  3  4  2  3
  4  5  1  0
  8 10  1  0
 14 15  1  0
  5 22  1  0
 20 23  1  0
  5 24  1  0
 19 25  1  0
 28 31  1  0
 31 32  1  0
 32 33  1  0
 32 34  2  0
  1 35  1  0
 10 11  2  0
 11 12  1  0
 12 13  2  0
 13 14  1  0
 14 17  2  0
 17 10  1  0
  1  2  2  0
  2  9  1  0
  9  8  2  0
  8  7  1  0
  7  6  2  0
  6  1  1  0
 15 16  2  0
 16 18  1  0
 18 19  2  0
 19 20  1  0
 20 21  2  0
 21 15  1  0
 25 26  2  0
 26 29  1  0
 29 30  2  0
 30 28  1  0
 28 27  2  0
 27 25  1  0
M  END

$$$$
No_1129-/dssg/home/sw_qyf/PocketFlow/Model-Generation-Results/5HT2A_7WC7_rec_A_10.pdb/2024-01-01-03-54-21/
     RDKit          3D

 35 39  0  0  0  0  0  0  0  0999 V2000
  -23.1746  -16.6014  144.8668 C   0  0  0  0  0  0  0  0  0  0  0  0
  -24.0189  -16.0564  145.8445 C   0  0  0  0  0  0  0  0  0  0  0  0
  -24.4145  -16.8299  146.9062 C   0  0  0  0  0  0  0  0  0  0  0  0
  -25.2730  -16.2838  147.9150 C   0  0  0  0  0  0  0  0  0  0  0  0
  -25.7919  -14.9951  147.6737 C   0  0  0  0  0  0  0  0  0  0  0  0
  -24.6241  -14.7653  145.5280 C   0  0  0  0  0  0  0  0  0  0  0  0
  -24.2564  -13.9145  144.5287 C   0  0  0  0  0  0  0  0  0  0  0  0
  -25.4803  -14.2001  146.6501 C   0  0  0  0  0  0  0  0  0  0  0  0
  -25.0142  -13.6441  143.7619 O   0  0  0  0  0  0  0  0  0  0  0  0
  -23.1288  -13.1214  144.5700 O   0  0  0  0  0  0  0  0  0  0  0  0
  -23.9372  -18.2029  147.0985 C   0  0  0  0  0  0  0  0  0  0  0  0
  -23.3543  -18.9625  146.2410 O   0  0  0  0  0  0  0  0  0  0  0  0
  -23.9313  -18.6077  148.3564 O   0  0  0  0  0  0  0  0  0  0  0  0
  -25.9991  -12.8600  146.5168 C   0  0  0  0  0  0  0  0  0  0  0  0
  -27.3787  -12.6337  146.3259 C   0  0  0  0  0  0  0  0  0  0  0  0
  -27.7980  -11.4939  145.6410 C   0  0  0  0  0  0  0  0  0  0  0  0
  -29.1644  -11.2166  145.3048 C   0  0  0  0  0  0  0  0  0  0  0  0
  -29.5210  -10.1187  144.5243 C   0  0  0  0  0  0  0  0  0  0  0  0
  -30.8343   -9.7747  144.2353 C   0  0  0  0  0  0  0  0  0  0  0  0
  -31.0037   -9.0950  143.0008 C   0  0  0  0  0  0  0  0  0  0  0  0
  -29.9116   -8.8086  142.2293 C   0  0  0  0  0  0  0  0  0  0  0  0
  -28.6829   -9.3518  142.4381 C   0  0  0  0  0  0  0  0  0  0  0  0
  -28.5066  -10.0306  143.5647 C   0  0  0  0  0  0  0  0  0  0  0  0
  -30.1531   -8.1479  140.8611 C   0  0  0  0  0  0  0  0  0  0  0  0
  -29.1730   -8.1906  139.8669 C   0  0  0  0  0  0  0  0  0  0  0  0
  -28.0701   -9.0737  139.9908 C   0  0  0  0  0  0  0  0  0  0  0  0
  -27.7850   -9.6868  141.2812 C   0  0  0  0  0  0  0  0  0  0  0  0
  -26.9203  -10.8124  144.7209 C   0  0  0  0  0  0  0  0  0  0  0  0
  -27.1085  -10.2295  143.7740 C   0  0  0  0  0  0  0  0  0  0  0  0
  -27.1781   -9.1442  139.0333 N   0  0  0  0  0  0  0  0  0  0  0  0
  -32.1923   -8.5834  142.7800 O   0  0  0  0  0  0  0  0  0  0  0  0
  -30.0649  -11.6938  146.2327 O   0  0  0  0  0  0  0  0  0  0  0  0
  -29.7025  -12.7588  147.0187 C   0  0  0  0  0  0  0  0  0  0  0  0
  -28.3689  -13.2597  147.1510 C   0  0  0  0  0  0  0  0  0  0  0  0
  -30.7700  -13.3191  147.8840 C   0  0  0  0  0  0  0  0  0  0  0  0
  1  2  1  0
  2  3  1  0
  3  4  2  0
  4  5  1  0
  2  6  1  0
  6  7  1  0
  5  8  2  0
  6  8  1  0
  7  9  2  0
  7 10  1  0
  3 11  1  0
 11 12  2  0
 11 13  1  0
  8 14  1  0
 14 15  1  0
 15 16  2  0
 16 17  1  0
 17 18  2  0
 18 19  1  0
 19 20  1  0
 20 21  2  0
 21 22  1  0
 18 23  1  0
 22 23  2  0
 21 24  1  0
 24 25  2  0
 25 26  1  0
 22 27  1  0
 26 27  1  0
 16 28  1  0
 23 29  1  0
 28 29  2  0
 26 30  1  0
 20 31  1  0
 17 32  1  0
 32 33  1  0
 15 34  1  0
 33 34  1  0
 33 35  1  0
M  END

$$$$
No_1130-/dssg/home/sw_qyf/PocketFlow/Model-Generation-Results/5HT2A_7WC7_rec_A_10.pdb/2024-01-01-03-54-21/
     RDKit          3D

 24 26  0  0  0  0  0  0  0  0999 V2000
  -24.1553  -17.8465  145.7021 C   0  0  0  0  0  0  0  0  0  0  0  0
  -24.2856  -16.6364  145.3494 C   0  0  0  0  0  0  0  0  0  0  0  0
  -23.7824  -15.9602  144.3553 C   0  0  0  0  0  0  0  0  0  0  0  0
  -23.9871  -14.5276  144.1537 C   0  0  0  0  0  0  0  0  0  0  0  0
  -24.7876  -13.8357  145.1352 C   0  0  0  0  0  0  0  0  0  0  0  0
  -25.3945  -14.5459  146.1755 C   0  0  0  0  0  0  0  0  0  0  0  0
  -25.0741  -15.8908  146.3327 C   0  0  0  0  0  0  0  0  0  0  0  0
  -23.4416  -18.3347  146.7455 C   0  0  0  0  0  0  0  0  0  0  0  0
  -23.1019  -19.3889  147.0498 C   0  0  0  0  0  0  0  0  0  0  0  0
  -23.3459  -20.4034  146.0356 C   0  0  0  0  0  0  0  0  0  0  0  0
  -24.1506  -20.1498  145.0026 C   0  0  0  0  0  0  0  0  0  0  0  0
  -24.4258  -18.8372  144.7727 C   0  0  0  0  0  0  0  0  0  0  0  0
  -25.0767  -11.9858  144.9110 Br  0  0  0  0  0  0  0  0  0  0  0  0
  -23.0567  -17.4162  147.8809 O   0  0  0  0  0  0  0  0  0  0  0  0
  -23.5842  -17.5101  149.1893 C   0  0  0  0  0  0  0  0  0  0  0  0
  -24.9485  -17.2495  149.5493 C   0  0  0  0  0  0  0  0  0  0  0  0
  -25.6687  -16.6076  148.8458 O   0  0  0  0  0  0  0  0  0  0  0  0
  -25.3902  -17.7930  150.7313 N   0  0  0  0  0  0  0  0  0  0  0  0
  -26.7349  -17.8201  151.1713 C   0  0  0  0  0  0  0  0  0  0  0  0
  -27.0219  -18.8779  152.0893 C   0  0  0  0  0  0  0  0  0  0  0  0
  -28.3752  -19.0951  152.4303 C   0  0  0  0  0  0  0  0  0  0  0  0
  -29.2696  -18.1989  151.9556 C   0  0  0  0  0  0  0  0  0  0  0  0
  -29.0544  -17.3680  150.8700 C   0  0  0  0  0  0  0  0  0  0  0  0
  -27.6853  -17.2330  150.4628 C   0  0  0  0  0  0  0  0  0  0  0  0
  1  2  1  0
  5 13  1  0
  8 14  1  0
 14 15  1  0
 15 16  1  0
 16 17  2  0
 16 18  1  0
 18 19  1  0
  2  3  2  0
  3  4  1  0
  4  5  2  0
  5  6  1  0
  6  7  2  0
  7  2  1  0
  1  8  1  0
  8  9  2  0
  9 10  1  0
 10 11  2  0
 11 12  1  0
 12  1  2  0
 19 20  2  0
 20 21  1  0
 21 22  2  0
 22 23  1  0
 23 24  2  0
 24 19  1  0
M  END

$$$$
No_1131-/dssg/home/sw_qyf/PocketFlow/Model-Generation-Results/5HT2A_7WC7_rec_A_10.pdb/2024-01-01-03-54-21/
     RDKit          3D

 13 14  0  0  0  0  0  0  0  0999 V2000
  -24.1553  -17.8465  145.7021 C   0  0  0  0  0  0  0  0  0  0  0  0
  -24.2856  -16.6364  145.3494 C   0  0  0  0  0  0  0  0  0  0  0  0
  -25.0033  -15.6772  146.0737 C   0  0  0  0  0  0  0  0  0  0  0  0
  -25.6964  -16.1810  147.2049 C   0  0  0  0  0  0  0  0  0  0  0  0
  -24.8143  -18.3454  146.8324 C   0  0  0  0  0  0  0  0  0  0  0  0
  -25.5292  -17.4614  147.6373 C   0  0  0  0  0  0  0  0  0  0  0  0
  -23.6541  -16.0768  144.2055 N   0  0  0  0  0  0  0  0  0  0  0  0
  -25.1820  -14.2638  145.6423 C   0  0  0  0  0  0  0  0  0  0  0  0
  -24.4786  -13.7943  144.6613 C   0  0  0  0  0  0  0  0  0  0  0  0
  -23.6459  -14.7631  143.9232 C   0  0  0  0  0  0  0  0  0  0  0  0
  -25.9066  -13.3255  146.5688 C   0  0  0  0  0  0  0  0  0  0  0  0
  -25.4514  -11.9713  146.5634 C   0  0  0  0  0  0  0  0  0  0  0  0
  -25.1745  -11.4900  145.2380 C   0  0  0  0  0  0  0  0  0  0  0  0
  8 11  1  0
 11 12  1  0
 12 13  1  0
  1  2  2  0
  3  4  2  0
  4  6  1  0
  6  5  2  0
  5  1  1  0
  2  3  1  0
  3  8  1  0
  8  9  2  0
  9 10  1  0
 10  7  2  0
  7  2  1  0
M  END

$$$$
No_1132-/dssg/home/sw_qyf/PocketFlow/Model-Generation-Results/5HT2A_7WC7_rec_A_10.pdb/2024-01-01-03-54-21/
     RDKit          3D

 35 38  0  0  0  0  0  0  0  0999 V2000
  -23.1746  -16.6014  144.8668 C   0  0  0  0  0  0  0  0  0  0  0  0
  -23.8963  -15.5346  144.7885 C   0  0  0  0  0  0  0  0  0  0  0  0
  -24.5755  -15.0383  145.9043 C   0  0  0  0  0  0  0  0  0  0  0  0
  -25.0618  -13.6819  146.0347 C   0  0  0  0  0  0  0  0  0  0  0  0
  -25.4099  -13.0255  144.9749 C   0  0  0  0  0  0  0  0  0  0  0  0
  -23.3396  -17.4928  145.9678 C   0  0  0  0  0  0  0  0  0  0  0  0
  -23.9481  -17.0532  147.1503 C   0  0  0  0  0  0  0  0  0  0  0  0
  -24.5673  -15.7896  147.1865 C   0  0  0  0  0  0  0  0  0  0  0  0
  -25.9963  -11.7571  144.9679 C   0  0  0  0  0  0  0  0  0  0  0  0
  -27.1605  -11.5164  144.9216 C   0  0  0  0  0  0  0  0  0  0  0  0
  -27.8026  -10.2248  144.4370 C   0  0  0  0  0  0  0  0  0  0  0  0
  -29.1940  -10.1034  144.2171 C   0  0  0  0  0  0  0  0  0  0  0  0
  -29.9495  -11.0690  145.0060 C   0  0  0  0  0  0  0  0  0  0  0  0
  -29.3836  -12.0578  145.7369 C   0  0  0  0  0  0  0  0  0  0  0  0
  -30.0630  -12.9796  146.5289 C   0  0  0  0  0  0  0  0  0  0  0  0
  -27.9798  -12.2705  145.6965 C   0  0  0  0  0  0  0  0  0  0  0  0
  -30.1887  -12.6829  148.0302 C   0  0  0  0  0  0  0  0  0  0  0  0
  -30.6313  -13.6914  148.9041 C   0  0  0  0  0  0  0  0  0  0  0  0
  -29.6921   -8.9823  143.5318 C   0  0  0  0  0  0  0  0  0  0  0  0
  -30.1449   -9.1534  142.2978 C   0  0  0  0  0  0  0  0  0  0  0  0
  -30.5783   -7.9291  141.6159 C   0  0  0  0  0  0  0  0  0  0  0  0
  -30.3685   -6.7692  142.2966 C   0  0  0  0  0  0  0  0  0  0  0  0
  -31.7472  -13.5222  149.6189 C   0  0  0  0  0  0  0  0  0  0  0  0
  -32.5424  -12.3753  149.6356 C   0  0  0  0  0  0  0  0  0  0  0  0
  -32.7738  -11.7792  148.4631 C   0  0  0  0  0  0  0  0  0  0  0  0
  -29.5402   -7.5561  143.7520 C   0  0  0  0  0  0  0  0  0  0  0  0
  -30.3594  -10.4798  141.6931 C   0  0  0  0  0  0  0  0  0  0  0  0
  -31.4883  -11.4906  147.9014 N   0  0  0  0  0  0  0  0  0  0  0  0
  -23.9253  -18.1187  148.7347 Br  0  0  0  0  0  0  0  0  0  0  0  0
  -23.8672  -14.7555  143.7680 O   0  0  0  0  0  0  0  0  0  0  0  0
  -25.2138  -11.0666  146.0603 O   0  0  0  0  0  0  0  0  0  0  0  0
  -29.8342  -14.8755  148.7282 C   0  0  0  0  0  0  0  0  0  0  0  0
  -30.0048  -15.9598  149.6767 C   0  0  0  0  0  0  0  0  0  0  0  0
  -29.1776  -17.1257  149.5172 C   0  0  0  0  0  0  0  0  0  0  0  0
  -28.1924  -17.0789  148.5260 C   0  0  0  0  0  0  0  0  0  0  0  0
  3  4  1  0
  4  5  2  3
  5  9  1  0
 14 15  1  0
 15 17  1  0
 12 19  1  0
 19 20  1  0
 20 21  1  0
 21 22  2  0
 19 26  1  0
 22 26  1  0
 20 27  1  0
  7 29  1  0
  2 30  1  0
  9 31  1  0
 18 32  1  0
 32 33  2  3
 33 34  1  0
 34 35  2  0
  9 10  1  0
 17 18  2  0
 18 23  1  0
 23 24  2  0
 24 25  1  0
 25 28  2  0
 28 17  1  0
  1  2  2  0
  2  3  1  0
  3  8  2  0
  8  7  1  0
  7  6  2  0
  6  1  1  0
 10 11  2  0
 11 12  1  0
 12 13  2  0
 13 14  1  0
 14 16  2  0
 16 10  1  0
M  END

$$$$
No_1133-/dssg/home/sw_qyf/PocketFlow/Model-Generation-Results/5HT2A_7WC7_rec_A_10.pdb/2024-01-01-03-54-21/
     RDKit          3D

 17 18  0  0  0  0  0  0  0  0999 V2000
  -24.1553  -17.8465  145.7021 C   0  0  0  0  0  0  0  0  0  0  0  0
  -23.9795  -18.4462  146.7426 C   0  0  0  0  0  0  0  0  0  0  0  0
  -25.1593  -16.8262  145.6925 C   0  0  0  0  0  0  0  0  0  0  0  0
  -25.3302  -15.8818  144.5925 C   0  0  0  0  0  0  0  0  0  0  0  0
  -24.4570  -18.1009  148.0274 C   0  0  0  0  0  0  0  0  0  0  0  0
  -25.3496  -17.0286  148.1023 C   0  0  0  0  0  0  0  0  0  0  0  0
  -25.5172  -16.2940  147.1091 C   0  0  0  0  0  0  0  0  0  0  0  0
  -25.1001  -14.4722  144.8669 C   0  0  0  0  0  0  0  0  0  0  0  0
  -24.7906  -13.6964  143.8694 C   0  0  0  0  0  0  0  0  0  0  0  0
  -24.2953  -12.1245  144.0782 Cl  0  0  0  0  0  0  0  0  0  0  0  0
  -24.6595  -13.9225  146.1881 C   0  0  0  0  0  0  0  0  0  0  0  0
  -25.1007  -14.9164  147.3944 C   0  0  0  0  0  0  0  0  0  0  0  0
  -25.9672  -16.7619  149.2904 O   0  0  0  0  0  0  0  0  0  0  0  0
  -24.9938  -14.0265  142.6380 O   0  0  0  0  0  0  0  0  0  0  0  0
  -23.8265  -18.2593  144.5600 F   0  0  0  0  0  0  0  0  0  0  0  0
  -27.1366  -17.4226  149.5215 C   0  0  0  0  0  0  0  0  0  0  0  0
  -24.6229  -12.7579  146.5810 O   0  0  0  0  0  0  0  0  0  0  0  0
  3  4  1  0
  4  8  1  0
  8  9  2  3
  9 10  1  0
  8 11  1  0
  7 12  1  0
 11 12  1  0
  6 13  1  0
  9 14  1  0
  1 15  1  0
 13 16  1  0
 11 17  1  0
  1  2  2  0
  2  5  1  0
  5  6  2  0
  6  7  1  0
  7  3  2  0
  3  1  1  0
M  END

$$$$
No_1134-/dssg/home/sw_qyf/PocketFlow/Model-Generation-Results/5HT2A_7WC7_rec_A_10.pdb/2024-01-01-03-54-21/
     RDKit          3D

 35 41  0  0  0  0  0  0  0  0999 V2000
  -24.1553  -17.8465  145.7021 C   0  0  0  0  0  0  0  0  0  0  0  0
  -23.9795  -18.4462  146.7426 C   0  0  0  0  0  0  0  0  0  0  0  0
  -25.1196  -16.8106  145.6409 C   0  0  0  0  0  0  0  0  0  0  0  0
  -25.2440  -15.8776  144.5240 C   0  0  0  0  0  0  0  0  0  0  0  0
  -26.0733  -14.7284  144.7061 C   0  0  0  0  0  0  0  0  0  0  0  0
  -26.0749  -13.6607  143.7626 C   0  0  0  0  0  0  0  0  0  0  0  0
  -23.9559  -17.6833  147.9078 C   0  0  0  0  0  0  0  0  0  0  0  0
  -24.8264  -16.5643  148.1415 C   0  0  0  0  0  0  0  0  0  0  0  0
  -25.0858  -15.8246  146.9166 C   0  0  0  0  0  0  0  0  0  0  0  0
  -26.1775  -13.9467  142.5696 C   0  0  0  0  0  0  0  0  0  0  0  0
  -27.0749  -13.2482  141.5658 C   0  0  0  0  0  0  0  0  0  0  0  0
  -27.2434  -13.6138  140.2920 C   0  0  0  0  0  0  0  0  0  0  0  0
  -28.0112  -12.6008  139.5954 C   0  0  0  0  0  0  0  0  0  0  0  0
  -28.3433  -11.3631  140.1620 C   0  0  0  0  0  0  0  0  0  0  0  0
  -28.1459  -11.1228  141.5087 C   0  0  0  0  0  0  0  0  0  0  0  0
  -27.4302  -12.0262  142.2634 C   0  0  0  0  0  0  0  0  0  0  0  0
  -26.2252  -14.8841  146.8679 C   0  0  0  0  0  0  0  0  0  0  0  0
  -26.2239  -13.8527  145.9933 C   0  0  0  0  0  0  0  0  0  0  0  0
  -28.7041   -9.8486  142.0755 C   0  0  0  0  0  0  0  0  0  0  0  0
  -28.8324   -9.7002  143.4929 C   0  0  0  0  0  0  0  0  0  0  0  0
  -28.0037  -10.3866  144.3810 C   0  0  0  0  0  0  0  0  0  0  0  0
  -27.3599  -11.6548  143.7830 C   0  0  0  0  0  0  0  0  0  0  0  0
  -26.6105  -12.6255  144.5443 C   0  0  0  0  0  0  0  0  0  0  0  0
  -26.9823  -12.5833  146.3680 O   0  0  0  0  0  0  0  0  0  0  0  0
  -25.3707  -11.6129  144.6403 O   0  0  0  0  0  0  0  0  0  0  0  0
  -28.1987  -12.5153  146.6135 C   0  0  0  0  0  0  0  0  0  0  0  0
  -27.8424  -12.8817  144.5434 O   0  0  0  0  0  0  0  0  0  0  0  0
  -28.6667  -12.4774  145.4797 C   0  0  0  0  0  0  0  0  0  0  0  0
  -30.1113  -12.4126  145.5085 C   0  0  0  0  0  0  0  0  0  0  0  0
  -30.5168  -11.5654  146.7548 C   0  0  0  0  0  0  0  0  0  0  0  0
  -30.1606  -11.9867  147.9238 O   0  0  0  0  0  0  0  0  0  0  0  0
  -28.8470  -12.5920  147.8909 C   0  0  0  0  0  0  0  0  0  0  0  0
  -29.3162   -8.9456  141.2109 C   0  0  0  0  0  0  0  0  0  0  0  0
  -30.2331   -7.9247  141.6976 C   0  0  0  0  0  0  0  0  0  0  0  0
  -31.5093   -8.4607  142.1773 C   0  0  0  0  0  0  0  0  0  0  0  0
  3  4  1  0
  4  5  1  0
  5  6  1  0
 10 11  1  0
  9 17  1  0
  5 18  1  0
 17 18  1  0
  6 23  1  0
 22 23  1  0
 18 24  1  0
 23 25  1  0
 24 26  1  0
 23 27  1  0
 26 28  1  0
 27 28  1  0
 28 29  1  0
 29 30  1  0
 30 31  1  0
 26 32  1  0
 31 32  1  0
 19 33  1  0
 33 34  2  3
 34 35  1  0
  6 10  1  0
 16 22  2  0
 22 21  1  0
 21 20  2  0
 20 19  1  0
 19 15  2  0
  1  2  2  0
  2  7  1  0
  7  8  2  0
  8  9  1  0
  9  3  2  0
  3  1  1  0
 11 12  2  0
 12 13  1  0
 13 14  2  0
 14 15  1  0
 15 16  1  0
 16 11  1  0
M  END

$$$$
No_1135-/dssg/home/sw_qyf/PocketFlow/Model-Generation-Results/5HT2A_7WC7_rec_A_10.pdb/2024-01-01-03-54-21/
     RDKit          3D

  9  9  0  0  0  0  0  0  0  0999 V2000
  -24.1553  -17.8465  145.7021 C   0  0  0  0  0  0  0  0  0  0  0  0
  -23.9795  -18.4462  146.7426 C   0  0  0  0  0  0  0  0  0  0  0  0
  -25.1593  -16.8262  145.6925 C   0  0  0  0  0  0  0  0  0  0  0  0
  -25.1480  -15.9148  146.4998 C   0  0  0  0  0  0  0  0  0  0  0  0
  -25.8670  -14.6758  146.4786 C   0  0  0  0  0  0  0  0  0  0  0  0
  -25.2254  -13.4032  146.4646 C   0  0  0  0  0  0  0  0  0  0  0  0
  -23.8361  -17.6587  148.0060 C   0  0  0  0  0  0  0  0  0  0  0  0
  -24.2125  -16.2432  147.8600 C   0  0  0  0  0  0  0  0  0  0  0  0
  -23.8089  -13.2059  146.3297 C   0  0  0  0  0  0  0  0  0  0  0  0
  1  2  1  0
  1  3  1  0
  3  4  1  0
  4  5  1  0
  5  6  2  3
  2  7  1  0
  4  8  1  0
  7  8  1  0
  6  9  1  0
M  END

$$$$
No_1136-/dssg/home/sw_qyf/PocketFlow/Model-Generation-Results/5HT2A_7WC7_rec_A_10.pdb/2024-01-01-03-54-21/
     RDKit          3D

 26 27  0  0  0  0  0  0  0  0999 V2000
  -23.1746  -16.6014  144.8668 C   0  0  0  0  0  0  0  0  0  0  0  0
  -23.8963  -15.5346  144.7885 C   0  0  0  0  0  0  0  0  0  0  0  0
  -24.5755  -15.0383  145.9043 C   0  0  0  0  0  0  0  0  0  0  0  0
  -25.0618  -13.6819  146.0347 C   0  0  0  0  0  0  0  0  0  0  0  0
  -26.1212  -13.2239  146.2655 C   0  0  0  0  0  0  0  0  0  0  0  0
  -23.3988  -17.5289  145.9572 C   0  0  0  0  0  0  0  0  0  0  0  0
  -24.0509  -17.0603  147.1196 C   0  0  0  0  0  0  0  0  0  0  0  0
  -24.6392  -15.7936  147.1455 C   0  0  0  0  0  0  0  0  0  0  0  0
  -26.5137  -11.8030  146.2495 C   0  0  0  0  0  0  0  0  0  0  0  0
  -23.9710  -12.6294  145.7163 C   0  0  0  0  0  0  0  0  0  0  0  0
  -24.3111  -11.2839  145.4260 C   0  0  0  0  0  0  0  0  0  0  0  0
  -25.5779  -10.9115  145.7345 C   0  0  0  0  0  0  0  0  0  0  0  0
  -23.8271  -14.7161  143.7861 O   0  0  0  0  0  0  0  0  0  0  0  0
  -24.0975  -17.9106  148.3693 C   0  0  0  0  0  0  0  0  0  0  0  0
  -25.2759  -17.7162  149.1395 C   0  0  0  0  0  0  0  0  0  0  0  0
  -25.1398  -17.6009  150.6351 C   0  0  0  0  0  0  0  0  0  0  0  0
  -24.1319  -16.9622  151.0718 O   0  0  0  0  0  0  0  0  0  0  0  0
  -28.1760  -11.3679  146.5557 Cl  0  0  0  0  0  0  0  0  0  0  0  0
  -26.0279  -18.1592  151.4099 O   0  0  0  0  0  0  0  0  0  0  0  0
  -22.8406  -18.7422  146.0076 O   0  0  0  0  0  0  0  0  0  0  0  0
  -27.1136  -14.0538  146.7697 O   0  0  0  0  0  0  0  0  0  0  0  0
  -28.1568  -14.4930  145.9239 C   0  0  0  0  0  0  0  0  0  0  0  0
  -28.2947  -15.9217  146.1584 C   0  0  0  0  0  0  0  0  0  0  0  0
  -27.3358  -16.7557  145.6506 C   0  0  0  0  0  0  0  0  0  0  0  0
  -26.8630  -17.7163  146.6787 C   0  0  0  0  0  0  0  0  0  0  0  0
  -26.3522  -17.5118  148.6868 O   0  0  0  0  0  0  0  0  0  0  0  0
  3  4  1  0
  2 13  1  0
  7 14  1  0
 14 15  1  0
 15 16  1  0
 16 17  1  0
  9 18  1  0
 16 19  2  0
  6 20  1  0
  5 21  1  0
 21 22  1  0
 22 23  1  0
 23 24  2  3
 24 25  1  0
 15 26  2  0
  4  5  2  0
  5  9  1  0
  9 12  2  0
 12 11  1  0
 11 10  2  0
 10  4  1  0
  1  2  2  0
  2  3  1  0
  3  8  2  0
  8  7  1  0
  7  6  2  0
  6  1  1  0
M  END

$$$$
No_1137-/dssg/home/sw_qyf/PocketFlow/Model-Generation-Results/5HT2A_7WC7_rec_A_10.pdb/2024-01-01-03-54-21/
     RDKit          3D

 22 23  0  0  0  0  0  0  0  0999 V2000
  -23.1746  -16.6014  144.8668 C   0  0  0  0  0  0  0  0  0  0  0  0
  -23.8963  -15.5346  144.7885 C   0  0  0  0  0  0  0  0  0  0  0  0
  -24.5755  -15.0383  145.9043 C   0  0  0  0  0  0  0  0  0  0  0  0
  -25.0618  -13.6819  146.0347 C   0  0  0  0  0  0  0  0  0  0  0  0
  -26.1212  -13.2239  146.2655 C   0  0  0  0  0  0  0  0  0  0  0  0
  -23.3988  -17.5289  145.9572 C   0  0  0  0  0  0  0  0  0  0  0  0
  -24.0509  -17.0603  147.1196 C   0  0  0  0  0  0  0  0  0  0  0  0
  -24.6392  -15.7936  147.1455 C   0  0  0  0  0  0  0  0  0  0  0  0
  -26.5137  -11.8030  146.2495 C   0  0  0  0  0  0  0  0  0  0  0  0
  -23.9710  -12.6294  145.7163 C   0  0  0  0  0  0  0  0  0  0  0  0
  -24.3111  -11.2839  145.4260 C   0  0  0  0  0  0  0  0  0  0  0  0
  -25.5779  -10.9115  145.7345 C   0  0  0  0  0  0  0  0  0  0  0  0
  -23.8271  -14.7161  143.7861 O   0  0  0  0  0  0  0  0  0  0  0  0
  -24.0970  -17.8242  148.2296 F   0  0  0  0  0  0  0  0  0  0  0  0
  -22.8118  -18.7387  146.0480 O   0  0  0  0  0  0  0  0  0  0  0  0
  -27.7613  -11.4509  146.5545 F   0  0  0  0  0  0  0  0  0  0  0  0
  -27.1020  -14.0360  146.7937 O   0  0  0  0  0  0  0  0  0  0  0  0
  -28.3891  -13.9179  146.3255 C   0  0  0  0  0  0  0  0  0  0  0  0
  -28.7784  -12.5139  146.4100 C   0  0  0  0  0  0  0  0  0  0  0  0
  -30.0165  -12.0162  146.4456 O   0  0  0  0  0  0  0  0  0  0  0  0
  -29.6447  -12.2846  145.9106 Cl  0  0  0  0  0  0  0  0  0  0  0  0
  -28.6837  -12.2798  147.8385 F   0  0  0  0  0  0  0  0  0  0  0  0
  3  4  1  0
  2 13  1  0
  7 14  1  0
  6 15  1  0
  9 16  1  0
  5 17  1  0
 17 18  1  0
 18 19  1  0
 19 20  1  0
 20 21  1  0
 19 22  1  0
  4  5  2  0
  5  9  1  0
  9 12  2  0
 12 11  1  0
 11 10  2  0
 10  4  1  0
  1  2  2  0
  2  3  1  0
  3  8  2  0
  8  7  1  0
  7  6  2  0
  6  1  1  0
M  END

$$$$
No_1138-/dssg/home/sw_qyf/PocketFlow/Model-Generation-Results/5HT2A_7WC7_rec_A_10.pdb/2024-01-01-03-54-21/
     RDKit          3D

 17 18  0  0  0  0  0  0  0  0999 V2000
  -24.1553  -17.8465  145.7021 C   0  0  0  0  0  0  0  0  0  0  0  0
  -24.2856  -16.6364  145.3494 C   0  0  0  0  0  0  0  0  0  0  0  0
  -24.1962  -15.9414  144.2650 C   0  0  0  0  0  0  0  0  0  0  0  0
  -24.3870  -14.5486  144.1162 C   0  0  0  0  0  0  0  0  0  0  0  0
  -24.7524  -13.8439  145.3544 C   0  0  0  0  0  0  0  0  0  0  0  0
  -24.8597  -14.5458  146.5907 C   0  0  0  0  0  0  0  0  0  0  0  0
  -24.5647  -15.8706  146.6408 C   0  0  0  0  0  0  0  0  0  0  0  0
  -24.5616  -18.0263  147.0185 C   0  0  0  0  0  0  0  0  0  0  0  0
  -24.7880  -16.8821  147.6460 C   0  0  0  0  0  0  0  0  0  0  0  0
  -24.9920  -12.3656  145.3843 C   0  0  0  0  0  0  0  0  0  0  0  0
  -25.2850  -11.8568  146.3208 O   0  0  0  0  0  0  0  0  0  0  0  0
  -24.6035  -11.6420  144.3491 O   0  0  0  0  0  0  0  0  0  0  0  0
  -25.0589  -16.5885  149.0767 C   0  0  0  0  0  0  0  0  0  0  0  0
  -24.2441  -17.2077  150.0667 C   0  0  0  0  0  0  0  0  0  0  0  0
  -23.6360  -18.0796  149.6359 F   0  0  0  0  0  0  0  0  0  0  0  0
  -25.1068  -17.7166  151.0948 F   0  0  0  0  0  0  0  0  0  0  0  0
  -23.3372  -16.3596  150.6153 F   0  0  0  0  0  0  0  0  0  0  0  0
  1  2  2  0
  2  3  1  0
  3  4  1  0
  4  5  1  0
  5  6  1  0
  2  7  1  0
  6  7  1  0
  1  8  1  0
  7  9  1  0
  8  9  1  0
  5 10  1  0
 10 11  2  0
 10 12  1  0
  9 13  1  0
 13 14  1  0
 14 15  1  0
 14 16  1  0
 14 17  1  0
M  END

$$$$
No_1139-/dssg/home/sw_qyf/PocketFlow/Model-Generation-Results/5HT2A_7WC7_rec_A_10.pdb/2024-01-01-03-54-21/
     RDKit          3D

  8  8  0  0  0  0  0  0  0  0999 V2000
  -23.1746  -16.6014  144.8668 C   0  0  0  0  0  0  0  0  0  0  0  0
  -23.7011  -17.0158  145.9774 C   0  0  0  0  0  0  0  0  0  0  0  0
  -24.2134  -16.0722  146.8877 C   0  0  0  0  0  0  0  0  0  0  0  0
  -23.3923  -15.2819  144.4013 C   0  0  0  0  0  0  0  0  0  0  0  0
  -24.0590  -14.3176  145.3010 C   0  0  0  0  0  0  0  0  0  0  0  0
  -24.2621  -12.9141  144.8891 C   0  0  0  0  0  0  0  0  0  0  0  0
  -24.4508  -14.7171  146.5976 C   0  0  0  0  0  0  0  0  0  0  0  0
  -23.1461  -12.3350  144.8133 O   0  0  0  0  0  0  0  0  0  0  0  0
  5  6  1  0
  6  8  1  0
  1  2  2  0
  2  3  1  0
  3  7  2  0
  7  5  1  0
  5  4  2  0
  4  1  1  0
M  END

$$$$
No_1140-/dssg/home/sw_qyf/PocketFlow/Model-Generation-Results/5HT2A_7WC7_rec_A_10.pdb/2024-01-01-03-54-21/
     RDKit          3D

 25 27  0  0  0  0  0  0  0  0999 V2000
  -23.1746  -16.6014  144.8668 C   0  0  0  0  0  0  0  0  0  0  0  0
  -24.0189  -16.0564  145.8445 C   0  0  0  0  0  0  0  0  0  0  0  0
  -24.4145  -16.8299  146.9062 C   0  0  0  0  0  0  0  0  0  0  0  0
  -23.9612  -18.1384  147.0126 C   0  0  0  0  0  0  0  0  0  0  0  0
  -23.1429  -18.6221  146.0418 C   0  0  0  0  0  0  0  0  0  0  0  0
  -22.8095  -17.8231  145.0610 N   0  0  0  0  0  0  0  0  0  0  0  0
  -24.5671  -14.6439  145.6745 C   0  0  0  0  0  0  0  0  0  0  0  0
  -25.6755  -14.2339  146.3521 C   0  0  0  0  0  0  0  0  0  0  0  0
  -26.0799  -12.8632  146.3387 C   0  0  0  0  0  0  0  0  0  0  0  0
  -25.4367  -11.9562  145.4880 C   0  0  0  0  0  0  0  0  0  0  0  0
  -24.2830  -12.3664  144.8520 C   0  0  0  0  0  0  0  0  0  0  0  0
  -23.8054  -13.7044  144.9030 C   0  0  0  0  0  0  0  0  0  0  0  0
  -25.9496  -10.5679  145.4158 C   0  0  0  0  0  0  0  0  0  0  0  0
  -26.3107  -10.0427  144.2084 C   0  0  0  0  0  0  0  0  0  0  0  0
  -27.6942  -10.3200  143.7899 C   0  0  0  0  0  0  0  0  0  0  0  0
  -28.5516  -11.0127  144.5449 C   0  0  0  0  0  0  0  0  0  0  0  0
  -29.9888  -10.7447  144.4190 C   0  0  0  0  0  0  0  0  0  0  0  0
  -30.3838   -9.9752  143.3659 C   0  0  0  0  0  0  0  0  0  0  0  0
  -29.4955   -9.3568  142.4785 C   0  0  0  0  0  0  0  0  0  0  0  0
  -28.0976   -9.5264  142.7193 C   0  0  0  0  0  0  0  0  0  0  0  0
  -29.9545   -8.5821  141.3340 C   0  0  0  0  0  0  0  0  0  0  0  0
  -29.2391   -8.5367  140.1655 C   0  0  0  0  0  0  0  0  0  0  0  0
  -28.1871   -9.3623  139.8461 C   0  0  0  0  0  0  0  0  0  0  0  0
  -27.5800   -9.2837  138.6006 C   0  0  0  0  0  0  0  0  0  0  0  0
  -27.9257   -8.1838  137.8114 C   0  0  0  0  0  0  0  0  0  0  0  0
  2  7  1  0
 10 13  1  0
 13 14  1  0
 14 15  1  0
 19 21  1  0
 21 22  2  3
 22 23  1  0
 23 24  2  3
 24 25  1  0
 15 16  2  0
 16 17  1  0
 17 18  2  0
 18 19  1  0
 19 20  2  0
 20 15  1  0
  1  2  2  0
  2  3  1  0
  3  4  2  0
  4  5  1  0
  5  6  2  0
  6  1  1  0
  7  8  2  0
  8  9  1  0
  9 10  2  0
 10 11  1  0
 11 12  2  0
 12  7  1  0
M  END

$$$$
No_1141-/dssg/home/sw_qyf/PocketFlow/Model-Generation-Results/5HT2A_7WC7_rec_A_10.pdb/2024-01-01-03-54-21/
     RDKit          3D

 35 38  0  0  0  0  0  0  0  0999 V2000
  -23.1746  -16.6014  144.8668 C   0  0  0  0  0  0  0  0  0  0  0  0
  -23.7011  -17.0158  145.9774 C   0  0  0  0  0  0  0  0  0  0  0  0
  -24.7095  -16.6222  146.3578 C   0  0  0  0  0  0  0  0  0  0  0  0
  -25.5380  -15.6354  145.8602 C   0  0  0  0  0  0  0  0  0  0  0  0
  -26.7421  -15.1154  146.4532 C   0  0  0  0  0  0  0  0  0  0  0  0
  -27.4468  -14.0183  146.0154 C   0  0  0  0  0  0  0  0  0  0  0  0
  -28.5554  -13.4432  146.6093 C   0  0  0  0  0  0  0  0  0  0  0  0
  -29.0114  -12.1340  146.2906 C   0  0  0  0  0  0  0  0  0  0  0  0
  -28.4456  -11.4103  145.2923 C   0  0  0  0  0  0  0  0  0  0  0  0
  -27.3348  -11.9587  144.6332 C   0  0  0  0  0  0  0  0  0  0  0  0
  -26.7493  -13.1515  145.0049 C   0  0  0  0  0  0  0  0  0  0  0  0
  -23.7571  -15.3984  144.3027 C   0  0  0  0  0  0  0  0  0  0  0  0
  -24.9707  -14.9606  144.7935 C   0  0  0  0  0  0  0  0  0  0  0  0
  -25.5945  -13.7604  144.3410 N   0  0  0  0  0  0  0  0  0  0  0  0
  -30.1729  -11.6491  146.9977 N   0  0  0  0  0  0  0  0  0  0  0  0
  -22.9885  -18.2759  146.5795 C   0  0  0  0  0  0  0  0  0  0  0  0
  -29.0710  -10.1317  144.8086 C   0  0  0  0  0  0  0  0  0  0  0  0
  -30.4577  -10.0808  144.6696 C   0  0  0  0  0  0  0  0  0  0  0  0
  -30.8265   -8.9356  143.8306 C   0  0  0  0  0  0  0  0  0  0  0  0
  -31.7487   -8.9469  142.9840 C   0  0  0  0  0  0  0  0  0  0  0  0
  -31.2674   -8.7765  141.7720 N   0  0  0  0  0  0  0  0  0  0  0  0
  -30.3932   -7.7513  141.5503 C   0  0  0  0  0  0  0  0  0  0  0  0
  -29.5760   -7.8237  140.3925 C   0  0  0  0  0  0  0  0  0  0  0  0
  -28.6755   -8.8263  140.0951 C   0  0  0  0  0  0  0  0  0  0  0  0
  -28.1188   -8.9659  138.8192 C   0  0  0  0  0  0  0  0  0  0  0  0
  -27.4640  -10.1262  138.5240 C   0  0  0  0  0  0  0  0  0  0  0  0
  -27.3562  -11.1626  139.5548 C   0  0  0  0  0  0  0  0  0  0  0  0
  -26.6477  -12.3608  139.2426 C   0  0  0  0  0  0  0  0  0  0  0  0
  -27.9365  -11.0736  140.8664 C   0  0  0  0  0  0  0  0  0  0  0  0
  -28.6621   -9.8196  141.1481 C   0  0  0  0  0  0  0  0  0  0  0  0
  -26.3408  -13.1525  140.1884 O   0  0  0  0  0  0  0  0  0  0  0  0
  -25.8405  -12.3492  138.2622 O   0  0  0  0  0  0  0  0  0  0  0  0
  -28.2852   -7.9303  137.9367 C   0  0  0  0  0  0  0  0  0  0  0  0
  -23.1775  -19.4055  146.4979 O   0  0  0  0  0  0  0  0  0  0  0  0
  -22.3186  -17.8288  147.7549 O   0  0  0  0  0  0  0  0  0  0  0  0
  8 15  1  0
  2 16  1  0
  9 17  1  0
 17 18  1  0
 18 19  1  0
 19 20  2  3
 20 21  1  0
 21 22  1  0
 22 23  1  0
 23 24  1  0
 27 28  1  0
 28 31  1  0
 28 32  2  0
 25 33  1  0
 16 34  2  0
 16 35  1  0
 24 25  2  0
 25 26  1  0
 26 27  2  0
 27 29  1  0
 29 30  2  0
 30 24  1  0
  1  2  2  0
  2  3  1  0
  3  4  2  0
 13 12  2  0
 12  1  1  0
  6  7  1  0
  7  8  2  0
  8  9  1  0
  9 10  2  0
 10 11  1  0
  4  5  1  0
  5  6  2  0
  6 11  1  0
 11 14  2  0
 14 13  1  0
 13  4  1  0
M  END

$$$$
No_1142-/dssg/home/sw_qyf/PocketFlow/Model-Generation-Results/5HT2A_7WC7_rec_A_10.pdb/2024-01-01-03-54-21/
     RDKit          3D

 20 19  0  0  0  0  0  0  0  0999 V2000
  -23.1746  -16.6014  144.8668 C   0  0  0  0  0  0  0  0  0  0  0  0
  -24.0189  -16.0564  145.8445 C   0  0  0  0  0  0  0  0  0  0  0  0
  -25.3176  -15.9168  145.6822 C   0  0  0  0  0  0  0  0  0  0  0  0
  -26.2875  -16.5451  146.4724 C   0  0  0  0  0  0  0  0  0  0  0  0
  -27.7100  -16.3073  146.3027 C   0  0  0  0  0  0  0  0  0  0  0  0
  -28.6185  -16.7025  147.1249 C   0  0  0  0  0  0  0  0  0  0  0  0
  -25.6463  -14.4675  145.3499 C   0  0  0  0  0  0  0  0  0  0  0  0
  -25.7075  -13.6434  145.9136 C   0  0  0  0  0  0  0  0  0  0  0  0
  -26.1232  -12.2730  145.6200 C   0  0  0  0  0  0  0  0  0  0  0  0
  -27.1341  -12.0129  144.7753 C   0  0  0  0  0  0  0  0  0  0  0  0
  -27.9287  -10.8858  144.6763 C   0  0  0  0  0  0  0  0  0  0  0  0
  -29.1683  -10.8259  144.0905 C   0  0  0  0  0  0  0  0  0  0  0  0
  -29.1803  -10.2891  142.6868 C   0  0  0  0  0  0  0  0  0  0  0  0
  -29.7857   -9.0734  142.5392 C   0  0  0  0  0  0  0  0  0  0  0  0
  -30.9620   -8.6445  143.0968 C   0  0  0  0  0  0  0  0  0  0  0  0
  -29.4068   -8.2506  141.3132 C   0  0  0  0  0  0  0  0  0  0  0  0
  -29.4426   -8.6550  140.0564 C   0  0  0  0  0  0  0  0  0  0  0  0
  -28.1166   -8.8560  139.4949 C   0  0  0  0  0  0  0  0  0  0  0  0
  -27.9948   -8.6590  138.1013 C   0  0  0  0  0  0  0  0  0  0  0  0
  -31.1157   -7.3950  143.3586 O   0  0  0  0  0  0  0  0  0  0  0  0
  1  2  1  0
  2  3  1  0
  3  4  2  3
  4  5  1  0
  5  6  1  0
  3  7  1  0
  7  8  2  3
  8  9  1  0
  9 10  2  3
 10 11  1  0
 11 12  1  0
 12 13  1  0
 13 14  1  0
 14 15  2  0
 14 16  1  0
 16 17  1  0
 17 18  1  0
 18 19  2  0
 15 20  2  0
M  END

$$$$
No_1143-/dssg/home/sw_qyf/PocketFlow/Model-Generation-Results/5HT2A_7WC7_rec_A_10.pdb/2024-01-01-03-54-21/
     RDKit          3D

 31 34  0  0  0  0  0  0  0  0999 V2000
  -24.1553  -17.8465  145.7021 C   0  0  0  0  0  0  0  0  0  0  0  0
  -23.9795  -18.4462  146.7426 C   0  0  0  0  0  0  0  0  0  0  0  0
  -25.1196  -16.8106  145.6408 C   0  0  0  0  0  0  0  0  0  0  0  0
  -25.5716  -16.3544  146.4211 C   0  0  0  0  0  0  0  0  0  0  0  0
  -25.4257  -16.8469  147.8252 C   0  0  0  0  0  0  0  0  0  0  0  0
  -24.4913  -17.8322  148.0252 C   0  0  0  0  0  0  0  0  0  0  0  0
  -26.5754  -15.0828  146.4233 C   0  0  0  0  0  0  0  0  0  0  0  0
  -26.1512  -13.8716  146.0959 C   0  0  0  0  0  0  0  0  0  0  0  0
  -26.7150  -13.0249  145.6235 C   0  0  0  0  0  0  0  0  0  0  0  0
  -26.2577  -11.8077  144.9252 C   0  0  0  0  0  0  0  0  0  0  0  0
  -24.8167  -11.6294  145.1351 C   0  0  0  0  0  0  0  0  0  0  0  0
  -24.0217  -12.5547  145.7278 C   0  0  0  0  0  0  0  0  0  0  0  0
  -24.6259  -13.7611  146.1951 C   0  0  0  0  0  0  0  0  0  0  0  0
  -27.9292  -15.3632  146.7051 C   0  0  0  0  0  0  0  0  0  0  0  0
  -28.5303  -16.5703  146.7331 C   0  0  0  0  0  0  0  0  0  0  0  0
  -27.0771  -10.7433  144.4472 C   0  0  0  0  0  0  0  0  0  0  0  0
  -27.9781  -10.9519  143.4072 C   0  0  0  0  0  0  0  0  0  0  0  0
  -28.8665   -9.9739  142.9589 C   0  0  0  0  0  0  0  0  0  0  0  0
  -29.8060  -10.1123  142.0015 C   0  0  0  0  0  0  0  0  0  0  0  0
  -30.8884   -9.2270  141.9682 C   0  0  0  0  0  0  0  0  0  0  0  0
  -30.7827   -7.9575  142.6042 C   0  0  0  0  0  0  0  0  0  0  0  0
  -29.6689   -7.6850  143.4213 C   0  0  0  0  0  0  0  0  0  0  0  0
  -28.8082   -8.6894  143.7127 C   0  0  0  0  0  0  0  0  0  0  0  0
  -27.9897  -12.1105  142.8094 O   0  0  0  0  0  0  0  0  0  0  0  0
  -27.5307  -12.1938  141.5297 C   0  0  0  0  0  0  0  0  0  0  0  0
  -27.7302  -11.4099  140.5045 C   0  0  0  0  0  0  0  0  0  0  0  0
  -27.2285  -11.6284  139.2452 C   0  0  0  0  0  0  0  0  0  0  0  0
  -27.1699  -13.5749  141.2667 C   0  0  0  0  0  0  0  0  0  0  0  0
  -26.3987  -13.7112  140.0973 C   0  0  0  0  0  0  0  0  0  0  0  0
  -26.4397  -12.7780  139.1093 C   0  0  0  0  0  0  0  0  0  0  0  0
  -27.6768  -17.6162  146.5131 N   0  0  0  0  0  0  0  0  0  0  0  0
  4  7  1  0
  7  8  1  0
  7 14  1  0
 14 15  2  3
 10 16  1  0
 16 17  1  0
 17 24  1  0
 24 25  1  0
 15 31  1  0
 17 18  1  0
 18 19  2  0
 19 20  1  0
 20 21  2  0
 21 22  1  0
 22 23  2  0
 23 18  1  0
  1  2  2  0
  2  6  1  0
  6  5  2  0
  5  4  1  0
  4  3  2  0
  3  1  1  0
 25 26  2  0
 26 27  1  0
 27 30  2  0
 30 29  1  0
 29 28  2  0
 28 25  1  0
  8  9  2  0
  9 10  1  0
 10 11  2  0
 11 12  1  0
 12 13  2  0
 13  8  1  0
M  END

$$$$
No_1144-/dssg/home/sw_qyf/PocketFlow/Model-Generation-Results/5HT2A_7WC7_rec_A_10.pdb/2024-01-01-03-54-21/
     RDKit          3D

 19 19  0  0  0  0  0  0  0  0999 V2000
  -24.1553  -17.8465  145.7021 C   0  0  0  0  0  0  0  0  0  0  0  0
  -23.9795  -18.4462  146.7426 C   0  0  0  0  0  0  0  0  0  0  0  0
  -25.1593  -16.8262  145.6925 C   0  0  0  0  0  0  0  0  0  0  0  0
  -24.9465  -15.5961  144.9952 C   0  0  0  0  0  0  0  0  0  0  0  0
  -23.7067  -15.3931  144.3087 C   0  0  0  0  0  0  0  0  0  0  0  0
  -23.5046  -14.0224  143.7991 C   0  0  0  0  0  0  0  0  0  0  0  0
  -22.2573  -13.7913  143.6108 F   0  0  0  0  0  0  0  0  0  0  0  0
  -23.9371  -13.1618  144.9274 F   0  0  0  0  0  0  0  0  0  0  0  0
  -23.1958  -17.7412  147.8172 C   0  0  0  0  0  0  0  0  0  0  0  0
  -23.1175  -16.6477  148.0200 C   0  0  0  0  0  0  0  0  0  0  0  0
  -23.7020  -16.4454  149.1597 C   0  0  0  0  0  0  0  0  0  0  0  0
  -25.0986  -16.6603  149.2853 C   0  0  0  0  0  0  0  0  0  0  0  0
  -25.9921  -16.1158  148.5081 C   0  0  0  0  0  0  0  0  0  0  0  0
  -27.3995  -16.2510  148.5861 C   0  0  0  0  0  0  0  0  0  0  0  0
  -28.0176  -17.2292  149.3561 C   0  0  0  0  0  0  0  0  0  0  0  0
  -29.4099  -17.2242  149.3508 C   0  0  0  0  0  0  0  0  0  0  0  0
  -30.0817  -16.1169  148.8015 C   0  0  0  0  0  0  0  0  0  0  0  0
  -29.4957  -15.0914  148.1270 C   0  0  0  0  0  0  0  0  0  0  0  0
  -28.0634  -15.1535  147.9926 C   0  0  0  0  0  0  0  0  0  0  0  0
  1  2  1  0
  1  3  1  0
  3  4  2  3
  4  5  1  0
  5  6  1  0
  6  7  1  0
  6  8  1  0
  2  9  1  0
  9 10  2  3
 10 11  1  0
 11 12  1  0
 12 13  2  3
 13 14  1  0
 14 15  2  0
 15 16  1  0
 16 17  2  0
 17 18  1  0
 18 19  2  0
 19 14  1  0
M  END

$$$$
No_1145-/dssg/home/sw_qyf/PocketFlow/Model-Generation-Results/5HT2A_7WC7_rec_A_10.pdb/2024-01-01-03-54-21/
     RDKit          3D

 34 37  0  0  0  0  0  0  0  0999 V2000
  -23.1746  -16.6014  144.8668 C   0  0  0  0  0  0  0  0  0  0  0  0
  -24.0189  -16.0564  145.8445 C   0  0  0  0  0  0  0  0  0  0  0  0
  -24.4850  -14.7380  145.6359 C   0  0  0  0  0  0  0  0  0  0  0  0
  -25.2717  -14.0560  146.5949 C   0  0  0  0  0  0  0  0  0  0  0  0
  -25.6617  -12.7328  146.4162 C   0  0  0  0  0  0  0  0  0  0  0  0
  -25.2756  -11.9986  145.2553 C   0  0  0  0  0  0  0  0  0  0  0  0
  -24.3335  -12.6494  144.4294 C   0  0  0  0  0  0  0  0  0  0  0  0
  -23.8839  -13.9831  144.6056 C   0  0  0  0  0  0  0  0  0  0  0  0
  -24.4895  -16.8196  146.9335 C   0  0  0  0  0  0  0  0  0  0  0  0
  -24.0317  -18.0542  147.1803 C   0  0  0  0  0  0  0  0  0  0  0  0
  -23.2810  -18.6718  146.1993 C   0  0  0  0  0  0  0  0  0  0  0  0
  -22.8973  -17.9871  145.1061 N   0  0  0  0  0  0  0  0  0  0  0  0
  -25.6311  -10.7465  145.0675 N   0  0  0  0  0  0  0  0  0  0  0  0
  -26.9500  -10.4675  144.6609 C   0  0  0  0  0  0  0  0  0  0  0  0
  -28.0238  -11.1812  145.0941 C   0  0  0  0  0  0  0  0  0  0  0  0
  -29.3113  -10.7161  144.7720 C   0  0  0  0  0  0  0  0  0  0  0  0
  -29.6083   -9.5922  144.0444 C   0  0  0  0  0  0  0  0  0  0  0  0
  -28.4376   -8.9145  143.5377 C   0  0  0  0  0  0  0  0  0  0  0  0
  -27.1784   -9.2699  143.9160 C   0  0  0  0  0  0  0  0  0  0  0  0
  -30.9127   -9.2146  143.6241 C   0  0  0  0  0  0  0  0  0  0  0  0
  -30.9666   -8.6310  142.5739 O   0  0  0  0  0  0  0  0  0  0  0  0
  -31.9259   -9.2803  144.4320 O   0  0  0  0  0  0  0  0  0  0  0  0
  -30.0708   -7.8394  141.9848 C   0  0  0  0  0  0  0  0  0  0  0  0
  -28.6599   -8.1734  142.3055 C   0  0  0  0  0  0  0  0  0  0  0  0
  -30.2107   -7.7105  140.4609 C   0  0  0  0  0  0  0  0  0  0  0  0
  -29.4361   -8.5589  139.8781 O   0  0  0  0  0  0  0  0  0  0  0  0
  -28.8946   -8.2222  138.6156 C   0  0  0  0  0  0  0  0  0  0  0  0
  -27.5496   -8.6255  138.4199 C   0  0  0  0  0  0  0  0  0  0  0  0
  -27.2065   -9.6885  139.0610 O   0  0  0  0  0  0  0  0  0  0  0  0
  -27.8699  -10.7983  139.0986 C   0  0  0  0  0  0  0  0  0  0  0  0
  -27.0553  -11.9558  139.8016 C   0  0  0  0  0  0  0  0  0  0  0  0
  -26.6910  -11.6087  140.7346 O   0  0  0  0  0  0  0  0  0  0  0  0
  -25.7911  -12.1665  138.8014 C   0  0  0  0  0  0  0  0  0  0  0  0
  -25.6489  -13.5519  138.6864 O   0  0  0  0  0  0  0  0  0  0  0  0
  2  3  1  0
  6 13  1  0
 13 14  1  0
 17 20  1  0
 20 21  1  0
 20 22  2  0
 21 23  1  0
 18 24  1  0
 23 24  1  0
 23 25  1  0
 25 26  1  0
 26 27  1  0
 27 28  1  0
 28 29  1  0
 29 30  1  0
 30 31  1  0
 31 32  2  0
 31 33  1  0
 33 34  1  0
  1  2  2  0
  2  9  1  0
  9 10  2  0
 10 11  1  0
 11 12  2  0
 12  1  1  0
 14 15  2  0
 15 16  1  0
 16 17  2  0
 17 18  1  0
 18 19  2  0
 19 14  1  0
  3  4  2  0
  4  5  1  0
  5  6  2  0
  6  7  1  0
  7  8  2  0
  8  3  1  0
M  END

$$$$
No_1146-/dssg/home/sw_qyf/PocketFlow/Model-Generation-Results/5HT2A_7WC7_rec_A_10.pdb/2024-01-01-03-54-21/
     RDKit          3D

 34 38  0  0  0  0  0  0  0  0999 V2000
  -23.1746  -16.6014  144.8668 C   0  0  0  0  0  0  0  0  0  0  0  0
  -24.0189  -16.0564  145.8445 C   0  0  0  0  0  0  0  0  0  0  0  0
  -24.4850  -14.7380  145.6359 C   0  0  0  0  0  0  0  0  0  0  0  0
  -25.3334  -14.0797  146.6105 C   0  0  0  0  0  0  0  0  0  0  0  0
  -25.7120  -12.7594  146.4431 C   0  0  0  0  0  0  0  0  0  0  0  0
  -25.2808  -11.9605  145.3602 C   0  0  0  0  0  0  0  0  0  0  0  0
  -24.2994  -12.5741  144.5564 C   0  0  0  0  0  0  0  0  0  0  0  0
  -23.8450  -13.9153  144.6819 C   0  0  0  0  0  0  0  0  0  0  0  0
  -24.5228  -16.8277  146.9041 C   0  0  0  0  0  0  0  0  0  0  0  0
  -24.0477  -18.0730  147.1469 C   0  0  0  0  0  0  0  0  0  0  0  0
  -23.2978  -18.6795  146.1700 C   0  0  0  0  0  0  0  0  0  0  0  0
  -22.9440  -19.9696  146.4145 N   0  0  0  0  0  0  0  0  0  0  0  0
  -22.8958  -17.9822  145.0579 C   0  0  0  0  0  0  0  0  0  0  0  0
  -25.6098  -10.6912  145.1998 N   0  0  0  0  0  0  0  0  0  0  0  0
  -26.8958  -10.4374  144.6608 C   0  0  0  0  0  0  0  0  0  0  0  0
  -28.0020  -11.1541  145.0205 C   0  0  0  0  0  0  0  0  0  0  0  0
  -29.2687  -10.6850  144.6341 C   0  0  0  0  0  0  0  0  0  0  0  0
  -29.4899   -9.5635  143.8690 C   0  0  0  0  0  0  0  0  0  0  0  0
  -30.8062   -9.1221  143.5585 C   0  0  0  0  0  0  0  0  0  0  0  0
  -30.9984   -8.3675  142.4181 C   0  0  0  0  0  0  0  0  0  0  0  0
  -29.8617   -7.9308  141.6791 C   0  0  0  0  0  0  0  0  0  0  0  0
  -29.8355   -6.8429  140.7697 C   0  0  0  0  0  0  0  0  0  0  0  0
  -29.3424   -7.4446  139.4829 C   0  0  0  0  0  0  0  0  0  0  0  0
  -28.5029   -8.5838  139.4289 C   0  0  0  0  0  0  0  0  0  0  0  0
  -28.0066   -9.0381  138.2277 C   0  0  0  0  0  0  0  0  0  0  0  0
  -28.2673   -9.4033  140.6199 C   0  0  0  0  0  0  0  0  0  0  0  0
  -29.1104   -9.0791  141.7676 C   0  0  0  0  0  0  0  0  0  0  0  0
  -28.8117   -9.8027  142.8920 N   0  0  0  0  0  0  0  0  0  0  0  0
  -27.4836  -10.5592  140.5538 C   0  0  0  0  0  0  0  0  0  0  0  0
  -26.6380  -10.7184  139.6985 O   0  0  0  0  0  0  0  0  0  0  0  0
  -26.9011  -10.1909  138.4327 C   0  0  0  0  0  0  0  0  0  0  0  0
  -31.7654   -9.2043  144.5168 O   0  0  0  0  0  0  0  0  0  0  0  0
  -32.2092   -7.9355  142.1037 O   0  0  0  0  0  0  0  0  0  0  0  0
  -30.2751  -11.2788  145.3427 O   0  0  0  0  0  0  0  0  0  0  0  0
 11 12  1  0
  6 14  1  0
 14 15  1  0
 15 16  1  0
 16 17  2  3
 17 18  1  0
 18 19  1  0
 19 20  1  0
 20 21  1  0
 24 25  1  0
 18 28  1  0
 27 28  1  0
 26 29  1  0
 29 30  1  0
 25 31  2  0
 30 31  1  0
 19 32  1  0
 20 33  2  0
 17 34  1  0
  3  2  1  0
  1  2  2  0
  2  9  1  0
  9 10  2  0
 10 11  1  0
 11 13  2  0
 13  1  1  0
  3  4  2  0
  4  5  1  0
  5  6  2  0
  6  7  1  0
  7  8  2  0
  8  3  1  0
 21 22  2  0
 22 23  1  0
 23 24  2  0
 24 26  1  0
 26 27  2  0
 27 21  1  0
M  END

$$$$
No_1147-/dssg/home/sw_qyf/PocketFlow/Model-Generation-Results/5HT2A_7WC7_rec_A_10.pdb/2024-01-01-03-54-21/
     RDKit          3D

 35 38  0  0  0  0  0  0  0  0999 V2000
  -23.1746  -16.6014  144.8668 C   0  0  0  0  0  0  0  0  0  0  0  0
  -23.8963  -15.5346  144.7885 C   0  0  0  0  0  0  0  0  0  0  0  0
  -24.5755  -15.0383  145.9043 C   0  0  0  0  0  0  0  0  0  0  0  0
  -25.0618  -13.6819  146.0347 C   0  0  0  0  0  0  0  0  0  0  0  0
  -24.0242  -12.8249  145.9593 C   0  0  0  0  0  0  0  0  0  0  0  0
  -23.5540  -17.4786  146.0177 C   0  0  0  0  0  0  0  0  0  0  0  0
  -24.6396  -17.5267  146.5047 C   0  0  0  0  0  0  0  0  0  0  0  0
  -24.9937  -18.4293  147.6343 C   0  0  0  0  0  0  0  0  0  0  0  0
  -25.4432  -16.2450  146.5860 C   0  0  0  0  0  0  0  0  0  0  0  0
  -22.7852  -12.9511  145.9811 C   0  0  0  0  0  0  0  0  0  0  0  0
  -22.0179  -11.7694  145.4124 C   0  0  0  0  0  0  0  0  0  0  0  0
  -26.4264  -13.4463  146.3422 C   0  0  0  0  0  0  0  0  0  0  0  0
  -26.9246  -12.1162  146.1816 C   0  0  0  0  0  0  0  0  0  0  0  0
  -25.9353  -11.1018  145.9153 C   0  0  0  0  0  0  0  0  0  0  0  0
  -24.5949  -11.3919  145.7560 C   0  0  0  0  0  0  0  0  0  0  0  0
  -28.3103  -11.8197  146.3745 C   0  0  0  0  0  0  0  0  0  0  0  0
  -29.0743  -12.3729  147.3907 C   0  0  0  0  0  0  0  0  0  0  0  0
  -30.2461  -12.9025  147.2831 C   0  0  0  0  0  0  0  0  0  0  0  0
  -28.9743  -11.0073  145.4167 C   0  0  0  0  0  0  0  0  0  0  0  0
  -28.7307  -10.9610  144.0806 C   0  0  0  0  0  0  0  0  0  0  0  0
  -29.4833  -10.1454  143.2499 C   0  0  0  0  0  0  0  0  0  0  0  0
  -30.4573   -9.2878  143.8200 C   0  0  0  0  0  0  0  0  0  0  0  0
  -31.2807   -8.4462  143.0346 C   0  0  0  0  0  0  0  0  0  0  0  0
  -30.6943   -8.1806  141.7203 C   0  0  0  0  0  0  0  0  0  0  0  0
  -29.6960   -8.8643  141.1745 C   0  0  0  0  0  0  0  0  0  0  0  0
  -28.9901   -9.7959  141.9977 C   0  0  0  0  0  0  0  0  0  0  0  0
  -30.9087  -13.5265  148.4689 C   0  0  0  0  0  0  0  0  0  0  0  0
  -27.9061  -10.5321  141.3867 C   0  0  0  0  0  0  0  0  0  0  0  0
  -28.1148  -11.8889  140.9995 C   0  0  0  0  0  0  0  0  0  0  0  0
  -27.3425  -12.4947  139.9803 C   0  0  0  0  0  0  0  0  0  0  0  0
  -26.6482  -11.6213  139.0486 C   0  0  0  0  0  0  0  0  0  0  0  0
  -26.3261  -10.4263  139.4992 N   0  0  0  0  0  0  0  0  0  0  0  0
  -27.2349   -9.7645  140.4424 C   0  0  0  0  0  0  0  0  0  0  0  0
  -24.6426  -18.1108  148.8438 O   0  0  0  0  0  0  0  0  0  0  0  0
  -25.4859  -17.6504  149.7900 C   0  0  0  0  0  0  0  0  0  0  0  0
  3  4  1  0
  7  8  1  0
 10 11  1  0
 13 16  1  0
 16 17  1  0
 17 18  2  3
 16 19  1  0
 19 20  1  0
 18 27  1  0
 26 28  1  0
  8 34  1  0
 34 35  1  0
 10  5  1  0
 20 21  1  0
 28 29  2  0
 29 30  1  0
 30 31  2  0
 31 32  1  0
 32 33  2  0
 33 28  1  0
  4  5  2  0
  5 15  1  0
 15 14  2  0
 14 13  1  0
 13 12  2  0
 12  4  1  0
  1  2  2  0
  2  3  1  0
  3  9  2  0
  9  7  1  0
  7  6  2  0
  6  1  1  0
 21 22  2  0
 22 23  1  0
 23 24  2  0
 24 25  1  0
 25 26  2  0
 26 21  1  0
M  END

$$$$
No_1148-/dssg/home/sw_qyf/PocketFlow/Model-Generation-Results/5HT2A_7WC7_rec_A_10.pdb/2024-01-01-03-54-21/
     RDKit          3D

 35 36  0  0  0  0  0  0  0  0999 V2000
  -23.1746  -16.6014  144.8668 C   0  0  0  0  0  0  0  0  0  0  0  0
  -23.8963  -15.5346  144.7885 C   0  0  0  0  0  0  0  0  0  0  0  0
  -25.0304  -15.2549  144.5358 C   0  0  0  0  0  0  0  0  0  0  0  0
  -25.6045  -13.9524  144.2294 C   0  0  0  0  0  0  0  0  0  0  0  0
  -24.8624  -12.8904  144.6738 C   0  0  0  0  0  0  0  0  0  0  0  0
  -23.5278  -13.1645  145.1476 C   0  0  0  0  0  0  0  0  0  0  0  0
  -23.0148  -14.3796  145.1899 C   0  0  0  0  0  0  0  0  0  0  0  0
  -23.3765  -17.4166  146.1752 C   0  0  0  0  0  0  0  0  0  0  0  0
  -23.4813  -16.6317  147.2733 C   0  0  0  0  0  0  0  0  0  0  0  0
  -23.7137  -17.3916  148.5732 C   0  0  0  0  0  0  0  0  0  0  0  0
  -23.5726  -16.6377  149.7777 C   0  0  0  0  0  0  0  0  0  0  0  0
  -27.2386  -13.7232  143.7715 Cl  0  0  0  0  0  0  0  0  0  0  0  0
  -23.3591  -18.8247  146.2034 C   0  0  0  0  0  0  0  0  0  0  0  0
  -23.8835  -19.4998  147.0844 O   0  0  0  0  0  0  0  0  0  0  0  0
  -23.3312  -19.4614  145.0280 O   0  0  0  0  0  0  0  0  0  0  0  0
  -22.7311  -11.8940  145.4362 C   0  0  0  0  0  0  0  0  0  0  0  0
  -23.1207  -17.3789  150.9598 C   0  0  0  0  0  0  0  0  0  0  0  0
  -21.7304  -11.5517  144.7193 N   0  0  0  0  0  0  0  0  0  0  0  0
  -22.8681  -16.6325  151.9320 C   0  0  0  0  0  0  0  0  0  0  0  0
  -21.7292  -15.9270  152.0926 N   0  0  0  0  0  0  0  0  0  0  0  0
  -20.4558  -16.5012  151.5684 C   0  0  0  0  0  0  0  0  0  0  0  0
  -25.3857  -11.6574  144.5652 O   0  0  0  0  0  0  0  0  0  0  0  0
  -26.3746  -11.3114  145.4312 C   0  0  0  0  0  0  0  0  0  0  0  0
  -27.2164  -10.2815  145.0335 C   0  0  0  0  0  0  0  0  0  0  0  0
  -28.1076  -10.5382  144.0450 C   0  0  0  0  0  0  0  0  0  0  0  0
  -29.0350  -11.3910  144.2578 C   0  0  0  0  0  0  0  0  0  0  0  0
  -28.2695   -9.6250  142.9105 C   0  0  0  0  0  0  0  0  0  0  0  0
  -28.9438  -10.0486  141.7663 C   0  0  0  0  0  0  0  0  0  0  0  0
  -29.3350   -9.5021  140.9244 C   0  0  0  0  0  0  0  0  0  0  0  0
  -29.7537   -8.0479  141.1171 C   0  0  0  0  0  0  0  0  0  0  0  0
  -29.5199   -7.4049  142.3197 C   0  0  0  0  0  0  0  0  0  0  0  0
  -28.7060   -8.2141  143.3335 C   0  0  0  0  0  0  0  0  0  0  0  0
  -30.2500   -7.3537  140.1674 F   0  0  0  0  0  0  0  0  0  0  0  0
  -29.0475  -11.8438  145.7267 C   0  0  0  0  0  0  0  0  0  0  0  0
  -28.1771  -12.4964  146.4947 C   0  0  0  0  0  0  0  0  0  0  0  0
  1  2  1  0
  1  8  1  0
  8  9  2  3
  9 10  1  0
 10 11  1  0
  4 12  1  0
  8 13  1  0
 13 14  1  0
 13 15  2  0
  6 16  1  0
 11 17  2  3
 16 18  1  0
 17 19  1  0
 19 20  1  0
 20 21  1  0
  5 22  1  0
 22 23  1  0
 23 24  1  0
 24 25  1  0
 25 26  1  0
 25 27  1  0
 30 33  1  0
 26 34  1  0
 34 35  2  0
  2  3  2  0
  3  4  1  0
  4  5  2  0
  5  6  1  0
  6  7  2  0
  7  2  1  0
 27 28  2  0
 28 29  1  0
 29 30  2  0
 30 31  1  0
 31 32  2  0
 32 27  1  0
M  END

$$$$
No_1149-/dssg/home/sw_qyf/PocketFlow/Model-Generation-Results/5HT2A_7WC7_rec_A_10.pdb/2024-01-01-03-54-21/
     RDKit          3D

 27 29  0  0  0  0  0  0  0  0999 V2000
  -23.1746  -16.6014  144.8668 C   0  0  0  0  0  0  0  0  0  0  0  0
  -23.7011  -17.0158  145.9774 C   0  0  0  0  0  0  0  0  0  0  0  0
  -24.2134  -16.0722  146.8877 C   0  0  0  0  0  0  0  0  0  0  0  0
  -25.2064  -15.3422  146.4171 C   0  0  0  0  0  0  0  0  0  0  0  0
  -24.7890  -14.4834  145.3416 C   0  0  0  0  0  0  0  0  0  0  0  0
  -23.8927  -15.2280  144.3874 C   0  0  0  0  0  0  0  0  0  0  0  0
  -24.0915  -13.2356  145.9089 C   0  0  0  0  0  0  0  0  0  0  0  0
  -23.6027  -12.3353  144.9788 C   0  0  0  0  0  0  0  0  0  0  0  0
  -25.9837  -13.9031  144.5602 C   0  0  0  0  0  0  0  0  0  0  0  0
  -26.8934  -13.1743  145.1319 C   0  0  0  0  0  0  0  0  0  0  0  0
  -27.5148  -13.7236  146.2983 C   0  0  0  0  0  0  0  0  0  0  0  0
  -27.3045  -14.8512  146.8146 C   0  0  0  0  0  0  0  0  0  0  0  0
  -26.3762  -15.3826  147.1473 C   0  0  0  0  0  0  0  0  0  0  0  0
  -27.4670  -12.0038  144.4596 C   0  0  0  0  0  0  0  0  0  0  0  0
  -28.4140  -11.1938  145.0102 C   0  0  0  0  0  0  0  0  0  0  0  0
  -28.6941   -9.9460  144.3954 C   0  0  0  0  0  0  0  0  0  0  0  0
  -28.9176   -9.8616  143.0067 C   0  0  0  0  0  0  0  0  0  0  0  0
  -28.0961  -10.8484  142.2974 C   0  0  0  0  0  0  0  0  0  0  0  0
  -27.5033  -11.9904  142.9911 C   0  0  0  0  0  0  0  0  0  0  0  0
  -29.4440   -8.7939  142.3538 C   0  0  0  0  0  0  0  0  0  0  0  0
  -30.6314   -8.1438  142.7526 C   0  0  0  0  0  0  0  0  0  0  0  0
  -28.9707   -8.3637  141.0525 C   0  0  0  0  0  0  0  0  0  0  0  0
  -29.5475   -7.2792  140.3961 C   0  0  0  0  0  0  0  0  0  0  0  0
  -31.6246   -8.6869  142.9806 C   0  0  0  0  0  0  0  0  0  0  0  0
  -30.5274   -6.7004  143.1300 C   0  0  0  0  0  0  0  0  0  0  0  0
  -23.5095  -18.4087  146.3656 C   0  0  0  0  0  0  0  0  0  0  0  0
  -23.4319  -19.3357  145.7023 O   0  0  0  0  0  0  0  0  0  0  0  0
  1  2  1  0
  2  3  1  0
  3  4  1  0
  4  5  1  0
  1  6  1  0
  5  6  1  0
  5  7  1  0
  7  8  1  0
  5  9  1  0
  9 10  1  0
 10 11  2  0
 11 12  1  0
  4 13  1  0
 12 13  1  0
 10 14  1  0
 17 20  1  0
 20 21  1  0
 20 22  1  0
 22 23  2  0
 21 24  1  0
 21 25  1  0
  2 26  1  0
 26 27  2  0
 14 15  2  0
 15 16  1  0
 16 17  2  0
 17 18  1  0
 18 19  2  0
 19 14  1  0
M  END

$$$$
No_1150-/dssg/home/sw_qyf/PocketFlow/Model-Generation-Results/5HT2A_7WC7_rec_A_10.pdb/2024-01-01-03-54-21/
     RDKit          3D

 17 17  0  0  0  0  0  0  0  0999 V2000
  -24.1553  -17.8465  145.7021 C   0  0  0  0  0  0  0  0  0  0  0  0
  -24.6364  -17.2931  146.7091 C   0  0  0  0  0  0  0  0  0  0  0  0
  -25.8608  -16.5592  146.5934 C   0  0  0  0  0  0  0  0  0  0  0  0
  -25.9088  -15.1597  146.9911 C   0  0  0  0  0  0  0  0  0  0  0  0
  -24.6057  -14.5448  146.9210 C   0  0  0  0  0  0  0  0  0  0  0  0
  -24.4123  -13.6315  145.8036 C   0  0  0  0  0  0  0  0  0  0  0  0
  -23.2586  -13.5987  145.0920 C   0  0  0  0  0  0  0  0  0  0  0  0
  -25.4791  -12.7118  145.5281 C   0  0  0  0  0  0  0  0  0  0  0  0
  -26.3720  -12.8211  144.9439 C   0  0  0  0  0  0  0  0  0  0  0  0
  -27.3932  -11.8332  144.6329 C   0  0  0  0  0  0  0  0  0  0  0  0
  -28.7561  -12.0409  144.4862 C   0  0  0  0  0  0  0  0  0  0  0  0
  -24.6513  -17.4701  144.5570 C   0  0  0  0  0  0  0  0  0  0  0  0
  -24.9811  -16.0209  144.6946 C   0  0  0  0  0  0  0  0  0  0  0  0
  -26.2560  -15.7502  145.1784 C   0  0  0  0  0  0  0  0  0  0  0  0
  -29.1721  -12.8568  145.4072 C   0  0  0  0  0  0  0  0  0  0  0  0
  -28.3955  -13.7938  146.1313 C   0  0  0  0  0  0  0  0  0  0  0  0
  -29.0758  -14.6874  147.0955 C   0  0  0  0  0  0  0  0  0  0  0  0
  1  2  1  0
  2  3  1  0
  3  4  1  0
  4  5  1  0
  5  6  1  0
  6  7  2  0
  6  8  1  0
  8  9  2  3
  9 10  1  0
 10 11  2  3
  1 12  1  0
 12 13  1  0
  3 14  1  0
 13 14  1  0
 11 15  1  0
 15 16  2  3
 16 17  1  0
M  END

$$$$
No_1151-/dssg/home/sw_qyf/PocketFlow/Model-Generation-Results/5HT2A_7WC7_rec_A_10.pdb/2024-01-01-03-54-21/
     RDKit          3D

 34 37  0  0  0  0  0  0  0  0999 V2000
  -24.1553  -17.8465  145.7021 C   0  0  0  0  0  0  0  0  0  0  0  0
  -24.2856  -16.6364  145.3494 C   0  0  0  0  0  0  0  0  0  0  0  0
  -24.7837  -15.7223  145.8474 C   0  0  0  0  0  0  0  0  0  0  0  0
  -24.8736  -14.2869  145.3929 C   0  0  0  0  0  0  0  0  0  0  0  0
  -25.5953  -13.2445  145.9611 C   0  0  0  0  0  0  0  0  0  0  0  0
  -25.3343  -11.9118  145.7311 C   0  0  0  0  0  0  0  0  0  0  0  0
  -24.8346  -18.2370  146.8727 C   0  0  0  0  0  0  0  0  0  0  0  0
  -25.5149  -17.2923  147.5834 C   0  0  0  0  0  0  0  0  0  0  0  0
  -25.5563  -15.9715  147.1028 C   0  0  0  0  0  0  0  0  0  0  0  0
  -24.0877  -13.8815  144.2531 C   0  0  0  0  0  0  0  0  0  0  0  0
  -26.4310  -10.9562  145.8357 C   0  0  0  0  0  0  0  0  0  0  0  0
  -26.5755   -9.9965  144.7630 C   0  0  0  0  0  0  0  0  0  0  0  0
  -22.9169  -13.3530  144.4941 O   0  0  0  0  0  0  0  0  0  0  0  0
  -27.9960   -9.6568  144.5350 C   0  0  0  0  0  0  0  0  0  0  0  0
  -28.4020   -8.9641  143.4264 C   0  0  0  0  0  0  0  0  0  0  0  0
  -29.1915   -7.8914  143.4764 C   0  0  0  0  0  0  0  0  0  0  0  0
  -29.2126   -6.8432  142.5288 C   0  0  0  0  0  0  0  0  0  0  0  0
  -29.3403   -7.1458  141.1505 C   0  0  0  0  0  0  0  0  0  0  0  0
  -28.9087   -8.4950  140.8185 C   0  0  0  0  0  0  0  0  0  0  0  0
  -28.4166   -9.3503  141.9609 C   0  0  0  0  0  0  0  0  0  0  0  0
  -28.7915   -8.8729  139.4764 C   0  0  0  0  0  0  0  0  0  0  0  0
  -27.9022   -9.9167  139.1305 C   0  0  0  0  0  0  0  0  0  0  0  0
  -26.7858  -10.1935  140.0160 C   0  0  0  0  0  0  0  0  0  0  0  0
  -27.3321  -10.3383  141.5181 C   0  0  0  0  0  0  0  0  0  0  0  0
  -28.7774   -7.8898  138.5325 C   0  0  0  0  0  0  0  0  0  0  0  0
  -28.9449  -10.5824  145.0931 C   0  0  0  0  0  0  0  0  0  0  0  0
  -28.7807  -11.4987  146.1045 C   0  0  0  0  0  0  0  0  0  0  0  0
  -27.4095  -11.8007  146.4601 C   0  0  0  0  0  0  0  0  0  0  0  0
  -29.8942  -12.1513  146.7632 C   0  0  0  0  0  0  0  0  0  0  0  0
  -30.1148  -11.6540  148.2070 C   0  0  0  0  0  0  0  0  0  0  0  0
  -31.0573  -12.6442  148.8177 C   0  0  0  0  0  0  0  0  0  0  0  0
  -30.7604  -13.9136  148.5705 O   0  0  0  0  0  0  0  0  0  0  0  0
  -32.1225  -12.3308  149.6646 C   0  0  0  0  0  0  0  0  0  0  0  0
  -33.0372  -11.4554  149.3394 C   0  0  0  0  0  0  0  0  0  0  0  0
  3  4  1  0
  4  5  1  0
  5  6  2  3
  4 10  1  0
  6 11  1  0
 10 13  1  0
 21 25  1  0
 27 29  1  0
 29 30  1  0
 30 31  1  0
 31 32  1  0
 31 33  1  0
 33 34  1  0
 14 15  1  0
 15 16  2  0
 16 17  1  0
 17 18  2  0
 18 19  1  0
 20 15  1  0
 19 20  2  0
 20 24  1  0
 24 23  2  0
 23 22  1  0
 22 21  2  0
 21 19  1  0
  1  2  2  0
  2  3  1  0
  3  9  2  0
  9  8  1  0
  8  7  2  0
  7  1  1  0
 11 12  2  0
 12 14  1  0
 14 26  2  0
 26 27  1  0
 27 28  2  0
 28 11  1  0
M  END

$$$$
No_1152-/dssg/home/sw_qyf/PocketFlow/Model-Generation-Results/5HT2A_7WC7_rec_A_10.pdb/2024-01-01-03-54-21/
     RDKit          3D

 16 17  0  0  0  0  0  0  0  0999 V2000
  -24.1553  -17.8465  145.7021 C   0  0  0  0  0  0  0  0  0  0  0  0
  -24.2856  -16.6364  145.3494 C   0  0  0  0  0  0  0  0  0  0  0  0
  -24.7211  -15.5955  146.2115 C   0  0  0  0  0  0  0  0  0  0  0  0
  -25.1322  -16.0374  147.5372 C   0  0  0  0  0  0  0  0  0  0  0  0
  -24.5163  -18.2968  146.9928 C   0  0  0  0  0  0  0  0  0  0  0  0
  -24.9534  -17.3074  147.9886 C   0  0  0  0  0  0  0  0  0  0  0  0
  -24.8651  -14.1840  145.8143 C   0  0  0  0  0  0  0  0  0  0  0  0
  -25.4675  -13.2486  146.5302 C   0  0  0  0  0  0  0  0  0  0  0  0
  -25.4389  -11.9163  146.1893 C   0  0  0  0  0  0  0  0  0  0  0  0
  -24.1918  -13.7908  144.6297 C   0  0  0  0  0  0  0  0  0  0  0  0
  -24.0792  -12.3544  144.3259 C   0  0  0  0  0  0  0  0  0  0  0  0
  -24.7105  -11.4337  145.1511 C   0  0  0  0  0  0  0  0  0  0  0  0
  -23.5264  -14.5180  143.8621 O   0  0  0  0  0  0  0  0  0  0  0  0
  -25.2593  -17.6935  149.3939 C   0  0  0  0  0  0  0  0  0  0  0  0
  -26.3701  -17.4211  150.0081 C   0  0  0  0  0  0  0  0  0  0  0  0
  -26.5782  -17.9405  151.3891 C   0  0  0  0  0  0  0  0  0  0  0  0
  3  7  1  0
 10 13  1  0
  6 14  1  0
 14 15  2  3
 15 16  1  0
  1  2  2  0
  2  3  1  0
  3  4  2  0
  4  6  1  0
  6  5  2  0
  5  1  1  0
  7  8  2  0
  8  9  1  0
  9 12  2  0
 12 11  1  0
 11 10  2  0
 10  7  1  0
M  END

$$$$
No_1153-/dssg/home/sw_qyf/PocketFlow/Model-Generation-Results/5HT2A_7WC7_rec_A_10.pdb/2024-01-01-03-54-21/
     RDKit          3D

 23 25  0  0  0  0  0  0  0  0999 V2000
  -24.1553  -17.8465  145.7021 C   0  0  0  0  0  0  0  0  0  0  0  0
  -23.9795  -18.4462  146.7426 C   0  0  0  0  0  0  0  0  0  0  0  0
  -25.1593  -16.8262  145.6925 C   0  0  0  0  0  0  0  0  0  0  0  0
  -26.3426  -16.9003  146.3448 C   0  0  0  0  0  0  0  0  0  0  0  0
  -24.9078  -18.3640  147.8289 C   0  0  0  0  0  0  0  0  0  0  0  0
  -26.0312  -17.5122  147.7122 C   0  0  0  0  0  0  0  0  0  0  0  0
  -27.4996  -16.1150  146.1993 C   0  0  0  0  0  0  0  0  0  0  0  0
  -27.2984  -14.8027  146.7383 C   0  0  0  0  0  0  0  0  0  0  0  0
  -26.0971  -14.1165  146.6405 C   0  0  0  0  0  0  0  0  0  0  0  0
  -25.9734  -12.7063  146.4378 C   0  0  0  0  0  0  0  0  0  0  0  0
  -24.7417  -12.0892  146.0293 C   0  0  0  0  0  0  0  0  0  0  0  0
  -23.5699  -12.9082  145.9570 C   0  0  0  0  0  0  0  0  0  0  0  0
  -23.7864  -14.3259  146.0434 C   0  0  0  0  0  0  0  0  0  0  0  0
  -24.9145  -14.8650  146.3795 C   0  0  0  0  0  0  0  0  0  0  0  0
  -24.9176  -16.0787  145.7649 C   0  0  0  0  0  0  0  0  0  0  0  0
  -23.6939  -15.6743  145.3194 F   0  0  0  0  0  0  0  0  0  0  0  0
  -22.7106  -14.7333  146.7469 O   0  0  0  0  0  0  0  0  0  0  0  0
  -28.4483  -14.0621  147.3272 C   0  0  0  0  0  0  0  0  0  0  0  0
  -28.7614  -12.8178  146.9303 C   0  0  0  0  0  0  0  0  0  0  0  0
  -30.0388  -12.2466  147.3080 C   0  0  0  0  0  0  0  0  0  0  0  0
  -30.3086  -10.9544  146.8997 N   0  0  0  0  0  0  0  0  0  0  0  0
  -30.7848  -12.7676  148.1105 O   0  0  0  0  0  0  0  0  0  0  0  0
  -23.4592  -18.0413  144.6954 O   0  0  0  0  0  0  0  0  0  0  0  0
  1  2  1  0
  1  3  1  0
  2  5  1  0
  4  6  1  0
  5  6  1  0
  4  7  1  0
  7  8  1  0
  8  9  1  0
  3 15  1  0
 14 15  1  0
 15 16  1  0
 13 17  1  0
  8 18  1  0
 18 19  2  3
 19 20  1  0
 20 21  1  0
 20 22  2  0
  1 23  2  0
  4  3  1  0
  9 10  2  0
 10 11  1  0
 11 12  2  0
 12 13  1  0
 13 14  2  0
 14  9  1  0
M  END

$$$$
No_1154-/dssg/home/sw_qyf/PocketFlow/Model-Generation-Results/5HT2A_7WC7_rec_A_10.pdb/2024-01-01-03-54-21/
     RDKit          3D

 29 30  0  0  0  0  0  0  0  0999 V2000
  -23.1746  -16.6014  144.8668 C   0  0  0  0  0  0  0  0  0  0  0  0
  -23.7011  -17.0158  145.9774 C   0  0  0  0  0  0  0  0  0  0  0  0
  -24.2134  -16.0722  146.8877 C   0  0  0  0  0  0  0  0  0  0  0  0
  -24.7882  -16.3410  148.2078 C   0  0  0  0  0  0  0  0  0  0  0  0
  -23.4231  -15.2781  144.3679 C   0  0  0  0  0  0  0  0  0  0  0  0
  -24.0726  -14.2968  145.2170 C   0  0  0  0  0  0  0  0  0  0  0  0
  -24.4910  -14.7123  146.5041 C   0  0  0  0  0  0  0  0  0  0  0  0
  -24.0851  -17.1531  149.1341 C   0  0  0  0  0  0  0  0  0  0  0  0
  -24.6108  -17.4339  150.4269 C   0  0  0  0  0  0  0  0  0  0  0  0
  -24.1990  -12.9095  144.8055 C   0  0  0  0  0  0  0  0  0  0  0  0
  -23.1947  -12.0781  145.4684 C   0  0  0  0  0  0  0  0  0  0  0  0
  -25.5674  -12.3963  145.1548 C   0  0  0  0  0  0  0  0  0  0  0  0
  -26.3983  -12.3331  144.1440 C   0  0  0  0  0  0  0  0  0  0  0  0
  -27.1680  -11.2194  143.8411 C   0  0  0  0  0  0  0  0  0  0  0  0
  -28.5824  -11.1746  144.1067 C   0  0  0  0  0  0  0  0  0  0  0  0
  -29.1082  -10.1123  144.4331 C   0  0  0  0  0  0  0  0  0  0  0  0
  -30.1286   -9.5929  143.7599 C   0  0  0  0  0  0  0  0  0  0  0  0
  -29.9617   -8.6402  142.8910 N   0  0  0  0  0  0  0  0  0  0  0  0
  -30.7361   -8.2459  141.7758 C   0  0  0  0  0  0  0  0  0  0  0  0
  -30.1112   -7.4267  140.8412 C   0  0  0  0  0  0  0  0  0  0  0  0
  -29.1417   -8.2165  140.1332 C   0  0  0  0  0  0  0  0  0  0  0  0
  -28.4503   -9.2229  140.7309 C   0  0  0  0  0  0  0  0  0  0  0  0
  -28.7617   -7.9078  138.8078 C   0  0  0  0  0  0  0  0  0  0  0  0
  -28.0206   -8.8186  138.0993 C   0  0  0  0  0  0  0  0  0  0  0  0
  -27.5377  -10.0435  140.0413 C   0  0  0  0  0  0  0  0  0  0  0  0
  -27.3390   -9.8187  138.7415 C   0  0  0  0  0  0  0  0  0  0  0  0
  -23.4812  -18.3122  146.4818 N   0  0  0  0  0  0  0  0  0  0  0  0
  -26.0441  -17.6943  150.4639 C   0  0  0  0  0  0  0  0  0  0  0  0
  -26.8308  -17.0350  149.4782 C   0  0  0  0  0  0  0  0  0  0  0  0
  4  8  1  0
  8  9  2  3
  6 10  1  0
 10 11  1  0
 10 12  1  0
 12 13  1  0
 13 14  1  0
 14 15  1  0
 15 16  2  3
 16 17  1  0
 17 18  1  0
 18 19  1  0
 19 20  1  0
 20 21  1  0
  2 27  1  0
  9 28  1  0
 28 29  2  0
  4  3  1  0
  1  2  2  0
  2  3  1  0
  3  7  2  0
  7  6  1  0
  6  5  2  0
  5  1  1  0
 21 22  2  0
 22 25  1  0
 25 26  2  0
 26 24  1  0
 24 23  2  0
 23 21  1  0
M  END

$$$$
No_1155-/dssg/home/sw_qyf/PocketFlow/Model-Generation-Results/5HT2A_7WC7_rec_A_10.pdb/2024-01-01-03-54-21/
     RDKit          3D

 35 38  0  0  0  0  0  0  0  0999 V2000
  -23.1746  -16.6014  144.8668 C   0  0  0  0  0  0  0  0  0  0  0  0
  -24.0189  -16.0564  145.8445 C   0  0  0  0  0  0  0  0  0  0  0  0
  -24.4850  -14.7380  145.6359 C   0  0  0  0  0  0  0  0  0  0  0  0
  -24.0208  -14.0081  144.6269 C   0  0  0  0  0  0  0  0  0  0  0  0
  -24.6332  -12.7598  144.3257 C   0  0  0  0  0  0  0  0  0  0  0  0
  -24.4333  -11.9691  145.5736 C   0  0  0  0  0  0  0  0  0  0  0  0
  -24.4633  -16.9282  146.9174 C   0  0  0  0  0  0  0  0  0  0  0  0
  -25.2328  -16.2800  147.8704 C   0  0  0  0  0  0  0  0  0  0  0  0
  -26.4976  -16.3144  147.6298 C   0  0  0  0  0  0  0  0  0  0  0  0
  -27.3290  -17.3002  148.0133 C   0  0  0  0  0  0  0  0  0  0  0  0
  -28.7689  -17.0751  147.6924 C   0  0  0  0  0  0  0  0  0  0  0  0
  -25.3042  -12.5119  146.7242 C   0  0  0  0  0  0  0  0  0  0  0  0
  -24.7463  -13.9299  146.9677 C   0  0  0  0  0  0  0  0  0  0  0  0
  -23.9835  -18.2210  147.0346 C   0  0  0  0  0  0  0  0  0  0  0  0
  -23.1711  -18.7038  147.8083 N   0  0  0  0  0  0  0  0  0  0  0  0
  -24.7330  -19.1423  146.4193 O   0  0  0  0  0  0  0  0  0  0  0  0
  -29.0411  -15.5749  147.5988 C   0  0  0  0  0  0  0  0  0  0  0  0
  -30.2524  -14.9726  147.9728 C   0  0  0  0  0  0  0  0  0  0  0  0
  -30.2562  -13.5238  147.7543 C   0  0  0  0  0  0  0  0  0  0  0  0
  -29.1552  -12.8834  147.0444 C   0  0  0  0  0  0  0  0  0  0  0  0
  -28.1371  -13.6038  146.5110 C   0  0  0  0  0  0  0  0  0  0  0  0
  -28.0006  -14.9505  146.8385 C   0  0  0  0  0  0  0  0  0  0  0  0
  -26.9298  -15.1864  147.1169 N   0  0  0  0  0  0  0  0  0  0  0  0
  -29.4025  -11.4153  146.6557 C   0  0  0  0  0  0  0  0  0  0  0  0
  -29.0692  -10.9728  145.3512 C   0  0  0  0  0  0  0  0  0  0  0  0
  -29.5400  -10.7238  144.4431 C   0  0  0  0  0  0  0  0  0  0  0  0
  -28.9581  -10.1659  143.2276 C   0  0  0  0  0  0  0  0  0  0  0  0
  -29.6005   -9.5073  142.1875 C   0  0  0  0  0  0  0  0  0  0  0  0
  -28.9199   -9.1771  141.0196 C   0  0  0  0  0  0  0  0  0  0  0  0
  -29.3359   -8.0125  140.2618 C   0  0  0  0  0  0  0  0  0  0  0  0
  -30.1297   -7.1230  140.9149 C   0  0  0  0  0  0  0  0  0  0  0  0
  -30.8269   -7.4980  142.1331 C   0  0  0  0  0  0  0  0  0  0  0  0
  -30.4083   -8.5914  142.8585 C   0  0  0  0  0  0  0  0  0  0  0  0
  -27.9074  -10.0687  140.4623 C   0  0  0  0  0  0  0  0  0  0  0  0
  -28.0377  -11.4510  140.5757 C   0  0  0  0  0  0  0  0  0  0  0  0
  1  2  1  0
  2  3  1  0
  3  4  1  0
  4  5  1  0
  5  6  1  0
  2  7  1  0
  7  8  1  0
  8  9  1  0
  6 12  1  0
  3 13  1  0
 12 13  1  0
  7 14  1  0
 14 15  1  0
 14 16  2  0
 20 24  1  0
 24 25  1  0
 25 26  2  3
 26 27  1  0
 27 28  1  0
 29 34  1  0
 34 35  1  0
 17 18  1  0
 18 19  2  0
 19 20  1  0
 20 21  2  0
 21 22  1  0
  9 10  2  0
 10 11  1  0
 11 17  2  0
 17 22  1  0
 22 23  2  0
 23  9  1  0
 28 29  2  0
 29 30  1  0
 30 31  2  0
 31 32  1  0
 32 33  2  0
 33 28  1  0
M  END

$$$$
No_1156-/dssg/home/sw_qyf/PocketFlow/Model-Generation-Results/5HT2A_7WC7_rec_A_10.pdb/2024-01-01-03-54-21/
     RDKit          3D

 15 16  0  0  0  0  0  0  0  0999 V2000
  -24.1553  -17.8465  145.7021 C   0  0  0  0  0  0  0  0  0  0  0  0
  -24.2856  -16.6364  145.3494 C   0  0  0  0  0  0  0  0  0  0  0  0
  -24.7211  -15.5955  146.2115 C   0  0  0  0  0  0  0  0  0  0  0  0
  -24.8538  -14.2010  145.8739 C   0  0  0  0  0  0  0  0  0  0  0  0
  -24.1440  -13.8321  144.7074 C   0  0  0  0  0  0  0  0  0  0  0  0
  -23.4275  -14.8130  143.9942 C   0  0  0  0  0  0  0  0  0  0  0  0
  -23.5366  -16.0900  144.3641 N   0  0  0  0  0  0  0  0  0  0  0  0
  -23.4872  -18.3821  146.7583 C   0  0  0  0  0  0  0  0  0  0  0  0
  -22.9424  -17.3491  147.6901 C   0  0  0  0  0  0  0  0  0  0  0  0
  -23.8895  -16.1088  147.7801 C   0  0  0  0  0  0  0  0  0  0  0  0
  -23.2198  -12.7299  145.1235 O   0  0  0  0  0  0  0  0  0  0  0  0
  -26.1931  -14.0977  145.9273 F   0  0  0  0  0  0  0  0  0  0  0  0
  -24.5533  -13.3314  147.2169 C   0  0  0  0  0  0  0  0  0  0  0  0
  -22.7231  -11.8358  144.1158 C   0  0  0  0  0  0  0  0  0  0  0  0
  -24.2229  -11.8623  146.8382 C   0  0  0  0  0  0  0  0  0  0  0  0
  3  4  1  0
  4  5  1  0
  5  6  1  0
  2  7  1  0
  6  7  1  0
  5 11  1  0
  4 12  1  0
  4 13  1  0
 11 14  1  0
 13 15  1  0
  1  2  2  0
  2  3  1  0
  3 10  2  0
 10  9  1  0
  9  8  2  0
  8  1  1  0
M  END

$$$$
No_1157-/dssg/home/sw_qyf/PocketFlow/Model-Generation-Results/5HT2A_7WC7_rec_A_10.pdb/2024-01-01-03-54-21/
     RDKit          3D

  7  7  0  0  0  0  0  0  0  0999 V2000
  -23.1746  -16.6014  144.8668 C   0  0  0  0  0  0  0  0  0  0  0  0
  -23.7011  -17.0158  145.9774 C   0  0  0  0  0  0  0  0  0  0  0  0
  -23.7336  -18.2775  146.3737 C   0  0  0  0  0  0  0  0  0  0  0  0
  -23.2770  -15.1496  144.5841 C   0  0  0  0  0  0  0  0  0  0  0  0
  -24.0862  -14.2431  145.3742 C   0  0  0  0  0  0  0  0  0  0  0  0
  -24.6693  -14.7616  146.5613 C   0  0  0  0  0  0  0  0  0  0  0  0
  -24.4785  -16.1225  146.8850 C   0  0  0  0  0  0  0  0  0  0  0  0
  2  3  1  0
  1  2  2  0
  2  7  1  0
  7  6  2  0
  6  5  1  0
  5  4  2  0
  4  1  1  0
M  END

$$$$
No_1158-/dssg/home/sw_qyf/PocketFlow/Model-Generation-Results/5HT2A_7WC7_rec_A_10.pdb/2024-01-01-03-54-21/
     RDKit          3D

  6  6  0  0  0  0  0  0  0  0999 V2000
  -23.1746  -16.6014  144.8668 C   0  0  0  0  0  0  0  0  0  0  0  0
  -23.7011  -17.0158  145.9774 C   0  0  0  0  0  0  0  0  0  0  0  0
  -24.7096  -16.6222  146.3577 C   0  0  0  0  0  0  0  0  0  0  0  0
  -25.4819  -15.5594  145.8226 C   0  0  0  0  0  0  0  0  0  0  0  0
  -24.9841  -15.0030  144.6879 C   0  0  0  0  0  0  0  0  0  0  0  0
  -23.7823  -15.5257  144.1978 C   0  0  0  0  0  0  0  0  0  0  0  0
  1  2  2  0
  2  3  1  0
  3  4  2  0
  4  5  1  0
  5  6  2  0
  6  1  1  0
M  END

$$$$
No_1159-/dssg/home/sw_qyf/PocketFlow/Model-Generation-Results/5HT2A_7WC7_rec_A_10.pdb/2024-01-01-03-54-21/
     RDKit          3D

 23 24  0  0  0  0  0  0  0  0999 V2000
  -23.1746  -16.6014  144.8668 C   0  0  0  0  0  0  0  0  0  0  0  0
  -23.7011  -17.0158  145.9774 C   0  0  0  0  0  0  0  0  0  0  0  0
  -24.2134  -16.0722  146.8877 C   0  0  0  0  0  0  0  0  0  0  0  0
  -23.3742  -15.2706  144.3922 C   0  0  0  0  0  0  0  0  0  0  0  0
  -24.0638  -14.3065  145.2723 C   0  0  0  0  0  0  0  0  0  0  0  0
  -24.4769  -14.7246  146.5384 C   0  0  0  0  0  0  0  0  0  0  0  0
  -24.2073  -12.8864  144.8851 C   0  0  0  0  0  0  0  0  0  0  0  0
  -24.3419  -11.9652  145.9961 C   0  0  0  0  0  0  0  0  0  0  0  0
  -23.5090  -18.6563  146.4966 Cl  0  0  0  0  0  0  0  0  0  0  0  0
  -25.3499  -11.1082  145.8483 C   0  0  0  0  0  0  0  0  0  0  0  0
  -25.9807  -10.8952  144.6428 C   0  0  0  0  0  0  0  0  0  0  0  0
  -27.4492  -10.8007  144.6030 C   0  0  0  0  0  0  0  0  0  0  0  0
  -28.0979   -9.9459  143.6785 C   0  0  0  0  0  0  0  0  0  0  0  0
  -29.4401   -9.7439  143.6793 C   0  0  0  0  0  0  0  0  0  0  0  0
  -30.1541  -10.2760  144.8348 C   0  0  0  0  0  0  0  0  0  0  0  0
  -29.5951  -11.0343  145.8277 C   0  0  0  0  0  0  0  0  0  0  0  0
  -28.1584  -11.2402  145.7608 C   0  0  0  0  0  0  0  0  0  0  0  0
  -30.1756   -9.0067  142.7323 C   0  0  0  0  0  0  0  0  0  0  0  0
  -31.4910   -8.7207  142.8638 C   0  0  0  0  0  0  0  0  0  0  0  0
  -29.3473   -7.9175  142.0561 C   0  0  0  0  0  0  0  0  0  0  0  0
  -29.3751   -7.6089  140.6798 C   0  0  0  0  0  0  0  0  0  0  0  0
  -28.9024   -8.4876  139.7661 C   0  0  0  0  0  0  0  0  0  0  0  0
  -28.8369   -8.1082  138.3723 C   0  0  0  0  0  0  0  0  0  0  0  0
  5  7  1  0
  7  8  1  0
  2  9  1  0
  8 10  1  0
 10 11  1  0
 11 12  1  0
 14 18  1  0
 18 19  2  0
 18 20  1  0
 20 21  1  0
 21 22  2  3
 22 23  1  0
 12 13  2  0
 13 14  1  0
 14 15  2  0
 15 16  1  0
 16 17  2  0
 17 12  1  0
  1  2  2  0
  2  3  1  0
  3  6  2  0
  6  5  1  0
  5  4  2  0
  4  1  1  0
M  END

$$$$
No_1160-/dssg/home/sw_qyf/PocketFlow/Model-Generation-Results/5HT2A_7WC7_rec_A_10.pdb/2024-01-01-03-54-21/
     RDKit          3D

 35 37  0  0  0  0  0  0  0  0999 V2000
  -23.1746  -16.6014  144.8668 C   0  0  0  0  0  0  0  0  0  0  0  0
  -23.8963  -15.5346  144.7885 C   0  0  0  0  0  0  0  0  0  0  0  0
  -23.6398  -14.5115  145.3281 C   0  0  0  0  0  0  0  0  0  0  0  0
  -24.3240  -13.3648  145.1280 C   0  0  0  0  0  0  0  0  0  0  0  0
  -23.8303  -12.0965  145.7920 C   0  0  0  0  0  0  0  0  0  0  0  0
  -25.3059  -13.1626  144.3110 O   0  0  0  0  0  0  0  0  0  0  0  0
  -23.6153  -17.8027  145.6028 C   0  0  0  0  0  0  0  0  0  0  0  0
  -23.8792  -18.9059  145.5266 C   0  0  0  0  0  0  0  0  0  0  0  0
  -24.4217  -19.7007  146.6752 C   0  0  0  0  0  0  0  0  0  0  0  0
  -24.7717  -18.8988  147.7519 C   0  0  0  0  0  0  0  0  0  0  0  0
  -24.5553  -17.5545  147.9192 C   0  0  0  0  0  0  0  0  0  0  0  0
  -23.9238  -16.8569  146.8790 C   0  0  0  0  0  0  0  0  0  0  0  0
  -26.5736  -13.3078  144.9046 C   0  0  0  0  0  0  0  0  0  0  0  0
  -26.9823  -14.3821  145.5658 C   0  0  0  0  0  0  0  0  0  0  0  0
  -28.1831  -14.4286  146.3239 C   0  0  0  0  0  0  0  0  0  0  0  0
  -29.0098  -13.3175  146.3397 C   0  0  0  0  0  0  0  0  0  0  0  0
  -28.6134  -12.1469  145.5742 C   0  0  0  0  0  0  0  0  0  0  0  0
  -27.3661  -12.0881  144.8946 C   0  0  0  0  0  0  0  0  0  0  0  0
  -29.4807  -11.0423  145.5940 N   0  0  0  0  0  0  0  0  0  0  0  0
  -29.5881  -10.0798  144.6681 C   0  0  0  0  0  0  0  0  0  0  0  0
  -28.6940   -9.9839  143.7007 C   0  0  0  0  0  0  0  0  0  0  0  0
  -28.9092   -9.0375  142.6695 C   0  0  0  0  0  0  0  0  0  0  0  0
  -30.0843   -8.2235  142.7170 C   0  0  0  0  0  0  0  0  0  0  0  0
  -31.0956   -8.5168  143.6995 C   0  0  0  0  0  0  0  0  0  0  0  0
  -30.8510   -9.4132  144.6339 C   0  0  0  0  0  0  0  0  0  0  0  0
  -30.3677   -7.3205  141.5975 C   0  0  0  0  0  0  0  0  0  0  0  0
  -30.0390   -7.6522  140.2920 C   0  0  0  0  0  0  0  0  0  0  0  0
  -28.7189   -7.5641  139.6956 C   0  0  0  0  0  0  0  0  0  0  0  0
  -28.4690   -8.0836  138.4286 C   0  0  0  0  0  0  0  0  0  0  0  0
  -28.7026   -9.4068  138.2577 C   0  0  0  0  0  0  0  0  0  0  0  0
  -27.8562  -10.0456  138.0867 C   0  0  0  0  0  0  0  0  0  0  0  0
  -27.9809  -11.5240  138.1891 C   0  0  0  0  0  0  0  0  0  0  0  0
  -28.6256  -15.8442  147.1572 Cl  0  0  0  0  0  0  0  0  0  0  0  0
  -28.2249  -12.1658  139.4893 C   0  0  0  0  0  0  0  0  0  0  0  0
  -27.0090  -12.2269  140.3501 C   0  0  0  0  0  0  0  0  0  0  0  0
  1  2  1  0
  2  3  2  3
  3  4  1  0
  4  5  1  0
  4  6  1  0
  6 13  1  0
 17 19  1  0
 19 20  1  0
 23 26  1  0
 26 27  1  0
 27 28  1  0
 28 29  3  0
 29 30  1  0
 30 31  2  3
 31 32  1  0
 15 33  1  0
 32 34  1  0
 34 35  1  0
  1  7  1  0
 20 21  2  0
 21 22  1  0
 22 23  2  0
 23 24  1  0
 24 25  2  0
 25 20  1  0
 13 14  2  0
 14 15  1  0
 15 16  2  0
 16 17  1  0
 17 18  2  0
 18 13  1  0
  7  8  2  0
  8  9  1  0
  9 10  2  0
 10 11  1  0
 11 12  2  0
 12  7  1  0
M  END

$$$$
No_1161-/dssg/home/sw_qyf/PocketFlow/Model-Generation-Results/5HT2A_7WC7_rec_A_10.pdb/2024-01-01-03-54-21/
     RDKit          3D

 26 29  0  0  0  0  0  0  0  0999 V2000
  -23.1746  -16.6014  144.8668 C   0  0  0  0  0  0  0  0  0  0  0  0
  -23.8963  -15.5346  144.7885 C   0  0  0  0  0  0  0  0  0  0  0  0
  -23.4976  -14.2961  145.1226 C   0  0  0  0  0  0  0  0  0  0  0  0
  -24.3175  -13.3088  145.7775 C   0  0  0  0  0  0  0  0  0  0  0  0
  -25.6586  -13.6027  146.0239 C   0  0  0  0  0  0  0  0  0  0  0  0
  -26.5243  -12.6257  146.4590 C   0  0  0  0  0  0  0  0  0  0  0  0
  -27.9081  -12.9068  146.5773 C   0  0  0  0  0  0  0  0  0  0  0  0
  -28.2593  -14.2457  146.7240 C   0  0  0  0  0  0  0  0  0  0  0  0
  -27.3217  -15.2557  146.5233 C   0  0  0  0  0  0  0  0  0  0  0  0
  -26.0050  -14.9318  146.2169 C   0  0  0  0  0  0  0  0  0  0  0  0
  -25.3182  -15.8439  145.4294 C   0  0  0  0  0  0  0  0  0  0  0  0
  -29.6631  -14.5520  147.0977 C   0  0  0  0  0  0  0  0  0  0  0  0
  -30.3001  -13.8814  148.1422 N   0  0  0  0  0  0  0  0  0  0  0  0
  -30.8386  -12.9638  148.4482 C   0  0  0  0  0  0  0  0  0  0  0  0
  -31.4804  -12.7168  149.5978 N   0  0  0  0  0  0  0  0  0  0  0  0
  -30.7314  -11.9029  147.6430 O   0  0  0  0  0  0  0  0  0  0  0  0
  -23.2433  -17.7007  145.5844 N   0  0  0  0  0  0  0  0  0  0  0  0
  -23.2787  -17.4155  146.9497 C   0  0  0  0  0  0  0  0  0  0  0  0
  -22.7427  -17.2779  147.7951 C   0  0  0  0  0  0  0  0  0  0  0  0
  -23.1692  -17.1393  149.2443 C   0  0  0  0  0  0  0  0  0  0  0  0
  -24.5572  -17.1814  149.4410 C   0  0  0  0  0  0  0  0  0  0  0  0
  -25.4191  -17.3552  148.3468 C   0  0  0  0  0  0  0  0  0  0  0  0
  -24.8897  -17.5109  147.1920 C   0  0  0  0  0  0  0  0  0  0  0  0
  -32.3108  -11.6093  149.9544 C   0  0  0  0  0  0  0  0  0  0  0  0
  -32.7840  -11.7127  151.3288 C   0  0  0  0  0  0  0  0  0  0  0  0
  -25.2061  -17.0711  146.1343 O   0  0  0  0  0  0  0  0  0  0  0  0
  1  2  2  0
  2  3  1  0
  3  4  1  0
  4  5  1  0
  2 11  1  0
 10 11  1  0
  8 12  1  0
 12 13  1  0
 13 14  1  0
 14 15  1  0
 14 16  2  0
  1 17  1  0
 17 18  1  0
 15 24  1  0
 24 25  1  0
 11 26  1  0
 23 26  1  0
 18 19  2  0
 19 20  1  0
 20 21  2  0
 21 22  1  0
 22 23  2  0
 23 18  1  0
  5  6  2  0
  6  7  1  0
  7  8  2  0
  8  9  1  0
  9 10  2  0
 10  5  1  0
M  END

$$$$
No_1162-/dssg/home/sw_qyf/PocketFlow/Model-Generation-Results/5HT2A_7WC7_rec_A_10.pdb/2024-01-01-03-54-21/
     RDKit          3D

 12 12  0  0  0  0  0  0  0  0999 V2000
  -24.1553  -17.8465  145.7021 C   0  0  0  0  0  0  0  0  0  0  0  0
  -24.2856  -16.6364  145.3494 C   0  0  0  0  0  0  0  0  0  0  0  0
  -25.0033  -15.6772  146.0737 C   0  0  0  0  0  0  0  0  0  0  0  0
  -25.1197  -14.2835  145.7299 C   0  0  0  0  0  0  0  0  0  0  0  0
  -25.8358  -13.3153  146.4318 C   0  0  0  0  0  0  0  0  0  0  0  0
  -24.7887  -18.3277  146.8665 C   0  0  0  0  0  0  0  0  0  0  0  0
  -25.5121  -17.4898  147.6545 C   0  0  0  0  0  0  0  0  0  0  0  0
  -25.6629  -16.1113  147.2981 C   0  0  0  0  0  0  0  0  0  0  0  0
  -25.7516  -11.9698  146.1143 C   0  0  0  0  0  0  0  0  0  0  0  0
  -26.7570  -11.0424  146.3170 C   0  0  0  0  0  0  0  0  0  0  0  0
  -24.4536  -13.8891  144.5001 C   0  0  0  0  0  0  0  0  0  0  0  0
  -24.8017  -14.0084  143.4198 O   0  0  0  0  0  0  0  0  0  0  0  0
  3  4  1  0
  4  5  1  0
  5  9  2  3
  9 10  1  0
  4 11  1  0
 11 12  2  0
  1  2  2  0
  2  3  1  0
  3  8  2  0
  8  7  1  0
  7  6  2  0
  6  1  1  0
M  END

$$$$
No_1163-/dssg/home/sw_qyf/PocketFlow/Model-Generation-Results/5HT2A_7WC7_rec_A_10.pdb/2024-01-01-03-54-21/
     RDKit          3D

 26 28  0  0  0  0  0  0  0  0999 V2000
  -24.1553  -17.8465  145.7021 C   0  0  0  0  0  0  0  0  0  0  0  0
  -23.9795  -18.4462  146.7426 C   0  0  0  0  0  0  0  0  0  0  0  0
  -25.1196  -16.8106  145.6408 C   0  0  0  0  0  0  0  0  0  0  0  0
  -25.9236  -16.5070  146.7422 C   0  0  0  0  0  0  0  0  0  0  0  0
  -25.6627  -17.1841  147.9274 C   0  0  0  0  0  0  0  0  0  0  0  0
  -24.6813  -18.1540  148.0079 C   0  0  0  0  0  0  0  0  0  0  0  0
  -26.9780  -15.4746  146.6756 C   0  0  0  0  0  0  0  0  0  0  0  0
  -26.9254  -14.3820  146.6158 C   0  0  0  0  0  0  0  0  0  0  0  0
  -28.0511  -13.4096  146.5825 C   0  0  0  0  0  0  0  0  0  0  0  0
  -28.0139  -12.0019  146.2991 C   0  0  0  0  0  0  0  0  0  0  0  0
  -26.7396  -11.4738  145.9071 C   0  0  0  0  0  0  0  0  0  0  0  0
  -25.5473  -12.3176  145.9919 C   0  0  0  0  0  0  0  0  0  0  0  0
  -25.6522  -13.6187  146.2415 C   0  0  0  0  0  0  0  0  0  0  0  0
  -28.2384  -16.1649  146.2573 C   0  0  0  0  0  0  0  0  0  0  0  0
  -29.1410  -11.3770  146.4727 N   0  0  0  0  0  0  0  0  0  0  0  0
  -30.1178  -11.0296  145.9977 C   0  0  0  0  0  0  0  0  0  0  0  0
  -30.7112  -10.1144  145.6571 N   0  0  0  0  0  0  0  0  0  0  0  0
  -24.3331  -11.7513  145.6913 N   0  0  0  0  0  0  0  0  0  0  0  0
  -23.1795  -12.5103  145.6159 C   0  0  0  0  0  0  0  0  0  0  0  0
  -23.3223  -13.7039  144.7614 C   0  0  0  0  0  0  0  0  0  0  0  0
  -22.2439  -14.1292  144.2402 O   0  0  0  0  0  0  0  0  0  0  0  0
  -24.2283  -14.4847  144.8248 O   0  0  0  0  0  0  0  0  0  0  0  0
  -25.4426  -13.9691  145.0279 C   0  0  0  0  0  0  0  0  0  0  0  0
  -26.3810  -16.8179  149.0115 O   0  0  0  0  0  0  0  0  0  0  0  0
  -23.4700  -18.1007  144.5816 O   0  0  0  0  0  0  0  0  0  0  0  0
  -26.2696  -13.9042  143.9135 C   0  0  0  0  0  0  0  0  0  0  0  0
  4  7  1  0
  7 14  1  0
 10 15  1  0
 15 16  1  0
 16 17  1  0
 12 18  1  0
 18 19  1  0
 19 20  1  0
 20 21  2  0
 20 22  1  0
 13 23  1  0
 22 23  1  0
  5 24  1  0
  1 25  1  0
 23 26  1  0
  7  8  1  0
  1  2  2  0
  2  6  1  0
  6  5  2  0
  5  4  1  0
  4  3  2  0
  3  1  1  0
  8  9  2  0
  9 10  1  0
 10 11  2  0
 11 12  1  0
 12 13  2  0
 13  8  1  0
M  END

$$$$
No_1164-/dssg/home/sw_qyf/PocketFlow/Model-Generation-Results/5HT2A_7WC7_rec_A_10.pdb/2024-01-01-03-54-21/
     RDKit          3D

 27 30  0  0  0  0  0  0  0  0999 V2000
  -23.1746  -16.6014  144.8668 C   0  0  0  0  0  0  0  0  0  0  0  0
  -24.0189  -16.0564  145.8445 C   0  0  0  0  0  0  0  0  0  0  0  0
  -24.4145  -16.8299  146.9062 C   0  0  0  0  0  0  0  0  0  0  0  0
  -23.8925  -17.9780  147.0944 C   0  0  0  0  0  0  0  0  0  0  0  0
  -23.0516  -18.5662  146.1819 C   0  0  0  0  0  0  0  0  0  0  0  0
  -22.7171  -17.7851  145.1421 N   0  0  0  0  0  0  0  0  0  0  0  0
  -24.6214  -14.6627  145.5820 C   0  0  0  0  0  0  0  0  0  0  0  0
  -25.8709  -14.3621  145.9158 C   0  0  0  0  0  0  0  0  0  0  0  0
  -26.3618  -13.0566  145.6664 C   0  0  0  0  0  0  0  0  0  0  0  0
  -25.4718  -12.0615  145.2686 C   0  0  0  0  0  0  0  0  0  0  0  0
  -24.0965  -12.3956  145.0604 C   0  0  0  0  0  0  0  0  0  0  0  0
  -23.6722  -13.6373  145.1908 C   0  0  0  0  0  0  0  0  0  0  0  0
  -27.7394  -12.6583  146.0767 C   0  0  0  0  0  0  0  0  0  0  0  0
  -28.5526  -13.3819  146.9390 C   0  0  0  0  0  0  0  0  0  0  0  0
  -29.8271  -12.8789  147.2870 C   0  0  0  0  0  0  0  0  0  0  0  0
  -30.2160  -11.5984  146.6971 C   0  0  0  0  0  0  0  0  0  0  0  0
  -29.3757  -10.9322  145.8153 C   0  0  0  0  0  0  0  0  0  0  0  0
  -28.1148  -11.4485  145.5334 C   0  0  0  0  0  0  0  0  0  0  0  0
  -30.6968  -13.5955  148.1979 C   0  0  0  0  0  0  0  0  0  0  0  0
  -30.2377  -14.7448  148.6531 N   0  0  0  0  0  0  0  0  0  0  0  0
  -31.7723  -12.9737  148.8778 C   0  0  0  0  0  0  0  0  0  0  0  0
  -32.0461  -13.2147  150.2562 C   0  0  0  0  0  0  0  0  0  0  0  0
  -32.9850  -12.5585  150.9995 C   0  0  0  0  0  0  0  0  0  0  0  0
  -32.8112  -11.4273  151.2929 C   0  0  0  0  0  0  0  0  0  0  0  0
  -29.3617  -15.4382  147.9651 C   0  0  0  0  0  0  0  0  0  0  0  0
  -28.3597  -14.7721  147.2247 C   0  0  0  0  0  0  0  0  0  0  0  0
  -33.1332  -10.3435  150.7745 C   0  0  0  0  0  0  0  0  0  0  0  0
  2  7  1  0
  9 13  1  0
 19 21  1  0
 21 22  2  3
 22 23  1  0
 23 24  2  3
 24 27  1  0
  1  2  2  0
  2  3  1  0
  3  4  2  0
  4  5  1  0
  5  6  2  0
  6  1  1  0
 13 14  2  0
 15 16  2  0
 16 17  1  0
 17 18  2  0
 18 13  1  0
 14 15  1  0
 15 19  1  0
 19 20  2  0
 20 25  1  0
 25 26  2  0
 26 14  1  0
  7  8  2  0
  8  9  1  0
  9 10  2  0
 10 11  1  0
 11 12  2  0
 12  7  1  0
M  END

$$$$
No_1165-/dssg/home/sw_qyf/PocketFlow/Model-Generation-Results/5HT2A_7WC7_rec_A_10.pdb/2024-01-01-03-54-21/
     RDKit          3D

 35 38  0  0  0  0  0  0  0  0999 V2000
  -24.1553  -17.8465  145.7021 C   0  0  0  0  0  0  0  0  0  0  0  0
  -24.6364  -17.2931  146.7091 C   0  0  0  0  0  0  0  0  0  0  0  0
  -25.8608  -16.5592  146.5934 C   0  0  0  0  0  0  0  0  0  0  0  0
  -25.9533  -15.5604  145.6681 C   0  0  0  0  0  0  0  0  0  0  0  0
  -27.0179  -14.6632  145.5500 C   0  0  0  0  0  0  0  0  0  0  0  0
  -26.6804  -13.3210  145.5106 C   0  0  0  0  0  0  0  0  0  0  0  0
  -27.6743  -12.3084  145.2996 C   0  0  0  0  0  0  0  0  0  0  0  0
  -24.0190  -16.8457  144.5602 C   0  0  0  0  0  0  0  0  0  0  0  0
  -25.0968  -15.8497  144.5528 C   0  0  0  0  0  0  0  0  0  0  0  0
  -28.7274  -12.2042  146.1848 C   0  0  0  0  0  0  0  0  0  0  0  0
  -29.7322  -11.2102  145.9509 C   0  0  0  0  0  0  0  0  0  0  0  0
  -29.5721  -10.2813  144.8841 C   0  0  0  0  0  0  0  0  0  0  0  0
  -28.4623  -10.4059  144.0880 C   0  0  0  0  0  0  0  0  0  0  0  0
  -27.4698  -11.3819  144.3040 C   0  0  0  0  0  0  0  0  0  0  0  0
  -28.3616   -9.3984  142.9947 C   0  0  0  0  0  0  0  0  0  0  0  0
  -29.2502   -8.3364  143.0389 C   0  0  0  0  0  0  0  0  0  0  0  0
  -29.0022   -7.2199  142.1808 C   0  0  0  0  0  0  0  0  0  0  0  0
  -29.0682   -7.4995  140.7385 C   0  0  0  0  0  0  0  0  0  0  0  0
  -28.4963   -8.7063  140.3254 C   0  0  0  0  0  0  0  0  0  0  0  0
  -28.2726   -9.0631  139.0061 C   0  0  0  0  0  0  0  0  0  0  0  0
  -27.8612  -10.3172  138.6909 C   0  0  0  0  0  0  0  0  0  0  0  0
  -28.1733   -9.7379  141.4711 C   0  0  0  0  0  0  0  0  0  0  0  0
  -28.5080   -8.1329  138.0252 C   0  0  0  0  0  0  0  0  0  0  0  0
  -27.0703  -11.1133  139.6333 C   0  0  0  0  0  0  0  0  0  0  0  0
  -27.5523  -11.0044  141.0770 C   0  0  0  0  0  0  0  0  0  0  0  0
  -26.9337  -12.6306  139.2988 C   0  0  0  0  0  0  0  0  0  0  0  0
  -23.6408  -16.6014  147.7714 C   0  0  0  0  0  0  0  0  0  0  0  0
  -23.7641  -17.5310  149.0466 C   0  0  0  0  0  0  0  0  0  0  0  0
  -24.9756  -17.4843  149.7789 C   0  0  0  0  0  0  0  0  0  0  0  0
  -24.9098  -16.4845  150.7928 C   0  0  0  0  0  0  0  0  0  0  0  0
  -28.9121  -13.1081  147.3643 C   0  0  0  0  0  0  0  0  0  0  0  0
  -29.5428  -12.9281  148.1322 C   0  0  0  0  0  0  0  0  0  0  0  0
  -30.0596  -14.0463  149.1472 C   0  0  0  0  0  0  0  0  0  0  0  0
  -29.5808  -15.3291  148.7724 C   0  0  0  0  0  0  0  0  0  0  0  0
  -28.8054  -15.5139  147.6583 C   0  0  0  0  0  0  0  0  0  0  0  0
  1  2  1  0
  2  3  1  0
  3  4  1  0
  4  5  1  0
  5  6  2  3
  6  7  1  0
  1  8  1  0
  4  9  1  0
  8  9  1  0
 13 15  1  0
 20 23  1  0
 24 26  1  0
  2 27  1  0
 27 28  1  0
 28 29  1  0
 29 30  1  0
 10 31  1  0
 31 32  2  3
 32 33  1  0
 33 34  2  3
 34 35  1  0
 19 20  2  0
 20 21  1  0
 21 24  2  0
 24 25  1  0
 25 22  2  0
  7 10  2  0
 10 11  1  0
 11 12  2  0
 12 13  1  0
 13 14  2  0
 14  7  1  0
 15 16  2  0
 16 17  1  0
 17 18  2  0
 18 19  1  0
 19 22  1  0
 22 15  1  0
M  END

$$$$
No_1166-/dssg/home/sw_qyf/PocketFlow/Model-Generation-Results/5HT2A_7WC7_rec_A_10.pdb/2024-01-01-03-54-21/
     RDKit          3D

 32 33  0  0  0  0  0  0  0  0999 V2000
  -24.1553  -17.8465  145.7021 C   0  0  0  0  0  0  0  0  0  0  0  0
  -23.9795  -18.4462  146.7426 C   0  0  0  0  0  0  0  0  0  0  0  0
  -25.1593  -16.8262  145.6925 C   0  0  0  0  0  0  0  0  0  0  0  0
  -26.3426  -16.9003  146.3448 C   0  0  0  0  0  0  0  0  0  0  0  0
  -26.3343  -16.3346  147.5620 C   0  0  0  0  0  0  0  0  0  0  0  0
  -22.5969  -18.7523  146.9402 C   0  0  0  0  0  0  0  0  0  0  0  0
  -27.6223  -16.0114  148.2098 C   0  0  0  0  0  0  0  0  0  0  0  0
  -28.3205  -14.9455  147.5190 C   0  0  0  0  0  0  0  0  0  0  0  0
  -27.7214  -14.0033  146.7894 C   0  0  0  0  0  0  0  0  0  0  0  0
  -28.4261  -12.8703  146.3262 C   0  0  0  0  0  0  0  0  0  0  0  0
  -27.8626  -11.9162  145.4522 C   0  0  0  0  0  0  0  0  0  0  0  0
  -28.5343  -10.8447  144.8696 C   0  0  0  0  0  0  0  0  0  0  0  0
  -29.9064  -10.6201  145.3355 C   0  0  0  0  0  0  0  0  0  0  0  0
  -30.3032  -11.3880  146.4149 N   0  0  0  0  0  0  0  0  0  0  0  0
  -29.5727  -12.4236  146.9196 C   0  0  0  0  0  0  0  0  0  0  0  0
  -28.1046   -9.8997  143.9365 C   0  0  0  0  0  0  0  0  0  0  0  0
  -28.2290   -8.7953  144.1792 F   0  0  0  0  0  0  0  0  0  0  0  0
  -26.7203  -10.1975  143.7024 F   0  0  0  0  0  0  0  0  0  0  0  0
  -28.7917  -10.2516  142.5973 C   0  0  0  0  0  0  0  0  0  0  0  0
  -28.3436   -9.6932  141.4431 C   0  0  0  0  0  0  0  0  0  0  0  0
  -28.8324   -8.4568  141.0313 C   0  0  0  0  0  0  0  0  0  0  0  0
  -29.8547   -7.7142  141.7704 C   0  0  0  0  0  0  0  0  0  0  0  0
  -31.0562   -8.3178  142.2313 C   0  0  0  0  0  0  0  0  0  0  0  0
  -29.9312  -11.0710  142.4853 C   0  0  0  0  0  0  0  0  0  0  0  0
  -32.0239   -7.6621  143.0693 C   0  0  0  0  0  0  0  0  0  0  0  0
  -27.4357  -10.4061  140.6372 C   0  0  0  0  0  0  0  0  0  0  0  0
  -27.1080  -10.0195  139.3224 C   0  0  0  0  0  0  0  0  0  0  0  0
  -27.6721   -8.7410  138.9464 C   0  0  0  0  0  0  0  0  0  0  0  0
  -28.5865   -8.0141  139.7226 C   0  0  0  0  0  0  0  0  0  0  0  0
  -24.9764  -15.5248  144.9005 C   0  0  0  0  0  0  0  0  0  0  0  0
  -25.8744  -14.6510  144.6955 C   0  0  0  0  0  0  0  0  0  0  0  0
  -25.4700  -13.5936  143.8102 C   0  0  0  0  0  0  0  0  0  0  0  0
  1  2  1  0
  1  3  1  0
  3  4  1  0
  4  5  1  0
  2  6  1  0
  5  7  1  0
  7  8  1  0
  8  9  2  3
  9 10  1  0
 12 16  1  0
 16 17  1  0
 16 18  1  0
 16 19  1  0
 19 20  1  0
 21 22  1  0
 22 23  2  3
 19 24  1  0
 23 25  1  0
  3 30  1  0
 30 31  2  3
 31 32  1  0
 20 21  2  0
 21 29  1  0
 29 28  2  0
 28 27  1  0
 27 26  2  0
 26 20  1  0
 10 11  2  0
 11 12  1  0
 12 13  2  0
 13 14  1  0
 14 15  2  0
 15 10  1  0
M  END

$$$$
No_1167-/dssg/home/sw_qyf/PocketFlow/Model-Generation-Results/5HT2A_7WC7_rec_A_10.pdb/2024-01-01-03-54-21/
     RDKit          3D

 35 39  0  0  0  0  0  0  0  0999 V2000
  -23.1746  -16.6014  144.8668 C   0  0  0  0  0  0  0  0  0  0  0  0
  -24.0189  -16.0564  145.8445 C   0  0  0  0  0  0  0  0  0  0  0  0
  -25.3176  -15.9168  145.6822 C   0  0  0  0  0  0  0  0  0  0  0  0
  -26.1693  -16.6799  146.4632 C   0  0  0  0  0  0  0  0  0  0  0  0
  -27.6295  -16.5109  146.3614 C   0  0  0  0  0  0  0  0  0  0  0  0
  -28.0366  -15.2525  146.4597 C   0  0  0  0  0  0  0  0  0  0  0  0
  -27.1433  -14.1979  145.9698 C   0  0  0  0  0  0  0  0  0  0  0  0
  -25.7420  -14.4875  145.7473 C   0  0  0  0  0  0  0  0  0  0  0  0
  -27.8260  -12.8969  145.8720 C   0  0  0  0  0  0  0  0  0  0  0  0
  -29.1009  -12.5697  146.2239 C   0  0  0  0  0  0  0  0  0  0  0  0
  -29.8345  -13.2427  147.1774 C   0  0  0  0  0  0  0  0  0  0  0  0
  -30.9949  -12.5584  147.7725 C   0  0  0  0  0  0  0  0  0  0  0  0
  -31.6429  -13.1962  148.8673 C   0  0  0  0  0  0  0  0  0  0  0  0
  -32.6785  -12.5166  149.4938 C   0  0  0  0  0  0  0  0  0  0  0  0
  -33.2567  -11.4205  148.8052 C   0  0  0  0  0  0  0  0  0  0  0  0
  -29.4766  -14.5683  147.4788 C   0  0  0  0  0  0  0  0  0  0  0  0
  -32.7381  -11.0330  147.6428 C   0  0  0  0  0  0  0  0  0  0  0  0
  -31.5299  -11.5224  147.2372 C   0  0  0  0  0  0  0  0  0  0  0  0
  -26.9384  -11.8574  145.1578 C   0  0  0  0  0  0  0  0  0  0  0  0
  -27.5614  -10.8737  144.5052 C   0  0  0  0  0  0  0  0  0  0  0  0
  -28.3827  -11.0097  143.4706 C   0  0  0  0  0  0  0  0  0  0  0  0
  -29.0261   -9.8630  142.8467 C   0  0  0  0  0  0  0  0  0  0  0  0
  -29.0196   -8.6437  143.4225 C   0  0  0  0  0  0  0  0  0  0  0  0
  -29.6064   -7.5376  142.7602 C   0  0  0  0  0  0  0  0  0  0  0  0
  -30.3438   -7.6941  141.5638 C   0  0  0  0  0  0  0  0  0  0  0  0
  -30.3243   -8.9190  140.9409 C   0  0  0  0  0  0  0  0  0  0  0  0
  -29.7188  -10.0260  141.6109 C   0  0  0  0  0  0  0  0  0  0  0  0
  -25.5212  -11.8529  145.3323 C   0  0  0  0  0  0  0  0  0  0  0  0
  -24.6912  -12.9389  145.3505 C   0  0  0  0  0  0  0  0  0  0  0  0
  -29.7971  -11.1913  141.0205 O   0  0  0  0  0  0  0  0  0  0  0  0
  -25.8257  -17.9610  146.7148 O   0  0  0  0  0  0  0  0  0  0  0  0
  -23.9350  -13.3224  144.2152 C   0  0  0  0  0  0  0  0  0  0  0  0
  -22.7225  -12.8020  144.3752 O   0  0  0  0  0  0  0  0  0  0  0  0
  -21.8006  -12.7317  143.4177 C   0  0  0  0  0  0  0  0  0  0  0  0
  -29.5390   -5.8798  143.3521 Cl  0  0  0  0  0  0  0  0  0  0  0  0
  1  2  1  0
  2  3  2  3
  3  4  1  0
  4  5  1  0
  5  6  2  0
  6  7  1  0
  3  8  1  0
  7  8  2  0
  7  9  1  0
  9 10  2  0
 10 11  1  0
 11 12  2  3
 12 13  1  0
 13 14  2  0
 14 15  1  0
  6 16  1  0
 11 16  1  0
 15 17  2  0
 12 18  1  0
 17 18  1  0
  9 19  1  0
 19 20  1  0
 20 21  2  3
 21 22  1  0
 22 23  2  0
 23 24  1  0
 24 25  2  0
 25 26  1  0
 22 27  1  0
 26 27  1  0
 19 28  1  0
  8 29  1  0
 28 29  2  0
 27 30  1  0
  4 31  1  0
 29 32  1  0
 32 33  1  0
 33 34  1  0
 24 35  1  0
M  END

$$$$
No_1168-/dssg/home/sw_qyf/PocketFlow/Model-Generation-Results/5HT2A_7WC7_rec_A_10.pdb/2024-01-01-03-54-21/
     RDKit          3D

 35 38  0  0  0  0  0  0  0  0999 V2000
  -24.1553  -17.8465  145.7021 C   0  0  0  0  0  0  0  0  0  0  0  0
  -24.6364  -17.2931  146.7091 C   0  0  0  0  0  0  0  0  0  0  0  0
  -24.0780  -17.2921  147.9389 C   0  0  0  0  0  0  0  0  0  0  0  0
  -24.6761  -16.7363  149.1478 C   0  0  0  0  0  0  0  0  0  0  0  0
  -25.9986  -16.2638  148.9932 C   0  0  0  0  0  0  0  0  0  0  0  0
  -26.6271  -16.3412  147.7728 C   0  0  0  0  0  0  0  0  0  0  0  0
  -25.9735  -16.9165  146.6819 C   0  0  0  0  0  0  0  0  0  0  0  0
  -23.8394  -16.9427  144.6493 N   0  0  0  0  0  0  0  0  0  0  0  0
  -23.7980  -19.0410  145.4510 O   0  0  0  0  0  0  0  0  0  0  0  0
  -28.0563  -15.9006  147.7420 C   0  0  0  0  0  0  0  0  0  0  0  0
  -29.1030  -16.4480  148.3590 C   0  0  0  0  0  0  0  0  0  0  0  0
  -28.3462  -14.8775  146.6688 C   0  0  0  0  0  0  0  0  0  0  0  0
  -27.4180  -14.1229  145.9694 C   0  0  0  0  0  0  0  0  0  0  0  0
  -27.6087  -12.9185  145.4687 C   0  0  0  0  0  0  0  0  0  0  0  0
  -26.8151  -12.2919  144.5119 C   0  0  0  0  0  0  0  0  0  0  0  0
  -25.7919  -13.1179  144.0981 C   0  0  0  0  0  0  0  0  0  0  0  0
  -25.4870  -14.3943  144.6077 C   0  0  0  0  0  0  0  0  0  0  0  0
  -26.2670  -14.8476  145.4776 C   0  0  0  0  0  0  0  0  0  0  0  0
  -27.1072  -10.9957  143.9659 C   0  0  0  0  0  0  0  0  0  0  0  0
  -27.8573  -10.1697  144.8689 C   0  0  0  0  0  0  0  0  0  0  0  0
  -28.5644   -9.1719  144.1360 C   0  0  0  0  0  0  0  0  0  0  0  0
  -28.8171   -9.2387  142.7644 C   0  0  0  0  0  0  0  0  0  0  0  0
  -29.7082   -8.4115  142.1340 C   0  0  0  0  0  0  0  0  0  0  0  0
  -29.5482   -8.0264  140.8088 C   0  0  0  0  0  0  0  0  0  0  0  0
  -28.7406   -8.8583  140.0201 C   0  0  0  0  0  0  0  0  0  0  0  0
  -27.9383   -9.8605  140.5631 C   0  0  0  0  0  0  0  0  0  0  0  0
  -27.9566  -10.0227  141.9867 C   0  0  0  0  0  0  0  0  0  0  0  0
  -27.6746  -11.0616  142.6811 O   0  0  0  0  0  0  0  0  0  0  0  0
  -28.7618   -8.4745  138.5989 C   0  0  0  0  0  0  0  0  0  0  0  0
  -29.7874   -8.6911  138.0934 F   0  0  0  0  0  0  0  0  0  0  0  0
  -28.3291   -7.1459  138.4182 F   0  0  0  0  0  0  0  0  0  0  0  0
  -27.8367   -9.2690  137.8865 F   0  0  0  0  0  0  0  0  0  0  0  0
  -29.6151  -14.3264  147.1160 C   0  0  0  0  0  0  0  0  0  0  0  0
  -29.7169  -13.0809  147.8798 C   0  0  0  0  0  0  0  0  0  0  0  0
  -30.8102  -12.7371  148.6476 C   0  0  0  0  0  0  0  0  0  0  0  0
  1  2  1  0
  1  8  1  0
  1  9  2  0
  6 10  1  0
 10 11  2  0
 10 12  1  0
 12 13  1  0
 15 19  1  0
 19 20  1  0
 20 21  1  0
 21 22  1  0
 19 28  1  0
 27 28  1  0
 25 29  1  0
 29 30  1  0
 29 31  1  0
 29 32  1  0
 12 33  1  0
 33 34  1  0
 34 35  1  0
  2  3  2  0
  3  4  1  0
  4  5  2  0
  5  6  1  0
  6  7  2  0
  7  2  1  0
 13 14  2  0
 14 15  1  0
 15 16  2  0
 16 17  1  0
 17 18  2  0
 18 13  1  0
 22 23  2  0
 23 24  1  0
 24 25  2  0
 25 26  1  0
 26 27  2  0
 27 22  1  0
M  END

$$$$
No_1169-/dssg/home/sw_qyf/PocketFlow/Model-Generation-Results/5HT2A_7WC7_rec_A_10.pdb/2024-01-01-03-54-21/
     RDKit          3D

 35 38  0  0  0  0  0  0  0  0999 V2000
  -23.1746  -16.6014  144.8668 C   0  0  0  0  0  0  0  0  0  0  0  0
  -24.0189  -16.0564  145.8445 C   0  0  0  0  0  0  0  0  0  0  0  0
  -24.4145  -16.8299  146.9062 C   0  0  0  0  0  0  0  0  0  0  0  0
  -23.9612  -18.1384  147.0126 C   0  0  0  0  0  0  0  0  0  0  0  0
  -23.1429  -18.6221  146.0418 C   0  0  0  0  0  0  0  0  0  0  0  0
  -22.8095  -17.8231  145.0610 N   0  0  0  0  0  0  0  0  0  0  0  0
  -24.5671  -14.6439  145.6745 C   0  0  0  0  0  0  0  0  0  0  0  0
  -25.6755  -14.2339  146.3521 C   0  0  0  0  0  0  0  0  0  0  0  0
  -26.1268  -12.8643  146.3343 C   0  0  0  0  0  0  0  0  0  0  0  0
  -25.4605  -11.9495  145.4956 C   0  0  0  0  0  0  0  0  0  0  0  0
  -25.9672  -10.5758  145.4242 C   0  0  0  0  0  0  0  0  0  0  0  0
  -23.8950  -13.7728  144.7935 C   0  0  0  0  0  0  0  0  0  0  0  0
  -24.3603  -12.3641  144.8112 C   0  0  0  0  0  0  0  0  0  0  0  0
  -27.0254  -10.3558  144.3869 C   0  0  0  0  0  0  0  0  0  0  0  0
  -28.1206  -10.7866  144.5243 C   0  0  0  0  0  0  0  0  0  0  0  0
  -29.2175  -10.3375  143.6235 C   0  0  0  0  0  0  0  0  0  0  0  0
  -28.9521   -9.8110  142.4320 C   0  0  0  0  0  0  0  0  0  0  0  0
  -29.8554   -9.0311  141.7316 C   0  0  0  0  0  0  0  0  0  0  0  0
  -31.0962   -8.6966  142.3055 C   0  0  0  0  0  0  0  0  0  0  0  0
  -31.3577   -9.0333  143.6439 C   0  0  0  0  0  0  0  0  0  0  0  0
  -30.3915   -9.8278  144.3788 C   0  0  0  0  0  0  0  0  0  0  0  0
  -29.5399   -8.5451  140.3684 C   0  0  0  0  0  0  0  0  0  0  0  0
  -29.9819   -7.3297  139.8257 C   0  0  0  0  0  0  0  0  0  0  0  0
  -28.4954   -9.1890  139.6407 C   0  0  0  0  0  0  0  0  0  0  0  0
  -27.7100  -10.2594  140.1134 C   0  0  0  0  0  0  0  0  0  0  0  0
  -26.8323  -11.0258  139.3668 C   0  0  0  0  0  0  0  0  0  0  0  0
  -27.4309  -12.3116  138.9112 C   0  0  0  0  0  0  0  0  0  0  0  0
  -28.0524  -10.6225  141.6472 C   0  0  0  0  0  0  0  0  0  0  0  0
  -28.1578   -8.7047  138.3751 C   0  0  0  0  0  0  0  0  0  0  0  0
  -28.1322  -13.2840  139.9726 Cl  0  0  0  0  0  0  0  0  0  0  0  0
  -30.6370  -10.1842  145.6293 O   0  0  0  0  0  0  0  0  0  0  0  0
  -22.8358  -14.0156  144.1444 O   0  0  0  0  0  0  0  0  0  0  0  0
  -27.5107  -12.5054  137.6433 O   0  0  0  0  0  0  0  0  0  0  0  0
  -28.9160   -9.1168  137.6087 F   0  0  0  0  0  0  0  0  0  0  0  0
  -26.8735   -8.9233  138.0402 F   0  0  0  0  0  0  0  0  0  0  0  0
  2  7  1  0
  8  9  1  0
 10 11  1  0
  7 12  1  0
 10 13  1  0
 12 13  1  0
 11 14  1  0
 14 15  2  3
 15 16  1  0
 18 22  1  0
 22 23  1  0
 22 24  1  0
 24 25  1  0
 25 26  1  0
 26 27  2  3
 17 28  1  0
 25 28  1  0
 24 29  1  0
 27 30  1  0
 21 31  1  0
 12 32  2  0
 27 33  1  0
 29 34  1  0
 29 35  1  0
  7  8  1  0
  9 10  1  0
  1  2  2  0
  2  3  1  0
  3  4  2  0
  4  5  1  0
  5  6  2  0
  6  1  1  0
 16 17  2  0
 17 18  1  0
 18 19  2  0
 19 20  1  0
 20 21  2  0
 21 16  1  0
M  END

$$$$
No_1170-/dssg/home/sw_qyf/PocketFlow/Model-Generation-Results/5HT2A_7WC7_rec_A_10.pdb/2024-01-01-03-54-21/
     RDKit          3D

 24 25  0  0  0  0  0  0  0  0999 V2000
  -24.1553  -17.8465  145.7021 C   0  0  0  0  0  0  0  0  0  0  0  0
  -24.6364  -17.2931  146.7091 C   0  0  0  0  0  0  0  0  0  0  0  0
  -24.0780  -17.2921  147.9389 C   0  0  0  0  0  0  0  0  0  0  0  0
  -24.3226  -16.7243  148.9587 C   0  0  0  0  0  0  0  0  0  0  0  0
  -23.7796  -16.9955  150.2808 C   0  0  0  0  0  0  0  0  0  0  0  0
  -23.8606  -17.6230  144.7015 N   0  0  0  0  0  0  0  0  0  0  0  0
  -23.6634  -19.1210  145.9335 O   0  0  0  0  0  0  0  0  0  0  0  0
  -22.3606  -17.0397  150.4831 C   0  0  0  0  0  0  0  0  0  0  0  0
  -21.7137  -17.0733  149.1662 C   0  0  0  0  0  0  0  0  0  0  0  0
  -22.5241  -17.3048  147.9719 C   0  0  0  0  0  0  0  0  0  0  0  0
  -24.0496  -16.2414  144.2850 N   0  0  0  0  0  0  0  0  0  0  0  0
  -23.2872  -15.3312  144.5143 C   0  0  0  0  0  0  0  0  0  0  0  0
  -23.5741  -13.9180  144.3128 C   0  0  0  0  0  0  0  0  0  0  0  0
  -23.8941  -13.1321  145.5284 C   0  0  0  0  0  0  0  0  0  0  0  0
  -25.0151  -12.6953  145.6229 C   0  0  0  0  0  0  0  0  0  0  0  0
  -26.1144  -12.9987  145.1594 C   0  0  0  0  0  0  0  0  0  0  0  0
  -27.4464  -12.3790  145.4445 C   0  0  0  0  0  0  0  0  0  0  0  0
  -28.5773  -12.9102  145.5975 C   0  0  0  0  0  0  0  0  0  0  0  0
  -29.7810  -11.9914  146.0758 C   0  0  0  0  0  0  0  0  0  0  0  0
  -30.2578  -12.1555  147.2468 O   0  0  0  0  0  0  0  0  0  0  0  0
  -30.0199  -10.9679  145.3842 O   0  0  0  0  0  0  0  0  0  0  0  0
  -28.7954  -14.2459  146.1591 C   0  0  0  0  0  0  0  0  0  0  0  0
  -29.8425  -14.5386  147.0632 C   0  0  0  0  0  0  0  0  0  0  0  0
  -30.5743  -13.3805  147.6089 C   0  0  0  0  0  0  0  0  0  0  0  0
  1  2  1  0
  2  3  1  0
  1  6  2  3
  1  7  1  0
  6 11  1  0
 11 12  2  3
 12 13  1  0
 13 14  1  0
 14 15  1  0
 15 16  1  0
 16 17  2  3
 17 18  1  0
 18 19  1  0
 19 20  1  0
 19 21  2  0
 18 22  1  0
 22 23  1  0
 20 24  1  0
 23 24  2  0
  3  4  2  0
  4  5  1  0
  5  8  2  0
  8  9  1  0
  9 10  2  0
 10  3  1  0
M  END

$$$$
No_1171-/dssg/home/sw_qyf/PocketFlow/Model-Generation-Results/5HT2A_7WC7_rec_A_10.pdb/2024-01-01-03-54-21/
     RDKit          3D

 18 19  0  0  0  0  0  0  0  0999 V2000
  -23.1746  -16.6014  144.8668 C   0  0  0  0  0  0  0  0  0  0  0  0
  -23.8963  -15.5346  144.7885 C   0  0  0  0  0  0  0  0  0  0  0  0
  -23.6398  -14.5115  145.3281 C   0  0  0  0  0  0  0  0  0  0  0  0
  -23.4462  -13.2703  144.4419 C   0  0  0  0  0  0  0  0  0  0  0  0
  -23.6634  -17.6156  145.8685 C   0  0  0  0  0  0  0  0  0  0  0  0
  -24.0739  -16.9978  147.0649 C   0  0  0  0  0  0  0  0  0  0  0  0
  -24.6700  -15.7320  147.2413 C   0  0  0  0  0  0  0  0  0  0  0  0
  -24.2043  -14.5055  146.6945 C   0  0  0  0  0  0  0  0  0  0  0  0
  -23.5408  -12.1745  145.1720 O   0  0  0  0  0  0  0  0  0  0  0  0
  -23.9219  -17.8875  148.2540 C   0  0  0  0  0  0  0  0  0  0  0  0
  -24.3295  -17.2124  149.5948 C   0  0  0  0  0  0  0  0  0  0  0  0
  -23.6611  -17.5677  150.7948 C   0  0  0  0  0  0  0  0  0  0  0  0
  -23.5095  -18.8665  145.7355 O   0  0  0  0  0  0  0  0  0  0  0  0
  -24.8053  -15.5600  143.7015 O   0  0  0  0  0  0  0  0  0  0  0  0
  -25.7018  -16.8535  149.6509 C   0  0  0  0  0  0  0  0  0  0  0  0
  -22.3463  -17.4962  150.6697 O   0  0  0  0  0  0  0  0  0  0  0  0
  -26.4942  -16.3868  148.6704 C   0  0  0  0  0  0  0  0  0  0  0  0
  -25.9277  -15.6467  147.6469 C   0  0  0  0  0  0  0  0  0  0  0  0
  1  2  1  0
  2  3  1  0
  3  4  1  0
  1  5  1  0
  5  6  1  0
  6  7  1  0
  3  8  1  0
  7  8  1  0
  4  9  1  0
  6 10  1  0
 10 11  1  0
 11 12  1  0
  5 13  2  0
  2 14  2  0
 11 15  1  0
 12 16  1  0
 15 17  2  0
  7 18  1  0
 17 18  1  0
M  END

$$$$
No_1172-/dssg/home/sw_qyf/PocketFlow/Model-Generation-Results/5HT2A_7WC7_rec_A_10.pdb/2024-01-01-03-54-21/
     RDKit          3D

 35 38  0  0  0  0  0  0  0  0999 V2000
  -24.1553  -17.8465  145.7021 C   0  0  0  0  0  0  0  0  0  0  0  0
  -24.2856  -16.6364  145.3494 C   0  0  0  0  0  0  0  0  0  0  0  0
  -24.7211  -15.5955  146.2116 C   0  0  0  0  0  0  0  0  0  0  0  0
  -24.8538  -14.2010  145.8739 C   0  0  0  0  0  0  0  0  0  0  0  0
  -24.1440  -13.8321  144.7074 C   0  0  0  0  0  0  0  0  0  0  0  0
  -24.0490  -12.4548  144.4544 C   0  0  0  0  0  0  0  0  0  0  0  0
  -24.6156  -18.2742  146.9602 C   0  0  0  0  0  0  0  0  0  0  0  0
  -25.1246  -17.4081  147.9306 C   0  0  0  0  0  0  0  0  0  0  0  0
  -25.2092  -15.9946  147.5609 C   0  0  0  0  0  0  0  0  0  0  0  0
  -24.3655  -11.8323  145.6186 C   0  0  0  0  0  0  0  0  0  0  0  0
  -25.0178  -13.0112  146.6620 C   0  0  0  0  0  0  0  0  0  0  0  0
  -23.7971  -14.6513  143.7393 O   0  0  0  0  0  0  0  0  0  0  0  0
  -25.4543  -17.7466  149.3458 C   0  0  0  0  0  0  0  0  0  0  0  0
  -24.2007  -17.5887  150.4587 Cl  0  0  0  0  0  0  0  0  0  0  0  0
  -26.6312  -17.2831  149.8126 O   0  0  0  0  0  0  0  0  0  0  0  0
  -23.7727  -18.8302  144.8455 O   0  0  0  0  0  0  0  0  0  0  0  0
  -27.7215  -17.8736  149.3156 C   0  0  0  0  0  0  0  0  0  0  0  0
  -28.7776  -16.7643  149.3851 C   0  0  0  0  0  0  0  0  0  0  0  0
  -29.1107  -15.9304  148.2096 C   0  0  0  0  0  0  0  0  0  0  0  0
  -28.5381  -16.0339  147.0152 C   0  0  0  0  0  0  0  0  0  0  0  0
  -30.0328  -14.7404  148.2986 C   0  0  0  0  0  0  0  0  0  0  0  0
  -29.8212  -13.6126  147.7915 C   0  0  0  0  0  0  0  0  0  0  0  0
  -28.8843  -13.5092  146.6698 C   0  0  0  0  0  0  0  0  0  0  0  0
  -28.6592  -12.3408  145.8973 C   0  0  0  0  0  0  0  0  0  0  0  0
  -27.9162  -12.3347  144.7276 C   0  0  0  0  0  0  0  0  0  0  0  0
  -28.2218  -14.7825  146.3206 C   0  0  0  0  0  0  0  0  0  0  0  0
  -28.0536  -11.3405  143.8697 C   0  0  0  0  0  0  0  0  0  0  0  0
  -27.4111  -11.2540  142.6131 C   0  0  0  0  0  0  0  0  0  0  0  0
  -28.6294  -10.1196  144.3936 C   0  0  0  0  0  0  0  0  0  0  0  0
  -28.8301   -9.0111  143.4857 C   0  0  0  0  0  0  0  0  0  0  0  0
  -29.3275   -7.8544  143.9189 C   0  0  0  0  0  0  0  0  0  0  0  0
  -29.3879  -11.0962  146.3049 C   0  0  0  0  0  0  0  0  0  0  0  0
  -29.4690  -10.0916  145.4608 N   0  0  0  0  0  0  0  0  0  0  0  0
  -29.6207   -6.7207  143.0465 C   0  0  0  0  0  0  0  0  0  0  0  0
  -29.6651   -6.9867  141.5912 C   0  0  0  0  0  0  0  0  0  0  0  0
  3  4  1  0
  4  5  1  0
  5  6  1  0
  6 10  2  0
  4 11  1  0
 10 11  1  0
  5 12  2  0
  8 13  1  0
 13 14  1  0
 13 15  1  0
  1 16  1  0
 15 17  1  0
 17 18  1  0
 18 19  1  0
 23 24  1  0
 27 28  1  0
 29 30  1  0
 30 31  1  0
 31 34  2  3
 34 35  1  0
 19 20  2  0
 20 26  1  0
 26 23  2  0
 23 22  1  0
 22 21  2  0
 21 19  1  0
  1  2  2  0
  2  3  1  0
  3  9  2  0
  9  8  1  0
  8  7  2  0
  7  1  1  0
 24 25  2  0
 25 27  1  0
 27 29  2  0
 29 33  1  0
 33 32  2  0
 32 24  1  0
M  END

$$$$
No_1173-/dssg/home/sw_qyf/PocketFlow/Model-Generation-Results/5HT2A_7WC7_rec_A_10.pdb/2024-01-01-03-54-21/
     RDKit          3D

 35 37  0  0  0  0  0  0  0  0999 V2000
  -24.1553  -17.8465  145.7021 C   0  0  0  0  0  0  0  0  0  0  0  0
  -24.6364  -17.2931  146.7091 C   0  0  0  0  0  0  0  0  0  0  0  0
  -24.0780  -17.2921  147.9389 C   0  0  0  0  0  0  0  0  0  0  0  0
  -24.6761  -16.7363  149.1478 C   0  0  0  0  0  0  0  0  0  0  0  0
  -25.9985  -16.2638  148.9932 C   0  0  0  0  0  0  0  0  0  0  0  0
  -26.6270  -16.3412  147.7728 C   0  0  0  0  0  0  0  0  0  0  0  0
  -25.9734  -16.9166  146.6819 C   0  0  0  0  0  0  0  0  0  0  0  0
  -23.5884  -19.0110  145.5480 N   0  0  0  0  0  0  0  0  0  0  0  0
  -28.0647  -15.9002  147.7228 C   0  0  0  0  0  0  0  0  0  0  0  0
  -29.0158  -16.0270  148.6750 C   0  0  0  0  0  0  0  0  0  0  0  0
  -28.3939  -15.0739  146.6171 C   0  0  0  0  0  0  0  0  0  0  0  0
  -23.9106  -17.0336  144.6179 O   0  0  0  0  0  0  0  0  0  0  0  0
  -29.5272  -14.2420  146.7218 C   0  0  0  0  0  0  0  0  0  0  0  0
  -29.4011  -13.1909  147.4763 C   0  0  0  0  0  0  0  0  0  0  0  0
  -29.6345  -11.9592  147.2097 C   0  0  0  0  0  0  0  0  0  0  0  0
  -29.0011  -11.3307  146.0637 C   0  0  0  0  0  0  0  0  0  0  0  0
  -27.7578  -11.4732  145.6711 C   0  0  0  0  0  0  0  0  0  0  0  0
  -27.1864  -10.7058  144.6505 C   0  0  0  0  0  0  0  0  0  0  0  0
  -25.8336  -10.8567  144.3063 C   0  0  0  0  0  0  0  0  0  0  0  0
  -25.0167  -11.7575  145.1126 C   0  0  0  0  0  0  0  0  0  0  0  0
  -25.5914  -12.4970  146.2018 C   0  0  0  0  0  0  0  0  0  0  0  0
  -26.8778  -12.3539  146.4512 C   0  0  0  0  0  0  0  0  0  0  0  0
  -29.7874  -10.2622  145.4262 C   0  0  0  0  0  0  0  0  0  0  0  0
  -30.3884  -10.4114  144.3156 N   0  0  0  0  0  0  0  0  0  0  0  0
  -23.6599  -11.8589  144.8569 N   0  0  0  0  0  0  0  0  0  0  0  0
  -22.8669  -12.3235  145.7920 C   0  0  0  0  0  0  0  0  0  0  0  0
  -30.1491   -9.5575  143.2921 C   0  0  0  0  0  0  0  0  0  0  0  0
  -30.7581   -8.2900  143.4591 C   0  0  0  0  0  0  0  0  0  0  0  0
  -30.6275   -7.3342  142.3721 C   0  0  0  0  0  0  0  0  0  0  0  0
  -30.0293   -7.8349  141.1284 C   0  0  0  0  0  0  0  0  0  0  0  0
  -29.0047   -9.7115  142.5399 C   0  0  0  0  0  0  0  0  0  0  0  0
  -29.8555   -6.9833  140.0126 C   0  0  0  0  0  0  0  0  0  0  0  0
  -29.0212   -8.9502  141.3546 C   0  0  0  0  0  0  0  0  0  0  0  0
  -30.1015   -5.8984  140.1330 F   0  0  0  0  0  0  0  0  0  0  0  0
  -28.5408   -7.2256  139.5492 F   0  0  0  0  0  0  0  0  0  0  0  0
  1  2  1  0
  1  8  1  0
  6  9  1  0
  9 10  1  0
  9 11  1  0
  1 12  2  0
 11 13  2  3
 13 14  1  0
 14 15  1  0
 15 16  1  0
 16 17  1  0
 16 23  1  0
 23 24  1  0
 20 25  1  0
 25 26  2  0
 24 27  1  0
 30 32  1  0
 32 34  1  0
 32 35  1  0
 17 18  2  0
 18 19  1  0
 19 20  2  0
 20 21  1  0
 21 22  2  0
 22 17  1  0
  2  3  2  0
  3  4  1  0
  4  5  2  0
  5  6  1  0
  6  7  2  0
  7  2  1  0
 27 28  2  0
 28 29  1  0
 29 30  2  0
 30 33  1  0
 33 31  2  0
 31 27  1  0
M  END

$$$$
No_1174-/dssg/home/sw_qyf/PocketFlow/Model-Generation-Results/5HT2A_7WC7_rec_A_10.pdb/2024-01-01-03-54-21/
     RDKit          3D

 35 37  0  0  0  0  0  0  0  0999 V2000
  -24.1553  -17.8465  145.7021 C   0  0  0  0  0  0  0  0  0  0  0  0
  -24.6364  -17.2931  146.7091 C   0  0  0  0  0  0  0  0  0  0  0  0
  -25.8608  -16.5591  146.5933 C   0  0  0  0  0  0  0  0  0  0  0  0
  -26.9933  -16.9082  147.1889 C   0  0  0  0  0  0  0  0  0  0  0  0
  -28.2114  -16.1477  146.9896 C   0  0  0  0  0  0  0  0  0  0  0  0
  -28.1869  -14.8900  146.3591 C   0  0  0  0  0  0  0  0  0  0  0  0
  -26.9306  -14.4696  145.8021 C   0  0  0  0  0  0  0  0  0  0  0  0
  -25.7608  -15.2964  145.9443 C   0  0  0  0  0  0  0  0  0  0  0  0
  -26.8153  -13.1560  145.1435 C   0  0  0  0  0  0  0  0  0  0  0  0
  -27.4553  -12.1726  145.2458 C   0  0  0  0  0  0  0  0  0  0  0  0
  -27.3328  -10.9272  144.5754 C   0  0  0  0  0  0  0  0  0  0  0  0
  -27.9163   -9.8737  144.7086 C   0  0  0  0  0  0  0  0  0  0  0  0
  -29.4049  -10.0556  145.1197 C   0  0  0  0  0  0  0  0  0  0  0  0
  -29.6831  -11.3108  145.8018 C   0  0  0  0  0  0  0  0  0  0  0  0
  -28.8234  -12.3509  145.7204 C   0  0  0  0  0  0  0  0  0  0  0  0
  -24.0117  -17.4408  148.0582 C   0  0  0  0  0  0  0  0  0  0  0  0
  -24.5717  -17.2095  149.2621 C   0  0  0  0  0  0  0  0  0  0  0  0
  -23.8337  -17.2891  150.4661 C   0  0  0  0  0  0  0  0  0  0  0  0
  -22.4342  -17.3224  150.3815 C   0  0  0  0  0  0  0  0  0  0  0  0
  -21.8607  -17.1138  149.1635 C   0  0  0  0  0  0  0  0  0  0  0  0
  -22.5793  -17.2861  147.9939 C   0  0  0  0  0  0  0  0  0  0  0  0
  -25.7349  -13.2277  144.3251 F   0  0  0  0  0  0  0  0  0  0  0  0
  -23.3778  -17.0218  145.0592 F   0  0  0  0  0  0  0  0  0  0  0  0
  -23.3255  -18.9496  146.0776 F   0  0  0  0  0  0  0  0  0  0  0  0
  -24.9756  -18.3132  144.8711 F   0  0  0  0  0  0  0  0  0  0  0  0
  -30.2308   -9.0277  145.2325 O   0  0  0  0  0  0  0  0  0  0  0  0
  -30.8087   -8.7660  143.8965 C   0  0  0  0  0  0  0  0  0  0  0  0
  -31.0789   -9.6080  142.8827 C   0  0  0  0  0  0  0  0  0  0  0  0
  -31.0648   -8.9704  141.5911 C   0  0  0  0  0  0  0  0  0  0  0  0
  -29.7482   -8.2210  141.3819 C   0  0  0  0  0  0  0  0  0  0  0  0
  -28.9889   -8.3450  140.2202 C   0  0  0  0  0  0  0  0  0  0  0  0
  -28.2566   -9.3482  139.8799 C   0  0  0  0  0  0  0  0  0  0  0  0
  -27.8341  -10.3419  140.8653 C   0  0  0  0  0  0  0  0  0  0  0  0
  -27.1231  -11.4574  140.5046 C   0  0  0  0  0  0  0  0  0  0  0  0
  -27.8360  -12.3030  139.7728 C   0  0  0  0  0  0  0  0  0  0  0  0
  1  2  1  0
  2  3  1  0
  7  9  1  0
  2 16  1  0
  9 22  1  0
  1 23  1  0
  1 24  1  0
  1 25  1  0
 13 26  1  0
 26 27  1  0
 27 28  2  3
 28 29  1  0
 29 30  1  0
 30 31  1  0
 31 32  1  0
 32 33  1  0
 33 34  2  3
 34 35  1  0
  9 10  1  0
  3  4  2  0
  4  5  1  0
  5  6  2  0
  6  7  1  0
  7  8  2  0
  8  3  1  0
 10 11  2  0
 11 12  1  0
 12 13  2  0
 13 14  1  0
 14 15  2  0
 15 10  1  0
 16 17  2  0
 17 18  1  0
 18 19  2  0
 19 20  1  0
 20 21  2  0
 21 16  1  0
M  END

$$$$
No_1175-/dssg/home/sw_qyf/PocketFlow/Model-Generation-Results/5HT2A_7WC7_rec_A_10.pdb/2024-01-01-03-54-21/
     RDKit          3D

 26 27  0  0  0  0  0  0  0  0999 V2000
  -23.1746  -16.6014  144.8668 C   0  0  0  0  0  0  0  0  0  0  0  0
  -23.7011  -17.0158  145.9774 C   0  0  0  0  0  0  0  0  0  0  0  0
  -23.7336  -18.2775  146.3737 C   0  0  0  0  0  0  0  0  0  0  0  0
  -23.5409  -19.2836  145.4567 C   0  0  0  0  0  0  0  0  0  0  0  0
  -23.2303  -15.1836  144.5024 C   0  0  0  0  0  0  0  0  0  0  0  0
  -23.9488  -14.2204  145.2760 C   0  0  0  0  0  0  0  0  0  0  0  0
  -24.5620  -14.6805  146.4785 C   0  0  0  0  0  0  0  0  0  0  0  0
  -24.4148  -16.0451  146.8638 C   0  0  0  0  0  0  0  0  0  0  0  0
  -23.9563  -12.7950  144.9884 C   0  0  0  0  0  0  0  0  0  0  0  0
  -22.8548  -12.0250  145.5309 C   0  0  0  0  0  0  0  0  0  0  0  0
  -25.2971  -12.2104  145.4944 C   0  0  0  0  0  0  0  0  0  0  0  0
  -25.8990  -11.2371  144.6364 C   0  0  0  0  0  0  0  0  0  0  0  0
  -27.2753  -10.8168  144.9346 C   0  0  0  0  0  0  0  0  0  0  0  0
  -27.9663  -10.0363  143.9917 C   0  0  0  0  0  0  0  0  0  0  0  0
  -29.3458   -9.7307  144.2653 C   0  0  0  0  0  0  0  0  0  0  0  0
  -30.1186   -8.9679  143.3990 C   0  0  0  0  0  0  0  0  0  0  0  0
  -31.3981   -8.6080  143.6632 C   0  0  0  0  0  0  0  0  0  0  0  0
  -29.3588   -7.8699  142.7189 C   0  0  0  0  0  0  0  0  0  0  0  0
  -29.3405   -8.2285  141.2215 C   0  0  0  0  0  0  0  0  0  0  0  0
  -28.8415   -9.3226  140.7348 C   0  0  0  0  0  0  0  0  0  0  0  0
  -28.4468   -9.3708  139.4042 C   0  0  0  0  0  0  0  0  0  0  0  0
  -28.7930   -8.2893  138.5281 C   0  0  0  0  0  0  0  0  0  0  0  0
  -29.3827   -7.2047  139.0947 N   0  0  0  0  0  0  0  0  0  0  0  0
  -29.6088   -7.0723  140.3330 C   0  0  0  0  0  0  0  0  0  0  0  0
  -28.5378   -8.3546  137.2646 N   0  0  0  0  0  0  0  0  0  0  0  0
  -29.9604  -10.4813  145.1218 F   0  0  0  0  0  0  0  0  0  0  0  0
  3  4  1  0
  6  9  1  0
  9 10  1  0
  9 11  1  0
 11 12  1  0
 12 13  1  0
 13 14  2  3
 14 15  1  0
 15 16  2  3
 16 17  1  0
 16 18  1  0
 18 19  1  0
 22 25  1  0
 15 26  1  0
  3  2  1  0
  1  2  2  0
  2  8  1  0
  8  7  2  0
  7  6  1  0
  6  5  2  0
  5  1  1  0
 19 20  2  0
 20 21  1  0
 21 22  2  0
 22 23  1  0
 23 24  2  0
 24 19  1  0
M  END

$$$$
No_1176-/dssg/home/sw_qyf/PocketFlow/Model-Generation-Results/5HT2A_7WC7_rec_A_10.pdb/2024-01-01-03-54-21/
     RDKit          3D

 16 17  0  0  0  0  0  0  0  0999 V2000
  -24.1553  -17.8465  145.7021 C   0  0  0  0  0  0  0  0  0  0  0  0
  -23.9795  -18.4462  146.7426 C   0  0  0  0  0  0  0  0  0  0  0  0
  -24.3577  -16.4380  145.7329 C   0  0  0  0  0  0  0  0  0  0  0  0
  -24.6120  -15.7738  146.9649 C   0  0  0  0  0  0  0  0  0  0  0  0
  -24.9231  -14.3801  146.9818 C   0  0  0  0  0  0  0  0  0  0  0  0
  -25.0762  -13.7422  145.9933 C   0  0  0  0  0  0  0  0  0  0  0  0
  -24.7667  -14.3087  144.6911 C   0  0  0  0  0  0  0  0  0  0  0  0
  -24.4702  -15.6577  144.6547 C   0  0  0  0  0  0  0  0  0  0  0  0
  -24.1902  -17.8625  148.0879 C   0  0  0  0  0  0  0  0  0  0  0  0
  -24.4318  -16.5140  148.2505 C   0  0  0  0  0  0  0  0  0  0  0  0
  -24.8442  -13.5907  143.5838 O   0  0  0  0  0  0  0  0  0  0  0  0
  -25.3577  -12.2188  145.9929 C   0  0  0  0  0  0  0  0  0  0  0  0
  -25.3464  -11.7107  147.2064 F   0  0  0  0  0  0  0  0  0  0  0  0
  -24.4329  -11.5582  145.2787 F   0  0  0  0  0  0  0  0  0  0  0  0
  -26.5765  -12.0287  145.4808 F   0  0  0  0  0  0  0  0  0  0  0  0
  -23.9908  -18.4334  144.5697 F   0  0  0  0  0  0  0  0  0  0  0  0
  7 11  1  0
  6 12  1  0
 12 13  1  0
 12 14  1  0
 12 15  1  0
  1 16  1  0
  4  5  2  0
  5  6  1  0
  6  7  2  0
  7  8  1  0
  8  3  2  0
  1  2  2  0
  2  9  1  0
  9 10  2  0
 10  4  1  0
  4  3  1  0
  3  1  1  0
M  END

$$$$
No_1177-/dssg/home/sw_qyf/PocketFlow/Model-Generation-Results/5HT2A_7WC7_rec_A_10.pdb/2024-01-01-03-54-21/
     RDKit          3D

  8  8  0  0  0  0  0  0  0  0999 V2000
  -23.1746  -16.6014  144.8668 C   0  0  0  0  0  0  0  0  0  0  0  0
  -23.7011  -17.0158  145.9774 C   0  0  0  0  0  0  0  0  0  0  0  0
  -24.0502  -18.2101  146.3018 C   0  0  0  0  0  0  0  0  0  0  0  0
  -24.6027  -18.5663  147.5667 C   0  0  0  0  0  0  0  0  0  0  0  0
  -24.7539  -17.5194  148.5563 C   0  0  0  0  0  0  0  0  0  0  0  0
  -24.6083  -16.1798  148.2114 C   0  0  0  0  0  0  0  0  0  0  0  0
  -23.9574  -15.9002  147.0100 C   0  0  0  0  0  0  0  0  0  0  0  0
  -23.2827  -17.3623  143.8451 O   0  0  0  0  0  0  0  0  0  0  0  0
  1  8  2  0
  1  2  1  0
  2  3  2  0
  3  4  1  0
  4  5  2  0
  5  6  1  0
  6  7  2  0
  7  2  1  0
M  END

$$$$
No_1178-/dssg/home/sw_qyf/PocketFlow/Model-Generation-Results/5HT2A_7WC7_rec_A_10.pdb/2024-01-01-03-54-21/
     RDKit          3D

 30 32  0  0  0  0  0  0  0  0999 V2000
  -23.1746  -16.6014  144.8668 C   0  0  0  0  0  0  0  0  0  0  0  0
  -24.0189  -16.0564  145.8445 C   0  0  0  0  0  0  0  0  0  0  0  0
  -24.4145  -16.8299  146.9062 C   0  0  0  0  0  0  0  0  0  0  0  0
  -23.8925  -17.9780  147.0944 C   0  0  0  0  0  0  0  0  0  0  0  0
  -23.0516  -18.5662  146.1819 C   0  0  0  0  0  0  0  0  0  0  0  0
  -22.7171  -17.7851  145.1421 N   0  0  0  0  0  0  0  0  0  0  0  0
  -24.6209  -14.6613  145.5749 C   0  0  0  0  0  0  0  0  0  0  0  0
  -25.5661  -14.1599  146.1986 C   0  0  0  0  0  0  0  0  0  0  0  0
  -25.9841  -12.7652  146.0431 C   0  0  0  0  0  0  0  0  0  0  0  0
  -25.2439  -11.9318  145.2670 C   0  0  0  0  0  0  0  0  0  0  0  0
  -24.0547  -12.4446  144.6795 C   0  0  0  0  0  0  0  0  0  0  0  0
  -23.6774  -13.7850  144.8132 C   0  0  0  0  0  0  0  0  0  0  0  0
  -25.5194  -10.6281  145.1484 O   0  0  0  0  0  0  0  0  0  0  0  0
  -26.7918  -10.3471  144.5187 C   0  0  0  0  0  0  0  0  0  0  0  0
  -27.3357  -11.1606  143.7336 C   0  0  0  0  0  0  0  0  0  0  0  0
  -28.3206  -10.7170  142.8363 C   0  0  0  0  0  0  0  0  0  0  0  0
  -29.0134   -9.4859  143.0272 C   0  0  0  0  0  0  0  0  0  0  0  0
  -28.2893   -8.6041  143.9861 C   0  0  0  0  0  0  0  0  0  0  0  0
  -27.2059   -8.9777  144.5966 C   0  0  0  0  0  0  0  0  0  0  0  0
  -30.1048   -9.0450  142.2892 C   0  0  0  0  0  0  0  0  0  0  0  0
  -29.9010   -8.0982  141.2556 C   0  0  0  0  0  0  0  0  0  0  0  0
  -29.5940   -8.5344  139.9237 C   0  0  0  0  0  0  0  0  0  0  0  0
  -28.5249   -7.7906  139.2984 C   0  0  0  0  0  0  0  0  0  0  0  0
  -31.3835   -9.5342  142.5907 C   0  0  0  0  0  0  0  0  0  0  0  0
  -32.2729   -8.7093  142.9595 O   0  0  0  0  0  0  0  0  0  0  0  0
  -27.8532   -8.5111  138.2637 C   0  0  0  0  0  0  0  0  0  0  0  0
  -27.2367  -12.3087  146.7108 C   0  0  0  0  0  0  0  0  0  0  0  0
  -28.3649  -13.2477  146.7739 C   0  0  0  0  0  0  0  0  0  0  0  0
  -28.3601  -14.5839  146.5554 C   0  0  0  0  0  0  0  0  0  0  0  0
  -29.5176  -15.2734  146.8667 C   0  0  0  0  0  0  0  0  0  0  0  0
  2  7  1  0
 10 13  1  0
 13 14  1  0
 17 20  1  0
 20 21  1  0
 21 22  1  0
 22 23  1  0
 20 24  1  0
 24 25  1  0
 23 26  1  0
  9 27  1  0
 27 28  1  0
 28 29  2  3
 29 30  1  0
  1  2  2  0
  2  3  1  0
  3  4  2  0
  4  5  1  0
  5  6  2  0
  6  1  1  0
 14 15  2  0
 15 16  1  0
 16 17  2  0
 17 18  1  0
 18 19  2  0
 19 14  1  0
  7  8  2  0
  8  9  1  0
  9 10  2  0
 10 11  1  0
 11 12  2  0
 12  7  1  0
M  END

$$$$
No_1179-/dssg/home/sw_qyf/PocketFlow/Model-Generation-Results/5HT2A_7WC7_rec_A_10.pdb/2024-01-01-03-54-21/
     RDKit          3D

 35 37  0  0  0  0  0  0  0  0999 V2000
  -24.1553  -17.8465  145.7021 C   0  0  0  0  0  0  0  0  0  0  0  0
  -23.9795  -18.4462  146.7426 C   0  0  0  0  0  0  0  0  0  0  0  0
  -24.2723  -16.4220  145.8037 C   0  0  0  0  0  0  0  0  0  0  0  0
  -24.4589  -15.5647  144.6216 C   0  0  0  0  0  0  0  0  0  0  0  0
  -23.8419  -17.9056  148.0715 C   0  0  0  0  0  0  0  0  0  0  0  0
  -24.0803  -16.5134  148.1749 C   0  0  0  0  0  0  0  0  0  0  0  0
  -24.2908  -15.7608  147.1225 C   0  0  0  0  0  0  0  0  0  0  0  0
  -24.9354  -14.2126  144.7949 C   0  0  0  0  0  0  0  0  0  0  0  0
  -24.9992  -13.6759  143.9104 C   0  0  0  0  0  0  0  0  0  0  0  0
  -24.8803  -14.1618  142.7503 F   0  0  0  0  0  0  0  0  0  0  0  0
  -24.4897  -14.3462  147.0291 C   0  0  0  0  0  0  0  0  0  0  0  0
  -24.7730  -13.5747  146.0722 C   0  0  0  0  0  0  0  0  0  0  0  0
  -25.0894  -12.3895  143.6843 F   0  0  0  0  0  0  0  0  0  0  0  0
  -25.0304  -12.3224  146.2518 O   0  0  0  0  0  0  0  0  0  0  0  0
  -25.8866  -11.5184  145.5824 C   0  0  0  0  0  0  0  0  0  0  0  0
  -26.5133  -11.8264  144.8014 C   0  0  0  0  0  0  0  0  0  0  0  0
  -27.2755  -11.0756  143.8236 C   0  0  0  0  0  0  0  0  0  0  0  0
  -27.4636  -13.0817  145.0014 C   0  0  0  0  0  0  0  0  0  0  0  0
  -27.6937  -11.2346  142.6694 C   0  0  0  0  0  0  0  0  0  0  0  0
  -28.4166  -10.4205  141.8405 C   0  0  0  0  0  0  0  0  0  0  0  0
  -29.2566   -9.7005  142.2090 C   0  0  0  0  0  0  0  0  0  0  0  0
  -30.1516   -8.8176  141.4670 C   0  0  0  0  0  0  0  0  0  0  0  0
  -31.2353   -8.1853  142.1077 C   0  0  0  0  0  0  0  0  0  0  0  0
  -31.3413   -8.3853  143.6181 C   0  0  0  0  0  0  0  0  0  0  0  0
  -30.5513   -9.1944  144.3652 C   0  0  0  0  0  0  0  0  0  0  0  0
  -29.5343   -9.8522  143.7615 C   0  0  0  0  0  0  0  0  0  0  0  0
  -29.7658   -8.3941  140.2342 C   0  0  0  0  0  0  0  0  0  0  0  0
  -28.5142   -7.5875  140.1203 C   0  0  0  0  0  0  0  0  0  0  0  0
  -28.1054   -7.3501  138.7219 C   0  0  0  0  0  0  0  0  0  0  0  0
  -28.4665   -8.4813  137.7886 C   0  0  0  0  0  0  0  0  0  0  0  0
  -27.9508   -9.9441  137.9251 C   0  0  0  0  0  0  0  0  0  0  0  0
  -28.5147  -10.9505  137.2803 C   0  0  0  0  0  0  0  0  0  0  0  0
  -27.9854  -12.2337  137.5036 C   0  0  0  0  0  0  0  0  0  0  0  0
  -27.1528  -12.4191  138.6602 C   0  0  0  0  0  0  0  0  0  0  0  0
  -26.6266  -11.3226  139.3580 C   0  0  0  0  0  0  0  0  0  0  0  0
  9 10  1  0
  9 13  1  0
 12 14  1  0
 14 15  1  0
 15 16  2  3
 16 17  1  0
 16 18  1  0
 17 19  2  3
 19 20  1  0
 22 27  1  0
 27 28  1  0
 28 29  1  0
 29 30  1  0
 30 31  1  0
 31 32  2  3
 32 33  1  0
 33 34  2  3
 34 35  1  0
  9  8  1  0
 20 21  1  0
  3  4  2  0
  4  8  1  0
  8 12  2  0
 12 11  1  0
 11  7  2  0
  1  2  2  0
  2  5  1  0
  5  6  2  0
  6  7  1  0
  7  3  1  0
  3  1  1  0
 21 22  2  0
 22 23  1  0
 23 24  2  0
 24 25  1  0
 25 26  2  0
 26 21  1  0
M  END

$$$$
No_1180-/dssg/home/sw_qyf/PocketFlow/Model-Generation-Results/5HT2A_7WC7_rec_A_10.pdb/2024-01-01-03-54-21/
     RDKit          3D

 19 21  0  0  0  0  0  0  0  0999 V2000
  -24.1553  -17.8465  145.7021 C   0  0  0  0  0  0  0  0  0  0  0  0
  -24.6364  -17.2931  146.7091 C   0  0  0  0  0  0  0  0  0  0  0  0
  -25.8608  -16.5592  146.5934 C   0  0  0  0  0  0  0  0  0  0  0  0
  -25.9534  -15.5604  145.6681 C   0  0  0  0  0  0  0  0  0  0  0  0
  -24.8399  -15.4389  144.8356 C   0  0  0  0  0  0  0  0  0  0  0  0
  -23.9398  -16.6015  144.7183 C   0  0  0  0  0  0  0  0  0  0  0  0
  -26.9037  -14.4944  145.6898 C   0  0  0  0  0  0  0  0  0  0  0  0
  -26.7464  -13.2412  145.8991 C   0  0  0  0  0  0  0  0  0  0  0  0
  -27.7885  -12.2460  145.8503 C   0  0  0  0  0  0  0  0  0  0  0  0
  -29.0264  -12.3083  146.6383 C   0  0  0  0  0  0  0  0  0  0  0  0
  -29.8915  -11.5814  146.4555 C   0  0  0  0  0  0  0  0  0  0  0  0
  -29.8646  -10.4773  145.4535 C   0  0  0  0  0  0  0  0  0  0  0  0
  -30.8383   -9.6158  145.1314 C   0  0  0  0  0  0  0  0  0  0  0  0
  -28.6177  -10.3823  144.6750 C   0  0  0  0  0  0  0  0  0  0  0  0
  -28.4102   -9.4401  143.7223 C   0  0  0  0  0  0  0  0  0  0  0  0
  -27.5632  -11.3674  145.0370 C   0  0  0  0  0  0  0  0  0  0  0  0
  -30.8093   -8.7239  144.0047 C   0  0  0  0  0  0  0  0  0  0  0  0
  -29.5231   -8.5451  143.4234 C   0  0  0  0  0  0  0  0  0  0  0  0
  -24.2542  -14.3601  144.6471 F   0  0  0  0  0  0  0  0  0  0  0  0
  4  7  1  0
  7  8  2  3
  8  9  1  0
  5 19  1  0
 12 13  1  0
 13 17  2  0
 17 18  1  0
 18 15  2  0
 15 14  1  0
  1  2  2  0
  2  3  1  0
  3  4  2  0
  4  5  1  0
  5  6  2  0
  6  1  1  0
  9 10  2  0
 10 11  1  0
 11 12  2  0
 12 14  1  0
 14 16  2  0
 16  9  1  0
M  END

$$$$
No_1181-/dssg/home/sw_qyf/PocketFlow/Model-Generation-Results/5HT2A_7WC7_rec_A_10.pdb/2024-01-01-03-54-21/
     RDKit          3D

 35 39  0  0  0  0  0  0  0  0999 V2000
  -24.1553  -17.8465  145.7021 C   0  0  0  0  0  0  0  0  0  0  0  0
  -24.2856  -16.6364  145.3494 C   0  0  0  0  0  0  0  0  0  0  0  0
  -23.7824  -15.9602  144.3554 C   0  0  0  0  0  0  0  0  0  0  0  0
  -24.0538  -14.4894  144.2905 C   0  0  0  0  0  0  0  0  0  0  0  0
  -24.9129  -13.8911  145.2692 C   0  0  0  0  0  0  0  0  0  0  0  0
  -25.1306  -12.4540  145.2697 C   0  0  0  0  0  0  0  0  0  0  0  0
  -26.1639  -11.9187  144.9288 C   0  0  0  0  0  0  0  0  0  0  0  0
  -25.0926  -15.8227  146.4125 C   0  0  0  0  0  0  0  0  0  0  0  0
  -25.6039  -16.5753  147.5465 C   0  0  0  0  0  0  0  0  0  0  0  0
  -25.3282  -14.5157  146.2867 C   0  0  0  0  0  0  0  0  0  0  0  0
  -27.4352  -12.4139  145.3782 C   0  0  0  0  0  0  0  0  0  0  0  0
  -28.6678  -11.7061  145.1802 C   0  0  0  0  0  0  0  0  0  0  0  0
  -28.7052  -10.5604  144.3598 C   0  0  0  0  0  0  0  0  0  0  0  0
  -27.3902  -10.0149  143.9784 C   0  0  0  0  0  0  0  0  0  0  0  0
  -26.1965  -10.6313  144.3422 C   0  0  0  0  0  0  0  0  0  0  0  0
  -23.5708  -18.5677  146.3233 C   0  0  0  0  0  0  0  0  0  0  0  0
  -23.2670  -18.4994  147.5273 N   0  0  0  0  0  0  0  0  0  0  0  0
  -29.8984   -9.7912  144.1027 C   0  0  0  0  0  0  0  0  0  0  0  0
  -30.4753   -9.2575  145.0706 O   0  0  0  0  0  0  0  0  0  0  0  0
  -30.3222   -9.7915  142.8714 N   0  0  0  0  0  0  0  0  0  0  0  0
  -29.6093  -10.1569  141.6942 C   0  0  0  0  0  0  0  0  0  0  0  0
  -23.8847  -17.3282  148.4877 C   0  0  0  0  0  0  0  0  0  0  0  0
  -24.8363  -16.6897  148.4594 N   0  0  0  0  0  0  0  0  0  0  0  0
  -23.0528  -19.7870  145.9640 N   0  0  0  0  0  0  0  0  0  0  0  0
  -23.1932  -17.4861  149.7488 N   0  0  0  0  0  0  0  0  0  0  0  0
  -29.1370   -9.0368  140.9510 C   0  0  0  0  0  0  0  0  0  0  0  0
  -28.4018   -9.2422  139.7354 C   0  0  0  0  0  0  0  0  0  0  0  0
  -28.0059   -8.1376  139.0004 C   0  0  0  0  0  0  0  0  0  0  0  0
  -28.7981   -6.9372  139.1241 C   0  0  0  0  0  0  0  0  0  0  0  0
  -29.7361   -7.6698  141.0255 C   0  0  0  0  0  0  0  0  0  0  0  0
  -29.4462   -6.7340  140.2489 N   0  0  0  0  0  0  0  0  0  0  0  0
  -27.7777  -10.5154  139.5932 C   0  0  0  0  0  0  0  0  0  0  0  0
  -27.8167  -11.5347  140.3268 C   0  0  0  0  0  0  0  0  0  0  0  0
  -28.8610  -11.3524  141.5638 C   0  0  0  0  0  0  0  0  0  0  0  0
  -27.2726  -12.8353  140.2177 C   0  0  0  0  0  0  0  0  0  0  0  0
  1  2  1  0
  5  6  1  0
  8  9  1  0
  1 16  1  0
 16 17  2  3
 13 18  1  0
 18 19  2  0
 18 20  1  0
 20 21  1  0
 17 22  1  0
  9 23  1  0
 22 23  1  0
 16 24  1  0
 22 25  1  0
 33 35  1  0
  6  7  1  0
 27 28  2  0
 28 29  1  0
 29 31  2  0
 31 30  1  0
 30 26  2  0
 21 26  1  0
 26 27  1  0
 27 32  1  0
 32 33  2  0
 33 34  1  0
 34 21  2  0
  7 11  2  0
 11 12  1  0
 12 13  2  0
 13 14  1  0
 14 15  2  0
 15  7  1  0
  2  3  2  0
  3  4  1  0
  4  5  2  0
  5 10  1  0
 10  8  2  0
  8  2  1  0
M  END

$$$$
No_1182-/dssg/home/sw_qyf/PocketFlow/Model-Generation-Results/5HT2A_7WC7_rec_A_10.pdb/2024-01-01-03-54-21/
     RDKit          3D

 14 14  0  0  0  0  0  0  0  0999 V2000
  -23.1746  -16.6014  144.8668 C   0  0  0  0  0  0  0  0  0  0  0  0
  -23.7011  -17.0158  145.9774 C   0  0  0  0  0  0  0  0  0  0  0  0
  -23.7336  -18.2775  146.3737 C   0  0  0  0  0  0  0  0  0  0  0  0
  -24.1960  -18.6445  147.6858 C   0  0  0  0  0  0  0  0  0  0  0  0
  -24.7100  -17.6145  148.5486 C   0  0  0  0  0  0  0  0  0  0  0  0
  -24.7929  -16.2635  148.0870 C   0  0  0  0  0  0  0  0  0  0  0  0
  -24.2508  -15.9434  146.8891 C   0  0  0  0  0  0  0  0  0  0  0  0
  -22.9131  -15.3694  144.6484 O   0  0  0  0  0  0  0  0  0  0  0  0
  -23.8154  -14.4512  145.0167 C   0  0  0  0  0  0  0  0  0  0  0  0
  -24.6756  -14.5263  145.5737 C   0  0  0  0  0  0  0  0  0  0  0  0
  -25.9186  -13.8287  146.0366 C   0  0  0  0  0  0  0  0  0  0  0  0
  -23.4701  -15.3573  147.1927 O   0  0  0  0  0  0  0  0  0  0  0  0
  -25.9442  -15.2035  144.7877 C   0  0  0  0  0  0  0  0  0  0  0  0
  -25.4989  -12.5004  146.3649 C   0  0  0  0  0  0  0  0  0  0  0  0
  1  2  1  0
  1  8  1  0
  8  9  1  0
  9 10  2  3
 10 11  1  0
  7 12  1  0
 10 13  1  0
 11 14  1  0
  2  3  2  0
  3  4  1  0
  4  5  2  0
  5  6  1  0
  6  7  2  0
  7  2  1  0
M  END

$$$$
No_1183-/dssg/home/sw_qyf/PocketFlow/Model-Generation-Results/5HT2A_7WC7_rec_A_10.pdb/2024-01-01-03-54-21/
     RDKit          3D

 29 30  0  0  0  0  0  0  0  0999 V2000
  -24.1553  -17.8465  145.7021 C   0  0  0  0  0  0  0  0  0  0  0  0
  -23.9795  -18.4462  146.7426 C   0  0  0  0  0  0  0  0  0  0  0  0
  -24.2723  -16.4220  145.8037 C   0  0  0  0  0  0  0  0  0  0  0  0
  -24.9934  -15.8373  146.8363 C   0  0  0  0  0  0  0  0  0  0  0  0
  -24.4240  -17.9698  148.0343 C   0  0  0  0  0  0  0  0  0  0  0  0
  -24.7712  -16.6380  148.1358 C   0  0  0  0  0  0  0  0  0  0  0  0
  -24.1704  -15.5702  144.5991 C   0  0  0  0  0  0  0  0  0  0  0  0
  -23.2697  -14.4562  144.8322 C   0  0  0  0  0  0  0  0  0  0  0  0
  -23.9924  -13.2340  145.2631 C   0  0  0  0  0  0  0  0  0  0  0  0
  -23.3110  -11.9759  145.1012 C   0  0  0  0  0  0  0  0  0  0  0  0
  -25.2571  -13.2584  145.8449 C   0  0  0  0  0  0  0  0  0  0  0  0
  -26.1863  -12.4461  145.4289 C   0  0  0  0  0  0  0  0  0  0  0  0
  -26.9533  -12.5214  144.4320 C   0  0  0  0  0  0  0  0  0  0  0  0
  -27.9298  -11.6023  143.9777 C   0  0  0  0  0  0  0  0  0  0  0  0
  -28.4892  -10.7948  144.8063 C   0  0  0  0  0  0  0  0  0  0  0  0
  -29.4736   -9.8231  144.4103 C   0  0  0  0  0  0  0  0  0  0  0  0
  -29.4553   -9.3446  143.2034 C   0  0  0  0  0  0  0  0  0  0  0  0
  -28.8225  -10.1872  142.1924 C   0  0  0  0  0  0  0  0  0  0  0  0
  -27.9181  -11.1612  142.6218 C   0  0  0  0  0  0  0  0  0  0  0  0
  -30.6282   -8.5642  142.7395 C   0  0  0  0  0  0  0  0  0  0  0  0
  -32.0698   -8.5807  143.4877 Cl  0  0  0  0  0  0  0  0  0  0  0  0
  -30.3219   -7.6044  141.6906 C   0  0  0  0  0  0  0  0  0  0  0  0
  -29.1441   -7.4023  141.2212 C   0  0  0  0  0  0  0  0  0  0  0  0
  -29.0396   -7.9017  139.7962 C   0  0  0  0  0  0  0  0  0  0  0  0
  -28.6042   -8.8853  139.3656 C   0  0  0  0  0  0  0  0  0  0  0  0
  -27.9806   -8.9753  138.1913 C   0  0  0  0  0  0  0  0  0  0  0  0
  -28.2642   -7.9437  137.2413 C   0  0  0  0  0  0  0  0  0  0  0  0
  -26.3322  -11.1733  146.2554 C   0  0  0  0  0  0  0  0  0  0  0  0
  -23.7030  -11.0099  145.4822 O   0  0  0  0  0  0  0  0  0  0  0  0
  3  7  1  0
  7  8  1  0
  8  9  1  0
  9 10  2  0
  9 11  1  0
 11 12  1  0
 12 13  2  3
 13 14  1  0
 14 15  1  0
 15 16  1  0
 16 17  1  0
 17 18  1  0
 14 19  1  0
 18 19  1  0
 17 20  1  0
 20 21  1  0
 20 22  1  0
 22 23  1  0
 23 24  1  0
 24 25  1  0
 25 26  2  3
 26 27  1  0
 12 28  1  0
 10 29  2  0
  1  2  2  0
  2  5  1  0
  5  6  2  0
  6  4  1  0
  4  3  2  0
  3  1  1  0
M  END

$$$$
No_1184-/dssg/home/sw_qyf/PocketFlow/Model-Generation-Results/5HT2A_7WC7_rec_A_10.pdb/2024-01-01-03-54-21/
     RDKit          3D

 26 28  0  0  0  0  0  0  0  0999 V2000
  -24.1553  -17.8465  145.7021 C   0  0  0  0  0  0  0  0  0  0  0  0
  -24.2856  -16.6364  145.3494 C   0  0  0  0  0  0  0  0  0  0  0  0
  -24.7211  -15.5955  146.2115 C   0  0  0  0  0  0  0  0  0  0  0  0
  -25.1322  -16.0374  147.5372 C   0  0  0  0  0  0  0  0  0  0  0  0
  -24.5141  -18.2630  147.0046 C   0  0  0  0  0  0  0  0  0  0  0  0
  -24.9573  -17.2963  147.9768 C   0  0  0  0  0  0  0  0  0  0  0  0
  -24.8747  -14.1906  145.7995 C   0  0  0  0  0  0  0  0  0  0  0  0
  -25.6087  -13.2864  146.3280 C   0  0  0  0  0  0  0  0  0  0  0  0
  -25.9022  -12.2302  145.8598 C   0  0  0  0  0  0  0  0  0  0  0  0
  -25.0468  -11.5091  144.9382 C   0  0  0  0  0  0  0  0  0  0  0  0
  -24.0665  -13.8177  144.6206 C   0  0  0  0  0  0  0  0  0  0  0  0
  -23.1459  -14.4685  143.9655 N   0  0  0  0  0  0  0  0  0  0  0  0
  -24.1320  -12.3661  144.2858 C   0  0  0  0  0  0  0  0  0  0  0  0
  -25.3595  -17.7499  149.5877 Cl  0  0  0  0  0  0  0  0  0  0  0  0
  -25.2556  -10.2731  144.5218 O   0  0  0  0  0  0  0  0  0  0  0  0
  -26.8701  -11.1499  146.5592 C   0  0  0  0  0  0  0  0  0  0  0  0
  -28.1353  -11.8486  146.6655 C   0  0  0  0  0  0  0  0  0  0  0  0
  -29.3132  -11.3054  146.0065 C   0  0  0  0  0  0  0  0  0  0  0  0
  -29.2032  -10.7130  144.8434 N   0  0  0  0  0  0  0  0  0  0  0  0
  -29.9641   -9.6777  144.4690 C   0  0  0  0  0  0  0  0  0  0  0  0
  -30.3333   -9.6026  143.0716 C   0  0  0  0  0  0  0  0  0  0  0  0
  -29.2776   -9.3830  142.1810 C   0  0  0  0  0  0  0  0  0  0  0  0
  -28.4377  -10.6539  142.1031 C   0  0  0  0  0  0  0  0  0  0  0  0
  -28.0778  -11.2137  143.4941 C   0  0  0  0  0  0  0  0  0  0  0  0
  -31.4265   -8.5429  142.7290 C   0  0  0  0  0  0  0  0  0  0  0  0
  -31.4415   -8.0358  141.5954 O   0  0  0  0  0  0  0  0  0  0  0  0
  3  7  1  0
 11 12  1  0
  6 14  1  0
 10 15  1  0
  9 16  1  0
 16 17  1  0
 17 18  2  3
 18 19  1  0
 19 20  1  0
 20 21  1  0
 21 22  1  0
 22 23  1  0
 19 24  1  0
 23 24  1  0
 21 25  1  0
 25 26  1  0
  1  2  2  0
  2  3  1  0
  3  4  2  0
  4  6  1  0
  6  5  2  0
  5  1  1  0
  7  8  2  0
  8  9  1  0
  9 10  2  0
 10 13  1  0
 13 11  2  0
 11  7  1  0
M  END

$$$$
No_1185-/dssg/home/sw_qyf/PocketFlow/Model-Generation-Results/5HT2A_7WC7_rec_A_10.pdb/2024-01-01-03-54-21/
     RDKit          3D

 28 30  0  0  0  0  0  0  0  0999 V2000
  -24.1553  -17.8465  145.7021 C   0  0  0  0  0  0  0  0  0  0  0  0
  -24.2856  -16.6364  145.3494 C   0  0  0  0  0  0  0  0  0  0  0  0
  -25.0033  -15.6772  146.0737 C   0  0  0  0  0  0  0  0  0  0  0  0
  -25.6964  -16.1810  147.2049 C   0  0  0  0  0  0  0  0  0  0  0  0
  -24.8143  -18.3454  146.8324 C   0  0  0  0  0  0  0  0  0  0  0  0
  -25.5291  -17.4614  147.6373 C   0  0  0  0  0  0  0  0  0  0  0  0
  -23.6446  -16.0678  144.2141 N   0  0  0  0  0  0  0  0  0  0  0  0
  -25.1743  -14.2616  145.6419 C   0  0  0  0  0  0  0  0  0  0  0  0
  -25.3119  -13.3836  146.2478 C   0  0  0  0  0  0  0  0  0  0  0  0
  -25.4460  -11.9485  145.8596 C   0  0  0  0  0  0  0  0  0  0  0  0
  -26.5704  -11.3388  145.6639 C   0  0  0  0  0  0  0  0  0  0  0  0
  -27.8417  -11.8588  145.9143 C   0  0  0  0  0  0  0  0  0  0  0  0
  -28.8622  -11.5243  145.4035 C   0  0  0  0  0  0  0  0  0  0  0  0
  -28.9572  -10.3947  144.4781 C   0  0  0  0  0  0  0  0  0  0  0  0
  -27.6930   -9.8192  144.1530 C   0  0  0  0  0  0  0  0  0  0  0  0
  -26.5728  -10.2712  144.6574 C   0  0  0  0  0  0  0  0  0  0  0  0
  -30.1820   -9.8483  143.9513 C   0  0  0  0  0  0  0  0  0  0  0  0
  -31.0724   -9.6277  144.4336 O   0  0  0  0  0  0  0  0  0  0  0  0
  -30.0360   -9.4259  142.7010 O   0  0  0  0  0  0  0  0  0  0  0  0
  -30.8275   -8.4358  142.2640 C   0  0  0  0  0  0  0  0  0  0  0  0
  -30.1757   -7.6271  141.2217 C   0  0  0  0  0  0  0  0  0  0  0  0
  -30.1332   -8.1078  139.9260 O   0  0  0  0  0  0  0  0  0  0  0  0
  -24.0132  -14.0718  144.5991 C   0  0  0  0  0  0  0  0  0  0  0  0
  -23.4807  -15.0290  143.8705 N   0  0  0  0  0  0  0  0  0  0  0  0
  -28.9551   -7.9667  139.2980 C   0  0  0  0  0  0  0  0  0  0  0  0
  -28.6131   -8.9913  138.3878 C   0  0  0  0  0  0  0  0  0  0  0  0
  -27.5643   -9.6983  138.8844 F   0  0  0  0  0  0  0  0  0  0  0  0
  -29.0113   -9.2245  137.3551 F   0  0  0  0  0  0  0  0  0  0  0  0
  9 10  1  0
 14 17  1  0
 17 18  2  0
 17 19  1  0
 19 20  1  0
 20 21  1  0
 21 22  1  0
 22 25  1  0
 25 26  1  0
 26 27  1  0
 26 28  1  0
 10 11  1  0
  9  8  1  0
  3  8  1  0
  8 23  2  0
 23 24  1  0
 24  7  2  0
  7  2  1  0
 11 12  2  0
 12 13  1  0
 13 14  2  0
 14 15  1  0
 15 16  2  0
 16 11  1  0
  1  2  2  0
  2  3  1  0
  3  4  2  0
  4  6  1  0
  6  5  2  0
  5  1  1  0
M  END

$$$$
No_1186-/dssg/home/sw_qyf/PocketFlow/Model-Generation-Results/5HT2A_7WC7_rec_A_10.pdb/2024-01-01-03-54-21/
     RDKit          3D

 25 26  0  0  0  0  0  0  0  0999 V2000
  -23.1746  -16.6014  144.8668 C   0  0  0  0  0  0  0  0  0  0  0  0
  -23.8963  -15.5346  144.7885 C   0  0  0  0  0  0  0  0  0  0  0  0
  -23.6398  -14.5115  145.3281 C   0  0  0  0  0  0  0  0  0  0  0  0
  -24.3866  -13.2477  145.3906 C   0  0  0  0  0  0  0  0  0  0  0  0
  -23.7392  -12.0982  145.9891 C   0  0  0  0  0  0  0  0  0  0  0  0
  -23.1316  -17.4762  145.8522 C   0  0  0  0  0  0  0  0  0  0  0  0
  -23.7273  -17.0520  147.1019 C   0  0  0  0  0  0  0  0  0  0  0  0
  -25.1154  -17.0481  147.2466 C   0  0  0  0  0  0  0  0  0  0  0  0
  -26.0174  -17.3736  146.3746 C   0  0  0  0  0  0  0  0  0  0  0  0
  -27.4460  -17.1841  146.5814 C   0  0  0  0  0  0  0  0  0  0  0  0
  -27.8641  -16.6062  147.7785 C   0  0  0  0  0  0  0  0  0  0  0  0
  -26.9925  -16.3586  148.7929 C   0  0  0  0  0  0  0  0  0  0  0  0
  -25.6626  -16.4590  148.5849 C   0  0  0  0  0  0  0  0  0  0  0  0
  -25.7015  -13.2361  144.9207 C   0  0  0  0  0  0  0  0  0  0  0  0
  -26.0544  -13.7733  143.8507 C   0  0  0  0  0  0  0  0  0  0  0  0
  -25.6657  -15.0391  143.2606 C   0  0  0  0  0  0  0  0  0  0  0  0
  -24.8936  -15.7137  143.7559 C   0  0  0  0  0  0  0  0  0  0  0  0
  -27.5169  -13.0481  143.0933 Cl  0  0  0  0  0  0  0  0  0  0  0  0
  -29.2133  -16.4969  148.0383 O   0  0  0  0  0  0  0  0  0  0  0  0
  -29.5222  -15.6221  149.1183 C   0  0  0  0  0  0  0  0  0  0  0  0
  -30.3377  -14.5658  148.6890 C   0  0  0  0  0  0  0  0  0  0  0  0
  -30.0413  -13.6873  147.6199 C   0  0  0  0  0  0  0  0  0  0  0  0
  -30.5151  -12.3398  147.6799 C   0  0  0  0  0  0  0  0  0  0  0  0
  -31.4771  -11.9395  148.4709 O   0  0  0  0  0  0  0  0  0  0  0  0
  -29.7901  -11.3812  147.0056 O   0  0  0  0  0  0  0  0  0  0  0  0
  1  2  1  0
  2  3  2  0
  3  4  1  0
  4  5  2  0
  1  6  1  0
  6  7  1  0
  4 14  1  0
 14 15  2  0
 15 16  1  0
  2 17  1  0
 16 17  1  0
 15 18  1  0
 11 19  1  0
 19 20  1  0
 20 21  1  0
 21 22  2  3
 22 23  1  0
 23 24  1  0
 23 25  2  0
  7  8  1  0
  8  9  2  0
  9 10  1  0
 10 11  2  0
 11 12  1  0
 12 13  2  0
 13  8  1  0
M  END

$$$$
No_1187-/dssg/home/sw_qyf/PocketFlow/Model-Generation-Results/5HT2A_7WC7_rec_A_10.pdb/2024-01-01-03-54-21/
     RDKit          3D

 35 39  0  0  0  0  0  0  0  0999 V2000
  -24.1553  -17.8465  145.7021 C   0  0  0  0  0  0  0  0  0  0  0  0
  -23.9795  -18.4462  146.7426 C   0  0  0  0  0  0  0  0  0  0  0  0
  -23.2486  -17.2339  144.9771 C   0  0  0  0  0  0  0  0  0  0  0  0
  -22.6834  -18.2906  147.4267 C   0  0  0  0  0  0  0  0  0  0  0  0
  -22.6808  -18.3062  148.7120 N   0  0  0  0  0  0  0  0  0  0  0  0
  -23.6987  -15.8881  144.4821 C   0  0  0  0  0  0  0  0  0  0  0  0
  -24.9703  -15.3000  144.7734 C   0  0  0  0  0  0  0  0  0  0  0  0
  -25.2652  -14.0119  144.2500 C   0  0  0  0  0  0  0  0  0  0  0  0
  -26.4438  -13.4779  144.7082 C   0  0  0  0  0  0  0  0  0  0  0  0
  -27.2351  -14.1825  145.6883 C   0  0  0  0  0  0  0  0  0  0  0  0
  -26.8637  -15.3728  146.1742 C   0  0  0  0  0  0  0  0  0  0  0  0
  -25.6732  -15.9717  145.7343 C   0  0  0  0  0  0  0  0  0  0  0  0
  -25.4941  -17.1918  145.8300 N   0  0  0  0  0  0  0  0  0  0  0  0
  -28.4856  -13.4443  146.2043 C   0  0  0  0  0  0  0  0  0  0  0  0
  -28.5920  -12.0180  146.0701 C   0  0  0  0  0  0  0  0  0  0  0  0
  -27.8777  -11.4458  144.9956 C   0  0  0  0  0  0  0  0  0  0  0  0
  -26.7202  -12.0625  144.4419 C   0  0  0  0  0  0  0  0  0  0  0  0
  -28.2914  -10.0700  144.6112 C   0  0  0  0  0  0  0  0  0  0  0  0
  -27.5038   -9.4125  143.6574 C   0  0  0  0  0  0  0  0  0  0  0  0
  -29.6626   -9.6700  144.6907 C   0  0  0  0  0  0  0  0  0  0  0  0
  -30.4649   -9.6000  143.4816 C   0  0  0  0  0  0  0  0  0  0  0  0
  -31.6509   -9.2355  143.5778 O   0  0  0  0  0  0  0  0  0  0  0  0
  -30.0177   -9.9532  142.3685 O   0  0  0  0  0  0  0  0  0  0  0  0
  -29.3556  -14.1340  147.1496 C   0  0  0  0  0  0  0  0  0  0  0  0
  -29.7975  -15.2711  147.0545 N   0  0  0  0  0  0  0  0  0  0  0  0
  -30.0405  -13.3542  148.1004 N   0  0  0  0  0  0  0  0  0  0  0  0
  -30.8447  -14.1801  148.8749 C   0  0  0  0  0  0  0  0  0  0  0  0
  -30.4531  -15.4446  148.3626 C   0  0  0  0  0  0  0  0  0  0  0  0
  -31.5042  -13.8292  150.0315 C   0  0  0  0  0  0  0  0  0  0  0  0
  -31.8963  -14.8237  150.9737 C   0  0  0  0  0  0  0  0  0  0  0  0
  -32.7925  -14.5105  151.9851 C   0  0  0  0  0  0  0  0  0  0  0  0
  -31.9051  -12.4978  150.2985 C   0  0  0  0  0  0  0  0  0  0  0  0
  -32.7733  -12.1760  151.3471 C   0  0  0  0  0  0  0  0  0  0  0  0
  -33.1726  -13.1805  152.2152 C   0  0  0  0  0  0  0  0  0  0  0  0
  -23.3002  -17.1765  149.4704 C   0  0  0  0  0  0  0  0  0  0  0  0
  1  2  1  0
  2  4  1  0
  4  5  1  0
 16 18  1  0
 18 19  1  0
 18 20  1  0
 20 21  1  0
 21 22  1  0
 21 23  2  0
 14 24  1  0
 24 25  2  0
 24 26  1  0
 26 27  2  0
 25 28  1  0
 27 28  1  0
 27 29  1  0
  5 35  1  0
 10 14  1  0
 14 15  2  0
 15 16  1  0
 16 17  2  0
 17  9  1  0
 29 30  2  0
 30 31  1  0
 31 34  2  0
 34 33  1  0
 33 32  2  0
 32 29  1  0
  7  8  1  0
  8  9  2  0
  9 10  1  0
 10 11  2  0
 11 12  1  0
  1  3  2  0
  3  6  1  0
  6  7  2  0
  7 12  1  0
 12 13  2  0
 13  1  1  0
M  END

$$$$
No_1188-/dssg/home/sw_qyf/PocketFlow/Model-Generation-Results/5HT2A_7WC7_rec_A_10.pdb/2024-01-01-03-54-21/
     RDKit          3D

  6  6  0  0  0  0  0  0  0  0999 V2000
  -23.1746  -16.6014  144.8668 C   0  0  0  0  0  0  0  0  0  0  0  0
  -23.7011  -17.0158  145.9774 C   0  0  0  0  0  0  0  0  0  0  0  0
  -24.7096  -16.6222  146.3577 C   0  0  0  0  0  0  0  0  0  0  0  0
  -25.4819  -15.5594  145.8226 C   0  0  0  0  0  0  0  0  0  0  0  0
  -24.9841  -15.0030  144.6879 C   0  0  0  0  0  0  0  0  0  0  0  0
  -23.7823  -15.5257  144.1978 C   0  0  0  0  0  0  0  0  0  0  0  0
  1  2  2  0
  2  3  1  0
  3  4  2  0
  4  5  1  0
  5  6  2  0
  6  1  1  0
M  END

$$$$
No_1189-/dssg/home/sw_qyf/PocketFlow/Model-Generation-Results/5HT2A_7WC7_rec_A_10.pdb/2024-01-01-03-54-21/
     RDKit          3D

 35 38  0  0  0  0  0  0  0  0999 V2000
  -23.8042  -18.1535  145.4053 O   0  0  0  0  0  0  0  0  0  0  0  0
  -24.3135  -17.1214  145.8338 C   0  0  0  0  0  0  0  0  0  0  0  0
  -24.4856  -15.9950  145.0258 C   0  0  0  0  0  0  0  0  0  0  0  0
  -25.3951  -14.9381  145.2879 C   0  0  0  0  0  0  0  0  0  0  0  0
  -26.4201  -15.1689  146.1737 C   0  0  0  0  0  0  0  0  0  0  0  0
  -27.4131  -14.2304  146.5055 C   0  0  0  0  0  0  0  0  0  0  0  0
  -27.1162  -12.9157  146.0652 C   0  0  0  0  0  0  0  0  0  0  0  0
  -26.0711  -12.6109  145.2098 C   0  0  0  0  0  0  0  0  0  0  0  0
  -25.1546  -13.6349  144.8820 C   0  0  0  0  0  0  0  0  0  0  0  0
  -24.8993  -17.1327  147.1763 C   0  0  0  0  0  0  0  0  0  0  0  0
  -26.1766  -16.3315  147.2554 C   0  0  0  0  0  0  0  0  0  0  0  0
  -23.6726  -15.9162  143.9926 O   0  0  0  0  0  0  0  0  0  0  0  0
  -25.8914  -11.4015  144.7626 F   0  0  0  0  0  0  0  0  0  0  0  0
  -28.1760  -11.8054  146.3715 C   0  0  0  0  0  0  0  0  0  0  0  0
  -29.4311  -12.1850  146.9571 C   0  0  0  0  0  0  0  0  0  0  0  0
  -29.7052  -13.3295  147.6801 C   0  0  0  0  0  0  0  0  0  0  0  0
  -28.7402  -14.5082  147.2469 C   0  0  0  0  0  0  0  0  0  0  0  0
  -31.0083  -13.7574  148.0405 C   0  0  0  0  0  0  0  0  0  0  0  0
  -31.4059  -13.1081  149.3601 C   0  0  0  0  0  0  0  0  0  0  0  0
  -32.6219  -13.0866  149.9320 C   0  0  0  0  0  0  0  0  0  0  0  0
  -32.8749  -12.2816  151.0227 C   0  0  0  0  0  0  0  0  0  0  0  0
  -32.6095  -10.8251  150.8675 C   0  0  0  0  0  0  0  0  0  0  0  0
  -28.9286  -15.6538  147.6580 O   0  0  0  0  0  0  0  0  0  0  0  0
  -33.4345  -10.0408  151.8234 C   0  0  0  0  0  0  0  0  0  0  0  0
  -23.3220  -19.0528  146.3479 C   0  0  0  0  0  0  0  0  0  0  0  0
  -30.3503  -11.2534  146.7890 O   0  0  0  0  0  0  0  0  0  0  0  0
  -23.8803  -16.8201  148.1662 C   0  0  0  0  0  0  0  0  0  0  0  0
  -24.4238  -17.1620  149.6020 C   0  0  0  0  0  0  0  0  0  0  0  0
  -25.7488  -17.5149  149.9014 C   0  0  0  0  0  0  0  0  0  0  0  0
  -26.0634  -17.8629  151.2204 C   0  0  0  0  0  0  0  0  0  0  0  0
  -23.4531  -17.1480  150.6715 C   0  0  0  0  0  0  0  0  0  0  0  0
  -22.0550  -16.7916  150.4286 C   0  0  0  0  0  0  0  0  0  0  0  0
  -21.4002  -16.5031  151.6118 N   0  0  0  0  0  0  0  0  0  0  0  0
  -25.0911  -17.9509  152.2489 C   0  0  0  0  0  0  0  0  0  0  0  0
  -23.7820  -17.5388  151.9285 C   0  0  0  0  0  0  0  0  0  0  0  0
  1  2  1  0
  2  3  1  0
  3  4  1  0
  4  5  1  0
  5  6  1  0
  7  8  1  0
  4  9  1  0
  8  9  1  0
  2 10  1  0
  5 11  1  0
 10 11  1  0
  3 12  2  0
  8 13  1  0
  7 14  1  0
 15 16  1  0
  6 17  1  0
 16 17  1  0
 16 18  1  0
 18 19  1  0
 19 20  1  0
 20 21  1  0
 21 22  1  0
 17 23  2  0
 22 24  1  0
  1 25  1  0
 15 26  1  0
 10 27  1  0
 27 28  1  0
 31 32  1  0
 32 33  1  0
  6  7  1  0
 14 15  1  0
 28 29  2  0
 29 30  1  0
 30 34  2  0
 34 35  1  0
 35 31  2  0
 31 28  1  0
M  END

$$$$
No_1190-/dssg/home/sw_qyf/PocketFlow/Model-Generation-Results/5HT2A_7WC7_rec_A_10.pdb/2024-01-01-03-54-21/
     RDKit          3D

 17 17  0  0  0  0  0  0  0  0999 V2000
  -23.1746  -16.6014  144.8668 C   0  0  0  0  0  0  0  0  0  0  0  0
  -23.7011  -17.0158  145.9774 C   0  0  0  0  0  0  0  0  0  0  0  0
  -23.7336  -18.2775  146.3737 C   0  0  0  0  0  0  0  0  0  0  0  0
  -23.2769  -15.1496  144.5841 C   0  0  0  0  0  0  0  0  0  0  0  0
  -24.0862  -14.2431  145.3742 C   0  0  0  0  0  0  0  0  0  0  0  0
  -24.6693  -14.7616  146.5613 C   0  0  0  0  0  0  0  0  0  0  0  0
  -24.4785  -16.1225  146.8850 C   0  0  0  0  0  0  0  0  0  0  0  0
  -24.1082  -12.8176  145.0725 C   0  0  0  0  0  0  0  0  0  0  0  0
  -23.9411  -11.9640  145.9382 N   0  0  0  0  0  0  0  0  0  0  0  0
  -24.2009  -18.8713  147.3176 O   0  0  0  0  0  0  0  0  0  0  0  0
  -22.9001  -19.1462  145.7232 O   0  0  0  0  0  0  0  0  0  0  0  0
  -24.4638  -12.7084  144.0279 O   0  0  0  0  0  0  0  0  0  0  0  0
  -23.7513  -12.2580  147.3548 C   0  0  0  0  0  0  0  0  0  0  0  0
  -23.5021  -20.4977  145.6656 C   0  0  0  0  0  0  0  0  0  0  0  0
  -24.9812  -20.4893  145.7437 C   0  0  0  0  0  0  0  0  0  0  0  0
  -25.2248  -19.5653  145.2985 C   0  0  0  0  0  0  0  0  0  0  0  0
  -25.9280  -18.5928  146.3724 C   0  0  0  0  0  0  0  0  0  0  0  0
  2  3  1  0
  5  8  1  0
  8  9  1  0
  3 10  2  0
  3 11  1  0
  8 12  2  0
  9 13  1  0
 11 14  1  0
 14 15  1  0
 15 16  1  0
 16 17  1  0
  1  2  2  0
  2  7  1  0
  7  6  2  0
  6  5  1  0
  5  4  2  0
  4  1  1  0
M  END

$$$$
No_1191-/dssg/home/sw_qyf/PocketFlow/Model-Generation-Results/5HT2A_7WC7_rec_A_10.pdb/2024-01-01-03-54-21/
     RDKit          3D

 35 39  0  0  0  0  0  0  0  0999 V2000
  -23.1746  -16.6014  144.8668 C   0  0  0  0  0  0  0  0  0  0  0  0
  -23.8963  -15.5346  144.7885 C   0  0  0  0  0  0  0  0  0  0  0  0
  -25.0304  -15.2549  144.5358 C   0  0  0  0  0  0  0  0  0  0  0  0
  -25.6045  -13.9524  144.2294 C   0  0  0  0  0  0  0  0  0  0  0  0
  -26.9716  -13.7632  143.8495 C   0  0  0  0  0  0  0  0  0  0  0  0
  -23.8653  -17.5912  145.6268 C   0  0  0  0  0  0  0  0  0  0  0  0
  -25.2754  -17.3780  145.8827 C   0  0  0  0  0  0  0  0  0  0  0  0
  -25.8269  -16.1794  145.4181 C   0  0  0  0  0  0  0  0  0  0  0  0
  -27.4593  -12.5810  143.3704 C   0  0  0  0  0  0  0  0  0  0  0  0
  -23.3259  -18.7464  145.9445 F   0  0  0  0  0  0  0  0  0  0  0  0
  -27.8051  -12.4245  142.0698 C   0  0  0  0  0  0  0  0  0  0  0  0
  -28.3635  -11.1998  141.5429 C   0  0  0  0  0  0  0  0  0  0  0  0
  -28.6162  -10.9706  140.1925 C   0  0  0  0  0  0  0  0  0  0  0  0
  -28.0148  -11.9589  139.3222 C   0  0  0  0  0  0  0  0  0  0  0  0
  -28.1923  -11.6655  137.9507 C   0  0  0  0  0  0  0  0  0  0  0  0
  -27.3267  -13.2283  140.9800 C   0  0  0  0  0  0  0  0  0  0  0  0
  -27.4138  -12.9848  139.7175 C   0  0  0  0  0  0  0  0  0  0  0  0
  -28.9303  -10.2303  142.6278 C   0  0  0  0  0  0  0  0  0  0  0  0
  -30.0124   -9.4622  142.4923 C   0  0  0  0  0  0  0  0  0  0  0  0
  -30.2463   -8.5552  141.6134 C   0  0  0  0  0  0  0  0  0  0  0  0
  -30.8200   -7.6440  141.6096 C   0  0  0  0  0  0  0  0  0  0  0  0
  -28.1289  -10.1734  143.8962 C   0  0  0  0  0  0  0  0  0  0  0  0
  -27.7203  -11.4219  144.3799 C   0  0  0  0  0  0  0  0  0  0  0  0
  -31.3197  -10.1335  142.9525 C   0  0  0  0  0  0  0  0  0  0  0  0
  -32.3669   -9.1020  143.1761 C   0  0  0  0  0  0  0  0  0  0  0  0
  -32.2728   -7.9203  142.3954 N   0  0  0  0  0  0  0  0  0  0  0  0
  -27.3180  -16.0452  145.6846 C   0  0  0  0  0  0  0  0  0  0  0  0
  -27.6247  -16.1616  147.0953 C   0  0  0  0  0  0  0  0  0  0  0  0
  -28.9100  -15.5863  147.5369 C   0  0  0  0  0  0  0  0  0  0  0  0
  -29.2327  -14.5472  147.4870 C   0  0  0  0  0  0  0  0  0  0  0  0
  -30.5194  -14.0041  148.1123 C   0  0  0  0  0  0  0  0  0  0  0  0
  -31.0945  -12.8121  147.7846 C   0  0  0  0  0  0  0  0  0  0  0  0
  -30.1723  -11.8662  147.1108 C   0  0  0  0  0  0  0  0  0  0  0  0
  -28.8786  -12.1857  146.7869 C   0  0  0  0  0  0  0  0  0  0  0  0
  -28.4326  -13.4850  146.9283 C   0  0  0  0  0  0  0  0  0  0  0  0
  3  4  1  0
  4  5  2  3
  5  9  1  0
  6 10  1  0
 14 15  1  0
 18 19  1  0
  8 27  1  0
 27 28  2  3
 28 29  1  0
 29 30  1  0
  9 11  1  0
 12 18  1  0
 18 22  2  0
 22 23  1  0
 23  9  2  0
  1  2  2  0
  2  3  1  0
  3  8  2  0
  8  7  1  0
  7  6  2  0
  6  1  1  0
 30 31  2  0
 31 32  1  0
 32 33  2  0
 33 34  1  0
 34 35  2  0
 35 30  1  0
 11 12  1  0
 12 13  2  0
 13 14  1  0
 14 17  2  0
 17 16  1  0
 16 11  2  0
 19 20  2  0
 20 21  1  0
 21 26  2  0
 26 25  1  0
 25 24  2  0
 24 19  1  0
M  END

$$$$
No_1192-/dssg/home/sw_qyf/PocketFlow/Model-Generation-Results/5HT2A_7WC7_rec_A_10.pdb/2024-01-01-03-54-21/
     RDKit          3D

 35 38  0  0  0  0  0  0  0  0999 V2000
  -23.1746  -16.6014  144.8668 C   0  0  0  0  0  0  0  0  0  0  0  0
  -23.7011  -17.0158  145.9774 C   0  0  0  0  0  0  0  0  0  0  0  0
  -23.7336  -18.2775  146.3737 C   0  0  0  0  0  0  0  0  0  0  0  0
  -23.2769  -15.1496  144.5841 C   0  0  0  0  0  0  0  0  0  0  0  0
  -24.0862  -14.2431  145.3742 C   0  0  0  0  0  0  0  0  0  0  0  0
  -24.6693  -14.7616  146.5613 C   0  0  0  0  0  0  0  0  0  0  0  0
  -24.4785  -16.1225  146.8850 C   0  0  0  0  0  0  0  0  0  0  0  0
  -24.1265  -12.8301  145.0643 C   0  0  0  0  0  0  0  0  0  0  0  0
  -25.2024  -12.0971  145.5780 C   0  0  0  0  0  0  0  0  0  0  0  0
  -26.4922  -12.0956  145.1162 C   0  0  0  0  0  0  0  0  0  0  0  0
  -27.1216  -10.9147  144.7877 C   0  0  0  0  0  0  0  0  0  0  0  0
  -26.5275  -10.0269  144.0409 C   0  0  0  0  0  0  0  0  0  0  0  0
  -28.6214  -10.7692  144.9528 C   0  0  0  0  0  0  0  0  0  0  0  0
  -29.3460   -9.8442  144.2739 C   0  0  0  0  0  0  0  0  0  0  0  0
  -28.8425   -9.1479  143.2702 C   0  0  0  0  0  0  0  0  0  0  0  0
  -29.6042   -8.3197  142.4668 C   0  0  0  0  0  0  0  0  0  0  0  0
  -30.8911   -7.8866  142.8083 C   0  0  0  0  0  0  0  0  0  0  0  0
  -31.4997   -8.7318  143.8505 C   0  0  0  0  0  0  0  0  0  0  0  0
  -30.7599   -9.6217  144.5335 C   0  0  0  0  0  0  0  0  0  0  0  0
  -27.3333   -9.1119  143.1523 C   0  0  0  0  0  0  0  0  0  0  0  0
  -22.8246  -18.9993  146.4891 O   0  0  0  0  0  0  0  0  0  0  0  0
  -24.8930  -18.7848  147.0334 N   0  0  0  0  0  0  0  0  0  0  0  0
  -27.1056  -13.3697  144.8540 C   0  0  0  0  0  0  0  0  0  0  0  0
  -29.0232   -7.5737  141.3241 C   0  0  0  0  0  0  0  0  0  0  0  0
  -29.5846   -6.4006  140.8507 C   0  0  0  0  0  0  0  0  0  0  0  0
  -28.9379   -8.6039  140.1181 C   0  0  0  0  0  0  0  0  0  0  0  0
  -28.5740   -8.0604  138.8973 C   0  0  0  0  0  0  0  0  0  0  0  0
  -28.7628   -8.9470  137.8524 C   0  0  0  0  0  0  0  0  0  0  0  0
  -28.0912  -10.2185  137.8189 C   0  0  0  0  0  0  0  0  0  0  0  0
  -28.0961  -11.1811  136.9515 C   0  0  0  0  0  0  0  0  0  0  0  0
  -29.0306  -11.2003  135.8983 C   0  0  0  0  0  0  0  0  0  0  0  0
  -23.1557  -12.2796  144.5159 O   0  0  0  0  0  0  0  0  0  0  0  0
  -29.5901  -10.0583  135.5238 C   0  0  0  0  0  0  0  0  0  0  0  0
  -29.4998   -8.9038  136.5093 C   0  0  0  0  0  0  0  0  0  0  0  0
  -27.7245  -13.8945  145.9226 O   0  0  0  0  0  0  0  0  0  0  0  0
  2  3  1  0
  5  8  1  0
  8  9  1  0
  9 10  1  0
 10 11  1  0
  3 21  2  0
  3 22  1  0
 10 23  1  0
 16 24  1  0
 24 25  1  0
 24 26  1  0
 26 27  2  3
 27 28  1  0
  8 32  2  0
 23 35  1  0
 11 12  2  0
 12 20  1  0
 20 15  2  0
 14 13  2  0
 13 11  1  0
 14 15  1  0
 15 16  1  0
 16 17  2  0
 17 18  1  0
 18 19  2  0
 19 14  1  0
  1  2  2  0
  2  7  1  0
  7  6  2  0
  6  5  1  0
  5  4  2  0
  4  1  1  0
 28 29  2  0
 29 30  1  0
 30 31  2  0
 31 33  1  0
 33 34  2  0
 34 28  1  0
M  END

$$$$
No_1193-/dssg/home/sw_qyf/PocketFlow/Model-Generation-Results/5HT2A_7WC7_rec_A_10.pdb/2024-01-01-03-54-21/
     RDKit          3D

 13 14  0  0  0  0  0  0  0  0999 V2000
  -23.1746  -16.6014  144.8668 C   0  0  0  0  0  0  0  0  0  0  0  0
  -24.0189  -16.0564  145.8445 C   0  0  0  0  0  0  0  0  0  0  0  0
  -24.4850  -14.7380  145.6359 C   0  0  0  0  0  0  0  0  0  0  0  0
  -24.0244  -13.9858  144.5634 C   0  0  0  0  0  0  0  0  0  0  0  0
  -24.4938  -12.7588  144.5037 F   0  0  0  0  0  0  0  0  0  0  0  0
  -22.7602  -15.7273  143.8789 C   0  0  0  0  0  0  0  0  0  0  0  0
  -23.0858  -14.4192  143.8152 C   0  0  0  0  0  0  0  0  0  0  0  0
  -24.6626  -16.8454  146.9735 C   0  0  0  0  0  0  0  0  0  0  0  0
  -25.7169  -16.4713  147.5678 C   0  0  0  0  0  0  0  0  0  0  0  0
  -23.9092  -17.9748  147.3617 C   0  0  0  0  0  0  0  0  0  0  0  0
  -25.9096  -16.7139  148.9802 C   0  0  0  0  0  0  0  0  0  0  0  0
  -25.0521  -17.6812  149.5916 C   0  0  0  0  0  0  0  0  0  0  0  0
  -24.0394  -18.2598  148.7985 C   0  0  0  0  0  0  0  0  0  0  0  0
  4  5  1  0
  2  8  1  0
  8  9  2  0
  9 11  1  0
 11 12  2  0
 12 13  1  0
 13 10  2  0
 10  8  1  0
  1  2  2  0
  2  3  1  0
  3  4  2  0
  4  7  1  0
  7  6  2  0
  6  1  1  0
M  END

$$$$
No_1194-/dssg/home/sw_qyf/PocketFlow/Model-Generation-Results/5HT2A_7WC7_rec_A_10.pdb/2024-01-01-03-54-21/
     RDKit          3D

 24 27  0  0  0  0  0  0  0  0999 V2000
  -24.1553  -17.8465  145.7021 C   0  0  0  0  0  0  0  0  0  0  0  0
  -23.9795  -18.4462  146.7426 C   0  0  0  0  0  0  0  0  0  0  0  0
  -25.1593  -16.8262  145.6925 C   0  0  0  0  0  0  0  0  0  0  0  0
  -25.3302  -15.8818  144.5925 C   0  0  0  0  0  0  0  0  0  0  0  0
  -24.4570  -18.1009  148.0274 C   0  0  0  0  0  0  0  0  0  0  0  0
  -25.3496  -17.0286  148.1023 C   0  0  0  0  0  0  0  0  0  0  0  0
  -25.5669  -16.2449  146.9641 C   0  0  0  0  0  0  0  0  0  0  0  0
  -26.3838  -14.9379  144.6390 C   0  0  0  0  0  0  0  0  0  0  0  0
  -26.4968  -13.8520  143.7535 C   0  0  0  0  0  0  0  0  0  0  0  0
  -26.4240  -14.1101  142.3927 C   0  0  0  0  0  0  0  0  0  0  0  0
  -27.0396  -13.2142  141.3909 C   0  0  0  0  0  0  0  0  0  0  0  0
  -27.1310  -13.5985  140.0708 C   0  0  0  0  0  0  0  0  0  0  0  0
  -27.6845  -12.4753  139.2880 C   0  0  0  0  0  0  0  0  0  0  0  0
  -28.0475  -11.2237  139.8486 C   0  0  0  0  0  0  0  0  0  0  0  0
  -28.0044  -11.0519  141.2157 C   0  0  0  0  0  0  0  0  0  0  0  0
  -27.5056  -12.0438  142.0522 C   0  0  0  0  0  0  0  0  0  0  0  0
  -27.4567  -11.8378  143.4454 N   0  0  0  0  0  0  0  0  0  0  0  0
  -27.1156  -12.6904  144.3103 C   0  0  0  0  0  0  0  0  0  0  0  0
  -28.6116   -9.7408  141.7574 C   0  0  0  0  0  0  0  0  0  0  0  0
  -29.1065   -8.7908  140.9108 C   0  0  0  0  0  0  0  0  0  0  0  0
  -29.7724   -7.6590  141.5114 C   0  0  0  0  0  0  0  0  0  0  0  0
  -29.9632   -7.6876  142.9313 C   0  0  0  0  0  0  0  0  0  0  0  0
  -29.6901   -8.7905  143.7106 C   0  0  0  0  0  0  0  0  0  0  0  0
  -28.9656   -9.8557  143.1646 C   0  0  0  0  0  0  0  0  0  0  0  0
  3  4  1  0
  4  8  1  0
  8  9  1  0
 15 19  1  0
 11 12  2  0
 12 13  1  0
 13 14  2  0
 14 15  1  0
 15 16  2  0
  1  2  2  0
  2  5  1  0
  5  6  2  0
  6  7  1  0
  7  3  2  0
  3  1  1  0
 19 20  2  0
 20 21  1  0
 21 22  2  0
 22 23  1  0
 23 24  2  0
 24 19  1  0
  9 10  2  0
 10 11  1  0
 11 16  1  0
 16 17  1  0
 17 18  2  0
 18  9  1  0
M  END

$$$$
No_1195-/dssg/home/sw_qyf/PocketFlow/Model-Generation-Results/5HT2A_7WC7_rec_A_10.pdb/2024-01-01-03-54-21/
     RDKit          3D

 29 33  0  0  0  0  0  0  0  0999 V2000
  -24.1553  -17.8465  145.7021 C   0  0  0  0  0  0  0  0  0  0  0  0
  -23.9795  -18.4462  146.7426 C   0  0  0  0  0  0  0  0  0  0  0  0
  -25.1593  -16.8262  145.6925 C   0  0  0  0  0  0  0  0  0  0  0  0
  -24.9465  -15.5960  144.9952 C   0  0  0  0  0  0  0  0  0  0  0  0
  -23.7067  -15.3931  144.3087 C   0  0  0  0  0  0  0  0  0  0  0  0
  -23.5046  -14.0224  143.7991 C   0  0  0  0  0  0  0  0  0  0  0  0
  -24.7666  -18.2769  147.9054 C   0  0  0  0  0  0  0  0  0  0  0  0
  -25.6664  -17.2108  148.0107 C   0  0  0  0  0  0  0  0  0  0  0  0
  -25.8517  -16.4245  146.8814 C   0  0  0  0  0  0  0  0  0  0  0  0
  -24.6533  -13.2406  144.2740 C   0  0  0  0  0  0  0  0  0  0  0  0
  -25.1500  -14.1295  145.3283 C   0  0  0  0  0  0  0  0  0  0  0  0
  -26.7301  -14.0393  145.6343 C   0  0  0  0  0  0  0  0  0  0  0  0
  -27.2115  -14.7968  146.7212 C   0  0  0  0  0  0  0  0  0  0  0  0
  -26.7853  -15.4548  147.0489 C   0  0  0  0  0  0  0  0  0  0  0  0
  -27.3262  -12.9712  144.8964 C   0  0  0  0  0  0  0  0  0  0  0  0
  -28.2287  -12.0751  145.6768 C   0  0  0  0  0  0  0  0  0  0  0  0
  -28.9514  -11.0888  144.9509 C   0  0  0  0  0  0  0  0  0  0  0  0
  -30.0749  -10.3720  145.5874 C   0  0  0  0  0  0  0  0  0  0  0  0
  -30.5992   -9.4514  144.9351 N   0  0  0  0  0  0  0  0  0  0  0  0
  -30.3337   -9.0548  143.7070 C   0  0  0  0  0  0  0  0  0  0  0  0
  -29.2978   -9.7116  143.0744 C   0  0  0  0  0  0  0  0  0  0  0  0
  -28.6015  -10.6989  143.7183 C   0  0  0  0  0  0  0  0  0  0  0  0
  -31.0791   -8.0516  143.1322 N   0  0  0  0  0  0  0  0  0  0  0  0
  -28.9904   -9.2407  141.7083 C   0  0  0  0  0  0  0  0  0  0  0  0
  -29.6608   -8.1542  141.1599 C   0  0  0  0  0  0  0  0  0  0  0  0
  -30.7549   -7.5928  141.9056 C   0  0  0  0  0  0  0  0  0  0  0  0
  -29.3572   -7.6636  139.8617 C   0  0  0  0  0  0  0  0  0  0  0  0
  -28.4708   -8.2658  138.9912 C   0  0  0  0  0  0  0  0  0  0  0  0
  -28.4831   -8.0088  137.6383 C   0  0  0  0  0  0  0  0  0  0  0  0
  4  5  1  0
  5  6  2  0
  6 10  1  0
  4 11  1  0
 10 11  1  0
 11 12  1  0
 12 13  1  0
  9 14  1  0
 13 14  2  0
 12 15  1  0
 15 16  2  3
 16 17  1  0
 25 27  1  0
 27 28  2  3
 28 29  1  0
  4  3  1  0
 17 18  2  0
 18 19  1  0
 19 20  2  0
 21 22  2  0
 22 17  1  0
 20 21  1  0
 21 24  1  0
 24 25  2  0
 25 26  1  0
 26 23  2  0
 23 20  1  0
  1  2  2  0
  2  7  1  0
  7  8  2  0
  8  9  1  0
  9  3  2  0
  3  1  1  0
M  END

$$$$
No_1196-/dssg/home/sw_qyf/PocketFlow/Model-Generation-Results/5HT2A_7WC7_rec_A_10.pdb/2024-01-01-03-54-21/
     RDKit          3D

 21 22  0  0  0  0  0  0  0  0999 V2000
  -24.1553  -17.8465  145.7021 C   0  0  0  0  0  0  0  0  0  0  0  0
  -23.9795  -18.4462  146.7426 C   0  0  0  0  0  0  0  0  0  0  0  0
  -23.2486  -17.2339  144.9771 C   0  0  0  0  0  0  0  0  0  0  0  0
  -23.6760  -15.7689  144.6822 C   0  0  0  0  0  0  0  0  0  0  0  0
  -25.0460  -15.4028  145.0032 C   0  0  0  0  0  0  0  0  0  0  0  0
  -25.3413  -14.0209  144.7050 C   0  0  0  0  0  0  0  0  0  0  0  0
  -25.9819  -13.2960  145.5886 C   0  0  0  0  0  0  0  0  0  0  0  0
  -27.2245  -13.8836  146.1403 C   0  0  0  0  0  0  0  0  0  0  0  0
  -27.0667  -15.2933  146.4451 C   0  0  0  0  0  0  0  0  0  0  0  0
  -25.9583  -16.0272  145.7414 C   0  0  0  0  0  0  0  0  0  0  0  0
  -23.6377  -17.8024  147.8691 C   0  0  0  0  0  0  0  0  0  0  0  0
  -24.2321  -17.6721  149.2033 C   0  0  0  0  0  0  0  0  0  0  0  0
  -23.5424  -17.0493  150.2580 C   0  0  0  0  0  0  0  0  0  0  0  0
  -28.2429  -13.0897  146.7212 C   0  0  0  0  0  0  0  0  0  0  0  0
  -28.5345  -11.8209  146.2115 C   0  0  0  0  0  0  0  0  0  0  0  0
  -29.8177  -11.2112  146.6366 C   0  0  0  0  0  0  0  0  0  0  0  0
  -30.5658  -11.8157  147.5515 N   0  0  0  0  0  0  0  0  0  0  0  0
  -29.3628  -13.5749  147.5834 C   0  0  0  0  0  0  0  0  0  0  0  0
  -30.3487  -12.9260  148.0449 C   0  0  0  0  0  0  0  0  0  0  0  0
  -22.2123  -16.5745  150.0495 C   0  0  0  0  0  0  0  0  0  0  0  0
  -21.6992  -16.6423  148.8778 N   0  0  0  0  0  0  0  0  0  0  0  0
  1  2  1  0
  1  3  1  0
  3  4  1  0
  2 11  2  3
 11 12  1  0
 12 13  2  3
  8 14  1  0
 13 20  1  0
 20 21  2  0
  4  5  1  0
 14 15  2  0
 15 16  1  0
 16 17  2  0
 17 19  1  0
 19 18  2  0
 18 14  1  0
  5  6  2  0
  6  7  1  0
  7  8  2  0
  8  9  1  0
  9 10  2  0
 10  5  1  0
M  END

$$$$
No_1197-/dssg/home/sw_qyf/PocketFlow/Model-Generation-Results/5HT2A_7WC7_rec_A_10.pdb/2024-01-01-03-54-21/
     RDKit          3D

  4  3  0  0  0  0  0  0  0  0999 V2000
  -23.8042  -18.1535  145.4053 O   0  0  0  0  0  0  0  0  0  0  0  0
  -23.9974  -18.3151  146.4113 C   0  0  0  0  0  0  0  0  0  0  0  0
  -24.5269  -18.4066  147.2752 O   0  0  0  0  0  0  0  0  0  0  0  0
  -22.6622  -19.0036  146.7208 O   0  0  0  0  0  0  0  0  0  0  0  0
  1  2  2  0
  2  3  1  0
  2  4  1  0
M  END

$$$$
No_1198-/dssg/home/sw_qyf/PocketFlow/Model-Generation-Results/5HT2A_7WC7_rec_A_10.pdb/2024-01-01-03-54-21/
     RDKit          3D

 22 23  0  0  0  0  0  0  0  0999 V2000
  -24.1553  -17.8465  145.7021 C   0  0  0  0  0  0  0  0  0  0  0  0
  -24.2856  -16.6364  145.3494 C   0  0  0  0  0  0  0  0  0  0  0  0
  -24.7211  -15.5955  146.2115 C   0  0  0  0  0  0  0  0  0  0  0  0
  -24.8539  -14.2010  145.8739 C   0  0  0  0  0  0  0  0  0  0  0  0
  -25.3912  -13.2248  146.7184 C   0  0  0  0  0  0  0  0  0  0  0  0
  -24.5931  -18.2699  146.9809 C   0  0  0  0  0  0  0  0  0  0  0  0
  -25.1555  -17.3846  147.9076 C   0  0  0  0  0  0  0  0  0  0  0  0
  -25.2072  -15.9636  147.5445 C   0  0  0  0  0  0  0  0  0  0  0  0
  -24.3640  -13.8250  144.5657 C   0  0  0  0  0  0  0  0  0  0  0  0
  -26.1816  -12.3369  146.2937 C   0  0  0  0  0  0  0  0  0  0  0  0
  -26.9484  -12.2127  145.4388 C   0  0  0  0  0  0  0  0  0  0  0  0
  -27.7014  -11.0130  144.9874 C   0  0  0  0  0  0  0  0  0  0  0  0
  -29.0337  -10.9996  144.6741 C   0  0  0  0  0  0  0  0  0  0  0  0
  -23.1631  -13.6966  144.4946 O   0  0  0  0  0  0  0  0  0  0  0  0
  -29.6478   -9.9395  144.0904 C   0  0  0  0  0  0  0  0  0  0  0  0
  -28.9736   -9.0003  143.3282 C   0  0  0  0  0  0  0  0  0  0  0  0
  -27.4695   -9.0490  143.5820 C   0  0  0  0  0  0  0  0  0  0  0  0
  -26.8934  -10.0418  144.2042 C   0  0  0  0  0  0  0  0  0  0  0  0
  -29.5348   -7.9087  142.6358 C   0  0  0  0  0  0  0  0  0  0  0  0
  -30.1581   -8.3614  141.3783 C   0  0  0  0  0  0  0  0  0  0  0  0
  -29.5670   -7.8702  140.1478 C   0  0  0  0  0  0  0  0  0  0  0  0
  -28.3743   -7.1602  140.2726 C   0  0  0  0  0  0  0  0  0  0  0  0
  3  4  1  0
  4  5  1  0
  4  9  1  0
  5 10  2  3
 10 11  1  0
 11 12  1  0
  9 14  2  0
 16 19  1  0
 19 20  1  0
 20 21  1  0
 21 22  2  0
 12 13  2  0
 13 15  1  0
 15 16  2  0
 16 17  1  0
 17 18  2  0
 18 12  1  0
  1  2  2  0
  2  3  1  0
  3  8  2  0
  8  7  1  0
  7  6  2  0
  6  1  1  0
M  END

$$$$
No_1199-/dssg/home/sw_qyf/PocketFlow/Model-Generation-Results/5HT2A_7WC7_rec_A_10.pdb/2024-01-01-03-54-21/
     RDKit          3D

 34 36  0  0  0  0  0  0  0  0999 V2000
  -24.1553  -17.8465  145.7021 C   0  0  0  0  0  0  0  0  0  0  0  0
  -23.9795  -18.4462  146.7426 C   0  0  0  0  0  0  0  0  0  0  0  0
  -24.3577  -16.4380  145.7329 C   0  0  0  0  0  0  0  0  0  0  0  0
  -24.4745  -15.6012  144.5587 C   0  0  0  0  0  0  0  0  0  0  0  0
  -24.5845  -14.1656  144.8311 C   0  0  0  0  0  0  0  0  0  0  0  0
  -24.6908  -13.6330  146.1427 C   0  0  0  0  0  0  0  0  0  0  0  0
  -24.6742  -12.2578  146.3968 C   0  0  0  0  0  0  0  0  0  0  0  0
  -23.9827  -17.8753  148.0839 C   0  0  0  0  0  0  0  0  0  0  0  0
  -24.2674  -16.4832  148.1889 C   0  0  0  0  0  0  0  0  0  0  0  0
  -24.4278  -15.7419  147.0519 C   0  0  0  0  0  0  0  0  0  0  0  0
  -24.5933  -14.3153  147.1773 C   0  0  0  0  0  0  0  0  0  0  0  0
  -26.0192  -11.6920  146.7496 C   0  0  0  0  0  0  0  0  0  0  0  0
  -26.9095  -11.5795  145.5807 C   0  0  0  0  0  0  0  0  0  0  0  0
  -26.6662  -10.8045  144.5892 C   0  0  0  0  0  0  0  0  0  0  0  0
  -27.6124  -10.5915  143.5803 C   0  0  0  0  0  0  0  0  0  0  0  0
  -27.6099  -11.1435  142.2969 C   0  0  0  0  0  0  0  0  0  0  0  0
  -28.5703  -10.8518  141.3615 C   0  0  0  0  0  0  0  0  0  0  0  0
  -28.4599  -11.3230  140.0280 C   0  0  0  0  0  0  0  0  0  0  0  0
  -27.8345  -10.6917  139.0765 C   0  0  0  0  0  0  0  0  0  0  0  0
  -29.6857  -10.0296  141.7572 C   0  0  0  0  0  0  0  0  0  0  0  0
  -29.8569   -9.5478  143.1055 C   0  0  0  0  0  0  0  0  0  0  0  0
  -30.9313   -8.8118  143.5168 C   0  0  0  0  0  0  0  0  0  0  0  0
  -28.7200   -9.8756  144.0060 C   0  0  0  0  0  0  0  0  0  0  0  0
  -31.0487   -7.6531  143.2604 O   0  0  0  0  0  0  0  0  0  0  0  0
  -26.9780   -9.6153  139.6324 C   0  0  0  0  0  0  0  0  0  0  0  0
  -31.7793   -9.3654  144.3736 O   0  0  0  0  0  0  0  0  0  0  0  0
  -28.1278  -12.2814  145.7213 C   0  0  0  0  0  0  0  0  0  0  0  0
  -28.6141  -12.7640  147.0220 C   0  0  0  0  0  0  0  0  0  0  0  0
  -29.7462  -13.5646  147.1701 C   0  0  0  0  0  0  0  0  0  0  0  0
  -30.2986  -13.8776  148.3893 C   0  0  0  0  0  0  0  0  0  0  0  0
  -30.0054  -14.6734  149.0722 C   0  0  0  0  0  0  0  0  0  0  0  0
  -30.7182  -15.0968  150.3282 C   0  0  0  0  0  0  0  0  0  0  0  0
  -31.9198  -14.4065  150.4888 C   0  0  0  0  0  0  0  0  0  0  0  0
  -32.3573  -13.4284  149.7370 C   0  0  0  0  0  0  0  0  0  0  0  0
  3  4  1  0
  4  5  1  0
  5  6  1  0
  6  7  1  0
  6 11  1  0
 10 11  1  0
  7 12  1  0
 12 13  1  0
 13 14  2  3
 14 15  1  0
 17 18  1  0
 18 19  1  0
 21 22  1  0
 22 24  1  0
 19 25  1  0
 22 26  2  0
 13 27  1  0
 27 28  2  3
 28 29  1  0
 29 30  2  3
 30 31  1  0
 31 32  2  3
 32 33  1  0
 33 34  2  0
  1  2  2  0
  2  8  1  0
  8  9  2  0
  9 10  1  0
 10  3  2  0
  3  1  1  0
 15 16  2  0
 16 17  1  0
 17 20  2  0
 20 21  1  0
 21 23  2  0
 23 15  1  0
M  END

$$$$
No_1200-/dssg/home/sw_qyf/PocketFlow/Model-Generation-Results/5HT2A_7WC7_rec_A_10.pdb/2024-01-01-03-54-21/
     RDKit          3D

 22 23  0  0  0  0  0  0  0  0999 V2000
  -24.1553  -17.8465  145.7021 C   0  0  0  0  0  0  0  0  0  0  0  0
  -23.9795  -18.4462  146.7426 C   0  0  0  0  0  0  0  0  0  0  0  0
  -23.2486  -17.2339  144.9771 C   0  0  0  0  0  0  0  0  0  0  0  0
  -22.6834  -18.2906  147.4267 C   0  0  0  0  0  0  0  0  0  0  0  0
  -21.7429  -17.7715  146.6774 N   0  0  0  0  0  0  0  0  0  0  0  0
  -22.0002  -17.1352  145.5495 C   0  0  0  0  0  0  0  0  0  0  0  0
  -23.4989  -16.5855  143.8182 O   0  0  0  0  0  0  0  0  0  0  0  0
  -24.5848  -15.6526  143.9595 C   0  0  0  0  0  0  0  0  0  0  0  0
  -25.2560  -15.4856  145.1691 C   0  0  0  0  0  0  0  0  0  0  0  0
  -26.2263  -14.3472  145.2492 C   0  0  0  0  0  0  0  0  0  0  0  0
  -26.1439  -13.2026  144.4529 C   0  0  0  0  0  0  0  0  0  0  0  0
  -27.0919  -12.2262  144.5553 C   0  0  0  0  0  0  0  0  0  0  0  0
  -27.3370  -11.2067  143.5847 C   0  0  0  0  0  0  0  0  0  0  0  0
  -27.9256  -11.5926  142.4352 C   0  0  0  0  0  0  0  0  0  0  0  0
  -27.4890  -12.4166  141.6860 C   0  0  0  0  0  0  0  0  0  0  0  0
  -27.8980  -12.6705  140.3158 C   0  0  0  0  0  0  0  0  0  0  0  0
  -27.1867  -11.7424  139.4111 C   0  0  0  0  0  0  0  0  0  0  0  0
  -26.4205  -10.7835  139.9042 C   0  0  0  0  0  0  0  0  0  0  0  0
  -27.9187  -12.2337  145.8057 C   0  0  0  0  0  0  0  0  0  0  0  0
  -28.1103  -13.4467  146.5520 C   0  0  0  0  0  0  0  0  0  0  0  0
  -27.0993  -14.4450  146.3697 C   0  0  0  0  0  0  0  0  0  0  0  0
  -26.8233  -12.4716  138.2067 C   0  0  0  0  0  0  0  0  0  0  0  0
  3  7  1  0
  7  8  1  0
  8  9  2  3
  9 10  1  0
 12 13  1  0
 13 14  1  0
 14 15  1  0
 15 16  2  3
 16 17  1  0
 17 18  1  0
 17 22  1  0
  1  2  2  0
  2  4  1  0
  4  5  2  0
  5  6  1  0
  6  3  2  0
  3  1  1  0
 10 11  2  0
 11 12  1  0
 12 19  2  0
 19 20  1  0
 20 21  2  0
 21 10  1  0
M  END

$$$$
No_1201-/dssg/home/sw_qyf/PocketFlow/Model-Generation-Results/5HT2A_7WC7_rec_A_10.pdb/2024-01-01-03-54-21/
     RDKit          3D

 23 24  0  0  0  0  0  0  0  0999 V2000
  -24.1553  -17.8465  145.7021 C   0  0  0  0  0  0  0  0  0  0  0  0
  -24.2856  -16.6364  145.3494 C   0  0  0  0  0  0  0  0  0  0  0  0
  -24.7211  -15.5955  146.2116 C   0  0  0  0  0  0  0  0  0  0  0  0
  -25.1321  -16.0374  147.5372 C   0  0  0  0  0  0  0  0  0  0  0  0
  -24.5163  -18.2968  146.9928 C   0  0  0  0  0  0  0  0  0  0  0  0
  -24.9534  -17.3074  147.9886 C   0  0  0  0  0  0  0  0  0  0  0  0
  -24.8795  -14.1918  145.8039 C   0  0  0  0  0  0  0  0  0  0  0  0
  -24.0624  -13.7230  144.8076 C   0  0  0  0  0  0  0  0  0  0  0  0
  -23.9270  -12.2788  144.7434 C   0  0  0  0  0  0  0  0  0  0  0  0
  -24.5587  -11.6674  145.5779 C   0  0  0  0  0  0  0  0  0  0  0  0
  -25.2474  -13.0299  146.6298 C   0  0  0  0  0  0  0  0  0  0  0  0
  -23.4881  -14.4267  143.8386 O   0  0  0  0  0  0  0  0  0  0  0  0
  -25.2523  -17.6704  149.2894 N   0  0  0  0  0  0  0  0  0  0  0  0
  -24.4489  -17.2672  150.3674 C   0  0  0  0  0  0  0  0  0  0  0  0
  -23.3108  -16.7010  150.2891 N   0  0  0  0  0  0  0  0  0  0  0  0
  -22.6008  -16.6712  149.1559 C   0  0  0  0  0  0  0  0  0  0  0  0
  -25.0210  -17.5237  151.5079 O   0  0  0  0  0  0  0  0  0  0  0  0
  -23.7850  -18.7986  144.8365 O   0  0  0  0  0  0  0  0  0  0  0  0
  -22.4277  -16.6190  151.5521 C   0  0  0  0  0  0  0  0  0  0  0  0
  -25.8612  -10.8395  145.1237 C   0  0  0  0  0  0  0  0  0  0  0  0
  -26.7667  -10.6791  145.9939 F   0  0  0  0  0  0  0  0  0  0  0  0
  -26.3757  -11.3134  143.9652 F   0  0  0  0  0  0  0  0  0  0  0  0
  -25.3430   -9.6802  144.7806 F   0  0  0  0  0  0  0  0  0  0  0  0
  3  7  1  0
  7  8  2  0
  8  9  1  0
  9 10  2  0
  7 11  1  0
 10 11  1  0
  8 12  1  0
  6 13  1  0
 13 14  1  0
 14 15  1  0
 15 16  1  0
 14 17  2  0
  1 18  1  0
 15 19  1  0
 10 20  1  0
 20 21  1  0
 20 22  1  0
 20 23  1  0
  1  2  2  0
  2  3  1  0
  3  4  2  0
  4  6  1  0
  6  5  2  0
  5  1  1  0
M  END

$$$$
No_1202-/dssg/home/sw_qyf/PocketFlow/Model-Generation-Results/5HT2A_7WC7_rec_A_10.pdb/2024-01-01-03-54-21/
     RDKit          3D

 35 38  0  0  0  0  0  0  0  0999 V2000
  -24.1553  -17.8465  145.7021 C   0  0  0  0  0  0  0  0  0  0  0  0
  -24.2856  -16.6364  145.3494 C   0  0  0  0  0  0  0  0  0  0  0  0
  -25.0033  -15.6772  146.0737 C   0  0  0  0  0  0  0  0  0  0  0  0
  -25.7224  -16.0756  147.0213 C   0  0  0  0  0  0  0  0  0  0  0  0
  -25.4436  -17.2546  147.7755 C   0  0  0  0  0  0  0  0  0  0  0  0
  -24.7093  -18.2398  146.9794 C   0  0  0  0  0  0  0  0  0  0  0  0
  -23.7233  -15.9654  144.1880 N   0  0  0  0  0  0  0  0  0  0  0  0
  -25.1328  -14.3495  145.4486 N   0  0  0  0  0  0  0  0  0  0  0  0
  -24.2107  -14.4788  144.4117 C   0  0  0  0  0  0  0  0  0  0  0  0
  -25.5918  -13.1594  145.9516 C   0  0  0  0  0  0  0  0  0  0  0  0
  -26.6616  -12.6215  145.3131 C   0  0  0  0  0  0  0  0  0  0  0  0
  -27.9592  -12.7672  145.7014 C   0  0  0  0  0  0  0  0  0  0  0  0
  -28.9550  -11.7831  145.3595 C   0  0  0  0  0  0  0  0  0  0  0  0
  -28.6766  -10.7600  144.4123 C   0  0  0  0  0  0  0  0  0  0  0  0
  -27.3011  -10.6870  144.0502 C   0  0  0  0  0  0  0  0  0  0  0  0
  -26.3306  -11.5312  144.5772 C   0  0  0  0  0  0  0  0  0  0  0  0
  -29.7008   -9.8862  143.9200 C   0  0  0  0  0  0  0  0  0  0  0  0
  -29.5460   -8.8290  143.6814 O   0  0  0  0  0  0  0  0  0  0  0  0
  -30.8377  -10.4624  143.8078 O   0  0  0  0  0  0  0  0  0  0  0  0
  -23.5850  -13.5648  143.9205 O   0  0  0  0  0  0  0  0  0  0  0  0
  -30.5610   -8.1095  142.9515 C   0  0  0  0  0  0  0  0  0  0  0  0
  -30.4427   -8.2247  141.5370 C   0  0  0  0  0  0  0  0  0  0  0  0
  -29.8924   -7.0959  140.8446 C   0  0  0  0  0  0  0  0  0  0  0  0
  -29.1179   -7.4830  139.6040 C   0  0  0  0  0  0  0  0  0  0  0  0
  -28.2499   -8.3220  139.3718 C   0  0  0  0  0  0  0  0  0  0  0  0
  -28.2096   -9.0636  138.3991 C   0  0  0  0  0  0  0  0  0  0  0  0
  -28.8215   -8.6215  137.1490 C   0  0  0  0  0  0  0  0  0  0  0  0
  -28.6219   -9.3606  135.9896 C   0  0  0  0  0  0  0  0  0  0  0  0
  -28.9488  -10.7974  136.1488 C   0  0  0  0  0  0  0  0  0  0  0  0
  -28.3541  -11.4197  137.2868 C   0  0  0  0  0  0  0  0  0  0  0  0
  -28.1076  -10.5898  138.4156 C   0  0  0  0  0  0  0  0  0  0  0  0
  -27.6317  -11.2006  139.7023 C   0  0  0  0  0  0  0  0  0  0  0  0
  -27.0092  -12.3940  139.5170 N   0  0  0  0  0  0  0  0  0  0  0  0
  -27.1537  -13.3364  140.5249 C   0  0  0  0  0  0  0  0  0  0  0  0
  -27.4986  -12.6778  141.8798 C   0  0  0  0  0  0  0  0  0  0  0  0
  2  7  1  0
  3  8  1  0
  7  9  1  0
  8  9  1  0
  8 10  1  0
 10 11  1  0
 14 17  1  0
 17 18  1  0
 17 19  2  0
  9 20  2  0
 18 21  1  0
 21 22  1  0
 22 23  1  0
 23 24  1  0
 24 25  2  3
 25 26  1  0
 31 32  1  0
 32 33  1  0
 33 34  1  0
 34 35  1  0
 11 12  2  0
 12 13  1  0
 13 14  2  0
 14 15  1  0
 15 16  2  0
 16 11  1  0
  1  2  2  0
  2  3  1  0
  3  4  2  0
  4  5  1  0
  5  6  2  0
  6  1  1  0
 26 27  2  0
 27 28  1  0
 28 29  2  0
 29 30  1  0
 30 31  2  0
 31 26  1  0
M  END

$$$$
No_1203-/dssg/home/sw_qyf/PocketFlow/Model-Generation-Results/5HT2A_7WC7_rec_A_10.pdb/2024-01-01-03-54-21/
     RDKit          3D

 35 39  0  0  0  0  0  0  0  0999 V2000
  -24.1553  -17.8465  145.7021 C   0  0  0  0  0  0  0  0  0  0  0  0
  -24.2855  -16.6364  145.3494 C   0  0  0  0  0  0  0  0  0  0  0  0
  -25.0033  -15.6772  146.0737 C   0  0  0  0  0  0  0  0  0  0  0  0
  -25.7224  -16.0755  147.0214 C   0  0  0  0  0  0  0  0  0  0  0  0
  -25.4436  -17.2546  147.7756 C   0  0  0  0  0  0  0  0  0  0  0  0
  -24.7093  -18.2398  146.9794 C   0  0  0  0  0  0  0  0  0  0  0  0
  -23.6397  -16.1559  144.1660 N   0  0  0  0  0  0  0  0  0  0  0  0
  -25.1839  -14.2629  145.4632 C   0  0  0  0  0  0  0  0  0  0  0  0
  -25.7155  -13.3858  145.9840 C   0  0  0  0  0  0  0  0  0  0  0  0
  -25.7191  -12.0166  145.5753 C   0  0  0  0  0  0  0  0  0  0  0  0
  -24.5841  -11.4549  145.1651 C   0  0  0  0  0  0  0  0  0  0  0  0
  -23.5255  -12.3768  144.7258 C   0  0  0  0  0  0  0  0  0  0  0  0
  -22.2478  -12.0410  144.3556 C   0  0  0  0  0  0  0  0  0  0  0  0
  -23.9026  -13.8356  144.9388 C   0  0  0  0  0  0  0  0  0  0  0  0
  -23.2513  -14.7779  144.1443 C   0  0  0  0  0  0  0  0  0  0  0  0
  -26.8053  -10.9709  145.9266 C   0  0  0  0  0  0  0  0  0  0  0  0
  -27.2049  -10.2097  144.7761 C   0  0  0  0  0  0  0  0  0  0  0  0
  -28.5447  -10.2607  144.2541 C   0  0  0  0  0  0  0  0  0  0  0  0
  -29.4648  -11.0574  144.8687 C   0  0  0  0  0  0  0  0  0  0  0  0
  -29.1145  -11.6892  146.1116 C   0  0  0  0  0  0  0  0  0  0  0  0
  -27.7761  -11.7557  146.5808 C   0  0  0  0  0  0  0  0  0  0  0  0
  -28.8974   -9.4648  143.1057 C   0  0  0  0  0  0  0  0  0  0  0  0
  -29.5067   -8.2796  143.2479 C   0  0  0  0  0  0  0  0  0  0  0  0
  -29.8094   -7.4561  142.1119 C   0  0  0  0  0  0  0  0  0  0  0  0
  -29.4994   -7.9663  140.8429 C   0  0  0  0  0  0  0  0  0  0  0  0
  -29.6465   -7.2288  139.6709 C   0  0  0  0  0  0  0  0  0  0  0  0
  -28.7538   -9.2215  140.7171 C   0  0  0  0  0  0  0  0  0  0  0  0
  -28.5004   -9.9930  141.8780 C   0  0  0  0  0  0  0  0  0  0  0  0
  -30.1124  -12.3463  146.8448 O   0  0  0  0  0  0  0  0  0  0  0  0
  -29.7450  -13.0117  148.0570 C   0  0  0  0  0  0  0  0  0  0  0  0
  -30.9508  -13.3174  148.8112 C   0  0  0  0  0  0  0  0  0  0  0  0
  -31.8378  -12.2866  149.0786 C   0  0  0  0  0  0  0  0  0  0  0  0
  -33.0731  -12.4811  149.7431 C   0  0  0  0  0  0  0  0  0  0  0  0
  -33.9346  -11.3754  149.7941 C   0  0  0  0  0  0  0  0  0  0  0  0
  -30.3137   -6.2645  139.7445 F   0  0  0  0  0  0  0  0  0  0  0  0
  2  7  1  0
  3  8  1  0
 12 13  1  0
  7 15  1  0
 14 15  1  0
 10 16  1  0
 18 22  1  0
 25 26  1  0
 20 29  1  0
 29 30  1  0
 30 31  1  0
 31 32  1  0
 32 33  2  3
 33 34  1  0
 26 35  1  0
  1  2  2  0
  2  3  1  0
  3  4  2  0
  4  5  1  0
  5  6  2  0
  6  1  1  0
 22 23  2  0
 23 24  1  0
 24 25  2  0
 25 27  1  0
 27 28  2  0
 28 22  1  0
  8  9  2  0
  9 10  1  0
 10 11  2  0
 11 12  1  0
 12 14  2  0
 14  8  1  0
 16 17  2  0
 17 18  1  0
 18 19  2  0
 19 20  1  0
 20 21  2  0
 21 16  1  0
M  END

$$$$
No_1204-/dssg/home/sw_qyf/PocketFlow/Model-Generation-Results/5HT2A_7WC7_rec_A_10.pdb/2024-01-01-03-54-21/
     RDKit          3D

 23 24  0  0  0  0  0  0  0  0999 V2000
  -24.1553  -17.8465  145.7021 C   0  0  0  0  0  0  0  0  0  0  0  0
  -24.2856  -16.6364  145.3494 C   0  0  0  0  0  0  0  0  0  0  0  0
  -24.5733  -15.7651  145.9979 C   0  0  0  0  0  0  0  0  0  0  0  0
  -25.0272  -15.9886  147.3700 C   0  0  0  0  0  0  0  0  0  0  0  0
  -24.4993  -18.2275  147.0208 C   0  0  0  0  0  0  0  0  0  0  0  0
  -24.9010  -17.2232  147.9329 C   0  0  0  0  0  0  0  0  0  0  0  0
  -24.7137  -14.2591  145.5600 C   0  0  0  0  0  0  0  0  0  0  0  0
  -23.8904  -13.7860  144.6618 C   0  0  0  0  0  0  0  0  0  0  0  0
  -25.7337  -13.4391  146.1564 C   0  0  0  0  0  0  0  0  0  0  0  0
  -25.8062  -12.0939  145.8546 C   0  0  0  0  0  0  0  0  0  0  0  0
  -26.4724  -11.7318  145.0592 C   0  0  0  0  0  0  0  0  0  0  0  0
  -26.5378  -10.2063  144.6916 C   0  0  0  0  0  0  0  0  0  0  0  0
  -23.5178  -14.3801  143.6233 O   0  0  0  0  0  0  0  0  0  0  0  0
  -23.2003  -12.6222  144.9287 O   0  0  0  0  0  0  0  0  0  0  0  0
  -27.3339  -12.4714  144.2027 C   0  0  0  0  0  0  0  0  0  0  0  0
  -27.5090   -9.6839  143.7971 C   0  0  0  0  0  0  0  0  0  0  0  0
  -28.2309  -10.5098  143.0466 C   0  0  0  0  0  0  0  0  0  0  0  0
  -29.1979  -10.0118  142.1437 C   0  0  0  0  0  0  0  0  0  0  0  0
  -28.2073  -11.8855  143.2467 C   0  0  0  0  0  0  0  0  0  0  0  0
  -28.8865   -9.6954  140.8745 C   0  0  0  0  0  0  0  0  0  0  0  0
  -29.3004   -8.4550  140.2300 C   0  0  0  0  0  0  0  0  0  0  0  0
  -28.8857   -8.1616  138.9122 C   0  0  0  0  0  0  0  0  0  0  0  0
  -28.1181   -9.0914  138.2197 C   0  0  0  0  0  0  0  0  0  0  0  0
  3  7  1  0
  7  8  2  3
  7  9  1  0
  9 10  1  0
  8 13  1  0
  8 14  1  0
 17 18  1  0
 18 20  2  3
 20 21  1  0
 21 22  2  3
 22 23  1  0
 10 11  1  0
  1  2  2  0
  2  3  1  0
  3  4  2  0
  4  6  1  0
  6  5  2  0
  5  1  1  0
 11 12  2  0
 12 16  1  0
 16 17  2  0
 17 19  1  0
 19 15  2  0
 15 11  1  0
M  END

$$$$
No_1205-/dssg/home/sw_qyf/PocketFlow/Model-Generation-Results/5HT2A_7WC7_rec_A_10.pdb/2024-01-01-03-54-21/
     RDKit          3D

 13 14  0  0  0  0  0  0  0  0999 V2000
  -24.1553  -17.8465  145.7021 C   0  0  0  0  0  0  0  0  0  0  0  0
  -24.2856  -16.6364  145.3494 C   0  0  0  0  0  0  0  0  0  0  0  0
  -24.7211  -15.5955  146.2115 C   0  0  0  0  0  0  0  0  0  0  0  0
  -24.8539  -14.2010  145.8739 C   0  0  0  0  0  0  0  0  0  0  0  0
  -25.3912  -13.2248  146.7184 C   0  0  0  0  0  0  0  0  0  0  0  0
  -24.5931  -18.2699  146.9809 C   0  0  0  0  0  0  0  0  0  0  0  0
  -25.1555  -17.3846  147.9076 C   0  0  0  0  0  0  0  0  0  0  0  0
  -25.2072  -15.9636  147.5445 C   0  0  0  0  0  0  0  0  0  0  0  0
  -24.3640  -13.8250  144.5657 C   0  0  0  0  0  0  0  0  0  0  0  0
  -25.3419  -11.8445  146.2821 C   0  0  0  0  0  0  0  0  0  0  0  0
  -25.1405  -11.5779  144.8976 C   0  0  0  0  0  0  0  0  0  0  0  0
  -25.1898  -10.2583  144.5584 O   0  0  0  0  0  0  0  0  0  0  0  0
  -24.4124  -12.8752  144.2361 N   0  0  0  0  0  0  0  0  0  0  0  0
  3  4  1  0
 11 12  1  0
  4  5  2  0
  5 10  1  0
 10 11  2  0
 11 13  1  0
 13  9  2  0
  9  4  1  0
  1  2  2  0
  2  3  1  0
  3  8  2  0
  8  7  1  0
  7  6  2  0
  6  1  1  0
M  END

$$$$
No_1206-/dssg/home/sw_qyf/PocketFlow/Model-Generation-Results/5HT2A_7WC7_rec_A_10.pdb/2024-01-01-03-54-21/
     RDKit          3D

 35 37  0  0  0  0  0  0  0  0999 V2000
  -23.1746  -16.6014  144.8668 C   0  0  0  0  0  0  0  0  0  0  0  0
  -24.0189  -16.0564  145.8445 C   0  0  0  0  0  0  0  0  0  0  0  0
  -24.4145  -16.8299  146.9062 C   0  0  0  0  0  0  0  0  0  0  0  0
  -25.2273  -16.2787  147.9854 C   0  0  0  0  0  0  0  0  0  0  0  0
  -25.7358  -15.0095  147.7773 C   0  0  0  0  0  0  0  0  0  0  0  0
  -25.3901  -14.2337  146.6672 C   0  0  0  0  0  0  0  0  0  0  0  0
  -24.5390  -14.7030  145.7350 C   0  0  0  0  0  0  0  0  0  0  0  0
  -24.1465  -13.8569  144.6317 C   0  0  0  0  0  0  0  0  0  0  0  0
  -22.9944  -13.7167  144.3747 O   0  0  0  0  0  0  0  0  0  0  0  0
  -25.0461  -13.0217  144.2231 O   0  0  0  0  0  0  0  0  0  0  0  0
  -25.6079  -17.1073  149.1572 C   0  0  0  0  0  0  0  0  0  0  0  0
  -24.6095  -17.5242  149.9396 N   0  0  0  0  0  0  0  0  0  0  0  0
  -26.7702  -17.1361  149.4789 O   0  0  0  0  0  0  0  0  0  0  0  0
  -25.6080  -12.0935  145.0800 C   0  0  0  0  0  0  0  0  0  0  0  0
  -26.0711  -10.9257  144.3262 C   0  0  0  0  0  0  0  0  0  0  0  0
  -27.3732  -11.0260  143.8992 O   0  0  0  0  0  0  0  0  0  0  0  0
  -27.9685  -10.2290  143.0951 C   0  0  0  0  0  0  0  0  0  0  0  0
  -28.8783   -9.2817  143.6403 C   0  0  0  0  0  0  0  0  0  0  0  0
  -29.6802   -8.4488  142.8273 C   0  0  0  0  0  0  0  0  0  0  0  0
  -29.5146   -8.4094  141.4637 C   0  0  0  0  0  0  0  0  0  0  0  0
  -28.6516   -9.3954  140.9225 C   0  0  0  0  0  0  0  0  0  0  0  0
  -27.9905  -10.3170  141.7478 C   0  0  0  0  0  0  0  0  0  0  0  0
  -30.1559   -7.5769  140.6646 N   0  0  0  0  0  0  0  0  0  0  0  0
  -28.5167   -9.3768  139.5782 N   0  0  0  0  0  0  0  0  0  0  0  0
  -28.8282   -8.3327  138.7853 C   0  0  0  0  0  0  0  0  0  0  0  0
  -29.7688   -7.4873  139.3818 N   0  0  0  0  0  0  0  0  0  0  0  0
  -28.5643   -8.2559  137.5614 N   0  0  0  0  0  0  0  0  0  0  0  0
  -30.5364   -7.4429  143.3054 N   0  0  0  0  0  0  0  0  0  0  0  0
  -23.2154  -17.2905  149.8924 C   0  0  0  0  0  0  0  0  0  0  0  0
  -22.7480  -16.1062  150.7982 C   0  0  0  0  0  0  0  0  0  0  0  0
  -21.2190  -16.2179  150.7491 C   0  0  0  0  0  0  0  0  0  0  0  0
  -23.6358  -17.8026  144.4360 O   0  0  0  0  0  0  0  0  0  0  0  0
  -27.2204  -11.2316  141.2278 O   0  0  0  0  0  0  0  0  0  0  0  0
  -26.6458  -12.8448  145.9314 C   0  0  0  0  0  0  0  0  0  0  0  0
  -27.0979  -12.0087  147.1612 C   0  0  0  0  0  0  0  0  0  0  0  0
  1  2  1  0
  7  8  1  0
  8  9  2  0
  8 10  1  0
  4 11  1  0
 11 12  1  0
 11 13  2  0
 10 14  1  0
 14 15  1  0
 15 16  1  0
 16 17  1  0
 25 27  1  0
 19 28  1  0
 12 29  1  0
 29 30  1  0
 30 31  1  0
  1 32  1  0
 22 33  1  0
 14 34  1  0
 34 35  1  0
 17 18  2  0
 18 19  1  0
 19 20  2  0
 21 22  2  0
 22 17  1  0
  2  3  2  0
  3  4  1  0
  4  5  2  0
  5  6  1  0
  6  7  2  0
  7  2  1  0
 20 21  1  0
 21 24  1  0
 24 25  2  0
 25 26  1  0
 26 23  2  0
 23 20  1  0
M  END

$$$$
No_1207-/dssg/home/sw_qyf/PocketFlow/Model-Generation-Results/5HT2A_7WC7_rec_A_10.pdb/2024-01-01-03-54-21/
     RDKit          3D

 30 31  0  0  0  0  0  0  0  0999 V2000
  -23.8042  -18.1535  145.4053 O   0  0  0  0  0  0  0  0  0  0  0  0
  -24.1154  -17.4458  146.3749 C   0  0  0  0  0  0  0  0  0  0  0  0
  -24.6243  -16.1272  146.0156 C   0  0  0  0  0  0  0  0  0  0  0  0
  -25.5207  -15.3857  146.7948 C   0  0  0  0  0  0  0  0  0  0  0  0
  -26.6587  -15.2552  146.4173 C   0  0  0  0  0  0  0  0  0  0  0  0
  -26.9440  -14.7555  145.1142 C   0  0  0  0  0  0  0  0  0  0  0  0
  -26.1865  -13.8649  144.6091 C   0  0  0  0  0  0  0  0  0  0  0  0
  -24.9413  -13.8087  144.6477 C   0  0  0  0  0  0  0  0  0  0  0  0
  -24.2487  -15.4608  144.7136 C   0  0  0  0  0  0  0  0  0  0  0  0
  -24.7832  -18.0600  147.5477 C   0  0  0  0  0  0  0  0  0  0  0  0
  -26.7033  -12.8058  143.6748 C   0  0  0  0  0  0  0  0  0  0  0  0
  -27.0633  -13.0674  142.3579 C   0  0  0  0  0  0  0  0  0  0  0  0
  -27.6633  -12.1689  141.5258 C   0  0  0  0  0  0  0  0  0  0  0  0
  -27.6041  -11.1487  141.5684 C   0  0  0  0  0  0  0  0  0  0  0  0
  -27.4340  -10.5560  143.0401 C   0  0  0  0  0  0  0  0  0  0  0  0
  -26.8936  -11.4467  143.9786 C   0  0  0  0  0  0  0  0  0  0  0  0
  -27.9322  -12.9616  140.2113 C   0  0  0  0  0  0  0  0  0  0  0  0
  -24.3315  -17.9418  148.6573 O   0  0  0  0  0  0  0  0  0  0  0  0
  -26.5634  -10.9189  145.3647 C   0  0  0  0  0  0  0  0  0  0  0  0
  -26.8354  -11.5084  146.2428 O   0  0  0  0  0  0  0  0  0  0  0  0
  -26.4013   -9.5809  145.3909 O   0  0  0  0  0  0  0  0  0  0  0  0
  -25.0250  -17.6229  149.7945 C   0  0  0  0  0  0  0  0  0  0  0  0
  -24.3135  -17.2004  150.9565 C   0  0  0  0  0  0  0  0  0  0  0  0
  -26.4204  -17.5853  149.7712 C   0  0  0  0  0  0  0  0  0  0  0  0
  -27.8983  -11.8531  139.3185 F   0  0  0  0  0  0  0  0  0  0  0  0
  -29.1152  -13.4634  140.2229 F   0  0  0  0  0  0  0  0  0  0  0  0
  -23.4234  -15.7840  143.9683 O   0  0  0  0  0  0  0  0  0  0  0  0
  -27.0135  -13.6177  139.8134 F   0  0  0  0  0  0  0  0  0  0  0  0
  -24.9873  -16.8221  152.0041 F   0  0  0  0  0  0  0  0  0  0  0  0
  -23.3291  -17.9714  151.3664 F   0  0  0  0  0  0  0  0  0  0  0  0
  1  2  1  0
  2  3  1  0
  3  4  1  0
  4  5  2  0
  5  6  1  0
  6  7  2  0
  7  8  1  0
  3  9  1  0
  8  9  1  0
  2 10  1  0
  7 11  1  0
 13 17  1  0
 10 18  1  0
 16 19  1  0
 19 20  2  0
 19 21  1  0
 18 22  1  0
 22 23  2  3
 22 24  1  0
 17 25  1  0
 17 26  1  0
  9 27  2  0
 17 28  1  0
 23 29  1  0
 23 30  1  0
 11 12  2  0
 12 13  1  0
 13 14  2  0
 14 15  1  0
 15 16  2  0
 16 11  1  0
M  END

$$$$
No_1208-/dssg/home/sw_qyf/PocketFlow/Model-Generation-Results/5HT2A_7WC7_rec_A_10.pdb/2024-01-01-03-54-21/
     RDKit          3D

 35 37  0  0  0  0  0  0  0  0999 V2000
  -23.1746  -16.6014  144.8668 C   0  0  0  0  0  0  0  0  0  0  0  0
  -23.7011  -17.0158  145.9774 C   0  0  0  0  0  0  0  0  0  0  0  0
  -24.2593  -16.1244  146.9100 C   0  0  0  0  0  0  0  0  0  0  0  0
  -24.5135  -14.7390  146.5020 C   0  0  0  0  0  0  0  0  0  0  0  0
  -24.0813  -14.3812  145.2164 C   0  0  0  0  0  0  0  0  0  0  0  0
  -23.3915  -15.2667  144.4690 C   0  0  0  0  0  0  0  0  0  0  0  0
  -24.2377  -12.9157  144.8809 C   0  0  0  0  0  0  0  0  0  0  0  0
  -24.2531  -12.3786  145.9663 F   0  0  0  0  0  0  0  0  0  0  0  0
  -25.3084  -12.8063  144.1941 F   0  0  0  0  0  0  0  0  0  0  0  0
  -23.2008  -12.5693  144.1251 F   0  0  0  0  0  0  0  0  0  0  0  0
  -23.5341  -18.4368  146.4527 C   0  0  0  0  0  0  0  0  0  0  0  0
  -22.5880  -18.7959  146.9655 O   0  0  0  0  0  0  0  0  0  0  0  0
  -24.7320  -18.9157  146.8141 F   0  0  0  0  0  0  0  0  0  0  0  0
  -24.7761  -16.5126  148.1249 O   0  0  0  0  0  0  0  0  0  0  0  0
  -26.0608  -16.4362  148.4911 C   0  0  0  0  0  0  0  0  0  0  0  0
  -26.4986  -17.4101  149.4227 C   0  0  0  0  0  0  0  0  0  0  0  0
  -27.7519  -17.3248  149.9249 C   0  0  0  0  0  0  0  0  0  0  0  0
  -28.8034  -16.5332  149.2168 C   0  0  0  0  0  0  0  0  0  0  0  0
  -28.3050  -15.6911  148.1407 C   0  0  0  0  0  0  0  0  0  0  0  0
  -26.9816  -15.7153  147.7866 C   0  0  0  0  0  0  0  0  0  0  0  0
  -29.3458  -14.8273  147.5353 C   0  0  0  0  0  0  0  0  0  0  0  0
  -29.2326  -14.1726  146.3702 C   0  0  0  0  0  0  0  0  0  0  0  0
  -29.7596  -12.7709  146.3127 C   0  0  0  0  0  0  0  0  0  0  0  0
  -29.1764  -11.8307  145.3624 C   0  0  0  0  0  0  0  0  0  0  0  0
  -29.7212  -10.5841  145.0908 C   0  0  0  0  0  0  0  0  0  0  0  0
  -29.2253   -9.8103  144.1094 C   0  0  0  0  0  0  0  0  0  0  0  0
  -28.0839  -10.2991  143.3837 C   0  0  0  0  0  0  0  0  0  0  0  0
  -27.5995  -11.5944  143.6906 C   0  0  0  0  0  0  0  0  0  0  0  0
  -28.0772  -12.3233  144.6645 C   0  0  0  0  0  0  0  0  0  0  0  0
  -29.8456   -8.5507  143.6911 C   0  0  0  0  0  0  0  0  0  0  0  0
  -29.3757   -7.7685  142.6811 C   0  0  0  0  0  0  0  0  0  0  0  0
  -29.6070   -8.2382  141.3042 C   0  0  0  0  0  0  0  0  0  0  0  0
  -29.5405   -7.6059  140.4802 C   0  0  0  0  0  0  0  0  0  0  0  0
  -29.7496   -8.0342  139.0948 C   0  0  0  0  0  0  0  0  0  0  0  0
  -28.6333   -8.6810  138.4999 C   0  0  0  0  0  0  0  0  0  0  0  0
  5  7  1  0
  7  8  1  0
  7  9  1  0
  7 10  1  0
  2 11  1  0
 11 12  2  0
 11 13  1  0
  3 14  1  0
 14 15  1  0
 19 21  1  0
 21 22  1  0
 22 23  2  3
 23 24  1  0
 26 30  1  0
 30 31  1  0
 31 32  1  0
 32 33  2  3
 33 34  1  0
 34 35  1  0
 15 16  2  0
 16 17  1  0
 17 18  2  0
 18 19  1  0
 19 20  2  0
 20 15  1  0
  1  2  2  0
  2  3  1  0
  3  4  2  0
  4  5  1  0
  5  6  2  0
  6  1  1  0
 24 25  2  0
 25 26  1  0
 26 27  2  0
 27 28  1  0
 28 29  2  0
 29 24  1  0
M  END

$$$$
No_1209-/dssg/home/sw_qyf/PocketFlow/Model-Generation-Results/5HT2A_7WC7_rec_A_10.pdb/2024-01-01-03-54-21/
     RDKit          3D

  9  9  0  0  0  0  0  0  0  0999 V2000
  -24.1553  -17.8465  145.7021 C   0  0  0  0  0  0  0  0  0  0  0  0
  -24.2856  -16.6364  145.3494 C   0  0  0  0  0  0  0  0  0  0  0  0
  -24.7211  -15.5955  146.2115 C   0  0  0  0  0  0  0  0  0  0  0  0
  -25.1322  -16.0374  147.5372 C   0  0  0  0  0  0  0  0  0  0  0  0
  -24.5163  -18.2968  146.9928 C   0  0  0  0  0  0  0  0  0  0  0  0
  -24.9534  -17.3074  147.9886 C   0  0  0  0  0  0  0  0  0  0  0  0
  -24.8795  -14.1918  145.8039 C   0  0  0  0  0  0  0  0  0  0  0  0
  -25.6511  -13.2777  146.3865 C   0  0  0  0  0  0  0  0  0  0  0  0
  -25.6393  -11.9359  145.9978 C   0  0  0  0  0  0  0  0  0  0  0  0
  3  7  1  0
  7  8  2  3
  8  9  1  0
  1  2  2  0
  2  3  1  0
  3  4  2  0
  4  6  1  0
  6  5  2  0
  5  1  1  0
M  END

$$$$
No_1210-/dssg/home/sw_qyf/PocketFlow/Model-Generation-Results/5HT2A_7WC7_rec_A_10.pdb/2024-01-01-03-54-21/
     RDKit          3D

 19 20  0  0  0  0  0  0  0  0999 V2000
  -23.1746  -16.6014  144.8668 C   0  0  0  0  0  0  0  0  0  0  0  0
  -23.7011  -17.0158  145.9774 C   0  0  0  0  0  0  0  0  0  0  0  0
  -24.2134  -16.0722  146.8877 C   0  0  0  0  0  0  0  0  0  0  0  0
  -24.7882  -16.3410  148.2078 C   0  0  0  0  0  0  0  0  0  0  0  0
  -24.0016  -15.4255  144.3215 C   0  0  0  0  0  0  0  0  0  0  0  0
  -24.4623  -14.5483  145.1292 C   0  0  0  0  0  0  0  0  0  0  0  0
  -24.7984  -14.8429  146.5066 C   0  0  0  0  0  0  0  0  0  0  0  0
  -24.8756  -13.1726  144.6075 C   0  0  0  0  0  0  0  0  0  0  0  0
  -24.5124  -12.1839  145.5993 C   0  0  0  0  0  0  0  0  0  0  0  0
  -23.6305  -12.3915  146.5011 O   0  0  0  0  0  0  0  0  0  0  0  0
  -24.0534  -17.2763  149.0432 C   0  0  0  0  0  0  0  0  0  0  0  0
  -24.4876  -17.4694  150.4060 C   0  0  0  0  0  0  0  0  0  0  0  0
  -25.1028  -11.0703  145.4770 F   0  0  0  0  0  0  0  0  0  0  0  0
  -23.1991  -18.3160  146.6305 C   0  0  0  0  0  0  0  0  0  0  0  0
  -23.8086  -18.5780  148.2433 C   0  0  0  0  0  0  0  0  0  0  0  0
  -25.6325  -17.8665  150.6913 O   0  0  0  0  0  0  0  0  0  0  0  0
  -23.5764  -17.2097  151.3599 O   0  0  0  0  0  0  0  0  0  0  0  0
  -22.6301  -19.1934  146.1571 O   0  0  0  0  0  0  0  0  0  0  0  0
  -25.5605  -13.0868  143.5983 O   0  0  0  0  0  0  0  0  0  0  0  0
  3  4  1  0
  6  8  1  0
  8  9  1  0
  9 10  1  0
 11 12  1  0
  9 13  1  0
  2 14  1  0
 11 15  1  0
 14 15  1  0
 12 16  2  0
 12 17  1  0
 14 18  2  0
  8 19  2  0
  4 11  1  0
  1  2  2  0
  2  3  1  0
  3  7  2  0
  7  6  1  0
  6  5  2  0
  5  1  1  0
M  END

$$$$
No_1211-/dssg/home/sw_qyf/PocketFlow/Model-Generation-Results/5HT2A_7WC7_rec_A_10.pdb/2024-01-01-03-54-21/
     RDKit          3D

 35 37  0  0  0  0  0  0  0  0999 V2000
  -24.1553  -17.8465  145.7021 C   0  0  0  0  0  0  0  0  0  0  0  0
  -24.6364  -17.2931  146.7091 C   0  0  0  0  0  0  0  0  0  0  0  0
  -25.8608  -16.5592  146.5934 C   0  0  0  0  0  0  0  0  0  0  0  0
  -26.9933  -16.9082  147.1889 C   0  0  0  0  0  0  0  0  0  0  0  0
  -28.2350  -16.1839  146.8943 C   0  0  0  0  0  0  0  0  0  0  0  0
  -28.1591  -14.9305  146.2109 C   0  0  0  0  0  0  0  0  0  0  0  0
  -26.9098  -14.5235  145.6600 C   0  0  0  0  0  0  0  0  0  0  0  0
  -25.7460  -15.3614  145.8720 C   0  0  0  0  0  0  0  0  0  0  0  0
  -26.8049  -13.2839  144.9023 C   0  0  0  0  0  0  0  0  0  0  0  0
  -27.3919  -12.3738  144.8730 C   0  0  0  0  0  0  0  0  0  0  0  0
  -27.3533  -11.1779  143.9828 C   0  0  0  0  0  0  0  0  0  0  0  0
  -28.5101  -10.4912  143.6160 C   0  0  0  0  0  0  0  0  0  0  0  0
  -28.8548  -10.1089  142.3863 C   0  0  0  0  0  0  0  0  0  0  0  0
  -29.9115   -9.3080  142.0106 C   0  0  0  0  0  0  0  0  0  0  0  0
  -30.8756   -8.9252  143.0771 C   0  0  0  0  0  0  0  0  0  0  0  0
  -30.5448   -9.2783  144.3878 N   0  0  0  0  0  0  0  0  0  0  0  0
  -29.4719  -10.0866  144.7061 C   0  0  0  0  0  0  0  0  0  0  0  0
  -31.9138   -8.1816  143.0142 O   0  0  0  0  0  0  0  0  0  0  0  0
  -24.0122  -17.4676  148.0610 C   0  0  0  0  0  0  0  0  0  0  0  0
  -23.3035  -16.4627  148.6273 C   0  0  0  0  0  0  0  0  0  0  0  0
  -23.7119  -17.1473  144.6942 O   0  0  0  0  0  0  0  0  0  0  0  0
  -24.0851  -19.1259  145.5331 O   0  0  0  0  0  0  0  0  0  0  0  0
  -25.7622  -13.4299  143.8474 C   0  0  0  0  0  0  0  0  0  0  0  0
  -27.9541  -10.2279  141.2797 C   0  0  0  0  0  0  0  0  0  0  0  0
  -27.8160  -11.6222  140.7498 C   0  0  0  0  0  0  0  0  0  0  0  0
  -27.2556  -11.8963  139.5023 C   0  0  0  0  0  0  0  0  0  0  0  0
  -26.2898  -12.4341  139.3057 O   0  0  0  0  0  0  0  0  0  0  0  0
  -27.7982  -11.2228  138.4939 O   0  0  0  0  0  0  0  0  0  0  0  0
  -22.6745  -16.8448  149.9191 C   0  0  0  0  0  0  0  0  0  0  0  0
  -21.4681  -16.6950  150.0992 F   0  0  0  0  0  0  0  0  0  0  0  0
  -23.4979  -17.4350  150.9491 C   0  0  0  0  0  0  0  0  0  0  0  0
  -24.7898  -17.8380  150.6057 C   0  0  0  0  0  0  0  0  0  0  0  0
  -25.0840  -17.9504  149.1174 C   0  0  0  0  0  0  0  0  0  0  0  0
  -24.4835  -13.4241  144.1651 O   0  0  0  0  0  0  0  0  0  0  0  0
  -24.0036  -12.5266  145.0492 C   0  0  0  0  0  0  0  0  0  0  0  0
  1  2  1  0
  2  3  1  0
  7  9  1  0
  9 10  2  3
 10 11  1  0
 11 12  1  0
 12 13  1  0
 14 15  1  0
 15 16  1  0
 12 17  1  0
 16 17  1  0
 15 18  2  0
  2 19  1  0
  1 21  1  0
  1 22  2  0
  9 23  1  0
 13 24  1  0
 24 25  1  0
 25 26  1  0
 26 27  2  0
 26 28  1  0
 29 30  1  0
 23 34  1  0
 34 35  1  0
 14 13  1  0
  3  4  2  0
  4  5  1  0
  5  6  2  0
  6  7  1  0
  7  8  2  0
  8  3  1  0
 19 20  2  0
 20 29  1  0
 29 31  2  0
 31 32  1  0
 32 33  2  0
 33 19  1  0
M  END

$$$$
No_1212-/dssg/home/sw_qyf/PocketFlow/Model-Generation-Results/5HT2A_7WC7_rec_A_10.pdb/2024-01-01-03-54-21/
     RDKit          3D

 35 37  0  0  0  0  0  0  0  0999 V2000
  -23.1746  -16.6014  144.8668 C   0  0  0  0  0  0  0  0  0  0  0  0
  -23.7011  -17.0158  145.9774 C   0  0  0  0  0  0  0  0  0  0  0  0
  -23.7336  -18.2775  146.3737 C   0  0  0  0  0  0  0  0  0  0  0  0
  -23.8112  -15.3695  144.2738 C   0  0  0  0  0  0  0  0  0  0  0  0
  -24.5304  -14.4294  145.1463 C   0  0  0  0  0  0  0  0  0  0  0  0
  -24.9728  -14.8639  146.4398 C   0  0  0  0  0  0  0  0  0  0  0  0
  -24.5583  -16.1491  146.8676 C   0  0  0  0  0  0  0  0  0  0  0  0
  -24.8527  -13.0961  144.6371 C   0  0  0  0  0  0  0  0  0  0  0  0
  -25.3544  -12.1962  145.7477 C   0  0  0  0  0  0  0  0  0  0  0  0
  -26.6412  -11.4644  145.3485 C   0  0  0  0  0  0  0  0  0  0  0  0
  -26.4666  -10.5251  144.4779 C   0  0  0  0  0  0  0  0  0  0  0  0
  -27.6352   -9.7618  144.0526 C   0  0  0  0  0  0  0  0  0  0  0  0
  -28.6210  -10.3525  143.4688 C   0  0  0  0  0  0  0  0  0  0  0  0
  -29.4498  -11.1043  144.5003 C   0  0  0  0  0  0  0  0  0  0  0  0
  -28.9306  -12.1727  145.3463 C   0  0  0  0  0  0  0  0  0  0  0  0
  -27.6109  -12.0798  145.8954 C   0  0  0  0  0  0  0  0  0  0  0  0
  -29.3553   -9.3836  142.6888 C   0  0  0  0  0  0  0  0  0  0  0  0
  -28.9714   -9.1539  141.4397 C   0  0  0  0  0  0  0  0  0  0  0  0
  -29.5721   -8.1823  140.5967 C   0  0  0  0  0  0  0  0  0  0  0  0
  -30.8860   -7.7697  141.0220 C   0  0  0  0  0  0  0  0  0  0  0  0
  -31.4535   -8.2101  142.2126 C   0  0  0  0  0  0  0  0  0  0  0  0
  -30.7191   -9.0442  143.0756 C   0  0  0  0  0  0  0  0  0  0  0  0
  -29.0392   -7.8118  139.4389 N   0  0  0  0  0  0  0  0  0  0  0  0
  -28.2132   -8.5561  138.6527 C   0  0  0  0  0  0  0  0  0  0  0  0
  -28.0082   -8.0693  137.3801 C   0  0  0  0  0  0  0  0  0  0  0  0
  -22.9589  -19.0724  146.2211 O   0  0  0  0  0  0  0  0  0  0  0  0
  -24.6190  -18.7289  147.3662 O   0  0  0  0  0  0  0  0  0  0  0  0
  -27.6289   -9.7223  139.1100 C   0  0  0  0  0  0  0  0  0  0  0  0
  -28.1108  -11.0565  138.9748 C   0  0  0  0  0  0  0  0  0  0  0  0
  -27.2150  -12.1233  139.3624 C   0  0  0  0  0  0  0  0  0  0  0  0
  -27.5540  -13.0414  140.3665 C   0  0  0  0  0  0  0  0  0  0  0  0
  -26.4624  -13.4221  141.4167 C   0  0  0  0  0  0  0  0  0  0  0  0
  -26.8719  -13.7815  142.6331 O   0  0  0  0  0  0  0  0  0  0  0  0
  -31.2340   -9.3055  144.2759 O   0  0  0  0  0  0  0  0  0  0  0  0
  -25.5307  -14.1932  140.9626 O   0  0  0  0  0  0  0  0  0  0  0  0
  2  3  1  0
  5  8  1  0
  8  9  1  0
  9 10  1  0
 10 11  2  0
 11 12  1  0
 12 13  1  0
 13 14  1  0
 14 15  1  0
 10 16  1  0
 15 16  1  0
 13 17  1  0
 19 23  1  0
 23 24  1  0
 24 25  1  0
  3 26  2  0
  3 27  1  0
 24 28  1  0
 28 29  2  3
 29 30  1  0
 30 31  1  0
 31 32  1  0
 32 33  1  0
 22 34  1  0
 32 35  2  0
 17 18  2  0
 18 19  1  0
 19 20  2  0
 20 21  1  0
 21 22  2  0
 22 17  1  0
  1  2  2  0
  2  7  1  0
  7  6  2  0
  6  5  1  0
  5  4  2  0
  4  1  1  0
M  END

$$$$
No_1213-/dssg/home/sw_qyf/PocketFlow/Model-Generation-Results/5HT2A_7WC7_rec_A_10.pdb/2024-01-01-03-54-21/
     RDKit          3D

 35 37  0  0  0  0  0  0  0  0999 V2000
  -24.1553  -17.8465  145.7021 C   0  0  0  0  0  0  0  0  0  0  0  0
  -24.2856  -16.6364  145.3494 C   0  0  0  0  0  0  0  0  0  0  0  0
  -24.7211  -15.5955  146.2115 C   0  0  0  0  0  0  0  0  0  0  0  0
  -25.1322  -16.0374  147.5372 C   0  0  0  0  0  0  0  0  0  0  0  0
  -24.5163  -18.2968  146.9928 C   0  0  0  0  0  0  0  0  0  0  0  0
  -24.9534  -17.3074  147.9886 C   0  0  0  0  0  0  0  0  0  0  0  0
  -24.8795  -14.1918  145.8039 C   0  0  0  0  0  0  0  0  0  0  0  0
  -25.6511  -13.2777  146.3865 C   0  0  0  0  0  0  0  0  0  0  0  0
  -25.5507  -11.9400  146.0352 C   0  0  0  0  0  0  0  0  0  0  0  0
  -23.9857  -13.7410  144.7595 C   0  0  0  0  0  0  0  0  0  0  0  0
  -23.6759  -12.3001  144.6314 C   0  0  0  0  0  0  0  0  0  0  0  0
  -26.5772  -10.9825  146.5238 C   0  0  0  0  0  0  0  0  0  0  0  0
  -24.7063  -11.4331  145.1113 C   0  0  0  0  0  0  0  0  0  0  0  0
  -23.9750  -16.2564  144.1129 O   0  0  0  0  0  0  0  0  0  0  0  0
  -25.2120  -17.7020  149.3909 C   0  0  0  0  0  0  0  0  0  0  0  0
  -24.2476  -17.1563  150.3804 C   0  0  0  0  0  0  0  0  0  0  0  0
  -22.8963  -17.2038  150.0139 C   0  0  0  0  0  0  0  0  0  0  0  0
  -22.0458  -16.7428  151.0043 O   0  0  0  0  0  0  0  0  0  0  0  0
  -27.8997  -11.5462  146.3243 C   0  0  0  0  0  0  0  0  0  0  0  0
  -28.7874  -11.0162  145.3483 C   0  0  0  0  0  0  0  0  0  0  0  0
  -30.0935  -10.5387  145.7788 C   0  0  0  0  0  0  0  0  0  0  0  0
  -30.7435   -9.8049  144.9828 O   0  0  0  0  0  0  0  0  0  0  0  0
  -30.0999   -9.1598  144.0199 C   0  0  0  0  0  0  0  0  0  0  0  0
  -30.8559   -8.2782  143.1937 C   0  0  0  0  0  0  0  0  0  0  0  0
  -30.2966   -7.7021  142.0554 C   0  0  0  0  0  0  0  0  0  0  0  0
  -29.9323   -8.6337  140.9972 C   0  0  0  0  0  0  0  0  0  0  0  0
  -29.2965   -7.9959  139.8663 C   0  0  0  0  0  0  0  0  0  0  0  0
  -28.6667   -8.7980  138.8896 C   0  0  0  0  0  0  0  0  0  0  0  0
  -28.0550   -9.9683  139.2934 C   0  0  0  0  0  0  0  0  0  0  0  0
  -28.3348  -10.5494  140.5943 C   0  0  0  0  0  0  0  0  0  0  0  0
  -29.2060   -9.7656  141.5026 C   0  0  0  0  0  0  0  0  0  0  0  0
  -27.8304  -11.8363  140.9854 C   0  0  0  0  0  0  0  0  0  0  0  0
  -27.6639  -12.2948  142.3231 C   0  0  0  0  0  0  0  0  0  0  0  0
  -27.4127  -12.6896  139.9763 C   0  0  0  0  0  0  0  0  0  0  0  0
  -27.0281  -13.5049  142.6879 C   0  0  0  0  0  0  0  0  0  0  0  0
  3  7  1  0
  9 12  1  0
  2 14  1  0
  6 15  1  0
 15 16  1  0
 16 17  1  0
 17 18  1  0
 12 19  1  0
 19 20  1  0
 20 21  1  0
 21 22  1  0
 22 23  1  0
 23 24  1  0
 24 25  1  0
 25 26  1  0
 30 32  1  0
 32 33  1  0
 32 34  1  0
 33 35  1  0
 26 27  2  0
 27 28  1  0
 28 29  2  0
 29 30  1  0
 30 31  2  0
 31 26  1  0
  1  2  2  0
  2  3  1  0
  3  4  2  0
  4  6  1  0
  6  5  2  0
  5  1  1  0
  7  8  2  0
  8  9  1  0
  9 13  2  0
 13 11  1  0
 11 10  2  0
 10  7  1  0
M  END

$$$$
No_1214-/dssg/home/sw_qyf/PocketFlow/Model-Generation-Results/5HT2A_7WC7_rec_A_10.pdb/2024-01-01-03-54-21/
     RDKit          3D

 31 31  0  0  0  0  0  0  0  0999 V2000
  -24.1553  -17.8465  145.7021 C   0  0  0  0  0  0  0  0  0  0  0  0
  -24.6364  -17.2931  146.7091 C   0  0  0  0  0  0  0  0  0  0  0  0
  -24.0780  -17.2921  147.9389 C   0  0  0  0  0  0  0  0  0  0  0  0
  -24.3226  -16.7243  148.9587 C   0  0  0  0  0  0  0  0  0  0  0  0
  -25.6433  -16.8632  149.2662 C   0  0  0  0  0  0  0  0  0  0  0  0
  -26.6232  -16.8170  148.2533 C   0  0  0  0  0  0  0  0  0  0  0  0
  -26.0690  -17.2828  147.0077 C   0  0  0  0  0  0  0  0  0  0  0  0
  -23.3935  -16.8876  144.9711 N   0  0  0  0  0  0  0  0  0  0  0  0
  -23.8876  -15.5722  144.6916 C   0  0  0  0  0  0  0  0  0  0  0  0
  -25.1633  -15.1692  145.1106 C   0  0  0  0  0  0  0  0  0  0  0  0
  -25.5810  -13.8920  144.6792 C   0  0  0  0  0  0  0  0  0  0  0  0
  -26.4325  -13.3991  144.9077 C   0  0  0  0  0  0  0  0  0  0  0  0
  -26.8901  -12.0251  144.4719 C   0  0  0  0  0  0  0  0  0  0  0  0
  -28.2009  -11.5644  144.6173 C   0  0  0  0  0  0  0  0  0  0  0  0
  -28.7979  -10.4171  144.0577 C   0  0  0  0  0  0  0  0  0  0  0  0
  -30.0532   -9.8755  144.4241 C   0  0  0  0  0  0  0  0  0  0  0  0
  -30.4909  -10.3270  145.6181 F   0  0  0  0  0  0  0  0  0  0  0  0
  -31.1024  -10.1608  143.6024 F   0  0  0  0  0  0  0  0  0  0  0  0
  -22.7771  -14.5826  143.9451 Cl  0  0  0  0  0  0  0  0  0  0  0  0
  -28.1058   -9.8393  142.9525 C   0  0  0  0  0  0  0  0  0  0  0  0
  -30.0012   -8.5283  144.4128 F   0  0  0  0  0  0  0  0  0  0  0  0
  -24.0788  -18.9477  145.2946 O   0  0  0  0  0  0  0  0  0  0  0  0
  -28.0300  -16.6449  148.4883 C   0  0  0  0  0  0  0  0  0  0  0  0
  -28.7455  -15.6357  147.7718 C   0  0  0  0  0  0  0  0  0  0  0  0
  -29.2943  -14.5493  148.0571 C   0  0  0  0  0  0  0  0  0  0  0  0
  -30.0226  -13.7007  147.1331 C   0  0  0  0  0  0  0  0  0  0  0  0
  -28.8830  -15.9737  146.3316 C   0  0  0  0  0  0  0  0  0  0  0  0
  -28.5590  -10.2951  141.7047 C   0  0  0  0  0  0  0  0  0  0  0  0
  -27.9522   -9.9779  140.5407 C   0  0  0  0  0  0  0  0  0  0  0  0
  -28.2364   -8.6642  140.0366 C   0  0  0  0  0  0  0  0  0  0  0  0
  -27.9262   -8.4249  138.6299 C   0  0  0  0  0  0  0  0  0  0  0  0
  1  2  1  0
  1  8  1  0
  8  9  1  0
  9 10  1  0
 10 11  2  3
 11 12  1  0
 12 13  1  0
 13 14  1  0
 14 15  2  3
 15 16  1  0
 16 17  1  0
 16 18  1  0
  9 19  1  0
 15 20  1  0
 16 21  1  0
  1 22  2  0
  6 23  1  0
 23 24  1  0
 24 25  2  3
 25 26  1  0
 24 27  1  0
 20 28  1  0
 28 29  1  0
 29 30  2  3
 30 31  1  0
  2  3  2  0
  3  4  1  0
  4  5  2  0
  5  6  1  0
  6  7  2  0
  7  2  1  0
M  END

$$$$
No_1215-/dssg/home/sw_qyf/PocketFlow/Model-Generation-Results/5HT2A_7WC7_rec_A_10.pdb/2024-01-01-03-54-21/
     RDKit          3D

 35 37  0  0  0  0  0  0  0  0999 V2000
  -23.1746  -16.6014  144.8668 C   0  0  0  0  0  0  0  0  0  0  0  0
  -24.0189  -16.0564  145.8445 C   0  0  0  0  0  0  0  0  0  0  0  0
  -24.4145  -16.8299  146.9062 C   0  0  0  0  0  0  0  0  0  0  0  0
  -23.9612  -18.1384  147.0126 C   0  0  0  0  0  0  0  0  0  0  0  0
  -23.1429  -18.6221  146.0418 C   0  0  0  0  0  0  0  0  0  0  0  0
  -22.8095  -17.8231  145.0610 N   0  0  0  0  0  0  0  0  0  0  0  0
  -24.4868  -14.6244  145.4815 C   0  0  0  0  0  0  0  0  0  0  0  0
  -25.1523  -13.8766  146.5014 C   0  0  0  0  0  0  0  0  0  0  0  0
  -25.4284  -12.5133  146.3667 C   0  0  0  0  0  0  0  0  0  0  0  0
  -25.9988  -12.1861  145.4074 C   0  0  0  0  0  0  0  0  0  0  0  0
  -25.6574  -12.8944  144.1679 C   0  0  0  0  0  0  0  0  0  0  0  0
  -25.1496  -14.2341  144.3284 C   0  0  0  0  0  0  0  0  0  0  0  0
  -24.8938  -14.8849  143.1888 O   0  0  0  0  0  0  0  0  0  0  0  0
  -26.4861  -15.2066  143.8405 Br  0  0  0  0  0  0  0  0  0  0  0  0
  -23.1538  -13.9238  145.2764 O   0  0  0  0  0  0  0  0  0  0  0  0
  -24.7583  -13.9499  141.8535 P   0  0  0  0  0  0  0  0  0  0  0  0
  -25.2705  -14.8148  140.8148 O   0  0  0  0  0  0  0  0  0  0  0  0
  -23.5399  -13.4682  141.9449 O   0  0  0  0  0  0  0  0  0  0  0  0
  -25.9298  -13.0457  141.9882 O   0  0  0  0  0  0  0  0  0  0  0  0
  -27.4617  -11.8223  145.4939 C   0  0  0  0  0  0  0  0  0  0  0  0
  -28.3668  -12.2357  146.4236 C   0  0  0  0  0  0  0  0  0  0  0  0
  -29.5832  -11.7180  146.6343 C   0  0  0  0  0  0  0  0  0  0  0  0
  -29.9979  -10.7646  145.7123 N   0  0  0  0  0  0  0  0  0  0  0  0
  -29.2201  -10.3349  144.7213 C   0  0  0  0  0  0  0  0  0  0  0  0
  -27.9241  -10.8413  144.5860 C   0  0  0  0  0  0  0  0  0  0  0  0
  -29.7225   -9.4152  143.8849 N   0  0  0  0  0  0  0  0  0  0  0  0
  -29.3379   -9.2504  142.6058 C   0  0  0  0  0  0  0  0  0  0  0  0
  -29.6776   -8.0391  141.9238 C   0  0  0  0  0  0  0  0  0  0  0  0
  -29.3700   -7.8513  140.5520 C   0  0  0  0  0  0  0  0  0  0  0  0
  -28.6211   -8.8506  139.8825 C   0  0  0  0  0  0  0  0  0  0  0  0
  -28.2892   -8.7340  138.5239 C   0  0  0  0  0  0  0  0  0  0  0  0
  -28.2089  -10.0812  140.5639 C   0  0  0  0  0  0  0  0  0  0  0  0
  -28.6173  -10.2436  141.9213 C   0  0  0  0  0  0  0  0  0  0  0  0
  -30.4051  -12.1450  147.6290 N   0  0  0  0  0  0  0  0  0  0  0  0
  -28.5377   -9.6273  137.8144 F   0  0  0  0  0  0  0  0  0  0  0  0
  2  7  1  0
  7  8  1  0
  8  9  1  0
  9 10  1  0
 10 11  2  3
 11 12  1  0
 12 13  1  0
 12 14  1  0
  7 15  1  0
 13 16  1  0
 16 17  2  0
 16 18  1  0
 16 19  1  0
 10 20  1  0
 24 26  1  0
 26 27  1  0
 30 31  1  0
 22 34  1  0
 31 35  1  0
  1  2  2  0
  2  3  1  0
  3  4  2  0
  4  5  1  0
  5  6  2  0
  6  1  1  0
 20 21  2  0
 21 22  1  0
 22 23  2  0
 23 24  1  0
 24 25  2  0
 25 20  1  0
 27 28  2  0
 28 29  1  0
 29 30  2  0
 30 32  1  0
 32 33  2  0
 33 27  1  0
M  END

$$$$
No_1216-/dssg/home/sw_qyf/PocketFlow/Model-Generation-Results/5HT2A_7WC7_rec_A_10.pdb/2024-01-01-03-54-21/
     RDKit          3D

 12 13  0  0  0  0  0  0  0  0999 V2000
  -23.1746  -16.6014  144.8668 C   0  0  0  0  0  0  0  0  0  0  0  0
  -23.7011  -17.0158  145.9774 C   0  0  0  0  0  0  0  0  0  0  0  0
  -24.7096  -16.6222  146.3577 C   0  0  0  0  0  0  0  0  0  0  0  0
  -25.4819  -15.5594  145.8226 C   0  0  0  0  0  0  0  0  0  0  0  0
  -24.9841  -15.0030  144.6879 C   0  0  0  0  0  0  0  0  0  0  0  0
  -23.7823  -15.5257  144.1978 C   0  0  0  0  0  0  0  0  0  0  0  0
  -25.6422  -13.8894  143.9561 C   0  0  0  0  0  0  0  0  0  0  0  0
  -25.7625  -13.7530  142.7506 C   0  0  0  0  0  0  0  0  0  0  0  0
  -26.8348  -13.0824  142.1005 C   0  0  0  0  0  0  0  0  0  0  0  0
  -27.6658  -12.2258  142.8834 C   0  0  0  0  0  0  0  0  0  0  0  0
  -27.4392  -12.2362  144.3212 C   0  0  0  0  0  0  0  0  0  0  0  0
  -26.4819  -13.0823  144.8861 C   0  0  0  0  0  0  0  0  0  0  0  0
  5  7  1  0
  1  2  2  0
  2  3  1  0
  3  4  2  0
  4  5  1  0
  5  6  2  0
  6  1  1  0
  7  8  2  0
  8  9  1  0
  9 10  2  0
 10 11  1  0
 11 12  2  0
 12  7  1  0
M  END

$$$$
No_1217-/dssg/home/sw_qyf/PocketFlow/Model-Generation-Results/5HT2A_7WC7_rec_A_10.pdb/2024-01-01-03-54-21/
     RDKit          3D

 29 30  0  0  0  0  0  0  0  0999 V2000
  -24.1553  -17.8465  145.7021 C   0  0  0  0  0  0  0  0  0  0  0  0
  -24.2856  -16.6364  145.3494 C   0  0  0  0  0  0  0  0  0  0  0  0
  -25.0033  -15.6772  146.0737 C   0  0  0  0  0  0  0  0  0  0  0  0
  -25.6964  -16.1810  147.2049 C   0  0  0  0  0  0  0  0  0  0  0  0
  -24.8143  -18.3454  146.8324 C   0  0  0  0  0  0  0  0  0  0  0  0
  -25.5292  -17.4614  147.6373 C   0  0  0  0  0  0  0  0  0  0  0  0
  -23.6541  -16.0768  144.2055 N   0  0  0  0  0  0  0  0  0  0  0  0
  -25.1820  -14.2638  145.6423 C   0  0  0  0  0  0  0  0  0  0  0  0
  -25.4260  -13.4101  146.1129 C   0  0  0  0  0  0  0  0  0  0  0  0
  -25.5141  -11.9733  145.6976 C   0  0  0  0  0  0  0  0  0  0  0  0
  -26.3065  -11.3242  145.1955 C   0  0  0  0  0  0  0  0  0  0  0  0
  -27.6939  -11.5089  145.3516 C   0  0  0  0  0  0  0  0  0  0  0  0
  -28.6908  -10.6240  144.7359 C   0  0  0  0  0  0  0  0  0  0  0  0
  -30.0844  -10.7556  144.9662 C   0  0  0  0  0  0  0  0  0  0  0  0
  -30.4156  -11.6223  145.9606 O   0  0  0  0  0  0  0  0  0  0  0  0
  -24.4561  -14.0892  144.2971 C   0  0  0  0  0  0  0  0  0  0  0  0
  -24.5770  -12.9149  143.8467 O   0  0  0  0  0  0  0  0  0  0  0  0
  -23.7411  -14.8994  143.7646 N   0  0  0  0  0  0  0  0  0  0  0  0
  -30.8963   -9.9358  144.5911 O   0  0  0  0  0  0  0  0  0  0  0  0
  -28.1829   -9.6858  143.7354 C   0  0  0  0  0  0  0  0  0  0  0  0
  -29.1630   -8.7936  143.3399 C   0  0  0  0  0  0  0  0  0  0  0  0
  -28.8137   -7.8569  142.1898 C   0  0  0  0  0  0  0  0  0  0  0  0
  -29.5724   -7.8970  141.1339 C   0  0  0  0  0  0  0  0  0  0  0  0
  -29.1002   -7.1806  139.9237 C   0  0  0  0  0  0  0  0  0  0  0  0
  -28.7776   -7.9599  138.8446 C   0  0  0  0  0  0  0  0  0  0  0  0
  -29.2357   -7.6032  137.5376 C   0  0  0  0  0  0  0  0  0  0  0  0
  -28.6725   -8.7246  136.6849 C   0  0  0  0  0  0  0  0  0  0  0  0
  -27.4793   -8.6363  138.9485 C   0  0  0  0  0  0  0  0  0  0  0  0
  -24.0893  -11.6772  145.6603 O   0  0  0  0  0  0  0  0  0  0  0  0
  2  7  1  0
  3  8  1  0
  9 10  1  0
 10 11  1  0
 11 12  2  3
 12 13  1  0
 13 14  1  0
 14 15  1  0
  8 16  1  0
 16 17  2  0
 16 18  1  0
 14 19  2  0
 13 20  1  0
 20 21  1  0
 21 22  1  0
 22 23  2  3
 23 24  1  0
 24 25  1  0
 25 26  1  0
 26 27  1  0
 25 28  1  0
 10 29  1  0
  9  8  1  0
  7 18  1  0
  1  2  2  0
  2  3  1  0
  3  4  2  0
  4  6  1  0
  6  5  2  0
  5  1  1  0
M  END

$$$$
No_1218-/dssg/home/sw_qyf/PocketFlow/Model-Generation-Results/5HT2A_7WC7_rec_A_10.pdb/2024-01-01-03-54-21/
     RDKit          3D

 12 13  0  0  0  0  0  0  0  0999 V2000
  -24.1553  -17.8465  145.7021 C   0  0  0  0  0  0  0  0  0  0  0  0
  -24.2855  -16.6364  145.3494 C   0  0  0  0  0  0  0  0  0  0  0  0
  -24.7211  -15.5955  146.2116 C   0  0  0  0  0  0  0  0  0  0  0  0
  -24.8538  -14.2010  145.8739 C   0  0  0  0  0  0  0  0  0  0  0  0
  -25.3911  -13.2248  146.7184 C   0  0  0  0  0  0  0  0  0  0  0  0
  -24.5930  -18.2699  146.9809 C   0  0  0  0  0  0  0  0  0  0  0  0
  -25.1554  -17.3846  147.9076 C   0  0  0  0  0  0  0  0  0  0  0  0
  -25.2071  -15.9636  147.5445 C   0  0  0  0  0  0  0  0  0  0  0  0
  -24.3640  -13.8250  144.5657 C   0  0  0  0  0  0  0  0  0  0  0  0
  -25.3419  -11.8445  146.2821 C   0  0  0  0  0  0  0  0  0  0  0  0
  -24.2886  -12.4396  144.2892 N   0  0  0  0  0  0  0  0  0  0  0  0
  -24.7710  -11.4948  145.1087 C   0  0  0  0  0  0  0  0  0  0  0  0
  3  4  1  0
  1  2  2  0
  2  3  1  0
  3  8  2  0
  8  7  1  0
  7  6  2  0
  6  1  1  0
  4  5  2  0
  5 10  1  0
 10 12  2  0
 12 11  1  0
 11  9  2  0
  9  4  1  0
M  END

$$$$
No_1219-/dssg/home/sw_qyf/PocketFlow/Model-Generation-Results/5HT2A_7WC7_rec_A_10.pdb/2024-01-01-03-54-21/
     RDKit          3D

 35 37  0  0  0  0  0  0  0  0999 V2000
  -23.1746  -16.6014  144.8668 C   0  0  0  0  0  0  0  0  0  0  0  0
  -23.7011  -17.0158  145.9774 C   0  0  0  0  0  0  0  0  0  0  0  0
  -24.0502  -18.2101  146.3018 C   0  0  0  0  0  0  0  0  0  0  0  0
  -24.6027  -18.5663  147.5667 C   0  0  0  0  0  0  0  0  0  0  0  0
  -24.7539  -17.5194  148.5563 C   0  0  0  0  0  0  0  0  0  0  0  0
  -24.6083  -16.1798  148.2114 C   0  0  0  0  0  0  0  0  0  0  0  0
  -23.9574  -15.9002  147.0100 C   0  0  0  0  0  0  0  0  0  0  0  0
  -23.2197  -15.2072  144.4924 C   0  0  0  0  0  0  0  0  0  0  0  0
  -24.5107  -14.5175  144.1445 C   0  0  0  0  0  0  0  0  0  0  0  0
  -24.8740  -13.6136  145.1287 C   0  0  0  0  0  0  0  0  0  0  0  0
  -24.0395  -12.6068  145.5158 C   0  0  0  0  0  0  0  0  0  0  0  0
  -23.7473  -19.2256  145.5405 O   0  0  0  0  0  0  0  0  0  0  0  0
  -26.2893  -13.5959  145.4988 C   0  0  0  0  0  0  0  0  0  0  0  0
  -26.8644  -12.4171  145.9269 C   0  0  0  0  0  0  0  0  0  0  0  0
  -26.8873  -11.4287  145.1955 C   0  0  0  0  0  0  0  0  0  0  0  0
  -27.9686  -10.4197  145.2277 C   0  0  0  0  0  0  0  0  0  0  0  0
  -29.2438  -10.9346  145.4033 C   0  0  0  0  0  0  0  0  0  0  0  0
  -29.4208  -11.7793  146.5878 C   0  0  0  0  0  0  0  0  0  0  0  0
  -28.3462  -12.9019  146.5698 C   0  0  0  0  0  0  0  0  0  0  0  0
  -30.3828  -11.8374  147.4161 N   0  0  0  0  0  0  0  0  0  0  0  0
  -24.1959  -11.9382  146.7609 C   0  0  0  0  0  0  0  0  0  0  0  0
  -22.8946  -12.2701  144.7663 C   0  0  0  0  0  0  0  0  0  0  0  0
  -25.3834  -17.7949  149.9257 C   0  0  0  0  0  0  0  0  0  0  0  0
  -24.6411  -17.4843  150.9071 O   0  0  0  0  0  0  0  0  0  0  0  0
  -28.5426  -14.0325  147.2609 C   0  0  0  0  0  0  0  0  0  0  0  0
  -29.6875  -14.1589  148.0853 C   0  0  0  0  0  0  0  0  0  0  0  0
  -30.5936  -13.0042  148.1552 C   0  0  0  0  0  0  0  0  0  0  0  0
  -31.6361  -13.0096  148.9209 F   0  0  0  0  0  0  0  0  0  0  0  0
  -30.3857  -10.2858  144.8514 C   0  0  0  0  0  0  0  0  0  0  0  0
  -30.1982   -9.5493  143.6388 C   0  0  0  0  0  0  0  0  0  0  0  0
  -29.1773   -9.7825  142.9106 C   0  0  0  0  0  0  0  0  0  0  0  0
  -29.4438  -10.2242  141.6061 C   0  0  0  0  0  0  0  0  0  0  0  0
  -28.3287  -10.7465  140.7195 C   0  0  0  0  0  0  0  0  0  0  0  0
  -28.3459  -11.8133  139.9562 C   0  0  0  0  0  0  0  0  0  0  0  0
  -27.8170  -12.8914  140.3259 C   0  0  0  0  0  0  0  0  0  0  0  0
  1  2  2  3
  2  3  1  0
  3  4  1  0
  4  5  1  0
  5  6  1  0
  2  7  1  0
  6  7  1  0
  1  8  1  0
  8  9  1  0
  9 10  1  0
 10 11  1  0
  3 12  2  0
 10 13  1  0
 13 14  2  3
 14 15  1  0
 15 16  1  0
 16 17  1  0
 17 18  1  0
 14 19  1  0
 11 21  2  0
 11 22  1  0
  5 23  1  0
 23 24  2  0
 27 28  1  0
 17 29  1  0
 29 30  1  0
 30 31  3  0
 31 32  1  0
 32 33  1  0
 33 34  1  0
 34 35  1  0
 18 19  2  0
 19 25  1  0
 25 26  2  0
 26 27  1  0
 27 20  2  0
 20 18  1  0
M  END

$$$$
No_1220-/dssg/home/sw_qyf/PocketFlow/Model-Generation-Results/5HT2A_7WC7_rec_A_10.pdb/2024-01-01-03-54-21/
     RDKit          3D

 19 20  0  0  0  0  0  0  0  0999 V2000
  -24.1553  -17.8465  145.7021 C   0  0  0  0  0  0  0  0  0  0  0  0
  -24.6364  -17.2931  146.7091 C   0  0  0  0  0  0  0  0  0  0  0  0
  -24.0780  -17.2921  147.9389 C   0  0  0  0  0  0  0  0  0  0  0  0
  -22.7158  -17.6979  148.0096 C   0  0  0  0  0  0  0  0  0  0  0  0
  -22.0159  -17.4712  149.5557 Cl  0  0  0  0  0  0  0  0  0  0  0  0
  -24.7063  -17.6273  144.4145 C   0  0  0  0  0  0  0  0  0  0  0  0
  -24.4653  -16.3125  144.1687 C   0  0  0  0  0  0  0  0  0  0  0  0
  -25.0567  -15.2623  144.5080 C   0  0  0  0  0  0  0  0  0  0  0  0
  -24.9467  -13.9777  143.8637 C   0  0  0  0  0  0  0  0  0  0  0  0
  -25.8407  -15.1794  145.8276 C   0  0  0  0  0  0  0  0  0  0  0  0
  -26.6020  -14.0556  146.1259 C   0  0  0  0  0  0  0  0  0  0  0  0
  -27.5165  -13.9946  147.0670 C   0  0  0  0  0  0  0  0  0  0  0  0
  -28.7804  -13.5785  146.7476 C   0  0  0  0  0  0  0  0  0  0  0  0
  -28.9175  -12.3940  145.9134 C   0  0  0  0  0  0  0  0  0  0  0  0
  -27.8431  -12.1407  145.0357 C   0  0  0  0  0  0  0  0  0  0  0  0
  -26.7252  -12.9776  145.0877 C   0  0  0  0  0  0  0  0  0  0  0  0
  -25.5679  -16.1621  146.9027 C   0  0  0  0  0  0  0  0  0  0  0  0
  -24.9203  -12.9828  144.3525 O   0  0  0  0  0  0  0  0  0  0  0  0
  -27.1191  -13.2437  144.1706 C   0  0  0  0  0  0  0  0  0  0  0  0
  1  2  1  0
  2  3  2  3
  3  4  1  0
  4  5  1  0
  1  6  1  0
  6  7  1  0
  7  8  2  0
  8  9  1  0
  8 10  1  0
 10 11  1  0
  2 17  1  0
 10 17  1  0
  9 18  1  0
 16 19  1  0
 11 12  2  0
 12 13  1  0
 13 14  2  0
 14 15  1  0
 15 16  2  0
 16 11  1  0
M  END

$$$$
No_1221-/dssg/home/sw_qyf/PocketFlow/Model-Generation-Results/5HT2A_7WC7_rec_A_10.pdb/2024-01-01-03-54-21/
     RDKit          3D

  8  8  0  0  0  0  0  0  0  0999 V2000
  -23.1746  -16.6014  144.8668 C   0  0  0  0  0  0  0  0  0  0  0  0
  -23.8963  -15.5346  144.7885 C   0  0  0  0  0  0  0  0  0  0  0  0
  -25.0304  -15.2549  144.5358 C   0  0  0  0  0  0  0  0  0  0  0  0
  -26.0482  -16.0541  145.3273 C   0  0  0  0  0  0  0  0  0  0  0  0
  -24.1314  -17.6118  145.6547 C   0  0  0  0  0  0  0  0  0  0  0  0
  -25.4664  -17.2664  145.8096 C   0  0  0  0  0  0  0  0  0  0  0  0
  -25.6084  -13.9399  144.0495 C   0  0  0  0  0  0  0  0  0  0  0  0
  -26.7310  -13.2423  144.9348 Cl  0  0  0  0  0  0  0  0  0  0  0  0
  3  7  1  0
  7  8  1  0
  1  2  2  0
  2  3  1  0
  3  4  2  0
  4  6  1  0
  6  5  2  0
  5  1  1  0
M  END

$$$$
No_1222-/dssg/home/sw_qyf/PocketFlow/Model-Generation-Results/5HT2A_7WC7_rec_A_10.pdb/2024-01-01-03-54-21/
     RDKit          3D

 35 39  0  0  0  0  0  0  0  0999 V2000
  -24.1553  -17.8465  145.7021 C   0  0  0  0  0  0  0  0  0  0  0  0
  -24.6364  -17.2931  146.7091 C   0  0  0  0  0  0  0  0  0  0  0  0
  -24.0780  -17.2921  147.9389 C   0  0  0  0  0  0  0  0  0  0  0  0
  -24.6761  -16.7363  149.1478 C   0  0  0  0  0  0  0  0  0  0  0  0
  -25.9985  -16.2638  148.9932 C   0  0  0  0  0  0  0  0  0  0  0  0
  -26.6270  -16.3412  147.7728 C   0  0  0  0  0  0  0  0  0  0  0  0
  -25.9734  -16.9165  146.6819 C   0  0  0  0  0  0  0  0  0  0  0  0
  -23.5884  -19.0110  145.5480 N   0  0  0  0  0  0  0  0  0  0  0  0
  -28.0647  -15.9002  147.7228 C   0  0  0  0  0  0  0  0  0  0  0  0
  -28.3917  -15.0039  146.7034 C   0  0  0  0  0  0  0  0  0  0  0  0
  -27.5148  -14.5150  145.7954 C   0  0  0  0  0  0  0  0  0  0  0  0
  -26.7839  -15.1651  145.0181 C   0  0  0  0  0  0  0  0  0  0  0  0
  -25.6815  -16.0502  145.6464 C   0  0  0  0  0  0  0  0  0  0  0  0
  -24.4685  -16.1217  144.8265 C   0  0  0  0  0  0  0  0  0  0  0  0
  -23.8459  -17.1906  144.4007 C   0  0  0  0  0  0  0  0  0  0  0  0
  -29.7497  -14.4183  146.8183 C   0  0  0  0  0  0  0  0  0  0  0  0
  -29.8061  -13.1347  147.4987 C   0  0  0  0  0  0  0  0  0  0  0  0
  -29.3293  -11.9224  146.9129 C   0  0  0  0  0  0  0  0  0  0  0  0
  -30.2850  -10.9033  146.4638 C   0  0  0  0  0  0  0  0  0  0  0  0
  -30.0669  -10.5895  145.0352 C   0  0  0  0  0  0  0  0  0  0  0  0
  -30.6290   -9.5729  144.3656 C   0  0  0  0  0  0  0  0  0  0  0  0
  -29.9852   -9.0117  143.2533 C   0  0  0  0  0  0  0  0  0  0  0  0
  -30.3988   -7.7271  142.7483 C   0  0  0  0  0  0  0  0  0  0  0  0
  -29.8451   -7.2874  141.4796 C   0  0  0  0  0  0  0  0  0  0  0  0
  -29.2539   -8.2486  140.5775 C   0  0  0  0  0  0  0  0  0  0  0  0
  -28.7761   -9.4436  141.1488 C   0  0  0  0  0  0  0  0  0  0  0  0
  -29.3458   -9.8979  142.4137 C   0  0  0  0  0  0  0  0  0  0  0  0
  -28.0100  -10.3464  140.3136 C   0  0  0  0  0  0  0  0  0  0  0  0
  -27.5351  -11.6117  140.8158 C   0  0  0  0  0  0  0  0  0  0  0  0
  -26.9208  -12.4952  139.9624 C   0  0  0  0  0  0  0  0  0  0  0  0
  -26.8464  -12.0933  138.5526 C   0  0  0  0  0  0  0  0  0  0  0  0
  -27.4715  -10.9916  138.1656 C   0  0  0  0  0  0  0  0  0  0  0  0
  -28.0353  -10.0905  138.9810 C   0  0  0  0  0  0  0  0  0  0  0  0
  -26.3849  -13.6104  140.4899 O   0  0  0  0  0  0  0  0  0  0  0  0
  -30.6030  -13.0322  148.7762 C   0  0  0  0  0  0  0  0  0  0  0  0
  1  2  1  0
  1  8  1  0
  6  9  1  0
  9 10  1  0
 10 11  1  0
 11 12  2  0
  7 13  1  0
 12 13  1  0
 13 14  1  0
  1 15  1  0
 14 15  1  0
 10 16  1  0
 16 17  1  0
 17 18  2  3
 18 19  1  0
 19 20  1  0
 20 21  1  0
 21 22  1  0
 26 28  1  0
 30 34  1  0
 17 35  1  0
 28 29  2  0
 29 30  1  0
 30 31  2  0
 31 32  1  0
 32 33  2  0
 33 28  1  0
  2  3  2  0
  3  4  1  0
  4  5  2  0
  5  6  1  0
  6  7  2  0
  7  2  1  0
 22 23  2  0
 23 24  1  0
 24 25  2  0
 25 26  1  0
 26 27  2  0
 27 22  1  0
M  END

$$$$
No_1223-/dssg/home/sw_qyf/PocketFlow/Model-Generation-Results/5HT2A_7WC7_rec_A_10.pdb/2024-01-01-03-54-21/
     RDKit          3D

  8  8  0  0  0  0  0  0  0  0999 V2000
  -24.1553  -17.8465  145.7021 C   0  0  0  0  0  0  0  0  0  0  0  0
  -24.6364  -17.2931  146.7091 C   0  0  0  0  0  0  0  0  0  0  0  0
  -25.8608  -16.5592  146.5934 C   0  0  0  0  0  0  0  0  0  0  0  0
  -26.9933  -16.9082  147.1889 C   0  0  0  0  0  0  0  0  0  0  0  0
  -28.2350  -16.1839  146.8943 C   0  0  0  0  0  0  0  0  0  0  0  0
  -28.0449  -14.7940  146.7879 C   0  0  0  0  0  0  0  0  0  0  0  0
  -26.8229  -14.2199  146.3088 C   0  0  0  0  0  0  0  0  0  0  0  0
  -25.6291  -15.1167  146.4721 C   0  0  0  0  0  0  0  0  0  0  0  0
  1  2  1  0
  2  3  1  0
  3  4  2  0
  4  5  1  0
  5  6  2  0
  6  7  1  0
  7  8  2  0
  8  3  1  0
M  END

$$$$
No_1224-/dssg/home/sw_qyf/PocketFlow/Model-Generation-Results/5HT2A_7WC7_rec_A_10.pdb/2024-01-01-03-54-21/
     RDKit          3D

 30 33  0  0  0  0  0  0  0  0999 V2000
  -24.1553  -17.8465  145.7021 C   0  0  0  0  0  0  0  0  0  0  0  0
  -24.2856  -16.6364  145.3494 C   0  0  0  0  0  0  0  0  0  0  0  0
  -24.7211  -15.5955  146.2116 C   0  0  0  0  0  0  0  0  0  0  0  0
  -24.8538  -14.2010  145.8739 C   0  0  0  0  0  0  0  0  0  0  0  0
  -25.3912  -13.2248  146.7184 C   0  0  0  0  0  0  0  0  0  0  0  0
  -24.5930  -18.2699  146.9809 C   0  0  0  0  0  0  0  0  0  0  0  0
  -25.1554  -17.3846  147.9076 C   0  0  0  0  0  0  0  0  0  0  0  0
  -25.2071  -15.9636  147.5445 C   0  0  0  0  0  0  0  0  0  0  0  0
  -24.3640  -13.8250  144.5657 C   0  0  0  0  0  0  0  0  0  0  0  0
  -25.3419  -11.8445  146.2821 C   0  0  0  0  0  0  0  0  0  0  0  0
  -25.1405  -11.5779  144.8976 C   0  0  0  0  0  0  0  0  0  0  0  0
  -23.7905  -14.6344  143.7201 N   0  0  0  0  0  0  0  0  0  0  0  0
  -25.1569  -10.2928  144.6015 F   0  0  0  0  0  0  0  0  0  0  0  0
  -24.5691  -12.3561  144.2010 C   0  0  0  0  0  0  0  0  0  0  0  0
  -23.7485  -16.0576  144.0477 C   0  0  0  0  0  0  0  0  0  0  0  0
  -23.7221  -18.8291  144.9310 O   0  0  0  0  0  0  0  0  0  0  0  0
  -25.5068  -17.6587  149.3410 C   0  0  0  0  0  0  0  0  0  0  0  0
  -26.9996  -18.0203  149.9143 Br  0  0  0  0  0  0  0  0  0  0  0  0
  -24.3113  -17.5565  150.3066 C   0  0  0  0  0  0  0  0  0  0  0  0
  -23.4822  -16.4648  150.3954 C   0  0  0  0  0  0  0  0  0  0  0  0
  -22.1482  -16.7845  151.0026 C   0  0  0  0  0  0  0  0  0  0  0  0
  -21.2954  -16.2050  150.9167 O   0  0  0  0  0  0  0  0  0  0  0  0
  -26.2450  -10.9539  146.8865 O   0  0  0  0  0  0  0  0  0  0  0  0
  -22.0360  -17.9397  151.5692 O   0  0  0  0  0  0  0  0  0  0  0  0
  -23.6643  -20.0848  145.5362 C   0  0  0  0  0  0  0  0  0  0  0  0
  -23.5006  -20.0413  146.9966 C   0  0  0  0  0  0  0  0  0  0  0  0
  -23.6732  -18.7958  147.4771 C   0  0  0  0  0  0  0  0  0  0  0  0
  -23.0994  -16.8003  143.3990 O   0  0  0  0  0  0  0  0  0  0  0  0
  -24.8187  -20.8547  145.2903 O   0  0  0  0  0  0  0  0  0  0  0  0
  -21.9782  -20.3132  147.0842 O   0  0  0  0  0  0  0  0  0  0  0  0
  3  4  1  0
  9 12  1  0
 11 13  1  0
  2 15  1  0
 12 15  1  0
  1 16  1  0
  7 17  1  0
 17 18  1  0
 17 19  1  0
 19 20  1  0
 20 21  1  0
 21 22  1  0
 10 23  1  0
 21 24  2  0
 16 25  1  0
 25 26  1  0
  6 27  1  0
 26 27  2  0
 15 28  2  0
 25 29  1  0
 26 30  1  0
  4  5  2  0
  5 10  1  0
 10 11  2  0
 11 14  1  0
 14  9  2  0
  9  4  1  0
  1  2  1  0
  2  3  2  0
  3  8  1  0
  8  7  2  0
  7  6  1  0
  6  1  2  0
M  END

$$$$
No_1225-/dssg/home/sw_qyf/PocketFlow/Model-Generation-Results/5HT2A_7WC7_rec_A_10.pdb/2024-01-01-03-54-21/
     RDKit          3D

 34 37  0  0  0  0  0  0  0  0999 V2000
  -24.1553  -17.8465  145.7021 C   0  0  0  0  0  0  0  0  0  0  0  0
  -23.9795  -18.4462  146.7426 C   0  0  0  0  0  0  0  0  0  0  0  0
  -25.1593  -16.8262  145.6925 C   0  0  0  0  0  0  0  0  0  0  0  0
  -24.9465  -15.5961  144.9952 C   0  0  0  0  0  0  0  0  0  0  0  0
  -25.8223  -14.4752  145.0170 C   0  0  0  0  0  0  0  0  0  0  0  0
  -27.0184  -14.6633  145.8014 C   0  0  0  0  0  0  0  0  0  0  0  0
  -27.3189  -15.8960  146.4009 C   0  0  0  0  0  0  0  0  0  0  0  0
  -26.3633  -16.9366  146.4299 C   0  0  0  0  0  0  0  0  0  0  0  0
  -23.1855  -17.6775  147.8282 C   0  0  0  0  0  0  0  0  0  0  0  0
  -22.3216  -16.9643  147.6393 O   0  0  0  0  0  0  0  0  0  0  0  0
  -23.7022  -17.8052  149.1485 F   0  0  0  0  0  0  0  0  0  0  0  0
  -28.6144  -16.0453  147.1104 C   0  0  0  0  0  0  0  0  0  0  0  0
  -29.5684  -14.9429  147.1499 C   0  0  0  0  0  0  0  0  0  0  0  0
  -29.1186  -13.6572  146.6368 C   0  0  0  0  0  0  0  0  0  0  0  0
  -29.9173  -12.4619  146.7829 C   0  0  0  0  0  0  0  0  0  0  0  0
  -29.4360  -11.2534  146.1548 C   0  0  0  0  0  0  0  0  0  0  0  0
  -28.3603  -11.1626  145.2690 C   0  0  0  0  0  0  0  0  0  0  0  0
  -27.8333  -13.5534  145.9818 C   0  0  0  0  0  0  0  0  0  0  0  0
  -27.4355  -12.2809  145.3353 C   0  0  0  0  0  0  0  0  0  0  0  0
  -28.0807  -10.0004  144.5692 C   0  0  0  0  0  0  0  0  0  0  0  0
  -28.4345  -10.0634  143.1435 C   0  0  0  0  0  0  0  0  0  0  0  0
  -29.2814   -9.0259  142.6662 C   0  0  0  0  0  0  0  0  0  0  0  0
  -29.4083   -8.9399  141.2451 C   0  0  0  0  0  0  0  0  0  0  0  0
  -30.1399   -7.8556  140.5930 C   0  0  0  0  0  0  0  0  0  0  0  0
  -29.8001   -7.6820  139.2933 C   0  0  0  0  0  0  0  0  0  0  0  0
  -28.1457  -11.1363  142.3478 C   0  0  0  0  0  0  0  0  0  0  0  0
  -28.3726  -11.1335  140.9939 C   0  0  0  0  0  0  0  0  0  0  0  0
  -28.9867   -9.9609  140.4274 C   0  0  0  0  0  0  0  0  0  0  0  0
  -27.6468  -12.0625  140.2439 C   0  0  0  0  0  0  0  0  0  0  0  0
  -27.2261  -13.0620  140.8947 F   0  0  0  0  0  0  0  0  0  0  0  0
  -26.5977  -11.5784  139.4987 F   0  0  0  0  0  0  0  0  0  0  0  0
  -28.5360  -12.6368  139.2841 F   0  0  0  0  0  0  0  0  0  0  0  0
  -23.6945  -15.4671  144.2039 C   0  0  0  0  0  0  0  0  0  0  0  0
  -23.3400  -14.2965  143.8539 O   0  0  0  0  0  0  0  0  0  0  0  0
  1  2  1  0
  1  3  1  0
  2  9  1  0
  9 10  2  0
  9 11  1  0
 17 20  1  0
 20 21  1  0
 23 24  1  0
 24 25  1  0
 27 29  1  0
 29 30  1  0
 29 31  1  0
 29 32  1  0
  4 33  1  0
 33 34  1  0
 14 15  2  0
 15 16  1  0
 16 17  2  0
 17 19  1  0
 19 18  2  0
  7 12  1  0
 12 13  2  0
 13 14  1  0
 14 18  1  0
 18  6  1  0
  3  4  2  0
  4  5  1  0
  5  6  2  0
  6  7  1  0
  7  8  2  0
  8  3  1  0
 21 22  2  0
 22 23  1  0
 23 28  2  0
 28 27  1  0
 27 26  2  0
 26 21  1  0
M  END

$$$$
No_1226-/dssg/home/sw_qyf/PocketFlow/Model-Generation-Results/5HT2A_7WC7_rec_A_10.pdb/2024-01-01-03-54-21/
     RDKit          3D

 35 37  0  0  0  0  0  0  0  0999 V2000
  -23.1746  -16.6014  144.8668 C   0  0  0  0  0  0  0  0  0  0  0  0
  -23.7011  -17.0158  145.9774 C   0  0  0  0  0  0  0  0  0  0  0  0
  -23.7336  -18.2775  146.3737 C   0  0  0  0  0  0  0  0  0  0  0  0
  -24.1960  -18.6445  147.6858 C   0  0  0  0  0  0  0  0  0  0  0  0
  -24.7100  -17.6145  148.5486 C   0  0  0  0  0  0  0  0  0  0  0  0
  -24.7929  -16.2635  148.0870 C   0  0  0  0  0  0  0  0  0  0  0  0
  -24.2508  -15.9434  146.8891 C   0  0  0  0  0  0  0  0  0  0  0  0
  -23.5534  -15.6011  144.1530 N   0  0  0  0  0  0  0  0  0  0  0  0
  -23.9386  -14.4403  144.8214 C   0  0  0  0  0  0  0  0  0  0  0  0
  -24.5276  -14.6086  146.1514 C   0  0  0  0  0  0  0  0  0  0  0  0
  -24.1453  -12.9558  144.0487 Cl  0  0  0  0  0  0  0  0  0  0  0  0
  -23.2517  -19.2458  145.7027 O   0  0  0  0  0  0  0  0  0  0  0  0
  -25.1747  -17.9599  149.9220 C   0  0  0  0  0  0  0  0  0  0  0  0
  -24.4154  -17.5095  150.9519 N   0  0  0  0  0  0  0  0  0  0  0  0
  -26.4240  -18.0568  150.1790 O   0  0  0  0  0  0  0  0  0  0  0  0
  -25.0171  -13.5866  146.9003 O   0  0  0  0  0  0  0  0  0  0  0  0
  -26.1089  -13.0284  146.3698 C   0  0  0  0  0  0  0  0  0  0  0  0
  -27.2884  -13.4718  146.3125 C   0  0  0  0  0  0  0  0  0  0  0  0
  -28.3420  -12.6831  145.9746 C   0  0  0  0  0  0  0  0  0  0  0  0
  -29.7352  -12.8633  146.2903 C   0  0  0  0  0  0  0  0  0  0  0  0
  -29.8269  -12.8403  147.7399 C   0  0  0  0  0  0  0  0  0  0  0  0
  -28.0719  -11.6832  144.8844 C   0  0  0  0  0  0  0  0  0  0  0  0
  -28.1408  -12.0616  143.5491 C   0  0  0  0  0  0  0  0  0  0  0  0
  -28.1763  -11.0665  142.5251 C   0  0  0  0  0  0  0  0  0  0  0  0
  -28.2751  -11.4742  141.2115 C   0  0  0  0  0  0  0  0  0  0  0  0
  -28.4351  -10.5563  140.1709 C   0  0  0  0  0  0  0  0  0  0  0  0
  -28.7153   -9.1895  140.4665 C   0  0  0  0  0  0  0  0  0  0  0  0
  -28.7936   -8.8535  141.8848 C   0  0  0  0  0  0  0  0  0  0  0  0
  -28.4957   -9.7791  142.9032 C   0  0  0  0  0  0  0  0  0  0  0  0
  -30.8782  -13.1314  147.8888 C   0  0  0  0  0  0  0  0  0  0  0  0
  -28.9279   -8.2277  139.4907 C   0  0  0  0  0  0  0  0  0  0  0  0
  -29.3684   -7.1463  139.8251 F   0  0  0  0  0  0  0  0  0  0  0  0
  -28.4479   -8.3685  138.1859 C   0  0  0  0  0  0  0  0  0  0  0  0
  -29.2292   -9.0195  137.4907 O   0  0  0  0  0  0  0  0  0  0  0  0
  -31.0293  -13.0713  149.3439 C   0  0  0  0  0  0  0  0  0  0  0  0
  1  2  1  0
  1  8  1  0
  8  9  1  0
  7 10  1  0
  9 10  1  0
  9 11  1  0
  3 12  1  0
  5 13  1  0
 13 14  1  0
 13 15  2  0
 10 16  1  0
 16 17  1  0
 17 18  2  3
 18 19  1  0
 19 20  1  0
 20 21  1  0
 19 22  1  0
 22 23  1  0
 21 30  1  0
 27 31  1  0
 31 32  1  0
 31 33  1  0
 33 34  1  0
 30 35  2  0
 23 24  1  0
  2  3  2  0
  3  4  1  0
  4  5  2  0
  5  6  1  0
  6  7  2  0
  7  2  1  0
 24 25  2  0
 25 26  1  0
 26 27  2  0
 27 28  1  0
 28 29  2  0
 29 24  1  0
M  END

$$$$
No_1227-/dssg/home/sw_qyf/PocketFlow/Model-Generation-Results/5HT2A_7WC7_rec_A_10.pdb/2024-01-01-03-54-21/
     RDKit          3D

 21 21  0  0  0  0  0  0  0  0999 V2000
  -23.1746  -16.6014  144.8668 C   0  0  0  0  0  0  0  0  0  0  0  0
  -23.8963  -15.5346  144.7885 C   0  0  0  0  0  0  0  0  0  0  0  0
  -23.6398  -14.5115  145.3281 C   0  0  0  0  0  0  0  0  0  0  0  0
  -24.3241  -13.3648  145.1281 C   0  0  0  0  0  0  0  0  0  0  0  0
  -23.8303  -12.0965  145.7921 C   0  0  0  0  0  0  0  0  0  0  0  0
  -25.3060  -13.1626  144.3111 O   0  0  0  0  0  0  0  0  0  0  0  0
  -23.6153  -17.8026  145.6028 C   0  0  0  0  0  0  0  0  0  0  0  0
  -22.9860  -17.8492  146.6369 F   0  0  0  0  0  0  0  0  0  0  0  0
  -24.9279  -17.5814  145.9133 F   0  0  0  0  0  0  0  0  0  0  0  0
  -23.5499  -18.9947  144.9995 F   0  0  0  0  0  0  0  0  0  0  0  0
  -26.4540  -12.5256  144.7531 C   0  0  0  0  0  0  0  0  0  0  0  0
  -26.6271  -11.3000  143.9710 C   0  0  0  0  0  0  0  0  0  0  0  0
  -27.3027  -10.2692  144.8970 C   0  0  0  0  0  0  0  0  0  0  0  0
  -28.5639  -10.7520  145.3384 C   0  0  0  0  0  0  0  0  0  0  0  0
  -28.4538  -11.9279  146.2913 C   0  0  0  0  0  0  0  0  0  0  0  0
  -27.5187  -13.0203  145.6329 C   0  0  0  0  0  0  0  0  0  0  0  0
  -27.5593  -14.3415  146.0719 C   0  0  0  0  0  0  0  0  0  0  0  0
  -26.4685  -15.1798  146.2343 C   0  0  0  0  0  0  0  0  0  0  0  0
  -26.5944  -16.4482  146.8481 C   0  0  0  0  0  0  0  0  0  0  0  0
  -27.7684  -16.4981  147.8228 C   0  0  0  0  0  0  0  0  0  0  0  0
  -28.8712  -15.6654  147.5938 C   0  0  0  0  0  0  0  0  0  0  0  0
  1  2  1  0
  2  3  2  3
  3  4  1  0
  4  5  1  0
  4  6  1  0
  1  7  1  0
  7  8  1  0
  7  9  1  0
  7 10  1  0
  6 11  1  0
 11 12  1  0
 12 13  1  0
 13 14  1  0
 14 15  1  0
 11 16  1  0
 15 16  1  0
 16 17  1  0
 17 18  2  3
 18 19  1  0
 19 20  1  0
 20 21  2  0
M  END

$$$$
No_1228-/dssg/home/sw_qyf/PocketFlow/Model-Generation-Results/5HT2A_7WC7_rec_A_10.pdb/2024-01-01-03-54-21/
     RDKit          3D

 13 12  0  0  0  0  0  0  0  0999 V2000
  -24.1553  -17.8465  145.7021 C   0  0  0  0  0  0  0  0  0  0  0  0
  -24.6364  -17.2931  146.7091 C   0  0  0  0  0  0  0  0  0  0  0  0
  -25.8608  -16.5592  146.5934 C   0  0  0  0  0  0  0  0  0  0  0  0
  -25.9533  -15.5604  145.6681 C   0  0  0  0  0  0  0  0  0  0  0  0
  -27.0678  -14.6961  145.5542 C   0  0  0  0  0  0  0  0  0  0  0  0
  -24.0556  -16.8606  144.5402 C   0  0  0  0  0  0  0  0  0  0  0  0
  -25.0331  -15.8644  144.5557 C   0  0  0  0  0  0  0  0  0  0  0  0
  -24.9776  -14.7489  143.5389 C   0  0  0  0  0  0  0  0  0  0  0  0
  -25.3256  -15.6499  143.5940 O   0  0  0  0  0  0  0  0  0  0  0  0
  -24.1942  -14.9744  145.1991 Cl  0  0  0  0  0  0  0  0  0  0  0  0
  -26.5188  -14.7165  146.3759 C   0  0  0  0  0  0  0  0  0  0  0  0
  -26.1623  -13.3361  146.6879 C   0  0  0  0  0  0  0  0  0  0  0  0
  -26.9321  -16.3528  144.9044 F   0  0  0  0  0  0  0  0  0  0  0  0
  1  2  1  0
  2  3  1  0
  3  4  2  3
  4  5  1  0
  1  6  1  0
  6  7  1  0
  7  8  1  0
  8  9  1  0
  7 10  1  0
  5 11  2  3
 11 12  1  0
  4 13  1  0
M  END

$$$$
No_1229-/dssg/home/sw_qyf/PocketFlow/Model-Generation-Results/5HT2A_7WC7_rec_A_10.pdb/2024-01-01-03-54-21/
     RDKit          3D

 26 27  0  0  0  0  0  0  0  0999 V2000
  -23.1746  -16.6014  144.8668 C   0  0  0  0  0  0  0  0  0  0  0  0
  -23.7011  -17.0158  145.9774 C   0  0  0  0  0  0  0  0  0  0  0  0
  -24.7096  -16.6222  146.3577 C   0  0  0  0  0  0  0  0  0  0  0  0
  -25.4819  -15.5594  145.8226 C   0  0  0  0  0  0  0  0  0  0  0  0
  -24.9841  -15.0030  144.6879 C   0  0  0  0  0  0  0  0  0  0  0  0
  -23.7823  -15.5257  144.1978 C   0  0  0  0  0  0  0  0  0  0  0  0
  -25.6365  -13.8825  143.9609 C   0  0  0  0  0  0  0  0  0  0  0  0
  -25.6178  -13.6262  142.4687 Cl  0  0  0  0  0  0  0  0  0  0  0  0
  -26.6672  -13.0595  144.7789 C   0  0  0  0  0  0  0  0  0  0  0  0
  -27.0329  -11.8407  144.2033 C   0  0  0  0  0  0  0  0  0  0  0  0
  -26.5467  -10.7737  144.8920 C   0  0  0  0  0  0  0  0  0  0  0  0
  -22.8227  -18.3959  146.7538 Cl  0  0  0  0  0  0  0  0  0  0  0  0
  -27.1125   -9.5190  144.5518 N   0  0  0  0  0  0  0  0  0  0  0  0
  -28.0699   -9.4763  143.5887 C   0  0  0  0  0  0  0  0  0  0  0  0
  -28.5765  -10.6288  143.0153 C   0  0  0  0  0  0  0  0  0  0  0  0
  -28.0945  -11.7836  143.3804 C   0  0  0  0  0  0  0  0  0  0  0  0
  -29.6882  -10.4095  142.0759 C   0  0  0  0  0  0  0  0  0  0  0  0
  -29.8678   -9.1124  141.5011 C   0  0  0  0  0  0  0  0  0  0  0  0
  -31.0487   -8.4202  141.7154 C   0  0  0  0  0  0  0  0  0  0  0  0
  -25.6168  -10.7875  145.7619 O   0  0  0  0  0  0  0  0  0  0  0  0
  -31.1237   -7.9191  143.2063 C   0  0  0  0  0  0  0  0  0  0  0  0
  -31.7005   -8.7141  144.0577 O   0  0  0  0  0  0  0  0  0  0  0  0
  -28.9253   -8.6510  140.5371 C   0  0  0  0  0  0  0  0  0  0  0  0
  -29.3263   -7.6292  139.6904 C   0  0  0  0  0  0  0  0  0  0  0  0
  -28.6117   -7.4637  138.4676 C   0  0  0  0  0  0  0  0  0  0  0  0
  -27.6590   -8.5504  138.1371 C   0  0  0  0  0  0  0  0  0  0  0  0
  5  7  1  0
  7  8  1  0
  7  9  1  0
  9 10  1  0
 10 11  1  0
  2 12  1  0
 11 13  1  0
 14 15  1  0
 10 16  1  0
 15 16  1  0
 15 17  1  0
 17 18  1  0
 18 19  1  0
 11 20  2  0
 19 21  1  0
 21 22  1  0
 18 23  1  0
 23 24  1  0
 24 25  2  3
 25 26  1  0
 14 13  1  0
  1  2  2  0
  2  3  1  0
  3  4  2  0
  4  5  1  0
  5  6  2  0
  6  1  1  0
M  END

$$$$
No_1230-/dssg/home/sw_qyf/PocketFlow/Model-Generation-Results/5HT2A_7WC7_rec_A_10.pdb/2024-01-01-03-54-21/
     RDKit          3D

 15 15  0  0  0  0  0  0  0  0999 V2000
  -23.1746  -16.6014  144.8668 C   0  0  0  0  0  0  0  0  0  0  0  0
  -24.0189  -16.0564  145.8445 C   0  0  0  0  0  0  0  0  0  0  0  0
  -24.4850  -14.7380  145.6359 C   0  0  0  0  0  0  0  0  0  0  0  0
  -25.2717  -14.0560  146.5949 C   0  0  0  0  0  0  0  0  0  0  0  0
  -25.5669  -12.6700  146.4456 C   0  0  0  0  0  0  0  0  0  0  0  0
  -25.1774  -11.9727  145.2644 C   0  0  0  0  0  0  0  0  0  0  0  0
  -24.2583  -12.6444  144.4323 C   0  0  0  0  0  0  0  0  0  0  0  0
  -23.9746  -14.0153  144.6649 C   0  0  0  0  0  0  0  0  0  0  0  0
  -24.4407  -16.8601  146.9515 C   0  0  0  0  0  0  0  0  0  0  0  0
  -25.1111  -16.6229  147.9710 C   0  0  0  0  0  0  0  0  0  0  0  0
  -24.9821  -17.2513  149.2422 C   0  0  0  0  0  0  0  0  0  0  0  0
  -25.7749  -17.0271  150.4135 C   0  0  0  0  0  0  0  0  0  0  0  0
  -23.8284  -18.2253  146.9779 C   0  0  0  0  0  0  0  0  0  0  0  0
  -22.9995  -18.5469  146.2205 O   0  0  0  0  0  0  0  0  0  0  0  0
  -22.9786  -15.7518  143.5516 Cl  0  0  0  0  0  0  0  0  0  0  0  0
  1  2  1  0
  2  3  1  0
  2  9  1  0
  9 10  1  0
 10 11  2  3
 11 12  1  0
  9 13  1  0
 13 14  1  0
  1 15  1  0
  3  4  2  0
  4  5  1  0
  5  6  2  0
  6  7  1  0
  7  8  2  0
  8  3  1  0
M  END

$$$$
No_1231-/dssg/home/sw_qyf/PocketFlow/Model-Generation-Results/5HT2A_7WC7_rec_A_10.pdb/2024-01-01-03-54-21/
     RDKit          3D

 35 37  0  0  0  0  0  0  0  0999 V2000
  -24.1553  -17.8465  145.7021 C   0  0  0  0  0  0  0  0  0  0  0  0
  -23.9795  -18.4462  146.7426 C   0  0  0  0  0  0  0  0  0  0  0  0
  -25.1593  -16.8262  145.6925 C   0  0  0  0  0  0  0  0  0  0  0  0
  -24.9465  -15.5961  144.9952 C   0  0  0  0  0  0  0  0  0  0  0  0
  -25.8339  -14.4742  145.0599 C   0  0  0  0  0  0  0  0  0  0  0  0
  -27.0182  -14.6297  145.8322 C   0  0  0  0  0  0  0  0  0  0  0  0
  -27.2859  -15.8685  146.4498 C   0  0  0  0  0  0  0  0  0  0  0  0
  -26.3483  -16.9196  146.4585 C   0  0  0  0  0  0  0  0  0  0  0  0
  -27.9961  -13.5424  145.8419 C   0  0  0  0  0  0  0  0  0  0  0  0
  -29.0217  -13.4392  146.8473 C   0  0  0  0  0  0  0  0  0  0  0  0
  -29.8025  -12.2563  146.9675 C   0  0  0  0  0  0  0  0  0  0  0  0
  -29.6570  -11.2685  146.2633 N   0  0  0  0  0  0  0  0  0  0  0  0
  -28.6183  -11.2301  145.3015 C   0  0  0  0  0  0  0  0  0  0  0  0
  -28.4254  -10.0703  144.4779 C   0  0  0  0  0  0  0  0  0  0  0  0
  -27.7529  -12.3187  145.1506 C   0  0  0  0  0  0  0  0  0  0  0  0
  -27.4051   -9.8763  143.7228 C   0  0  0  0  0  0  0  0  0  0  0  0
  -30.8795  -12.1543  147.9018 N   0  0  0  0  0  0  0  0  0  0  0  0
  -22.7430  -19.1660  146.8228 C   0  0  0  0  0  0  0  0  0  0  0  0
  -23.7040  -15.3855  144.2334 C   0  0  0  0  0  0  0  0  0  0  0  0
  -22.8968  -16.3136  143.9988 O   0  0  0  0  0  0  0  0  0  0  0  0
  -23.2206  -14.1470  144.2052 O   0  0  0  0  0  0  0  0  0  0  0  0
  -29.6343   -9.2990  144.1226 C   0  0  0  0  0  0  0  0  0  0  0  0
  -29.6742   -8.2965  143.2140 C   0  0  0  0  0  0  0  0  0  0  0  0
  -30.3365   -8.4258  142.1111 C   0  0  0  0  0  0  0  0  0  0  0  0
  -29.8611   -7.7778  140.8813 C   0  0  0  0  0  0  0  0  0  0  0  0
  -29.3804   -6.4220  141.0359 C   0  0  0  0  0  0  0  0  0  0  0  0
  -28.9990   -6.0403  142.4418 C   0  0  0  0  0  0  0  0  0  0  0  0
  -29.1427   -7.0098  143.4809 C   0  0  0  0  0  0  0  0  0  0  0  0
  -31.3991   -9.2356  141.9146 O   0  0  0  0  0  0  0  0  0  0  0  0
  -24.7579  -18.4453  147.7835 O   0  0  0  0  0  0  0  0  0  0  0  0
  -22.2534  -13.7271  143.3795 C   0  0  0  0  0  0  0  0  0  0  0  0
  -31.2222  -13.1063  148.8622 C   0  0  0  0  0  0  0  0  0  0  0  0
  -32.2216  -12.8140  149.8037 C   0  0  0  0  0  0  0  0  0  0  0  0
  -33.0557  -11.7682  149.6311 C   0  0  0  0  0  0  0  0  0  0  0  0
  -32.9311  -10.8719  148.6370 C   0  0  0  0  0  0  0  0  0  0  0  0
  1  2  1  0
  1  3  1  0
  6  9  1  0
 13 14  1  0
 14 16  2  0
 11 17  1  0
  2 18  1  0
  4 19  1  0
 19 20  2  0
 19 21  1  0
 14 22  1  0
 22 23  1  0
 24 29  1  0
  2 30  2  0
 21 31  1  0
 17 32  1  0
 32 33  1  0
 33 34  2  3
 34 35  1  0
 23 24  2  0
 24 25  1  0
 25 26  2  0
 26 27  1  0
 27 28  2  0
 28 23  1  0
  3  4  2  0
  4  5  1  0
  5  6  2  0
  6  7  1  0
  7  8  2  0
  8  3  1  0
  9 10  2  0
 10 11  1  0
 11 12  2  0
 12 13  1  0
 13 15  2  0
 15  9  1  0
M  END

$$$$
No_1232-/dssg/home/sw_qyf/PocketFlow/Model-Generation-Results/5HT2A_7WC7_rec_A_10.pdb/2024-01-01-03-54-21/
     RDKit          3D

 13 14  0  0  0  0  0  0  0  0999 V2000
  -24.1553  -17.8465  145.7021 C   0  0  0  0  0  0  0  0  0  0  0  0
  -23.9795  -18.4462  146.7426 C   0  0  0  0  0  0  0  0  0  0  0  0
  -25.1196  -16.8106  145.6409 C   0  0  0  0  0  0  0  0  0  0  0  0
  -25.2440  -15.8776  144.5240 C   0  0  0  0  0  0  0  0  0  0  0  0
  -26.0733  -14.7284  144.7061 C   0  0  0  0  0  0  0  0  0  0  0  0
  -27.0964  -14.7050  145.6625 C   0  0  0  0  0  0  0  0  0  0  0  0
  -27.1695  -15.7244  146.6274 C   0  0  0  0  0  0  0  0  0  0  0  0
  -26.1636  -16.7589  146.5816 C   0  0  0  0  0  0  0  0  0  0  0  0
  -26.0012  -13.6973  143.6468 C   0  0  0  0  0  0  0  0  0  0  0  0
  -25.1650  -13.1437  143.4049 O   0  0  0  0  0  0  0  0  0  0  0  0
  -24.8415  -18.2979  147.8904 C   0  0  0  0  0  0  0  0  0  0  0  0
  -25.9595  -17.4425  147.8285 C   0  0  0  0  0  0  0  0  0  0  0  0
  -27.1435  -13.8027  142.7744 O   0  0  0  0  0  0  0  0  0  0  0  0
  3  4  1  0
  4  5  1  0
  5  6  1  0
  6  7  1  0
  7  8  1  0
  5  9  1  0
  9 10  2  0
  9 13  1  0
  1  2  2  0
  2 11  1  0
 11 12  2  0
 12  8  1  0
  8  3  2  0
  3  1  1  0
M  END

$$$$
No_1233-/dssg/home/sw_qyf/PocketFlow/Model-Generation-Results/5HT2A_7WC7_rec_A_10.pdb/2024-01-01-03-54-21/
     RDKit          3D

 12 13  0  0  0  0  0  0  0  0999 V2000
  -23.1746  -16.6014  144.8668 C   0  0  0  0  0  0  0  0  0  0  0  0
  -23.7011  -17.0158  145.9774 C   0  0  0  0  0  0  0  0  0  0  0  0
  -24.2134  -16.0722  146.8877 C   0  0  0  0  0  0  0  0  0  0  0  0
  -23.3742  -15.2706  144.3922 C   0  0  0  0  0  0  0  0  0  0  0  0
  -24.0638  -14.3065  145.2723 C   0  0  0  0  0  0  0  0  0  0  0  0
  -24.2650  -12.9175  144.8725 C   0  0  0  0  0  0  0  0  0  0  0  0
  -24.4346  -14.7166  146.5554 C   0  0  0  0  0  0  0  0  0  0  0  0
  -24.3633  -12.0194  146.0302 C   0  0  0  0  0  0  0  0  0  0  0  0
  -23.4777  -18.3883  146.2129 N   0  0  0  0  0  0  0  0  0  0  0  0
  -25.1855  -12.4686  147.1383 C   0  0  0  0  0  0  0  0  0  0  0  0
  -24.8650  -13.8512  147.5104 C   0  0  0  0  0  0  0  0  0  0  0  0
  -23.1258  -18.7820  147.3609 O   0  0  0  0  0  0  0  0  0  0  0  0
  2  9  1  0
  9 12  2  0
  5  6  1  0
  6  8  2  0
  8 10  1  0
 10 11  2  0
 11  7  1  0
  1  2  2  0
  2  3  1  0
  3  7  2  0
  7  5  1  0
  5  4  2  0
  4  1  1  0
M  END

$$$$
No_1234-/dssg/home/sw_qyf/PocketFlow/Model-Generation-Results/5HT2A_7WC7_rec_A_10.pdb/2024-01-01-03-54-21/
     RDKit          3D

 13 13  0  0  0  0  0  0  0  0999 V2000
  -23.1746  -16.6014  144.8668 C   0  0  0  0  0  0  0  0  0  0  0  0
  -23.7011  -17.0158  145.9774 C   0  0  0  0  0  0  0  0  0  0  0  0
  -24.2593  -16.1244  146.9100 C   0  0  0  0  0  0  0  0  0  0  0  0
  -24.5135  -14.7390  146.5020 C   0  0  0  0  0  0  0  0  0  0  0  0
  -24.1060  -14.3555  145.2328 C   0  0  0  0  0  0  0  0  0  0  0  0
  -23.4049  -15.2534  144.4663 C   0  0  0  0  0  0  0  0  0  0  0  0
  -24.2577  -12.9097  144.8981 C   0  0  0  0  0  0  0  0  0  0  0  0
  -22.8077  -12.1573  144.7635 Cl  0  0  0  0  0  0  0  0  0  0  0  0
  -23.5433  -18.4536  146.4326 C   0  0  0  0  0  0  0  0  0  0  0  0
  -24.3066  -18.9156  147.3124 O   0  0  0  0  0  0  0  0  0  0  0  0
  -22.6269  -19.1412  146.0409 O   0  0  0  0  0  0  0  0  0  0  0  0
  -24.8874  -12.6964  143.7086 F   0  0  0  0  0  0  0  0  0  0  0  0
  -25.1186  -12.2372  145.7582 F   0  0  0  0  0  0  0  0  0  0  0  0
  5  7  1  0
  7  8  1  0
  2  9  1  0
  9 10  1  0
  9 11  2  0
  7 12  1  0
  7 13  1  0
  1  2  2  0
  2  3  1  0
  3  4  2  0
  4  5  1  0
  5  6  2  0
  6  1  1  0
M  END

$$$$
No_1235-/dssg/home/sw_qyf/PocketFlow/Model-Generation-Results/5HT2A_7WC7_rec_A_10.pdb/2024-01-01-03-54-21/
     RDKit          3D

 27 29  0  0  0  0  0  0  0  0999 V2000
  -24.1553  -17.8465  145.7021 C   0  0  0  0  0  0  0  0  0  0  0  0
  -23.9795  -18.4462  146.7426 C   0  0  0  0  0  0  0  0  0  0  0  0
  -25.1593  -16.8262  145.6925 C   0  0  0  0  0  0  0  0  0  0  0  0
  -26.3426  -16.9003  146.3448 C   0  0  0  0  0  0  0  0  0  0  0  0
  -24.9078  -18.3640  147.8289 C   0  0  0  0  0  0  0  0  0  0  0  0
  -26.0312  -17.5122  147.7122 C   0  0  0  0  0  0  0  0  0  0  0  0
  -27.4996  -16.1150  146.1993 C   0  0  0  0  0  0  0  0  0  0  0  0
  -27.8219  -14.9876  146.4483 C   0  0  0  0  0  0  0  0  0  0  0  0
  -26.9412  -13.8450  146.3208 C   0  0  0  0  0  0  0  0  0  0  0  0
  -25.5354  -13.8422  146.1297 C   0  0  0  0  0  0  0  0  0  0  0  0
  -24.7604  -12.6806  146.2400 C   0  0  0  0  0  0  0  0  0  0  0  0
  -23.3731  -12.7006  145.9807 C   0  0  0  0  0  0  0  0  0  0  0  0
  -23.1182  -12.3325  144.6535 C   0  0  0  0  0  0  0  0  0  0  0  0
  -27.4662  -12.4256  146.4480 C   0  0  0  0  0  0  0  0  0  0  0  0
  -28.8881  -12.2784  146.2437 C   0  0  0  0  0  0  0  0  0  0  0  0
  -29.7813  -13.2361  146.8535 C   0  0  0  0  0  0  0  0  0  0  0  0
  -29.3042  -14.6247  146.6326 C   0  0  0  0  0  0  0  0  0  0  0  0
  -29.3340  -11.7249  144.9567 C   0  0  0  0  0  0  0  0  0  0  0  0
  -29.5176  -10.2302  145.1408 C   0  0  0  0  0  0  0  0  0  0  0  0
  -29.9653   -9.5679  143.9455 C   0  0  0  0  0  0  0  0  0  0  0  0
  -31.1802   -8.9844  143.8514 C   0  0  0  0  0  0  0  0  0  0  0  0
  -31.5345   -8.2490  142.6432 C   0  0  0  0  0  0  0  0  0  0  0  0
  -30.2295   -7.8225  141.9254 C   0  0  0  0  0  0  0  0  0  0  0  0
  -29.2177   -8.7705  141.8183 C   0  0  0  0  0  0  0  0  0  0  0  0
  -28.8403   -9.3525  143.1011 C   0  0  0  0  0  0  0  0  0  0  0  0
  -28.7152   -9.1373  140.6133 C   0  0  0  0  0  0  0  0  0  0  0  0
  -28.6727   -8.5043  139.4415 C   0  0  0  0  0  0  0  0  0  0  0  0
  4  7  1  0
 10 11  1  0
 11 12  1  0
 12 13  1  0
 15 18  1  0
 18 19  1  0
 19 20  1  0
 20 21  1  0
 21 22  1  0
 22 23  1  0
 23 24  1  0
 20 25  1  0
 24 25  1  0
 24 26  1  0
 26 27  2  0
 10  9  1  0
  7  8  1  0
  8  9  2  0
  9 14  1  0
 14 15  2  0
 15 16  1  0
 16 17  2  0
 17  8  1  0
  1  2  2  0
  2  5  1  0
  5  6  2  0
  6  4  1  0
  4  3  2  0
  3  1  1  0
M  END

$$$$
No_1236-/dssg/home/sw_qyf/PocketFlow/Model-Generation-Results/5HT2A_7WC7_rec_A_10.pdb/2024-01-01-03-54-21/
     RDKit          3D

 35 38  0  0  0  0  0  0  0  0999 V2000
  -24.1553  -17.8465  145.7021 C   0  0  0  0  0  0  0  0  0  0  0  0
  -24.2856  -16.6364  145.3494 C   0  0  0  0  0  0  0  0  0  0  0  0
  -25.0033  -15.6772  146.0737 C   0  0  0  0  0  0  0  0  0  0  0  0
  -25.6964  -16.1810  147.2049 C   0  0  0  0  0  0  0  0  0  0  0  0
  -24.8143  -18.3454  146.8324 C   0  0  0  0  0  0  0  0  0  0  0  0
  -25.5292  -17.4614  147.6373 C   0  0  0  0  0  0  0  0  0  0  0  0
  -23.6646  -16.1054  144.2503 F   0  0  0  0  0  0  0  0  0  0  0  0
  -25.1731  -14.2504  145.6720 C   0  0  0  0  0  0  0  0  0  0  0  0
  -24.1495  -13.4852  146.0979 C   0  0  0  0  0  0  0  0  0  0  0  0
  -24.1806  -12.0228  145.7736 C   0  0  0  0  0  0  0  0  0  0  0  0
  -25.4329  -11.4901  145.3299 C   0  0  0  0  0  0  0  0  0  0  0  0
  -26.4732  -12.3767  145.0611 C   0  0  0  0  0  0  0  0  0  0  0  0
  -26.3797  -13.7821  145.2250 C   0  0  0  0  0  0  0  0  0  0  0  0
  -27.7509  -11.7199  144.6048 C   0  0  0  0  0  0  0  0  0  0  0  0
  -27.7819  -10.6960  143.8105 C   0  0  0  0  0  0  0  0  0  0  0  0
  -29.0198  -10.0912  143.3925 C   0  0  0  0  0  0  0  0  0  0  0  0
  -29.3477   -9.8032  142.1146 C   0  0  0  0  0  0  0  0  0  0  0  0
  -28.8578   -9.0124  141.2657 C   0  0  0  0  0  0  0  0  0  0  0  0
  -28.3714   -9.2001  139.9450 C   0  0  0  0  0  0  0  0  0  0  0  0
  -28.3183   -8.1837  138.9299 C   0  0  0  0  0  0  0  0  0  0  0  0
  -27.9561   -8.5524  137.6384 C   0  0  0  0  0  0  0  0  0  0  0  0
  -27.7085  -10.4466  139.6464 C   0  0  0  0  0  0  0  0  0  0  0  0
  -26.5954  -10.8589  140.3134 C   0  0  0  0  0  0  0  0  0  0  0  0
  -26.1845  -12.1163  139.8653 N   0  0  0  0  0  0  0  0  0  0  0  0
  -29.9378   -9.7216  144.5085 C   0  0  0  0  0  0  0  0  0  0  0  0
  -26.6281  -12.4244  138.5715 C   0  0  0  0  0  0  0  0  0  0  0  0
  -27.6734  -11.4128  138.4643 C   0  0  0  0  0  0  0  0  0  0  0  0
  -30.9836   -9.0991  144.2051 O   0  0  0  0  0  0  0  0  0  0  0  0
  -29.8550  -10.3752  145.6660 O   0  0  0  0  0  0  0  0  0  0  0  0
  -27.3098  -14.5877  144.9476 O   0  0  0  0  0  0  0  0  0  0  0  0
  -28.9652   -7.5553  141.6426 C   0  0  0  0  0  0  0  0  0  0  0  0
  -29.9345   -6.7191  140.8957 C   0  0  0  0  0  0  0  0  0  0  0  0
  -29.3171   -6.2894  139.6347 C   0  0  0  0  0  0  0  0  0  0  0  0
  -28.9014   -6.9215  138.9920 C   0  0  0  0  0  0  0  0  0  0  0  0
  -30.4644  -10.4846  141.7095 O   0  0  0  0  0  0  0  0  0  0  0  0
  2  7  1  0
  3  8  1  0
 12 14  1  0
 14 15  2  3
 15 16  1  0
 16 17  1  0
 17 18  2  3
 18 19  1  0
 19 20  2  0
 20 21  1  0
 19 22  1  0
 22 23  2  0
 23 24  1  0
 16 25  1  0
 24 26  2  0
 22 27  1  0
 26 27  1  0
 25 28  2  0
 25 29  1  0
 13 30  1  0
 18 31  1  0
 31 32  1  0
 32 33  1  0
 20 34  1  0
 33 34  2  0
 17 35  1  0
  1  2  2  0
  2  3  1  0
  3  4  2  0
  4  6  1  0
  6  5  2  0
  5  1  1  0
  8  9  2  0
  9 10  1  0
 10 11  2  0
 11 12  1  0
 12 13  2  0
 13  8  1  0
M  END

$$$$
No_1237-/dssg/home/sw_qyf/PocketFlow/Model-Generation-Results/5HT2A_7WC7_rec_A_10.pdb/2024-01-01-03-54-21/
     RDKit          3D

 35 39  0  0  0  0  0  0  0  0999 V2000
  -23.1746  -16.6014  144.8668 C   0  0  0  0  0  0  0  0  0  0  0  0
  -23.8963  -15.5346  144.7885 C   0  0  0  0  0  0  0  0  0  0  0  0
  -24.5755  -15.0383  145.9043 C   0  0  0  0  0  0  0  0  0  0  0  0
  -25.0618  -13.6819  146.0347 C   0  0  0  0  0  0  0  0  0  0  0  0
  -24.0242  -12.8249  145.9593 C   0  0  0  0  0  0  0  0  0  0  0  0
  -23.5540  -17.4786  146.0177 C   0  0  0  0  0  0  0  0  0  0  0  0
  -24.6396  -17.5267  146.5047 C   0  0  0  0  0  0  0  0  0  0  0  0
  -25.1632  -16.0694  146.8314 C   0  0  0  0  0  0  0  0  0  0  0  0
  -26.2196  -13.2712  145.2147 C   0  0  0  0  0  0  0  0  0  0  0  0
  -26.6931  -11.9850  145.4689 C   0  0  0  0  0  0  0  0  0  0  0  0
  -28.0042  -11.5713  145.2915 C   0  0  0  0  0  0  0  0  0  0  0  0
  -28.3566  -10.4881  144.4440 C   0  0  0  0  0  0  0  0  0  0  0  0
  -29.6288  -10.0010  144.1576 C   0  0  0  0  0  0  0  0  0  0  0  0
  -29.8756   -9.0678  143.2364 C   0  0  0  0  0  0  0  0  0  0  0  0
  -30.9416   -8.1945  143.3614 C   0  0  0  0  0  0  0  0  0  0  0  0
  -31.1757   -7.2611  142.3477 C   0  0  0  0  0  0  0  0  0  0  0  0
  -30.2881   -7.2972  141.1899 C   0  0  0  0  0  0  0  0  0  0  0  0
  -29.2845   -8.2839  141.0911 C   0  0  0  0  0  0  0  0  0  0  0  0
  -28.4564   -8.2890  139.9642 C   0  0  0  0  0  0  0  0  0  0  0  0
  -29.0695   -9.1289  142.1375 C   0  0  0  0  0  0  0  0  0  0  0  0
  -27.7700   -9.4700  139.5532 C   0  0  0  0  0  0  0  0  0  0  0  0
  -27.7072  -10.5919  140.4069 C   0  0  0  0  0  0  0  0  0  0  0  0
  -28.4099  -10.4094  141.7483 C   0  0  0  0  0  0  0  0  0  0  0  0
  -27.6450  -11.8426  139.8268 C   0  0  0  0  0  0  0  0  0  0  0  0
  -27.5116  -12.9103  140.5452 O   0  0  0  0  0  0  0  0  0  0  0  0
  -27.0661  -11.9929  138.6503 O   0  0  0  0  0  0  0  0  0  0  0  0
  -25.6244  -11.0114  145.1713 C   0  0  0  0  0  0  0  0  0  0  0  0
  -24.4005  -11.2934  145.9010 C   0  0  0  0  0  0  0  0  0  0  0  0
  -26.1384  -15.7944  147.8299 C   0  0  0  0  0  0  0  0  0  0  0  0
  -28.9603  -12.1368  146.2218 C   0  0  0  0  0  0  0  0  0  0  0  0
  -28.7897  -12.2164  147.6403 C   0  0  0  0  0  0  0  0  0  0  0  0
  -29.8598  -12.8053  148.4545 C   0  0  0  0  0  0  0  0  0  0  0  0
  -30.6000  -13.9640  148.1150 C   0  0  0  0  0  0  0  0  0  0  0  0
  -29.9038  -14.6086  147.0536 C   0  0  0  0  0  0  0  0  0  0  0  0
  -29.3476  -13.6986  146.0217 C   0  0  0  0  0  0  0  0  0  0  0  0
  3  4  1  0
  4  5  1  0
  4  9  1  0
  9 10  1  0
 10 11  1  0
 11 12  1  0
 12 13  2  3
 13 14  1  0
 22 24  1  0
 24 25  1  0
 24 26  2  0
 10 27  1  0
  5 28  1  0
 27 28  1  0
  8 29  1  0
 11 30  1  0
 14 15  2  0
 15 16  1  0
 16 17  2  0
 17 18  1  0
 20 14  1  0
 18 19  2  0
 19 21  1  0
 21 22  2  0
 22 23  1  0
 23 20  2  0
 20 18  1  0
  1  2  2  0
  2  3  1  0
  3  8  2  0
  8  7  1  0
  7  6  2  0
  6  1  1  0
 30 31  2  0
 31 32  1  0
 32 33  2  0
 33 34  1  0
 34 35  2  0
 35 30  1  0
M  END

$$$$
No_1238-/dssg/home/sw_qyf/PocketFlow/Model-Generation-Results/5HT2A_7WC7_rec_A_10.pdb/2024-01-01-03-54-21/
     RDKit          3D

 20 22  0  0  0  0  0  0  0  0999 V2000
  -24.1553  -17.8465  145.7021 C   0  0  0  0  0  0  0  0  0  0  0  0
  -23.9795  -18.4462  146.7426 C   0  0  0  0  0  0  0  0  0  0  0  0
  -25.1196  -16.8106  145.6409 C   0  0  0  0  0  0  0  0  0  0  0  0
  -25.9236  -16.5070  146.7422 C   0  0  0  0  0  0  0  0  0  0  0  0
  -26.9537  -15.5312  146.7010 C   0  0  0  0  0  0  0  0  0  0  0  0
  -27.8401  -15.4424  147.7620 C   0  0  0  0  0  0  0  0  0  0  0  0
  -24.6529  -18.1918  147.9641 C   0  0  0  0  0  0  0  0  0  0  0  0
  -25.6485  -17.1582  147.9551 C   0  0  0  0  0  0  0  0  0  0  0  0
  -27.0862  -14.6526  145.6310 C   0  0  0  0  0  0  0  0  0  0  0  0
  -28.9793  -14.5536  147.6816 C   0  0  0  0  0  0  0  0  0  0  0  0
  -28.0710  -13.5453  145.6772 C   0  0  0  0  0  0  0  0  0  0  0  0
  -29.0085  -13.5177  146.7916 C   0  0  0  0  0  0  0  0  0  0  0  0
  -30.0213  -12.4541  146.7773 C   0  0  0  0  0  0  0  0  0  0  0  0
  -30.3046  -11.9822  148.1155 C   0  0  0  0  0  0  0  0  0  0  0  0
  -31.3382  -12.8409  148.7843 C   0  0  0  0  0  0  0  0  0  0  0  0
  -32.2528  -12.1412  149.6469 C   0  0  0  0  0  0  0  0  0  0  0  0
  -32.7564  -12.7146  150.7340 C   0  0  0  0  0  0  0  0  0  0  0  0
  -32.1184  -13.8357  151.2011 C   0  0  0  0  0  0  0  0  0  0  0  0
  -31.2125  -14.5677  150.3984 C   0  0  0  0  0  0  0  0  0  0  0  0
  -30.6714  -13.9431  149.2972 C   0  0  0  0  0  0  0  0  0  0  0  0
  4  5  1  0
 12 13  1  0
 13 14  1  0
 14 15  1  0
 15 16  2  0
 16 17  1  0
 17 18  2  0
 18 19  1  0
 19 20  2  0
 20 15  1  0
  5  6  2  0
  6 10  1  0
 10 12  2  0
 12 11  1  0
 11  9  2  0
  9  5  1  0
  1  2  2  0
  2  7  1  0
  7  8  2  0
  8  4  1  0
  4  3  2  0
  3  1  1  0
M  END

$$$$
No_1239-/dssg/home/sw_qyf/PocketFlow/Model-Generation-Results/5HT2A_7WC7_rec_A_10.pdb/2024-01-01-03-54-21/
     RDKit          3D

 18 18  0  0  0  0  0  0  0  0999 V2000
  -23.1746  -16.6014  144.8668 C   0  0  0  0  0  0  0  0  0  0  0  0
  -23.8963  -15.5346  144.7885 C   0  0  0  0  0  0  0  0  0  0  0  0
  -23.4976  -14.2961  145.1226 C   0  0  0  0  0  0  0  0  0  0  0  0
  -23.9189  -13.0599  144.7480 C   0  0  0  0  0  0  0  0  0  0  0  0
  -24.2390  -12.1464  145.9050 C   0  0  0  0  0  0  0  0  0  0  0  0
  -25.3080  -11.1943  145.5538 C   0  0  0  0  0  0  0  0  0  0  0  0
  -26.5791  -11.7885  145.0616 C   0  0  0  0  0  0  0  0  0  0  0  0
  -27.2898  -12.5693  145.9272 C   0  0  0  0  0  0  0  0  0  0  0  0
  -27.0453  -13.9374  146.0742 C   0  0  0  0  0  0  0  0  0  0  0  0
  -27.8701  -14.7714  146.8555 C   0  0  0  0  0  0  0  0  0  0  0  0
  -27.6028  -16.1542  147.0417 C   0  0  0  0  0  0  0  0  0  0  0  0
  -26.6939  -16.7446  146.1709 C   0  0  0  0  0  0  0  0  0  0  0  0
  -26.2297  -18.0113  146.5854 C   0  0  0  0  0  0  0  0  0  0  0  0
  -28.4148  -11.9603  146.6294 C   0  0  0  0  0  0  0  0  0  0  0  0
  -29.2525  -12.8062  147.4846 C   0  0  0  0  0  0  0  0  0  0  0  0
  -28.9563  -14.1654  147.6129 C   0  0  0  0  0  0  0  0  0  0  0  0
  -29.5711  -15.1403  148.4552 C   0  0  0  0  0  0  0  0  0  0  0  0
  -28.5986  -16.7628  147.8715 C   0  0  0  0  0  0  0  0  0  0  0  0
  1  2  2  0
  2  3  1  0
  3  4  1  0
  4  5  1  0
  5  6  1  0
  6  7  1  0
  7  8  1  0
 10 11  1  0
 11 12  1  0
 12 13  1  0
 16 17  1  0
 11 18  1  0
  8  9  2  0
  9 10  1  0
 10 16  2  0
 16 15  1  0
 15 14  2  0
 14  8  1  0
M  END

$$$$
No_1240-/dssg/home/sw_qyf/PocketFlow/Model-Generation-Results/5HT2A_7WC7_rec_A_10.pdb/2024-01-01-03-54-21/
     RDKit          3D

 18 19  0  0  0  0  0  0  0  0999 V2000
  -24.1553  -17.8465  145.7021 C   0  0  0  0  0  0  0  0  0  0  0  0
  -23.9795  -18.4462  146.7426 C   0  0  0  0  0  0  0  0  0  0  0  0
  -25.1593  -16.8262  145.6925 C   0  0  0  0  0  0  0  0  0  0  0  0
  -24.9465  -15.5961  144.9952 C   0  0  0  0  0  0  0  0  0  0  0  0
  -25.8224  -14.4752  145.0170 C   0  0  0  0  0  0  0  0  0  0  0  0
  -26.5395  -14.2060  146.1042 C   0  0  0  0  0  0  0  0  0  0  0  0
  -27.2470  -15.4172  146.6383 C   0  0  0  0  0  0  0  0  0  0  0  0
  -26.2513  -16.6030  146.7944 C   0  0  0  0  0  0  0  0  0  0  0  0
  -23.6947  -15.5210  144.2194 C   0  0  0  0  0  0  0  0  0  0  0  0
  -24.3768  -17.9927  147.8522 O   0  0  0  0  0  0  0  0  0  0  0  0
  -22.9415  -16.5094  144.0444 O   0  0  0  0  0  0  0  0  0  0  0  0
  -28.5259  -15.5297  147.0700 C   0  0  0  0  0  0  0  0  0  0  0  0
  -29.4364  -14.4672  147.0109 C   0  0  0  0  0  0  0  0  0  0  0  0
  -29.0039  -13.1540  146.8210 C   0  0  0  0  0  0  0  0  0  0  0  0
  -27.9334  -12.5866  146.1097 C   0  0  0  0  0  0  0  0  0  0  0  0
  -26.7976  -13.1409  145.9669 C   0  0  0  0  0  0  0  0  0  0  0  0
  -23.3311  -17.7007  148.8164 C   0  0  0  0  0  0  0  0  0  0  0  0
  -23.0101  -16.3315  149.1257 C   0  0  0  0  0  0  0  0  0  0  0  0
  1  2  1  0
  1  3  1  0
  3  4  1  0
  4  5  1  0
  5  6  1  0
  6  7  1  0
  3  8  1  0
  7  8  1  0
  4  9  1  0
  2 10  1  0
  9 11  1  0
  7 12  1  0
 12 13  2  0
 13 14  1  0
 14 15  2  0
  6 16  1  0
 15 16  1  0
 10 17  1  0
 17 18  1  0
M  END

$$$$
No_1241-/dssg/home/sw_qyf/PocketFlow/Model-Generation-Results/5HT2A_7WC7_rec_A_10.pdb/2024-01-01-03-54-21/
     RDKit          3D

 35 36  0  0  0  0  0  0  0  0999 V2000
  -23.1746  -16.6014  144.8668 C   0  0  0  0  0  0  0  0  0  0  0  0
  -23.8963  -15.5346  144.7885 C   0  0  0  0  0  0  0  0  0  0  0  0
  -24.5755  -15.0383  145.9043 C   0  0  0  0  0  0  0  0  0  0  0  0
  -25.0618  -13.6819  146.0347 C   0  0  0  0  0  0  0  0  0  0  0  0
  -26.1212  -13.2239  146.2655 C   0  0  0  0  0  0  0  0  0  0  0  0
  -23.3988  -17.5289  145.9572 C   0  0  0  0  0  0  0  0  0  0  0  0
  -24.0509  -17.0603  147.1196 C   0  0  0  0  0  0  0  0  0  0  0  0
  -24.6392  -15.7936  147.1455 C   0  0  0  0  0  0  0  0  0  0  0  0
  -26.5137  -11.7978  146.2518 C   0  0  0  0  0  0  0  0  0  0  0  0
  -23.9707  -12.6258  145.7083 C   0  0  0  0  0  0  0  0  0  0  0  0
  -24.3153  -11.2783  145.4617 C   0  0  0  0  0  0  0  0  0  0  0  0
  -25.5693  -10.9076  145.7757 C   0  0  0  0  0  0  0  0  0  0  0  0
  -23.8240  -14.7051  143.7924 O   0  0  0  0  0  0  0  0  0  0  0  0
  -24.1006  -17.9245  148.3681 C   0  0  0  0  0  0  0  0  0  0  0  0
  -25.0369  -18.6972  148.2763 F   0  0  0  0  0  0  0  0  0  0  0  0
  -24.3631  -17.1198  149.5172 F   0  0  0  0  0  0  0  0  0  0  0  0
  -22.9353  -18.4355  148.5860 F   0  0  0  0  0  0  0  0  0  0  0  0
  -27.7974  -11.4343  146.5511 O   0  0  0  0  0  0  0  0  0  0  0  0
  -28.7436  -11.3975  145.6025 C   0  0  0  0  0  0  0  0  0  0  0  0
  -30.1320  -10.9731  146.1254 C   0  0  0  0  0  0  0  0  0  0  0  0
  -28.5960  -11.4113  144.2653 C   0  0  0  0  0  0  0  0  0  0  0  0
  -29.1751  -10.5152  143.3703 C   0  0  0  0  0  0  0  0  0  0  0  0
  -28.6988   -9.4001  143.2183 C   0  0  0  0  0  0  0  0  0  0  0  0
  -29.3614   -8.3818  142.3763 C   0  0  0  0  0  0  0  0  0  0  0  0
  -28.9678   -8.0138  141.0415 C   0  0  0  0  0  0  0  0  0  0  0  0
  -29.1031   -8.9904  140.0784 C   0  0  0  0  0  0  0  0  0  0  0  0
  -28.6279   -8.4757  138.7800 C   0  0  0  0  0  0  0  0  0  0  0  0
  -28.8799   -7.3665  138.6325 F   0  0  0  0  0  0  0  0  0  0  0  0
  -27.1909   -8.6523  138.7429 F   0  0  0  0  0  0  0  0  0  0  0  0
  -29.0417   -9.2227  137.7498 F   0  0  0  0  0  0  0  0  0  0  0  0
  -30.4064  -11.5167  147.3184 O   0  0  0  0  0  0  0  0  0  0  0  0
  -30.5170   -7.6773  142.9368 C   0  0  0  0  0  0  0  0  0  0  0  0
  -31.9130   -8.2468  142.7875 C   0  0  0  0  0  0  0  0  0  0  0  0
  -32.0437   -9.0026  141.8656 O   0  0  0  0  0  0  0  0  0  0  0  0
  -29.8286  -12.7178  147.6321 C   0  0  0  0  0  0  0  0  0  0  0  0
  3  4  1  0
  2 13  1  0
  7 14  1  0
 14 15  1  0
 14 16  1  0
 14 17  1  0
  9 18  1  0
 18 19  1  0
 19 20  1  0
 19 21  1  0
 21 22  1  0
 22 23  2  3
 23 24  1  0
 24 25  1  0
 25 26  1  0
 26 27  1  0
 27 28  1  0
 27 29  1  0
 27 30  1  0
 20 31  1  0
 24 32  1  0
 32 33  1  0
 33 34  1  0
 31 35  1  0
  4  5  2  0
  5  9  1  0
  9 12  2  0
 12 11  1  0
 11 10  2  0
 10  4  1  0
  1  2  2  0
  2  3  1  0
  3  8  2  0
  8  7  1  0
  7  6  2  0
  6  1  1  0
M  END

$$$$
No_1242-/dssg/home/sw_qyf/PocketFlow/Model-Generation-Results/5HT2A_7WC7_rec_A_10.pdb/2024-01-01-03-54-21/
     RDKit          3D

 27 28  0  0  0  0  0  0  0  0999 V2000
  -24.1553  -17.8465  145.7021 C   0  0  0  0  0  0  0  0  0  0  0  0
  -24.2855  -16.6364  145.3494 C   0  0  0  0  0  0  0  0  0  0  0  0
  -25.0033  -15.6772  146.0737 C   0  0  0  0  0  0  0  0  0  0  0  0
  -26.0408  -15.2581  145.8303 C   0  0  0  0  0  0  0  0  0  0  0  0
  -26.7117  -14.1359  146.4654 C   0  0  0  0  0  0  0  0  0  0  0  0
  -28.0372  -13.7457  146.3098 C   0  0  0  0  0  0  0  0  0  0  0  0
  -28.2708  -12.4404  145.7675 C   0  0  0  0  0  0  0  0  0  0  0  0
  -29.5667  -11.8255  145.8630 C   0  0  0  0  0  0  0  0  0  0  0  0
  -30.3691  -12.2798  146.7983 O   0  0  0  0  0  0  0  0  0  0  0  0
  -29.7114  -10.5975  145.4188 O   0  0  0  0  0  0  0  0  0  0  0  0
  -23.7576  -18.1052  147.0286 C   0  0  0  0  0  0  0  0  0  0  0  0
  -23.9952  -17.0451  147.9689 C   0  0  0  0  0  0  0  0  0  0  0  0
  -24.6808  -15.8249  147.5081 C   0  0  0  0  0  0  0  0  0  0  0  0
  -23.6655  -17.2375  149.4211 C   0  0  0  0  0  0  0  0  0  0  0  0
  -22.5025  -17.4557  149.6536 F   0  0  0  0  0  0  0  0  0  0  0  0
  -24.6308  -17.4311  150.1965 F   0  0  0  0  0  0  0  0  0  0  0  0
  -27.3092  -11.8385  144.9109 C   0  0  0  0  0  0  0  0  0  0  0  0
  -27.5724  -11.6231  143.6696 C   0  0  0  0  0  0  0  0  0  0  0  0
  -27.9055  -10.2710  143.2917 C   0  0  0  0  0  0  0  0  0  0  0  0
  -28.3293   -9.9453  141.9866 C   0  0  0  0  0  0  0  0  0  0  0  0
  -29.2929   -9.4034  141.6089 C   0  0  0  0  0  0  0  0  0  0  0  0
  -30.3957   -8.9584  142.4704 C   0  0  0  0  0  0  0  0  0  0  0  0
  -31.4349   -8.1516  142.0182 C   0  0  0  0  0  0  0  0  0  0  0  0
  -31.2647   -7.7496  140.7754 N   0  0  0  0  0  0  0  0  0  0  0  0
  -30.2723   -7.9284  139.9707 C   0  0  0  0  0  0  0  0  0  0  0  0
  -29.2208   -8.7358  140.4268 C   0  0  0  0  0  0  0  0  0  0  0  0
  -28.0987   -9.0606  139.5960 C   0  0  0  0  0  0  0  0  0  0  0  0
  4  5  1  0
  5  6  1  0
  6  7  1  0
  7  8  1  0
  8  9  1  0
  8 10  2  0
 12 14  1  0
 14 15  1  0
 14 16  1  0
  7 17  1  0
 17 18  1  0
 18 19  1  0
 19 20  2  3
 20 21  1  0
 26 27  1  0
  4  3  1  0
 21 22  2  0
 22 23  1  0
 23 24  2  0
 24 25  1  0
 25 26  2  0
 26 21  1  0
  1  2  2  0
  2  3  1  0
  3 13  2  0
 13 12  1  0
 12 11  2  0
 11  1  1  0
M  END

$$$$
No_1243-/dssg/home/sw_qyf/PocketFlow/Model-Generation-Results/5HT2A_7WC7_rec_A_10.pdb/2024-01-01-03-54-21/
     RDKit          3D

 11 11  0  0  0  0  0  0  0  0999 V2000
  -23.1746  -16.6014  144.8668 C   0  0  0  0  0  0  0  0  0  0  0  0
  -24.0189  -16.0564  145.8445 C   0  0  0  0  0  0  0  0  0  0  0  0
  -24.4850  -14.7380  145.6359 C   0  0  0  0  0  0  0  0  0  0  0  0
  -25.2717  -14.0560  146.5949 C   0  0  0  0  0  0  0  0  0  0  0  0
  -25.5669  -12.6700  146.4456 C   0  0  0  0  0  0  0  0  0  0  0  0
  -25.1774  -11.9727  145.2644 C   0  0  0  0  0  0  0  0  0  0  0  0
  -24.2583  -12.6444  144.4323 C   0  0  0  0  0  0  0  0  0  0  0  0
  -23.9746  -14.0153  144.6649 C   0  0  0  0  0  0  0  0  0  0  0  0
  -24.4407  -16.8601  146.9515 C   0  0  0  0  0  0  0  0  0  0  0  0
  -25.1111  -16.6229  147.9710 C   0  0  0  0  0  0  0  0  0  0  0  0
  -25.2104  -17.3713  149.1832 C   0  0  0  0  0  0  0  0  0  0  0  0
  1  2  1  0
  2  3  1  0
  2  9  1  0
  9 10  2  3
 10 11  1  0
  3  4  2  0
  4  5  1  0
  5  6  2  0
  6  7  1  0
  7  8  2  0
  8  3  1  0
M  END

$$$$
No_1244-/dssg/home/sw_qyf/PocketFlow/Model-Generation-Results/5HT2A_7WC7_rec_A_10.pdb/2024-01-01-03-54-21/
     RDKit          3D

 34 38  0  0  0  0  0  0  0  0999 V2000
  -24.1553  -17.8465  145.7021 C   0  0  0  0  0  0  0  0  0  0  0  0
  -24.2856  -16.6364  145.3494 C   0  0  0  0  0  0  0  0  0  0  0  0
  -25.0033  -15.6772  146.0737 C   0  0  0  0  0  0  0  0  0  0  0  0
  -25.6964  -16.1810  147.2049 C   0  0  0  0  0  0  0  0  0  0  0  0
  -24.8143  -18.3454  146.8324 C   0  0  0  0  0  0  0  0  0  0  0  0
  -25.5291  -17.4614  147.6373 C   0  0  0  0  0  0  0  0  0  0  0  0
  -23.5869  -16.0353  144.1321 C   0  0  0  0  0  0  0  0  0  0  0  0
  -23.9931  -14.8269  143.7612 N   0  0  0  0  0  0  0  0  0  0  0  0
  -25.1830  -14.3109  145.6737 C   0  0  0  0  0  0  0  0  0  0  0  0
  -25.8651  -13.3061  146.5198 C   0  0  0  0  0  0  0  0  0  0  0  0
  -24.5375  -13.8729  144.4583 C   0  0  0  0  0  0  0  0  0  0  0  0
  -25.2807  -11.9856  146.5912 C   0  0  0  0  0  0  0  0  0  0  0  0
  -26.2762  -10.9374  146.3615 C   0  0  0  0  0  0  0  0  0  0  0  0
  -26.9024  -10.9902  145.0769 C   0  0  0  0  0  0  0  0  0  0  0  0
  -27.8860  -10.7163  144.8329 C   0  0  0  0  0  0  0  0  0  0  0  0
  -28.4524  -10.3901  143.4272 C   0  0  0  0  0  0  0  0  0  0  0  0
  -29.5841   -9.6913  143.1311 C   0  0  0  0  0  0  0  0  0  0  0  0
  -30.4056   -9.3201  144.2522 C   0  0  0  0  0  0  0  0  0  0  0  0
  -30.1188   -9.9033  145.5538 C   0  0  0  0  0  0  0  0  0  0  0  0
  -28.9221  -10.4749  145.8426 C   0  0  0  0  0  0  0  0  0  0  0  0
  -29.6835   -8.7932  142.0961 C   0  0  0  0  0  0  0  0  0  0  0  0
  -28.8722   -8.9295  140.8958 C   0  0  0  0  0  0  0  0  0  0  0  0
  -28.9320   -8.1556  139.7752 C   0  0  0  0  0  0  0  0  0  0  0  0
  -28.0821   -8.3739  138.7029 C   0  0  0  0  0  0  0  0  0  0  0  0
  -27.2448   -9.4883  138.7511 C   0  0  0  0  0  0  0  0  0  0  0  0
  -27.2333  -10.3119  139.9164 C   0  0  0  0  0  0  0  0  0  0  0  0
  -28.0354  -10.0625  140.9520 C   0  0  0  0  0  0  0  0  0  0  0  0
  -27.5431  -10.3345  142.2083 C   0  0  0  0  0  0  0  0  0  0  0  0
  -30.7302   -7.9487  142.0149 O   0  0  0  0  0  0  0  0  0  0  0  0
  -28.2068   -7.6792  137.6007 O   0  0  0  0  0  0  0  0  0  0  0  0
  -26.5441  -11.4207  139.6118 O   0  0  0  0  0  0  0  0  0  0  0  0
  -27.0254  -12.5844  139.0088 C   0  0  0  0  0  0  0  0  0  0  0  0
  -23.5338  -18.7890  144.9775 O   0  0  0  0  0  0  0  0  0  0  0  0
  -31.6034   -8.7760  144.1377 O   0  0  0  0  0  0  0  0  0  0  0  0
  9 10  1  0
 10 12  1  0
 12 13  1  0
 13 14  1  0
 17 21  1  0
 21 22  1  0
 16 28  1  0
 27 28  1  0
 21 29  2  0
 24 30  1  0
 26 31  1  0
 31 32  1  0
  1 33  1  0
 18 34  1  0
 14 15  1  0
 15 16  2  0
 16 17  1  0
 17 18  2  0
 18 19  1  0
 19 20  2  0
 20 15  1  0
  3  9  1  0
  9 11  2  0
 11  8  1  0
  8  7  2  0
  7  2  1  0
 22 23  2  0
 23 24  1  0
 24 25  2  0
 25 26  1  0
 26 27  2  0
 27 22  1  0
  1  2  2  0
  2  3  1  0
  3  4  2  0
  4  6  1  0
  6  5  2  0
  5  1  1  0
M  END

$$$$
No_1245-/dssg/home/sw_qyf/PocketFlow/Model-Generation-Results/5HT2A_7WC7_rec_A_10.pdb/2024-01-01-03-54-21/
     RDKit          3D

 20 21  0  0  0  0  0  0  0  0999 V2000
  -24.1553  -17.8465  145.7021 C   0  0  0  0  0  0  0  0  0  0  0  0
  -24.6364  -17.2931  146.7091 C   0  0  0  0  0  0  0  0  0  0  0  0
  -24.0780  -17.2921  147.9389 C   0  0  0  0  0  0  0  0  0  0  0  0
  -24.6869  -16.7003  149.1440 C   0  0  0  0  0  0  0  0  0  0  0  0
  -26.0385  -16.2385  148.9552 C   0  0  0  0  0  0  0  0  0  0  0  0
  -26.6430  -16.2999  147.7413 C   0  0  0  0  0  0  0  0  0  0  0  0
  -25.9652  -16.9120  146.6641 C   0  0  0  0  0  0  0  0  0  0  0  0
  -23.8169  -16.9477  144.6438 N   0  0  0  0  0  0  0  0  0  0  0  0
  -28.0914  -15.9044  147.6558 C   0  0  0  0  0  0  0  0  0  0  0  0
  -28.4818  -15.2187  146.5181 C   0  0  0  0  0  0  0  0  0  0  0  0
  -27.5513  -14.3771  145.9478 C   0  0  0  0  0  0  0  0  0  0  0  0
  -27.7702  -12.9557  145.8982 C   0  0  0  0  0  0  0  0  0  0  0  0
  -28.8270  -12.1804  146.4119 C   0  0  0  0  0  0  0  0  0  0  0  0
  -29.1656  -10.8989  146.0258 C   0  0  0  0  0  0  0  0  0  0  0  0
  -28.5023  -10.3464  144.8974 C   0  0  0  0  0  0  0  0  0  0  0  0
  -27.3340  -11.0696  144.3908 C   0  0  0  0  0  0  0  0  0  0  0  0
  -27.0921  -12.3466  144.8597 C   0  0  0  0  0  0  0  0  0  0  0  0
  -23.7917  -19.0455  145.4921 O   0  0  0  0  0  0  0  0  0  0  0  0
  -25.9775  -13.0417  144.1711 C   0  0  0  0  0  0  0  0  0  0  0  0
  -25.8291  -14.1028  144.1880 O   0  0  0  0  0  0  0  0  0  0  0  0
  1  2  1  0
  1  8  1  0
  6  9  1  0
  9 10  1  0
 10 11  1  0
  1 18  2  0
 17 19  1  0
 19 20  2  0
 11 12  1  0
 12 13  2  0
 13 14  1  0
 14 15  2  0
 15 16  1  0
 16 17  2  0
 17 12  1  0
  2  3  2  0
  3  4  1  0
  4  5  2  0
  5  6  1  0
  6  7  2  0
  7  2  1  0
M  END

$$$$
No_1246-/dssg/home/sw_qyf/PocketFlow/Model-Generation-Results/5HT2A_7WC7_rec_A_10.pdb/2024-01-01-03-54-21/
     RDKit          3D

 13 13  0  0  0  0  0  0  0  0999 V2000
  -24.1553  -17.8465  145.7021 C   0  0  0  0  0  0  0  0  0  0  0  0
  -24.2856  -16.6364  145.3494 C   0  0  0  0  0  0  0  0  0  0  0  0
  -24.7211  -15.5955  146.2115 C   0  0  0  0  0  0  0  0  0  0  0  0
  -24.8538  -14.2010  145.8739 C   0  0  0  0  0  0  0  0  0  0  0  0
  -25.3912  -13.2248  146.7184 C   0  0  0  0  0  0  0  0  0  0  0  0
  -24.5931  -18.2699  146.9809 C   0  0  0  0  0  0  0  0  0  0  0  0
  -25.1555  -17.3846  147.9076 C   0  0  0  0  0  0  0  0  0  0  0  0
  -25.2072  -15.9636  147.5445 C   0  0  0  0  0  0  0  0  0  0  0  0
  -24.3640  -13.8250  144.5657 C   0  0  0  0  0  0  0  0  0  0  0  0
  -25.3419  -11.8445  146.2821 C   0  0  0  0  0  0  0  0  0  0  0  0
  -25.1405  -11.5779  144.8976 C   0  0  0  0  0  0  0  0  0  0  0  0
  -25.1898  -10.2583  144.5584 O   0  0  0  0  0  0  0  0  0  0  0  0
  -23.8336  -14.6484  143.8368 O   0  0  0  0  0  0  0  0  0  0  0  0
  3  4  1  0
  4  5  1  0
  4  9  1  0
  5 10  1  0
 10 11  1  0
 11 12  1  0
  9 13  2  0
  1  2  2  0
  2  3  1  0
  3  8  2  0
  8  7  1  0
  7  6  2  0
  6  1  1  0
M  END

$$$$
No_1247-/dssg/home/sw_qyf/PocketFlow/Model-Generation-Results/5HT2A_7WC7_rec_A_10.pdb/2024-01-01-03-54-21/
     RDKit          3D

 22 22  0  0  0  0  0  0  0  0999 V2000
  -24.1553  -17.8465  145.7021 C   0  0  0  0  0  0  0  0  0  0  0  0
  -24.6364  -17.2931  146.7091 C   0  0  0  0  0  0  0  0  0  0  0  0
  -24.0780  -17.2921  147.9389 C   0  0  0  0  0  0  0  0  0  0  0  0
  -24.6761  -16.7363  149.1478 C   0  0  0  0  0  0  0  0  0  0  0  0
  -25.9985  -16.2638  148.9932 C   0  0  0  0  0  0  0  0  0  0  0  0
  -26.6270  -16.3412  147.7728 C   0  0  0  0  0  0  0  0  0  0  0  0
  -25.9734  -16.9166  146.6819 C   0  0  0  0  0  0  0  0  0  0  0  0
  -23.8064  -16.8947  144.5712 C   0  0  0  0  0  0  0  0  0  0  0  0
  -23.5945  -15.4828  145.1287 C   0  0  0  0  0  0  0  0  0  0  0  0
  -23.5049  -14.3891  144.1760 C   0  0  0  0  0  0  0  0  0  0  0  0
  -23.3569  -13.0639  144.8452 C   0  0  0  0  0  0  0  0  0  0  0  0
  -24.2904  -12.6836  145.9578 C   0  0  0  0  0  0  0  0  0  0  0  0
  -25.5569  -12.6412  145.8194 C   0  0  0  0  0  0  0  0  0  0  0  0
  -26.1628  -11.3777  146.0925 C   0  0  0  0  0  0  0  0  0  0  0  0
  -27.5473  -11.1971  145.7037 C   0  0  0  0  0  0  0  0  0  0  0  0
  -27.9178  -10.3997  144.6480 C   0  0  0  0  0  0  0  0  0  0  0  0
  -29.2913  -10.1451  144.3510 C   0  0  0  0  0  0  0  0  0  0  0  0
  -29.7637   -9.4419  143.2859 C   0  0  0  0  0  0  0  0  0  0  0  0
  -30.6973   -8.4874  143.4633 C   0  0  0  0  0  0  0  0  0  0  0  0
  -31.1218   -7.8040  142.2926 C   0  0  0  0  0  0  0  0  0  0  0  0
  -30.1545   -8.0076  141.1754 C   0  0  0  0  0  0  0  0  0  0  0  0
  -29.2589   -9.0338  141.0789 C   0  0  0  0  0  0  0  0  0  0  0  0
  1  2  1  0
  1  8  1  0
  8  9  1  0
  9 10  1  0
 10 11  1  0
 11 12  1  0
 12 13  1  0
 13 14  2  3
 14 15  1  0
 15 16  1  0
 16 17  1  0
 17 18  2  3
 18 19  1  0
 19 20  1  0
 20 21  1  0
 21 22  2  0
  2  3  2  0
  3  4  1  0
  4  5  2  0
  5  6  1  0
  6  7  2  0
  7  2  1  0
M  END

$$$$
No_1248-/dssg/home/sw_qyf/PocketFlow/Model-Generation-Results/5HT2A_7WC7_rec_A_10.pdb/2024-01-01-03-54-21/
     RDKit          3D

 35 39  0  0  0  0  0  0  0  0999 V2000
  -24.1553  -17.8465  145.7021 C   0  0  0  0  0  0  0  0  0  0  0  0
  -24.2856  -16.6364  145.3494 C   0  0  0  0  0  0  0  0  0  0  0  0
  -25.0033  -15.6772  146.0737 C   0  0  0  0  0  0  0  0  0  0  0  0
  -25.7224  -16.0756  147.0213 C   0  0  0  0  0  0  0  0  0  0  0  0
  -24.8891  -18.3427  146.7818 C   0  0  0  0  0  0  0  0  0  0  0  0
  -25.6060  -17.4168  147.5658 C   0  0  0  0  0  0  0  0  0  0  0  0
  -23.5635  -16.0962  144.2194 N   0  0  0  0  0  0  0  0  0  0  0  0
  -25.0582  -14.2339  145.5673 C   0  0  0  0  0  0  0  0  0  0  0  0
  -25.6294  -13.3363  146.1435 C   0  0  0  0  0  0  0  0  0  0  0  0
  -25.5020  -11.9629  145.7543 C   0  0  0  0  0  0  0  0  0  0  0  0
  -26.5721  -11.0453  145.8611 C   0  0  0  0  0  0  0  0  0  0  0  0
  -24.1903  -13.9622  144.4040 C   0  0  0  0  0  0  0  0  0  0  0  0
  -24.1794  -12.7314  144.0032 O   0  0  0  0  0  0  0  0  0  0  0  0
  -23.4780  -14.9359  143.8777 N   0  0  0  0  0  0  0  0  0  0  0  0
  -24.7686  -11.8728  144.4587 C   0  0  0  0  0  0  0  0  0  0  0  0
  -27.8945  -11.5237  145.5937 C   0  0  0  0  0  0  0  0  0  0  0  0
  -28.8536  -10.6434  144.9802 C   0  0  0  0  0  0  0  0  0  0  0  0
  -28.8030  -10.1887  143.7197 C   0  0  0  0  0  0  0  0  0  0  0  0
  -29.8255   -9.3377  143.2190 C   0  0  0  0  0  0  0  0  0  0  0  0
  -29.7953   -8.8006  141.9449 C   0  0  0  0  0  0  0  0  0  0  0  0
  -30.7014   -7.7944  141.5209 C   0  0  0  0  0  0  0  0  0  0  0  0
  -28.8753   -9.2755  140.9453 C   0  0  0  0  0  0  0  0  0  0  0  0
  -28.7487   -8.8036  139.6918 C   0  0  0  0  0  0  0  0  0  0  0  0
  -27.9040   -9.3661  138.7409 C   0  0  0  0  0  0  0  0  0  0  0  0
  -27.2208  -10.5325  139.2247 C   0  0  0  0  0  0  0  0  0  0  0  0
  -27.4363  -11.1514  140.4923 C   0  0  0  0  0  0  0  0  0  0  0  0
  -28.2115  -10.5217  141.3874 C   0  0  0  0  0  0  0  0  0  0  0  0
  -28.0877  -10.9309  142.7208 C   0  0  0  0  0  0  0  0  0  0  0  0
  -30.6815   -8.7644  144.1651 O   0  0  0  0  0  0  0  0  0  0  0  0
  -28.4350  -12.3858  146.6924 C   0  0  0  0  0  0  0  0  0  0  0  0
  -29.5077  -13.1330  146.4067 C   0  0  0  0  0  0  0  0  0  0  0  0
  -29.8071  -14.1373  147.4245 C   0  0  0  0  0  0  0  0  0  0  0  0
  -29.5756  -14.3273  148.3912 C   0  0  0  0  0  0  0  0  0  0  0  0
  -29.9732  -15.4582  149.2147 C   0  0  0  0  0  0  0  0  0  0  0  0
  -29.6444  -16.7245  148.7184 C   0  0  0  0  0  0  0  0  0  0  0  0
  2  7  1  0
  3  8  1  0
  8  9  1  0
  9 10  2  0
 10 11  1  0
  8 12  1  0
 12 13  1  0
  7 14  1  0
 12 14  1  0
 10 15  1  0
 13 15  1  0
 11 16  1  0
 16 17  1  0
 17 18  2  3
 18 19  1  0
 19 20  1  0
 20 21  2  0
 20 22  1  0
 18 28  1  0
 27 28  1  0
 19 29  1  0
 16 30  1  0
 30 31  2  3
 31 32  1  0
 32 33  2  3
 33 34  1  0
 34 35  2  0
 22 23  2  0
 23 24  1  0
 24 25  2  0
 25 26  1  0
 26 27  2  0
 27 22  1  0
  1  2  2  0
  2  3  1  0
  3  4  2  0
  4  6  1  0
  6  5  2  0
  5  1  1  0
M  END

$$$$
No_1249-/dssg/home/sw_qyf/PocketFlow/Model-Generation-Results/5HT2A_7WC7_rec_A_10.pdb/2024-01-01-03-54-21/
     RDKit          3D

 22 24  0  0  0  0  0  0  0  0999 V2000
  -24.1553  -17.8465  145.7021 C   0  0  0  0  0  0  0  0  0  0  0  0
  -23.9795  -18.4462  146.7426 C   0  0  0  0  0  0  0  0  0  0  0  0
  -25.1196  -16.8106  145.6409 C   0  0  0  0  0  0  0  0  0  0  0  0
  -25.2440  -15.8776  144.5240 C   0  0  0  0  0  0  0  0  0  0  0  0
  -24.0642  -15.4170  143.9520 C   0  0  0  0  0  0  0  0  0  0  0  0
  -22.8993  -16.1300  144.2805 C   0  0  0  0  0  0  0  0  0  0  0  0
  -22.9280  -17.2077  145.1727 N   0  0  0  0  0  0  0  0  0  0  0  0
  -26.4086  -17.1531  146.3414 C   0  0  0  0  0  0  0  0  0  0  0  0
  -27.6314  -16.6340  146.0874 C   0  0  0  0  0  0  0  0  0  0  0  0
  -28.1744  -15.6612  146.8925 C   0  0  0  0  0  0  0  0  0  0  0  0
  -27.9670  -14.2721  146.7491 C   0  0  0  0  0  0  0  0  0  0  0  0
  -28.9840  -13.3051  147.2408 C   0  0  0  0  0  0  0  0  0  0  0  0
  -28.8467  -11.8915  147.0335 C   0  0  0  0  0  0  0  0  0  0  0  0
  -28.8061  -11.6354  145.7154 C   0  0  0  0  0  0  0  0  0  0  0  0
  -27.5582  -11.7839  145.0085 C   0  0  0  0  0  0  0  0  0  0  0  0
  -27.4197  -11.1432  143.7771 C   0  0  0  0  0  0  0  0  0  0  0  0
  -28.5320  -10.7050  143.0698 C   0  0  0  0  0  0  0  0  0  0  0  0
  -29.7085  -10.3494  143.8156 C   0  0  0  0  0  0  0  0  0  0  0  0
  -29.8114  -10.7997  145.1297 C   0  0  0  0  0  0  0  0  0  0  0  0
  -29.8008  -13.9605  148.2578 C   0  0  0  0  0  0  0  0  0  0  0  0
  -29.9100  -15.2333  148.5532 C   0  0  0  0  0  0  0  0  0  0  0  0
  -29.1718  -16.0713  147.8378 C   0  0  0  0  0  0  0  0  0  0  0  0
  1  2  2  0
  1  3  1  0
  3  4  1  0
  4  5  1  0
  5  6  1  0
  1  7  1  0
  6  7  1  0
  3  8  1  0
  8  9  2  3
  9 10  1  0
 12 13  1  0
 13 14  1  0
 14 15  2  0
 15 16  1  0
 16 17  2  0
 17 18  1  0
 18 19  2  0
 19 14  1  0
 10 11  2  0
 11 12  1  0
 12 20  2  0
 20 21  1  0
 21 22  2  0
 22 10  1  0
M  END

$$$$
No_1250-/dssg/home/sw_qyf/PocketFlow/Model-Generation-Results/5HT2A_7WC7_rec_A_10.pdb/2024-01-01-03-54-21/
     RDKit          3D

 16 17  0  0  0  0  0  0  0  0999 V2000
  -23.1746  -16.6014  144.8668 C   0  0  0  0  0  0  0  0  0  0  0  0
  -24.0189  -16.0564  145.8445 C   0  0  0  0  0  0  0  0  0  0  0  0
  -24.4145  -16.8299  146.9062 C   0  0  0  0  0  0  0  0  0  0  0  0
  -23.8925  -17.9780  147.0944 C   0  0  0  0  0  0  0  0  0  0  0  0
  -23.0516  -18.5662  146.1819 C   0  0  0  0  0  0  0  0  0  0  0  0
  -22.7171  -17.7851  145.1421 N   0  0  0  0  0  0  0  0  0  0  0  0
  -24.6214  -14.6627  145.5820 C   0  0  0  0  0  0  0  0  0  0  0  0
  -25.8709  -14.3621  145.9158 C   0  0  0  0  0  0  0  0  0  0  0  0
  -26.3618  -13.0566  145.6664 C   0  0  0  0  0  0  0  0  0  0  0  0
  -27.7508  -12.6514  145.7321 C   0  0  0  0  0  0  0  0  0  0  0  0
  -28.2658  -11.3531  145.4090 C   0  0  0  0  0  0  0  0  0  0  0  0
  -27.4654  -10.5610  144.5618 C   0  0  0  0  0  0  0  0  0  0  0  0
  -26.0798  -10.9537  144.4788 C   0  0  0  0  0  0  0  0  0  0  0  0
  -25.5718  -12.1317  144.9808 C   0  0  0  0  0  0  0  0  0  0  0  0
  -29.5571  -11.1834  145.7330 N   0  0  0  0  0  0  0  0  0  0  0  0
  -30.2211  -10.1922  145.2920 O   0  0  0  0  0  0  0  0  0  0  0  0
  2  7  1  0
  7  8  1  0
 11 15  1  0
 15 16  2  0
  8  9  1  0
  1  2  2  0
  2  3  1  0
  3  4  2  0
  4  5  1  0
  5  6  2  0
  6  1  1  0
  9 10  2  0
 10 11  1  0
 11 12  2  0
 12 13  1  0
 13 14  2  0
 14  9  1  0
M  END

$$$$
No_1251-/dssg/home/sw_qyf/PocketFlow/Model-Generation-Results/5HT2A_7WC7_rec_A_10.pdb/2024-01-01-03-54-21/
     RDKit          3D

 28 30  0  0  0  0  0  0  0  0999 V2000
  -24.1553  -17.8465  145.7021 C   0  0  0  0  0  0  0  0  0  0  0  0
  -24.2856  -16.6364  145.3494 C   0  0  0  0  0  0  0  0  0  0  0  0
  -24.7211  -15.5955  146.2115 C   0  0  0  0  0  0  0  0  0  0  0  0
  -24.8539  -14.2010  145.8739 C   0  0  0  0  0  0  0  0  0  0  0  0
  -24.1440  -13.8321  144.7074 C   0  0  0  0  0  0  0  0  0  0  0  0
  -23.4275  -14.8130  143.9942 C   0  0  0  0  0  0  0  0  0  0  0  0
  -23.4702  -16.0375  144.6417 C   0  0  0  0  0  0  0  0  0  0  0  0
  -23.1208  -18.5011  146.4776 C   0  0  0  0  0  0  0  0  0  0  0  0
  -25.5141  -13.3191  146.6626 N   0  0  0  0  0  0  0  0  0  0  0  0
  -26.8554  -13.2331  146.7313 C   0  0  0  0  0  0  0  0  0  0  0  0
  -27.4906  -11.9636  146.4668 C   0  0  0  0  0  0  0  0  0  0  0  0
  -26.9996  -11.1563  145.4355 C   0  0  0  0  0  0  0  0  0  0  0  0
  -27.4184  -11.2408  144.1705 C   0  0  0  0  0  0  0  0  0  0  0  0
  -27.9229  -12.0913  143.5793 C   0  0  0  0  0  0  0  0  0  0  0  0
  -28.2055  -12.1110  142.1465 C   0  0  0  0  0  0  0  0  0  0  0  0
  -28.0189  -11.2308  141.5211 C   0  0  0  0  0  0  0  0  0  0  0  0
  -27.7501   -9.9043  142.0631 C   0  0  0  0  0  0  0  0  0  0  0  0
  -27.3357   -9.9067  143.3821 C   0  0  0  0  0  0  0  0  0  0  0  0
  -28.3578  -11.1428  140.0123 C   0  0  0  0  0  0  0  0  0  0  0  0
  -27.8327  -10.5557  139.1024 C   0  0  0  0  0  0  0  0  0  0  0  0
  -26.8860   -9.5371  139.6023 C   0  0  0  0  0  0  0  0  0  0  0  0
  -27.4667  -14.1834  147.2791 O   0  0  0  0  0  0  0  0  0  0  0  0
  -26.9605   -9.1339  141.0652 C   0  0  0  0  0  0  0  0  0  0  0  0
  -22.5414  -17.6453  147.3275 O   0  0  0  0  0  0  0  0  0  0  0  0
  -28.7045  -11.7701  146.8920 O   0  0  0  0  0  0  0  0  0  0  0  0
  -29.7971  -11.5412  146.1980 C   0  0  0  0  0  0  0  0  0  0  0  0
  -30.6960  -10.5494  147.0282 C   0  0  0  0  0  0  0  0  0  0  0  0
  -30.1215  -12.0260  145.2184 O   0  0  0  0  0  0  0  0  0  0  0  0
  1  2  2  3
  2  3  1  0
  3  4  1  0
  4  5  1  0
  5  6  1  0
  2  7  1  0
  6  7  1  0
  1  8  1  0
  4  9  1  0
  9 10  1  0
 10 11  1  0
 11 12  1  0
 12 13  1  0
 10 22  2  0
  8 24  1  0
 11 25  1  0
 25 26  1  0
 26 27  1  0
 26 28  2  0
 13 14  2  0
 14 15  1  0
 15 16  2  0
 17 18  2  0
 18 13  1  0
 16 17  1  0
 17 23  1  0
 23 21  2  0
 21 20  1  0
 20 19  2  0
 19 16  1  0
M  END

$$$$
No_1252-/dssg/home/sw_qyf/PocketFlow/Model-Generation-Results/5HT2A_7WC7_rec_A_10.pdb/2024-01-01-03-54-21/
     RDKit          3D

 21 22  0  0  0  0  0  0  0  0999 V2000
  -23.1746  -16.6014  144.8668 C   0  0  0  0  0  0  0  0  0  0  0  0
  -23.7011  -17.0158  145.9774 C   0  0  0  0  0  0  0  0  0  0  0  0
  -24.2134  -16.0722  146.8877 C   0  0  0  0  0  0  0  0  0  0  0  0
  -24.7882  -16.3410  148.2078 C   0  0  0  0  0  0  0  0  0  0  0  0
  -23.4231  -15.2781  144.3679 C   0  0  0  0  0  0  0  0  0  0  0  0
  -24.0726  -14.2968  145.2170 C   0  0  0  0  0  0  0  0  0  0  0  0
  -24.2425  -12.9518  144.8262 C   0  0  0  0  0  0  0  0  0  0  0  0
  -24.4659  -14.7142  146.4566 C   0  0  0  0  0  0  0  0  0  0  0  0
  -25.4714  -12.3885  145.0438 C   0  0  0  0  0  0  0  0  0  0  0  0
  -25.5431  -11.0624  145.3529 C   0  0  0  0  0  0  0  0  0  0  0  0
  -25.1223  -17.6964  148.5005 C   0  0  0  0  0  0  0  0  0  0  0  0
  -26.9759  -10.4588  145.4408 C   0  0  0  0  0  0  0  0  0  0  0  0
  -28.1138  -11.3106  145.3588 C   0  0  0  0  0  0  0  0  0  0  0  0
  -27.8341  -12.6729  145.1452 C   0  0  0  0  0  0  0  0  0  0  0  0
  -26.6292  -13.1873  144.9930 C   0  0  0  0  0  0  0  0  0  0  0  0
  -29.3942  -10.6570  145.4657 C   0  0  0  0  0  0  0  0  0  0  0  0
  -30.2267  -11.1708  144.8788 N   0  0  0  0  0  0  0  0  0  0  0  0
  -25.9011  -17.7358  149.5087 F   0  0  0  0  0  0  0  0  0  0  0  0
  -25.2196  -18.5317  147.6138 F   0  0  0  0  0  0  0  0  0  0  0  0
  -23.2188  -12.4031  144.3778 O   0  0  0  0  0  0  0  0  0  0  0  0
  -29.7618  -10.0729  146.5667 O   0  0  0  0  0  0  0  0  0  0  0  0
  1  2  1  0
  2  3  1  0
  3  4  2  3
  1  5  1  0
  5  6  1  0
  6  7  1  0
  3  8  1  0
  6  8  1  0
  7  9  1  0
  4 11  1  0
 13 16  1  0
 16 17  1  0
 11 18  1  0
 11 19  1  0
  7 20  2  0
 16 21  2  0
  9 10  2  0
 10 12  1  0
 12 13  2  0
 13 14  1  0
 14 15  2  0
 15  9  1  0
M  END

$$$$
No_1253-/dssg/home/sw_qyf/PocketFlow/Model-Generation-Results/5HT2A_7WC7_rec_A_10.pdb/2024-01-01-03-54-21/
     RDKit          3D

 21 23  0  0  0  0  0  0  0  0999 V2000
  -23.1746  -16.6014  144.8668 C   0  0  0  0  0  0  0  0  0  0  0  0
  -23.8963  -15.5346  144.7885 C   0  0  0  0  0  0  0  0  0  0  0  0
  -24.5755  -15.0383  145.9043 C   0  0  0  0  0  0  0  0  0  0  0  0
  -24.8345  -15.9108  146.9141 C   0  0  0  0  0  0  0  0  0  0  0  0
  -24.2398  -17.1433  146.9649 C   0  0  0  0  0  0  0  0  0  0  0  0
  -23.4221  -17.5266  145.9093 C   0  0  0  0  0  0  0  0  0  0  0  0
  -25.2320  -13.6666  145.9013 C   0  0  0  0  0  0  0  0  0  0  0  0
  -24.3315  -12.6223  146.0652 C   0  0  0  0  0  0  0  0  0  0  0  0
  -26.5470  -13.4617  145.7488 C   0  0  0  0  0  0  0  0  0  0  0  0
  -27.1469  -12.1752  145.7572 C   0  0  0  0  0  0  0  0  0  0  0  0
  -28.5073  -11.9756  145.6155 C   0  0  0  0  0  0  0  0  0  0  0  0
  -24.8930  -11.2953  146.1189 C   0  0  0  0  0  0  0  0  0  0  0  0
  -26.2753  -11.1146  145.9590 C   0  0  0  0  0  0  0  0  0  0  0  0
  -29.0842  -10.9444  144.8323 C   0  0  0  0  0  0  0  0  0  0  0  0
  -29.9487   -9.9285  145.4592 C   0  0  0  0  0  0  0  0  0  0  0  0
  -30.6431   -9.0407  144.6627 C   0  0  0  0  0  0  0  0  0  0  0  0
  -30.4680   -8.9439  143.2793 C   0  0  0  0  0  0  0  0  0  0  0  0
  -29.5102   -9.8799  142.7303 C   0  0  0  0  0  0  0  0  0  0  0  0
  -28.8877  -10.8697  143.4834 C   0  0  0  0  0  0  0  0  0  0  0  0
  -31.2051   -8.0273  142.4578 C   0  0  0  0  0  0  0  0  0  0  0  0
  -30.9660   -7.9225  141.2404 O   0  0  0  0  0  0  0  0  0  0  0  0
  3  7  1  0
 11 14  1  0
 17 20  1  0
 20 21  1  0
 11 10  1  0
  1  2  2  0
  2  3  1  0
  3  4  2  0
  4  5  1  0
  5  6  2  0
  6  1  1  0
  7  8  2  0
  8 12  1  0
 12 13  2  0
 13 10  1  0
 10  9  2  0
  9  7  1  0
 14 15  2  0
 15 16  1  0
 16 17  2  0
 17 18  1  0
 18 19  2  0
 19 14  1  0
M  END

$$$$
No_1254-/dssg/home/sw_qyf/PocketFlow/Model-Generation-Results/5HT2A_7WC7_rec_A_10.pdb/2024-01-01-03-54-21/
     RDKit          3D

 35 37  0  0  0  0  0  0  0  0999 V2000
  -24.1553  -17.8465  145.7021 C   0  0  0  0  0  0  0  0  0  0  0  0
  -24.2856  -16.6364  145.3494 C   0  0  0  0  0  0  0  0  0  0  0  0
  -25.0033  -15.6772  146.0737 C   0  0  0  0  0  0  0  0  0  0  0  0
  -25.7224  -16.0756  147.0213 C   0  0  0  0  0  0  0  0  0  0  0  0
  -26.8990  -15.4143  147.4599 C   0  0  0  0  0  0  0  0  0  0  0  0
  -24.8794  -18.3534  146.7910 C   0  0  0  0  0  0  0  0  0  0  0  0
  -25.7137  -17.4533  147.4258 C   0  0  0  0  0  0  0  0  0  0  0  0
  -24.9879  -14.2306  145.6035 C   0  0  0  0  0  0  0  0  0  0  0  0
  -23.9725  -13.4582  146.1126 C   0  0  0  0  0  0  0  0  0  0  0  0
  -25.8614  -13.8013  144.6724 C   0  0  0  0  0  0  0  0  0  0  0  0
  -23.8324  -12.0990  145.6012 C   0  0  0  0  0  0  0  0  0  0  0  0
  -25.8438  -14.2285  143.3307 C   0  0  0  0  0  0  0  0  0  0  0  0
  -26.7271  -13.6455  142.3774 C   0  0  0  0  0  0  0  0  0  0  0  0
  -26.8888  -14.0795  141.0741 C   0  0  0  0  0  0  0  0  0  0  0  0
  -27.7152  -13.1659  140.3532 C   0  0  0  0  0  0  0  0  0  0  0  0
  -27.4364  -11.7920  140.4225 C   0  0  0  0  0  0  0  0  0  0  0  0
  -27.6004  -11.2184  141.7574 C   0  0  0  0  0  0  0  0  0  0  0  0
  -27.0459  -12.1154  142.6871 C   0  0  0  0  0  0  0  0  0  0  0  0
  -28.3761  -10.9344  139.4052 C   0  0  0  0  0  0  0  0  0  0  0  0
  -28.2952   -9.5460  139.7779 C   0  0  0  0  0  0  0  0  0  0  0  0
  -28.1947   -8.5376  138.7509 C   0  0  0  0  0  0  0  0  0  0  0  0
  -28.9230   -7.3062  139.0687 C   0  0  0  0  0  0  0  0  0  0  0  0
  -29.7914   -7.4419  140.2561 C   0  0  0  0  0  0  0  0  0  0  0  0
  -29.5479   -8.6182  140.9401 C   0  0  0  0  0  0  0  0  0  0  0  0
  -23.4543  -16.1953  144.3341 F   0  0  0  0  0  0  0  0  0  0  0  0
  -22.7261  -11.6398  145.1467 N   0  0  0  0  0  0  0  0  0  0  0  0
  -24.8423  -11.2182  145.8240 N   0  0  0  0  0  0  0  0  0  0  0  0
  -29.9433   -9.2354  142.0902 C   0  0  0  0  0  0  0  0  0  0  0  0
  -29.6881   -8.5145  143.1908 C   0  0  0  0  0  0  0  0  0  0  0  0
  -30.2457   -9.1152  144.4977 C   0  0  0  0  0  0  0  0  0  0  0  0
  -30.7708  -10.3189  142.0645 C   0  0  0  0  0  0  0  0  0  0  0  0
  -29.9933  -10.4981  144.8391 C   0  0  0  0  0  0  0  0  0  0  0  0
  -30.3090  -10.6318  146.1125 O   0  0  0  0  0  0  0  0  0  0  0  0
  -29.7924  -11.8100  146.7892 C   0  0  0  0  0  0  0  0  0  0  0  0
  -28.8385  -12.5687  146.1732 C   0  0  0  0  0  0  0  0  0  0  0  0
  1  2  1  0
  2  3  1  0
  3  4  1  0
  4  5  2  0
  1  6  1  0
  4  7  1  0
  6  7  1  0
  3  8  1  0
  8  9  2  3
  8 10  1  0
  9 11  1  0
 10 12  2  3
 12 13  1  0
 16 19  1  0
 19 20  1  0
 20 21  1  0
 21 22  1  0
 22 23  2  0
 20 24  1  0
 23 24  1  0
  2 25  1  0
 11 26  1  0
 11 27  1  0
 24 28  1  0
 28 29  2  3
 29 30  1  0
 28 31  1  0
 30 32  1  0
 32 33  1  0
 33 34  1  0
 34 35  2  0
 13 14  2  0
 14 15  1  0
 15 16  2  0
 16 17  1  0
 17 18  2  0
 18 13  1  0
M  END

$$$$
No_1255-/dssg/home/sw_qyf/PocketFlow/Model-Generation-Results/5HT2A_7WC7_rec_A_10.pdb/2024-01-01-03-54-21/
     RDKit          3D

 14 15  0  0  0  0  0  0  0  0999 V2000
  -24.1553  -17.8465  145.7021 C   0  0  0  0  0  0  0  0  0  0  0  0
  -24.2855  -16.6364  145.3494 C   0  0  0  0  0  0  0  0  0  0  0  0
  -24.1962  -15.9414  144.2650 C   0  0  0  0  0  0  0  0  0  0  0  0
  -24.3870  -14.5486  144.1162 C   0  0  0  0  0  0  0  0  0  0  0  0
  -24.7523  -13.8439  145.3544 C   0  0  0  0  0  0  0  0  0  0  0  0
  -24.8596  -14.5458  146.5907 C   0  0  0  0  0  0  0  0  0  0  0  0
  -24.5646  -15.8706  146.6408 C   0  0  0  0  0  0  0  0  0  0  0  0
  -23.5514  -18.8504  145.1654 C   0  0  0  0  0  0  0  0  0  0  0  0
  -24.6909  -18.1553  147.0647 C   0  0  0  0  0  0  0  0  0  0  0  0
  -24.9609  -16.8949  147.6214 C   0  0  0  0  0  0  0  0  0  0  0  0
  -24.8934  -12.3588  145.3802 C   0  0  0  0  0  0  0  0  0  0  0  0
  -25.7793  -11.8007  146.4089 C   0  0  0  0  0  0  0  0  0  0  0  0
  -27.1459  -11.5209  145.8213 C   0  0  0  0  0  0  0  0  0  0  0  0
  -27.3164  -10.6695  144.7890 C   0  0  0  0  0  0  0  0  0  0  0  0
  1  8  1  0
  1  9  1  0
  7 10  1  0
  9 10  1  0
  5 11  1  0
 11 12  1  0
 12 13  1  0
 13 14  3  0
  1  2  1  0
  2  3  2  0
  3  4  1  0
  4  5  2  0
  5  6  1  0
  6  7  2  0
  7  2  1  0
M  END

$$$$
No_1256-/dssg/home/sw_qyf/PocketFlow/Model-Generation-Results/5HT2A_7WC7_rec_A_10.pdb/2024-01-01-03-54-21/
     RDKit          3D

 35 36  0  0  0  0  0  0  0  0999 V2000
  -24.0934  -18.1020  145.4883 Cl  0  0  0  0  0  0  0  0  0  0  0  0
  -24.1957  -16.5069  145.7546 C   0  0  0  0  0  0  0  0  0  0  0  0
  -24.0968  -15.6360  144.6517 C   0  0  0  0  0  0  0  0  0  0  0  0
  -24.0212  -14.2354  144.8988 C   0  0  0  0  0  0  0  0  0  0  0  0
  -24.3937  -13.6100  146.1224 C   0  0  0  0  0  0  0  0  0  0  0  0
  -24.6745  -14.5604  147.2472 C   0  0  0  0  0  0  0  0  0  0  0  0
  -24.6177  -15.9033  147.0691 C   0  0  0  0  0  0  0  0  0  0  0  0
  -24.8079  -16.7977  148.2494 C   0  0  0  0  0  0  0  0  0  0  0  0
  -25.9222  -16.8195  148.8097 O   0  0  0  0  0  0  0  0  0  0  0  0
  -23.6662  -17.1659  148.8971 O   0  0  0  0  0  0  0  0  0  0  0  0
  -24.4264  -12.1788  146.2828 C   0  0  0  0  0  0  0  0  0  0  0  0
  -25.5845  -11.6349  145.5901 C   0  0  0  0  0  0  0  0  0  0  0  0
  -26.8448  -11.6218  146.1575 C   0  0  0  0  0  0  0  0  0  0  0  0
  -27.9188  -11.0770  145.4762 C   0  0  0  0  0  0  0  0  0  0  0  0
  -29.2850  -11.1591  145.9117 C   0  0  0  0  0  0  0  0  0  0  0  0
  -30.3242  -10.3555  145.3355 C   0  0  0  0  0  0  0  0  0  0  0  0
  -30.0358   -9.6297  144.1978 C   0  0  0  0  0  0  0  0  0  0  0  0
  -28.7435   -9.6284  143.6642 C   0  0  0  0  0  0  0  0  0  0  0  0
  -27.6844  -10.2721  144.3113 C   0  0  0  0  0  0  0  0  0  0  0  0
  -31.1563   -8.9598  143.5075 C   0  0  0  0  0  0  0  0  0  0  0  0
  -30.8081   -8.1564  142.3271 C   0  0  0  0  0  0  0  0  0  0  0  0
  -30.1061   -7.0132  142.4730 C   0  0  0  0  0  0  0  0  0  0  0  0
  -29.3538   -6.4113  141.4108 C   0  0  0  0  0  0  0  0  0  0  0  0
  -29.3012   -6.9795  140.1632 C   0  0  0  0  0  0  0  0  0  0  0  0
  -28.2589   -7.9164  139.7788 C   0  0  0  0  0  0  0  0  0  0  0  0
  -28.0387   -9.0936  140.4738 C   0  0  0  0  0  0  0  0  0  0  0  0
  -27.2296  -10.1302  139.9787 C   0  0  0  0  0  0  0  0  0  0  0  0
  -27.7636  -11.4175  139.6001 C   0  0  0  0  0  0  0  0  0  0  0  0
  -28.1716  -12.3500  140.6214 C   0  0  0  0  0  0  0  0  0  0  0  0
  -27.3956  -12.1977  141.8827 C   0  0  0  0  0  0  0  0  0  0  0  0
  -27.1650  -13.6049  142.5164 C   0  0  0  0  0  0  0  0  0  0  0  0
  -32.2944   -9.0015  144.0018 O   0  0  0  0  0  0  0  0  0  0  0  0
  -27.7967   -7.8457  138.4102 C   0  0  0  0  0  0  0  0  0  0  0  0
  -27.7395  -11.8446  138.2284 C   0  0  0  0  0  0  0  0  0  0  0  0
  -29.5702  -11.9831  147.1248 C   0  0  0  0  0  0  0  0  0  0  0  0
  1  2  1  0
  7  8  1  0
  8  9  1  0
  8 10  2  0
  5 11  1  0
 11 12  1  0
 12 13  2  3
 13 14  1  0
 17 20  1  0
 20 21  1  0
 21 22  1  0
 22 23  2  3
 23 24  1  0
 24 25  1  0
 25 26  2  3
 26 27  1  0
 27 28  1  0
 28 29  1  0
 29 30  1  0
 30 31  1  0
 20 32  2  0
 25 33  1  0
 28 34  1  0
 15 35  1  0
  2  3  2  0
  3  4  1  0
  4  5  2  0
  5  6  1  0
  6  7  2  0
  7  2  1  0
 14 15  2  0
 15 16  1  0
 16 17  2  0
 17 18  1  0
 18 19  2  0
 19 14  1  0
M  END

$$$$
No_1257-/dssg/home/sw_qyf/PocketFlow/Model-Generation-Results/5HT2A_7WC7_rec_A_10.pdb/2024-01-01-03-54-21/
     RDKit          3D

 24 24  0  0  0  0  0  0  0  0999 V2000
  -24.1553  -17.8465  145.7021 C   0  0  0  0  0  0  0  0  0  0  0  0
  -24.6364  -17.2931  146.7091 C   0  0  0  0  0  0  0  0  0  0  0  0
  -25.8608  -16.5592  146.5934 C   0  0  0  0  0  0  0  0  0  0  0  0
  -26.9933  -16.9082  147.1889 C   0  0  0  0  0  0  0  0  0  0  0  0
  -28.2350  -16.1839  146.8943 C   0  0  0  0  0  0  0  0  0  0  0  0
  -28.0917  -14.8490  146.2711 C   0  0  0  0  0  0  0  0  0  0  0  0
  -26.8735  -14.4689  145.6543 C   0  0  0  0  0  0  0  0  0  0  0  0
  -25.7045  -15.3434  145.9022 C   0  0  0  0  0  0  0  0  0  0  0  0
  -26.7064  -13.2580  144.9283 C   0  0  0  0  0  0  0  0  0  0  0  0
  -26.4571  -13.3187  143.6854 C   0  0  0  0  0  0  0  0  0  0  0  0
  -26.9646  -11.9742  145.5489 C   0  0  0  0  0  0  0  0  0  0  0  0
  -26.9618  -10.7677  144.8925 C   0  0  0  0  0  0  0  0  0  0  0  0
  -25.8917  -14.3756  142.9883 C   0  0  0  0  0  0  0  0  0  0  0  0
  -27.5958  -10.7309  143.6258 C   0  0  0  0  0  0  0  0  0  0  0  0
  -28.8722  -10.1712  143.6650 C   0  0  0  0  0  0  0  0  0  0  0  0
  -29.2773   -9.3510  142.9126 C   0  0  0  0  0  0  0  0  0  0  0  0
  -30.6482   -8.7500  142.9977 C   0  0  0  0  0  0  0  0  0  0  0  0
  -31.3186   -9.0255  144.1402 N   0  0  0  0  0  0  0  0  0  0  0  0
  -31.4148   -7.5856  141.6954 Br  0  0  0  0  0  0  0  0  0  0  0  0
  -24.0282  -17.5323  148.0534 C   0  0  0  0  0  0  0  0  0  0  0  0
  -24.7169  -17.5027  149.2415 C   0  0  0  0  0  0  0  0  0  0  0  0
  -24.0499  -17.3488  150.4953 C   0  0  0  0  0  0  0  0  0  0  0  0
  -22.6774  -17.1669  150.5594 C   0  0  0  0  0  0  0  0  0  0  0  0
  -22.0154  -16.8573  149.3064 C   0  0  0  0  0  0  0  0  0  0  0  0
  1  2  1  0
  2  3  1  0
  7  9  1  0
  9 10  2  3
  9 11  1  0
 11 12  1  0
 10 13  1  0
 12 14  1  0
 14 15  1  0
 15 16  2  3
 16 17  1  0
 17 18  1  0
 17 19  1  0
  2 20  1  0
 20 21  2  3
 21 22  1  0
 22 23  2  3
 23 24  1  0
  3  4  2  0
  4  5  1  0
  5  6  2  0
  6  7  1  0
  7  8  2  0
  8  3  1  0
M  END

$$$$
No_1258-/dssg/home/sw_qyf/PocketFlow/Model-Generation-Results/5HT2A_7WC7_rec_A_10.pdb/2024-01-01-03-54-21/
     RDKit          3D

 11 11  0  0  0  0  0  0  0  0999 V2000
  -23.1746  -16.6014  144.8668 C   0  0  0  0  0  0  0  0  0  0  0  0
  -24.0189  -16.0564  145.8445 C   0  0  0  0  0  0  0  0  0  0  0  0
  -24.4850  -14.7380  145.6359 C   0  0  0  0  0  0  0  0  0  0  0  0
  -25.2717  -14.0560  146.5949 C   0  0  0  0  0  0  0  0  0  0  0  0
  -25.5669  -12.6700  146.4456 C   0  0  0  0  0  0  0  0  0  0  0  0
  -26.0345  -12.2729  145.4635 C   0  0  0  0  0  0  0  0  0  0  0  0
  -26.4841  -10.8095  145.3245 C   0  0  0  0  0  0  0  0  0  0  0  0
  -27.2684  -10.3295  144.2423 C   0  0  0  0  0  0  0  0  0  0  0  0
  -27.6865  -11.2128  143.2922 C   0  0  0  0  0  0  0  0  0  0  0  0
  -27.1778  -12.6060  143.3789 C   0  0  0  0  0  0  0  0  0  0  0  0
  -26.4522  -13.0878  144.4635 C   0  0  0  0  0  0  0  0  0  0  0  0
  1  2  1  0
  2  3  1  0
  3  4  1  0
  4  5  2  3
  5  6  1  0
  6  7  1  0
  7  8  1  0
  8  9  1  0
  9 10  3  0
  6 11  1  0
 10 11  1  0
M  END

$$$$
No_1259-/dssg/home/sw_qyf/PocketFlow/Model-Generation-Results/5HT2A_7WC7_rec_A_10.pdb/2024-01-01-03-54-21/
     RDKit          3D

 12 13  0  0  0  0  0  0  0  0999 V2000
  -23.8998  -17.8495  145.5131 N   0  0  0  0  0  0  0  0  0  0  0  0
  -24.2949  -16.6890  145.5199 C   0  0  0  0  0  0  0  0  0  0  0  0
  -24.1189  -15.7572  144.5004 C   0  0  0  0  0  0  0  0  0  0  0  0
  -24.6672  -14.4875  144.6833 C   0  0  0  0  0  0  0  0  0  0  0  0
  -25.4730  -14.1618  145.7108 C   0  0  0  0  0  0  0  0  0  0  0  0
  -25.6711  -15.0859  146.7368 C   0  0  0  0  0  0  0  0  0  0  0  0
  -25.0411  -16.3353  146.6794 C   0  0  0  0  0  0  0  0  0  0  0  0
  -24.0093  -18.8191  146.4185 C   0  0  0  0  0  0  0  0  0  0  0  0
  -24.6142  -18.5129  147.5694 N   0  0  0  0  0  0  0  0  0  0  0  0
  -25.1448  -17.2882  147.7773 C   0  0  0  0  0  0  0  0  0  0  0  0
  -25.7189  -16.9995  148.9301 O   0  0  0  0  0  0  0  0  0  0  0  0
  -24.2392  -13.5955  143.7457 O   0  0  0  0  0  0  0  0  0  0  0  0
  1  2  1  0
  1  8  1  0
  7 10  1  0
  9 10  1  0
 10 11  2  0
  4 12  1  0
  8  9  1  0
  2  3  2  0
  3  4  1  0
  4  5  2  0
  5  6  1  0
  6  7  2  0
  7  2  1  0
M  END

$$$$
No_1260-/dssg/home/sw_qyf/PocketFlow/Model-Generation-Results/5HT2A_7WC7_rec_A_10.pdb/2024-01-01-03-54-21/
     RDKit          3D

 19 20  0  0  0  0  0  0  0  0999 V2000
  -23.1746  -16.6014  144.8668 C   0  0  0  0  0  0  0  0  0  0  0  0
  -23.7011  -17.0158  145.9774 C   0  0  0  0  0  0  0  0  0  0  0  0
  -24.2134  -16.0722  146.8877 C   0  0  0  0  0  0  0  0  0  0  0  0
  -24.7882  -16.3410  148.2078 C   0  0  0  0  0  0  0  0  0  0  0  0
  -23.5800  -15.2232  144.4665 C   0  0  0  0  0  0  0  0  0  0  0  0
  -24.1905  -14.2896  145.4085 C   0  0  0  0  0  0  0  0  0  0  0  0
  -24.3638  -12.9400  145.0569 C   0  0  0  0  0  0  0  0  0  0  0  0
  -24.5162  -14.7449  146.5781 C   0  0  0  0  0  0  0  0  0  0  0  0
  -25.3256  -12.1668  145.6353 C   0  0  0  0  0  0  0  0  0  0  0  0
  -25.7198  -10.8695  145.2575 C   0  0  0  0  0  0  0  0  0  0  0  0
  -26.9224  -10.7755  144.5246 C   0  0  0  0  0  0  0  0  0  0  0  0
  -28.0633  -11.2590  145.1128 C   0  0  0  0  0  0  0  0  0  0  0  0
  -27.8837  -12.2305  146.2009 C   0  0  0  0  0  0  0  0  0  0  0  0
  -26.5104  -12.8063  146.2779 C   0  0  0  0  0  0  0  0  0  0  0  0
  -29.4116  -10.7356  144.9099 C   0  0  0  0  0  0  0  0  0  0  0  0
  -30.2343  -10.7708  145.9292 O   0  0  0  0  0  0  0  0  0  0  0  0
  -29.8427  -10.3289  143.8175 O   0  0  0  0  0  0  0  0  0  0  0  0
  -25.0390  -17.7056  148.5823 C   0  0  0  0  0  0  0  0  0  0  0  0
  -25.4560  -17.7948  150.0470 C   0  0  0  0  0  0  0  0  0  0  0  0
  3  4  1  0
  6  7  1  0
 12 15  1  0
 15 16  1  0
 15 17  2  0
  4 18  2  3
 18 19  1  0
  7  9  1  0
  9 10  2  0
 10 11  1  0
 11 12  2  0
 12 13  1  0
 13 14  2  0
 14  9  1  0
  1  2  2  0
  2  3  1  0
  3  8  2  0
  8  6  1  0
  6  5  2  0
  5  1  1  0
M  END

$$$$
No_1261-/dssg/home/sw_qyf/PocketFlow/Model-Generation-Results/5HT2A_7WC7_rec_A_10.pdb/2024-01-01-03-54-21/
     RDKit          3D

 35 35  0  0  0  0  0  0  0  0999 V2000
  -23.1746  -16.6014  144.8668 C   0  0  0  0  0  0  0  0  0  0  0  0
  -23.7011  -17.0158  145.9774 C   0  0  0  0  0  0  0  0  0  0  0  0
  -23.7336  -18.2775  146.3737 C   0  0  0  0  0  0  0  0  0  0  0  0
  -23.8112  -15.3695  144.2738 C   0  0  0  0  0  0  0  0  0  0  0  0
  -23.1412  -14.0561  144.6259 C   0  0  0  0  0  0  0  0  0  0  0  0
  -24.0300  -13.0828  145.3764 C   0  0  0  0  0  0  0  0  0  0  0  0
  -24.6095  -13.5487  146.4993 C   0  0  0  0  0  0  0  0  0  0  0  0
  -23.4027  -19.4134  145.4226 Cl  0  0  0  0  0  0  0  0  0  0  0  0
  -25.5124  -12.6222  147.1821 C   0  0  0  0  0  0  0  0  0  0  0  0
  -25.8940  -11.4267  146.3715 C   0  0  0  0  0  0  0  0  0  0  0  0
  -25.3790  -11.1521  145.1686 C   0  0  0  0  0  0  0  0  0  0  0  0
  -24.4050  -12.0341  144.6445 C   0  0  0  0  0  0  0  0  0  0  0  0
  -25.7157  -10.0694  144.5229 F   0  0  0  0  0  0  0  0  0  0  0  0
  -24.4929  -18.5541  147.4908 O   0  0  0  0  0  0  0  0  0  0  0  0
  -22.1488  -13.6301  143.9864 O   0  0  0  0  0  0  0  0  0  0  0  0
  -24.6754  -17.5280  148.4393 C   0  0  0  0  0  0  0  0  0  0  0  0
  -25.2715  -17.8241  149.5943 C   0  0  0  0  0  0  0  0  0  0  0  0
  -24.5379  -17.1026  150.6895 C   0  0  0  0  0  0  0  0  0  0  0  0
  -25.0278  -16.5143  151.4830 O   0  0  0  0  0  0  0  0  0  0  0  0
  -23.2070  -17.3822  150.7417 O   0  0  0  0  0  0  0  0  0  0  0  0
  -26.6234  -17.4231  149.8020 O   0  0  0  0  0  0  0  0  0  0  0  0
  -24.8900  -15.4773  143.6353 O   0  0  0  0  0  0  0  0  0  0  0  0
  -22.2487  -16.4295  151.1326 C   0  0  0  0  0  0  0  0  0  0  0  0
  -26.0792  -14.8217  144.0867 C   0  0  0  0  0  0  0  0  0  0  0  0
  -26.7909  -14.0958  143.2885 C   0  0  0  0  0  0  0  0  0  0  0  0
  -27.8346  -13.1849  143.8835 C   0  0  0  0  0  0  0  0  0  0  0  0
  -28.1952  -11.9663  143.2444 C   0  0  0  0  0  0  0  0  0  0  0  0
  -28.9574  -10.9907  143.9420 C   0  0  0  0  0  0  0  0  0  0  0  0
  -29.3834   -9.8104  143.3604 C   0  0  0  0  0  0  0  0  0  0  0  0
  -29.6049   -9.6238  142.3943 C   0  0  0  0  0  0  0  0  0  0  0  0
  -30.0910   -8.4050  141.6991 C   0  0  0  0  0  0  0  0  0  0  0  0
  -30.3715   -7.3533  142.6672 C   0  0  0  0  0  0  0  0  0  0  0  0
  -30.2095   -6.0408  142.3133 C   0  0  0  0  0  0  0  0  0  0  0  0
  -29.2970   -5.7832  141.1851 C   0  0  0  0  0  0  0  0  0  0  0  0
  -29.2665   -6.7905  140.2090 C   0  0  0  0  0  0  0  0  0  0  0  0
  1  2  1  0
  2  3  1  0
  1  4  1  0
  4  5  1  0
  5  6  1  0
  3  8  1  0
 11 13  1  0
  3 14  1  0
  5 15  2  0
 14 16  1  0
 16 17  1  0
 17 18  1  0
 18 19  2  0
 18 20  1  0
 17 21  1  0
  4 22  1  0
 20 23  1  0
 22 24  1  0
 24 25  2  3
 25 26  1  0
 26 27  1  0
 27 28  2  3
 28 29  1  0
 29 30  2  3
 30 31  1  0
 31 32  2  3
 32 33  1  0
 33 34  2  3
 34 35  1  0
  6  7  2  0
  7  9  1  0
  9 10  2  0
 10 11  1  0
 11 12  2  0
 12  6  1  0
M  END

$$$$
No_1262-/dssg/home/sw_qyf/PocketFlow/Model-Generation-Results/5HT2A_7WC7_rec_A_10.pdb/2024-01-01-03-54-21/
     RDKit          3D

 27 31  0  0  0  0  0  0  0  0999 V2000
  -24.1553  -17.8465  145.7021 C   0  0  0  0  0  0  0  0  0  0  0  0
  -24.6364  -17.2931  146.7091 C   0  0  0  0  0  0  0  0  0  0  0  0
  -25.8608  -16.5592  146.5934 C   0  0  0  0  0  0  0  0  0  0  0  0
  -25.9088  -15.1597  146.9911 C   0  0  0  0  0  0  0  0  0  0  0  0
  -26.8304  -14.2303  146.5024 C   0  0  0  0  0  0  0  0  0  0  0  0
  -28.1334  -14.3679  146.9858 C   0  0  0  0  0  0  0  0  0  0  0  0
  -29.0462  -13.3065  146.8635 C   0  0  0  0  0  0  0  0  0  0  0  0
  -28.6236  -12.1709  146.0898 C   0  0  0  0  0  0  0  0  0  0  0  0
  -29.5580  -11.0943  145.8188 C   0  0  0  0  0  0  0  0  0  0  0  0
  -29.2591  -10.1905  144.7454 C   0  0  0  0  0  0  0  0  0  0  0  0
  -30.2497   -9.3774  144.2404 C   0  0  0  0  0  0  0  0  0  0  0  0
  -29.9731   -8.5874  143.1067 C   0  0  0  0  0  0  0  0  0  0  0  0
  -30.8182   -8.6287  142.0439 C   0  0  0  0  0  0  0  0  0  0  0  0
  -27.3251  -12.1575  145.5798 C   0  0  0  0  0  0  0  0  0  0  0  0
  -26.7845  -11.0013  144.9432 C   0  0  0  0  0  0  0  0  0  0  0  0
  -27.8751  -10.0781  144.4125 C   0  0  0  0  0  0  0  0  0  0  0  0
  -26.3942  -13.2066  145.8919 C   0  0  0  0  0  0  0  0  0  0  0  0
  -30.4354   -7.9391  140.8825 N   0  0  0  0  0  0  0  0  0  0  0  0
  -29.5850   -6.9726  141.1535 C   0  0  0  0  0  0  0  0  0  0  0  0
  -29.0820   -7.4738  142.8214 C   0  0  0  0  0  0  0  0  0  0  0  0
  -23.9400  -16.8661  144.5735 C   0  0  0  0  0  0  0  0  0  0  0  0
  -23.6129  -15.5028  145.2113 C   0  0  0  0  0  0  0  0  0  0  0  0
  -24.6495  -14.9261  146.0551 C   0  0  0  0  0  0  0  0  0  0  0  0
  -25.1442  -13.4402  145.2929 C   0  0  0  0  0  0  0  0  0  0  0  0
  -30.3884  -13.3818  147.4021 C   0  0  0  0  0  0  0  0  0  0  0  0
  -30.3677  -12.9378  148.7352 O   0  0  0  0  0  0  0  0  0  0  0  0
  -24.8618  -18.4318  147.8944 C   0  0  0  0  0  0  0  0  0  0  0  0
  1  2  1  0
  2  3  1  0
  3  4  1  0
  4  5  1  0
 10 11  1  0
 11 12  1  0
 12 13  2  0
 13 18  1  0
 18 19  2  0
 12 20  1  0
 19 20  1  0
  1 21  1  0
 21 22  1  0
  4 23  1  0
 22 23  1  0
 17 24  1  0
 23 24  1  0
  7 25  1  0
 25 26  1  0
  2 27  1  0
  5  6  2  0
  6  7  1  0
  7  8  2  0
 14 17  2  0
 17  5  1  0
  8  9  1  0
  9 10  2  0
 10 16  1  0
 16 15  2  0
 15 14  1  0
 14  8  1  0
M  END

$$$$
No_1263-/dssg/home/sw_qyf/PocketFlow/Model-Generation-Results/5HT2A_7WC7_rec_A_10.pdb/2024-01-01-03-54-21/
     RDKit          3D

 33 37  0  0  0  0  0  0  0  0999 V2000
  -24.1553  -17.8465  145.7021 C   0  0  0  0  0  0  0  0  0  0  0  0
  -24.2856  -16.6364  145.3494 C   0  0  0  0  0  0  0  0  0  0  0  0
  -25.0033  -15.6772  146.0737 C   0  0  0  0  0  0  0  0  0  0  0  0
  -24.8869  -14.2981  145.8377 C   0  0  0  0  0  0  0  0  0  0  0  0
  -24.0151  -13.8866  144.8228 C   0  0  0  0  0  0  0  0  0  0  0  0
  -24.9248  -18.3616  146.7605 C   0  0  0  0  0  0  0  0  0  0  0  0
  -23.2541  -14.8094  144.1368 C   0  0  0  0  0  0  0  0  0  0  0  0
  -23.3492  -16.1053  144.3514 C   0  0  0  0  0  0  0  0  0  0  0  0
  -25.6838  -17.4848  147.5490 C   0  0  0  0  0  0  0  0  0  0  0  0
  -25.7062  -16.1601  147.2924 C   0  0  0  0  0  0  0  0  0  0  0  0
  -25.6274  -13.2758  146.6156 C   0  0  0  0  0  0  0  0  0  0  0  0
  -25.2236  -11.8998  146.4983 C   0  0  0  0  0  0  0  0  0  0  0  0
  -26.3267  -11.0116  146.2512 C   0  0  0  0  0  0  0  0  0  0  0  0
  -27.0097  -11.0996  145.0336 C   0  0  0  0  0  0  0  0  0  0  0  0
  -27.9753  -11.9037  144.8947 C   0  0  0  0  0  0  0  0  0  0  0  0
  -29.0980  -11.5089  144.9388 C   0  0  0  0  0  0  0  0  0  0  0  0
  -29.3855  -10.2704  145.0696 C   0  0  0  0  0  0  0  0  0  0  0  0
  -29.9063   -9.7049  143.9053 C   0  0  0  0  0  0  0  0  0  0  0  0
  -30.9609   -8.8913  143.8538 N   0  0  0  0  0  0  0  0  0  0  0  0
  -31.4149   -8.3531  142.6764 C   0  0  0  0  0  0  0  0  0  0  0  0
  -29.2364   -9.8884  142.6848 C   0  0  0  0  0  0  0  0  0  0  0  0
  -29.5264   -9.1698  141.5141 C   0  0  0  0  0  0  0  0  0  0  0  0
  -30.6297   -8.3381  141.5766 C   0  0  0  0  0  0  0  0  0  0  0  0
  -28.7452   -9.3438  140.3572 C   0  0  0  0  0  0  0  0  0  0  0  0
  -28.6060   -8.3469  139.4014 C   0  0  0  0  0  0  0  0  0  0  0  0
  -27.8669  -10.4711  140.1516 C   0  0  0  0  0  0  0  0  0  0  0  0
  -27.9200   -8.5222  138.1927 C   0  0  0  0  0  0  0  0  0  0  0  0
  -27.7695  -11.5236  140.8800 C   0  0  0  0  0  0  0  0  0  0  0  0
  -27.0773  -12.7038  140.5287 C   0  0  0  0  0  0  0  0  0  0  0  0
  -26.4217  -12.7323  139.3875 C   0  0  0  0  0  0  0  0  0  0  0  0
  -26.5108  -11.5487  138.5300 C   0  0  0  0  0  0  0  0  0  0  0  0
  -27.3034  -10.5460  139.1252 C   0  0  0  0  0  0  0  0  0  0  0  0
  -27.2667   -9.6208  138.0713 N   0  0  0  0  0  0  0  0  0  0  0  0
  4 11  1  0
 11 12  1  0
 12 13  1  0
 13 14  1  0
 14 15  2  3
 15 16  1  0
 16 17  2  3
 17 18  1  0
 22 24  1  0
  3  4  1  0
  4  5  2  0
  5  7  1  0
  7  8  2  0
  8  2  1  0
  1  2  2  0
  2  3  1  0
  3 10  2  0
 10  9  1  0
  9  6  2  0
  6  1  1  0
 26 28  2  0
 28 29  1  0
 29 30  2  0
 30 31  1  0
 31 32  2  0
 24 25  2  0
 25 27  1  0
 27 33  2  0
 33 32  1  0
 32 26  1  0
 26 24  1  0
 18 19  2  0
 19 20  1  0
 20 23  2  0
 23 22  1  0
 22 21  2  0
 21 18  1  0
M  END

$$$$
No_1264-/dssg/home/sw_qyf/PocketFlow/Model-Generation-Results/5HT2A_7WC7_rec_A_10.pdb/2024-01-01-03-54-21/
     RDKit          3D

 35 38  0  0  0  0  0  0  0  0999 V2000
  -23.1746  -16.6014  144.8668 C   0  0  0  0  0  0  0  0  0  0  0  0
  -24.0189  -16.0564  145.8445 C   0  0  0  0  0  0  0  0  0  0  0  0
  -24.4850  -14.7380  145.6359 C   0  0  0  0  0  0  0  0  0  0  0  0
  -24.0244  -13.9858  144.5634 C   0  0  0  0  0  0  0  0  0  0  0  0
  -24.3992  -12.5948  144.5045 C   0  0  0  0  0  0  0  0  0  0  0  0
  -25.4334  -12.1513  145.4172 C   0  0  0  0  0  0  0  0  0  0  0  0
  -25.9695  -12.9496  146.4484 C   0  0  0  0  0  0  0  0  0  0  0  0
  -25.4950  -14.2751  146.5477 C   0  0  0  0  0  0  0  0  0  0  0  0
  -24.3764  -16.8128  146.9819 C   0  0  0  0  0  0  0  0  0  0  0  0
  -24.9752  -16.5992  147.9708 C   0  0  0  0  0  0  0  0  0  0  0  0
  -25.7868  -15.1776  147.8763 C   0  0  0  0  0  0  0  0  0  0  0  0
  -26.4945  -11.3825  144.6958 C   0  0  0  0  0  0  0  0  0  0  0  0
  -27.8312  -11.5730  145.0982 C   0  0  0  0  0  0  0  0  0  0  0  0
  -28.3901  -12.4885  145.9673 C   0  0  0  0  0  0  0  0  0  0  0  0
  -29.7904  -12.5782  146.3746 C   0  0  0  0  0  0  0  0  0  0  0  0
  -30.0642  -13.5930  147.3809 C   0  0  0  0  0  0  0  0  0  0  0  0
  -29.4616  -14.8393  147.1780 C   0  0  0  0  0  0  0  0  0  0  0  0
  -28.2262  -15.0222  146.5188 C   0  0  0  0  0  0  0  0  0  0  0  0
  -27.7632  -13.8708  145.7211 C   0  0  0  0  0  0  0  0  0  0  0  0
  -28.7891  -10.6570  144.4379 C   0  0  0  0  0  0  0  0  0  0  0  0
  -28.4702   -9.7706  143.4316 C   0  0  0  0  0  0  0  0  0  0  0  0
  -29.4524   -8.8994  142.9673 C   0  0  0  0  0  0  0  0  0  0  0  0
  -29.1242   -7.9840  141.9191 C   0  0  0  0  0  0  0  0  0  0  0  0
  -29.6087   -6.6611  141.8422 C   0  0  0  0  0  0  0  0  0  0  0  0
  -29.0244   -5.8137  140.8863 C   0  0  0  0  0  0  0  0  0  0  0  0
  -28.7901   -6.4117  139.6086 C   0  0  0  0  0  0  0  0  0  0  0  0
  -28.6464   -7.7883  139.5492 C   0  0  0  0  0  0  0  0  0  0  0  0
  -28.8907   -8.6309  140.6899 C   0  0  0  0  0  0  0  0  0  0  0  0
  -28.2206   -8.4260  138.3090 C   0  0  0  0  0  0  0  0  0  0  0  0
  -30.7874   -8.9553  143.5246 C   0  0  0  0  0  0  0  0  0  0  0  0
  -31.8462   -9.1095  142.8807 O   0  0  0  0  0  0  0  0  0  0  0  0
  -28.7420   -8.9414  137.6004 N   0  0  0  0  0  0  0  0  0  0  0  0
  -25.4029  -17.2499  149.1768 C   0  0  0  0  0  0  0  0  0  0  0  0
  -24.3804  -17.8192  149.6402 F   0  0  0  0  0  0  0  0  0  0  0  0
  -25.8108  -16.3218  150.1629 F   0  0  0  0  0  0  0  0  0  0  0  0
  1  2  1  0
  6 12  1  0
 12 13  1  0
 13 14  1  0
 13 20  1  0
 20 21  2  3
 21 22  1  0
 22 23  1  0
 27 29  1  0
 22 30  1  0
 30 31  2  0
 29 32  1  0
 10 33  1  0
 33 34  1  0
 33 35  1  0
 14 15  2  0
 15 16  1  0
 16 17  2  0
 17 18  1  0
 18 19  2  0
 19 14  1  0
  2  3  2  0
  8 11  2  0
 11 10  1  0
 10  9  2  0
  9  2  1  0
  3  4  1  0
  4  5  2  0
  5  6  1  0
  6  7  2  0
  7  8  1  0
  8  3  1  0
 23 24  2  0
 24 25  1  0
 25 26  2  0
 26 27  1  0
 27 28  2  0
 28 23  1  0
M  END

$$$$
No_1265-/dssg/home/sw_qyf/PocketFlow/Model-Generation-Results/5HT2A_7WC7_rec_A_10.pdb/2024-01-01-03-54-21/
     RDKit          3D

 35 37  0  0  0  0  0  0  0  0999 V2000
  -23.1746  -16.6014  144.8668 C   0  0  0  0  0  0  0  0  0  0  0  0
  -23.7011  -17.0158  145.9774 C   0  0  0  0  0  0  0  0  0  0  0  0
  -24.2134  -16.0722  146.8877 C   0  0  0  0  0  0  0  0  0  0  0  0
  -24.7882  -16.3410  148.2078 C   0  0  0  0  0  0  0  0  0  0  0  0
  -24.0016  -15.4255  144.3215 C   0  0  0  0  0  0  0  0  0  0  0  0
  -24.7971  -14.5766  145.2297 C   0  0  0  0  0  0  0  0  0  0  0  0
  -25.4045  -13.3666  144.7383 C   0  0  0  0  0  0  0  0  0  0  0  0
  -25.4807  -12.3938  145.6315 C   0  0  0  0  0  0  0  0  0  0  0  0
  -24.7687  -14.8491  146.4576 C   0  0  0  0  0  0  0  0  0  0  0  0
  -26.5685  -11.4507  145.5267 C   0  0  0  0  0  0  0  0  0  0  0  0
  -27.2472  -11.2354  144.4011 C   0  0  0  0  0  0  0  0  0  0  0  0
  -28.5078  -11.2863  144.4805 C   0  0  0  0  0  0  0  0  0  0  0  0
  -29.2143  -11.4427  145.7551 C   0  0  0  0  0  0  0  0  0  0  0  0
  -28.6528  -12.0992  146.8523 C   0  0  0  0  0  0  0  0  0  0  0  0
  -27.1956  -11.9306  146.8427 N   0  0  0  0  0  0  0  0  0  0  0  0
  -29.3847  -10.8695  143.3218 C   0  0  0  0  0  0  0  0  0  0  0  0
  -28.7007  -10.6869  142.1128 C   0  0  0  0  0  0  0  0  0  0  0  0
  -28.9725   -9.5531  141.3687 C   0  0  0  0  0  0  0  0  0  0  0  0
  -28.4365   -9.3973  140.0218 C   0  0  0  0  0  0  0  0  0  0  0  0
  -27.5912  -10.4265  139.5146 C   0  0  0  0  0  0  0  0  0  0  0  0
  -27.4161  -11.6008  140.3399 C   0  0  0  0  0  0  0  0  0  0  0  0
  -27.9954  -11.7455  141.5544 C   0  0  0  0  0  0  0  0  0  0  0  0
  -26.6233  -12.6832  139.7129 C   0  0  0  0  0  0  0  0  0  0  0  0
  -26.3022  -13.6228  140.3876 O   0  0  0  0  0  0  0  0  0  0  0  0
  -28.6438   -8.1739  139.2789 C   0  0  0  0  0  0  0  0  0  0  0  0
  -28.0054   -8.0317  138.2637 F   0  0  0  0  0  0  0  0  0  0  0  0
  -28.4693   -6.9885  140.0926 F   0  0  0  0  0  0  0  0  0  0  0  0
  -24.0631  -17.3017  149.0124 C   0  0  0  0  0  0  0  0  0  0  0  0
  -22.7308  -16.9148  149.3591 C   0  0  0  0  0  0  0  0  0  0  0  0
  -30.0056   -7.9506  139.1416 F   0  0  0  0  0  0  0  0  0  0  0  0
  -26.2804  -12.5404  138.5207 O   0  0  0  0  0  0  0  0  0  0  0  0
  -29.1758  -13.2403  147.8212 Cl  0  0  0  0  0  0  0  0  0  0  0  0
  -22.4606  -15.6597  149.8033 C   0  0  0  0  0  0  0  0  0  0  0  0
  -22.8483  -15.7290  151.0678 O   0  0  0  0  0  0  0  0  0  0  0  0
  -30.4587  -10.1780  143.5735 O   0  0  0  0  0  0  0  0  0  0  0  0
  1  2  1  0
  2  3  1  0
  3  4  1  0
  1  5  1  0
  5  6  1  0
  6  7  1  0
  7  8  2  3
  3  9  1  0
  6  9  1  0
  8 10  1  0
 10 11  1  0
 11 12  1  0
 12 13  1  0
 13 14  1  0
 10 15  1  0
 14 15  1  0
 12 16  1  0
 16 17  1  0
 21 23  1  0
 23 24  1  0
 19 25  1  0
 25 26  1  0
 25 27  1  0
  4 28  1  0
 28 29  1  0
 25 30  1  0
 23 31  2  0
 14 32  1  0
 29 33  1  0
 33 34  2  0
 16 35  1  0
 17 18  2  0
 18 19  1  0
 19 20  2  0
 20 21  1  0
 21 22  2  0
 22 17  1  0
M  END

$$$$
No_1266-/dssg/home/sw_qyf/PocketFlow/Model-Generation-Results/5HT2A_7WC7_rec_A_10.pdb/2024-01-01-03-54-21/
     RDKit          3D

 19 20  0  0  0  0  0  0  0  0999 V2000
  -24.1553  -17.8465  145.7021 C   0  0  0  0  0  0  0  0  0  0  0  0
  -23.9795  -18.4462  146.7426 C   0  0  0  0  0  0  0  0  0  0  0  0
  -25.1196  -16.8106  145.6408 C   0  0  0  0  0  0  0  0  0  0  0  0
  -25.9237  -16.5070  146.7422 C   0  0  0  0  0  0  0  0  0  0  0  0
  -26.9537  -15.5312  146.7010 C   0  0  0  0  0  0  0  0  0  0  0  0
  -27.8401  -15.4424  147.7620 C   0  0  0  0  0  0  0  0  0  0  0  0
  -24.6529  -18.1918  147.9641 C   0  0  0  0  0  0  0  0  0  0  0  0
  -25.6485  -17.1582  147.9551 C   0  0  0  0  0  0  0  0  0  0  0  0
  -27.0862  -14.6526  145.6310 C   0  0  0  0  0  0  0  0  0  0  0  0
  -28.9793  -14.5536  147.6816 C   0  0  0  0  0  0  0  0  0  0  0  0
  -28.1376  -13.6401  145.6314 C   0  0  0  0  0  0  0  0  0  0  0  0
  -29.0240  -13.5517  146.7413 C   0  0  0  0  0  0  0  0  0  0  0  0
  -30.0547  -12.4859  146.7754 C   0  0  0  0  0  0  0  0  0  0  0  0
  -30.1416  -11.8736  145.6417 F   0  0  0  0  0  0  0  0  0  0  0  0
  -31.2348  -12.8460  147.2020 F   0  0  0  0  0  0  0  0  0  0  0  0
  -29.4977  -11.4941  147.6757 F   0  0  0  0  0  0  0  0  0  0  0  0
  -25.2036  -16.0527  144.5186 O   0  0  0  0  0  0  0  0  0  0  0  0
  -25.0996  -14.6492  144.7253 C   0  0  0  0  0  0  0  0  0  0  0  0
  -24.0591  -13.9153  143.8627 C   0  0  0  0  0  0  0  0  0  0  0  0
  4  5  1  0
 12 13  1  0
 13 14  1  0
 13 15  1  0
 13 16  1  0
  3 17  1  0
 17 18  1  0
 18 19  1  0
  5  6  2  0
  6 10  1  0
 10 12  2  0
 12 11  1  0
 11  9  2  0
  9  5  1  0
  1  2  2  0
  2  7  1  0
  7  8  2  0
  8  4  1  0
  4  3  2  0
  3  1  1  0
M  END

$$$$
No_1267-/dssg/home/sw_qyf/PocketFlow/Model-Generation-Results/5HT2A_7WC7_rec_A_10.pdb/2024-01-01-03-54-21/
     RDKit          3D

 11 11  0  0  0  0  0  0  0  0999 V2000
  -23.1746  -16.6014  144.8668 C   0  0  0  0  0  0  0  0  0  0  0  0
  -23.7011  -17.0158  145.9774 C   0  0  0  0  0  0  0  0  0  0  0  0
  -24.2593  -16.1244  146.9100 C   0  0  0  0  0  0  0  0  0  0  0  0
  -24.5135  -14.7390  146.5020 C   0  0  0  0  0  0  0  0  0  0  0  0
  -24.1060  -14.3555  145.2328 C   0  0  0  0  0  0  0  0  0  0  0  0
  -24.2836  -12.9909  144.8285 C   0  0  0  0  0  0  0  0  0  0  0  0
  -23.4337  -15.2559  144.4548 C   0  0  0  0  0  0  0  0  0  0  0  0
  -23.9255  -12.3745  145.7002 F   0  0  0  0  0  0  0  0  0  0  0  0
  -25.5936  -12.8258  144.6527 F   0  0  0  0  0  0  0  0  0  0  0  0
  -23.5516  -18.3288  146.4756 N   0  0  0  0  0  0  0  0  0  0  0  0
  -22.6369  -18.8511  146.7852 O   0  0  0  0  0  0  0  0  0  0  0  0
  5  6  1  0
  6  8  1  0
  6  9  1  0
  2 10  1  0
 10 11  2  0
  1  2  2  0
  2  3  1  0
  3  4  2  0
  4  5  1  0
  5  7  2  0
  7  1  1  0
M  END

$$$$
No_1268-/dssg/home/sw_qyf/PocketFlow/Model-Generation-Results/5HT2A_7WC7_rec_A_10.pdb/2024-01-01-03-54-21/
     RDKit          3D

 17 19  0  0  0  0  0  0  0  0999 V2000
  -23.8998  -17.8495  145.5131 N   0  0  0  0  0  0  0  0  0  0  0  0
  -24.2949  -16.6890  145.5199 C   0  0  0  0  0  0  0  0  0  0  0  0
  -24.1189  -15.7572  144.5004 C   0  0  0  0  0  0  0  0  0  0  0  0
  -24.5682  -14.4396  144.6345 C   0  0  0  0  0  0  0  0  0  0  0  0
  -25.2957  -13.9949  145.6758 C   0  0  0  0  0  0  0  0  0  0  0  0
  -25.5364  -14.9537  146.7068 C   0  0  0  0  0  0  0  0  0  0  0  0
  -25.0215  -16.2353  146.6633 C   0  0  0  0  0  0  0  0  0  0  0  0
  -23.8794  -18.7386  146.5376 C   0  0  0  0  0  0  0  0  0  0  0  0
  -24.5066  -18.3314  147.7070 N   0  0  0  0  0  0  0  0  0  0  0  0
  -25.0098  -17.1078  147.8550 C   0  0  0  0  0  0  0  0  0  0  0  0
  -25.5512  -16.7927  149.0325 N   0  0  0  0  0  0  0  0  0  0  0  0
  -25.7455  -12.6124  145.8280 C   0  0  0  0  0  0  0  0  0  0  0  0
  -25.4610  -11.6750  144.9550 C   0  0  0  0  0  0  0  0  0  0  0  0
  -26.2800  -10.6462  144.6516 C   0  0  0  0  0  0  0  0  0  0  0  0
  -27.7445  -10.8207  144.6747 C   0  0  0  0  0  0  0  0  0  0  0  0
  -28.2400  -11.4345  145.8731 C   0  0  0  0  0  0  0  0  0  0  0  0
  -27.4370  -12.2268  146.6363 C   0  0  0  0  0  0  0  0  0  0  0  0
 10 11  1  0
  5 12  1  0
 12 13  2  0
 13 14  1  0
 14 15  2  0
 15 16  1  0
 16 17  2  0
 17 12  1  0
  2  3  1  0
  3  4  2  0
  4  5  1  0
  5  6  2  0
  6  7  1  0
  1  2  2  0
  2  7  1  0
  7 10  2  0
 10  9  1  0
  9  8  2  0
  8  1  1  0
M  END

$$$$
No_1269-/dssg/home/sw_qyf/PocketFlow/Model-Generation-Results/5HT2A_7WC7_rec_A_10.pdb/2024-01-01-03-54-21/
     RDKit          3D

 21 22  0  0  0  0  0  0  0  0999 V2000
  -24.1553  -17.8465  145.7021 C   0  0  0  0  0  0  0  0  0  0  0  0
  -24.2856  -16.6364  145.3494 C   0  0  0  0  0  0  0  0  0  0  0  0
  -24.7838  -15.7223  145.8474 C   0  0  0  0  0  0  0  0  0  0  0  0
  -25.6063  -15.9757  147.0425 C   0  0  0  0  0  0  0  0  0  0  0  0
  -24.8560  -18.2319  146.8940 C   0  0  0  0  0  0  0  0  0  0  0  0
  -25.5371  -17.2345  147.6143 C   0  0  0  0  0  0  0  0  0  0  0  0
  -24.9394  -14.2217  145.4239 C   0  0  0  0  0  0  0  0  0  0  0  0
  -24.8149  -13.3579  146.3562 C   0  0  0  0  0  0  0  0  0  0  0  0
  -24.7834  -11.9414  146.0992 C   0  0  0  0  0  0  0  0  0  0  0  0
  -24.2718  -14.0460  144.2841 C   0  0  0  0  0  0  0  0  0  0  0  0
  -24.3630  -11.6102  144.8237 C   0  0  0  0  0  0  0  0  0  0  0  0
  -23.8860  -12.7873  144.0378 C   0  0  0  0  0  0  0  0  0  0  0  0
  -23.6970  -16.3126  144.0452 O   0  0  0  0  0  0  0  0  0  0  0  0
  -23.4576  -14.6940  143.7884 Br  0  0  0  0  0  0  0  0  0  0  0  0
  -23.1808  -17.0989  143.3882 F   0  0  0  0  0  0  0  0  0  0  0  0
  -25.3063  -11.0143  146.9166 O   0  0  0  0  0  0  0  0  0  0  0  0
  -26.2391  -17.5134  148.9109 C   0  0  0  0  0  0  0  0  0  0  0  0
  -27.4262  -17.3207  149.1053 O   0  0  0  0  0  0  0  0  0  0  0  0
  -25.4782  -17.7854  150.0287 O   0  0  0  0  0  0  0  0  0  0  0  0
  -28.1284  -16.6174  148.1443 C   0  0  0  0  0  0  0  0  0  0  0  0
  -29.2197  -15.8069  148.6891 C   0  0  0  0  0  0  0  0  0  0  0  0
  3  7  1  0
  2 13  1  0
 10 14  1  0
 13 15  1  0
  9 16  1  0
  6 17  1  0
 17 18  1  0
 17 19  2  0
 18 20  1  0
 20 21  3  0
  1  2  2  0
  2  3  1  0
  3  4  2  0
  4  6  1  0
  6  5  2  0
  5  1  1  0
  7  8  2  0
  8  9  1  0
  9 11  2  0
 11 12  1  0
 12 10  2  0
 10  7  1  0
M  END

$$$$
No_1270-/dssg/home/sw_qyf/PocketFlow/Model-Generation-Results/5HT2A_7WC7_rec_A_10.pdb/2024-01-01-03-54-21/
     RDKit          3D

 22 24  0  0  0  0  0  0  0  0999 V2000
  -24.1553  -17.8465  145.7021 C   0  0  0  0  0  0  0  0  0  0  0  0
  -23.9795  -18.4462  146.7426 C   0  0  0  0  0  0  0  0  0  0  0  0
  -25.1196  -16.8106  145.6408 C   0  0  0  0  0  0  0  0  0  0  0  0
  -25.2440  -15.8776  144.5240 C   0  0  0  0  0  0  0  0  0  0  0  0
  -25.1544  -14.5048  144.8371 C   0  0  0  0  0  0  0  0  0  0  0  0
  -24.3153  -13.6969  144.0900 C   0  0  0  0  0  0  0  0  0  0  0  0
  -24.5831  -18.1138  147.9899 C   0  0  0  0  0  0  0  0  0  0  0  0
  -25.4804  -17.0317  148.0271 C   0  0  0  0  0  0  0  0  0  0  0  0
  -25.6368  -16.2590  146.8813 C   0  0  0  0  0  0  0  0  0  0  0  0
  -23.3129  -13.0863  144.9638 C   0  0  0  0  0  0  0  0  0  0  0  0
  -22.3791  -12.1187  144.3993 C   0  0  0  0  0  0  0  0  0  0  0  0
  -26.2849  -15.0000  146.9284 C   0  0  0  0  0  0  0  0  0  0  0  0
  -25.9183  -14.0433  146.0136 C   0  0  0  0  0  0  0  0  0  0  0  0
  -25.5156  -16.4236  149.2773 O   0  0  0  0  0  0  0  0  0  0  0  0
  -26.1222  -12.6005  146.2294 C   0  0  0  0  0  0  0  0  0  0  0  0
  -27.5280  -12.1734  146.2227 C   0  0  0  0  0  0  0  0  0  0  0  0
  -28.4075  -12.6393  147.0637 C   0  0  0  0  0  0  0  0  0  0  0  0
  -29.7527  -12.1502  147.0799 C   0  0  0  0  0  0  0  0  0  0  0  0
  -30.6382  -12.5972  147.9968 F   0  0  0  0  0  0  0  0  0  0  0  0
  -30.1135  -11.1098  146.2109 C   0  0  0  0  0  0  0  0  0  0  0  0
  -29.1758  -10.6175  145.3139 C   0  0  0  0  0  0  0  0  0  0  0  0
  -27.8483  -11.1412  145.3242 C   0  0  0  0  0  0  0  0  0  0  0  0
  3  4  1  0
  4  5  1  0
  5  6  2  3
  6 10  1  0
 10 11  1  0
  9 12  1  0
  5 13  1  0
 12 13  1  0
  8 14  1  0
 13 15  1  0
 15 16  1  0
 18 19  1  0
 16 17  2  0
 17 18  1  0
 18 20  2  0
 20 21  1  0
 21 22  2  0
 22 16  1  0
  1  2  2  0
  2  7  1  0
  7  8  2  0
  8  9  1  0
  9  3  2  0
  3  1  1  0
M  END

$$$$
No_1271-/dssg/home/sw_qyf/PocketFlow/Model-Generation-Results/5HT2A_7WC7_rec_A_10.pdb/2024-01-01-03-54-21/
     RDKit          3D

 23 25  0  0  0  0  0  0  0  0999 V2000
  -23.1746  -16.6014  144.8668 C   0  0  0  0  0  0  0  0  0  0  0  0
  -23.7011  -17.0158  145.9774 C   0  0  0  0  0  0  0  0  0  0  0  0
  -24.7096  -16.6222  146.3577 C   0  0  0  0  0  0  0  0  0  0  0  0
  -25.2589  -16.9410  147.8027 C   0  0  0  0  0  0  0  0  0  0  0  0
  -26.4623  -16.4173  148.3313 C   0  0  0  0  0  0  0  0  0  0  0  0
  -23.7746  -15.4747  144.2302 C   0  0  0  0  0  0  0  0  0  0  0  0
  -24.8824  -14.8618  144.8182 C   0  0  0  0  0  0  0  0  0  0  0  0
  -25.3598  -15.4040  145.9867 C   0  0  0  0  0  0  0  0  0  0  0  0
  -27.1003  -15.3469  147.6429 C   0  0  0  0  0  0  0  0  0  0  0  0
  -26.5551  -14.8104  146.5113 C   0  0  0  0  0  0  0  0  0  0  0  0
  -27.2534  -13.7110  145.8946 C   0  0  0  0  0  0  0  0  0  0  0  0
  -28.3586  -13.1167  146.4892 C   0  0  0  0  0  0  0  0  0  0  0  0
  -28.8609  -11.8512  145.9818 C   0  0  0  0  0  0  0  0  0  0  0  0
  -28.3461  -11.3075  144.8212 C   0  0  0  0  0  0  0  0  0  0  0  0
  -27.1667  -11.9469  144.2800 C   0  0  0  0  0  0  0  0  0  0  0  0
  -26.6470  -13.0143  144.8163 C   0  0  0  0  0  0  0  0  0  0  0  0
  -28.9329  -10.0865  144.2543 C   0  0  0  0  0  0  0  0  0  0  0  0
  -29.4569  -10.1425  143.0210 C   0  0  0  0  0  0  0  0  0  0  0  0
  -30.3059   -9.1187  142.5496 C   0  0  0  0  0  0  0  0  0  0  0  0
  -30.4938   -8.2885  142.0062 C   0  0  0  0  0  0  0  0  0  0  0  0
  -31.6851   -7.8818  141.6281 F   0  0  0  0  0  0  0  0  0  0  0  0
  -29.9481  -11.3663  146.6408 O   0  0  0  0  0  0  0  0  0  0  0  0
  -22.9971  -18.3238  146.5337 C   0  0  0  0  0  0  0  0  0  0  0  0
 10 11  1  0
 14 17  1  0
 17 18  1  0
 18 19  1  0
 19 20  3  0
 20 21  1  0
 13 22  1  0
  2 23  1  0
 11 12  2  0
 12 13  1  0
 13 14  2  0
 14 15  1  0
 15 16  2  0
 16 11  1  0
  1  2  2  0
  2  3  1  0
  8  7  1  0
  7  6  2  0
  6  1  1  0
  3  4  2  0
  4  5  1  0
  5  9  2  0
  9 10  1  0
 10  8  2  0
  8  3  1  0
M  END

$$$$
No_1272-/dssg/home/sw_qyf/PocketFlow/Model-Generation-Results/5HT2A_7WC7_rec_A_10.pdb/2024-01-01-03-54-21/
     RDKit          3D

 19 20  0  0  0  0  0  0  0  0999 V2000
  -24.1553  -17.8465  145.7021 C   0  0  0  0  0  0  0  0  0  0  0  0
  -24.6364  -17.2931  146.7091 C   0  0  0  0  0  0  0  0  0  0  0  0
  -25.8608  -16.5592  146.5934 C   0  0  0  0  0  0  0  0  0  0  0  0
  -25.9533  -15.5604  145.6681 C   0  0  0  0  0  0  0  0  0  0  0  0
  -27.0179  -14.6632  145.5500 C   0  0  0  0  0  0  0  0  0  0  0  0
  -27.8199  -14.2508  146.5176 C   0  0  0  0  0  0  0  0  0  0  0  0
  -28.5277  -13.0117  146.5836 C   0  0  0  0  0  0  0  0  0  0  0  0
  -29.4758  -12.5836  147.5058 C   0  0  0  0  0  0  0  0  0  0  0  0
  -23.8858  -16.7925  144.6121 C   0  0  0  0  0  0  0  0  0  0  0  0
  -24.9778  -15.8046  144.5224 C   0  0  0  0  0  0  0  0  0  0  0  0
  -28.1440  -12.0559  145.5017 C   0  0  0  0  0  0  0  0  0  0  0  0
  -26.9048  -11.9331  144.9854 C   0  0  0  0  0  0  0  0  0  0  0  0
  -26.3982  -13.4560  144.7031 C   0  0  0  0  0  0  0  0  0  0  0  0
  -30.2347  -11.5848  147.3946 O   0  0  0  0  0  0  0  0  0  0  0  0
  -29.6062  -13.3250  148.6458 O   0  0  0  0  0  0  0  0  0  0  0  0
  -23.5920  -16.4728  147.6496 C   0  0  0  0  0  0  0  0  0  0  0  0
  -22.9013  -17.5332  148.5070 C   0  0  0  0  0  0  0  0  0  0  0  0
  -23.5697  -17.6352  149.6517 O   0  0  0  0  0  0  0  0  0  0  0  0
  -25.8667  -11.3551  145.9568 C   0  0  0  0  0  0  0  0  0  0  0  0
  1  2  1  0
  2  3  1  0
  3  4  1  0
  4  5  1  0
  7  8  1  0
  1  9  1  0
  4 10  1  0
  9 10  1  0
  8 14  2  0
  8 15  1  0
  2 16  1  0
 16 17  1  0
 17 18  1  0
 12 19  1  0
  5  6  2  0
  6  7  1  0
  7 11  2  0
 11 12  1  0
 12 13  2  0
 13  5  1  0
M  END

$$$$
No_1273-/dssg/home/sw_qyf/PocketFlow/Model-Generation-Results/5HT2A_7WC7_rec_A_10.pdb/2024-01-01-03-54-21/
     RDKit          3D

 35 39  0  0  0  0  0  0  0  0999 V2000
  -24.1553  -17.8465  145.7021 C   0  0  0  0  0  0  0  0  0  0  0  0
  -23.9795  -18.4462  146.7426 C   0  0  0  0  0  0  0  0  0  0  0  0
  -25.1196  -16.8106  145.6409 C   0  0  0  0  0  0  0  0  0  0  0  0
  -25.9236  -16.5070  146.7422 C   0  0  0  0  0  0  0  0  0  0  0  0
  -25.6627  -17.1841  147.9274 C   0  0  0  0  0  0  0  0  0  0  0  0
  -24.6813  -18.1540  148.0079 C   0  0  0  0  0  0  0  0  0  0  0  0
  -26.9716  -15.4553  146.6645 C   0  0  0  0  0  0  0  0  0  0  0  0
  -26.8697  -14.3596  146.6822 C   0  0  0  0  0  0  0  0  0  0  0  0
  -27.9565  -13.3365  146.6168 C   0  0  0  0  0  0  0  0  0  0  0  0
  -29.2493  -13.7180  147.0468 C   0  0  0  0  0  0  0  0  0  0  0  0
  -29.3973  -15.0913  147.2005 C   0  0  0  0  0  0  0  0  0  0  0  0
  -28.3486  -16.0255  147.0975 C   0  0  0  0  0  0  0  0  0  0  0  0
  -30.3092  -12.7449  147.1491 C   0  0  0  0  0  0  0  0  0  0  0  0
  -30.1503  -11.5176  146.5944 N   0  0  0  0  0  0  0  0  0  0  0  0
  -29.4513  -11.1711  145.4838 C   0  0  0  0  0  0  0  0  0  0  0  0
  -29.6803   -9.8395  144.9687 C   0  0  0  0  0  0  0  0  0  0  0  0
  -28.9882   -9.5215  143.7656 C   0  0  0  0  0  0  0  0  0  0  0  0
  -28.0189  -10.4310  143.3124 C   0  0  0  0  0  0  0  0  0  0  0  0
  -27.7824  -11.6403  143.9435 C   0  0  0  0  0  0  0  0  0  0  0  0
  -28.4897  -11.9902  145.0185 C   0  0  0  0  0  0  0  0  0  0  0  0
  -27.9423  -13.0117  145.6915 N   0  0  0  0  0  0  0  0  0  0  0  0
  -29.2991   -8.2961  143.0605 C   0  0  0  0  0  0  0  0  0  0  0  0
  -29.2824   -7.1016  143.6462 C   0  0  0  0  0  0  0  0  0  0  0  0
  -29.5366   -5.8864  142.8149 C   0  0  0  0  0  0  0  0  0  0  0  0
  -29.6291   -6.1381  141.3987 C   0  0  0  0  0  0  0  0  0  0  0  0
  -29.5230   -7.3989  140.8878 C   0  0  0  0  0  0  0  0  0  0  0  0
  -29.3259   -8.4711  141.7151 C   0  0  0  0  0  0  0  0  0  0  0  0
  -29.5847   -7.5577  139.5443 N   0  0  0  0  0  0  0  0  0  0  0  0
  -28.7074   -8.2943  138.7909 C   0  0  0  0  0  0  0  0  0  0  0  0
  -28.8019   -8.3739  137.4403 C   0  0  0  0  0  0  0  0  0  0  0  0
  -27.5961   -9.0015  139.4406 C   0  0  0  0  0  0  0  0  0  0  0  0
  -31.1993  -12.9668  148.0016 O   0  0  0  0  0  0  0  0  0  0  0  0
  -25.3484  -16.1380  144.5271 F   0  0  0  0  0  0  0  0  0  0  0  0
  -27.6381  -10.4269  139.6341 C   0  0  0  0  0  0  0  0  0  0  0  0
  -28.6506  -11.2510  139.9750 C   0  0  0  0  0  0  0  0  0  0  0  0
  4  7  1  0
 10 13  1  0
 13 14  1  0
  9 21  1  0
 20 21  1  0
 17 22  1  0
 26 28  1  0
 28 29  1  0
 29 30  1  0
 29 31  1  0
 13 32  2  0
  3 33  1  0
 31 34  1  0
 34 35  1  0
 14 15  1  0
 15 16  2  0
 16 17  1  0
 17 18  2  0
 18 19  1  0
 19 20  2  0
 20 15  1  0
  1  2  2  0
  2  6  1  0
  6  5  2  0
  5  4  1  0
  4  3  2  0
  3  1  1  0
 22 23  2  0
 23 24  1  0
 24 25  2  0
 25 26  1  0
 26 27  2  0
 27 22  1  0
  7  8  2  0
  8  9  1  0
  9 10  2  0
 10 11  1  0
 11 12  2  0
 12  7  1  0
M  END

$$$$
No_1274-/dssg/home/sw_qyf/PocketFlow/Model-Generation-Results/5HT2A_7WC7_rec_A_10.pdb/2024-01-01-03-54-21/
     RDKit          3D

 35 39  0  0  0  0  0  0  0  0999 V2000
  -24.1553  -17.8465  145.7021 C   0  0  0  0  0  0  0  0  0  0  0  0
  -24.2856  -16.6364  145.3494 C   0  0  0  0  0  0  0  0  0  0  0  0
  -25.0033  -15.6772  146.0737 C   0  0  0  0  0  0  0  0  0  0  0  0
  -25.7224  -16.0756  147.0213 C   0  0  0  0  0  0  0  0  0  0  0  0
  -24.8891  -18.3427  146.7818 C   0  0  0  0  0  0  0  0  0  0  0  0
  -25.6060  -17.4168  147.5658 C   0  0  0  0  0  0  0  0  0  0  0  0
  -23.4249  -16.2458  144.2665 N   0  0  0  0  0  0  0  0  0  0  0  0
  -25.0064  -14.2316  145.5967 C   0  0  0  0  0  0  0  0  0  0  0  0
  -24.2367  -13.7334  144.7188 C   0  0  0  0  0  0  0  0  0  0  0  0
  -23.3462  -14.8432  144.0289 C   0  0  0  0  0  0  0  0  0  0  0  0
  -25.7496  -13.2584  146.4403 C   0  0  0  0  0  0  0  0  0  0  0  0
  -27.1716  -13.2683  146.2196 C   0  0  0  0  0  0  0  0  0  0  0  0
  -27.7746  -11.9745  146.2308 C   0  0  0  0  0  0  0  0  0  0  0  0
  -28.1332  -11.2957  145.1164 C   0  0  0  0  0  0  0  0  0  0  0  0
  -27.2684  -10.7739  144.1942 C   0  0  0  0  0  0  0  0  0  0  0  0
  -27.8312  -10.3489  143.0849 C   0  0  0  0  0  0  0  0  0  0  0  0
  -29.1960   -9.9785  143.0918 C   0  0  0  0  0  0  0  0  0  0  0  0
  -29.8211   -9.4943  141.8704 C   0  0  0  0  0  0  0  0  0  0  0  0
  -29.5417  -11.0343  144.7856 C   0  0  0  0  0  0  0  0  0  0  0  0
  -30.2199  -11.4515  145.9322 O   0  0  0  0  0  0  0  0  0  0  0  0
  -29.0245   -9.1135  140.8729 C   0  0  0  0  0  0  0  0  0  0  0  0
  -30.1320  -10.3478  143.8304 N   0  0  0  0  0  0  0  0  0  0  0  0
  -29.3708   -8.0804  139.9394 C   0  0  0  0  0  0  0  0  0  0  0  0
  -28.5590   -7.9448  138.7366 C   0  0  0  0  0  0  0  0  0  0  0  0
  -27.5488   -8.9131  138.4978 C   0  0  0  0  0  0  0  0  0  0  0  0
  -27.2132   -9.8778  139.4955 C   0  0  0  0  0  0  0  0  0  0  0  0
  -28.0801  -10.0161  140.6390 C   0  0  0  0  0  0  0  0  0  0  0  0
  -27.1812  -10.2090  141.7670 C   0  0  0  0  0  0  0  0  0  0  0  0
  -31.0584   -9.0471  141.9674 O   0  0  0  0  0  0  0  0  0  0  0  0
  -26.3022  -10.7019  139.2032 F   0  0  0  0  0  0  0  0  0  0  0  0
  -23.5048  -18.8026  145.0240 O   0  0  0  0  0  0  0  0  0  0  0  0
  -31.5682   -8.2839  143.0741 C   0  0  0  0  0  0  0  0  0  0  0  0
  -27.9631  -14.3155  145.8927 C   0  0  0  0  0  0  0  0  0  0  0  0
  -29.0711  -14.5245  146.8836 C   0  0  0  0  0  0  0  0  0  0  0  0
  -29.9975  -15.3998  147.0127 C   0  0  0  0  0  0  0  0  0  0  0  0
  1  2  1  0
  1  5  1  0
  4  6  1  0
  5  6  1  0
  8 11  1  0
 11 12  1  0
 12 13  1  0
 13 14  1  0
 19 20  1  0
 18 29  1  0
 26 30  1  0
  1 31  2  0
 29 32  1  0
 12 33  1  0
 33 34  1  0
 34 35  2  0
  3  4  1  0
 14 15  2  0
 15 16  1  0
 17 22  1  0
 22 19  2  0
 19 14  1  0
 21 23  1  0
 23 24  2  0
 24 25  1  0
 25 26  2  0
 26 27  1  0
 16 17  2  0
 17 18  1  0
 18 21  2  0
 21 27  1  0
 27 28  2  0
 28 16  1  0
  2  3  2  0
  3  8  1  0
  8  9  2  0
  9 10  1  0
 10  7  2  0
  7  2  1  0
M  END

$$$$
No_1275-/dssg/home/sw_qyf/PocketFlow/Model-Generation-Results/5HT2A_7WC7_rec_A_10.pdb/2024-01-01-03-54-21/
     RDKit          3D

 18 19  0  0  0  0  0  0  0  0999 V2000
  -24.1553  -17.8465  145.7021 C   0  0  0  0  0  0  0  0  0  0  0  0
  -23.9795  -18.4462  146.7426 C   0  0  0  0  0  0  0  0  0  0  0  0
  -24.2723  -16.4220  145.8037 C   0  0  0  0  0  0  0  0  0  0  0  0
  -24.0151  -15.5895  144.6874 C   0  0  0  0  0  0  0  0  0  0  0  0
  -24.0834  -17.9646  148.0883 C   0  0  0  0  0  0  0  0  0  0  0  0
  -24.2949  -16.5690  148.2409 C   0  0  0  0  0  0  0  0  0  0  0  0
  -24.3289  -15.7594  147.1024 C   0  0  0  0  0  0  0  0  0  0  0  0
  -24.3318  -14.1513  144.8501 C   0  0  0  0  0  0  0  0  0  0  0  0
  -24.9693  -13.7232  143.9870 C   0  0  0  0  0  0  0  0  0  0  0  0
  -26.0051  -12.7579  144.4130 C   0  0  0  0  0  0  0  0  0  0  0  0
  -26.8702  -13.0931  145.0457 C   0  0  0  0  0  0  0  0  0  0  0  0
  -27.9824  -12.1557  145.5653 C   0  0  0  0  0  0  0  0  0  0  0  0
  -28.1447  -10.9534  144.8643 C   0  0  0  0  0  0  0  0  0  0  0  0
  -27.1813  -10.6818  143.8268 C   0  0  0  0  0  0  0  0  0  0  0  0
  -26.1726  -11.6184  143.5488 C   0  0  0  0  0  0  0  0  0  0  0  0
  -29.0303  -12.5427  146.5824 C   0  0  0  0  0  0  0  0  0  0  0  0
  -29.8371  -11.6058  147.0659 N   0  0  0  0  0  0  0  0  0  0  0  0
  -29.1637  -13.6941  146.9705 F   0  0  0  0  0  0  0  0  0  0  0  0
  1  2  1  0
  1  3  1  0
  3  4  2  3
  2  5  1  0
  5  6  1  0
  3  7  1  0
  6  7  1  0
  4  8  1  0
  8  9  2  3
  9 10  1  0
 12 16  1  0
 16 17  2  0
 16 18  1  0
 10 11  2  0
 11 12  1  0
 12 13  2  0
 13 14  1  0
 14 15  2  0
 15 10  1  0
M  END

$$$$
No_1276-/dssg/home/sw_qyf/PocketFlow/Model-Generation-Results/5HT2A_7WC7_rec_A_10.pdb/2024-01-01-03-54-21/
     RDKit          3D

 16 17  0  0  0  0  0  0  0  0999 V2000
  -24.1553  -17.8465  145.7021 C   0  0  0  0  0  0  0  0  0  0  0  0
  -23.9795  -18.4462  146.7426 C   0  0  0  0  0  0  0  0  0  0  0  0
  -25.1593  -16.8262  145.6925 C   0  0  0  0  0  0  0  0  0  0  0  0
  -24.9465  -15.5960  144.9952 C   0  0  0  0  0  0  0  0  0  0  0  0
  -25.8339  -14.4742  145.0599 C   0  0  0  0  0  0  0  0  0  0  0  0
  -25.6290  -13.3152  144.3271 C   0  0  0  0  0  0  0  0  0  0  0  0
  -23.6610  -17.7903  147.7968 C   0  0  0  0  0  0  0  0  0  0  0  0
  -24.6485  -16.7460  148.3168 C   0  0  0  0  0  0  0  0  0  0  0  0
  -25.7044  -16.6052  147.6105 C   0  0  0  0  0  0  0  0  0  0  0  0
  -25.8441  -16.0899  146.3919 C   0  0  0  0  0  0  0  0  0  0  0  0
  -26.3476  -14.6573  146.2401 N   0  0  0  0  0  0  0  0  0  0  0  0
  -26.3941  -12.1853  144.9323 C   0  0  0  0  0  0  0  0  0  0  0  0
  -27.0987  -11.2515  144.1492 C   0  0  0  0  0  0  0  0  0  0  0  0
  -28.4480  -11.5136  143.8368 C   0  0  0  0  0  0  0  0  0  0  0  0
  -29.3313  -11.0424  144.9490 C   0  0  0  0  0  0  0  0  0  0  0  0
  -28.7599  -10.4375  145.8350 O   0  0  0  0  0  0  0  0  0  0  0  0
  1  2  1  0
  1  3  1  0
  3  4  2  0
  4  5  1  0
  5  6  2  3
  2  7  1  0
  7  8  1  0
  8  9  2  0
  3 10  1  0
  9 10  1  0
  5 11  1  0
 10 11  1  0
  6 12  1  0
 12 13  1  0
 13 14  1  0
 14 15  1  0
 15 16  2  0
M  END

$$$$
No_1277-/dssg/home/sw_qyf/PocketFlow/Model-Generation-Results/5HT2A_7WC7_rec_A_10.pdb/2024-01-01-03-54-21/
     RDKit          3D

 20 22  0  0  0  0  0  0  0  0999 V2000
  -23.1746  -16.6014  144.8668 C   0  0  0  0  0  0  0  0  0  0  0  0
  -23.7011  -17.0158  145.9774 C   0  0  0  0  0  0  0  0  0  0  0  0
  -24.7096  -16.6222  146.3577 C   0  0  0  0  0  0  0  0  0  0  0  0
  -25.4819  -15.5594  145.8226 C   0  0  0  0  0  0  0  0  0  0  0  0
  -26.6929  -14.9922  146.4004 C   0  0  0  0  0  0  0  0  0  0  0  0
  -27.3515  -15.8466  147.3094 C   0  0  0  0  0  0  0  0  0  0  0  0
  -26.7073  -16.9174  147.9076 C   0  0  0  0  0  0  0  0  0  0  0  0
  -25.5170  -17.3658  147.4909 C   0  0  0  0  0  0  0  0  0  0  0  0
  -23.6214  -15.3351  144.3159 C   0  0  0  0  0  0  0  0  0  0  0  0
  -24.8701  -14.8669  144.7885 C   0  0  0  0  0  0  0  0  0  0  0  0
  -27.2983  -13.8535  145.8511 C   0  0  0  0  0  0  0  0  0  0  0  0
  -26.7199  -12.9865  144.9247 C   0  0  0  0  0  0  0  0  0  0  0  0
  -25.4505  -13.5818  144.2991 C   0  0  0  0  0  0  0  0  0  0  0  0
  -27.3089  -11.9386  144.2588 C   0  0  0  0  0  0  0  0  0  0  0  0
  -27.4811  -11.5575  143.0190 C   0  0  0  0  0  0  0  0  0  0  0  0
  -28.3049  -10.4816  142.6358 C   0  0  0  0  0  0  0  0  0  0  0  0
  -28.6264  -10.1469  141.2960 C   0  0  0  0  0  0  0  0  0  0  0  0
  -29.1609   -8.9462  140.9721 C   0  0  0  0  0  0  0  0  0  0  0  0
  -29.3233   -8.4448  139.6380 C   0  0  0  0  0  0  0  0  0  0  0  0
  -29.8833   -7.1568  139.4447 C   0  0  0  0  0  0  0  0  0  0  0  0
  5 11  1  0
 11 12  1  0
 10 13  1  0
 12 13  1  0
 12 14  1  0
 14 15  2  3
 15 16  1  0
 16 17  1  0
 17 18  1  0
 18 19  2  3
 19 20  1  0
  4  5  2  0
  5  6  1  0
  6  7  2  0
  7  8  1  0
  8  3  2  0
  1  2  2  0
  2  3  1  0
  3  4  1  0
  4 10  1  0
 10  9  2  0
  9  1  1  0
M  END

$$$$
No_1278-/dssg/home/sw_qyf/PocketFlow/Model-Generation-Results/5HT2A_7WC7_rec_A_10.pdb/2024-01-01-03-54-21/
     RDKit          3D

 26 27  0  0  0  0  0  0  0  0999 V2000
  -23.1746  -16.6014  144.8668 C   0  0  0  0  0  0  0  0  0  0  0  0
  -24.0189  -16.0564  145.8445 C   0  0  0  0  0  0  0  0  0  0  0  0
  -24.4850  -14.7380  145.6359 C   0  0  0  0  0  0  0  0  0  0  0  0
  -25.2717  -14.0560  146.5949 C   0  0  0  0  0  0  0  0  0  0  0  0
  -25.5669  -12.6700  146.4456 C   0  0  0  0  0  0  0  0  0  0  0  0
  -25.1774  -11.9727  145.2644 C   0  0  0  0  0  0  0  0  0  0  0  0
  -24.2583  -12.6444  144.4323 C   0  0  0  0  0  0  0  0  0  0  0  0
  -23.9746  -14.0153  144.6649 C   0  0  0  0  0  0  0  0  0  0  0  0
  -24.4407  -16.8601  146.9515 C   0  0  0  0  0  0  0  0  0  0  0  0
  -25.1111  -16.6229  147.9710 C   0  0  0  0  0  0  0  0  0  0  0  0
  -25.2104  -17.3713  149.1832 C   0  0  0  0  0  0  0  0  0  0  0  0
  -23.8954  -18.2362  146.9401 C   0  0  0  0  0  0  0  0  0  0  0  0
  -23.0991  -18.6570  146.0809 N   0  0  0  0  0  0  0  0  0  0  0  0
  -22.8383  -18.0009  144.9543 C   0  0  0  0  0  0  0  0  0  0  0  0
  -25.1226  -16.8030  150.4977 C   0  0  0  0  0  0  0  0  0  0  0  0
  -25.4696  -10.6795  145.1362 N   0  0  0  0  0  0  0  0  0  0  0  0
  -26.7827  -10.3748  144.6581 C   0  0  0  0  0  0  0  0  0  0  0  0
  -27.8882  -11.0733  145.0953 C   0  0  0  0  0  0  0  0  0  0  0  0
  -29.1475  -10.5911  144.7290 C   0  0  0  0  0  0  0  0  0  0  0  0
  -29.4037   -9.5354  143.9290 C   0  0  0  0  0  0  0  0  0  0  0  0
  -30.7307   -9.1532  143.5626 C   0  0  0  0  0  0  0  0  0  0  0  0
  -31.5839   -8.8631  144.3681 O   0  0  0  0  0  0  0  0  0  0  0  0
  -31.1652   -9.6492  142.3381 O   0  0  0  0  0  0  0  0  0  0  0  0
  -26.9648   -9.1426  144.2543 O   0  0  0  0  0  0  0  0  0  0  0  0
  -23.7778  -16.5626  150.7973 C   0  0  0  0  0  0  0  0  0  0  0  0
  -22.7619  -16.6776  149.8703 C   0  0  0  0  0  0  0  0  0  0  0  0
  2  3  1  0
 10 11  1  0
 11 15  1  0
  6 16  1  0
 16 17  1  0
 17 18  1  0
 18 19  2  3
 19 20  1  0
 20 21  1  0
 21 22  1  0
 21 23  2  0
 17 24  2  0
 15 25  1  0
 25 26  1  0
 10  9  1  0
  1  2  2  0
  2  9  1  0
  9 12  2  0
 12 13  1  0
 13 14  2  0
 14  1  1  0
  3  4  2  0
  4  5  1  0
  5  6  2  0
  6  7  1  0
  7  8  2  0
  8  3  1  0
M  END

$$$$
No_1279-/dssg/home/sw_qyf/PocketFlow/Model-Generation-Results/5HT2A_7WC7_rec_A_10.pdb/2024-01-01-03-54-21/
     RDKit          3D

 29 31  0  0  0  0  0  0  0  0999 V2000
  -24.1553  -17.8465  145.7021 C   0  0  0  0  0  0  0  0  0  0  0  0
  -24.6364  -17.2931  146.7091 C   0  0  0  0  0  0  0  0  0  0  0  0
  -24.0780  -17.2921  147.9389 C   0  0  0  0  0  0  0  0  0  0  0  0
  -24.6761  -16.7363  149.1478 C   0  0  0  0  0  0  0  0  0  0  0  0
  -25.9985  -16.2638  148.9932 C   0  0  0  0  0  0  0  0  0  0  0  0
  -26.6270  -16.3412  147.7728 C   0  0  0  0  0  0  0  0  0  0  0  0
  -25.9734  -16.9166  146.6819 C   0  0  0  0  0  0  0  0  0  0  0  0
  -23.6185  -19.1407  145.5578 C   0  0  0  0  0  0  0  0  0  0  0  0
  -28.0634  -15.8917  147.7241 C   0  0  0  0  0  0  0  0  0  0  0  0
  -28.9879  -15.9763  148.6808 C   0  0  0  0  0  0  0  0  0  0  0  0
  -28.2717  -14.8485  146.7474 C   0  0  0  0  0  0  0  0  0  0  0  0
  -29.4495  -14.0916  146.8753 C   0  0  0  0  0  0  0  0  0  0  0  0
  -29.6272  -12.9167  146.0586 C   0  0  0  0  0  0  0  0  0  0  0  0
  -28.4949  -12.3994  145.3798 C   0  0  0  0  0  0  0  0  0  0  0  0
  -27.3280  -13.2075  145.2645 C   0  0  0  0  0  0  0  0  0  0  0  0
  -27.1627  -14.3068  146.0674 C   0  0  0  0  0  0  0  0  0  0  0  0
  -28.6893  -11.1687  144.5837 C   0  0  0  0  0  0  0  0  0  0  0  0
  -27.7905  -10.6530  143.7260 C   0  0  0  0  0  0  0  0  0  0  0  0
  -29.9860  -10.4287  144.6295 C   0  0  0  0  0  0  0  0  0  0  0  0
  -30.1348   -9.3816  143.8738 N   0  0  0  0  0  0  0  0  0  0  0  0
  -29.2469   -8.9305  143.0220 C   0  0  0  0  0  0  0  0  0  0  0  0
  -27.9914   -9.5578  142.9489 C   0  0  0  0  0  0  0  0  0  0  0  0
  -29.5261   -7.7058  142.2912 C   0  0  0  0  0  0  0  0  0  0  0  0
  -30.0646   -6.5633  142.7174 C   0  0  0  0  0  0  0  0  0  0  0  0
  -29.6491   -7.8591  140.8164 C   0  0  0  0  0  0  0  0  0  0  0  0
  -28.7014   -7.2720  139.9570 C   0  0  0  0  0  0  0  0  0  0  0  0
  -28.7005   -7.7284  138.5595 C   0  0  0  0  0  0  0  0  0  0  0  0
  -23.7238  -16.9819  144.5235 C   0  0  0  0  0  0  0  0  0  0  0  0
  -22.9895  -17.2806  143.6483 O   0  0  0  0  0  0  0  0  0  0  0  0
  1  2  1  0
  1  8  1  0
  6  9  1  0
  9 10  2  0
  9 11  1  0
 14 17  1  0
 17 18  1  0
 17 19  1  0
 19 20  1  0
 20 21  1  0
 18 22  1  0
 21 22  1  0
 21 23  1  0
 23 24  2  0
 23 25  1  0
 25 26  1  0
 26 27  1  0
  1 28  1  0
 28 29  2  0
 11 12  2  0
 12 13  1  0
 13 14  2  0
 14 15  1  0
 15 16  2  0
 16 11  1  0
  2  3  2  0
  3  4  1  0
  4  5  2  0
  5  6  1  0
  6  7  2  0
  7  2  1  0
M  END

$$$$
No_1280-/dssg/home/sw_qyf/PocketFlow/Model-Generation-Results/5HT2A_7WC7_rec_A_10.pdb/2024-01-01-03-54-21/
     RDKit          3D

 35 38  0  0  0  0  0  0  0  0999 V2000
  -23.1746  -16.6014  144.8668 C   0  0  0  0  0  0  0  0  0  0  0  0
  -24.0189  -16.0564  145.8445 C   0  0  0  0  0  0  0  0  0  0  0  0
  -24.4850  -14.7380  145.6359 C   0  0  0  0  0  0  0  0  0  0  0  0
  -25.2717  -14.0560  146.5949 C   0  0  0  0  0  0  0  0  0  0  0  0
  -25.5669  -12.6700  146.4456 C   0  0  0  0  0  0  0  0  0  0  0  0
  -25.1774  -11.9727  145.2644 C   0  0  0  0  0  0  0  0  0  0  0  0
  -24.2583  -12.6444  144.4323 C   0  0  0  0  0  0  0  0  0  0  0  0
  -23.9746  -14.0153  144.6649 C   0  0  0  0  0  0  0  0  0  0  0  0
  -24.4407  -16.8601  146.9515 C   0  0  0  0  0  0  0  0  0  0  0  0
  -25.1111  -16.6229  147.9710 C   0  0  0  0  0  0  0  0  0  0  0  0
  -24.9821  -17.2513  149.2422 C   0  0  0  0  0  0  0  0  0  0  0  0
  -25.7749  -17.0271  150.4135 C   0  0  0  0  0  0  0  0  0  0  0  0
  -23.8284  -18.2253  146.9779 C   0  0  0  0  0  0  0  0  0  0  0  0
  -22.9995  -18.5469  146.2205 O   0  0  0  0  0  0  0  0  0  0  0  0
  -22.9556  -15.9430  143.8426 O   0  0  0  0  0  0  0  0  0  0  0  0
  -22.8612  -18.0366  145.1321 C   0  0  0  0  0  0  0  0  0  0  0  0
  -25.4735  -10.6894  145.1373 O   0  0  0  0  0  0  0  0  0  0  0  0
  -26.7527  -10.4477  144.5107 C   0  0  0  0  0  0  0  0  0  0  0  0
  -26.9387   -9.6396  143.5274 C   0  0  0  0  0  0  0  0  0  0  0  0
  -28.3056   -9.4698  143.0401 C   0  0  0  0  0  0  0  0  0  0  0  0
  -29.3205  -10.0517  143.8974 C   0  0  0  0  0  0  0  0  0  0  0  0
  -28.0762  -10.9039  145.0153 C   0  0  0  0  0  0  0  0  0  0  0  0
  -28.8289   -8.5887  142.0339 C   0  0  0  0  0  0  0  0  0  0  0  0
  -29.9730   -7.7733  142.1717 C   0  0  0  0  0  0  0  0  0  0  0  0
  -30.4007   -7.2076  141.0215 N   0  0  0  0  0  0  0  0  0  0  0  0
  -30.5194   -7.5892  143.2583 O   0  0  0  0  0  0  0  0  0  0  0  0
  -25.4823  -17.9370  151.5170 C   0  0  0  0  0  0  0  0  0  0  0  0
  -28.5444  -11.7371  146.0251 C   0  0  0  0  0  0  0  0  0  0  0  0
  -29.8443  -12.0550  146.3699 C   0  0  0  0  0  0  0  0  0  0  0  0
  -29.9777  -12.8003  147.5997 C   0  0  0  0  0  0  0  0  0  0  0  0
  -31.0627  -12.8898  148.2519 C   0  0  0  0  0  0  0  0  0  0  0  0
  -31.0284  -13.7236  149.5090 C   0  0  0  0  0  0  0  0  0  0  0  0
  -30.1827  -14.8759  149.3354 C   0  0  0  0  0  0  0  0  0  0  0  0
  -29.1889  -14.9341  148.4174 C   0  0  0  0  0  0  0  0  0  0  0  0
  -29.0686  -13.9594  147.4798 C   0  0  0  0  0  0  0  0  0  0  0  0
  1  2  1  0
  2  3  1  0
  2  9  1  0
  9 10  1  0
 10 11  2  3
 11 12  1  0
  9 13  1  0
 13 14  1  0
  1 15  1  0
  1 16  1  0
 14 16  1  0
  6 17  1  0
 17 18  1  0
 18 19  2  0
 19 20  1  0
 20 21  2  0
 18 22  1  0
 21 22  1  0
 20 23  1  0
 23 24  2  3
 24 25  1  0
 24 26  1  0
 12 27  2  0
 22 28  1  0
 28 29  2  3
 29 30  1  0
  3  4  2  0
  4  5  1  0
  5  6  2  0
  6  7  1  0
  7  8  2  0
  8  3  1  0
 30 31  2  0
 31 32  1  0
 32 33  2  0
 33 34  1  0
 34 35  2  0
 35 30  1  0
M  END

$$$$
No_1281-/dssg/home/sw_qyf/PocketFlow/Model-Generation-Results/5HT2A_7WC7_rec_A_10.pdb/2024-01-01-03-54-21/
     RDKit          3D

 14 14  0  0  0  0  0  0  0  0999 V2000
  -24.1553  -17.8465  145.7021 C   0  0  0  0  0  0  0  0  0  0  0  0
  -23.9795  -18.4462  146.7426 C   0  0  0  0  0  0  0  0  0  0  0  0
  -24.2723  -16.4220  145.8037 C   0  0  0  0  0  0  0  0  0  0  0  0
  -24.0151  -15.5895  144.6874 C   0  0  0  0  0  0  0  0  0  0  0  0
  -24.7969  -14.3928  144.4905 C   0  0  0  0  0  0  0  0  0  0  0  0
  -24.2274  -13.1772  144.9021 C   0  0  0  0  0  0  0  0  0  0  0  0
  -24.9982  -12.2440  145.6575 C   0  0  0  0  0  0  0  0  0  0  0  0
  -24.0494  -17.9145  148.0927 C   0  0  0  0  0  0  0  0  0  0  0  0
  -24.2305  -16.5259  148.2082 C   0  0  0  0  0  0  0  0  0  0  0  0
  -24.2780  -15.7540  147.0786 C   0  0  0  0  0  0  0  0  0  0  0  0
  -25.8217  -12.5057  146.7222 C   0  0  0  0  0  0  0  0  0  0  0  0
  -27.2056  -12.5516  146.2726 C   0  0  0  0  0  0  0  0  0  0  0  0
  -27.6827  -11.7049  145.3625 C   0  0  0  0  0  0  0  0  0  0  0  0
  -26.8220  -10.8587  144.6436 C   0  0  0  0  0  0  0  0  0  0  0  0
  3  4  1  0
  4  5  1  0
  5  6  1  0
  6  7  2  3
  7 11  1  0
 11 12  1  0
 12 13  2  3
 13 14  1  0
  1  2  2  0
  2  8  1  0
  8  9  2  0
  9 10  1  0
 10  3  2  0
  3  1  1  0
M  END

$$$$
No_1282-/dssg/home/sw_qyf/PocketFlow/Model-Generation-Results/5HT2A_7WC7_rec_A_10.pdb/2024-01-01-03-54-21/
     RDKit          3D

 35 37  0  0  0  0  0  0  0  0999 V2000
  -23.8042  -18.1535  145.4053 O   0  0  0  0  0  0  0  0  0  0  0  0
  -24.3135  -17.1214  145.8338 C   0  0  0  0  0  0  0  0  0  0  0  0
  -24.4856  -15.9950  145.0258 C   0  0  0  0  0  0  0  0  0  0  0  0
  -25.3951  -14.9381  145.2879 C   0  0  0  0  0  0  0  0  0  0  0  0
  -25.2282  -13.6469  144.8697 C   0  0  0  0  0  0  0  0  0  0  0  0
  -23.9714  -13.4248  144.1304 C   0  0  0  0  0  0  0  0  0  0  0  0
  -22.9731  -14.4372  144.1566 C   0  0  0  0  0  0  0  0  0  0  0  0
  -23.2895  -15.6838  144.5560 C   0  0  0  0  0  0  0  0  0  0  0  0
  -25.1693  -17.3462  146.9346 N   0  0  0  0  0  0  0  0  0  0  0  0
  -25.8494  -16.3392  147.7197 C   0  0  0  0  0  0  0  0  0  0  0  0
  -26.0753  -12.5593  144.9477 C   0  0  0  0  0  0  0  0  0  0  0  0
  -27.1088  -12.5925  145.9798 C   0  0  0  0  0  0  0  0  0  0  0  0
  -28.2453  -11.7086  145.8961 C   0  0  0  0  0  0  0  0  0  0  0  0
  -28.3285  -10.7367  144.9248 C   0  0  0  0  0  0  0  0  0  0  0  0
  -27.2824  -10.6742  143.9625 C   0  0  0  0  0  0  0  0  0  0  0  0
  -26.2884  -11.6543  144.0000 C   0  0  0  0  0  0  0  0  0  0  0  0
  -29.4197   -9.8770  144.9037 N   0  0  0  0  0  0  0  0  0  0  0  0
  -29.8507   -9.2586  143.8214 C   0  0  0  0  0  0  0  0  0  0  0  0
  -30.6991   -9.3645  143.1545 C   0  0  0  0  0  0  0  0  0  0  0  0
  -31.0519   -8.6115  141.9644 C   0  0  0  0  0  0  0  0  0  0  0  0
  -30.0636   -7.7571  141.5120 C   0  0  0  0  0  0  0  0  0  0  0  0
  -28.9390   -7.4655  142.4034 C   0  0  0  0  0  0  0  0  0  0  0  0
  -28.7793   -8.1550  143.4536 C   0  0  0  0  0  0  0  0  0  0  0  0
  -30.0435   -7.2287  140.1387 C   0  0  0  0  0  0  0  0  0  0  0  0
  -30.1624   -8.1654  139.2315 N   0  0  0  0  0  0  0  0  0  0  0  0
  -29.2603  -11.7871  146.8523 N   0  0  0  0  0  0  0  0  0  0  0  0
  -29.2489  -12.6708  147.9277 C   0  0  0  0  0  0  0  0  0  0  0  0
  -30.5825  -12.9635  148.5158 C   0  0  0  0  0  0  0  0  0  0  0  0
  -31.5464  -12.0194  148.5961 C   0  0  0  0  0  0  0  0  0  0  0  0
  -32.7438  -12.2048  149.2350 C   0  0  0  0  0  0  0  0  0  0  0  0
  -32.9271  -11.5253  150.3696 C   0  0  0  0  0  0  0  0  0  0  0  0
  -26.4334  -16.7359  148.6424 C   0  0  0  0  0  0  0  0  0  0  0  0
  -33.9491  -11.7233  151.2607 C   0  0  0  0  0  0  0  0  0  0  0  0
  -33.4737  -11.2605  152.6499 C   0  0  0  0  0  0  0  0  0  0  0  0
  -33.8568  -10.6354  153.4457 O   0  0  0  0  0  0  0  0  0  0  0  0
  1  2  1  0
  2  3  1  0
  2  9  1  0
  9 10  1  0
  5 11  1  0
 14 17  1  0
 17 18  1  0
 21 24  1  0
 24 25  1  0
 13 26  1  0
 26 27  1  0
 27 28  1  0
 28 29  2  3
 29 30  1  0
 30 31  2  3
 10 32  2  0
 31 33  1  0
 33 34  1  0
 34 35  1  0
 18 19  2  0
 19 20  1  0
 20 21  2  0
 21 22  1  0
 22 23  2  0
 23 18  1  0
 11 12  2  0
 12 13  1  0
 13 14  2  0
 14 15  1  0
 15 16  2  0
 16 11  1  0
  3  4  2  0
  4  5  1  0
  5  6  2  0
  6  7  1  0
  7  8  2  0
  8  3  1  0
M  END

$$$$
No_1283-/dssg/home/sw_qyf/PocketFlow/Model-Generation-Results/5HT2A_7WC7_rec_A_10.pdb/2024-01-01-03-54-21/
     RDKit          3D

 21 22  0  0  0  0  0  0  0  0999 V2000
  -24.1553  -17.8465  145.7021 C   0  0  0  0  0  0  0  0  0  0  0  0
  -24.2856  -16.6364  145.3494 C   0  0  0  0  0  0  0  0  0  0  0  0
  -25.0033  -15.6772  146.0737 C   0  0  0  0  0  0  0  0  0  0  0  0
  -25.6964  -16.1810  147.2049 C   0  0  0  0  0  0  0  0  0  0  0  0
  -24.8143  -18.3454  146.8324 C   0  0  0  0  0  0  0  0  0  0  0  0
  -25.5292  -17.4614  147.6373 C   0  0  0  0  0  0  0  0  0  0  0  0
  -23.6446  -16.0678  144.2141 N   0  0  0  0  0  0  0  0  0  0  0  0
  -25.1743  -14.2616  145.6419 C   0  0  0  0  0  0  0  0  0  0  0  0
  -24.5031  -13.7857  144.6583 C   0  0  0  0  0  0  0  0  0  0  0  0
  -24.5021  -12.5574  144.2839 F   0  0  0  0  0  0  0  0  0  0  0  0
  -23.5984  -14.6946  143.8861 C   0  0  0  0  0  0  0  0  0  0  0  0
  -26.0471  -13.2006  146.6813 Cl  0  0  0  0  0  0  0  0  0  0  0  0
  -23.5152  -18.7680  144.9679 O   0  0  0  0  0  0  0  0  0  0  0  0
  -23.6771  -20.1072  145.4397 C   0  0  0  0  0  0  0  0  0  0  0  0
  -26.0479  -17.8056  148.8616 O   0  0  0  0  0  0  0  0  0  0  0  0
  -25.1855  -17.4921  149.9773 C   0  0  0  0  0  0  0  0  0  0  0  0
  -25.7180  -17.9191  151.2954 C   0  0  0  0  0  0  0  0  0  0  0  0
  -23.7803  -17.2205  149.9093 C   0  0  0  0  0  0  0  0  0  0  0  0
  -23.0461  -16.9660  151.1152 C   0  0  0  0  0  0  0  0  0  0  0  0
  -21.6747  -16.5198  150.7931 C   0  0  0  0  0  0  0  0  0  0  0  0
  -20.9216  -16.1969  151.8857 N   0  0  0  0  0  0  0  0  0  0  0  0
  9 10  1  0
  8 12  1  0
  1 13  1  0
 13 14  1  0
  6 15  1  0
 15 16  1  0
 16 17  2  0
 16 18  1  0
 18 19  1  0
 19 20  2  3
 20 21  1  0
  1  2  2  0
  3  4  2  0
  4  6  1  0
  6  5  2  0
  5  1  1  0
  2  3  1  0
  3  8  1  0
  8  9  2  0
  9 11  1  0
 11  7  2  0
  7  2  1  0
M  END

$$$$
No_1284-/dssg/home/sw_qyf/PocketFlow/Model-Generation-Results/5HT2A_7WC7_rec_A_10.pdb/2024-01-01-03-54-21/
     RDKit          3D

 35 38  0  0  0  0  0  0  0  0999 V2000
  -24.1553  -17.8465  145.7021 C   0  0  0  0  0  0  0  0  0  0  0  0
  -24.6364  -17.2931  146.7091 C   0  0  0  0  0  0  0  0  0  0  0  0
  -25.8608  -16.5592  146.5934 C   0  0  0  0  0  0  0  0  0  0  0  0
  -25.9533  -15.5604  145.6681 C   0  0  0  0  0  0  0  0  0  0  0  0
  -24.8399  -15.4389  144.8356 C   0  0  0  0  0  0  0  0  0  0  0  0
  -23.9398  -16.6015  144.7183 C   0  0  0  0  0  0  0  0  0  0  0  0
  -26.9036  -14.4944  145.6898 C   0  0  0  0  0  0  0  0  0  0  0  0
  -26.8374  -13.4659  144.7423 C   0  0  0  0  0  0  0  0  0  0  0  0
  -27.5978  -12.3234  144.8202 C   0  0  0  0  0  0  0  0  0  0  0  0
  -27.4687  -11.1445  144.0264 C   0  0  0  0  0  0  0  0  0  0  0  0
  -28.6819  -10.5732  143.6200 C   0  0  0  0  0  0  0  0  0  0  0  0
  -29.6690  -10.1963  144.6663 C   0  0  0  0  0  0  0  0  0  0  0  0
  -29.7848  -11.2917  145.7354 C   0  0  0  0  0  0  0  0  0  0  0  0
  -28.6087  -12.1216  145.9673 C   0  0  0  0  0  0  0  0  0  0  0  0
  -28.9804  -10.1137  142.3477 C   0  0  0  0  0  0  0  0  0  0  0  0
  -29.8724   -9.0662  142.1265 C   0  0  0  0  0  0  0  0  0  0  0  0
  -29.7396   -8.1168  141.1336 C   0  0  0  0  0  0  0  0  0  0  0  0
  -28.4875  -10.7831  141.1800 C   0  0  0  0  0  0  0  0  0  0  0  0
  -29.0392   -8.5538  139.9649 C   0  0  0  0  0  0  0  0  0  0  0  0
  -28.2291   -9.7710  140.0814 C   0  0  0  0  0  0  0  0  0  0  0  0
  -28.9233   -7.7995  138.8034 C   0  0  0  0  0  0  0  0  0  0  0  0
  -28.2986   -8.2547  137.8120 Cl  0  0  0  0  0  0  0  0  0  0  0  0
  -26.9523  -16.6044  147.6147 C   0  0  0  0  0  0  0  0  0  0  0  0
  -28.2086  -16.0803  147.3709 C   0  0  0  0  0  0  0  0  0  0  0  0
  -28.1588  -14.8148  146.5215 C   0  0  0  0  0  0  0  0  0  0  0  0
  -30.6670  -11.2081  146.6962 O   0  0  0  0  0  0  0  0  0  0  0  0
  -24.1697  -17.7027  148.1365 C   0  0  0  0  0  0  0  0  0  0  0  0
  -25.0170  -18.1509  148.9189 F   0  0  0  0  0  0  0  0  0  0  0  0
  -23.1245  -18.5342  147.9561 F   0  0  0  0  0  0  0  0  0  0  0  0
  -23.6177  -16.4978  148.6888 F   0  0  0  0  0  0  0  0  0  0  0  0
  -23.0413  -16.6423  143.7605 O   0  0  0  0  0  0  0  0  0  0  0  0
  -28.1284  -12.0519  141.0132 C   0  0  0  0  0  0  0  0  0  0  0  0
  -28.0746  -12.6996  139.7770 C   0  0  0  0  0  0  0  0  0  0  0  0
  -28.4119  -11.9537  138.6782 C   0  0  0  0  0  0  0  0  0  0  0  0
  -28.1463  -10.4656  138.7307 C   0  0  0  0  0  0  0  0  0  0  0  0
  8  9  1  0
  9 10  1  0
 10 11  1  0
 11 12  1  0
 12 13  1  0
  9 14  1  0
 13 14  1  0
 11 15  1  0
 19 21  1  0
 21 22  1  0
 13 26  1  0
  2 27  1  0
 27 28  1  0
 27 29  1  0
 27 30  1  0
  6 31  1  0
 18 32  1  0
 32 33  2  3
 33 34  1  0
 34 35  2  0
  8  7  1  0
  1  2  2  0
  2  3  1  0
  4  5  1  0
  5  6  2  0
  6  1  1  0
 15 16  2  0
 16 17  1  0
 17 19  2  0
 19 20  1  0
 20 18  2  0
 18 15  1  0
  3  4  2  0
  4  7  1  0
  7 25  2  0
 25 24  1  0
 24 23  2  0
 23  3  1  0
M  END

$$$$
No_1285-/dssg/home/sw_qyf/PocketFlow/Model-Generation-Results/5HT2A_7WC7_rec_A_10.pdb/2024-01-01-03-54-21/
     RDKit          3D

 13 13  0  0  0  0  0  0  0  0999 V2000
  -23.1746  -16.6014  144.8668 C   0  0  0  0  0  0  0  0  0  0  0  0
  -23.8963  -15.5346  144.7885 C   0  0  0  0  0  0  0  0  0  0  0  0
  -25.0303  -15.2549  144.5358 C   0  0  0  0  0  0  0  0  0  0  0  0
  -25.8853  -14.7934  145.2672 C   0  0  0  0  0  0  0  0  0  0  0  0
  -25.4331  -13.6599  146.1680 C   0  0  0  0  0  0  0  0  0  0  0  0
  -24.0140  -13.6977  146.4646 C   0  0  0  0  0  0  0  0  0  0  0  0
  -23.2417  -14.5697  145.8260 C   0  0  0  0  0  0  0  0  0  0  0  0
  -23.5936  -17.6500  145.5585 O   0  0  0  0  0  0  0  0  0  0  0  0
  -24.0668  -18.7522  145.3959 C   0  0  0  0  0  0  0  0  0  0  0  0
  -25.0331  -19.0800  146.4865 C   0  0  0  0  0  0  0  0  0  0  0  0
  -26.6001  -12.5152  146.8486 Cl  0  0  0  0  0  0  0  0  0  0  0  0
  -27.3938  -14.5549  144.9370 C   0  0  0  0  0  0  0  0  0  0  0  0
  -28.1267  -13.7947  145.7793 C   0  0  0  0  0  0  0  0  0  0  0  0
  1  2  1  0
  1  8  1  0
  8  9  1  0
  9 10  1  0
  5 11  1  0
  4 12  1  0
 12 13  2  0
  2  3  2  0
  3  4  1  0
  4  5  2  0
  5  6  1  0
  6  7  2  0
  7  2  1  0
M  END

$$$$
No_1286-/dssg/home/sw_qyf/PocketFlow/Model-Generation-Results/5HT2A_7WC7_rec_A_10.pdb/2024-01-01-03-54-21/
     RDKit          3D

 35 37  0  0  0  0  0  0  0  0999 V2000
  -24.1553  -17.8465  145.7021 C   0  0  0  0  0  0  0  0  0  0  0  0
  -24.2855  -16.6364  145.3494 C   0  0  0  0  0  0  0  0  0  0  0  0
  -24.8120  -15.5179  146.1040 C   0  0  0  0  0  0  0  0  0  0  0  0
  -25.3217  -15.9675  147.4088 C   0  0  0  0  0  0  0  0  0  0  0  0
  -24.6368  -18.2215  147.0148 C   0  0  0  0  0  0  0  0  0  0  0  0
  -25.1299  -17.1221  147.6891 C   0  0  0  0  0  0  0  0  0  0  0  0
  -24.8868  -14.1419  145.6409 C   0  0  0  0  0  0  0  0  0  0  0  0
  -25.6287  -13.2246  146.2286 C   0  0  0  0  0  0  0  0  0  0  0  0
  -25.5880  -11.8626  145.8552 C   0  0  0  0  0  0  0  0  0  0  0  0
  -24.0641  -13.7612  144.5609 C   0  0  0  0  0  0  0  0  0  0  0  0
  -23.7268  -14.6088  143.7617 F   0  0  0  0  0  0  0  0  0  0  0  0
  -22.7476  -13.2837  145.0720 F   0  0  0  0  0  0  0  0  0  0  0  0
  -26.8798  -11.0342  145.9921 C   0  0  0  0  0  0  0  0  0  0  0  0
  -27.7278  -11.1972  144.9184 C   0  0  0  0  0  0  0  0  0  0  0  0
  -28.9792  -10.4494  144.9899 C   0  0  0  0  0  0  0  0  0  0  0  0
  -29.8901  -10.7416  146.0196 C   0  0  0  0  0  0  0  0  0  0  0  0
  -29.4661  -11.6230  146.8932 O   0  0  0  0  0  0  0  0  0  0  0  0
  -30.3949  -12.6656  147.3148 C   0  0  0  0  0  0  0  0  0  0  0  0
  -29.7305  -13.9781  147.2019 C   0  0  0  0  0  0  0  0  0  0  0  0
  -29.4865   -9.9415  143.6946 C   0  0  0  0  0  0  0  0  0  0  0  0
  -29.0046  -10.1127  142.5048 C   0  0  0  0  0  0  0  0  0  0  0  0
  -29.4304   -9.4649  141.3841 C   0  0  0  0  0  0  0  0  0  0  0  0
  -28.6593   -9.4670  140.1524 C   0  0  0  0  0  0  0  0  0  0  0  0
  -27.6693  -10.5118  140.0504 C   0  0  0  0  0  0  0  0  0  0  0  0
  -27.4880  -11.4753  141.0404 C   0  0  0  0  0  0  0  0  0  0  0  0
  -28.0963  -11.2603  142.3251 C   0  0  0  0  0  0  0  0  0  0  0  0
  -27.3047  -11.5298  143.5295 C   0  0  0  0  0  0  0  0  0  0  0  0
  -28.3576  -13.9349  146.9575 C   0  0  0  0  0  0  0  0  0  0  0  0
  -28.7710   -8.4674  139.1532 C   0  0  0  0  0  0  0  0  0  0  0  0
  -28.1651   -8.5283  137.9152 C   0  0  0  0  0  0  0  0  0  0  0  0
  -29.4896   -7.2475  139.5557 C   0  0  0  0  0  0  0  0  0  0  0  0
  -24.5731  -12.6791  143.9190 F   0  0  0  0  0  0  0  0  0  0  0  0
  -27.7635  -15.2788  146.7234 C   0  0  0  0  0  0  0  0  0  0  0  0
  -28.0904  -16.2308  147.7074 C   0  0  0  0  0  0  0  0  0  0  0  0
  -29.2919  -16.0556  148.4392 C   0  0  0  0  0  0  0  0  0  0  0  0
  3  7  1  0
  7  8  2  3
  8  9  1  0
  7 10  1  0
 10 11  1  0
 10 12  1  0
  9 13  2  3
 13 14  1  0
 15 16  1  0
 16 17  1  0
 17 18  1  0
 18 19  1  0
 19 28  2  3
 23 29  1  0
 29 30  1  0
 29 31  1  0
 10 32  1  0
 28 33  1  0
 33 34  2  3
 34 35  1  0
  1  2  2  0
  2  3  1  0
  3  4  2  0
  4  6  1  0
  6  5  2  0
  5  1  1  0
 14 15  2  0
 15 20  1  0
 20 21  2  0
 26 27  2  0
 27 14  1  0
 21 22  1  0
 22 23  2  0
 23 24  1  0
 24 25  2  0
 25 26  1  0
 26 21  1  0
M  END

$$$$
No_1287-/dssg/home/sw_qyf/PocketFlow/Model-Generation-Results/5HT2A_7WC7_rec_A_10.pdb/2024-01-01-03-54-21/
     RDKit          3D

 35 38  0  0  0  0  0  0  0  0999 V2000
  -24.1553  -17.8465  145.7021 C   0  0  0  0  0  0  0  0  0  0  0  0
  -24.6364  -17.2931  146.7091 C   0  0  0  0  0  0  0  0  0  0  0  0
  -24.5709  -15.9334  146.8074 C   0  0  0  0  0  0  0  0  0  0  0  0
  -25.1834  -15.1616  147.9419 C   0  0  0  0  0  0  0  0  0  0  0  0
  -23.6361  -17.1348  144.5597 C   0  0  0  0  0  0  0  0  0  0  0  0
  -23.7332  -15.7649  144.6149 C   0  0  0  0  0  0  0  0  0  0  0  0
  -24.1973  -15.1293  145.7929 C   0  0  0  0  0  0  0  0  0  0  0  0
  -24.0536  -19.5849  145.5874 Cl  0  0  0  0  0  0  0  0  0  0  0  0
  -24.2876  -13.6746  146.0202 C   0  0  0  0  0  0  0  0  0  0  0  0
  -25.4701  -13.0186  145.7227 C   0  0  0  0  0  0  0  0  0  0  0  0
  -25.3861  -11.6449  145.8119 C   0  0  0  0  0  0  0  0  0  0  0  0
  -26.6491  -10.9012  145.6372 C   0  0  0  0  0  0  0  0  0  0  0  0
  -27.8759  -11.4866  145.3782 C   0  0  0  0  0  0  0  0  0  0  0  0
  -27.8287  -12.8914  145.4349 C   0  0  0  0  0  0  0  0  0  0  0  0
  -26.7089  -13.6369  145.5976 C   0  0  0  0  0  0  0  0  0  0  0  0
  -29.0710  -10.6709  145.2302 C   0  0  0  0  0  0  0  0  0  0  0  0
  -29.4255  -10.0278  144.0372 C   0  0  0  0  0  0  0  0  0  0  0  0
  -30.6342   -9.2621  144.0029 C   0  0  0  0  0  0  0  0  0  0  0  0
  -30.9484   -8.5602  142.9238 C   0  0  0  0  0  0  0  0  0  0  0  0
  -30.1417   -8.5495  141.8005 C   0  0  0  0  0  0  0  0  0  0  0  0
  -29.0337   -9.4756  141.7614 C   0  0  0  0  0  0  0  0  0  0  0  0
  -28.6524  -10.1195  142.9627 C   0  0  0  0  0  0  0  0  0  0  0  0
  -28.1971   -9.5441  140.5917 C   0  0  0  0  0  0  0  0  0  0  0  0
  -28.3669   -8.7689  139.4671 C   0  0  0  0  0  0  0  0  0  0  0  0
  -27.9331   -9.1071  138.2147 C   0  0  0  0  0  0  0  0  0  0  0  0
  -27.2090  -10.5834  140.4544 C   0  0  0  0  0  0  0  0  0  0  0  0
  -26.6342  -10.8795  139.2028 C   0  0  0  0  0  0  0  0  0  0  0  0
  -27.0365  -10.1586  138.1697 C   0  0  0  0  0  0  0  0  0  0  0  0
  -28.3163   -8.3191  137.0778 C   0  0  0  0  0  0  0  0  0  0  0  0
  -29.8912  -10.7745  146.2575 O   0  0  0  0  0  0  0  0  0  0  0  0
  -25.8084  -11.9398  139.1548 O   0  0  0  0  0  0  0  0  0  0  0  0
  -31.8977   -7.5977  143.1083 O   0  0  0  0  0  0  0  0  0  0  0  0
  -29.5387  -11.4107  147.4307 C   0  0  0  0  0  0  0  0  0  0  0  0
  -30.7106  -12.2780  147.9880 C   0  0  0  0  0  0  0  0  0  0  0  0
  -30.3963  -13.5859  148.4700 C   0  0  0  0  0  0  0  0  0  0  0  0
  3  4  1  0
  1  8  1  0
  7  9  1  0
  9 10  1  0
 13 16  1  0
 21 23  1  0
 25 29  1  0
 16 30  1  0
 27 31  1  0
 19 32  1  0
 30 33  1  0
 33 34  1  0
 34 35  2  0
 16 17  1  0
 17 18  2  0
 18 19  1  0
 19 20  2  0
 20 21  1  0
 21 22  2  0
 22 17  1  0
  1  2  2  0
  2  3  1  0
  3  7  2  0
  7  6  1  0
  6  5  2  0
  5  1  1  0
 23 24  2  0
 24 25  1  0
 25 28  2  0
 28 27  1  0
 27 26  2  0
 26 23  1  0
 10 11  2  0
 11 12  1  0
 12 13  2  0
 13 14  1  0
 14 15  2  0
 15 10  1  0
M  END

$$$$
No_1288-/dssg/home/sw_qyf/PocketFlow/Model-Generation-Results/5HT2A_7WC7_rec_A_10.pdb/2024-01-01-03-54-21/
     RDKit          3D

  7  7  0  0  0  0  0  0  0  0999 V2000
  -24.1553  -17.8465  145.7021 C   0  0  0  0  0  0  0  0  0  0  0  0
  -24.6364  -17.2931  146.7091 C   0  0  0  0  0  0  0  0  0  0  0  0
  -24.5709  -15.9334  146.8074 C   0  0  0  0  0  0  0  0  0  0  0  0
  -24.2378  -15.1233  145.7159 C   0  0  0  0  0  0  0  0  0  0  0  0
  -23.7252  -15.7878  144.6028 C   0  0  0  0  0  0  0  0  0  0  0  0
  -23.7316  -17.0968  144.6427 N   0  0  0  0  0  0  0  0  0  0  0  0
  -24.0429  -19.2100  145.5626 N   0  0  0  0  0  0  0  0  0  0  0  0
  1  7  1  0
  1  2  2  0
  2  3  1  0
  3  4  2  0
  4  5  1  0
  5  6  2  0
  6  1  1  0
M  END

$$$$
No_1289-/dssg/home/sw_qyf/PocketFlow/Model-Generation-Results/5HT2A_7WC7_rec_A_10.pdb/2024-01-01-03-54-21/
     RDKit          3D

 31 32  0  0  0  0  0  0  0  0999 V2000
  -23.1746  -16.6014  144.8668 C   0  0  0  0  0  0  0  0  0  0  0  0
  -23.8963  -15.5346  144.7885 C   0  0  0  0  0  0  0  0  0  0  0  0
  -24.5755  -15.0383  145.9043 C   0  0  0  0  0  0  0  0  0  0  0  0
  -25.0618  -13.6819  146.0347 C   0  0  0  0  0  0  0  0  0  0  0  0
  -24.0242  -12.8249  145.9593 C   0  0  0  0  0  0  0  0  0  0  0  0
  -23.4085  -17.5675  145.8907 C   0  0  0  0  0  0  0  0  0  0  0  0
  -24.1896  -17.1707  147.0047 C   0  0  0  0  0  0  0  0  0  0  0  0
  -24.7247  -15.8941  147.1004 C   0  0  0  0  0  0  0  0  0  0  0  0
  -26.3540  -13.2621  146.1677 C   0  0  0  0  0  0  0  0  0  0  0  0
  -26.7714  -12.2302  145.7074 C   0  0  0  0  0  0  0  0  0  0  0  0
  -28.1445  -11.7761  145.7257 C   0  0  0  0  0  0  0  0  0  0  0  0
  -28.7001  -10.6513  145.1578 C   0  0  0  0  0  0  0  0  0  0  0  0
  -27.8986   -9.9083  144.3134 C   0  0  0  0  0  0  0  0  0  0  0  0
  -28.4280   -8.7748  143.6814 C   0  0  0  0  0  0  0  0  0  0  0  0
  -29.7980   -8.6465  143.3618 C   0  0  0  0  0  0  0  0  0  0  0  0
  -30.2055   -8.9045  142.4551 C   0  0  0  0  0  0  0  0  0  0  0  0
  -31.6884   -8.7450  142.1232 C   0  0  0  0  0  0  0  0  0  0  0  0
  -24.4388  -11.4097  145.6080 C   0  0  0  0  0  0  0  0  0  0  0  0
  -25.8346  -11.1069  145.4906 C   0  0  0  0  0  0  0  0  0  0  0  0
  -29.5530   -9.4801  141.2374 C   0  0  0  0  0  0  0  0  0  0  0  0
  -29.0894  -10.7752  141.2338 C   0  0  0  0  0  0  0  0  0  0  0  0
  -28.2693  -11.3056  140.2526 C   0  0  0  0  0  0  0  0  0  0  0  0
  -27.9266  -12.6753  140.1804 C   0  0  0  0  0  0  0  0  0  0  0  0
  -26.5169  -12.8247  140.7714 C   0  0  0  0  0  0  0  0  0  0  0  0
  -25.6360  -13.0774  139.8338 O   0  0  0  0  0  0  0  0  0  0  0  0
  -29.1022  -12.7201  146.3664 C   0  0  0  0  0  0  0  0  0  0  0  0
  -29.1489  -13.9811  146.6051 C   0  0  0  0  0  0  0  0  0  0  0  0
  -30.1844  -14.6618  147.2310 C   0  0  0  0  0  0  0  0  0  0  0  0
  -24.2346  -18.1663  148.4391 Cl  0  0  0  0  0  0  0  0  0  0  0  0
  -30.9549  -13.7151  148.0121 C   0  0  0  0  0  0  0  0  0  0  0  0
  -30.8757  -12.4197  148.1297 C   0  0  0  0  0  0  0  0  0  0  0  0
  3  4  1  0
 10 11  1  0
 11 12  1  0
 12 13  2  3
 13 14  1  0
 14 15  1  0
 15 16  1  0
 16 17  1  0
 16 20  1  0
 20 21  2  3
 21 22  1  0
 22 23  1  0
 23 24  1  0
 24 25  1  0
 11 26  1  0
 26 27  2  3
 27 28  1  0
  7 29  1  0
 28 30  2  3
 30 31  1  0
  4  5  2  0
  5 18  1  0
 18 19  2  0
 19 10  1  0
 10  9  2  0
  9  4  1  0
  1  2  2  0
  2  3  1  0
  3  8  2  0
  8  7  1  0
  7  6  2  0
  6  1  1  0
M  END

$$$$
No_1290-/dssg/home/sw_qyf/PocketFlow/Model-Generation-Results/5HT2A_7WC7_rec_A_10.pdb/2024-01-01-03-54-21/
     RDKit          3D

 35 39  0  0  0  0  0  0  0  0999 V2000
  -23.1746  -16.6014  144.8668 C   0  0  0  0  0  0  0  0  0  0  0  0
  -23.8963  -15.5346  144.7885 C   0  0  0  0  0  0  0  0  0  0  0  0
  -24.5755  -15.0383  145.9043 C   0  0  0  0  0  0  0  0  0  0  0  0
  -24.8345  -15.9108  146.9141 C   0  0  0  0  0  0  0  0  0  0  0  0
  -24.2398  -17.1433  146.9649 C   0  0  0  0  0  0  0  0  0  0  0  0
  -23.4221  -17.5266  145.9093 C   0  0  0  0  0  0  0  0  0  0  0  0
  -25.2380  -13.6642  145.8941 C   0  0  0  0  0  0  0  0  0  0  0  0
  -25.7355  -13.0794  144.8827 C   0  0  0  0  0  0  0  0  0  0  0  0
  -26.2375  -11.7715  144.8785 C   0  0  0  0  0  0  0  0  0  0  0  0
  -26.9060  -11.2004  143.8461 C   0  0  0  0  0  0  0  0  0  0  0  0
  -27.3991  -11.9949  142.8460 C   0  0  0  0  0  0  0  0  0  0  0  0
  -26.9280  -13.3489  142.7534 C   0  0  0  0  0  0  0  0  0  0  0  0
  -26.2638  -13.9314  143.7831 C   0  0  0  0  0  0  0  0  0  0  0  0
  -28.1353  -11.4724  141.6833 C   0  0  0  0  0  0  0  0  0  0  0  0
  -27.8947  -11.7306  140.3689 C   0  0  0  0  0  0  0  0  0  0  0  0
  -27.5189  -10.7886  139.3986 C   0  0  0  0  0  0  0  0  0  0  0  0
  -27.7407   -9.5721  139.8729 C   0  0  0  0  0  0  0  0  0  0  0  0
  -28.4700   -9.1018  141.0371 C   0  0  0  0  0  0  0  0  0  0  0  0
  -28.4109  -10.1238  142.0788 C   0  0  0  0  0  0  0  0  0  0  0  0
  -27.7764   -8.4680  138.7408 C   0  0  0  0  0  0  0  0  0  0  0  0
  -28.8155   -8.1490  138.0429 N   0  0  0  0  0  0  0  0  0  0  0  0
  -25.8261  -10.9424  145.9047 O   0  0  0  0  0  0  0  0  0  0  0  0
  -24.3070  -18.0228  148.1765 C   0  0  0  0  0  0  0  0  0  0  0  0
  -24.4630  -17.1622  149.4697 C   0  0  0  0  0  0  0  0  0  0  0  0
  -23.3469  -16.8372  150.1411 C   0  0  0  0  0  0  0  0  0  0  0  0
  -22.0033  -16.8055  149.6079 C   0  0  0  0  0  0  0  0  0  0  0  0
  -21.1546  -16.2121  150.5365 N   0  0  0  0  0  0  0  0  0  0  0  0
  -21.7180  -16.3259  151.8422 N   0  0  0  0  0  0  0  0  0  0  0  0
  -23.1541  -16.6231  151.5722 C   0  0  0  0  0  0  0  0  0  0  0  0
  -30.0889   -8.3361  138.5541 C   0  0  0  0  0  0  0  0  0  0  0  0
  -30.2921   -7.5093  139.8365 C   0  0  0  0  0  0  0  0  0  0  0  0
  -29.9371   -8.4907  141.0565 C   0  0  0  0  0  0  0  0  0  0  0  0
  -30.7254   -8.4718  142.1816 C   0  0  0  0  0  0  0  0  0  0  0  0
  -30.4700   -7.7736  143.3143 C   0  0  0  0  0  0  0  0  0  0  0  0
  -31.8580   -9.2009  142.0273 O   0  0  0  0  0  0  0  0  0  0  0  0
  3  7  1  0
  8  9  1  0
  9 10  1  0
 11 12  1  0
  8 13  1  0
 12 13  1  0
 11 14  1  0
 17 20  1  0
 20 21  1  0
  9 22  2  0
  5 23  1  0
 23 24  1  0
 24 25  2  3
 25 26  1  0
 26 27  1  0
 27 28  2  0
 25 29  1  0
 28 29  1  0
 21 30  1  0
 30 31  1  0
 18 32  1  0
 31 32  1  0
 32 33  1  0
 33 34  1  0
 33 35  1  0
  7  8  1  0
 11 10  1  0
  1  2  2  0
  2  3  1  0
  3  4  2  0
  4  5  1  0
  5  6  2  0
  6  1  1  0
 14 15  2  0
 15 16  1  0
 16 17  2  0
 17 18  1  0
 18 19  2  0
 19 14  1  0
M  END

$$$$
No_1291-/dssg/home/sw_qyf/PocketFlow/Model-Generation-Results/5HT2A_7WC7_rec_A_10.pdb/2024-01-01-03-54-21/
     RDKit          3D

  9  9  0  0  0  0  0  0  0  0999 V2000
  -24.1553  -17.8465  145.7021 C   0  0  0  0  0  0  0  0  0  0  0  0
  -24.6364  -17.2931  146.7091 C   0  0  0  0  0  0  0  0  0  0  0  0
  -24.5709  -15.9334  146.8074 C   0  0  0  0  0  0  0  0  0  0  0  0
  -24.2378  -15.1233  145.7159 C   0  0  0  0  0  0  0  0  0  0  0  0
  -24.2498  -13.6819  145.7156 C   0  0  0  0  0  0  0  0  0  0  0  0
  -23.7380  -17.1272  144.5444 C   0  0  0  0  0  0  0  0  0  0  0  0
  -23.7525  -15.7605  144.6336 C   0  0  0  0  0  0  0  0  0  0  0  0
  -23.4555  -12.8927  144.9592 C   0  0  0  0  0  0  0  0  0  0  0  0
  -23.6307  -11.5352  145.1600 N   0  0  0  0  0  0  0  0  0  0  0  0
  4  5  1  0
  5  8  2  3
  8  9  1  0
  1  2  2  0
  2  3  1  0
  3  4  2  0
  4  7  1  0
  7  6  2  0
  6  1  1  0
M  END

$$$$
No_1292-/dssg/home/sw_qyf/PocketFlow/Model-Generation-Results/5HT2A_7WC7_rec_A_10.pdb/2024-01-01-03-54-21/
     RDKit          3D

 25 26  0  0  0  0  0  0  0  0999 V2000
  -24.1553  -17.8465  145.7021 C   0  0  0  0  0  0  0  0  0  0  0  0
  -24.6364  -17.2931  146.7091 C   0  0  0  0  0  0  0  0  0  0  0  0
  -25.8608  -16.5592  146.5934 C   0  0  0  0  0  0  0  0  0  0  0  0
  -25.9533  -15.5604  145.6681 C   0  0  0  0  0  0  0  0  0  0  0  0
  -27.0678  -14.6961  145.5542 C   0  0  0  0  0  0  0  0  0  0  0  0
  -22.9651  -18.5583  145.8075 C   0  0  0  0  0  0  0  0  0  0  0  0
  -28.1768  -14.9179  146.3990 C   0  0  0  0  0  0  0  0  0  0  0  0
  -28.1349  -15.9025  147.3943 C   0  0  0  0  0  0  0  0  0  0  0  0
  -26.9734  -16.6920  147.5640 C   0  0  0  0  0  0  0  0  0  0  0  0
  -24.0484  -17.4325  148.0658 C   0  0  0  0  0  0  0  0  0  0  0  0
  -27.1695  -13.6631  144.5096 C   0  0  0  0  0  0  0  0  0  0  0  0
  -26.8608  -13.6819  143.4870 C   0  0  0  0  0  0  0  0  0  0  0  0
  -26.0390  -14.6994  142.7599 C   0  0  0  0  0  0  0  0  0  0  0  0
  -25.5721  -14.4415  141.4902 C   0  0  0  0  0  0  0  0  0  0  0  0
  -26.3935  -13.5810  140.6624 C   0  0  0  0  0  0  0  0  0  0  0  0
  -27.4028  -12.7274  141.1589 C   0  0  0  0  0  0  0  0  0  0  0  0
  -27.5916  -12.7941  142.6252 C   0  0  0  0  0  0  0  0  0  0  0  0
  -28.0878  -11.8347  140.4001 C   0  0  0  0  0  0  0  0  0  0  0  0
  -28.9673  -11.1534  141.0735 F   0  0  0  0  0  0  0  0  0  0  0  0
  -27.3201  -10.9244  139.7374 F   0  0  0  0  0  0  0  0  0  0  0  0
  -28.6387  -12.5065  139.3073 F   0  0  0  0  0  0  0  0  0  0  0  0
  -23.4851  -16.2638  148.6171 C   0  0  0  0  0  0  0  0  0  0  0  0
  -22.7370  -16.5773  149.8552 C   0  0  0  0  0  0  0  0  0  0  0  0
  -23.3055  -16.1338  150.8947 F   0  0  0  0  0  0  0  0  0  0  0  0
  -21.4974  -15.8466  149.7850 F   0  0  0  0  0  0  0  0  0  0  0  0
  1  2  1  0
  2  3  1  0
  1  6  1  0
  2 10  1  0
  5 11  1  0
 16 18  1  0
 18 19  1  0
 18 20  1  0
 18 21  1  0
 10 22  1  0
 22 23  2  3
 23 24  1  0
 23 25  1  0
 11 12  1  0
 12 13  2  0
 13 14  1  0
 14 15  2  0
 15 16  1  0
 16 17  2  0
 17 12  1  0
  3  4  2  0
  4  5  1  0
  5  7  2  0
  7  8  1  0
  8  9  2  0
  9  3  1  0
M  END

$$$$
No_1293-/dssg/home/sw_qyf/PocketFlow/Model-Generation-Results/5HT2A_7WC7_rec_A_10.pdb/2024-01-01-03-54-21/
     RDKit          3D

 17 17  0  0  0  0  0  0  0  0999 V2000
  -23.1746  -16.6014  144.8668 C   0  0  0  0  0  0  0  0  0  0  0  0
  -23.8963  -15.5346  144.7885 C   0  0  0  0  0  0  0  0  0  0  0  0
  -23.6398  -14.5115  145.3281 C   0  0  0  0  0  0  0  0  0  0  0  0
  -24.3240  -13.3648  145.1281 C   0  0  0  0  0  0  0  0  0  0  0  0
  -25.5072  -13.2953  144.4353 C   0  0  0  0  0  0  0  0  0  0  0  0
  -25.9151  -14.5889  143.8605 C   0  0  0  0  0  0  0  0  0  0  0  0
  -25.1243  -15.6356  144.0574 C   0  0  0  0  0  0  0  0  0  0  0  0
  -22.1163  -16.5787  145.2940 F   0  0  0  0  0  0  0  0  0  0  0  0
  -23.9026  -17.6730  145.6153 F   0  0  0  0  0  0  0  0  0  0  0  0
  -23.9308  -11.9453  145.7413 C   0  0  0  0  0  0  0  0  0  0  0  0
  -24.3646  -10.9256  145.3002 F   0  0  0  0  0  0  0  0  0  0  0  0
  -24.3810  -11.9301  147.1242 F   0  0  0  0  0  0  0  0  0  0  0  0
  -22.5835  -11.8609  145.7925 F   0  0  0  0  0  0  0  0  0  0  0  0
  -23.0526  -17.2021  143.6068 F   0  0  0  0  0  0  0  0  0  0  0  0
  -27.0892  -14.5597  143.1983 O   0  0  0  0  0  0  0  0  0  0  0  0
  -27.2011  -13.6537  142.1244 C   0  0  0  0  0  0  0  0  0  0  0  0
  -26.8502  -13.9809  140.8385 C   0  0  0  0  0  0  0  0  0  0  0  0
  1  2  1  0
  1  8  1  0
  1  9  1  0
  4 10  1  0
 10 11  1  0
 10 12  1  0
 10 13  1  0
  1 14  1  0
  6 15  1  0
 15 16  1  0
 16 17  3  0
  2  3  2  0
  3  4  1  0
  4  5  2  0
  5  6  1  0
  6  7  2  0
  7  2  1  0
M  END

$$$$
No_1294-/dssg/home/sw_qyf/PocketFlow/Model-Generation-Results/5HT2A_7WC7_rec_A_10.pdb/2024-01-01-03-54-21/
     RDKit          3D

  7  7  0  0  0  0  0  0  0  0999 V2000
  -23.1746  -16.6014  144.8668 C   0  0  0  0  0  0  0  0  0  0  0  0
  -23.8963  -15.5346  144.7885 C   0  0  0  0  0  0  0  0  0  0  0  0
  -24.5755  -15.0383  145.9043 C   0  0  0  0  0  0  0  0  0  0  0  0
  -24.6688  -15.8869  147.0363 C   0  0  0  0  0  0  0  0  0  0  0  0
  -25.3848  -15.4783  148.2170 C   0  0  0  0  0  0  0  0  0  0  0  0
  -23.2972  -17.5078  145.9532 C   0  0  0  0  0  0  0  0  0  0  0  0
  -23.9541  -17.0662  147.0985 C   0  0  0  0  0  0  0  0  0  0  0  0
  4  5  1  0
  1  2  2  0
  2  3  1  0
  3  4  2  0
  4  7  1  0
  7  6  2  0
  6  1  1  0
M  END

$$$$
No_1295-/dssg/home/sw_qyf/PocketFlow/Model-Generation-Results/5HT2A_7WC7_rec_A_10.pdb/2024-01-01-03-54-21/
     RDKit          3D

 21 23  0  0  0  0  0  0  0  0999 V2000
  -24.1553  -17.8465  145.7021 C   0  0  0  0  0  0  0  0  0  0  0  0
  -24.2856  -16.6364  145.3494 C   0  0  0  0  0  0  0  0  0  0  0  0
  -25.0033  -15.6772  146.0737 C   0  0  0  0  0  0  0  0  0  0  0  0
  -25.1197  -14.2835  145.7299 C   0  0  0  0  0  0  0  0  0  0  0  0
  -24.2707  -13.8793  144.6500 C   0  0  0  0  0  0  0  0  0  0  0  0
  -24.8686  -18.3355  146.8179 C   0  0  0  0  0  0  0  0  0  0  0  0
  -23.4213  -14.7686  144.0334 C   0  0  0  0  0  0  0  0  0  0  0  0
  -23.3932  -16.0844  144.3175 C   0  0  0  0  0  0  0  0  0  0  0  0
  -25.6441  -17.4724  147.5881 C   0  0  0  0  0  0  0  0  0  0  0  0
  -25.7767  -16.1272  147.2748 C   0  0  0  0  0  0  0  0  0  0  0  0
  -25.9465  -13.3563  146.4438 C   0  0  0  0  0  0  0  0  0  0  0  0
  -26.4803  -12.2544  145.6903 C   0  0  0  0  0  0  0  0  0  0  0  0
  -27.8836  -12.0726  145.6842 C   0  0  0  0  0  0  0  0  0  0  0  0
  -28.8780  -12.7871  146.3798 C   0  0  0  0  0  0  0  0  0  0  0  0
  -30.1418  -12.2889  146.2948 N   0  0  0  0  0  0  0  0  0  0  0  0
  -29.9351  -11.1643  145.5255 N   0  0  0  0  0  0  0  0  0  0  0  0
  -30.8344  -10.2256  145.1548 C   0  0  0  0  0  0  0  0  0  0  0  0
  -28.5703  -10.9781  145.1884 C   0  0  0  0  0  0  0  0  0  0  0  0
  -28.1185   -9.9099  144.6399 O   0  0  0  0  0  0  0  0  0  0  0  0
  -28.6504  -14.3984  147.1965 S   0  0  0  0  0  0  0  0  0  0  0  0
  -29.3320  -15.5142  146.2666 C   0  0  0  0  0  0  0  0  0  0  0  0
  4 11  1  0
 11 12  1  0
 12 13  2  3
 13 14  1  0
 14 15  1  0
 15 16  1  0
 16 17  1  0
 13 18  1  0
 16 18  1  0
 18 19  2  0
 14 20  1  0
 20 21  1  0
  1  2  2  0
  3 10  2  0
 10  9  1  0
  9  6  2  0
  6  1  1  0
  2  3  1  0
  3  4  1  0
  4  5  2  0
  5  7  1  0
  7  8  2  0
  8  2  1  0
M  END

$$$$
No_1296-/dssg/home/sw_qyf/PocketFlow/Model-Generation-Results/5HT2A_7WC7_rec_A_10.pdb/2024-01-01-03-54-21/
     RDKit          3D

  8  8  0  0  0  0  0  0  0  0999 V2000
  -24.1553  -17.8465  145.7021 C   0  0  0  0  0  0  0  0  0  0  0  0
  -24.6364  -17.2931  146.7091 C   0  0  0  0  0  0  0  0  0  0  0  0
  -24.0780  -17.2921  147.9389 C   0  0  0  0  0  0  0  0  0  0  0  0
  -24.6869  -16.7004  149.1440 C   0  0  0  0  0  0  0  0  0  0  0  0
  -26.0385  -16.2385  148.9552 C   0  0  0  0  0  0  0  0  0  0  0  0
  -26.6430  -16.2999  147.7413 C   0  0  0  0  0  0  0  0  0  0  0  0
  -25.9652  -16.9120  146.6641 C   0  0  0  0  0  0  0  0  0  0  0  0
  -23.6125  -19.1434  145.5723 C   0  0  0  0  0  0  0  0  0  0  0  0
  1  2  1  0
  1  8  1  0
  2  3  2  0
  3  4  1  0
  4  5  2  0
  5  6  1  0
  6  7  2  0
  7  2  1  0
M  END

$$$$
No_1297-/dssg/home/sw_qyf/PocketFlow/Model-Generation-Results/5HT2A_7WC7_rec_A_10.pdb/2024-01-01-03-54-21/
     RDKit          3D

 35 37  0  0  0  0  0  0  0  0999 V2000
  -23.1746  -16.6014  144.8668 C   0  0  0  0  0  0  0  0  0  0  0  0
  -24.0189  -16.0564  145.8445 C   0  0  0  0  0  0  0  0  0  0  0  0
  -24.4850  -14.7380  145.6359 C   0  0  0  0  0  0  0  0  0  0  0  0
  -24.0208  -14.0081  144.6269 C   0  0  0  0  0  0  0  0  0  0  0  0
  -24.6332  -12.7598  144.3256 C   0  0  0  0  0  0  0  0  0  0  0  0
  -24.4333  -11.9691  145.5736 C   0  0  0  0  0  0  0  0  0  0  0  0
  -24.4633  -16.9282  146.9174 C   0  0  0  0  0  0  0  0  0  0  0  0
  -25.2327  -16.2800  147.8704 C   0  0  0  0  0  0  0  0  0  0  0  0
  -25.7518  -17.1199  148.9323 C   0  0  0  0  0  0  0  0  0  0  0  0
  -25.1813  -12.5598  146.7689 C   0  0  0  0  0  0  0  0  0  0  0  0
  -24.6217  -13.9476  146.9836 C   0  0  0  0  0  0  0  0  0  0  0  0
  -24.0195  -18.2264  147.0489 C   0  0  0  0  0  0  0  0  0  0  0  0
  -23.2941  -18.7919  146.1918 N   0  0  0  0  0  0  0  0  0  0  0  0
  -22.9886  -18.1425  144.9959 C   0  0  0  0  0  0  0  0  0  0  0  0
  -26.8825  -16.6799  149.6786 C   0  0  0  0  0  0  0  0  0  0  0  0
  -28.1571  -17.4039  149.5225 C   0  0  0  0  0  0  0  0  0  0  0  0
  -29.3707  -16.6458  149.5768 C   0  0  0  0  0  0  0  0  0  0  0  0
  -29.6213  -15.4269  148.7958 C   0  0  0  0  0  0  0  0  0  0  0  0
  -29.2022  -15.3950  147.5013 C   0  0  0  0  0  0  0  0  0  0  0  0
  -29.5882  -14.1614  146.7816 C   0  0  0  0  0  0  0  0  0  0  0  0
  -28.7696  -13.5841  145.7963 C   0  0  0  0  0  0  0  0  0  0  0  0
  -28.9190  -12.1730  145.4373 C   0  0  0  0  0  0  0  0  0  0  0  0
  -28.4897  -11.6385  144.2566 C   0  0  0  0  0  0  0  0  0  0  0  0
  -29.2400  -10.6164  143.6261 C   0  0  0  0  0  0  0  0  0  0  0  0
  -29.7990   -9.6163  144.4143 C   0  0  0  0  0  0  0  0  0  0  0  0
  -30.6550   -8.6877  143.7468 C   0  0  0  0  0  0  0  0  0  0  0  0
  -31.1578   -9.0737  142.4909 C   0  0  0  0  0  0  0  0  0  0  0  0
  -31.8152   -8.2891  141.8250 O   0  0  0  0  0  0  0  0  0  0  0  0
  -29.1715  -10.4661  142.2402 C   0  0  0  0  0  0  0  0  0  0  0  0
  -30.1452   -9.5622  141.6632 C   0  0  0  0  0  0  0  0  0  0  0  0
  -28.2636  -11.2581  141.4943 C   0  0  0  0  0  0  0  0  0  0  0  0
  -28.0155  -12.4803  141.5668 C   0  0  0  0  0  0  0  0  0  0  0  0
  -27.6684  -10.5742  140.2962 C   0  0  0  0  0  0  0  0  0  0  0  0
  -26.8861  -11.2604  139.4116 C   0  0  0  0  0  0  0  0  0  0  0  0
  -27.1599  -13.2815  140.8143 C   0  0  0  0  0  0  0  0  0  0  0  0
  2  3  1  0
  3  4  1  0
  4  5  1  0
  5  6  1  0
  7  8  1  0
  8  9  2  3
  6 10  1  0
  3 11  1  0
 10 11  1  0
  9 15  1  0
 15 16  2  3
 16 17  1  0
 17 18  1  0
 18 19  2  3
 19 20  1  0
 20 21  2  3
 21 22  1  0
 22 23  1  0
 23 24  1  0
 24 25  1  0
 25 26  1  0
 26 27  1  0
 27 28  1  0
 24 29  1  0
 27 30  1  0
 29 30  1  0
 29 31  1  0
 31 32  2  3
 31 33  1  0
 33 34  2  0
 32 35  1  0
  1  2  2  0
  2  7  1  0
  7 12  2  0
 12 13  1  0
 13 14  2  0
 14  1  1  0
M  END

$$$$
No_1298-/dssg/home/sw_qyf/PocketFlow/Model-Generation-Results/5HT2A_7WC7_rec_A_10.pdb/2024-01-01-03-54-21/
     RDKit          3D

 28 31  0  0  0  0  0  0  0  0999 V2000
  -24.1553  -17.8465  145.7021 C   0  0  0  0  0  0  0  0  0  0  0  0
  -24.2856  -16.6364  145.3494 C   0  0  0  0  0  0  0  0  0  0  0  0
  -25.0033  -15.6772  146.0737 C   0  0  0  0  0  0  0  0  0  0  0  0
  -25.1197  -14.2835  145.7299 C   0  0  0  0  0  0  0  0  0  0  0  0
  -24.2707  -13.8793  144.6500 C   0  0  0  0  0  0  0  0  0  0  0  0
  -24.8686  -18.3355  146.8179 C   0  0  0  0  0  0  0  0  0  0  0  0
  -23.4213  -14.7686  144.0334 C   0  0  0  0  0  0  0  0  0  0  0  0
  -23.3932  -16.0844  144.3175 C   0  0  0  0  0  0  0  0  0  0  0  0
  -25.6441  -17.4724  147.5881 C   0  0  0  0  0  0  0  0  0  0  0  0
  -25.7767  -16.1272  147.2748 C   0  0  0  0  0  0  0  0  0  0  0  0
  -25.9337  -13.3425  146.4506 C   0  0  0  0  0  0  0  0  0  0  0  0
  -27.3080  -13.3796  146.1938 C   0  0  0  0  0  0  0  0  0  0  0  0
  -28.1157  -13.9912  146.4529 C   0  0  0  0  0  0  0  0  0  0  0  0
  -29.5818  -13.5745  146.3727 C   0  0  0  0  0  0  0  0  0  0  0  0
  -30.5916  -14.2610  147.0702 C   0  0  0  0  0  0  0  0  0  0  0  0
  -27.5090  -12.2404  145.1398 C   0  0  0  0  0  0  0  0  0  0  0  0
  -27.2445  -10.9903  145.3336 C   0  0  0  0  0  0  0  0  0  0  0  0
  -27.5244   -9.8925  144.4553 C   0  0  0  0  0  0  0  0  0  0  0  0
  -28.3144  -10.1932  143.3719 C   0  0  0  0  0  0  0  0  0  0  0  0
  -29.0399   -9.1853  142.7585 C   0  0  0  0  0  0  0  0  0  0  0  0
  -29.6480   -9.4067  141.5350 C   0  0  0  0  0  0  0  0  0  0  0  0
  -30.2634   -8.2562  140.9619 C   0  0  0  0  0  0  0  0  0  0  0  0
  -30.0648   -7.0109  141.6777 C   0  0  0  0  0  0  0  0  0  0  0  0
  -29.4212   -6.8562  142.8665 C   0  0  0  0  0  0  0  0  0  0  0  0
  -28.8350   -7.9312  143.3415 C   0  0  0  0  0  0  0  0  0  0  0  0
  -29.1258  -11.4248  143.9944 C   0  0  0  0  0  0  0  0  0  0  0  0
  -28.5060  -12.5403  144.4633 C   0  0  0  0  0  0  0  0  0  0  0  0
  -29.1274   -5.2628  143.4507 Cl  0  0  0  0  0  0  0  0  0  0  0  0
  4 11  1  0
 11 12  1  0
 12 13  2  3
 13 14  1  0
 14 15  2  0
 12 16  1  0
 19 20  1  0
 24 28  1  0
 16 17  2  0
 17 18  1  0
 18 19  2  0
 19 26  1  0
 26 27  2  0
 27 16  1  0
  1  2  2  0
  3 10  2  0
 10  9  1  0
  9  6  2  0
  6  1  1  0
 20 21  2  0
 21 22  1  0
 22 23  2  0
 23 24  1  0
 24 25  2  0
 25 20  1  0
  2  3  1  0
  3  4  1  0
  4  5  2  0
  5  7  1  0
  7  8  2  0
  8  2  1  0
M  END

$$$$
No_1299-/dssg/home/sw_qyf/PocketFlow/Model-Generation-Results/5HT2A_7WC7_rec_A_10.pdb/2024-01-01-03-54-21/
     RDKit          3D

  7  7  0  0  0  0  0  0  0  0999 V2000
  -23.1746  -16.6014  144.8668 C   0  0  0  0  0  0  0  0  0  0  0  0
  -23.7011  -17.0158  145.9774 C   0  0  0  0  0  0  0  0  0  0  0  0
  -23.7336  -18.2775  146.3737 C   0  0  0  0  0  0  0  0  0  0  0  0
  -23.2769  -15.1496  144.5841 C   0  0  0  0  0  0  0  0  0  0  0  0
  -24.0283  -14.2099  145.3704 C   0  0  0  0  0  0  0  0  0  0  0  0
  -24.6472  -14.7123  146.5451 C   0  0  0  0  0  0  0  0  0  0  0  0
  -24.4752  -16.0939  146.8994 C   0  0  0  0  0  0  0  0  0  0  0  0
  2  3  1  0
  1  2  2  0
  2  7  1  0
  7  6  2  0
  6  5  1  0
  5  4  2  0
  4  1  1  0
M  END

$$$$
No_1300-/dssg/home/sw_qyf/PocketFlow/Model-Generation-Results/5HT2A_7WC7_rec_A_10.pdb/2024-01-01-03-54-21/
     RDKit          3D

  8  8  0  0  0  0  0  0  0  0999 V2000
  -23.1746  -16.6014  144.8668 C   0  0  0  0  0  0  0  0  0  0  0  0
  -23.7011  -17.0158  145.9774 C   0  0  0  0  0  0  0  0  0  0  0  0
  -23.7336  -18.2775  146.3737 C   0  0  0  0  0  0  0  0  0  0  0  0
  -23.5007  -19.1715  145.4454 N   0  0  0  0  0  0  0  0  0  0  0  0
  -23.2341  -15.1762  144.4927 C   0  0  0  0  0  0  0  0  0  0  0  0
  -23.9301  -14.2171  145.2707 C   0  0  0  0  0  0  0  0  0  0  0  0
  -24.5266  -14.6885  146.4877 C   0  0  0  0  0  0  0  0  0  0  0  0
  -24.4028  -16.0296  146.8750 C   0  0  0  0  0  0  0  0  0  0  0  0
  3  4  1  0
  3  2  1  0
  1  2  2  0
  2  8  1  0
  8  7  2  0
  7  6  1  0
  6  5  2  0
  5  1  1  0
M  END

$$$$
No_1301-/dssg/home/sw_qyf/PocketFlow/Model-Generation-Results/5HT2A_7WC7_rec_A_10.pdb/2024-01-01-03-54-21/
     RDKit          3D

 35 38  0  0  0  0  0  0  0  0999 V2000
  -23.1746  -16.6014  144.8668 C   0  0  0  0  0  0  0  0  0  0  0  0
  -23.7011  -17.0158  145.9774 C   0  0  0  0  0  0  0  0  0  0  0  0
  -24.7096  -16.6222  146.3577 C   0  0  0  0  0  0  0  0  0  0  0  0
  -25.2589  -16.9410  147.8027 C   0  0  0  0  0  0  0  0  0  0  0  0
  -24.3234  -17.5558  148.6398 C   0  0  0  0  0  0  0  0  0  0  0  0
  -23.7919  -15.5148  144.2100 C   0  0  0  0  0  0  0  0  0  0  0  0
  -24.8968  -14.8817  144.7775 C   0  0  0  0  0  0  0  0  0  0  0  0
  -25.3730  -15.4146  145.9639 C   0  0  0  0  0  0  0  0  0  0  0  0
  -23.0971  -18.0150  148.1063 C   0  0  0  0  0  0  0  0  0  0  0  0
  -22.6908  -17.7297  146.8489 C   0  0  0  0  0  0  0  0  0  0  0  0
  -25.6078  -13.8385  144.0229 C   0  0  0  0  0  0  0  0  0  0  0  0
  -25.6091  -13.7609  142.8461 O   0  0  0  0  0  0  0  0  0  0  0  0
  -26.1674  -12.7718  144.7005 N   0  0  0  0  0  0  0  0  0  0  0  0
  -26.2529  -12.5980  146.1198 C   0  0  0  0  0  0  0  0  0  0  0  0
  -25.6318  -11.0923  146.3097 C   0  0  0  0  0  0  0  0  0  0  0  0
  -26.5347  -16.5351  148.3001 C   0  0  0  0  0  0  0  0  0  0  0  0
  -26.8049  -16.9223  149.4404 F   0  0  0  0  0  0  0  0  0  0  0  0
  -26.6242  -15.1751  148.2117 F   0  0  0  0  0  0  0  0  0  0  0  0
  -27.5357  -16.9413  147.4324 F   0  0  0  0  0  0  0  0  0  0  0  0
  -26.2764  -10.3150  145.2457 C   0  0  0  0  0  0  0  0  0  0  0  0
  -26.4363  -10.7249  143.8966 C   0  0  0  0  0  0  0  0  0  0  0  0
  -26.6674  -11.9992  143.7190 C   0  0  0  0  0  0  0  0  0  0  0  0
  -28.3317  -12.0182  144.1323 C   0  0  0  0  0  0  0  0  0  0  0  0
  -28.9994  -10.8016  143.7029 C   0  0  0  0  0  0  0  0  0  0  0  0
  -29.1888  -10.4822  142.3909 C   0  0  0  0  0  0  0  0  0  0  0  0
  -29.8115   -9.3391  142.0004 C   0  0  0  0  0  0  0  0  0  0  0  0
  -30.6968   -8.6523  142.9524 C   0  0  0  0  0  0  0  0  0  0  0  0
  -30.7285   -9.1279  144.3226 C   0  0  0  0  0  0  0  0  0  0  0  0
  -29.8626  -10.1809  144.7389 C   0  0  0  0  0  0  0  0  0  0  0  0
  -29.0487   -8.3459  141.2599 C   0  0  0  0  0  0  0  0  0  0  0  0
  -29.5976   -8.2298  139.8244 C   0  0  0  0  0  0  0  0  0  0  0  0
  -28.5955   -8.2577  138.7654 C   0  0  0  0  0  0  0  0  0  0  0  0
  -27.5490   -8.1724  138.9058 C   0  0  0  0  0  0  0  0  0  0  0  0
  -26.8896   -8.9143  139.9943 C   0  0  0  0  0  0  0  0  0  0  0  0
  -31.4468   -7.6506  142.6258 O   0  0  0  0  0  0  0  0  0  0  0  0
  7 11  1  0
 11 12  1  0
 11 13  1  0
 13 14  1  0
 14 15  1  0
  4 16  1  0
 16 17  1  0
 16 18  1  0
 16 19  1  0
 15 20  1  0
 20 21  1  0
 13 22  1  0
 21 22  1  0
 22 23  1  0
 23 24  1  0
 26 30  1  0
 30 31  1  0
 31 32  1  0
 32 33  2  3
 33 34  1  0
 27 35  1  0
 24 25  2  0
 25 26  1  0
 26 27  2  0
 27 28  1  0
 28 29  2  0
 29 24  1  0
  1  2  2  0
  3  8  2  0
  8  7  1  0
  7  6  2  0
  6  1  1  0
  2  3  1  0
  3  4  1  0
  4  5  2  0
  5  9  1  0
  9 10  2  0
 10  2  1  0
M  END

$$$$
No_1302-/dssg/home/sw_qyf/PocketFlow/Model-Generation-Results/5HT2A_7WC7_rec_A_10.pdb/2024-01-01-03-54-21/
     RDKit          3D

 35 37  0  0  0  0  0  0  0  0999 V2000
  -23.1746  -16.6014  144.8668 C   0  0  0  0  0  0  0  0  0  0  0  0
  -23.8963  -15.5346  144.7885 C   0  0  0  0  0  0  0  0  0  0  0  0
  -23.6398  -14.5115  145.3281 C   0  0  0  0  0  0  0  0  0  0  0  0
  -24.3240  -13.3648  145.1281 C   0  0  0  0  0  0  0  0  0  0  0  0
  -25.5072  -13.2953  144.4353 C   0  0  0  0  0  0  0  0  0  0  0  0
  -25.9151  -14.5889  143.8605 C   0  0  0  0  0  0  0  0  0  0  0  0
  -25.1243  -15.6356  144.0574 C   0  0  0  0  0  0  0  0  0  0  0  0
  -22.1272  -16.5824  145.3388 F   0  0  0  0  0  0  0  0  0  0  0  0
  -23.9291  -17.6848  145.5735 F   0  0  0  0  0  0  0  0  0  0  0  0
  -23.9318  -11.9440  145.7388 C   0  0  0  0  0  0  0  0  0  0  0  0
  -23.0806  -12.0729  146.6309 O   0  0  0  0  0  0  0  0  0  0  0  0
  -24.4645  -10.9655  145.2558 O   0  0  0  0  0  0  0  0  0  0  0  0
  -23.0179  -17.1908  143.6074 F   0  0  0  0  0  0  0  0  0  0  0  0
  -27.0899  -14.5785  143.1875 O   0  0  0  0  0  0  0  0  0  0  0  0
  -27.1977  -13.6419  142.1276 C   0  0  0  0  0  0  0  0  0  0  0  0
  -26.9769  -13.9577  140.8158 C   0  0  0  0  0  0  0  0  0  0  0  0
  -27.0507  -12.8356  139.9154 C   0  0  0  0  0  0  0  0  0  0  0  0
  -27.6581  -11.5278  140.2104 C   0  0  0  0  0  0  0  0  0  0  0  0
  -28.0190  -11.3374  141.6259 C   0  0  0  0  0  0  0  0  0  0  0  0
  -27.8098  -12.2970  142.5645 C   0  0  0  0  0  0  0  0  0  0  0  0
  -27.7990  -10.3786  139.0780 Cl  0  0  0  0  0  0  0  0  0  0  0  0
  -28.5359  -10.0846  142.1691 C   0  0  0  0  0  0  0  0  0  0  0  0
  -29.8275  -10.0549  142.3130 C   0  0  0  0  0  0  0  0  0  0  0  0
  -30.5411   -8.8745  142.7260 C   0  0  0  0  0  0  0  0  0  0  0  0
  -31.9136   -8.8754  143.1196 C   0  0  0  0  0  0  0  0  0  0  0  0
  -29.9992   -7.5395  142.3717 C   0  0  0  0  0  0  0  0  0  0  0  0
  -29.9348   -6.9867  141.0981 C   0  0  0  0  0  0  0  0  0  0  0  0
  -29.1564   -5.8050  140.9767 C   0  0  0  0  0  0  0  0  0  0  0  0
  -29.2675   -5.0296  139.8864 C   0  0  0  0  0  0  0  0  0  0  0  0
  -32.8862   -9.3968  142.4829 O   0  0  0  0  0  0  0  0  0  0  0  0
  -30.2682   -7.7276  139.9852 C   0  0  0  0  0  0  0  0  0  0  0  0
  -29.9168   -7.2986  138.6512 C   0  0  0  0  0  0  0  0  0  0  0  0
  -29.3807   -5.9475  138.6643 C   0  0  0  0  0  0  0  0  0  0  0  0
  -26.6420  -12.7622  138.6485 O   0  0  0  0  0  0  0  0  0  0  0  0
  -31.9187   -9.0255  144.4803 O   0  0  0  0  0  0  0  0  0  0  0  0
  1  2  1  0
  1  8  1  0
  1  9  1  0
  4 10  1  0
 10 11  1  0
 10 12  2  0
  1 13  1  0
  6 14  1  0
 14 15  1  0
 18 21  1  0
 19 22  1  0
 22 23  2  3
 23 24  1  0
 24 25  1  0
 24 26  1  0
 25 30  1  0
 17 34  1  0
 25 35  2  0
 26 27  1  0
 15 16  2  0
 16 17  1  0
 17 18  2  0
 18 19  1  0
 19 20  2  0
 20 15  1  0
  2  3  2  0
  3  4  1  0
  4  5  2  0
  5  6  1  0
  6  7  2  0
  7  2  1  0
 27 28  2  0
 28 29  1  0
 29 33  2  0
 33 32  1  0
 32 31  2  0
 31 27  1  0
M  END

$$$$
No_1303-/dssg/home/sw_qyf/PocketFlow/Model-Generation-Results/5HT2A_7WC7_rec_A_10.pdb/2024-01-01-03-54-21/
     RDKit          3D

 24 25  0  0  0  0  0  0  0  0999 V2000
  -24.1553  -17.8465  145.7021 C   0  0  0  0  0  0  0  0  0  0  0  0
  -24.6364  -17.2931  146.7091 C   0  0  0  0  0  0  0  0  0  0  0  0
  -25.8608  -16.5592  146.5934 C   0  0  0  0  0  0  0  0  0  0  0  0
  -26.9933  -16.9082  147.1889 C   0  0  0  0  0  0  0  0  0  0  0  0
  -28.2114  -16.1477  146.9896 C   0  0  0  0  0  0  0  0  0  0  0  0
  -28.1869  -14.8900  146.3591 C   0  0  0  0  0  0  0  0  0  0  0  0
  -27.0594  -14.4188  146.0488 C   0  0  0  0  0  0  0  0  0  0  0  0
  -25.7771  -15.2318  146.0857 C   0  0  0  0  0  0  0  0  0  0  0  0
  -27.0093  -13.0121  145.5715 C   0  0  0  0  0  0  0  0  0  0  0  0
  -28.0400  -12.3092  145.1849 C   0  0  0  0  0  0  0  0  0  0  0  0
  -27.9717  -10.9703  144.6618 C   0  0  0  0  0  0  0  0  0  0  0  0
  -29.0897  -10.2485  144.1747 C   0  0  0  0  0  0  0  0  0  0  0  0
  -29.1800   -9.8946  142.8659 C   0  0  0  0  0  0  0  0  0  0  0  0
  -28.6583  -10.7086  141.9202 C   0  0  0  0  0  0  0  0  0  0  0  0
  -28.9084  -12.0406  141.7961 C   0  0  0  0  0  0  0  0  0  0  0  0
  -28.2479  -12.7532  140.7151 C   0  0  0  0  0  0  0  0  0  0  0  0
  -27.6194  -11.9863  139.6978 C   0  0  0  0  0  0  0  0  0  0  0  0
  -27.4375  -10.6086  139.7711 C   0  0  0  0  0  0  0  0  0  0  0  0
  -27.9497   -9.9353  140.9284 C   0  0  0  0  0  0  0  0  0  0  0  0
  -30.1464   -8.8665  142.4875 C   0  0  0  0  0  0  0  0  0  0  0  0
  -31.2735   -8.4687  143.2184 C   0  0  0  0  0  0  0  0  0  0  0  0
  -23.9878  -17.4381  148.0376 C   0  0  0  0  0  0  0  0  0  0  0  0
  -22.5425  -17.4586  148.1264 C   0  0  0  0  0  0  0  0  0  0  0  0
  -30.0381   -8.1497  141.2258 C   0  0  0  0  0  0  0  0  0  0  0  0
  1  2  1  0
  2  3  1  0
  7  9  1  0
  9 10  2  3
 10 11  1  0
 11 12  1  0
 12 13  1  0
 13 14  1  0
 13 20  1  0
 20 21  1  0
  2 22  1  0
 22 23  1  0
 20 24  1  0
 14 15  2  0
 15 16  1  0
 16 17  2  0
 17 18  1  0
 18 19  2  0
 19 14  1  0
  3  4  2  0
  4  5  1  0
  5  6  2  0
  6  7  1  0
  7  8  2  0
  8  3  1  0
M  END

$$$$
No_1304-/dssg/home/sw_qyf/PocketFlow/Model-Generation-Results/5HT2A_7WC7_rec_A_10.pdb/2024-01-01-03-54-21/
     RDKit          3D

 22 24  0  0  0  0  0  0  0  0999 V2000
  -24.1553  -17.8465  145.7021 C   0  0  0  0  0  0  0  0  0  0  0  0
  -24.2856  -16.6364  145.3494 C   0  0  0  0  0  0  0  0  0  0  0  0
  -24.7837  -15.7223  145.8474 C   0  0  0  0  0  0  0  0  0  0  0  0
  -25.6062  -15.9757  147.0426 C   0  0  0  0  0  0  0  0  0  0  0  0
  -24.5672  -18.1576  146.7819 C   0  0  0  0  0  0  0  0  0  0  0  0
  -25.4020  -17.2534  147.5865 C   0  0  0  0  0  0  0  0  0  0  0  0
  -25.0125  -14.2331  145.3813 C   0  0  0  0  0  0  0  0  0  0  0  0
  -24.0636  -13.8128  144.5615 C   0  0  0  0  0  0  0  0  0  0  0  0
  -25.9397  -13.3759  145.9462 C   0  0  0  0  0  0  0  0  0  0  0  0
  -26.0152  -12.0209  145.5934 C   0  0  0  0  0  0  0  0  0  0  0  0
  -27.1604  -11.2623  145.6866 C   0  0  0  0  0  0  0  0  0  0  0  0
  -27.3807  -10.2406  144.7303 C   0  0  0  0  0  0  0  0  0  0  0  0
  -28.6936   -9.8427  144.4131 C   0  0  0  0  0  0  0  0  0  0  0  0
  -28.9825   -9.1798  143.2208 C   0  0  0  0  0  0  0  0  0  0  0  0
  -28.8787   -9.8920  141.9611 C   0  0  0  0  0  0  0  0  0  0  0  0
  -28.6930   -9.2106  140.8502 C   0  0  0  0  0  0  0  0  0  0  0  0
  -29.2829   -7.9791  140.6396 C   0  0  0  0  0  0  0  0  0  0  0  0
  -29.5515   -7.2208  141.8666 C   0  0  0  0  0  0  0  0  0  0  0  0
  -29.4079   -7.8864  143.1403 C   0  0  0  0  0  0  0  0  0  0  0  0
  -29.7840  -10.3540  145.2312 C   0  0  0  0  0  0  0  0  0  0  0  0
  -29.5307  -11.3972  146.2657 C   0  0  0  0  0  0  0  0  0  0  0  0
  -28.1969  -11.8361  146.4628 C   0  0  0  0  0  0  0  0  0  0  0  0
  3  7  1  0
  7  8  2  0
  7  9  1  0
  9 10  1  0
 10 11  1  0
 13 14  1  0
 11 12  2  0
 12 13  1  0
 13 20  2  0
 20 21  1  0
 21 22  2  0
 22 11  1  0
 14 15  2  0
 15 16  1  0
 16 17  2  0
 17 18  1  0
 18 19  2  0
 19 14  1  0
  1  2  2  0
  2  3  1  0
  3  4  2  0
  4  6  1  0
  6  5  2  0
  5  1  1  0
M  END

$$$$
No_1305-/dssg/home/sw_qyf/PocketFlow/Model-Generation-Results/5HT2A_7WC7_rec_A_10.pdb/2024-01-01-03-54-21/
     RDKit          3D

 35 37  0  0  0  0  0  0  0  0999 V2000
  -24.1553  -17.8465  145.7021 C   0  0  0  0  0  0  0  0  0  0  0  0
  -24.6364  -17.2931  146.7091 C   0  0  0  0  0  0  0  0  0  0  0  0
  -24.5709  -15.9334  146.8074 C   0  0  0  0  0  0  0  0  0  0  0  0
  -25.1945  -15.2026  145.8427 C   0  0  0  0  0  0  0  0  0  0  0  0
  -26.3677  -14.6515  145.8558 C   0  0  0  0  0  0  0  0  0  0  0  0
  -26.6630  -13.6621  144.9290 C   0  0  0  0  0  0  0  0  0  0  0  0
  -26.1965  -13.7391  143.7007 C   0  0  0  0  0  0  0  0  0  0  0  0
  -24.7892  -14.1336  143.6098 C   0  0  0  0  0  0  0  0  0  0  0  0
  -24.3934  -15.2035  144.5768 C   0  0  0  0  0  0  0  0  0  0  0  0
  -23.9797  -19.2521  145.5856 C   0  0  0  0  0  0  0  0  0  0  0  0
  -26.5776  -12.6424  142.7618 C   0  0  0  0  0  0  0  0  0  0  0  0
  -27.5895  -12.9466  141.7269 C   0  0  0  0  0  0  0  0  0  0  0  0
  -27.1271  -13.6341  140.6279 C   0  0  0  0  0  0  0  0  0  0  0  0
  -27.0875  -12.6812  139.4526 C   0  0  0  0  0  0  0  0  0  0  0  0
  -28.1305  -11.7646  139.1886 C   0  0  0  0  0  0  0  0  0  0  0  0
  -27.7274  -10.5756  138.4548 C   0  0  0  0  0  0  0  0  0  0  0  0
  -28.1365   -9.2704  139.1884 C   0  0  0  0  0  0  0  0  0  0  0  0
  -28.4952   -8.1683  138.4363 C   0  0  0  0  0  0  0  0  0  0  0  0
  -28.6851   -8.2619  137.1110 C   0  0  0  0  0  0  0  0  0  0  0  0
  -24.6886  -18.1073  147.8915 C   0  0  0  0  0  0  0  0  0  0  0  0
  -24.9618  -17.4167  149.2210 C   0  0  0  0  0  0  0  0  0  0  0  0
  -25.9589  -17.8592  150.0005 C   0  0  0  0  0  0  0  0  0  0  0  0
  -28.1690   -9.3357  140.6605 C   0  0  0  0  0  0  0  0  0  0  0  0
  -29.3852   -8.9850  141.3272 C   0  0  0  0  0  0  0  0  0  0  0  0
  -29.6081   -9.3526  142.6618 C   0  0  0  0  0  0  0  0  0  0  0  0
  -28.9659  -10.3844  143.2254 C   0  0  0  0  0  0  0  0  0  0  0  0
  -29.2704  -10.7126  144.6367 C   0  0  0  0  0  0  0  0  0  0  0  0
  -30.2715   -9.9148  145.2088 N   0  0  0  0  0  0  0  0  0  0  0  0
  -30.9417   -8.9727  144.5682 C   0  0  0  0  0  0  0  0  0  0  0  0
  -30.6189   -8.6473  143.3321 N   0  0  0  0  0  0  0  0  0  0  0  0
  -31.3478   -7.6179  142.6360 C   0  0  0  0  0  0  0  0  0  0  0  0
  -28.6883  -11.5731  145.3206 O   0  0  0  0  0  0  0  0  0  0  0  0
  -25.8998  -12.6172  138.8264 O   0  0  0  0  0  0  0  0  0  0  0  0
  -30.1873   -7.8895  140.8011 C   0  0  0  0  0  0  0  0  0  0  0  0
  -30.9598   -7.2646  141.5524 N   0  0  0  0  0  0  0  0  0  0  0  0
  1  2  1  0
  2  3  1  0
  3  4  1  0
  1 10  2  0
  7 11  1  0
 11 12  1  0
 12 13  1  0
 13 14  1  0
 14 15  1  0
 15 16  1  0
 16 17  1  0
 17 18  2  3
 18 19  1  0
  2 20  1  0
 20 21  1  0
 21 22  1  0
 17 23  1  0
 23 24  1  0
 24 25  1  0
 26 27  1  0
 27 28  1  0
 25 30  1  0
 29 30  1  0
 30 31  1  0
 27 32  2  0
 14 33  2  0
 24 34  1  0
 34 35  1  0
 35 31  1  0
 25 26  1  0
 28 29  1  0
  4  5  2  0
  5  6  1  0
  6  7  2  0
  7  8  1  0
  8  9  2  0
  9  4  1  0
M  END

$$$$
No_1306-/dssg/home/sw_qyf/PocketFlow/Model-Generation-Results/5HT2A_7WC7_rec_A_10.pdb/2024-01-01-03-54-21/
     RDKit          3D

 35 37  0  0  0  0  0  0  0  0999 V2000
  -23.1746  -16.6014  144.8668 C   0  0  0  0  0  0  0  0  0  0  0  0
  -23.7011  -17.0158  145.9774 C   0  0  0  0  0  0  0  0  0  0  0  0
  -24.2134  -16.0722  146.8877 C   0  0  0  0  0  0  0  0  0  0  0  0
  -24.5407  -14.7704  146.3552 C   0  0  0  0  0  0  0  0  0  0  0  0
  -24.1607  -14.4055  145.0934 C   0  0  0  0  0  0  0  0  0  0  0  0
  -23.4579  -15.3395  144.3578 C   0  0  0  0  0  0  0  0  0  0  0  0
  -23.4856  -18.3924  146.5546 C   0  0  0  0  0  0  0  0  0  0  0  0
  -24.3141  -13.1832  144.6883 F   0  0  0  0  0  0  0  0  0  0  0  0
  -24.1841  -19.1711  146.4629 O   0  0  0  0  0  0  0  0  0  0  0  0
  -22.3151  -18.5779  147.1369 O   0  0  0  0  0  0  0  0  0  0  0  0
  -24.7547  -16.4790  148.2610 C   0  0  0  0  0  0  0  0  0  0  0  0
  -26.0888  -16.4651  148.4672 N   0  0  0  0  0  0  0  0  0  0  0  0
  -26.8516  -17.2739  148.0704 C   0  0  0  0  0  0  0  0  0  0  0  0
  -28.3453  -17.0176  148.2343 C   0  0  0  0  0  0  0  0  0  0  0  0
  -28.7020  -15.6584  147.6680 C   0  0  0  0  0  0  0  0  0  0  0  0
  -29.7678  -14.9673  148.1936 C   0  0  0  0  0  0  0  0  0  0  0  0
  -29.9550  -13.6405  147.7668 C   0  0  0  0  0  0  0  0  0  0  0  0
  -28.9870  -13.0187  146.9199 C   0  0  0  0  0  0  0  0  0  0  0  0
  -27.8776  -13.7313  146.4743 C   0  0  0  0  0  0  0  0  0  0  0  0
  -27.6790  -15.0711  146.9193 C   0  0  0  0  0  0  0  0  0  0  0  0
  -29.2208  -11.6992  146.4424 N   0  0  0  0  0  0  0  0  0  0  0  0
  -28.5681  -11.0930  145.4390 C   0  0  0  0  0  0  0  0  0  0  0  0
  -29.2381  -10.2468  144.5165 C   0  0  0  0  0  0  0  0  0  0  0  0
  -30.4785   -9.7746  144.6918 C   0  0  0  0  0  0  0  0  0  0  0  0
  -31.1736   -8.9188  143.8210 C   0  0  0  0  0  0  0  0  0  0  0  0
  -30.5773   -8.5594  142.6537 C   0  0  0  0  0  0  0  0  0  0  0  0
  -29.2632   -9.0695  142.3575 C   0  0  0  0  0  0  0  0  0  0  0  0
  -28.6232   -9.9757  143.3003 C   0  0  0  0  0  0  0  0  0  0  0  0
  -27.3340  -11.5154  145.1737 O   0  0  0  0  0  0  0  0  0  0  0  0
  -28.6802   -8.8044  141.0765 C   0  0  0  0  0  0  0  0  0  0  0  0
  -27.8533   -9.7103  140.4113 C   0  0  0  0  0  0  0  0  0  0  0  0
  -27.4519   -9.3844  139.1042 C   0  0  0  0  0  0  0  0  0  0  0  0
  -28.0340   -8.2660  138.4607 C   0  0  0  0  0  0  0  0  0  0  0  0
  -29.2529   -7.8098  140.1429 C   0  0  0  0  0  0  0  0  0  0  0  0
  -27.7075   -8.0330  137.1281 N   0  0  0  0  0  0  0  0  0  0  0  0
  2  7  1  0
  5  8  1  0
  7  9  1  0
  7 10  2  0
  3 11  1  0
 11 12  1  0
 12 13  1  0
 13 14  2  3
 14 15  1  0
 18 21  1  0
 21 22  1  0
 22 23  1  0
 22 29  2  0
 27 30  1  0
 30 31  2  3
 31 32  1  0
 32 33  2  3
 30 34  1  0
 33 35  1  0
 15 16  2  0
 16 17  1  0
 17 18  2  0
 18 19  1  0
 19 20  2  0
 20 15  1  0
  1  2  2  0
  2  3  1  0
  3  4  2  0
  4  5  1  0
  5  6  2  0
  6  1  1  0
 23 24  2  0
 24 25  1  0
 25 26  2  0
 26 27  1  0
 27 28  2  0
 28 23  1  0
M  END

$$$$
No_1307-/dssg/home/sw_qyf/PocketFlow/Model-Generation-Results/5HT2A_7WC7_rec_A_10.pdb/2024-01-01-03-54-21/
     RDKit          3D

 35 37  0  0  0  0  0  0  0  0999 V2000
  -23.1746  -16.6014  144.8668 C   0  0  0  0  0  0  0  0  0  0  0  0
  -23.8963  -15.5346  144.7885 C   0  0  0  0  0  0  0  0  0  0  0  0
  -24.5755  -15.0383  145.9043 C   0  0  0  0  0  0  0  0  0  0  0  0
  -24.6688  -15.8869  147.0363 C   0  0  0  0  0  0  0  0  0  0  0  0
  -24.0226  -17.0824  147.0622 C   0  0  0  0  0  0  0  0  0  0  0  0
  -23.2575  -17.4593  145.9560 C   0  0  0  0  0  0  0  0  0  0  0  0
  -25.3270  -13.7158  145.9348 C   0  0  0  0  0  0  0  0  0  0  0  0
  -24.7096  -12.7416  145.4939 C   0  0  0  0  0  0  0  0  0  0  0  0
  -25.3472  -11.3768  145.4559 C   0  0  0  0  0  0  0  0  0  0  0  0
  -26.7415  -11.3445  145.8372 C   0  0  0  0  0  0  0  0  0  0  0  0
  -27.3557  -12.4597  146.3633 C   0  0  0  0  0  0  0  0  0  0  0  0
  -26.6640  -13.7217  146.3773 C   0  0  0  0  0  0  0  0  0  0  0  0
  -28.7845  -12.3786  146.7866 C   0  0  0  0  0  0  0  0  0  0  0  0
  -29.5145  -11.4869  146.3668 O   0  0  0  0  0  0  0  0  0  0  0  0
  -29.2450  -13.2837  147.6803 N   0  0  0  0  0  0  0  0  0  0  0  0
  -30.4550  -13.4857  147.9722 C   0  0  0  0  0  0  0  0  0  0  0  0
  -30.7821  -12.8520  149.4165 C   0  0  0  0  0  0  0  0  0  0  0  0
  -23.0789  -12.6644  144.9543 Cl  0  0  0  0  0  0  0  0  0  0  0  0
  -24.0163  -17.9100  148.3201 C   0  0  0  0  0  0  0  0  0  0  0  0
  -25.2156  -17.6364  149.1200 C   0  0  0  0  0  0  0  0  0  0  0  0
  -24.9999  -16.5861  150.2264 C   0  0  0  0  0  0  0  0  0  0  0  0
  -32.0774  -12.8485  149.9455 C   0  0  0  0  0  0  0  0  0  0  0  0
  -32.2737  -12.8700  151.2211 C   0  0  0  0  0  0  0  0  0  0  0  0
  -32.5212  -12.8485  152.2742 C   0  0  0  0  0  0  0  0  0  0  0  0
  -33.0835  -12.2593  153.4748 C   0  0  0  0  0  0  0  0  0  0  0  0
  -32.6160  -11.1149  154.2760 C   0  0  0  0  0  0  0  0  0  0  0  0
  -32.8384  -11.0456  155.5743 C   0  0  0  0  0  0  0  0  0  0  0  0
  -32.2869   -9.9578  156.3468 C   0  0  0  0  0  0  0  0  0  0  0  0
  -32.6670   -9.0645  156.9702 C   0  0  0  0  0  0  0  0  0  0  0  0
  -31.8639   -8.0233  157.6216 C   0  0  0  0  0  0  0  0  0  0  0  0
  -30.4821   -8.1137  157.4639 C   0  0  0  0  0  0  0  0  0  0  0  0
  -29.9800   -9.2199  156.7850 C   0  0  0  0  0  0  0  0  0  0  0  0
  -30.7968  -10.1043  156.2232 C   0  0  0  0  0  0  0  0  0  0  0  0
  -33.1355  -12.7266  148.9833 C   0  0  0  0  0  0  0  0  0  0  0  0
  -33.5417  -11.4969  148.6832 O   0  0  0  0  0  0  0  0  0  0  0  0
  3  7  1  0
 11 13  1  0
 13 14  2  0
 13 15  1  0
 15 16  1  0
 16 17  1  0
  8 18  1  0
  5 19  1  0
 19 20  1  0
 20 21  1  0
 17 22  2  3
 22 23  1  0
 23 24  3  0
 24 25  1  0
 25 26  1  0
 26 27  2  3
 27 28  1  0
 22 34  1  0
 34 35  1  0
 28 29  2  0
 29 30  1  0
 30 31  2  0
 31 32  1  0
 32 33  2  0
 33 28  1  0
  1  2  2  0
  2  3  1  0
  3  4  2  0
  4  5  1  0
  5  6  2  0
  6  1  1  0
  7  8  2  0
  8  9  1  0
  9 10  2  0
 10 11  1  0
 11 12  2  0
 12  7  1  0
M  END

$$$$
No_1308-/dssg/home/sw_qyf/PocketFlow/Model-Generation-Results/5HT2A_7WC7_rec_A_10.pdb/2024-01-01-03-54-21/
     RDKit          3D

 35 36  0  0  0  0  0  0  0  0999 V2000
  -23.1746  -16.6014  144.8668 C   0  0  0  0  0  0  0  0  0  0  0  0
  -23.7011  -17.0158  145.9774 C   0  0  0  0  0  0  0  0  0  0  0  0
  -24.7096  -16.6222  146.3577 C   0  0  0  0  0  0  0  0  0  0  0  0
  -25.2851  -16.9369  147.7686 C   0  0  0  0  0  0  0  0  0  0  0  0
  -24.3692  -17.4278  148.6468 C   0  0  0  0  0  0  0  0  0  0  0  0
  -23.7741  -15.5056  144.2314 C   0  0  0  0  0  0  0  0  0  0  0  0
  -24.8845  -14.8641  144.7792 C   0  0  0  0  0  0  0  0  0  0  0  0
  -25.3697  -15.4007  145.9549 C   0  0  0  0  0  0  0  0  0  0  0  0
  -23.5476  -16.8327  149.2253 C   0  0  0  0  0  0  0  0  0  0  0  0
  -25.5076  -13.7283  144.0779 C   0  0  0  0  0  0  0  0  0  0  0  0
  -26.6894  -13.6752  143.9397 Cl  0  0  0  0  0  0  0  0  0  0  0  0
  -22.9938  -16.8301  150.5798 C   0  0  0  0  0  0  0  0  0  0  0  0
  -23.6757  -17.5820  151.4106 F   0  0  0  0  0  0  0  0  0  0  0  0
  -21.9076  -16.4166  151.0122 F   0  0  0  0  0  0  0  0  0  0  0  0
  -24.5486  -12.9071  143.6620 O   0  0  0  0  0  0  0  0  0  0  0  0
  -26.5994  -16.7022  148.1758 C   0  0  0  0  0  0  0  0  0  0  0  0
  -27.6473  -16.4842  147.3450 C   0  0  0  0  0  0  0  0  0  0  0  0
  -28.8995  -15.9273  147.8136 C   0  0  0  0  0  0  0  0  0  0  0  0
  -29.7471  -15.0311  147.1107 C   0  0  0  0  0  0  0  0  0  0  0  0
  -29.5872  -13.6273  147.5582 C   0  0  0  0  0  0  0  0  0  0  0  0
  -29.9942  -12.5376  146.9055 C   0  0  0  0  0  0  0  0  0  0  0  0
  -29.2087  -11.8656  145.9437 C   0  0  0  0  0  0  0  0  0  0  0  0
  -27.8890  -12.1901  145.6536 C   0  0  0  0  0  0  0  0  0  0  0  0
  -27.0788  -11.1722  145.1374 C   0  0  0  0  0  0  0  0  0  0  0  0
  -27.6721  -10.0739  144.4870 C   0  0  0  0  0  0  0  0  0  0  0  0
  -29.0773   -9.8538  144.6330 C   0  0  0  0  0  0  0  0  0  0  0  0
  -29.8250  -10.8019  145.4037 C   0  0  0  0  0  0  0  0  0  0  0  0
  -29.6852   -8.7301  143.9043 C   0  0  0  0  0  0  0  0  0  0  0  0
  -31.0343   -8.5940  143.9021 C   0  0  0  0  0  0  0  0  0  0  0  0
  -31.5845   -8.3426  142.5736 C   0  0  0  0  0  0  0  0  0  0  0  0
  -31.1252   -9.2630  141.5998 C   0  0  0  0  0  0  0  0  0  0  0  0
  -29.7813   -8.7183  141.0849 C   0  0  0  0  0  0  0  0  0  0  0  0
  -29.1790   -9.6501  140.2911 C   0  0  0  0  0  0  0  0  0  0  0  0
  -28.5242  -10.8014  140.7689 C   0  0  0  0  0  0  0  0  0  0  0  0
  -27.8357  -11.6941  140.0127 C   0  0  0  0  0  0  0  0  0  0  0  0
  3  4  1  0
  4  5  2  3
  5  9  1  0
  7 10  1  0
 10 11  1  0
  9 12  2  3
 12 13  1  0
 12 14  1  0
 10 15  2  0
  4 16  1  0
 16 17  2  3
 17 18  1  0
 18 19  1  0
 19 20  2  3
 20 21  1  0
 26 28  1  0
 28 29  1  0
 29 30  1  0
 30 31  1  0
 31 32  1  0
 32 33  1  0
 33 34  2  3
 34 35  1  0
 21 22  1  0
 22 23  2  0
 23 24  1  0
 24 25  2  0
 25 26  1  0
 26 27  2  0
 27 22  1  0
  1  2  2  0
  2  3  1  0
  3  8  2  0
  8  7  1  0
  7  6  2  0
  6  1  1  0
M  END

$$$$
No_1309-/dssg/home/sw_qyf/PocketFlow/Model-Generation-Results/5HT2A_7WC7_rec_A_10.pdb/2024-01-01-03-54-21/
     RDKit          3D

 13 14  0  0  0  0  0  0  0  0999 V2000
  -24.1553  -17.8465  145.7021 C   0  0  0  0  0  0  0  0  0  0  0  0
  -24.6364  -17.2931  146.7091 C   0  0  0  0  0  0  0  0  0  0  0  0
  -24.5709  -15.9334  146.8074 C   0  0  0  0  0  0  0  0  0  0  0  0
  -24.6729  -15.2066  145.7786 C   0  0  0  0  0  0  0  0  0  0  0  0
  -24.1309  -15.7293  144.5748 C   0  0  0  0  0  0  0  0  0  0  0  0
  -23.9825  -17.0240  144.5869 N   0  0  0  0  0  0  0  0  0  0  0  0
  -23.8787  -19.1674  145.5462 N   0  0  0  0  0  0  0  0  0  0  0  0
  -24.8997  -13.6858  145.8654 C   0  0  0  0  0  0  0  0  0  0  0  0
  -23.8276  -12.8629  145.8424 C   0  0  0  0  0  0  0  0  0  0  0  0
  -26.2162  -13.1912  145.9095 C   0  0  0  0  0  0  0  0  0  0  0  0
  -26.4807  -11.7950  145.9360 C   0  0  0  0  0  0  0  0  0  0  0  0
  -24.0298  -11.4110  145.7312 C   0  0  0  0  0  0  0  0  0  0  0  0
  -25.3393  -10.9414  145.8142 C   0  0  0  0  0  0  0  0  0  0  0  0
  1  7  1  0
  4  8  1  0
  1  2  2  0
  2  3  1  0
  3  4  2  0
  4  5  1  0
  5  6  2  0
  6  1  1  0
  8  9  2  0
  9 12  1  0
 12 13  2  0
 13 11  1  0
 11 10  2  0
 10  8  1  0
M  END

$$$$
No_1310-/dssg/home/sw_qyf/PocketFlow/Model-Generation-Results/5HT2A_7WC7_rec_A_10.pdb/2024-01-01-03-54-21/
     RDKit          3D

 34 36  0  0  0  0  0  0  0  0999 V2000
  -23.1746  -16.6014  144.8668 C   0  0  0  0  0  0  0  0  0  0  0  0
  -24.0189  -16.0564  145.8445 C   0  0  0  0  0  0  0  0  0  0  0  0
  -24.4145  -16.8299  146.9062 C   0  0  0  0  0  0  0  0  0  0  0  0
  -25.2273  -16.2787  147.9854 C   0  0  0  0  0  0  0  0  0  0  0  0
  -25.7358  -15.0095  147.7773 C   0  0  0  0  0  0  0  0  0  0  0  0
  -25.3901  -14.2337  146.6672 C   0  0  0  0  0  0  0  0  0  0  0  0
  -24.5390  -14.7030  145.7350 C   0  0  0  0  0  0  0  0  0  0  0  0
  -24.1465  -13.8569  144.6317 C   0  0  0  0  0  0  0  0  0  0  0  0
  -24.9417  -13.4745  143.8451 N   0  0  0  0  0  0  0  0  0  0  0  0
  -22.8584  -13.4247  144.5621 O   0  0  0  0  0  0  0  0  0  0  0  0
  -25.6435  -17.0817  149.1717 C   0  0  0  0  0  0  0  0  0  0  0  0
  -25.3614  -17.0246  150.2949 N   0  0  0  0  0  0  0  0  0  0  0  0
  -24.2037  -16.2850  150.5636 C   0  0  0  0  0  0  0  0  0  0  0  0
  -23.8577  -17.1761  143.8371 O   0  0  0  0  0  0  0  0  0  0  0  0
  -22.9480  -16.6826  149.9895 C   0  0  0  0  0  0  0  0  0  0  0  0
  -22.8152  -17.1924  148.9727 O   0  0  0  0  0  0  0  0  0  0  0  0
  -21.8389  -16.3906  150.7165 O   0  0  0  0  0  0  0  0  0  0  0  0
  -26.3860  -13.8049  143.9000 C   0  0  0  0  0  0  0  0  0  0  0  0
  -27.0962  -13.1835  142.8050 C   0  0  0  0  0  0  0  0  0  0  0  0
  -27.7064  -11.8630  142.9846 C   0  0  0  0  0  0  0  0  0  0  0  0
  -27.9973  -11.3980  144.2744 C   0  0  0  0  0  0  0  0  0  0  0  0
  -28.7420  -10.1594  144.4226 C   0  0  0  0  0  0  0  0  0  0  0  0
  -29.0961   -9.4106  143.3183 C   0  0  0  0  0  0  0  0  0  0  0  0
  -28.7558   -9.9647  142.0349 C   0  0  0  0  0  0  0  0  0  0  0  0
  -28.1303  -11.1861  141.8681 C   0  0  0  0  0  0  0  0  0  0  0  0
  -29.1871   -9.0813  140.9185 C   0  0  0  0  0  0  0  0  0  0  0  0
  -28.5951   -9.1136  139.6631 C   0  0  0  0  0  0  0  0  0  0  0  0
  -28.9507   -8.1619  138.6989 C   0  0  0  0  0  0  0  0  0  0  0  0
  -30.0538   -7.4570  139.0441 N   0  0  0  0  0  0  0  0  0  0  0  0
  -30.1936   -8.0082  140.7956 C   0  0  0  0  0  0  0  0  0  0  0  0
  -28.5134   -8.0702  137.4750 N   0  0  0  0  0  0  0  0  0  0  0  0
  -27.3386  -10.1878  139.1697 Cl  0  0  0  0  0  0  0  0  0  0  0  0
  -29.6847   -8.2987  143.4572 F   0  0  0  0  0  0  0  0  0  0  0  0
  -27.1154  -13.7620  141.6991 O   0  0  0  0  0  0  0  0  0  0  0  0
  1  2  1  0
  7  8  1  0
  8  9  1  0
  8 10  2  0
  4 11  1  0
 11 12  2  3
 12 13  1  0
  1 14  1  0
 13 15  1  0
 15 16  2  0
 15 17  1  0
  9 18  1  0
 18 19  1  0
 19 20  1  0
 24 26  1  0
 26 27  2  0
 27 28  1  0
 28 29  2  0
 26 30  1  0
 29 30  1  0
 28 31  1  0
 27 32  1  0
 23 33  1  0
 19 34  2  0
  2  3  2  0
  3  4  1  0
  4  5  2  0
  5  6  1  0
  6  7  2  0
  7  2  1  0
 20 21  2  0
 21 22  1  0
 22 23  2  0
 23 24  1  0
 24 25  2  0
 25 20  1  0
M  END

$$$$
No_1311-/dssg/home/sw_qyf/PocketFlow/Model-Generation-Results/5HT2A_7WC7_rec_A_10.pdb/2024-01-01-03-54-21/
     RDKit          3D

 18 18  0  0  0  0  0  0  0  0999 V2000
  -23.1746  -16.6014  144.8668 C   0  0  0  0  0  0  0  0  0  0  0  0
  -23.8963  -15.5346  144.7885 C   0  0  0  0  0  0  0  0  0  0  0  0
  -24.5755  -15.0383  145.9043 C   0  0  0  0  0  0  0  0  0  0  0  0
  -24.6688  -15.8869  147.0363 C   0  0  0  0  0  0  0  0  0  0  0  0
  -25.3848  -15.4783  148.2170 C   0  0  0  0  0  0  0  0  0  0  0  0
  -23.2972  -17.5078  145.9532 C   0  0  0  0  0  0  0  0  0  0  0  0
  -23.9541  -17.0662  147.0985 C   0  0  0  0  0  0  0  0  0  0  0  0
  -25.2580  -13.6868  145.8792 C   0  0  0  0  0  0  0  0  0  0  0  0
  -26.6372  -13.4677  145.7091 C   0  0  0  0  0  0  0  0  0  0  0  0
  -27.1726  -12.2026  145.6835 C   0  0  0  0  0  0  0  0  0  0  0  0
  -28.5369  -11.9307  145.4214 C   0  0  0  0  0  0  0  0  0  0  0  0
  -24.3974  -12.5724  146.2050 C   0  0  0  0  0  0  0  0  0  0  0  0
  -28.9520  -10.6919  144.8149 C   0  0  0  0  0  0  0  0  0  0  0  0
  -28.8671  -10.5397  143.5162 C   0  0  0  0  0  0  0  0  0  0  0  0
  -29.7342   -9.6721  142.8149 C   0  0  0  0  0  0  0  0  0  0  0  0
  -29.8533   -9.9915  141.5894 F   0  0  0  0  0  0  0  0  0  0  0  0
  -29.3382   -8.3192  142.8136 F   0  0  0  0  0  0  0  0  0  0  0  0
  -31.0966   -9.5899  143.3157 F   0  0  0  0  0  0  0  0  0  0  0  0
  4  5  1  0
  3  8  1  0
  8  9  1  0
  9 10  2  3
 10 11  1  0
  8 12  1  0
 11 13  1  0
 13 14  1  0
 14 15  1  0
 15 16  1  0
 15 17  1  0
 15 18  1  0
  1  2  2  0
  2  3  1  0
  3  4  2  0
  4  7  1  0
  7  6  2  0
  6  1  1  0
M  END

$$$$
No_1312-/dssg/home/sw_qyf/PocketFlow/Model-Generation-Results/5HT2A_7WC7_rec_A_10.pdb/2024-01-01-03-54-21/
     RDKit          3D

 34 37  0  0  0  0  0  0  0  0999 V2000
  -24.1553  -17.8465  145.7021 C   0  0  0  0  0  0  0  0  0  0  0  0
  -23.9795  -18.4462  146.7426 C   0  0  0  0  0  0  0  0  0  0  0  0
  -25.1593  -16.8262  145.6925 C   0  0  0  0  0  0  0  0  0  0  0  0
  -26.3426  -16.9003  146.3448 C   0  0  0  0  0  0  0  0  0  0  0  0
  -27.5316  -16.4146  145.9922 C   0  0  0  0  0  0  0  0  0  0  0  0
  -22.7668  -19.2191  146.8379 C   0  0  0  0  0  0  0  0  0  0  0  0
  -28.0195  -15.3529  146.4703 C   0  0  0  0  0  0  0  0  0  0  0  0
  -28.0175  -14.1068  145.9164 C   0  0  0  0  0  0  0  0  0  0  0  0
  -28.8091  -12.9961  146.4377 C   0  0  0  0  0  0  0  0  0  0  0  0
  -28.6847  -11.6629  145.9536 C   0  0  0  0  0  0  0  0  0  0  0  0
  -27.8322  -11.3807  144.8654 C   0  0  0  0  0  0  0  0  0  0  0  0
  -27.7562  -10.1383  144.2650 C   0  0  0  0  0  0  0  0  0  0  0  0
  -26.8833  -12.3831  144.4563 C   0  0  0  0  0  0  0  0  0  0  0  0
  -26.9642  -13.7354  144.9884 C   0  0  0  0  0  0  0  0  0  0  0  0
  -28.4455   -9.2311  144.4300 N   0  0  0  0  0  0  0  0  0  0  0  0
  -29.2031   -8.7149  143.3775 C   0  0  0  0  0  0  0  0  0  0  0  0
  -28.9634   -8.6745  142.1851 C   0  0  0  0  0  0  0  0  0  0  0  0
  -28.1628   -9.6996  141.6270 C   0  0  0  0  0  0  0  0  0  0  0  0
  -27.4846  -10.4280  142.7477 C   0  0  0  0  0  0  0  0  0  0  0  0
  -27.9146  -10.0042  140.3216 C   0  0  0  0  0  0  0  0  0  0  0  0
  -27.3249  -11.2231  139.9453 C   0  0  0  0  0  0  0  0  0  0  0  0
  -28.1715  -12.3839  139.8405 C   0  0  0  0  0  0  0  0  0  0  0  0
  -28.9660  -15.5594  147.6371 C   0  0  0  0  0  0  0  0  0  0  0  0
  -29.9198  -14.6402  148.0683 C   0  0  0  0  0  0  0  0  0  0  0  0
  -29.7542  -13.2590  147.6202 C   0  0  0  0  0  0  0  0  0  0  0  0
  -30.4563  -12.2882  148.0728 F   0  0  0  0  0  0  0  0  0  0  0  0
  -29.7503   -7.8695  141.2567 C   0  0  0  0  0  0  0  0  0  0  0  0
  -30.9818   -8.1466  141.1401 O   0  0  0  0  0  0  0  0  0  0  0  0
  -29.1806   -7.0232  140.4628 O   0  0  0  0  0  0  0  0  0  0  0  0
  -24.8844  -18.4722  147.8481 C   0  0  0  0  0  0  0  0  0  0  0  0
  -26.0791  -17.6645  147.6200 C   0  0  0  0  0  0  0  0  0  0  0  0
  -26.5087  -11.1324  138.6225 C   0  0  0  0  0  0  0  0  0  0  0  0
  -23.2753  -17.6612  144.6525 O   0  0  0  0  0  0  0  0  0  0  0  0
  -25.8849  -12.0950  138.4989 O   0  0  0  0  0  0  0  0  0  0  0  0
  2  6  1  0
  5  7  1  0
 11 12  1  0
 18 20  1  0
 20 21  1  0
 21 22  1  0
 25 26  1  0
 17 27  1  0
 27 28  1  0
 27 29  2  0
 21 32  1  0
  1 33  1  0
 32 34  1  0
  5  4  1  0
  1  2  2  0
  2 30  1  0
 30 31  2  0
 31  4  1  0
  4  3  2  0
  3  1  1  0
  9 10  2  0
 10 11  1  0
 11 13  2  0
 13 14  1  0
 14  8  2  0
 12 15  2  0
 15 16  1  0
 16 17  2  0
 17 18  1  0
 18 19  2  0
 19 12  1  0
  7  8  1  0
  8  9  1  0
  9 25  1  0
 25 24  2  0
 24 23  1  0
 23  7  2  0
M  END

$$$$
No_1313-/dssg/home/sw_qyf/PocketFlow/Model-Generation-Results/5HT2A_7WC7_rec_A_10.pdb/2024-01-01-03-54-21/
     RDKit          3D

 31 33  0  0  0  0  0  0  0  0999 V2000
  -24.1553  -17.8465  145.7021 C   0  0  0  0  0  0  0  0  0  0  0  0
  -24.2856  -16.6364  145.3494 C   0  0  0  0  0  0  0  0  0  0  0  0
  -24.5733  -15.7651  145.9979 C   0  0  0  0  0  0  0  0  0  0  0  0
  -25.0272  -15.9886  147.3700 C   0  0  0  0  0  0  0  0  0  0  0  0
  -24.4993  -18.2276  147.0208 C   0  0  0  0  0  0  0  0  0  0  0  0
  -24.9009  -17.2232  147.9329 C   0  0  0  0  0  0  0  0  0  0  0  0
  -24.7156  -14.2654  145.5569 C   0  0  0  0  0  0  0  0  0  0  0  0
  -25.6315  -13.4122  146.0508 C   0  0  0  0  0  0  0  0  0  0  0  0
  -25.6351  -12.0503  145.7253 C   0  0  0  0  0  0  0  0  0  0  0  0
  -26.7564  -11.2225  145.9666 C   0  0  0  0  0  0  0  0  0  0  0  0
  -27.7425  -11.4108  145.1545 C   0  0  0  0  0  0  0  0  0  0  0  0
  -27.8790  -11.0231  143.9833 C   0  0  0  0  0  0  0  0  0  0  0  0
  -28.9079  -10.2324  143.4218 C   0  0  0  0  0  0  0  0  0  0  0  0
  -29.1304  -10.0054  142.0693 C   0  0  0  0  0  0  0  0  0  0  0  0
  -30.0032   -9.0724  141.6400 C   0  0  0  0  0  0  0  0  0  0  0  0
  -30.9343   -8.4725  142.6242 C   0  0  0  0  0  0  0  0  0  0  0  0
  -30.8119   -8.7140  143.9930 C   0  0  0  0  0  0  0  0  0  0  0  0
  -29.8075   -9.6367  144.4512 C   0  0  0  0  0  0  0  0  0  0  0  0
  -23.8548  -13.8157  144.4902 C   0  0  0  0  0  0  0  0  0  0  0  0
  -23.7968  -14.1958  143.4057 O   0  0  0  0  0  0  0  0  0  0  0  0
  -22.7238  -13.0145  144.9530 N   0  0  0  0  0  0  0  0  0  0  0  0
  -28.4307  -10.7456  141.1539 C   0  0  0  0  0  0  0  0  0  0  0  0
  -27.4174  -10.2316  140.3995 C   0  0  0  0  0  0  0  0  0  0  0  0
  -26.7012  -10.9879  139.4082 C   0  0  0  0  0  0  0  0  0  0  0  0
  -27.0390  -12.4016  139.4392 C   0  0  0  0  0  0  0  0  0  0  0  0
  -27.9849  -12.8972  140.2580 C   0  0  0  0  0  0  0  0  0  0  0  0
  -28.6505  -12.1128  141.0770 C   0  0  0  0  0  0  0  0  0  0  0  0
  -28.8958  -12.1675  145.7487 C   0  0  0  0  0  0  0  0  0  0  0  0
  -28.7858  -13.5133  146.3141 C   0  0  0  0  0  0  0  0  0  0  0  0
  -29.8001  -14.0665  147.0801 C   0  0  0  0  0  0  0  0  0  0  0  0
  -29.7360  -13.8518  148.5067 C   0  0  0  0  0  0  0  0  0  0  0  0
  3  7  1  0
  7  8  2  3
  8  9  1  0
  9 10  1  0
 10 11  1  0
 11 12  1  0
 12 13  1  0
  7 19  1  0
 19 20  2  0
 19 21  1  0
 14 22  1  0
 11 28  1  0
 28 29  1  0
 29 30  2  3
 30 31  1  0
 13 14  1  0
 14 15  2  0
 15 16  1  0
 16 17  2  0
 17 18  1  0
 18 13  2  0
  1  2  2  0
  2  3  1  0
  3  4  2  0
  4  6  1  0
  6  5  2  0
  5  1  1  0
 22 23  2  0
 23 24  1  0
 24 25  2  0
 25 26  1  0
 26 27  2  0
 27 22  1  0
M  END

$$$$
No_1314-/dssg/home/sw_qyf/PocketFlow/Model-Generation-Results/5HT2A_7WC7_rec_A_10.pdb/2024-01-01-03-54-21/
     RDKit          3D

 20 22  0  0  0  0  0  0  0  0999 V2000
  -23.1746  -16.6014  144.8668 C   0  0  0  0  0  0  0  0  0  0  0  0
  -24.0189  -16.0564  145.8445 C   0  0  0  0  0  0  0  0  0  0  0  0
  -24.4850  -14.7380  145.6359 C   0  0  0  0  0  0  0  0  0  0  0  0
  -25.2717  -14.0560  146.5949 C   0  0  0  0  0  0  0  0  0  0  0  0
  -25.6617  -12.7328  146.4162 C   0  0  0  0  0  0  0  0  0  0  0  0
  -26.1318  -12.3175  145.5473 C   0  0  0  0  0  0  0  0  0  0  0  0
  -26.6634  -12.6740  144.7529 C   0  0  0  0  0  0  0  0  0  0  0  0
  -25.9984  -13.7956  143.8871 C   0  0  0  0  0  0  0  0  0  0  0  0
  -25.2112  -14.7877  144.5247 C   0  0  0  0  0  0  0  0  0  0  0  0
  -24.2946  -16.7528  147.0650 C   0  0  0  0  0  0  0  0  0  0  0  0
  -23.7999  -18.0489  147.2541 C   0  0  0  0  0  0  0  0  0  0  0  0
  -22.8582  -18.0547  145.1162 C   0  0  0  0  0  0  0  0  0  0  0  0
  -23.1248  -18.6722  146.3043 C   0  0  0  0  0  0  0  0  0  0  0  0
  -26.4307  -13.8522  142.6256 N   0  0  0  0  0  0  0  0  0  0  0  0
  -26.8273  -12.9145  141.6902 C   0  0  0  0  0  0  0  0  0  0  0  0
  -26.8106  -13.1731  140.3734 C   0  0  0  0  0  0  0  0  0  0  0  0
  -27.4098  -12.2207  139.5229 C   0  0  0  0  0  0  0  0  0  0  0  0
  -28.0781  -11.1083  140.0879 C   0  0  0  0  0  0  0  0  0  0  0  0
  -28.2062  -10.9342  141.4646 C   0  0  0  0  0  0  0  0  0  0  0  0
  -27.6558  -11.8538  142.3216 C   0  0  0  0  0  0  0  0  0  0  0  0
  2  3  1  0
  3  4  2  0
  4  5  1  0
  5  6  2  0
  6  7  1  0
  7  8  2  0
  3  9  1  0
  8  9  1  0
  8 14  1  0
 14 15  1  0
 15 16  2  0
 16 17  1  0
 17 18  2  0
 18 19  1  0
 19 20  2  0
 20 15  1  0
  1  2  2  0
  2 10  1  0
 10 11  2  0
 11 13  1  0
 13 12  2  0
 12  1  1  0
M  END

$$$$
No_1315-/dssg/home/sw_qyf/PocketFlow/Model-Generation-Results/5HT2A_7WC7_rec_A_10.pdb/2024-01-01-03-54-21/
     RDKit          3D

 21 25  0  0  0  0  0  0  0  0999 V2000
  -23.1746  -16.6014  144.8668 C   0  0  0  0  0  0  0  0  0  0  0  0
  -24.0189  -16.0564  145.8445 C   0  0  0  0  0  0  0  0  0  0  0  0
  -24.4850  -14.7380  145.6359 C   0  0  0  0  0  0  0  0  0  0  0  0
  -24.0208  -14.0081  144.6269 C   0  0  0  0  0  0  0  0  0  0  0  0
  -24.4092  -12.5999  144.5318 C   0  0  0  0  0  0  0  0  0  0  0  0
  -25.4740  -12.1564  145.3988 C   0  0  0  0  0  0  0  0  0  0  0  0
  -25.8400  -10.7793  145.3510 C   0  0  0  0  0  0  0  0  0  0  0  0
  -22.7635  -15.7439  143.9202 N   0  0  0  0  0  0  0  0  0  0  0  0
  -23.0800  -14.4974  143.8732 C   0  0  0  0  0  0  0  0  0  0  0  0
  -27.2325  -10.4479  145.6264 C   0  0  0  0  0  0  0  0  0  0  0  0
  -28.0959  -11.5076  146.0898 C   0  0  0  0  0  0  0  0  0  0  0  0
  -27.6523  -12.7997  146.2151 C   0  0  0  0  0  0  0  0  0  0  0  0
  -26.3668  -13.1309  145.8084 C   0  0  0  0  0  0  0  0  0  0  0  0
  -25.8952  -14.4663  146.0554 C   0  0  0  0  0  0  0  0  0  0  0  0
  -24.6199  -17.0306  146.8387 C   0  0  0  0  0  0  0  0  0  0  0  0
  -23.9484  -18.0881  147.1269 C   0  0  0  0  0  0  0  0  0  0  0  0
  -28.6099  -13.7539  146.7712 C   0  0  0  0  0  0  0  0  0  0  0  0
  -28.4078  -15.0860  146.8085 C   0  0  0  0  0  0  0  0  0  0  0  0
  -26.8917  -15.4382  146.4949 C   0  0  0  0  0  0  0  0  0  0  0  0
  -25.9128  -16.6437  147.4598 C   0  0  0  0  0  0  0  0  0  0  0  0
  -23.5947  -18.3033  148.3305 O   0  0  0  0  0  0  0  0  0  0  0  0
  1  2  1  0
  2  3  1  0
  3  4  2  0
  4  5  1  0
  5  6  2  0
  6  7  1  0
  1  8  2  0
  4  9  1  0
  8  9  1  0
  7 10  2  0
 10 11  1  0
 11 12  2  0
  6 13  1  0
 12 13  1  0
  3 14  1  0
 13 14  1  0
  2 15  1  0
 15 16  2  0
 12 17  1  0
 17 18  2  0
 14 19  1  0
 18 19  1  0
 15 20  1  0
 19 20  1  0
 16 21  2  0
M  END

$$$$
No_1316-/dssg/home/sw_qyf/PocketFlow/Model-Generation-Results/5HT2A_7WC7_rec_A_10.pdb/2024-01-01-03-54-21/
     RDKit          3D

 35 39  0  0  0  0  0  0  0  0999 V2000
  -24.1553  -17.8465  145.7021 C   0  0  0  0  0  0  0  0  0  0  0  0
  -24.2856  -16.6364  145.3494 C   0  0  0  0  0  0  0  0  0  0  0  0
  -25.0033  -15.6772  146.0737 C   0  0  0  0  0  0  0  0  0  0  0  0
  -25.1197  -14.2835  145.7299 C   0  0  0  0  0  0  0  0  0  0  0  0
  -24.2707  -13.8793  144.6500 C   0  0  0  0  0  0  0  0  0  0  0  0
  -24.8686  -18.3355  146.8179 C   0  0  0  0  0  0  0  0  0  0  0  0
  -25.6154  -17.5363  147.5807 C   0  0  0  0  0  0  0  0  0  0  0  0
  -25.7525  -16.1597  147.2668 C   0  0  0  0  0  0  0  0  0  0  0  0
  -24.1658  -12.4897  144.4296 C   0  0  0  0  0  0  0  0  0  0  0  0
  -25.1827  -11.6554  145.1165 C   0  0  0  0  0  0  0  0  0  0  0  0
  -25.9962  -12.0879  146.1488 C   0  0  0  0  0  0  0  0  0  0  0  0
  -25.9077  -13.4179  146.4818 C   0  0  0  0  0  0  0  0  0  0  0  0
  -23.6474  -16.1971  144.2598 O   0  0  0  0  0  0  0  0  0  0  0  0
  -23.2365  -14.8129  144.2293 C   0  0  0  0  0  0  0  0  0  0  0  0
  -23.5052  -18.7646  144.9761 O   0  0  0  0  0  0  0  0  0  0  0  0
  -25.1941  -10.3394  144.7217 O   0  0  0  0  0  0  0  0  0  0  0  0
  -26.4617   -9.9207  144.2264 C   0  0  0  0  0  0  0  0  0  0  0  0
  -27.3830  -10.5743  144.0384 C   0  0  0  0  0  0  0  0  0  0  0  0
  -28.6886  -10.0461  143.5703 C   0  0  0  0  0  0  0  0  0  0  0  0
  -29.9106  -10.8248  143.7144 C   0  0  0  0  0  0  0  0  0  0  0  0
  -31.0136  -10.1811  143.2976 C   0  0  0  0  0  0  0  0  0  0  0  0
  -31.0000   -8.9974  142.5756 C   0  0  0  0  0  0  0  0  0  0  0  0
  -29.8136   -8.3405  142.3568 C   0  0  0  0  0  0  0  0  0  0  0  0
  -28.6042   -8.8581  142.8954 C   0  0  0  0  0  0  0  0  0  0  0  0
  -29.7252   -7.0183  141.6588 C   0  0  0  0  0  0  0  0  0  0  0  0
  -29.6198   -5.8028  142.3397 C   0  0  0  0  0  0  0  0  0  0  0  0
  -29.2550   -7.0162  140.3242 C   0  0  0  0  0  0  0  0  0  0  0  0
  -29.1598   -4.6356  141.7904 C   0  0  0  0  0  0  0  0  0  0  0  0
  -29.3463   -8.2383  139.5945 C   0  0  0  0  0  0  0  0  0  0  0  0
  -28.6818   -8.2443  138.3247 C   0  0  0  0  0  0  0  0  0  0  0  0
  -28.9505   -9.2764  137.4075 C   0  0  0  0  0  0  0  0  0  0  0  0
  -29.2845   -4.4238  140.3933 C   0  0  0  0  0  0  0  0  0  0  0  0
  -29.1585   -5.7301  139.6774 C   0  0  0  0  0  0  0  0  0  0  0  0
  -28.5830  -10.5626  137.8005 C   0  0  0  0  0  0  0  0  0  0  0  0
  -28.4674  -11.6590  136.8390 C   0  0  0  0  0  0  0  0  0  0  0  0
  3  4  1  0
  2 13  1  0
  5 14  1  0
 13 14  1  0
  1 15  1  0
 10 16  1  0
 16 17  1  0
 17 18  2  3
 18 19  1  0
 23 25  1  0
 27 29  1  0
 29 30  1  0
 30 31  1  0
 31 34  2  3
 34 35  1  0
  1  2  2  0
  2  3  1  0
  3  8  2  0
  8  7  1  0
  7  6  2  0
  6  1  1  0
  4  5  2  0
  5  9  1  0
  9 10  2  0
 10 11  1  0
 11 12  2  0
 12  4  1  0
 19 20  2  0
 20 21  1  0
 21 22  2  0
 22 23  1  0
 23 24  2  0
 24 19  1  0
 25 26  2  0
 26 28  1  0
 28 32  2  0
 32 33  1  0
 33 27  2  0
 27 25  1  0
M  END

$$$$
No_1317-/dssg/home/sw_qyf/PocketFlow/Model-Generation-Results/5HT2A_7WC7_rec_A_10.pdb/2024-01-01-03-54-21/
     RDKit          3D

 30 32  0  0  0  0  0  0  0  0999 V2000
  -24.1553  -17.8465  145.7021 C   0  0  0  0  0  0  0  0  0  0  0  0
  -23.9795  -18.4462  146.7426 C   0  0  0  0  0  0  0  0  0  0  0  0
  -24.2723  -16.4220  145.8037 C   0  0  0  0  0  0  0  0  0  0  0  0
  -24.0151  -15.5895  144.6874 C   0  0  0  0  0  0  0  0  0  0  0  0
  -24.2323  -14.1482  144.8444 C   0  0  0  0  0  0  0  0  0  0  0  0
  -24.6315  -13.6236  146.0491 C   0  0  0  0  0  0  0  0  0  0  0  0
  -25.0454  -14.5558  147.1265 C   0  0  0  0  0  0  0  0  0  0  0  0
  -24.7530  -15.8759  147.0505 C   0  0  0  0  0  0  0  0  0  0  0  0
  -24.4467  -18.0523  148.0785 C   0  0  0  0  0  0  0  0  0  0  0  0
  -24.5806  -16.6277  148.3140 C   0  0  0  0  0  0  0  0  0  0  0  0
  -25.4324  -12.3181  145.9984 C   0  0  0  0  0  0  0  0  0  0  0  0
  -26.8227  -12.2108  146.1446 C   0  0  0  0  0  0  0  0  0  0  0  0
  -27.5292  -11.2981  145.3162 C   0  0  0  0  0  0  0  0  0  0  0  0
  -28.9656  -11.2425  145.2250 C   0  0  0  0  0  0  0  0  0  0  0  0
  -29.5596  -10.2893  144.4107 C   0  0  0  0  0  0  0  0  0  0  0  0
  -28.7721   -9.5032  143.5623 C   0  0  0  0  0  0  0  0  0  0  0  0
  -29.4104   -8.5768  142.6865 C   0  0  0  0  0  0  0  0  0  0  0  0
  -29.3332   -8.5821  141.3491 C   0  0  0  0  0  0  0  0  0  0  0  0
  -29.8883   -7.4197  140.6100 C   0  0  0  0  0  0  0  0  0  0  0  0
  -26.8288  -10.4330  144.3587 C   0  0  0  0  0  0  0  0  0  0  0  0
  -27.4431   -9.5779  143.5834 N   0  0  0  0  0  0  0  0  0  0  0  0
  -30.2432   -7.3443  143.0820 C   0  0  0  0  0  0  0  0  0  0  0  0
  -29.7092   -7.5816  139.2255 N   0  0  0  0  0  0  0  0  0  0  0  0
  -29.6782  -12.0191  146.1131 N   0  0  0  0  0  0  0  0  0  0  0  0
  -29.3963  -12.1233  147.5230 C   0  0  0  0  0  0  0  0  0  0  0  0
  -24.4895  -13.4714  143.7615 O   0  0  0  0  0  0  0  0  0  0  0  0
  -29.1499   -8.6468  138.6086 C   0  0  0  0  0  0  0  0  0  0  0  0
  -28.8863   -8.4818  137.2293 C   0  0  0  0  0  0  0  0  0  0  0  0
  -28.4302   -9.5525  139.3950 C   0  0  0  0  0  0  0  0  0  0  0  0
  -27.6170  -10.5544  138.8790 C   0  0  0  0  0  0  0  0  0  0  0  0
  1  2  1  0
  1  3  1  0
  2  9  1  0
  8 10  1  0
  9 10  1  0
  6 11  1  0
 11 12  1  0
 16 17  1  0
 17 18  2  3
 18 19  1  0
 17 22  1  0
 19 23  1  0
 14 24  1  0
 24 25  1  0
  5 26  1  0
 23 27  2  3
 27 28  1  0
 27 29  1  0
 29 30  1  0
 12 13  1  0
 13 14  2  0
 14 15  1  0
 15 16  2  0
 16 21  1  0
 21 20  2  0
 20 13  1  0
  3  4  2  0
  4  5  1  0
  5  6  2  0
  6  7  1  0
  7  8  2  0
  8  3  1  0
M  END

$$$$
No_1318-/dssg/home/sw_qyf/PocketFlow/Model-Generation-Results/5HT2A_7WC7_rec_A_10.pdb/2024-01-01-03-54-21/
     RDKit          3D

 35 39  0  0  0  0  0  0  0  0999 V2000
  -24.1553  -17.8465  145.7021 C   0  0  0  0  0  0  0  0  0  0  0  0
  -23.9795  -18.4462  146.7426 C   0  0  0  0  0  0  0  0  0  0  0  0
  -25.1196  -16.8106  145.6409 C   0  0  0  0  0  0  0  0  0  0  0  0
  -25.2440  -15.8776  144.5240 C   0  0  0  0  0  0  0  0  0  0  0  0
  -26.0733  -14.7284  144.7061 C   0  0  0  0  0  0  0  0  0  0  0  0
  -27.0964  -14.7050  145.6625 C   0  0  0  0  0  0  0  0  0  0  0  0
  -27.1695  -15.7244  146.6274 C   0  0  0  0  0  0  0  0  0  0  0  0
  -26.1636  -16.7589  146.5816 C   0  0  0  0  0  0  0  0  0  0  0  0
  -26.0012  -13.6973  143.6468 C   0  0  0  0  0  0  0  0  0  0  0  0
  -26.8312  -13.6280  142.8124 O   0  0  0  0  0  0  0  0  0  0  0  0
  -23.4098  -17.7422  147.8996 C   0  0  0  0  0  0  0  0  0  0  0  0
  -24.1635  -16.7250  148.5616 C   0  0  0  0  0  0  0  0  0  0  0  0
  -28.2519  -15.7244  147.6019 C   0  0  0  0  0  0  0  0  0  0  0  0
  -29.1719  -14.6353  147.6681 C   0  0  0  0  0  0  0  0  0  0  0  0
  -29.0392  -13.4540  146.9566 C   0  0  0  0  0  0  0  0  0  0  0  0
  -29.8100  -12.2651  147.0430 C   0  0  0  0  0  0  0  0  0  0  0  0
  -29.6427  -11.2030  146.1297 C   0  0  0  0  0  0  0  0  0  0  0  0
  -28.6703  -11.1658  145.1342 C   0  0  0  0  0  0  0  0  0  0  0  0
  -28.5385  -10.1015  144.2272 C   0  0  0  0  0  0  0  0  0  0  0  0
  -29.2197  -10.2328  143.0419 C   0  0  0  0  0  0  0  0  0  0  0  0
  -29.1187   -9.2705  142.0529 C   0  0  0  0  0  0  0  0  0  0  0  0
  -29.6842   -7.9653  142.3120 C   0  0  0  0  0  0  0  0  0  0  0  0
  -30.3079   -7.2636  141.3497 C   0  0  0  0  0  0  0  0  0  0  0  0
  -27.8829  -13.5122  145.8983 C   0  0  0  0  0  0  0  0  0  0  0  0
  -29.6650   -7.5078  140.0148 C   0  0  0  0  0  0  0  0  0  0  0  0
  -28.9365   -8.6436  139.7434 C   0  0  0  0  0  0  0  0  0  0  0  0
  -28.6772   -9.5179  140.8438 C   0  0  0  0  0  0  0  0  0  0  0  0
  -28.2080   -8.8743  138.5717 C   0  0  0  0  0  0  0  0  0  0  0  0
  -27.7765  -12.3990  145.0816 C   0  0  0  0  0  0  0  0  0  0  0  0
  -30.7362  -12.2444  147.9962 O   0  0  0  0  0  0  0  0  0  0  0  0
  -27.8856  -10.6018  140.5826 N   0  0  0  0  0  0  0  0  0  0  0  0
  -27.2153  -10.8282  139.4586 C   0  0  0  0  0  0  0  0  0  0  0  0
  -27.4359  -10.0174  138.4806 N   0  0  0  0  0  0  0  0  0  0  0  0
  -26.5346  -11.8692  139.2659 F   0  0  0  0  0  0  0  0  0  0  0  0
  -28.3553   -8.1411  137.5586 O   0  0  0  0  0  0  0  0  0  0  0  0
  1  2  2  3
  1  3  1  0
  3  4  1  0
  4  5  1  0
  5  6  1  0
  3  8  1  0
  7  8  1  0
  5  9  1  0
  9 10  1  0
  2 11  1  0
 11 12  1  0
 18 19  1  0
 19 20  1  0
 26 28  1  0
 16 30  1  0
 27 31  1  0
 31 32  1  0
 28 33  1  0
 32 33  1  0
 32 34  1  0
 28 35  2  0
 20 21  1  0
 15 16  2  0
 16 17  1  0
 17 18  2  0
 18 29  1  0
 29 24  2  0
 21 22  2  0
 22 23  1  0
 23 25  2  0
 25 26  1  0
 26 27  2  0
 27 21  1  0
  6  7  2  0
  7 13  1  0
 13 14  2  0
 14 15  1  0
 15 24  1  0
 24  6  1  0
M  END

$$$$
No_1319-/dssg/home/sw_qyf/PocketFlow/Model-Generation-Results/5HT2A_7WC7_rec_A_10.pdb/2024-01-01-03-54-21/
     RDKit          3D

 18 19  0  0  0  0  0  0  0  0999 V2000
  -23.1746  -16.6014  144.8668 C   0  0  0  0  0  0  0  0  0  0  0  0
  -23.8963  -15.5346  144.7885 C   0  0  0  0  0  0  0  0  0  0  0  0
  -24.5755  -15.0383  145.9043 C   0  0  0  0  0  0  0  0  0  0  0  0
  -25.3266  -13.7882  145.9354 C   0  0  0  0  0  0  0  0  0  0  0  0
  -23.3055  -17.4825  145.9483 C   0  0  0  0  0  0  0  0  0  0  0  0
  -23.9717  -17.0786  147.1155 C   0  0  0  0  0  0  0  0  0  0  0  0
  -24.6279  -15.8543  147.1153 C   0  0  0  0  0  0  0  0  0  0  0  0
  -24.5727  -12.6172  146.2214 C   0  0  0  0  0  0  0  0  0  0  0  0
  -25.2645  -11.3630  146.1809 C   0  0  0  0  0  0  0  0  0  0  0  0
  -26.6059  -11.2936  145.6842 C   0  0  0  0  0  0  0  0  0  0  0  0
  -27.2786  -12.4473  145.4844 C   0  0  0  0  0  0  0  0  0  0  0  0
  -26.6470  -13.7251  145.5565 C   0  0  0  0  0  0  0  0  0  0  0  0
  -27.3027  -14.8321  145.3114 O   0  0  0  0  0  0  0  0  0  0  0  0
  -23.9398  -17.9065  148.3595 C   0  0  0  0  0  0  0  0  0  0  0  0
  -23.4171  -17.3186  149.5838 C   0  0  0  0  0  0  0  0  0  0  0  0
  -22.2244  -17.1160  149.6805 O   0  0  0  0  0  0  0  0  0  0  0  0
  -24.2418  -17.1707  150.6043 O   0  0  0  0  0  0  0  0  0  0  0  0
  -23.8754  -14.7225  143.7417 O   0  0  0  0  0  0  0  0  0  0  0  0
  3  4  1  0
 12 13  1  0
  6 14  1  0
 14 15  1  0
 15 16  2  0
 15 17  1  0
  2 18  1  0
  4  8  2  0
  8  9  1  0
  9 10  2  0
 10 11  1  0
 11 12  2  0
 12  4  1  0
  1  2  2  0
  2  3  1  0
  3  7  2  0
  7  6  1  0
  6  5  2  0
  5  1  1  0
M  END

$$$$
No_1320-/dssg/home/sw_qyf/PocketFlow/Model-Generation-Results/5HT2A_7WC7_rec_A_10.pdb/2024-01-01-03-54-21/
     RDKit          3D

  9  9  0  0  0  0  0  0  0  0999 V2000
  -23.1746  -16.6014  144.8668 C   0  0  0  0  0  0  0  0  0  0  0  0
  -24.0189  -16.0564  145.8445 C   0  0  0  0  0  0  0  0  0  0  0  0
  -24.4850  -14.7380  145.6359 C   0  0  0  0  0  0  0  0  0  0  0  0
  -24.0208  -14.0081  144.6269 C   0  0  0  0  0  0  0  0  0  0  0  0
  -23.3686  -12.7461  145.1561 C   0  0  0  0  0  0  0  0  0  0  0  0
  -24.3490  -16.8813  146.9924 C   0  0  0  0  0  0  0  0  0  0  0  0
  -25.1516  -16.3067  147.9386 C   0  0  0  0  0  0  0  0  0  0  0  0
  -25.8329  -15.0410  147.7482 C   0  0  0  0  0  0  0  0  0  0  0  0
  -25.3880  -14.2077  146.7364 C   0  0  0  0  0  0  0  0  0  0  0  0
  1  2  1  0
  3  4  1  0
  4  5  1  0
  2  3  2  0
  3  9  1  0
  9  8  2  0
  8  7  1  0
  7  6  2  0
  6  2  1  0
M  END

$$$$
No_1321-/dssg/home/sw_qyf/PocketFlow/Model-Generation-Results/5HT2A_7WC7_rec_A_10.pdb/2024-01-01-03-54-21/
     RDKit          3D

 32 34  0  0  0  0  0  0  0  0999 V2000
  -23.1746  -16.6014  144.8668 C   0  0  0  0  0  0  0  0  0  0  0  0
  -23.8963  -15.5346  144.7885 C   0  0  0  0  0  0  0  0  0  0  0  0
  -24.5755  -15.0383  145.9043 C   0  0  0  0  0  0  0  0  0  0  0  0
  -25.0618  -13.6819  146.0347 C   0  0  0  0  0  0  0  0  0  0  0  0
  -24.0242  -12.8249  145.9592 C   0  0  0  0  0  0  0  0  0  0  0  0
  -23.4085  -17.5675  145.8907 C   0  0  0  0  0  0  0  0  0  0  0  0
  -24.1896  -17.1707  147.0047 C   0  0  0  0  0  0  0  0  0  0  0  0
  -24.7247  -15.8941  147.1003 C   0  0  0  0  0  0  0  0  0  0  0  0
  -26.3540  -13.2621  146.1677 C   0  0  0  0  0  0  0  0  0  0  0  0
  -27.4828  -14.0839  146.2477 C   0  0  0  0  0  0  0  0  0  0  0  0
  -28.6925  -13.4288  146.4185 C   0  0  0  0  0  0  0  0  0  0  0  0
  -28.8093  -12.0145  146.3273 C   0  0  0  0  0  0  0  0  0  0  0  0
  -27.7111  -11.2183  146.1190 C   0  0  0  0  0  0  0  0  0  0  0  0
  -26.4615  -11.7661  146.0977 C   0  0  0  0  0  0  0  0  0  0  0  0
  -30.4100  -11.3035  146.4964 Cl  0  0  0  0  0  0  0  0  0  0  0  0
  -24.2395  -18.0586  148.2098 C   0  0  0  0  0  0  0  0  0  0  0  0
  -24.5069  -17.2376  149.5149 C   0  0  0  0  0  0  0  0  0  0  0  0
  -25.5168  -17.4644  150.3356 C   0  0  0  0  0  0  0  0  0  0  0  0
  -26.7664  -17.8896  149.9297 C   0  0  0  0  0  0  0  0  0  0  0  0
  -27.8617  -18.1343  150.8585 C   0  0  0  0  0  0  0  0  0  0  0  0
  -24.2578  -14.7513  143.7754 N   0  0  0  0  0  0  0  0  0  0  0  0
  -29.0373  -17.9210  150.5118 N   0  0  0  0  0  0  0  0  0  0  0  0
  -29.5553  -16.6885  150.1518 C   0  0  0  0  0  0  0  0  0  0  0  0
  -29.5343  -16.2235  149.0238 C   0  0  0  0  0  0  0  0  0  0  0  0
  -30.2072  -14.9444  148.7047 C   0  0  0  0  0  0  0  0  0  0  0  0
  -30.1099  -14.1910  147.5849 C   0  0  0  0  0  0  0  0  0  0  0  0
  -30.9201  -13.6900  146.9192 O   0  0  0  0  0  0  0  0  0  0  0  0
  -29.3440  -13.8231  145.2521 O   0  0  0  0  0  0  0  0  0  0  0  0
  -29.0024  -14.8754  147.2742 O   0  0  0  0  0  0  0  0  0  0  0  0
  -28.4324  -15.7908  147.2837 C   0  0  0  0  0  0  0  0  0  0  0  0
  -28.5229  -16.5630  148.2387 C   0  0  0  0  0  0  0  0  0  0  0  0
  -27.4846  -18.8972  152.0464 C   0  0  0  0  0  0  0  0  0  0  0  0
  3  4  1  0
  4  5  2  0
  4  9  1  0
 12 15  1  0
  7 16  1  0
 16 17  1  0
 17 18  1  0
 18 19  2  3
 19 20  1  0
  2 21  1  0
 20 22  1  0
 22 23  1  0
 23 24  2  3
 24 25  1  0
 25 26  1  0
 26 27  2  0
 11 28  1  0
 26 29  1  0
 29 30  1  0
 24 31  1  0
 30 31  1  0
 20 32  1  0
  1  2  2  0
  2  3  1  0
  3  8  2  0
  8  7  1  0
  7  6  2  0
  6  1  1  0
  9 10  2  0
 10 11  1  0
 11 12  2  0
 12 13  1  0
 13 14  2  0
 14  9  1  0
M  END

$$$$
No_1322-/dssg/home/sw_qyf/PocketFlow/Model-Generation-Results/5HT2A_7WC7_rec_A_10.pdb/2024-01-01-03-54-21/
     RDKit          3D

 18 18  0  0  0  0  0  0  0  0999 V2000
  -24.1553  -17.8465  145.7021 C   0  0  0  0  0  0  0  0  0  0  0  0
  -24.2855  -16.6364  145.3494 C   0  0  0  0  0  0  0  0  0  0  0  0
  -24.5733  -15.7651  145.9979 C   0  0  0  0  0  0  0  0  0  0  0  0
  -25.0273  -15.9886  147.3700 C   0  0  0  0  0  0  0  0  0  0  0  0
  -24.4993  -18.2276  147.0208 C   0  0  0  0  0  0  0  0  0  0  0  0
  -24.9010  -17.2233  147.9329 C   0  0  0  0  0  0  0  0  0  0  0  0
  -24.7137  -14.2591  145.5600 C   0  0  0  0  0  0  0  0  0  0  0  0
  -23.8904  -13.7860  144.6618 C   0  0  0  0  0  0  0  0  0  0  0  0
  -23.8800  -12.4543  144.7333 F   0  0  0  0  0  0  0  0  0  0  0  0
  -22.5655  -14.2266  144.8870 F   0  0  0  0  0  0  0  0  0  0  0  0
  -24.1661  -14.0718  143.4050 F   0  0  0  0  0  0  0  0  0  0  0  0
  -25.1855  -17.5313  149.3411 C   0  0  0  0  0  0  0  0  0  0  0  0
  -25.3737  -16.3870  149.9461 F   0  0  0  0  0  0  0  0  0  0  0  0
  -26.3345  -18.2143  149.4908 F   0  0  0  0  0  0  0  0  0  0  0  0
  -24.1042  -18.0915  149.9601 F   0  0  0  0  0  0  0  0  0  0  0  0
  -23.7538  -18.8981  144.9173 O   0  0  0  0  0  0  0  0  0  0  0  0
  -25.8066  -13.5134  146.1447 C   0  0  0  0  0  0  0  0  0  0  0  0
  -25.7598  -12.1292  146.0684 C   0  0  0  0  0  0  0  0  0  0  0  0
  3  7  1  0
  7  8  1  0
  8  9  1  0
  8 10  1  0
  8 11  1  0
  6 12  1  0
 12 13  1  0
 12 14  1  0
 12 15  1  0
  1 16  1  0
  7 17  1  0
 17 18  1  0
  1  2  2  0
  2  3  1  0
  3  4  2  0
  4  6  1  0
  6  5  2  0
  5  1  1  0
M  END

$$$$
No_1323-/dssg/home/sw_qyf/PocketFlow/Model-Generation-Results/5HT2A_7WC7_rec_A_10.pdb/2024-01-01-03-54-21/
     RDKit          3D

 10 10  0  0  0  0  0  0  0  0999 V2000
  -23.8931  -18.2534  145.3804 F   0  0  0  0  0  0  0  0  0  0  0  0
  -24.1483  -17.4442  146.3400 C   0  0  0  0  0  0  0  0  0  0  0  0
  -24.4181  -16.0969  145.9075 C   0  0  0  0  0  0  0  0  0  0  0  0
  -25.0570  -15.1238  146.6692 C   0  0  0  0  0  0  0  0  0  0  0  0
  -25.2107  -13.8085  146.2274 C   0  0  0  0  0  0  0  0  0  0  0  0
  -24.4342  -13.2867  145.2636 C   0  0  0  0  0  0  0  0  0  0  0  0
  -23.7510  -14.3321  144.4073 C   0  0  0  0  0  0  0  0  0  0  0  0
  -23.6746  -15.6055  144.8521 C   0  0  0  0  0  0  0  0  0  0  0  0
  -23.1077  -17.5033  147.2714 F   0  0  0  0  0  0  0  0  0  0  0  0
  -25.2863  -17.9042  147.0252 F   0  0  0  0  0  0  0  0  0  0  0  0
  1  2  1  0
  2  3  1  0
  2  9  1  0
  2 10  1  0
  3  4  2  0
  4  5  1  0
  5  6  2  0
  6  7  1  0
  7  8  2  0
  8  3  1  0
M  END

$$$$
No_1324-/dssg/home/sw_qyf/PocketFlow/Model-Generation-Results/5HT2A_7WC7_rec_A_10.pdb/2024-01-01-03-54-21/
     RDKit          3D

 30 32  0  0  0  0  0  0  0  0999 V2000
  -23.1746  -16.6014  144.8668 C   0  0  0  0  0  0  0  0  0  0  0  0
  -23.7011  -17.0158  145.9774 C   0  0  0  0  0  0  0  0  0  0  0  0
  -24.7095  -16.6222  146.3578 C   0  0  0  0  0  0  0  0  0  0  0  0
  -25.2589  -16.9410  147.8028 C   0  0  0  0  0  0  0  0  0  0  0  0
  -26.4622  -16.4173  148.3314 C   0  0  0  0  0  0  0  0  0  0  0  0
  -23.7737  -15.4555  144.2384 C   0  0  0  0  0  0  0  0  0  0  0  0
  -24.8785  -14.8391  144.8305 C   0  0  0  0  0  0  0  0  0  0  0  0
  -25.3633  -15.3910  146.0026 C   0  0  0  0  0  0  0  0  0  0  0  0
  -27.3819  -16.1849  147.4061 C   0  0  0  0  0  0  0  0  0  0  0  0
  -28.7684  -15.8096  147.6972 C   0  0  0  0  0  0  0  0  0  0  0  0
  -29.2367  -15.5827  148.9707 C   0  0  0  0  0  0  0  0  0  0  0  0
  -26.9884  -15.6406  146.0300 C   0  0  0  0  0  0  0  0  0  0  0  0
  -24.8661  -13.3849  144.7111 C   0  0  0  0  0  0  0  0  0  0  0  0
  -23.9487  -12.5760  145.2743 N   0  0  0  0  0  0  0  0  0  0  0  0
  -23.7902  -11.7267  145.8466 C   0  0  0  0  0  0  0  0  0  0  0  0
  -24.4670  -17.8183  148.7218 C   0  0  0  0  0  0  0  0  0  0  0  0
  -23.5166  -17.0201  149.6337 C   0  0  0  0  0  0  0  0  0  0  0  0
  -30.5066  -15.0372  149.3301 C   0  0  0  0  0  0  0  0  0  0  0  0
  -30.9601  -14.9441  150.6282 C   0  0  0  0  0  0  0  0  0  0  0  0
  -32.0293  -14.1165  150.9193 C   0  0  0  0  0  0  0  0  0  0  0  0
  -32.4199  -13.1510  149.9967 C   0  0  0  0  0  0  0  0  0  0  0  0
  -31.7279  -13.0299  148.7968 C   0  0  0  0  0  0  0  0  0  0  0  0
  -30.7451  -13.8852  148.5046 C   0  0  0  0  0  0  0  0  0  0  0  0
  -33.5157  -12.1455  150.3518 C   0  0  0  0  0  0  0  0  0  0  0  0
  -34.2105  -11.9513  149.3662 F   0  0  0  0  0  0  0  0  0  0  0  0
  -33.0037  -10.9395  150.7463 F   0  0  0  0  0  0  0  0  0  0  0  0
  -34.2453  -12.5849  151.4081 F   0  0  0  0  0  0  0  0  0  0  0  0
  -23.6540  -17.2554  151.0064 C   0  0  0  0  0  0  0  0  0  0  0  0
  -25.9049  -12.8630  144.1797 O   0  0  0  0  0  0  0  0  0  0  0  0
  -29.4920  -15.3302  146.7586 O   0  0  0  0  0  0  0  0  0  0  0  0
  3  4  1  0
  4  5  1  0
  5  9  1  0
  9 10  1  0
 10 11  2  3
  8 12  1  0
  9 12  1  0
  7 13  1  0
 13 14  1  0
 14 15  1  0
  4 16  1  0
 16 17  1  0
 11 18  1  0
 21 24  1  0
 24 25  1  0
 24 26  1  0
 24 27  1  0
 17 28  1  0
 13 29  2  0
 10 30  1  0
  1  2  2  0
  2  3  1  0
  3  8  2  0
  8  7  1  0
  7  6  2  0
  6  1  1  0
 18 19  2  0
 19 20  1  0
 20 21  2  0
 21 22  1  0
 22 23  2  0
 23 18  1  0
M  END

$$$$
No_1325-/dssg/home/sw_qyf/PocketFlow/Model-Generation-Results/5HT2A_7WC7_rec_A_10.pdb/2024-01-01-03-54-21/
     RDKit          3D

 26 27  0  0  0  0  0  0  0  0999 V2000
  -24.1553  -17.8465  145.7021 C   0  0  0  0  0  0  0  0  0  0  0  0
  -23.9795  -18.4462  146.7426 C   0  0  0  0  0  0  0  0  0  0  0  0
  -25.1593  -16.8262  145.6925 C   0  0  0  0  0  0  0  0  0  0  0  0
  -24.9465  -15.5961  144.9952 C   0  0  0  0  0  0  0  0  0  0  0  0
  -23.7545  -15.2259  144.5478 C   0  0  0  0  0  0  0  0  0  0  0  0
  -23.5462  -13.9028  144.0167 C   0  0  0  0  0  0  0  0  0  0  0  0
  -23.3861  -12.8942  145.1628 C   0  0  0  0  0  0  0  0  0  0  0  0
  -24.6188  -12.2708  145.4758 C   0  0  0  0  0  0  0  0  0  0  0  0
  -25.1070  -11.3211  144.9724 C   0  0  0  0  0  0  0  0  0  0  0  0
  -26.3167  -10.6140  145.4336 C   0  0  0  0  0  0  0  0  0  0  0  0
  -27.4416  -11.1505  145.0513 C   0  0  0  0  0  0  0  0  0  0  0  0
  -28.3729  -11.5821  146.0289 C   0  0  0  0  0  0  0  0  0  0  0  0
  -29.7553  -11.3086  145.9889 C   0  0  0  0  0  0  0  0  0  0  0  0
  -30.1067  -10.6819  144.8510 N   0  0  0  0  0  0  0  0  0  0  0  0
  -29.2680  -10.2348  143.9929 C   0  0  0  0  0  0  0  0  0  0  0  0
  -27.9540  -10.3668  144.1149 N   0  0  0  0  0  0  0  0  0  0  0  0
  -29.7974   -9.4792  142.9610 N   0  0  0  0  0  0  0  0  0  0  0  0
  -30.0040   -8.5273  142.6088 C   0  0  0  0  0  0  0  0  0  0  0  0
  -30.0385   -7.8987  141.2550 C   0  0  0  0  0  0  0  0  0  0  0  0
  -29.0145   -8.3327  140.3877 C   0  0  0  0  0  0  0  0  0  0  0  0
  -28.8398   -7.7622  139.1704 C   0  0  0  0  0  0  0  0  0  0  0  0
  -28.5085   -8.6601  138.0700 C   0  0  0  0  0  0  0  0  0  0  0  0
  -28.0150   -9.9043  138.3713 C   0  0  0  0  0  0  0  0  0  0  0  0
  -28.0417  -10.4135  139.6827 C   0  0  0  0  0  0  0  0  0  0  0  0
  -28.6667   -9.6363  140.7428 C   0  0  0  0  0  0  0  0  0  0  0  0
  -29.8073  -10.5876  141.8358 C   0  0  0  0  0  0  0  0  0  0  0  0
  1  2  1  0
  1  3  1  0
  3  4  1  0
  4  5  2  3
  5  6  1  0
  6  7  1  0
  7  8  1  0
  8  9  2  3
  9 10  1  0
 10 11  1  0
 15 17  1  0
 17 18  1  0
 18 19  2  3
 19 20  1  0
 17 26  1  0
 11 12  2  0
 12 13  1  0
 13 14  2  0
 14 15  1  0
 15 16  2  0
 16 11  1  0
 20 21  2  0
 21 22  1  0
 22 23  2  0
 23 24  1  0
 24 25  2  0
 25 20  1  0
M  END

$$$$
No_1326-/dssg/home/sw_qyf/PocketFlow/Model-Generation-Results/5HT2A_7WC7_rec_A_10.pdb/2024-01-01-03-54-21/
     RDKit          3D

 35 36  0  0  0  0  0  0  0  0999 V2000
  -23.1746  -16.6014  144.8668 C   0  0  0  0  0  0  0  0  0  0  0  0
  -24.0189  -16.0564  145.8445 C   0  0  0  0  0  0  0  0  0  0  0  0
  -24.4145  -16.8299  146.9062 C   0  0  0  0  0  0  0  0  0  0  0  0
  -25.2730  -16.2838  147.9150 C   0  0  0  0  0  0  0  0  0  0  0  0
  -25.7535  -17.1010  148.9939 C   0  0  0  0  0  0  0  0  0  0  0  0
  -24.4224  -14.6395  145.6836 C   0  0  0  0  0  0  0  0  0  0  0  0
  -23.6728  -13.7250  145.5604 C   0  0  0  0  0  0  0  0  0  0  0  0
  -23.7511  -12.7449  144.7636 C   0  0  0  0  0  0  0  0  0  0  0  0
  -22.5617  -11.7813  144.7405 C   0  0  0  0  0  0  0  0  0  0  0  0
  -24.7125  -17.7197  149.7743 C   0  0  0  0  0  0  0  0  0  0  0  0
  -23.5035  -17.9356  149.1647 C   0  0  0  0  0  0  0  0  0  0  0  0
  -23.4394  -17.8142  147.4904 C   0  0  0  0  0  0  0  0  0  0  0  0
  -25.8792  -14.4988  145.5085 C   0  0  0  0  0  0  0  0  0  0  0  0
  -26.2280  -13.4823  144.6400 C   0  0  0  0  0  0  0  0  0  0  0  0
  -25.1771  -12.3883  144.4402 C   0  0  0  0  0  0  0  0  0  0  0  0
  -27.5044  -13.0684  144.1568 C   0  0  0  0  0  0  0  0  0  0  0  0
  -27.7646  -11.6666  143.9280 C   0  0  0  0  0  0  0  0  0  0  0  0
  -28.3881  -11.0096  145.0424 C   0  0  0  0  0  0  0  0  0  0  0  0
  -28.6872  -11.5717  146.2822 C   0  0  0  0  0  0  0  0  0  0  0  0
  -29.9183  -12.0881  146.5836 C   0  0  0  0  0  0  0  0  0  0  0  0
  -30.1384  -12.6681  147.9104 C   0  0  0  0  0  0  0  0  0  0  0  0
  -30.6269  -13.9552  147.9536 C   0  0  0  0  0  0  0  0  0  0  0  0
  -29.4944  -14.9632  147.9401 C   0  0  0  0  0  0  0  0  0  0  0  0
  -28.7674  -15.4938  147.0370 C   0  0  0  0  0  0  0  0  0  0  0  0
  -28.2288  -16.7888  147.0841 C   0  0  0  0  0  0  0  0  0  0  0  0
  -29.1143   -9.7825  144.6615 C   0  0  0  0  0  0  0  0  0  0  0  0
  -30.3692   -9.7184  144.1718 C   0  0  0  0  0  0  0  0  0  0  0  0
  -30.7695   -8.5475  143.4247 C   0  0  0  0  0  0  0  0  0  0  0  0
  -30.3673   -8.5586  142.0116 C   0  0  0  0  0  0  0  0  0  0  0  0
  -29.0234   -7.8926  141.7978 C   0  0  0  0  0  0  0  0  0  0  0  0
  -29.2123   -7.1665  140.5323 C   0  0  0  0  0  0  0  0  0  0  0  0
  -28.7672   -8.0529  139.4047 C   0  0  0  0  0  0  0  0  0  0  0  0
  -29.1615   -9.2796  139.3495 C   0  0  0  0  0  0  0  0  0  0  0  0
  -28.0801  -10.0577  138.5707 C   0  0  0  0  0  0  0  0  0  0  0  0
  -27.5643  -17.2698  146.0376 N   0  0  0  0  0  0  0  0  0  0  0  0
  1  2  1  0
  2  3  1  0
  2  6  1  0
  8  9  1  0
 14 16  1  0
 16 17  1  0
 17 18  1  0
 18 19  1  0
 19 20  2  3
 20 21  1  0
 21 22  1  0
 22 23  1  0
 23 24  2  3
 24 25  1  0
 18 26  1  0
 26 27  1  0
 27 28  1  0
 28 29  1  0
 29 30  1  0
 30 31  1  0
 31 32  1  0
 32 33  1  0
 33 34  1  0
 25 35  1  0
  6  7  2  0
  7  8  1  0
  8 15  2  0
 15 14  1  0
 14 13  2  0
 13  6  1  0
  3  4  2  0
  4  5  1  0
  5 10  2  0
 10 11  1  0
 11 12  2  0
 12  3  1  0
M  END

$$$$
No_1327-/dssg/home/sw_qyf/PocketFlow/Model-Generation-Results/5HT2A_7WC7_rec_A_10.pdb/2024-01-01-03-54-21/
     RDKit          3D

 31 33  0  0  0  0  0  0  0  0999 V2000
  -23.1746  -16.6014  144.8668 C   0  0  0  0  0  0  0  0  0  0  0  0
  -23.7011  -17.0158  145.9774 C   0  0  0  0  0  0  0  0  0  0  0  0
  -24.7096  -16.6222  146.3577 C   0  0  0  0  0  0  0  0  0  0  0  0
  -25.2589  -16.9410  147.8027 C   0  0  0  0  0  0  0  0  0  0  0  0
  -26.4623  -16.4173  148.3313 C   0  0  0  0  0  0  0  0  0  0  0  0
  -23.7737  -15.4555  144.2384 C   0  0  0  0  0  0  0  0  0  0  0  0
  -24.8786  -14.8392  144.8305 C   0  0  0  0  0  0  0  0  0  0  0  0
  -25.3633  -15.3911  146.0026 C   0  0  0  0  0  0  0  0  0  0  0  0
  -27.1908  -15.4519  147.5984 C   0  0  0  0  0  0  0  0  0  0  0  0
  -26.5859  -14.8641  146.4657 C   0  0  0  0  0  0  0  0  0  0  0  0
  -27.2817  -13.7485  145.8682 C   0  0  0  0  0  0  0  0  0  0  0  0
  -27.2885  -12.5559  146.5049 C   0  0  0  0  0  0  0  0  0  0  0  0
  -27.9209  -11.4355  145.8690 C   0  0  0  0  0  0  0  0  0  0  0  0
  -27.8623  -11.1558  144.5300 C   0  0  0  0  0  0  0  0  0  0  0  0
  -28.6428  -10.1390  143.9686 C   0  0  0  0  0  0  0  0  0  0  0  0
  -28.2092   -9.2690  142.9968 C   0  0  0  0  0  0  0  0  0  0  0  0
  -29.0164   -8.1537  142.6306 C   0  0  0  0  0  0  0  0  0  0  0  0
  -30.4475   -8.0980  143.0028 C   0  0  0  0  0  0  0  0  0  0  0  0
  -30.8499   -9.1346  143.8679 C   0  0  0  0  0  0  0  0  0  0  0  0
  -30.0591  -10.0989  144.3711 C   0  0  0  0  0  0  0  0  0  0  0  0
  -24.6660  -17.9594  148.4796 O   0  0  0  0  0  0  0  0  0  0  0  0
  -26.9420  -11.9219  143.6847 C   0  0  0  0  0  0  0  0  0  0  0  0
  -23.0244  -18.2308  146.4806 N   0  0  0  0  0  0  0  0  0  0  0  0
  -23.6362  -19.1036  147.3097 C   0  0  0  0  0  0  0  0  0  0  0  0
  -23.7147  -17.4969  149.4738 C   0  0  0  0  0  0  0  0  0  0  0  0
  -24.7041  -19.7590  146.7695 O   0  0  0  0  0  0  0  0  0  0  0  0
  -22.7361  -19.6833  148.0123 N   0  0  0  0  0  0  0  0  0  0  0  0
  -24.3142  -17.6848  150.8169 C   0  0  0  0  0  0  0  0  0  0  0  0
  -23.7727  -16.9193  151.7387 O   0  0  0  0  0  0  0  0  0  0  0  0
  -32.1857   -9.1004  144.1835 O   0  0  0  0  0  0  0  0  0  0  0  0
  -25.3708  -13.7962  144.2111 O   0  0  0  0  0  0  0  0  0  0  0  0
  1  2  1  0
  6  7  1  0
  7  8  1  0
 10 11  1  0
 11 12  1  0
 12 13  2  3
 13 14  1  0
 14 15  1  0
  4 21  1  0
 14 22  1  0
  2 23  1  0
 23 24  1  0
 21 25  1  0
 24 26  1  0
 24 27  1  0
 25 28  1  0
 28 29  1  0
 19 30  1  0
  7 31  2  0
  6  1  1  0
  2  3  1  0
 15 16  2  0
 16 17  1  0
 17 18  2  0
 18 19  1  0
 19 20  2  0
 20 15  1  0
  3  4  2  0
  4  5  1  0
  5  9  2  0
  9 10  1  0
 10  8  2  0
  8  3  1  0
M  END

$$$$
No_1328-/dssg/home/sw_qyf/PocketFlow/Model-Generation-Results/5HT2A_7WC7_rec_A_10.pdb/2024-01-01-03-54-21/
     RDKit          3D

 14 16  0  0  0  0  0  0  0  0999 V2000
  -23.1746  -16.6014  144.8668 C   0  0  0  0  0  0  0  0  0  0  0  0
  -24.0189  -16.0564  145.8445 C   0  0  0  0  0  0  0  0  0  0  0  0
  -24.4145  -16.8299  146.9062 C   0  0  0  0  0  0  0  0  0  0  0  0
  -23.8925  -17.9780  147.0944 C   0  0  0  0  0  0  0  0  0  0  0  0
  -24.4583  -14.6154  145.6463 C   0  0  0  0  0  0  0  0  0  0  0  0
  -23.7269  -13.6804  145.0184 C   0  0  0  0  0  0  0  0  0  0  0  0
  -23.7992  -12.3248  145.3454 C   0  0  0  0  0  0  0  0  0  0  0  0
  -23.2600  -18.6603  146.1186 C   0  0  0  0  0  0  0  0  0  0  0  0
  -22.8828  -18.0014  145.0221 C   0  0  0  0  0  0  0  0  0  0  0  0
  -24.9078  -11.8160  146.0876 C   0  0  0  0  0  0  0  0  0  0  0  0
  -25.8681  -12.8082  146.6095 C   0  0  0  0  0  0  0  0  0  0  0  0
  -25.5863  -14.1524  146.4603 C   0  0  0  0  0  0  0  0  0  0  0  0
  -26.4286  -15.1080  147.1900 C   0  0  0  0  0  0  0  0  0  0  0  0
  -25.7605  -16.4035  147.5555 C   0  0  0  0  0  0  0  0  0  0  0  0
  3 14  1  0
 14 13  2  0
 13 12  1  0
  5  2  1  0
  5  6  2  0
  6  7  1  0
  7 10  2  0
 10 11  1  0
 11 12  2  0
 12  5  1  0
  1  2  2  0
  2  3  1  0
  3  4  2  0
  4  8  1  0
  8  9  2  0
  9  1  1  0
M  END

$$$$
No_1329-/dssg/home/sw_qyf/PocketFlow/Model-Generation-Results/5HT2A_7WC7_rec_A_10.pdb/2024-01-01-03-54-21/
     RDKit          3D

 11 11  0  0  0  0  0  0  0  0999 V2000
  -23.1746  -16.6014  144.8668 C   0  0  0  0  0  0  0  0  0  0  0  0
  -23.7011  -17.0158  145.9774 C   0  0  0  0  0  0  0  0  0  0  0  0
  -24.2134  -16.0722  146.8877 C   0  0  0  0  0  0  0  0  0  0  0  0
  -23.6191  -15.3702  144.4057 C   0  0  0  0  0  0  0  0  0  0  0  0
  -24.2909  -14.3938  145.2254 C   0  0  0  0  0  0  0  0  0  0  0  0
  -24.6051  -14.7662  146.4983 C   0  0  0  0  0  0  0  0  0  0  0  0
  -24.4503  -13.1879  144.8071 F   0  0  0  0  0  0  0  0  0  0  0  0
  -23.4411  -18.4124  146.5385 C   0  0  0  0  0  0  0  0  0  0  0  0
  -23.9929  -18.8362  147.5482 O   0  0  0  0  0  0  0  0  0  0  0  0
  -22.5902  -19.0722  145.9364 O   0  0  0  0  0  0  0  0  0  0  0  0
  -24.7167  -13.9640  147.4891 F   0  0  0  0  0  0  0  0  0  0  0  0
  5  7  1  0
  2  8  1  0
  8  9  2  0
  8 10  1  0
  6 11  1  0
  1  2  2  0
  2  3  1  0
  3  6  2  0
  6  5  1  0
  5  4  2  0
  4  1  1  0
M  END

$$$$
No_1330-/dssg/home/sw_qyf/PocketFlow/Model-Generation-Results/5HT2A_7WC7_rec_A_10.pdb/2024-01-01-03-54-21/
     RDKit          3D

 17 18  0  0  0  0  0  0  0  0999 V2000
  -24.1553  -17.8465  145.7021 C   0  0  0  0  0  0  0  0  0  0  0  0
  -24.6364  -17.2931  146.7091 C   0  0  0  0  0  0  0  0  0  0  0  0
  -25.8608  -16.5592  146.5934 C   0  0  0  0  0  0  0  0  0  0  0  0
  -25.9533  -15.5604  145.6681 C   0  0  0  0  0  0  0  0  0  0  0  0
  -24.8399  -15.4389  144.8356 C   0  0  0  0  0  0  0  0  0  0  0  0
  -23.9398  -16.6015  144.7183 C   0  0  0  0  0  0  0  0  0  0  0  0
  -26.9036  -14.4944  145.6898 C   0  0  0  0  0  0  0  0  0  0  0  0
  -26.8374  -13.4659  144.7423 C   0  0  0  0  0  0  0  0  0  0  0  0
  -27.5978  -12.3234  144.8202 C   0  0  0  0  0  0  0  0  0  0  0  0
  -28.6946  -12.2561  145.8180 C   0  0  0  0  0  0  0  0  0  0  0  0
  -28.7961  -13.3632  146.7262 C   0  0  0  0  0  0  0  0  0  0  0  0
  -27.9054  -14.4043  146.7045 C   0  0  0  0  0  0  0  0  0  0  0  0
  -29.6291  -11.1193  145.8728 C   0  0  0  0  0  0  0  0  0  0  0  0
  -30.2860  -11.0385  146.9392 O   0  0  0  0  0  0  0  0  0  0  0  0
  -29.7925  -10.3647  144.8958 O   0  0  0  0  0  0  0  0  0  0  0  0
  -23.7314  -19.0457  145.3752 C   0  0  0  0  0  0  0  0  0  0  0  0
  -24.0078  -19.8793  145.9131 O   0  0  0  0  0  0  0  0  0  0  0  0
  4  7  1  0
 10 13  1  0
 13 14  1  0
 13 15  2  0
  1 16  1  0
 16 17  2  0
  1  2  2  0
  2  3  1  0
  3  4  2  0
  4  5  1  0
  5  6  2  0
  6  1  1  0
  7  8  2  0
  8  9  1  0
  9 10  2  0
 10 11  1  0
 11 12  2  0
 12  7  1  0
M  END

$$$$
No_1331-/dssg/home/sw_qyf/PocketFlow/Model-Generation-Results/5HT2A_7WC7_rec_A_10.pdb/2024-01-01-03-54-21/
     RDKit          3D

 25 27  0  0  0  0  0  0  0  0999 V2000
  -24.1553  -17.8465  145.7021 C   0  0  0  0  0  0  0  0  0  0  0  0
  -24.2856  -16.6364  145.3494 C   0  0  0  0  0  0  0  0  0  0  0  0
  -25.0033  -15.6772  146.0737 C   0  0  0  0  0  0  0  0  0  0  0  0
  -25.6964  -16.1810  147.2049 C   0  0  0  0  0  0  0  0  0  0  0  0
  -24.8143  -18.3454  146.8324 C   0  0  0  0  0  0  0  0  0  0  0  0
  -25.5291  -17.4614  147.6373 C   0  0  0  0  0  0  0  0  0  0  0  0
  -23.6446  -16.0678  144.2141 N   0  0  0  0  0  0  0  0  0  0  0  0
  -25.1743  -14.2616  145.6419 C   0  0  0  0  0  0  0  0  0  0  0  0
  -25.3119  -13.3836  146.2478 C   0  0  0  0  0  0  0  0  0  0  0  0
  -25.4460  -11.9485  145.8596 C   0  0  0  0  0  0  0  0  0  0  0  0
  -26.5704  -11.3388  145.6639 C   0  0  0  0  0  0  0  0  0  0  0  0
  -26.6115  -10.0623  144.9191 C   0  0  0  0  0  0  0  0  0  0  0  0
  -25.0204  -14.0952  144.1747 C   0  0  0  0  0  0  0  0  0  0  0  0
  -24.9947  -14.6104  143.2007 N   0  0  0  0  0  0  0  0  0  0  0  0
  -24.0880  -15.6292  143.1818 C   0  0  0  0  0  0  0  0  0  0  0  0
  -27.8228  -11.8852  146.0635 C   0  0  0  0  0  0  0  0  0  0  0  0
  -29.0513  -11.3347  145.7664 C   0  0  0  0  0  0  0  0  0  0  0  0
  -29.0932  -10.1923  144.8650 C   0  0  0  0  0  0  0  0  0  0  0  0
  -30.3498   -9.7058  144.4131 C   0  0  0  0  0  0  0  0  0  0  0  0
  -27.8899   -9.6201  144.4447 C   0  0  0  0  0  0  0  0  0  0  0  0
  -30.4228   -8.3687  144.1175 C   0  0  0  0  0  0  0  0  0  0  0  0
  -31.6748   -7.9475  143.4476 C   0  0  0  0  0  0  0  0  0  0  0  0
  -31.5644   -8.2209  141.9940 C   0  0  0  0  0  0  0  0  0  0  0  0
  -30.2521   -7.4397  141.3298 Cl  0  0  0  0  0  0  0  0  0  0  0  0
  -30.1356  -11.9230  146.2122 O   0  0  0  0  0  0  0  0  0  0  0  0
  2  7  1  0
  3  8  1  0
  8  9  2  3
  9 10  1  0
  8 13  1  0
 13 14  1  0
  7 15  1  0
 14 15  1  0
 18 19  1  0
 19 21  2  3
 21 22  1  0
 22 23  1  0
 23 24  1  0
 17 25  1  0
 10 11  1  0
 11 12  2  0
 12 20  1  0
 20 18  2  0
 18 17  1  0
 17 16  2  0
 16 11  1  0
  1  2  2  0
  2  3  1  0
  3  4  2  0
  4  6  1  0
  6  5  2  0
  5  1  1  0
M  END

$$$$
No_1332-/dssg/home/sw_qyf/PocketFlow/Model-Generation-Results/5HT2A_7WC7_rec_A_10.pdb/2024-01-01-03-54-21/
     RDKit          3D

 10 10  0  0  0  0  0  0  0  0999 V2000
  -24.1553  -17.8465  145.7021 C   0  0  0  0  0  0  0  0  0  0  0  0
  -24.2855  -16.6364  145.3494 C   0  0  0  0  0  0  0  0  0  0  0  0
  -25.0033  -15.6772  146.0737 C   0  0  0  0  0  0  0  0  0  0  0  0
  -25.1197  -14.2834  145.7299 C   0  0  0  0  0  0  0  0  0  0  0  0
  -24.2707  -13.8793  144.6500 C   0  0  0  0  0  0  0  0  0  0  0  0
  -24.8686  -18.3355  146.8179 C   0  0  0  0  0  0  0  0  0  0  0  0
  -25.6154  -17.5363  147.5807 C   0  0  0  0  0  0  0  0  0  0  0  0
  -25.7525  -16.1596  147.2668 C   0  0  0  0  0  0  0  0  0  0  0  0
  -23.3153  -13.1259  144.9220 C   0  0  0  0  0  0  0  0  0  0  0  0
  -23.4706  -11.7653  144.9012 C   0  0  0  0  0  0  0  0  0  0  0  0
  3  4  1  0
  4  5  2  3
  5  9  1  0
  9 10  2  0
  1  2  2  0
  2  3  1  0
  3  8  2  0
  8  7  1  0
  7  6  2  0
  6  1  1  0
M  END

$$$$
No_1333-/dssg/home/sw_qyf/PocketFlow/Model-Generation-Results/5HT2A_7WC7_rec_A_10.pdb/2024-01-01-03-54-21/
     RDKit          3D

 35 39  0  0  0  0  0  0  0  0999 V2000
  -23.1746  -16.6014  144.8668 C   0  0  0  0  0  0  0  0  0  0  0  0
  -24.0189  -16.0564  145.8445 C   0  0  0  0  0  0  0  0  0  0  0  0
  -24.4145  -16.8299  146.9062 C   0  0  0  0  0  0  0  0  0  0  0  0
  -23.9612  -18.1384  147.0126 C   0  0  0  0  0  0  0  0  0  0  0  0
  -23.1429  -18.6221  146.0418 C   0  0  0  0  0  0  0  0  0  0  0  0
  -22.8095  -17.8231  145.0610 N   0  0  0  0  0  0  0  0  0  0  0  0
  -24.5671  -14.6439  145.6745 C   0  0  0  0  0  0  0  0  0  0  0  0
  -23.7199  -13.6057  145.4272 C   0  0  0  0  0  0  0  0  0  0  0  0
  -24.1875  -12.2632  145.3560 C   0  0  0  0  0  0  0  0  0  0  0  0
  -25.5235  -11.9607  145.6768 C   0  0  0  0  0  0  0  0  0  0  0  0
  -26.3987  -13.0053  146.0456 C   0  0  0  0  0  0  0  0  0  0  0  0
  -25.9266  -14.3501  146.1078 C   0  0  0  0  0  0  0  0  0  0  0  0
  -27.8030  -12.7637  146.4618 C   0  0  0  0  0  0  0  0  0  0  0  0
  -28.3532  -13.4913  147.2431 O   0  0  0  0  0  0  0  0  0  0  0  0
  -28.5179  -11.6156  145.9091 C   0  0  0  0  0  0  0  0  0  0  0  0
  -29.8347  -11.3716  146.3731 C   0  0  0  0  0  0  0  0  0  0  0  0
  -28.1026  -10.8019  144.8332 C   0  0  0  0  0  0  0  0  0  0  0  0
  -26.9037  -10.5593  144.3656 C   0  0  0  0  0  0  0  0  0  0  0  0
  -25.7043  -11.1535  144.8053 C   0  0  0  0  0  0  0  0  0  0  0  0
  -30.2094  -12.0118  147.4411 O   0  0  0  0  0  0  0  0  0  0  0  0
  -29.5704  -13.1657  147.8636 C   0  0  0  0  0  0  0  0  0  0  0  0
  -30.6535  -10.5136  145.9298 O   0  0  0  0  0  0  0  0  0  0  0  0
  -30.1854  -14.0779  148.8398 C   0  0  0  0  0  0  0  0  0  0  0  0
  -29.7166  -15.3972  148.8461 C   0  0  0  0  0  0  0  0  0  0  0  0
  -29.0142  -15.8818  147.7530 C   0  0  0  0  0  0  0  0  0  0  0  0
  -28.2963  -17.1326  147.9768 C   0  0  0  0  0  0  0  0  0  0  0  0
  -28.4747  -17.7210  149.1970 N   0  0  0  0  0  0  0  0  0  0  0  0
  -29.7260  -16.2414  149.9366 N   0  0  0  0  0  0  0  0  0  0  0  0
  -29.2031  -17.3268  150.1176 C   0  0  0  0  0  0  0  0  0  0  0  0
  -22.8524  -15.9039  143.8634 O   0  0  0  0  0  0  0  0  0  0  0  0
  -24.6245  -10.4516  144.3010 F   0  0  0  0  0  0  0  0  0  0  0  0
  -22.9397  -11.7701  146.5092 Cl  0  0  0  0  0  0  0  0  0  0  0  0
  -29.3279  -18.0488  151.2597 N   0  0  0  0  0  0  0  0  0  0  0  0
  -29.8991  -17.5244  152.4118 C   0  0  0  0  0  0  0  0  0  0  0  0
  -29.9548  -18.3079  153.6115 C   0  0  0  0  0  0  0  0  0  0  0  0
  1  2  1  0
  3  4  1  0
  1  6  1  0
  5  6  1  0
  2  7  1  0
 11 13  1  0
 13 14  1  0
 13 15  1  0
 15 16  1  0
 15 17  1  0
 17 18  2  0
 10 19  1  0
 18 19  1  0
 16 20  1  0
 14 21  1  0
 20 21  1  0
 16 22  2  0
 21 23  1  0
 23 24  1  0
  1 30  2  0
 19 31  1  0
  9 32  1  0
 29 33  1  0
 33 34  1  0
 34 35  2  0
  2  3  1  0
  4  5  1  0
 24 25  2  0
 25 26  1  0
 26 27  2  0
 27 29  1  0
 29 28  2  0
 28 24  1  0
  7  8  2  0
  8  9  1  0
  9 10  2  0
 10 11  1  0
 11 12  2  0
 12  7  1  0
M  END

$$$$
No_1334-/dssg/home/sw_qyf/PocketFlow/Model-Generation-Results/5HT2A_7WC7_rec_A_10.pdb/2024-01-01-03-54-21/
     RDKit          3D

 35 37  0  0  0  0  0  0  0  0999 V2000
  -23.1746  -16.6014  144.8668 C   0  0  0  0  0  0  0  0  0  0  0  0
  -23.8963  -15.5346  144.7885 C   0  0  0  0  0  0  0  0  0  0  0  0
  -23.4976  -14.2961  145.1226 C   0  0  0  0  0  0  0  0  0  0  0  0
  -23.9189  -13.0599  144.7480 C   0  0  0  0  0  0  0  0  0  0  0  0
  -24.2390  -12.1464  145.9050 C   0  0  0  0  0  0  0  0  0  0  0  0
  -25.3079  -11.1942  145.5538 C   0  0  0  0  0  0  0  0  0  0  0  0
  -25.6892  -10.8682  144.3290 C   0  0  0  0  0  0  0  0  0  0  0  0
  -26.8927  -11.6673  143.8998 C   0  0  0  0  0  0  0  0  0  0  0  0
  -28.1548  -10.8521  144.0213 C   0  0  0  0  0  0  0  0  0  0  0  0
  -28.8658  -11.1076  145.2227 C   0  0  0  0  0  0  0  0  0  0  0  0
  -28.6403  -12.1406  146.1054 C   0  0  0  0  0  0  0  0  0  0  0  0
  -29.6058  -12.6658  146.8723 C   0  0  0  0  0  0  0  0  0  0  0  0
  -29.5405  -13.8865  147.5916 C   0  0  0  0  0  0  0  0  0  0  0  0
  -28.3535  -14.6550  147.4136 C   0  0  0  0  0  0  0  0  0  0  0  0
  -27.2636  -14.0960  146.6255 C   0  0  0  0  0  0  0  0  0  0  0  0
  -27.5041  -12.9113  145.9054 C   0  0  0  0  0  0  0  0  0  0  0  0
  -28.5947  -10.0020  142.9958 C   0  0  0  0  0  0  0  0  0  0  0  0
  -29.6899   -9.1132  143.2235 C   0  0  0  0  0  0  0  0  0  0  0  0
  -30.6919   -8.8556  142.3515 C   0  0  0  0  0  0  0  0  0  0  0  0
  -30.2250   -8.6040  141.0752 N   0  0  0  0  0  0  0  0  0  0  0  0
  -29.1012   -8.1607  140.8219 C   0  0  0  0  0  0  0  0  0  0  0  0
  -31.9356   -8.9606  142.5869 O   0  0  0  0  0  0  0  0  0  0  0  0
  -28.9988   -7.7661  139.3573 C   0  0  0  0  0  0  0  0  0  0  0  0
  -28.0325   -8.5607  138.5394 C   0  0  0  0  0  0  0  0  0  0  0  0
  -28.1728   -8.3291  137.2234 C   0  0  0  0  0  0  0  0  0  0  0  0
  -26.9824  -12.8472  143.7753 O   0  0  0  0  0  0  0  0  0  0  0  0
  -27.1745  -13.3969  144.5759 C   0  0  0  0  0  0  0  0  0  0  0  0
  -23.6913  -17.6972  145.3210 C   0  0  0  0  0  0  0  0  0  0  0  0
  -24.8409  -17.6840  146.2533 C   0  0  0  0  0  0  0  0  0  0  0  0
  -25.7869  -16.6846  146.0191 C   0  0  0  0  0  0  0  0  0  0  0  0
  -25.2184  -15.4385  145.4822 C   0  0  0  0  0  0  0  0  0  0  0  0
  -28.2412  -15.9313  148.1306 C   0  0  0  0  0  0  0  0  0  0  0  0
  -27.0710  -16.6653  148.1308 C   0  0  0  0  0  0  0  0  0  0  0  0
  -26.9091  -17.4741  149.2910 C   0  0  0  0  0  0  0  0  0  0  0  0
  -25.5557  -17.7675  149.7727 C   0  0  0  0  0  0  0  0  0  0  0  0
  2  3  1  0
  3  4  1  0
  4  5  1  0
  5  6  1  0
  6  7  1  0
  7  8  1  0
  8  9  1  0
  9 10  1  0
  9 17  1  0
 17 18  2  3
 18 19  1  0
 19 20  1  0
 20 21  1  0
 19 22  2  0
 21 23  1  0
 23 24  1  0
 24 25  2  0
  8 26  1  0
 16 27  1  0
 26 27  1  0
 14 32  1  0
 32 33  2  3
 33 34  1  0
 34 35  1  0
 10 11  1  0
 11 12  2  0
 12 13  1  0
 13 14  2  0
 14 15  1  0
 15 16  2  0
 16 11  1  0
  1  2  2  0
  2 31  1  0
 31 30  2  0
 30 29  1  0
 29 28  2  0
 28  1  1  0
M  END

$$$$
No_1335-/dssg/home/sw_qyf/PocketFlow/Model-Generation-Results/5HT2A_7WC7_rec_A_10.pdb/2024-01-01-03-54-21/
     RDKit          3D

 35 37  0  0  0  0  0  0  0  0999 V2000
  -23.1746  -16.6014  144.8668 C   0  0  0  0  0  0  0  0  0  0  0  0
  -23.8963  -15.5346  144.7885 C   0  0  0  0  0  0  0  0  0  0  0  0
  -23.4976  -14.2961  145.1226 C   0  0  0  0  0  0  0  0  0  0  0  0
  -23.9189  -13.0599  144.7480 C   0  0  0  0  0  0  0  0  0  0  0  0
  -24.2391  -12.1464  145.9050 C   0  0  0  0  0  0  0  0  0  0  0  0
  -24.4752  -12.6754  147.1934 C   0  0  0  0  0  0  0  0  0  0  0  0
  -23.7345  -17.7767  145.0178 C   0  0  0  0  0  0  0  0  0  0  0  0
  -24.8756  -17.8449  145.9807 C   0  0  0  0  0  0  0  0  0  0  0  0
  -25.8052  -16.7875  146.0450 C   0  0  0  0  0  0  0  0  0  0  0  0
  -25.2304  -15.5127  145.5798 C   0  0  0  0  0  0  0  0  0  0  0  0
  -27.0351  -16.8430  146.6847 C   0  0  0  0  0  0  0  0  0  0  0  0
  -26.9443  -16.3661  148.0131 C   0  0  0  0  0  0  0  0  0  0  0  0
  -28.1592  -16.2811  148.8099 C   0  0  0  0  0  0  0  0  0  0  0  0
  -29.3119  -15.4599  148.2922 C   0  0  0  0  0  0  0  0  0  0  0  0
  -30.1500  -14.7070  149.0600 C   0  0  0  0  0  0  0  0  0  0  0  0
  -30.9219  -13.6247  148.4374 C   0  0  0  0  0  0  0  0  0  0  0  0
  -30.5847  -13.3669  147.0959 C   0  0  0  0  0  0  0  0  0  0  0  0
  -29.5836  -14.0222  146.4238 C   0  0  0  0  0  0  0  0  0  0  0  0
  -28.9167  -15.0240  146.9948 C   0  0  0  0  0  0  0  0  0  0  0  0
  -31.8960  -12.8933  149.2683 C   0  0  0  0  0  0  0  0  0  0  0  0
  -32.9525  -13.4672  149.3619 F   0  0  0  0  0  0  0  0  0  0  0  0
  -32.0808  -11.7109  148.4577 F   0  0  0  0  0  0  0  0  0  0  0  0
  -31.3860  -12.3789  150.4181 F   0  0  0  0  0  0  0  0  0  0  0  0
  -25.5279  -11.3487  145.4796 C   0  0  0  0  0  0  0  0  0  0  0  0
  -26.7618  -11.7362  145.9415 C   0  0  0  0  0  0  0  0  0  0  0  0
  -27.8118  -10.8653  145.5196 C   0  0  0  0  0  0  0  0  0  0  0  0
  -27.6607  -10.0865  144.3421 C   0  0  0  0  0  0  0  0  0  0  0  0
  -28.7763   -9.3932  143.9102 C   0  0  0  0  0  0  0  0  0  0  0  0
  -28.7526   -8.6240  142.7761 C   0  0  0  0  0  0  0  0  0  0  0  0
  -29.4138   -7.3938  142.7776 C   0  0  0  0  0  0  0  0  0  0  0  0
  -29.1611   -6.3716  141.8294 C   0  0  0  0  0  0  0  0  0  0  0  0
  -29.3186   -6.7696  140.4683 C   0  0  0  0  0  0  0  0  0  0  0  0
  -29.7151   -8.1522  140.1824 C   0  0  0  0  0  0  0  0  0  0  0  0
  -28.8091   -9.0523  141.0681 C   0  0  0  0  0  0  0  0  0  0  0  0
  -28.2203  -10.2300  140.7573 C   0  0  0  0  0  0  0  0  0  0  0  0
  2  3  1  0
  3  4  1  0
  4  5  1  0
  5  6  1  0
  9 11  1  0
 11 12  1  0
 12 13  2  3
 13 14  1  0
 16 20  1  0
 20 21  1  0
 20 22  1  0
 20 23  1  0
  5 24  1  0
 24 25  1  0
 25 26  1  0
 26 27  1  0
 27 28  1  0
 28 29  1  0
 29 30  1  0
 30 31  1  0
 31 32  1  0
 32 33  1  0
 29 34  1  0
 33 34  1  0
 34 35  1  0
  1  2  2  0
  2 10  1  0
 10  9  2  0
  9  8  1  0
  8  7  2  0
  7  1  1  0
 14 15  2  0
 15 16  1  0
 16 17  2  0
 17 18  1  0
 18 19  2  0
 19 14  1  0
M  END

$$$$
No_1336-/dssg/home/sw_qyf/PocketFlow/Model-Generation-Results/5HT2A_7WC7_rec_A_10.pdb/2024-01-01-03-54-21/
     RDKit          3D

 23 25  0  0  0  0  0  0  0  0999 V2000
  -24.1553  -17.8465  145.7021 C   0  0  0  0  0  0  0  0  0  0  0  0
  -23.9795  -18.4462  146.7426 C   0  0  0  0  0  0  0  0  0  0  0  0
  -25.1196  -16.8106  145.6408 C   0  0  0  0  0  0  0  0  0  0  0  0
  -25.2440  -15.8776  144.5240 C   0  0  0  0  0  0  0  0  0  0  0  0
  -26.0733  -14.7284  144.7060 C   0  0  0  0  0  0  0  0  0  0  0  0
  -27.0964  -14.7050  145.6625 C   0  0  0  0  0  0  0  0  0  0  0  0
  -27.1085  -15.7327  146.6117 C   0  0  0  0  0  0  0  0  0  0  0  0
  -26.1368  -16.7554  146.5717 C   0  0  0  0  0  0  0  0  0  0  0  0
  -24.8114  -18.2473  147.8694 C   0  0  0  0  0  0  0  0  0  0  0  0
  -25.9260  -17.3904  147.8369 C   0  0  0  0  0  0  0  0  0  0  0  0
  -26.0456  -13.7137  143.6184 C   0  0  0  0  0  0  0  0  0  0  0  0
  -24.9881  -13.4811  143.2028 F   0  0  0  0  0  0  0  0  0  0  0  0
  -26.9060  -14.0909  142.5988 F   0  0  0  0  0  0  0  0  0  0  0  0
  -26.5377  -12.4782  144.0969 F   0  0  0  0  0  0  0  0  0  0  0  0
  -28.2390  -15.7355  147.5742 C   0  0  0  0  0  0  0  0  0  0  0  0
  -29.0916  -14.6082  147.6839 C   0  0  0  0  0  0  0  0  0  0  0  0
  -28.9269  -13.3772  147.0611 C   0  0  0  0  0  0  0  0  0  0  0  0
  -28.1884  -12.8451  146.4789 C   0  0  0  0  0  0  0  0  0  0  0  0
  -27.2215  -13.4611  145.6312 C   0  0  0  0  0  0  0  0  0  0  0  0
  -26.5775  -12.8789  145.0916 Cl  0  0  0  0  0  0  0  0  0  0  0  0
  -30.2651  -12.5283  147.2220 C   0  0  0  0  0  0  0  0  0  0  0  0
  -30.9308  -12.6244  148.2924 O   0  0  0  0  0  0  0  0  0  0  0  0
  -30.2785  -11.3996  146.6077 O   0  0  0  0  0  0  0  0  0  0  0  0
  5 11  1  0
 11 12  1  0
 11 13  1  0
 11 14  1  0
  7 15  1  0
 15 16  2  0
 16 17  1  0
 17 18  2  0
  6 19  1  0
 18 19  1  0
 19 20  1  0
 17 21  1  0
 21 22  1  0
 21 23  2  0
  1  2  2  0
  2  9  1  0
  9 10  2  0
 10  8  1  0
  3  1  1  0
  3  4  2  0
  4  5  1  0
  5  6  2  0
  6  7  1  0
  7  8  2  0
  8  3  1  0
M  END

$$$$
No_1337-/dssg/home/sw_qyf/PocketFlow/Model-Generation-Results/5HT2A_7WC7_rec_A_10.pdb/2024-01-01-03-54-21/
     RDKit          3D

 21 22  0  0  0  0  0  0  0  0999 V2000
  -24.1553  -17.8465  145.7021 C   0  0  0  0  0  0  0  0  0  0  0  0
  -23.9795  -18.4462  146.7426 C   0  0  0  0  0  0  0  0  0  0  0  0
  -25.1593  -16.8262  145.6925 C   0  0  0  0  0  0  0  0  0  0  0  0
  -25.3302  -15.8818  144.5925 C   0  0  0  0  0  0  0  0  0  0  0  0
  -24.4570  -18.1009  148.0274 C   0  0  0  0  0  0  0  0  0  0  0  0
  -25.3496  -17.0286  148.1023 C   0  0  0  0  0  0  0  0  0  0  0  0
  -25.5669  -16.2449  146.9641 C   0  0  0  0  0  0  0  0  0  0  0  0
  -25.1447  -14.4296  144.8260 C   0  0  0  0  0  0  0  0  0  0  0  0
  -25.8955  -13.8381  145.7744 C   0  0  0  0  0  0  0  0  0  0  0  0
  -26.4048  -14.3832  146.7723 C   0  0  0  0  0  0  0  0  0  0  0  0
  -26.2029  -15.0644  147.3302 C   0  0  0  0  0  0  0  0  0  0  0  0
  -24.3654  -13.6952  143.8109 C   0  0  0  0  0  0  0  0  0  0  0  0
  -23.1328  -13.3955  144.2388 O   0  0  0  0  0  0  0  0  0  0  0  0
  -25.9430  -16.8303  149.2810 O   0  0  0  0  0  0  0  0  0  0  0  0
  -23.7112  -18.1933  144.5488 O   0  0  0  0  0  0  0  0  0  0  0  0
  -26.0296  -17.9472  150.1486 C   0  0  0  0  0  0  0  0  0  0  0  0
  -25.1658  -17.6679  151.3997 C   0  0  0  0  0  0  0  0  0  0  0  0
  -27.4141  -18.0319  150.7728 C   0  0  0  0  0  0  0  0  0  0  0  0
  -27.6946  -18.7940  151.7547 O   0  0  0  0  0  0  0  0  0  0  0  0
  -28.3904  -17.5636  150.0842 O   0  0  0  0  0  0  0  0  0  0  0  0
  -24.8969  -13.2726  142.9519 O   0  0  0  0  0  0  0  0  0  0  0  0
  3  4  1  0
  4  8  1  0
  8  9  2  0
  9 10  1  0
  7 11  1  0
 10 11  1  0
  8 12  1  0
 12 13  1  0
  6 14  1  0
  1 15  1  0
 14 16  1  0
 16 17  1  0
 16 18  1  0
 18 19  2  0
 18 20  1  0
 12 21  2  0
  1  2  2  0
  2  5  1  0
  5  6  2  0
  6  7  1  0
  7  3  2  0
  3  1  1  0
M  END

$$$$
No_1338-/dssg/home/sw_qyf/PocketFlow/Model-Generation-Results/5HT2A_7WC7_rec_A_10.pdb/2024-01-01-03-54-21/
     RDKit          3D

 31 32  0  0  0  0  0  0  0  0999 V2000
  -24.0934  -18.1020  145.4883 Cl  0  0  0  0  0  0  0  0  0  0  0  0
  -24.1957  -16.5069  145.7546 C   0  0  0  0  0  0  0  0  0  0  0  0
  -24.5557  -15.9215  146.9469 C   0  0  0  0  0  0  0  0  0  0  0  0
  -24.7458  -14.5451  147.0399 C   0  0  0  0  0  0  0  0  0  0  0  0
  -24.5203  -13.6635  145.9617 C   0  0  0  0  0  0  0  0  0  0  0  0
  -24.0419  -14.3187  144.7697 C   0  0  0  0  0  0  0  0  0  0  0  0
  -23.9079  -15.6504  144.6373 C   0  0  0  0  0  0  0  0  0  0  0  0
  -24.6363  -12.2269  146.0840 C   0  0  0  0  0  0  0  0  0  0  0  0
  -25.1853  -11.7564  147.1381 O   0  0  0  0  0  0  0  0  0  0  0  0
  -23.9484  -11.4780  145.3147 O   0  0  0  0  0  0  0  0  0  0  0  0
  -24.8834  -16.8125  148.1427 C   0  0  0  0  0  0  0  0  0  0  0  0
  -24.3534  -17.0423  149.4830 Cl  0  0  0  0  0  0  0  0  0  0  0  0
  -26.2372  -17.4850  147.8675 C   0  0  0  0  0  0  0  0  0  0  0  0
  -27.3431  -16.7620  148.4871 C   0  0  0  0  0  0  0  0  0  0  0  0
  -28.3366  -16.3034  147.6100 C   0  0  0  0  0  0  0  0  0  0  0  0
  -29.3626  -15.4079  148.0940 C   0  0  0  0  0  0  0  0  0  0  0  0
  -30.0453  -15.4854  149.2795 C   0  0  0  0  0  0  0  0  0  0  0  0
  -30.9863  -14.5698  149.7143 C   0  0  0  0  0  0  0  0  0  0  0  0
  -31.1712  -13.4343  148.9385 C   0  0  0  0  0  0  0  0  0  0  0  0
  -30.3404  -13.1854  147.8214 C   0  0  0  0  0  0  0  0  0  0  0  0
  -29.4263  -14.1370  147.4055 C   0  0  0  0  0  0  0  0  0  0  0  0
  -32.1088  -12.3705  149.3966 C   0  0  0  0  0  0  0  0  0  0  0  0
  -32.7468  -12.5609  150.4554 N   0  0  0  0  0  0  0  0  0  0  0  0
  -32.3991  -11.4887  148.5362 O   0  0  0  0  0  0  0  0  0  0  0  0
  -33.7150  -11.5360  150.9563 C   0  0  0  0  0  0  0  0  0  0  0  0
  -28.6344  -13.8930  146.2523 C   0  0  0  0  0  0  0  0  0  0  0  0
  -27.7478  -13.2229  146.2095 N   0  0  0  0  0  0  0  0  0  0  0  0
  -27.1290  -12.7609  144.9754 C   0  0  0  0  0  0  0  0  0  0  0  0
  -27.4338  -11.4733  144.5815 C   0  0  0  0  0  0  0  0  0  0  0  0
  -27.3419  -10.4405  145.3345 C   0  0  0  0  0  0  0  0  0  0  0  0
  -27.6774   -9.1475  144.7218 C   0  0  0  0  0  0  0  0  0  0  0  0
  1  2  1  0
  5  8  1  0
  8  9  1  0
  8 10  2  0
  3 11  1  0
 11 12  1  0
 11 13  1  0
 13 14  1  0
 14 15  2  3
 15 16  1  0
 19 22  1  0
 22 23  1  0
 22 24  2  0
 23 25  1  0
 21 26  1  0
 26 27  1  0
 27 28  1  0
 28 29  1  0
 29 30  2  3
 30 31  1  0
  2  3  2  0
  3  4  1  0
  4  5  2  0
  5  6  1  0
  6  7  2  0
  7  2  1  0
 16 17  2  0
 17 18  1  0
 18 19  2  0
 19 20  1  0
 20 21  2  0
 21 16  1  0
M  END

$$$$
No_1339-/dssg/home/sw_qyf/PocketFlow/Model-Generation-Results/5HT2A_7WC7_rec_A_10.pdb/2024-01-01-03-54-21/
     RDKit          3D

 35 38  0  0  0  0  0  0  0  0999 V2000
  -24.1553  -17.8465  145.7021 C   0  0  0  0  0  0  0  0  0  0  0  0
  -24.2855  -16.6364  145.3494 C   0  0  0  0  0  0  0  0  0  0  0  0
  -24.7211  -15.5955  146.2116 C   0  0  0  0  0  0  0  0  0  0  0  0
  -25.1321  -16.0374  147.5372 C   0  0  0  0  0  0  0  0  0  0  0  0
  -24.5141  -18.2630  147.0046 C   0  0  0  0  0  0  0  0  0  0  0  0
  -24.9573  -17.2963  147.9769 C   0  0  0  0  0  0  0  0  0  0  0  0
  -24.8746  -14.1906  145.7995 C   0  0  0  0  0  0  0  0  0  0  0  0
  -25.6087  -13.2864  146.3280 C   0  0  0  0  0  0  0  0  0  0  0  0
  -25.6033  -11.9300  145.9406 C   0  0  0  0  0  0  0  0  0  0  0  0
  -23.9710  -13.7633  144.7509 C   0  0  0  0  0  0  0  0  0  0  0  0
  -23.6512  -12.3152  144.6109 C   0  0  0  0  0  0  0  0  0  0  0  0
  -24.5611  -11.4640  145.1577 C   0  0  0  0  0  0  0  0  0  0  0  0
  -23.9617  -16.2531  144.1158 O   0  0  0  0  0  0  0  0  0  0  0  0
  -25.2657  -17.6992  149.3826 C   0  0  0  0  0  0  0  0  0  0  0  0
  -24.2903  -17.1926  150.3807 C   0  0  0  0  0  0  0  0  0  0  0  0
  -24.7731  -16.9498  151.5186 F   0  0  0  0  0  0  0  0  0  0  0  0
  -23.3961  -18.2734  150.6534 F   0  0  0  0  0  0  0  0  0  0  0  0
  -23.5263  -16.2135  149.9447 F   0  0  0  0  0  0  0  0  0  0  0  0
  -23.7648  -18.8288  144.9403 O   0  0  0  0  0  0  0  0  0  0  0  0
  -26.4053  -10.9721  146.5753 O   0  0  0  0  0  0  0  0  0  0  0  0
  -27.5712  -10.8322  145.7691 C   0  0  0  0  0  0  0  0  0  0  0  0
  -27.5136  -10.1276  144.5837 C   0  0  0  0  0  0  0  0  0  0  0  0
  -28.6612   -9.7779  143.9388 C   0  0  0  0  0  0  0  0  0  0  0  0
  -29.8926  -10.0010  144.6475 C   0  0  0  0  0  0  0  0  0  0  0  0
  -29.9053  -10.7383  145.8732 C   0  0  0  0  0  0  0  0  0  0  0  0
  -28.6939  -11.0372  146.4686 C   0  0  0  0  0  0  0  0  0  0  0  0
  -28.5549   -9.3913  142.5738 C   0  0  0  0  0  0  0  0  0  0  0  0
  -28.3173  -10.3030  141.5104 C   0  0  0  0  0  0  0  0  0  0  0  0
  -28.0104   -9.8641  140.2699 C   0  0  0  0  0  0  0  0  0  0  0  0
  -28.4801   -8.5785  139.8385 C   0  0  0  0  0  0  0  0  0  0  0  0
  -29.0393   -7.7104  140.8627 C   0  0  0  0  0  0  0  0  0  0  0  0
  -29.1156   -8.1843  142.1849 C   0  0  0  0  0  0  0  0  0  0  0  0
  -28.1603   -8.2980  138.4840 C   0  0  0  0  0  0  0  0  0  0  0  0
  -27.4206   -7.4268  138.1608 O   0  0  0  0  0  0  0  0  0  0  0  0
  -28.9496   -8.9162  137.5762 O   0  0  0  0  0  0  0  0  0  0  0  0
  3  7  1  0
  2 13  1  0
  6 14  1  0
 14 15  1  0
 15 16  1  0
 15 17  1  0
 15 18  1  0
  1 19  1  0
  9 20  1  0
 20 21  1  0
 23 27  1  0
 30 33  1  0
 33 34  2  0
 33 35  1  0
 27 28  2  0
 28 29  1  0
 29 30  2  0
 30 31  1  0
 31 32  2  0
 32 27  1  0
  1  2  2  0
  2  3  1  0
  3  4  2  0
  4  6  1  0
  6  5  2  0
  5  1  1  0
  7  8  2  0
  8  9  1  0
  9 12  2  0
 12 11  1  0
 11 10  2  0
 10  7  1  0
 21 22  2  0
 22 23  1  0
 23 24  2  0
 24 25  1  0
 25 26  2  0
 26 21  1  0
M  END

$$$$
No_1340-/dssg/home/sw_qyf/PocketFlow/Model-Generation-Results/5HT2A_7WC7_rec_A_10.pdb/2024-01-01-03-54-21/
     RDKit          3D

 21 22  0  0  0  0  0  0  0  0999 V2000
  -24.1553  -17.8465  145.7021 C   0  0  0  0  0  0  0  0  0  0  0  0
  -24.2855  -16.6364  145.3494 C   0  0  0  0  0  0  0  0  0  0  0  0
  -24.7838  -15.7223  145.8474 C   0  0  0  0  0  0  0  0  0  0  0  0
  -24.8736  -14.2869  145.3929 C   0  0  0  0  0  0  0  0  0  0  0  0
  -25.5953  -13.2445  145.9611 C   0  0  0  0  0  0  0  0  0  0  0  0
  -25.3343  -11.9118  145.7311 C   0  0  0  0  0  0  0  0  0  0  0  0
  -24.8347  -18.2371  146.8726 C   0  0  0  0  0  0  0  0  0  0  0  0
  -25.5149  -17.2924  147.5834 C   0  0  0  0  0  0  0  0  0  0  0  0
  -25.5563  -15.9715  147.1028 C   0  0  0  0  0  0  0  0  0  0  0  0
  -24.0877  -13.8815  144.2531 C   0  0  0  0  0  0  0  0  0  0  0  0
  -26.4311  -10.9562  145.8357 C   0  0  0  0  0  0  0  0  0  0  0  0
  -27.3324  -10.9242  144.7615 C   0  0  0  0  0  0  0  0  0  0  0  0
  -27.8349   -9.7414  144.2673 C   0  0  0  0  0  0  0  0  0  0  0  0
  -28.8781   -9.6521  143.2965 C   0  0  0  0  0  0  0  0  0  0  0  0
  -28.7420  -10.5269  142.2241 C   0  0  0  0  0  0  0  0  0  0  0  0
  -27.9750  -11.7490  142.5080 C   0  0  0  0  0  0  0  0  0  0  0  0
  -27.1735  -11.8337  143.6992 C   0  0  0  0  0  0  0  0  0  0  0  0
  -29.7122   -8.4731  143.1101 C   0  0  0  0  0  0  0  0  0  0  0  0
  -31.0689   -8.5942  142.8981 C   0  0  0  0  0  0  0  0  0  0  0  0
  -31.6659   -9.7539  142.9665 N   0  0  0  0  0  0  0  0  0  0  0  0
  -22.9354  -13.2985  144.5798 O   0  0  0  0  0  0  0  0  0  0  0  0
  3  4  1  0
  4  5  1  0
  5  6  2  3
  4 10  1  0
  6 11  1  0
 11 12  1  0
 14 18  1  0
 18 19  2  3
 19 20  1  0
 10 21  1  0
 12 13  2  0
 13 14  1  0
 14 15  2  0
 15 16  1  0
 16 17  2  0
 17 12  1  0
  1  2  2  0
  2  3  1  0
  3  9  2  0
  9  8  1  0
  8  7  2  0
  7  1  1  0
M  END

$$$$
No_1341-/dssg/home/sw_qyf/PocketFlow/Model-Generation-Results/5HT2A_7WC7_rec_A_10.pdb/2024-01-01-03-54-21/
     RDKit          3D

 27 29  0  0  0  0  0  0  0  0999 V2000
  -23.1746  -16.6014  144.8668 C   0  0  0  0  0  0  0  0  0  0  0  0
  -24.0189  -16.0564  145.8445 C   0  0  0  0  0  0  0  0  0  0  0  0
  -24.4145  -16.8299  146.9062 C   0  0  0  0  0  0  0  0  0  0  0  0
  -25.2273  -16.2787  147.9854 C   0  0  0  0  0  0  0  0  0  0  0  0
  -25.7358  -15.0095  147.7773 C   0  0  0  0  0  0  0  0  0  0  0  0
  -25.3901  -14.2337  146.6672 C   0  0  0  0  0  0  0  0  0  0  0  0
  -24.5390  -14.7030  145.7350 C   0  0  0  0  0  0  0  0  0  0  0  0
  -24.1465  -13.8569  144.6317 C   0  0  0  0  0  0  0  0  0  0  0  0
  -24.9286  -13.6580  143.8130 O   0  0  0  0  0  0  0  0  0  0  0  0
  -22.9094  -13.3086  144.6398 O   0  0  0  0  0  0  0  0  0  0  0  0
  -23.9781  -18.1906  147.2849 C   0  0  0  0  0  0  0  0  0  0  0  0
  -23.1606  -18.4501  148.2233 F   0  0  0  0  0  0  0  0  0  0  0  0
  -25.1223  -18.9938  147.4954 F   0  0  0  0  0  0  0  0  0  0  0  0
  -23.4433  -18.7797  146.1109 F   0  0  0  0  0  0  0  0  0  0  0  0
  -25.8919  -12.8264  146.6261 C   0  0  0  0  0  0  0  0  0  0  0  0
  -27.2872  -12.6183  146.3845 C   0  0  0  0  0  0  0  0  0  0  0  0
  -27.6915  -11.5131  145.6256 C   0  0  0  0  0  0  0  0  0  0  0  0
  -26.6905  -10.5518  145.1806 C   0  0  0  0  0  0  0  0  0  0  0  0
  -25.3078  -10.8935  145.3957 C   0  0  0  0  0  0  0  0  0  0  0  0
  -24.9946  -11.9564  146.0577 C   0  0  0  0  0  0  0  0  0  0  0  0
  -27.1063   -9.4574  144.5142 N   0  0  0  0  0  0  0  0  0  0  0  0
  -28.3802   -9.2726  143.9924 C   0  0  0  0  0  0  0  0  0  0  0  0
  -28.6448   -8.2383  143.1893 C   0  0  0  0  0  0  0  0  0  0  0  0
  -29.9562   -8.0160  142.6532 C   0  0  0  0  0  0  0  0  0  0  0  0
  -30.9064   -9.0091  142.9809 C   0  0  0  0  0  0  0  0  0  0  0  0
  -30.5369  -10.1192  143.7386 C   0  0  0  0  0  0  0  0  0  0  0  0
  -29.2997  -10.2820  144.2742 C   0  0  0  0  0  0  0  0  0  0  0  0
  1  2  1  0
  7  8  1  0
  8  9  1  0
  8 10  2  0
  3 11  1  0
 11 12  1  0
 11 13  1  0
 11 14  1  0
  6 15  1  0
 18 21  1  0
 21 22  1  0
 15 16  2  0
 16 17  1  0
 17 18  2  0
 18 19  1  0
 19 20  2  0
 20 15  1  0
  2  3  2  0
  3  4  1  0
  4  5  2  0
  5  6  1  0
  6  7  2  0
  7  2  1  0
 22 23  2  0
 23 24  1  0
 24 25  2  0
 25 26  1  0
 26 27  2  0
 27 22  1  0
M  END

$$$$
No_1342-/dssg/home/sw_qyf/PocketFlow/Model-Generation-Results/5HT2A_7WC7_rec_A_10.pdb/2024-01-01-03-54-21/
     RDKit          3D

 33 35  0  0  0  0  0  0  0  0999 V2000
  -24.1553  -17.8465  145.7021 C   0  0  0  0  0  0  0  0  0  0  0  0
  -24.2855  -16.6364  145.3494 C   0  0  0  0  0  0  0  0  0  0  0  0
  -25.0033  -15.6772  146.0737 C   0  0  0  0  0  0  0  0  0  0  0  0
  -25.6964  -16.1809  147.2049 C   0  0  0  0  0  0  0  0  0  0  0  0
  -24.8143  -18.3454  146.8324 C   0  0  0  0  0  0  0  0  0  0  0  0
  -25.5291  -17.4614  147.6374 C   0  0  0  0  0  0  0  0  0  0  0  0
  -23.6447  -16.0678  144.2141 N   0  0  0  0  0  0  0  0  0  0  0  0
  -25.1743  -14.2616  145.6420 C   0  0  0  0  0  0  0  0  0  0  0  0
  -25.3118  -13.3836  146.2479 C   0  0  0  0  0  0  0  0  0  0  0  0
  -25.4459  -11.9485  145.8596 C   0  0  0  0  0  0  0  0  0  0  0  0
  -26.5703  -11.3388  145.6640 C   0  0  0  0  0  0  0  0  0  0  0  0
  -27.7997  -11.7667  146.0427 C   0  0  0  0  0  0  0  0  0  0  0  0
  -29.0308  -11.1571  145.7057 C   0  0  0  0  0  0  0  0  0  0  0  0
  -29.0359  -10.1974  144.6476 C   0  0  0  0  0  0  0  0  0  0  0  0
  -27.7563   -9.7809  144.1569 C   0  0  0  0  0  0  0  0  0  0  0  0
  -26.5998  -10.3110  144.5948 C   0  0  0  0  0  0  0  0  0  0  0  0
  -30.3117   -9.6423  144.2375 C   0  0  0  0  0  0  0  0  0  0  0  0
  -30.5050   -9.5317  142.8602 C   0  0  0  0  0  0  0  0  0  0  0  0
  -29.8422   -8.7506  142.3232 F   0  0  0  0  0  0  0  0  0  0  0  0
  -31.8658   -9.3282  142.5389 F   0  0  0  0  0  0  0  0  0  0  0  0
  -30.2458  -10.7793  142.2250 F   0  0  0  0  0  0  0  0  0  0  0  0
  -26.0407  -14.4433  144.3376 C   0  0  0  0  0  0  0  0  0  0  0  0
  -24.3505  -11.7619  145.0344 O   0  0  0  0  0  0  0  0  0  0  0  0
  -30.2833  -11.6316  146.2867 C   0  0  0  0  0  0  0  0  0  0  0  0
  -30.0168  -12.0800  147.7903 C   0  0  0  0  0  0  0  0  0  0  0  0
  -31.0296  -12.1151  148.5611 O   0  0  0  0  0  0  0  0  0  0  0  0
  -31.4431  -13.2550  149.1467 C   0  0  0  0  0  0  0  0  0  0  0  0
  -30.4441  -14.2686  149.0045 C   0  0  0  0  0  0  0  0  0  0  0  0
  -29.5719  -13.7151  147.8703 C   0  0  0  0  0  0  0  0  0  0  0  0
  -32.4023  -13.2764  150.1221 C   0  0  0  0  0  0  0  0  0  0  0  0
  -32.3247  -12.9790  151.2625 N   0  0  0  0  0  0  0  0  0  0  0  0
  -32.7670  -12.2019  152.0770 C   0  0  0  0  0  0  0  0  0  0  0  0
  -32.8519  -10.8715  152.0939 C   0  0  0  0  0  0  0  0  0  0  0  0
  2  7  1  0
  3  8  1  0
  8  9  2  3
  9 10  1  0
 10 11  1  0
 14 17  1  0
 17 18  1  0
 18 19  1  0
 18 20  1  0
 18 21  1  0
  8 22  1  0
 10 23  1  0
 13 24  1  0
 24 25  1  0
 25 26  1  0
 26 27  1  0
 27 28  1  0
 25 29  1  0
 28 29  1  0
 27 30  1  0
 30 31  1  0
 31 32  1  0
 32 33  2  0
 11 12  2  0
 12 13  1  0
 13 14  2  0
 14 15  1  0
 15 16  2  0
 16 11  1  0
  1  2  2  0
  2  3  1  0
  3  4  2  0
  4  6  1  0
  6  5  2  0
  5  1  1  0
M  END

$$$$
No_1343-/dssg/home/sw_qyf/PocketFlow/Model-Generation-Results/5HT2A_7WC7_rec_A_10.pdb/2024-01-01-03-54-21/
     RDKit          3D

 35 36  0  0  0  0  0  0  0  0999 V2000
  -24.1553  -17.8465  145.7021 C   0  0  0  0  0  0  0  0  0  0  0  0
  -24.2856  -16.6364  145.3494 C   0  0  0  0  0  0  0  0  0  0  0  0
  -23.7824  -15.9602  144.3554 C   0  0  0  0  0  0  0  0  0  0  0  0
  -23.9871  -14.5276  144.1537 C   0  0  0  0  0  0  0  0  0  0  0  0
  -24.7876  -13.8357  145.1351 C   0  0  0  0  0  0  0  0  0  0  0  0
  -25.3945  -14.5459  146.1755 C   0  0  0  0  0  0  0  0  0  0  0  0
  -25.0741  -15.8909  146.3327 C   0  0  0  0  0  0  0  0  0  0  0  0
  -23.4600  -18.3671  146.6957 C   0  0  0  0  0  0  0  0  0  0  0  0
  -23.3250  -17.8350  147.7843 C   0  0  0  0  0  0  0  0  0  0  0  0
  -23.6805  -17.4453  148.8015 C   0  0  0  0  0  0  0  0  0  0  0  0
  -23.8585  -17.1255  150.2464 C   0  0  0  0  0  0  0  0  0  0  0  0
  -25.0207  -12.3896  144.9436 C   0  0  0  0  0  0  0  0  0  0  0  0
  -25.6379  -11.7638  146.0241 N   0  0  0  0  0  0  0  0  0  0  0  0
  -26.6248  -10.7363  145.7781 C   0  0  0  0  0  0  0  0  0  0  0  0
  -27.9386  -11.1745  145.4145 C   0  0  0  0  0  0  0  0  0  0  0  0
  -28.3743  -10.9596  144.3448 C   0  0  0  0  0  0  0  0  0  0  0  0
  -28.9616   -9.9723  143.8107 C   0  0  0  0  0  0  0  0  0  0  0  0
  -29.5370   -9.8563  142.4621 C   0  0  0  0  0  0  0  0  0  0  0  0
  -28.9959  -10.7651  141.5211 C   0  0  0  0  0  0  0  0  0  0  0  0
  -28.1346  -11.7621  141.9545 C   0  0  0  0  0  0  0  0  0  0  0  0
  -27.7548  -11.8797  143.3111 C   0  0  0  0  0  0  0  0  0  0  0  0
  -30.4060   -8.7758  142.0588 C   0  0  0  0  0  0  0  0  0  0  0  0
  -29.9718   -7.7746  141.1566 C   0  0  0  0  0  0  0  0  0  0  0  0
  -31.7430   -8.6969  142.5431 C   0  0  0  0  0  0  0  0  0  0  0  0
  -29.9332   -7.9125  139.7404 C   0  0  0  0  0  0  0  0  0  0  0  0
  -28.6434   -7.7668  139.0888 C   0  0  0  0  0  0  0  0  0  0  0  0
  -31.9782   -8.8206  143.7296 O   0  0  0  0  0  0  0  0  0  0  0  0
  -28.2222   -8.8512  138.2432 C   0  0  0  0  0  0  0  0  0  0  0  0
  -27.5979  -12.7108  140.9873 C   0  0  0  0  0  0  0  0  0  0  0  0
  -27.8586  -12.6317  139.8355 O   0  0  0  0  0  0  0  0  0  0  0  0
  -26.4926  -13.4300  141.3239 O   0  0  0  0  0  0  0  0  0  0  0  0
  -28.8300   -8.8318  136.9693 C   0  0  0  0  0  0  0  0  0  0  0  0
  -28.9845  -10.0661  136.2830 C   0  0  0  0  0  0  0  0  0  0  0  0
  -29.5370  -10.0896  135.0123 C   0  0  0  0  0  0  0  0  0  0  0  0
  -24.2627  -16.9664  151.2067 N   0  0  0  0  0  0  0  0  0  0  0  0
  1  2  1  0
  1  8  2  3
  8  9  1  0
  9 10  3  0
 10 11  1  0
  5 12  1  0
 12 13  1  0
 13 14  1  0
 14 15  1  0
 15 16  1  0
 18 22  1  0
 22 23  2  3
 22 24  1  0
 23 25  1  0
 25 26  2  3
 24 27  1  0
 26 28  1  0
 20 29  1  0
 29 30  1  0
 29 31  2  0
 28 32  2  3
 32 33  1  0
 33 34  2  0
 11 35  3  0
  2  3  2  0
  3  4  1  0
  4  5  2  0
  5  6  1  0
  6  7  2  0
  7  2  1  0
 16 17  2  0
 17 18  1  0
 18 19  2  0
 19 20  1  0
 20 21  2  0
 21 16  1  0
M  END

$$$$
No_1344-/dssg/home/sw_qyf/PocketFlow/Model-Generation-Results/5HT2A_7WC7_rec_A_10.pdb/2024-01-01-03-54-21/
     RDKit          3D

 25 27  0  0  0  0  0  0  0  0999 V2000
  -24.1553  -17.8465  145.7021 C   0  0  0  0  0  0  0  0  0  0  0  0
  -24.6364  -17.2931  146.7091 C   0  0  0  0  0  0  0  0  0  0  0  0
  -24.0780  -17.2921  147.9389 C   0  0  0  0  0  0  0  0  0  0  0  0
  -24.6761  -16.7363  149.1478 C   0  0  0  0  0  0  0  0  0  0  0  0
  -25.9985  -16.2638  148.9932 C   0  0  0  0  0  0  0  0  0  0  0  0
  -26.6270  -16.3412  147.7728 C   0  0  0  0  0  0  0  0  0  0  0  0
  -27.9899  -15.9394  147.5329 C   0  0  0  0  0  0  0  0  0  0  0  0
  -26.0201  -16.8885  146.6761 C   0  0  0  0  0  0  0  0  0  0  0  0
  -28.2880  -14.9175  146.6535 C   0  0  0  0  0  0  0  0  0  0  0  0
  -27.3470  -14.2554  145.8523 C   0  0  0  0  0  0  0  0  0  0  0  0
  -27.5214  -12.9391  145.4159 C   0  0  0  0  0  0  0  0  0  0  0  0
  -26.6116  -12.2673  144.5708 C   0  0  0  0  0  0  0  0  0  0  0  0
  -25.5356  -13.0970  144.1506 C   0  0  0  0  0  0  0  0  0  0  0  0
  -25.3347  -14.4045  144.5331 C   0  0  0  0  0  0  0  0  0  0  0  0
  -26.2033  -14.9393  145.3704 C   0  0  0  0  0  0  0  0  0  0  0  0
  -26.8384  -10.9113  144.1528 C   0  0  0  0  0  0  0  0  0  0  0  0
  -27.2259  -10.0578  145.2639 C   0  0  0  0  0  0  0  0  0  0  0  0
  -27.8849  -10.8015  143.0862 C   0  0  0  0  0  0  0  0  0  0  0  0
  -28.8642   -9.8246  143.1823 C   0  0  0  0  0  0  0  0  0  0  0  0
  -28.7646   -8.6668  142.5788 C   0  0  0  0  0  0  0  0  0  0  0  0
  -29.8267   -7.6157  142.6627 C   0  0  0  0  0  0  0  0  0  0  0  0
  -30.9292   -7.9906  142.4080 C   0  0  0  0  0  0  0  0  0  0  0  0
  -31.4126   -9.2814  143.1134 C   0  0  0  0  0  0  0  0  0  0  0  0
  -30.3260  -10.2962  143.1505 C   0  0  0  0  0  0  0  0  0  0  0  0
  -32.6334   -9.7134  142.5833 O   0  0  0  0  0  0  0  0  0  0  0  0
  1  2  1  0
  6  7  1  0
  7  9  2  3
  9 10  1  0
 12 16  1  0
 16 17  1  0
 16 18  1  0
 18 19  1  0
 23 25  1  0
  2  3  2  0
  3  4  1  0
  4  5  2  0
  5  6  1  0
  6  8  2  0
  8  2  1  0
 10 11  2  0
 11 12  1  0
 12 13  2  0
 13 14  1  0
 14 15  2  0
 15 10  1  0
 19 20  2  0
 20 21  1  0
 21 22  2  0
 22 23  1  0
 23 24  2  0
 24 19  1  0
M  END

$$$$
No_1345-/dssg/home/sw_qyf/PocketFlow/Model-Generation-Results/5HT2A_7WC7_rec_A_10.pdb/2024-01-01-03-54-21/
     RDKit          3D

 35 38  0  0  0  0  0  0  0  0999 V2000
  -24.1553  -17.8465  145.7021 C   0  0  0  0  0  0  0  0  0  0  0  0
  -23.9795  -18.4462  146.7426 C   0  0  0  0  0  0  0  0  0  0  0  0
  -25.1593  -16.8262  145.6925 C   0  0  0  0  0  0  0  0  0  0  0  0
  -24.9465  -15.5961  144.9952 C   0  0  0  0  0  0  0  0  0  0  0  0
  -25.8339  -14.4742  145.0599 C   0  0  0  0  0  0  0  0  0  0  0  0
  -25.6289  -13.3152  144.3271 C   0  0  0  0  0  0  0  0  0  0  0  0
  -26.6996  -12.5602  144.2534 N   0  0  0  0  0  0  0  0  0  0  0  0
  -26.7712  -11.4128  144.9506 C   0  0  0  0  0  0  0  0  0  0  0  0
  -27.8219  -10.4605  144.5553 C   0  0  0  0  0  0  0  0  0  0  0  0
  -29.1261  -10.8055  144.7912 C   0  0  0  0  0  0  0  0  0  0  0  0
  -29.3263  -11.6823  145.7330 O   0  0  0  0  0  0  0  0  0  0  0  0
  -30.1084  -10.1685  144.3756 O   0  0  0  0  0  0  0  0  0  0  0  0
  -24.4888  -17.9667  148.0184 C   0  0  0  0  0  0  0  0  0  0  0  0
  -25.4341  -16.9778  148.0962 C   0  0  0  0  0  0  0  0  0  0  0  0
  -25.6429  -16.1692  146.9480 C   0  0  0  0  0  0  0  0  0  0  0  0
  -26.2236  -14.9045  146.7945 C   0  0  0  0  0  0  0  0  0  0  0  0
  -26.0459  -16.7019  149.2450 O   0  0  0  0  0  0  0  0  0  0  0  0
  -23.9391  -15.5418  143.9235 C   0  0  0  0  0  0  0  0  0  0  0  0
  -23.0394  -16.2204  144.1639 O   0  0  0  0  0  0  0  0  0  0  0  0
  -27.4949   -9.3367  143.9166 O   0  0  0  0  0  0  0  0  0  0  0  0
  -29.8111  -11.5004  147.0324 C   0  0  0  0  0  0  0  0  0  0  0  0
  -30.2357  -12.7269  147.8481 C   0  0  0  0  0  0  0  0  0  0  0  0
  -29.3621  -13.6513  147.7005 O   0  0  0  0  0  0  0  0  0  0  0  0
  -29.7306  -15.0164  147.6064 C   0  0  0  0  0  0  0  0  0  0  0  0
  -29.4328  -15.7104  148.7573 C   0  0  0  0  0  0  0  0  0  0  0  0
  -30.2123  -15.5085  149.8259 C   0  0  0  0  0  0  0  0  0  0  0  0
  -31.1628  -14.4764  149.9654 C   0  0  0  0  0  0  0  0  0  0  0  0
  -30.6827  -13.2185  149.3129 C   0  0  0  0  0  0  0  0  0  0  0  0
  -32.1671  -14.4418  150.8659 C   0  0  0  0  0  0  0  0  0  0  0  0
  -32.9774  -13.3350  151.0541 C   0  0  0  0  0  0  0  0  0  0  0  0
  -33.0307  -12.2809  150.1418 C   0  0  0  0  0  0  0  0  0  0  0  0
  -31.8435  -12.2320  149.3260 C   0  0  0  0  0  0  0  0  0  0  0  0
  -33.8815  -11.1765  150.2749 C   0  0  0  0  0  0  0  0  0  0  0  0
  -33.5431  -10.1653  150.8314 O   0  0  0  0  0  0  0  0  0  0  0  0
  -34.9312  -11.3233  149.5145 O   0  0  0  0  0  0  0  0  0  0  0  0
  4  5  1  0
  5  6  1  0
  6  7  1  0
  7  8  1  0
  8  9  1  0
  9 10  1  0
 10 11  1  0
 10 12  2  0
  5 16  1  0
 15 16  1  0
 14 17  1  0
  4 18  1  0
 18 19  1  0
  9 20  1  0
 11 21  1  0
 21 22  1  0
 22 23  1  0
 23 24  1  0
 24 25  1  0
 25 26  2  0
 26 27  1  0
 22 28  1  0
 31 33  1  0
 33 34  2  0
 33 35  1  0
  4  3  1  0
  1  2  2  0
  2 13  1  0
 13 14  2  0
 14 15  1  0
 15  3  2  0
  3  1  1  0
 27 28  2  0
 28 32  1  0
 32 31  2  0
 31 30  1  0
 30 29  2  0
 29 27  1  0
M  END

$$$$
No_1346-/dssg/home/sw_qyf/PocketFlow/Model-Generation-Results/5HT2A_7WC7_rec_A_10.pdb/2024-01-01-03-54-21/
     RDKit          3D

 25 27  0  0  0  0  0  0  0  0999 V2000
  -24.1553  -17.8465  145.7021 C   0  0  0  0  0  0  0  0  0  0  0  0
  -24.2855  -16.6364  145.3494 C   0  0  0  0  0  0  0  0  0  0  0  0
  -25.0033  -15.6772  146.0737 C   0  0  0  0  0  0  0  0  0  0  0  0
  -24.8869  -14.2981  145.8377 C   0  0  0  0  0  0  0  0  0  0  0  0
  -25.3793  -13.2111  146.5917 C   0  0  0  0  0  0  0  0  0  0  0  0
  -24.8689  -11.8895  146.2480 C   0  0  0  0  0  0  0  0  0  0  0  0
  -25.0273  -18.3453  146.7012 C   0  0  0  0  0  0  0  0  0  0  0  0
  -25.7876  -17.5277  147.4721 C   0  0  0  0  0  0  0  0  0  0  0  0
  -25.7467  -16.1409  147.2640 C   0  0  0  0  0  0  0  0  0  0  0  0
  -24.1300  -13.8692  144.6470 C   0  0  0  0  0  0  0  0  0  0  0  0
  -24.0552  -14.5944  143.5953 N   0  0  0  0  0  0  0  0  0  0  0  0
  -23.6667  -16.1020  144.1404 N   0  0  0  0  0  0  0  0  0  0  0  0
  -24.4199  -11.6057  144.9983 C   0  0  0  0  0  0  0  0  0  0  0  0
  -24.2678  -12.8286  144.3643 C   0  0  0  0  0  0  0  0  0  0  0  0
  -23.5435  -18.7224  144.9388 F   0  0  0  0  0  0  0  0  0  0  0  0
  -25.9759  -10.8835  146.6867 O   0  0  0  0  0  0  0  0  0  0  0  0
  -24.3088  -10.4950  144.5236 O   0  0  0  0  0  0  0  0  0  0  0  0
  -26.4584  -15.3732  148.0233 O   0  0  0  0  0  0  0  0  0  0  0  0
  -27.6128  -16.0308  148.5274 C   0  0  0  0  0  0  0  0  0  0  0  0
  -28.8472  -15.4256  148.2054 C   0  0  0  0  0  0  0  0  0  0  0  0
  -29.1354  -14.6571  147.0979 C   0  0  0  0  0  0  0  0  0  0  0  0
  -30.4055  -13.9446  147.0261 C   0  0  0  0  0  0  0  0  0  0  0  0
  -30.2286  -12.7009  147.6564 C   0  0  0  0  0  0  0  0  0  0  0  0
  -30.5762  -12.3810  148.8254 O   0  0  0  0  0  0  0  0  0  0  0  0
  -29.8814  -11.5733  146.8519 O   0  0  0  0  0  0  0  0  0  0  0  0
  3  4  1  0
  4  5  1  0
  5  6  1  0
  4 10  1  0
 10 11  1  0
  2 12  1  0
 11 12  1  0
  6 13  1  0
 10 14  1  0
 13 14  1  0
  1 15  1  0
  6 16  1  0
 13 17  2  0
  9 18  1  0
 18 19  1  0
 19 20  2  3
 20 21  1  0
 21 22  2  3
 22 23  1  0
 23 24  1  0
 23 25  2  0
  1  2  2  0
  2  3  1  0
  3  9  2  0
  9  8  1  0
  8  7  2  0
  7  1  1  0
M  END

$$$$
No_1347-/dssg/home/sw_qyf/PocketFlow/Model-Generation-Results/5HT2A_7WC7_rec_A_10.pdb/2024-01-01-03-54-21/
     RDKit          3D

 30 32  0  0  0  0  0  0  0  0999 V2000
  -24.1553  -17.8465  145.7021 C   0  0  0  0  0  0  0  0  0  0  0  0
  -23.9795  -18.4462  146.7426 C   0  0  0  0  0  0  0  0  0  0  0  0
  -25.1417  -16.8533  145.5181 C   0  0  0  0  0  0  0  0  0  0  0  0
  -26.1785  -16.7035  146.4824 C   0  0  0  0  0  0  0  0  0  0  0  0
  -27.2269  -15.8086  146.3612 C   0  0  0  0  0  0  0  0  0  0  0  0
  -24.8222  -18.2274  147.8942 C   0  0  0  0  0  0  0  0  0  0  0  0
  -25.8850  -17.2801  147.7830 C   0  0  0  0  0  0  0  0  0  0  0  0
  -28.4934  -16.1013  146.8619 C   0  0  0  0  0  0  0  0  0  0  0  0
  -29.5611  -15.1070  146.8945 C   0  0  0  0  0  0  0  0  0  0  0  0
  -29.2348  -13.7510  146.4801 C   0  0  0  0  0  0  0  0  0  0  0  0
  -27.9359  -13.4722  146.0089 C   0  0  0  0  0  0  0  0  0  0  0  0
  -26.9417  -14.4195  146.0427 C   0  0  0  0  0  0  0  0  0  0  0  0
  -27.6276  -12.0631  145.6682 C   0  0  0  0  0  0  0  0  0  0  0  0
  -27.5213  -11.8182  144.4482 C   0  0  0  0  0  0  0  0  0  0  0  0
  -27.5631  -10.3744  144.0254 C   0  0  0  0  0  0  0  0  0  0  0  0
  -28.3504  -10.0317  143.0927 C   0  0  0  0  0  0  0  0  0  0  0  0
  -28.3212  -10.4872  141.8041 C   0  0  0  0  0  0  0  0  0  0  0  0
  -29.2195  -10.0936  140.8058 C   0  0  0  0  0  0  0  0  0  0  0  0
  -29.9948   -8.9466  141.1336 C   0  0  0  0  0  0  0  0  0  0  0  0
  -30.0971   -8.4187  142.4192 C   0  0  0  0  0  0  0  0  0  0  0  0
  -29.2118   -8.9064  143.4379 C   0  0  0  0  0  0  0  0  0  0  0  0
  -27.4065  -11.8892  141.4696 Cl  0  0  0  0  0  0  0  0  0  0  0  0
  -30.9047   -7.3484  142.6568 O   0  0  0  0  0  0  0  0  0  0  0  0
  -30.1502  -12.8201  146.5540 O   0  0  0  0  0  0  0  0  0  0  0  0
  -30.1271  -11.8871  147.7350 C   0  0  0  0  0  0  0  0  0  0  0  0
  -31.2421  -12.3141  148.7040 C   0  0  0  0  0  0  0  0  0  0  0  0
  -32.0154  -12.9648  148.1890 F   0  0  0  0  0  0  0  0  0  0  0  0
  -31.7416  -11.2504  149.3702 F   0  0  0  0  0  0  0  0  0  0  0  0
  -30.5719  -13.0763  149.6271 F   0  0  0  0  0  0  0  0  0  0  0  0
  -25.1975  -16.1559  144.4254 F   0  0  0  0  0  0  0  0  0  0  0  0
  4  5  1  0
 11 13  1  0
 13 14  2  3
 14 15  1  0
 15 16  1  0
 17 22  1  0
 20 23  1  0
 10 24  1  0
 24 25  1  0
 25 26  1  0
 26 27  1  0
 26 28  1  0
 26 29  1  0
  3 30  1  0
  5  8  2  0
  8  9  1  0
  9 10  2  0
 10 11  1  0
 11 12  2  0
 12  5  1  0
  1  2  2  0
  2  6  1  0
  6  7  2  0
  7  4  1  0
  4  3  2  0
  3  1  1  0
 16 17  2  0
 17 18  1  0
 18 19  2  0
 19 20  1  0
 20 21  2  0
 21 16  1  0
M  END

$$$$
No_1348-/dssg/home/sw_qyf/PocketFlow/Model-Generation-Results/5HT2A_7WC7_rec_A_10.pdb/2024-01-01-03-54-21/
     RDKit          3D

 35 37  0  0  0  0  0  0  0  0999 V2000
  -23.1746  -16.6014  144.8668 C   0  0  0  0  0  0  0  0  0  0  0  0
  -23.7011  -17.0158  145.9774 C   0  0  0  0  0  0  0  0  0  0  0  0
  -23.7336  -18.2775  146.3737 C   0  0  0  0  0  0  0  0  0  0  0  0
  -23.2769  -15.1496  144.5841 C   0  0  0  0  0  0  0  0  0  0  0  0
  -24.0862  -14.2431  145.3742 C   0  0  0  0  0  0  0  0  0  0  0  0
  -24.6693  -14.7616  146.5613 C   0  0  0  0  0  0  0  0  0  0  0  0
  -24.4785  -16.1225  146.8850 C   0  0  0  0  0  0  0  0  0  0  0  0
  -24.1082  -12.8176  145.0725 C   0  0  0  0  0  0  0  0  0  0  0  0
  -22.9552  -12.2181  144.8552 N   0  0  0  0  0  0  0  0  0  0  0  0
  -25.3123  -12.1330  145.0402 C   0  0  0  0  0  0  0  0  0  0  0  0
  -25.9380  -11.9016  146.2514 C   0  0  0  0  0  0  0  0  0  0  0  0
  -27.3271  -11.3145  146.1702 C   0  0  0  0  0  0  0  0  0  0  0  0
  -27.8185  -10.8259  144.9817 C   0  0  0  0  0  0  0  0  0  0  0  0
  -27.0302  -10.9381  143.7982 C   0  0  0  0  0  0  0  0  0  0  0  0
  -25.8376  -11.6459  143.8753 C   0  0  0  0  0  0  0  0  0  0  0  0
  -29.1926  -10.2091  144.9555 C   0  0  0  0  0  0  0  0  0  0  0  0
  -29.5567   -9.3666  144.0760 N   0  0  0  0  0  0  0  0  0  0  0  0
  -30.8705   -9.1777  143.7431 C   0  0  0  0  0  0  0  0  0  0  0  0
  -31.1996   -8.7295  142.4823 C   0  0  0  0  0  0  0  0  0  0  0  0
  -29.9313   -8.8002  141.5872 C   0  0  0  0  0  0  0  0  0  0  0  0
  -29.5799   -7.8764  140.5433 C   0  0  0  0  0  0  0  0  0  0  0  0
  -28.7916   -8.2334  139.6793 C   0  0  0  0  0  0  0  0  0  0  0  0
  -28.5221   -7.4892  138.4506 C   0  0  0  0  0  0  0  0  0  0  0  0
  -29.9677  -10.6546  145.8678 O   0  0  0  0  0  0  0  0  0  0  0  0
  -27.8532   -9.3194  139.9787 C   0  0  0  0  0  0  0  0  0  0  0  0
  -26.9468   -9.8728  139.0729 C   0  0  0  0  0  0  0  0  0  0  0  0
  -22.6245  -18.8347  146.7229 F   0  0  0  0  0  0  0  0  0  0  0  0
  -24.1745  -19.1549  145.4083 F   0  0  0  0  0  0  0  0  0  0  0  0
  -24.5704  -18.5912  147.5046 F   0  0  0  0  0  0  0  0  0  0  0  0
  -27.6259   -8.1097  137.4803 C   0  0  0  0  0  0  0  0  0  0  0  0
  -26.8774   -9.1989  137.9233 N   0  0  0  0  0  0  0  0  0  0  0  0
  -26.2792  -10.9590  139.3562 N   0  0  0  0  0  0  0  0  0  0  0  0
  -32.2564   -8.4846  141.9252 O   0  0  0  0  0  0  0  0  0  0  0  0
  -27.0171  -12.1496  139.7332 C   0  0  0  0  0  0  0  0  0  0  0  0
  -28.4414  -12.1787  139.6429 C   0  0  0  0  0  0  0  0  0  0  0  0
  2  3  1  0
  5  8  1  0
  8  9  1  0
  8 10  1  0
 13 16  1  0
 16 17  1  0
 17 18  1  0
 18 19  1  0
 19 20  1  0
 20 21  2  3
 21 22  1  0
 22 23  1  0
 16 24  2  0
 22 25  1  0
 25 26  1  0
  3 27  1  0
  3 28  1  0
  3 29  1  0
 23 30  1  0
 26 31  1  0
 30 31  1  0
 26 32  1  0
 19 33  2  0
 32 34  1  0
 34 35  1  0
  1  2  2  0
  2  7  1  0
  7  6  2  0
  6  5  1  0
  5  4  2  0
  4  1  1  0
 10 11  2  0
 11 12  1  0
 12 13  2  0
 13 14  1  0
 14 15  2  0
 15 10  1  0
M  END

$$$$
No_1349-/dssg/home/sw_qyf/PocketFlow/Model-Generation-Results/5HT2A_7WC7_rec_A_10.pdb/2024-01-01-03-54-21/
     RDKit          3D

 14 15  0  0  0  0  0  0  0  0999 V2000
  -23.1746  -16.6014  144.8668 C   0  0  0  0  0  0  0  0  0  0  0  0
  -23.7011  -17.0158  145.9774 C   0  0  0  0  0  0  0  0  0  0  0  0
  -23.7336  -18.2775  146.3737 C   0  0  0  0  0  0  0  0  0  0  0  0
  -24.1960  -18.6445  147.6858 C   0  0  0  0  0  0  0  0  0  0  0  0
  -24.7100  -17.6145  148.5486 C   0  0  0  0  0  0  0  0  0  0  0  0
  -24.7929  -16.2635  148.0870 C   0  0  0  0  0  0  0  0  0  0  0  0
  -24.2508  -15.9434  146.8891 C   0  0  0  0  0  0  0  0  0  0  0  0
  -22.9131  -15.3694  144.6484 O   0  0  0  0  0  0  0  0  0  0  0  0
  -23.8814  -14.3539  144.5093 C   0  0  0  0  0  0  0  0  0  0  0  0
  -23.2710  -13.2232  144.9684 C   0  0  0  0  0  0  0  0  0  0  0  0
  -24.0997  -12.0008  145.2740 C   0  0  0  0  0  0  0  0  0  0  0  0
  -25.4433  -11.9722  144.9197 C   0  0  0  0  0  0  0  0  0  0  0  0
  -25.9964  -13.2399  144.5020 C   0  0  0  0  0  0  0  0  0  0  0  0
  -25.2234  -14.4288  144.3678 C   0  0  0  0  0  0  0  0  0  0  0  0
  1  2  1  0
  1  8  1  0
  8  9  1  0
  2  3  2  0
  3  4  1  0
  4  5  2  0
  5  6  1  0
  6  7  2  0
  7  2  1  0
  9 10  2  0
 10 11  1  0
 11 12  2  0
 12 13  1  0
 13 14  2  0
 14  9  1  0
M  END

$$$$
No_1350-/dssg/home/sw_qyf/PocketFlow/Model-Generation-Results/5HT2A_7WC7_rec_A_10.pdb/2024-01-01-03-54-21/
     RDKit          3D

 12 12  0  0  0  0  0  0  0  0999 V2000
  -23.1746  -16.6014  144.8668 C   0  0  0  0  0  0  0  0  0  0  0  0
  -23.7011  -17.0158  145.9774 C   0  0  0  0  0  0  0  0  0  0  0  0
  -23.7336  -18.2775  146.3737 C   0  0  0  0  0  0  0  0  0  0  0  0
  -24.1960  -18.6445  147.6858 C   0  0  0  0  0  0  0  0  0  0  0  0
  -24.7100  -17.6145  148.5486 C   0  0  0  0  0  0  0  0  0  0  0  0
  -24.7929  -16.2635  148.0870 C   0  0  0  0  0  0  0  0  0  0  0  0
  -24.2508  -15.9434  146.8891 C   0  0  0  0  0  0  0  0  0  0  0  0
  -23.4075  -17.2535  143.7899 O   0  0  0  0  0  0  0  0  0  0  0  0
  -22.7213  -15.3365  144.5860 O   0  0  0  0  0  0  0  0  0  0  0  0
  -25.2667  -17.9457  149.8868 C   0  0  0  0  0  0  0  0  0  0  0  0
  -26.4358  -17.9313  150.1801 N   0  0  0  0  0  0  0  0  0  0  0  0
  -24.3649  -18.0238  150.8730 O   0  0  0  0  0  0  0  0  0  0  0  0
  1  2  1  0
  1  8  2  0
  1  9  1  0
  5 10  1  0
 10 11  1  0
 10 12  2  0
  2  3  2  0
  3  4  1  0
  4  5  2  0
  5  6  1  0
  6  7  2  0
  7  2  1  0
M  END

$$$$
No_1351-/dssg/home/sw_qyf/PocketFlow/Model-Generation-Results/5HT2A_7WC7_rec_A_10.pdb/2024-01-01-03-54-21/
     RDKit          3D

 34 35  0  0  0  0  0  0  0  0999 V2000
  -23.1746  -16.6014  144.8668 C   0  0  0  0  0  0  0  0  0  0  0  0
  -23.8963  -15.5346  144.7885 C   0  0  0  0  0  0  0  0  0  0  0  0
  -25.0304  -15.2549  144.5358 C   0  0  0  0  0  0  0  0  0  0  0  0
  -25.6045  -13.9524  144.2294 C   0  0  0  0  0  0  0  0  0  0  0  0
  -24.8624  -12.8904  144.6738 C   0  0  0  0  0  0  0  0  0  0  0  0
  -23.5278  -13.1645  145.1476 C   0  0  0  0  0  0  0  0  0  0  0  0
  -23.0148  -14.3796  145.1899 C   0  0  0  0  0  0  0  0  0  0  0  0
  -23.1807  -17.2895  143.8727 F   0  0  0  0  0  0  0  0  0  0  0  0
  -21.9698  -16.5872  145.2475 F   0  0  0  0  0  0  0  0  0  0  0  0
  -27.0171  -13.7832  143.8411 C   0  0  0  0  0  0  0  0  0  0  0  0
  -27.2464  -12.3850  143.4405 C   0  0  0  0  0  0  0  0  0  0  0  0
  -27.5385  -11.3922  144.3651 C   0  0  0  0  0  0  0  0  0  0  0  0
  -27.9676  -10.1031  143.9007 C   0  0  0  0  0  0  0  0  0  0  0  0
  -28.3419   -9.1098  144.7659 C   0  0  0  0  0  0  0  0  0  0  0  0
  -28.2875   -9.9704  142.5217 C   0  0  0  0  0  0  0  0  0  0  0  0
  -29.3916   -9.3868  142.2130 C   0  0  0  0  0  0  0  0  0  0  0  0
  -29.8698   -8.3307  143.0183 C   0  0  0  0  0  0  0  0  0  0  0  0
  -29.4902   -8.2676  144.3679 C   0  0  0  0  0  0  0  0  0  0  0  0
  -23.7451  -17.4176  145.9502 F   0  0  0  0  0  0  0  0  0  0  0  0
  -22.7327  -11.8704  145.4757 C   0  0  0  0  0  0  0  0  0  0  0  0
  -30.9455   -7.4478  142.5635 C   0  0  0  0  0  0  0  0  0  0  0  0
  -31.7335   -7.7607  141.6342 O   0  0  0  0  0  0  0  0  0  0  0  0
  -27.2931  -12.2653  142.1544 O   0  0  0  0  0  0  0  0  0  0  0  0
  -27.3937  -13.4472  141.4465 C   0  0  0  0  0  0  0  0  0  0  0  0
  -27.6401  -13.0078  139.9820 C   0  0  0  0  0  0  0  0  0  0  0  0
  -27.1578  -12.0485  139.2959 C   0  0  0  0  0  0  0  0  0  0  0  0
  -27.6510  -11.7060  137.9901 C   0  0  0  0  0  0  0  0  0  0  0  0
  -28.2796  -10.5726  137.6583 C   0  0  0  0  0  0  0  0  0  0  0  0
  -28.8215  -10.0981  136.5316 C   0  0  0  0  0  0  0  0  0  0  0  0
  -29.1416   -8.7580  136.5344 N   0  0  0  0  0  0  0  0  0  0  0  0
  -28.9713  -10.7972  135.5440 O   0  0  0  0  0  0  0  0  0  0  0  0
  -31.2926   -6.5736  143.4373 O   0  0  0  0  0  0  0  0  0  0  0  0
  -29.8149   -9.3946  140.9348 O   0  0  0  0  0  0  0  0  0  0  0  0
  -21.9004  -11.5263  144.6631 O   0  0  0  0  0  0  0  0  0  0  0  0
  1  2  1  0
  1  8  1  0
  1  9  1  0
  4 10  1  0
 10 11  1  0
 11 12  2  3
 12 13  1  0
  1 19  1  0
  6 20  1  0
 17 21  1  0
 21 22  1  0
 11 23  1  0
 23 24  1  0
 24 25  1  0
 25 26  2  3
 26 27  1  0
 27 28  1  0
 28 29  1  0
 29 30  1  0
 29 31  2  0
 21 32  2  0
 16 33  1  0
 20 34  1  0
  2  3  2  0
  3  4  1  0
  4  5  2  0
  5  6  1  0
  6  7  2  0
  7  2  1  0
 13 14  2  0
 14 18  1  0
 18 17  2  0
 17 16  1  0
 16 15  2  0
 15 13  1  0
M  END

$$$$
No_1352-/dssg/home/sw_qyf/PocketFlow/Model-Generation-Results/5HT2A_7WC7_rec_A_10.pdb/2024-01-01-03-54-21/
     RDKit          3D

 35 39  0  0  0  0  0  0  0  0999 V2000
  -23.1746  -16.6014  144.8668 C   0  0  0  0  0  0  0  0  0  0  0  0
  -23.7011  -17.0158  145.9774 C   0  0  0  0  0  0  0  0  0  0  0  0
  -24.7096  -16.6222  146.3577 C   0  0  0  0  0  0  0  0  0  0  0  0
  -25.4819  -15.5594  145.8226 C   0  0  0  0  0  0  0  0  0  0  0  0
  -24.9841  -15.0030  144.6879 C   0  0  0  0  0  0  0  0  0  0  0  0
  -23.7823  -15.5257  144.1978 C   0  0  0  0  0  0  0  0  0  0  0  0
  -25.6422  -13.8894  143.9561 C   0  0  0  0  0  0  0  0  0  0  0  0
  -26.4574  -13.1088  144.6520 N   0  0  0  0  0  0  0  0  0  0  0  0
  -27.2123  -12.0969  144.1241 C   0  0  0  0  0  0  0  0  0  0  0  0
  -27.2754  -11.6567  143.0155 C   0  0  0  0  0  0  0  0  0  0  0  0
  -28.0631  -10.6398  142.5380 C   0  0  0  0  0  0  0  0  0  0  0  0
  -28.8280   -9.8880  143.4800 C   0  0  0  0  0  0  0  0  0  0  0  0
  -28.7189  -10.2703  144.8287 C   0  0  0  0  0  0  0  0  0  0  0  0
  -27.8718  -11.3422  145.2003 C   0  0  0  0  0  0  0  0  0  0  0  0
  -29.7223   -8.7579  143.1492 C   0  0  0  0  0  0  0  0  0  0  0  0
  -31.1040   -8.8977  143.3695 C   0  0  0  0  0  0  0  0  0  0  0  0
  -31.7122   -9.0092  142.5347 O   0  0  0  0  0  0  0  0  0  0  0  0
  -25.3732  -13.7497  142.8340 O   0  0  0  0  0  0  0  0  0  0  0  0
  -31.4928   -9.1095  144.6317 O   0  0  0  0  0  0  0  0  0  0  0  0
  -22.9308  -18.1995  146.6698 C   0  0  0  0  0  0  0  0  0  0  0  0
  -27.6052  -11.8712  146.4440 N   0  0  0  0  0  0  0  0  0  0  0  0
  -26.6583  -12.9348  146.1800 C   0  0  0  0  0  0  0  0  0  0  0  0
  -28.2319  -10.2690  141.1472 C   0  0  0  0  0  0  0  0  0  0  0  0
  -27.8229  -10.9098  140.1629 C   0  0  0  0  0  0  0  0  0  0  0  0
  -27.9093  -10.4893  138.8002 C   0  0  0  0  0  0  0  0  0  0  0  0
  -28.3966   -9.1513  138.6298 C   0  0  0  0  0  0  0  0  0  0  0  0
  -28.8464   -8.3735  139.7592 C   0  0  0  0  0  0  0  0  0  0  0  0
  -28.6882   -8.8811  141.0467 C   0  0  0  0  0  0  0  0  0  0  0  0
  -28.5022   -8.5669  137.3129 C   0  0  0  0  0  0  0  0  0  0  0  0
  -29.1852   -7.6911  143.8118 F   0  0  0  0  0  0  0  0  0  0  0  0
  -29.5392   -8.4867  141.7322 C   0  0  0  0  0  0  0  0  0  0  0  0
  -28.2886   -7.3110  137.2037 O   0  0  0  0  0  0  0  0  0  0  0  0
  -28.8906   -9.2875  136.3554 O   0  0  0  0  0  0  0  0  0  0  0  0
  -22.7800  -18.2212  147.8750 O   0  0  0  0  0  0  0  0  0  0  0  0
  -22.5770  -19.1853  145.9291 O   0  0  0  0  0  0  0  0  0  0  0  0
  5  7  1  0
  7  8  1  0
  8  9  1  0
 12 15  1  0
 15 16  1  0
 16 17  1  0
  7 18  2  0
 16 19  2  0
  2 20  1  0
 14 21  1  0
  8 22  1  0
 21 22  1  0
 11 23  1  0
 26 29  1  0
 15 30  1  0
 15 31  1  0
 28 31  1  0
 29 32  1  0
 29 33  2  0
 20 34  1  0
 20 35  2  0
  1  2  2  0
  2  3  1  0
  3  4  2  0
  4  5  1  0
  5  6  2  0
  6  1  1  0
 23 24  2  0
 24 25  1  0
 25 26  2  0
 26 27  1  0
 27 28  2  0
 28 23  1  0
  9 10  2  0
 10 11  1  0
 11 12  2  0
 12 13  1  0
 13 14  2  0
 14  9  1  0
M  END

$$$$
No_1353-/dssg/home/sw_qyf/PocketFlow/Model-Generation-Results/5HT2A_7WC7_rec_A_10.pdb/2024-01-01-03-54-21/
     RDKit          3D

 35 39  0  0  0  0  0  0  0  0999 V2000
  -23.1746  -16.6014  144.8668 C   0  0  0  0  0  0  0  0  0  0  0  0
  -23.7011  -17.0158  145.9774 C   0  0  0  0  0  0  0  0  0  0  0  0
  -24.2134  -16.0722  146.8877 C   0  0  0  0  0  0  0  0  0  0  0  0
  -24.5407  -14.7704  146.3553 C   0  0  0  0  0  0  0  0  0  0  0  0
  -24.9626  -13.7061  147.1333 C   0  0  0  0  0  0  0  0  0  0  0  0
  -24.0995  -14.5614  145.0046 C   0  0  0  0  0  0  0  0  0  0  0  0
  -23.4166  -15.4695  144.2822 C   0  0  0  0  0  0  0  0  0  0  0  0
  -24.3703  -12.4474  146.8915 C   0  0  0  0  0  0  0  0  0  0  0  0
  -24.9989  -11.7082  145.8102 C   0  0  0  0  0  0  0  0  0  0  0  0
  -26.3542  -11.2112  145.9810 C   0  0  0  0  0  0  0  0  0  0  0  0
  -27.3310  -12.0145  146.3002 C   0  0  0  0  0  0  0  0  0  0  0  0
  -28.7217  -11.5693  146.1232 C   0  0  0  0  0  0  0  0  0  0  0  0
  -29.8688  -12.1339  146.7773 C   0  0  0  0  0  0  0  0  0  0  0  0
  -29.6146  -13.4459  147.2917 C   0  0  0  0  0  0  0  0  0  0  0  0
  -28.3779  -14.0916  147.2085 C   0  0  0  0  0  0  0  0  0  0  0  0
  -27.2369  -13.3682  146.7390 C   0  0  0  0  0  0  0  0  0  0  0  0
  -23.3955  -18.3445  146.3962 N   0  0  0  0  0  0  0  0  0  0  0  0
  -28.2724  -15.3889  147.6299 N   0  0  0  0  0  0  0  0  0  0  0  0
  -28.3648  -16.0021  148.6175 C   0  0  0  0  0  0  0  0  0  0  0  0
  -27.6187  -16.2754  146.5999 C   0  0  0  0  0  0  0  0  0  0  0  0
  -27.4899  -16.0921  145.3888 N   0  0  0  0  0  0  0  0  0  0  0  0
  -27.6018  -17.5483  147.1075 N   0  0  0  0  0  0  0  0  0  0  0  0
  -28.5186  -17.1402  148.8677 C   0  0  0  0  0  0  0  0  0  0  0  0
  -27.9175  -18.0476  148.1137 N   0  0  0  0  0  0  0  0  0  0  0  0
  -30.8061  -14.1970  147.7301 C   0  0  0  0  0  0  0  0  0  0  0  0
  -26.1884  -13.7957  147.5378 O   0  0  0  0  0  0  0  0  0  0  0  0
  -28.9993  -10.4126  145.2284 C   0  0  0  0  0  0  0  0  0  0  0  0
  -29.3710  -10.7112  143.8969 C   0  0  0  0  0  0  0  0  0  0  0  0
  -28.9851   -9.8029  142.8638 C   0  0  0  0  0  0  0  0  0  0  0  0
  -29.4600   -8.5250  142.8657 C   0  0  0  0  0  0  0  0  0  0  0  0
  -29.5550   -7.6626  141.7337 C   0  0  0  0  0  0  0  0  0  0  0  0
  -29.1199   -8.1267  140.5091 C   0  0  0  0  0  0  0  0  0  0  0  0
  -28.6373   -9.4262  140.4478 C   0  0  0  0  0  0  0  0  0  0  0  0
  -28.1098   -9.9488  139.2298 C   0  0  0  0  0  0  0  0  0  0  0  0
  -28.5531  -10.2603  141.6272 C   0  0  0  0  0  0  0  0  0  0  0  0
  4  5  1  0
  5  8  1  0
  8  9  1  0
  9 10  1  0
 10 11  1  0
  2 17  1  0
 15 18  1  0
 18 19  1  0
 18 20  1  0
 20 21  1  0
 22 24  1  0
 14 25  1  0
  5 26  1  0
 16 26  1  0
 12 27  1  0
 27 28  1  0
 28 29  1  0
 33 34  1  0
 19 23  1  0
 23 24  1  0
 22 20  1  0
 29 30  2  0
 30 31  1  0
 31 32  2  0
 32 33  1  0
 33 35  2  0
 35 29  1  0
 11 12  2  0
 12 13  1  0
 13 14  2  0
 14 15  1  0
 15 16  2  0
 16 11  1  0
  1  2  2  0
  2  3  1  0
  3  4  2  0
  4  6  1  0
  6  7  2  0
  7  1  1  0
M  END

$$$$
No_1354-/dssg/home/sw_qyf/PocketFlow/Model-Generation-Results/5HT2A_7WC7_rec_A_10.pdb/2024-01-01-03-54-21/
     RDKit          3D

 29 31  0  0  0  0  0  0  0  0999 V2000
  -23.1746  -16.6014  144.8668 C   0  0  0  0  0  0  0  0  0  0  0  0
  -23.7011  -17.0158  145.9774 C   0  0  0  0  0  0  0  0  0  0  0  0
  -24.2593  -16.1244  146.9100 C   0  0  0  0  0  0  0  0  0  0  0  0
  -24.5135  -14.7390  146.5020 C   0  0  0  0  0  0  0  0  0  0  0  0
  -24.0813  -14.3812  145.2164 C   0  0  0  0  0  0  0  0  0  0  0  0
  -23.3915  -15.2667  144.4690 C   0  0  0  0  0  0  0  0  0  0  0  0
  -24.2317  -12.9148  144.8870 C   0  0  0  0  0  0  0  0  0  0  0  0
  -24.2383  -12.0158  146.0090 C   0  0  0  0  0  0  0  0  0  0  0  0
  -23.5610  -18.4636  146.4429 C   0  0  0  0  0  0  0  0  0  0  0  0
  -24.2857  -19.2877  146.1118 O   0  0  0  0  0  0  0  0  0  0  0  0
  -22.5501  -18.7050  147.2701 O   0  0  0  0  0  0  0  0  0  0  0  0
  -25.3980  -12.3511  146.9590 C   0  0  0  0  0  0  0  0  0  0  0  0
  -25.2740  -13.8343  147.3193 C   0  0  0  0  0  0  0  0  0  0  0  0
  -24.7447  -16.5230  148.1051 O   0  0  0  0  0  0  0  0  0  0  0  0
  -24.0001  -16.9125  149.1184 C   0  0  0  0  0  0  0  0  0  0  0  0
  -24.5899  -17.7670  150.1716 C   0  0  0  0  0  0  0  0  0  0  0  0
  -25.5606  -16.9163  150.8499 C   0  0  0  0  0  0  0  0  0  0  0  0
  -26.8259  -17.3951  150.2841 C   0  0  0  0  0  0  0  0  0  0  0  0
  -27.4578  -16.7497  149.3000 C   0  0  0  0  0  0  0  0  0  0  0  0
  -28.7355  -17.0567  148.8629 C   0  0  0  0  0  0  0  0  0  0  0  0
  -29.2456  -16.1628  147.8167 C   0  0  0  0  0  0  0  0  0  0  0  0
  -28.4334  -15.5753  146.8061 C   0  0  0  0  0  0  0  0  0  0  0  0
  -28.7114  -14.3170  146.2956 C   0  0  0  0  0  0  0  0  0  0  0  0
  -29.6729  -13.4850  146.8999 C   0  0  0  0  0  0  0  0  0  0  0  0
  -30.3261  -13.9192  148.0771 C   0  0  0  0  0  0  0  0  0  0  0  0
  -30.0685  -15.2501  148.6268 C   0  0  0  0  0  0  0  0  0  0  0  0
  -29.9022  -12.1576  146.3614 C   0  0  0  0  0  0  0  0  0  0  0  0
  -30.4244  -11.1820  147.0987 N   0  0  0  0  0  0  0  0  0  0  0  0
  -29.5127  -11.8713  145.2008 O   0  0  0  0  0  0  0  0  0  0  0  0
  5  7  1  0
  7  8  1  0
  2  9  1  0
  9 10  2  0
  9 11  1  0
  8 12  1  0
  4 13  1  0
 12 13  1  0
  3 14  1  0
 14 15  1  0
 15 16  1  0
 16 17  1  0
 17 18  1  0
 18 19  2  3
 19 20  1  0
 20 21  1  0
 24 27  1  0
 27 28  1  0
 27 29  2  0
  1  2  2  0
  2  3  1  0
  3  4  2  0
  4  5  1  0
  5  6  2  0
  6  1  1  0
 21 22  2  0
 22 23  1  0
 23 24  2  0
 24 25  1  0
 25 26  2  0
 26 21  1  0
M  END

$$$$
No_1355-/dssg/home/sw_qyf/PocketFlow/Model-Generation-Results/5HT2A_7WC7_rec_A_10.pdb/2024-01-01-03-54-21/
     RDKit          3D

 35 37  0  0  0  0  0  0  0  0999 V2000
  -24.1553  -17.8465  145.7021 C   0  0  0  0  0  0  0  0  0  0  0  0
  -24.6364  -17.2931  146.7091 C   0  0  0  0  0  0  0  0  0  0  0  0
  -24.0780  -17.2921  147.9389 C   0  0  0  0  0  0  0  0  0  0  0  0
  -24.6869  -16.7004  149.1440 C   0  0  0  0  0  0  0  0  0  0  0  0
  -26.0385  -16.2385  148.9552 C   0  0  0  0  0  0  0  0  0  0  0  0
  -26.6430  -16.2999  147.7413 C   0  0  0  0  0  0  0  0  0  0  0  0
  -27.9940  -15.9043  147.4947 C   0  0  0  0  0  0  0  0  0  0  0  0
  -26.0067  -16.8798  146.6573 C   0  0  0  0  0  0  0  0  0  0  0  0
  -28.3899  -14.5166  147.5469 C   0  0  0  0  0  0  0  0  0  0  0  0
  -29.7042  -14.0636  147.7135 C   0  0  0  0  0  0  0  0  0  0  0  0
  -30.0320  -12.7688  147.9118 C   0  0  0  0  0  0  0  0  0  0  0  0
  -29.7485  -11.9212  146.8657 C   0  0  0  0  0  0  0  0  0  0  0  0
  -28.3396  -12.0585  146.3261 C   0  0  0  0  0  0  0  0  0  0  0  0
  -27.7782  -11.2182  145.3878 C   0  0  0  0  0  0  0  0  0  0  0  0
  -26.4478  -11.1723  145.1528 C   0  0  0  0  0  0  0  0  0  0  0  0
  -25.5883  -12.1640  145.8814 C   0  0  0  0  0  0  0  0  0  0  0  0
  -24.2092  -12.1715  145.7587 C   0  0  0  0  0  0  0  0  0  0  0  0
  -23.4683  -13.2573  146.3012 C   0  0  0  0  0  0  0  0  0  0  0  0
  -27.8893  -13.6018  146.3553 C   0  0  0  0  0  0  0  0  0  0  0  0
  -28.6272  -10.3565  144.5851 C   0  0  0  0  0  0  0  0  0  0  0  0
  -29.8098  -10.1115  144.6705 N   0  0  0  0  0  0  0  0  0  0  0  0
  -30.5314   -9.2661  143.8688 C   0  0  0  0  0  0  0  0  0  0  0  0
  -31.7225   -8.9597  144.1743 O   0  0  0  0  0  0  0  0  0  0  0  0
  -29.8147   -8.5679  142.8265 C   0  0  0  0  0  0  0  0  0  0  0  0
  -29.7759   -7.1801  142.9003 C   0  0  0  0  0  0  0  0  0  0  0  0
  -29.4487   -6.3332  141.7834 C   0  0  0  0  0  0  0  0  0  0  0  0
  -29.4106   -4.9323  141.9436 C   0  0  0  0  0  0  0  0  0  0  0  0
  -28.9309   -4.1815  140.9166 C   0  0  0  0  0  0  0  0  0  0  0  0
  -28.8176   -2.7523  141.0969 C   0  0  0  0  0  0  0  0  0  0  0  0
  -23.8141  -17.0548  144.6205 O   0  0  0  0  0  0  0  0  0  0  0  0
  -24.3733  -14.4177  146.1519 C   0  0  0  0  0  0  0  0  0  0  0  0
  -23.8979  -19.0872  145.5376 O   0  0  0  0  0  0  0  0  0  0  0  0
  -29.3801   -9.2712  141.6569 C   0  0  0  0  0  0  0  0  0  0  0  0
  -28.9103   -8.5182  140.5995 C   0  0  0  0  0  0  0  0  0  0  0  0
  -28.9493   -7.0645  140.6830 C   0  0  0  0  0  0  0  0  0  0  0  0
  1  2  1  0
  6  7  1  0
  7  9  1  0
 13 14  1  0
 14 15  2  3
 15 16  1  0
 16 17  1  0
 17 18  1  0
 14 20  1  0
 20 21  1  0
 21 22  1  0
 22 23  2  0
 22 24  1  0
 26 27  1  0
 27 28  2  3
 28 29  1  0
  1 30  1  0
 18 31  1  0
  1 32  2  0
 24 25  2  0
 25 26  1  0
 26 35  2  0
 35 34  1  0
 34 33  2  0
 33 24  1  0
  2  3  2  0
  3  4  1  0
  4  5  2  0
  5  6  1  0
  6  8  2  0
  8  2  1  0
  9 10  2  0
 10 11  1  0
 11 12  2  0
 12 13  1  0
 13 19  2  0
 19  9  1  0
M  END

$$$$
No_1356-/dssg/home/sw_qyf/PocketFlow/Model-Generation-Results/5HT2A_7WC7_rec_A_10.pdb/2024-01-01-03-54-21/
     RDKit          3D

 35 39  0  0  0  0  0  0  0  0999 V2000
  -23.1746  -16.6014  144.8668 C   0  0  0  0  0  0  0  0  0  0  0  0
  -24.0189  -16.0564  145.8445 C   0  0  0  0  0  0  0  0  0  0  0  0
  -24.4145  -16.8299  146.9062 C   0  0  0  0  0  0  0  0  0  0  0  0
  -25.2273  -16.2787  147.9854 C   0  0  0  0  0  0  0  0  0  0  0  0
  -25.6425  -17.1231  149.0822 C   0  0  0  0  0  0  0  0  0  0  0  0
  -24.4551  -14.6526  145.7069 C   0  0  0  0  0  0  0  0  0  0  0  0
  -23.6834  -13.7358  145.7971 C   0  0  0  0  0  0  0  0  0  0  0  0
  -24.1047  -12.3082  145.9500 C   0  0  0  0  0  0  0  0  0  0  0  0
  -25.5359  -12.0782  146.0026 C   0  0  0  0  0  0  0  0  0  0  0  0
  -26.4082  -13.1548  146.0216 C   0  0  0  0  0  0  0  0  0  0  0  0
  -25.9347  -14.4940  145.9169 C   0  0  0  0  0  0  0  0  0  0  0  0
  -23.9683  -18.1605  147.0973 C   0  0  0  0  0  0  0  0  0  0  0  0
  -27.8468  -12.9422  146.1926 C   0  0  0  0  0  0  0  0  0  0  0  0
  -28.6566  -13.6409  147.0368 C   0  0  0  0  0  0  0  0  0  0  0  0
  -29.9774  -13.2997  147.2760 C   0  0  0  0  0  0  0  0  0  0  0  0
  -30.4164  -12.0697  146.7844 C   0  0  0  0  0  0  0  0  0  0  0  0
  -29.5932  -11.2047  146.0160 C   0  0  0  0  0  0  0  0  0  0  0  0
  -28.2664  -11.6304  145.7793 C   0  0  0  0  0  0  0  0  0  0  0  0
  -30.0137  -10.0406  145.5994 O   0  0  0  0  0  0  0  0  0  0  0  0
  -23.1804  -18.6962  146.2929 N   0  0  0  0  0  0  0  0  0  0  0  0
  -22.8324  -18.0952  145.0862 C   0  0  0  0  0  0  0  0  0  0  0  0
  -30.3323   -9.8571  144.2389 C   0  0  0  0  0  0  0  0  0  0  0  0
  -29.2877  -10.0765  143.3587 C   0  0  0  0  0  0  0  0  0  0  0  0
  -29.4745  -10.0975  142.0025 C   0  0  0  0  0  0  0  0  0  0  0  0
  -28.4730  -10.5759  141.1058 C   0  0  0  0  0  0  0  0  0  0  0  0
  -28.1168  -10.0401  139.9110 C   0  0  0  0  0  0  0  0  0  0  0  0
  -27.3633  -10.6969  138.9287 C   0  0  0  0  0  0  0  0  0  0  0  0
  -26.9391  -12.0241  139.3041 C   0  0  0  0  0  0  0  0  0  0  0  0
  -27.4657  -12.6704  140.4595 C   0  0  0  0  0  0  0  0  0  0  0  0
  -28.2440  -11.9130  141.3680 C   0  0  0  0  0  0  0  0  0  0  0  0
  -26.7518  -17.0456  149.5328 O   0  0  0  0  0  0  0  0  0  0  0  0
  -28.4804   -8.5913  139.6293 C   0  0  0  0  0  0  0  0  0  0  0  0
  -29.3189   -7.8761  140.3853 C   0  0  0  0  0  0  0  0  0  0  0  0
  -29.7361   -8.5558  141.7690 C   0  0  0  0  0  0  0  0  0  0  0  0
  -28.0128   -7.9594  138.4393 C   0  0  0  0  0  0  0  0  0  0  0  0
  3  4  1  0
  4  5  1  0
  2  6  1  0
 10 13  1  0
 17 19  1  0
 19 22  1  0
 22 23  1  0
  5 31  2  0
 32 35  1  0
 23 24  1  0
 26 27  2  0
 27 28  1  0
 28 29  2  0
 29 30  1  0
 30 25  2  0
  6  7  2  0
  7  8  1  0
  8  9  2  0
  9 10  1  0
 10 11  2  0
 11  6  1  0
 24 25  1  0
 25 26  1  0
 26 32  1  0
 32 33  2  0
 33 34  1  0
 34 24  2  0
  1  2  2  0
  2  3  1  0
  3 12  2  0
 12 20  1  0
 20 21  2  0
 21  1  1  0
 13 14  2  0
 14 15  1  0
 15 16  2  0
 16 17  1  0
 17 18  2  0
 18 13  1  0
M  END

$$$$
No_1357-/dssg/home/sw_qyf/PocketFlow/Model-Generation-Results/5HT2A_7WC7_rec_A_10.pdb/2024-01-01-03-54-21/
     RDKit          3D

 35 37  0  0  0  0  0  0  0  0999 V2000
  -23.1746  -16.6014  144.8668 C   0  0  0  0  0  0  0  0  0  0  0  0
  -23.8963  -15.5346  144.7885 C   0  0  0  0  0  0  0  0  0  0  0  0
  -23.4976  -14.2961  145.1226 C   0  0  0  0  0  0  0  0  0  0  0  0
  -23.9189  -13.0599  144.7480 C   0  0  0  0  0  0  0  0  0  0  0  0
  -22.9866  -12.0510  145.4019 C   0  0  0  0  0  0  0  0  0  0  0  0
  -23.6302  -17.7206  145.4141 C   0  0  0  0  0  0  0  0  0  0  0  0
  -24.7685  -17.6527  146.3627 C   0  0  0  0  0  0  0  0  0  0  0  0
  -25.6780  -16.6244  146.2887 C   0  0  0  0  0  0  0  0  0  0  0  0
  -25.5727  -15.7629  145.6736 C   0  0  0  0  0  0  0  0  0  0  0  0
  -27.0092  -16.9059  147.0362 C   0  0  0  0  0  0  0  0  0  0  0  0
  -27.3411  -15.6157  147.4010 F   0  0  0  0  0  0  0  0  0  0  0  0
  -26.8905  -17.6494  148.1081 F   0  0  0  0  0  0  0  0  0  0  0  0
  -28.2282  -17.0513  146.5244 F   0  0  0  0  0  0  0  0  0  0  0  0
  -25.3265  -12.7382  145.2573 C   0  0  0  0  0  0  0  0  0  0  0  0
  -26.0077  -11.7521  144.4072 C   0  0  0  0  0  0  0  0  0  0  0  0
  -26.3825  -10.5531  145.1451 C   0  0  0  0  0  0  0  0  0  0  0  0
  -27.2700   -9.6137  144.3412 C   0  0  0  0  0  0  0  0  0  0  0  0
  -28.0642  -10.1722  143.3003 C   0  0  0  0  0  0  0  0  0  0  0  0
  -29.3911   -9.8572  143.2661 C   0  0  0  0  0  0  0  0  0  0  0  0
  -30.0761   -9.5740  144.3933 C   0  0  0  0  0  0  0  0  0  0  0  0
  -31.2823   -9.5525  144.2528 N   0  0  0  0  0  0  0  0  0  0  0  0
  -29.8704   -9.1856  142.1552 C   0  0  0  0  0  0  0  0  0  0  0  0
  -31.2147   -8.7295  142.0749 C   0  0  0  0  0  0  0  0  0  0  0  0
  -31.9110   -8.9149  143.2267 N   0  0  0  0  0  0  0  0  0  0  0  0
  -29.1187   -9.1634  140.8971 C   0  0  0  0  0  0  0  0  0  0  0  0
  -29.0332   -8.0372  140.0633 C   0  0  0  0  0  0  0  0  0  0  0  0
  -28.3934   -8.0683  138.8800 C   0  0  0  0  0  0  0  0  0  0  0  0
  -27.7567   -9.2820  138.5308 C   0  0  0  0  0  0  0  0  0  0  0  0
  -28.3517  -10.2113  140.3204 C   0  0  0  0  0  0  0  0  0  0  0  0
  -27.6708  -10.3055  139.2994 C   0  0  0  0  0  0  0  0  0  0  0  0
  -26.9731  -11.5420  138.9392 C   0  0  0  0  0  0  0  0  0  0  0  0
  -27.0004  -12.4909  139.4727 O   0  0  0  0  0  0  0  0  0  0  0  0
  -26.2302  -11.5533  137.8630 O   0  0  0  0  0  0  0  0  0  0  0  0
  -29.7455   -6.8336  140.4313 N   0  0  0  0  0  0  0  0  0  0  0  0
  -25.4882  -12.7870  137.7810 C   0  0  0  0  0  0  0  0  0  0  0  0
  2  3  1  0
  3  4  1  0
  4  5  1  0
  8 10  1  0
 10 11  1  0
 10 12  1  0
 10 13  1  0
  4 14  1  0
 14 15  2  3
 15 16  1  0
 16 17  1  0
 17 18  1  0
 18 19  1  0
 22 25  1  0
 30 31  1  0
 31 32  2  0
 31 33  1  0
 26 34  1  0
 33 35  1  0
 19 20  2  0
 20 21  1  0
 21 24  2  0
 24 23  1  0
 23 22  2  0
 22 19  1  0
  1  2  2  0
  2  9  1  0
  9  8  2  0
  8  7  1  0
  7  6  2  0
  6  1  1  0
 25 26  2  0
 26 27  1  0
 27 28  2  0
 28 30  1  0
 30 29  2  0
 29 25  1  0
M  END

$$$$
No_1358-/dssg/home/sw_qyf/PocketFlow/Model-Generation-Results/5HT2A_7WC7_rec_A_10.pdb/2024-01-01-03-54-21/
     RDKit          3D

 35 38  0  0  0  0  0  0  0  0999 V2000
  -24.1553  -17.8465  145.7021 C   0  0  0  0  0  0  0  0  0  0  0  0
  -24.2856  -16.6364  145.3494 C   0  0  0  0  0  0  0  0  0  0  0  0
  -25.0033  -15.6772  146.0737 C   0  0  0  0  0  0  0  0  0  0  0  0
  -24.8869  -14.2981  145.8377 C   0  0  0  0  0  0  0  0  0  0  0  0
  -24.0229  -13.8996  144.7516 C   0  0  0  0  0  0  0  0  0  0  0  0
  -24.9285  -18.3589  146.7591 C   0  0  0  0  0  0  0  0  0  0  0  0
  -23.2387  -14.8170  144.0919 C   0  0  0  0  0  0  0  0  0  0  0  0
  -23.3448  -16.1149  144.3263 C   0  0  0  0  0  0  0  0  0  0  0  0
  -25.6758  -17.4654  147.5535 C   0  0  0  0  0  0  0  0  0  0  0  0
  -25.7289  -16.1202  147.2873 C   0  0  0  0  0  0  0  0  0  0  0  0
  -25.5924  -13.2569  146.5964 C   0  0  0  0  0  0  0  0  0  0  0  0
  -25.0963  -11.8784  146.4472 C   0  0  0  0  0  0  0  0  0  0  0  0
  -24.4283  -11.5564  145.2564 C   0  0  0  0  0  0  0  0  0  0  0  0
  -23.6539  -12.4970  144.5867 C   0  0  0  0  0  0  0  0  0  0  0  0
  -23.5931  -18.8086  144.9751 O   0  0  0  0  0  0  0  0  0  0  0  0
  -25.8329  -10.9221  147.0854 O   0  0  0  0  0  0  0  0  0  0  0  0
  -23.2519  -20.0171  145.7950 C   0  0  0  0  0  0  0  0  0  0  0  0
  -22.2310  -19.9666  146.4593 O   0  0  0  0  0  0  0  0  0  0  0  0
  -23.9373  -21.0355  145.5342 O   0  0  0  0  0  0  0  0  0  0  0  0
  -26.4665  -15.3601  148.0053 O   0  0  0  0  0  0  0  0  0  0  0  0
  -27.8650  -15.8312  148.1094 C   0  0  0  0  0  0  0  0  0  0  0  0
  -28.8805  -14.8924  147.8539 C   0  0  0  0  0  0  0  0  0  0  0  0
  -29.0553  -14.3123  146.6331 C   0  0  0  0  0  0  0  0  0  0  0  0
  -30.0159  -13.2455  146.5644 C   0  0  0  0  0  0  0  0  0  0  0  0
  -29.5716  -11.9889  147.2113 C   0  0  0  0  0  0  0  0  0  0  0  0
  -29.8856  -10.8900  146.6491 O   0  0  0  0  0  0  0  0  0  0  0  0
  -29.8093  -10.7635  145.3024 C   0  0  0  0  0  0  0  0  0  0  0  0
  -28.7368  -11.2473  144.6870 C   0  0  0  0  0  0  0  0  0  0  0  0
  -28.3389  -10.5666  143.5257 C   0  0  0  0  0  0  0  0  0  0  0  0
  -29.0471  -10.3033  142.5876 C   0  0  0  0  0  0  0  0  0  0  0  0
  -30.4960   -9.9702  142.9756 C   0  0  0  0  0  0  0  0  0  0  0  0
  -30.6482   -9.9952  144.4339 C   0  0  0  0  0  0  0  0  0  0  0  0
  -28.6937  -10.0007  141.1981 C   0  0  0  0  0  0  0  0  0  0  0  0
  -27.7916  -10.8180  140.5398 C   0  0  0  0  0  0  0  0  0  0  0  0
  -27.5567  -12.1216  140.8528 C   0  0  0  0  0  0  0  0  0  0  0  0
  1 15  1  0
 12 16  1  0
 15 17  1  0
 17 18  1  0
 17 19  2  0
 10 20  1  0
 20 21  1  0
 21 22  1  0
 22 23  1  0
 23 24  2  3
 24 25  1  0
 25 26  1  0
 26 27  1  0
 30 33  1  0
 33 34  1  0
 34 35  1  0
  5 14  2  0
 14 13  1  0
 13 12  2  0
 12 11  1  0
 11  4  2  0
  1  2  2  0
  3 10  2  0
 10  9  1  0
  9  6  2  0
  6  1  1  0
 27 28  2  0
 28 29  1  0
 29 30  2  0
 30 31  1  0
 31 32  2  0
 32 27  1  0
  2  3  1  0
  3  4  1  0
  4  5  1  0
  5  7  1  0
  7  8  2  0
  8  2  1  0
M  END

$$$$
No_1359-/dssg/home/sw_qyf/PocketFlow/Model-Generation-Results/5HT2A_7WC7_rec_A_10.pdb/2024-01-01-03-54-21/
     RDKit          3D

 23 25  0  0  0  0  0  0  0  0999 V2000
  -24.1553  -17.8465  145.7021 C   0  0  0  0  0  0  0  0  0  0  0  0
  -24.2856  -16.6364  145.3494 C   0  0  0  0  0  0  0  0  0  0  0  0
  -25.0033  -15.6772  146.0737 C   0  0  0  0  0  0  0  0  0  0  0  0
  -25.1197  -14.2835  145.7299 C   0  0  0  0  0  0  0  0  0  0  0  0
  -25.8358  -13.3153  146.4318 C   0  0  0  0  0  0  0  0  0  0  0  0
  -24.7888  -18.3277  146.8665 C   0  0  0  0  0  0  0  0  0  0  0  0
  -25.2563  -17.2949  147.6610 C   0  0  0  0  0  0  0  0  0  0  0  0
  -25.4380  -15.9907  147.3415 C   0  0  0  0  0  0  0  0  0  0  0  0
  -25.7682  -11.9573  146.1094 C   0  0  0  0  0  0  0  0  0  0  0  0
  -24.9832  -11.4964  145.0517 C   0  0  0  0  0  0  0  0  0  0  0  0
  -24.6684  -13.7475  144.4647 C   0  0  0  0  0  0  0  0  0  0  0  0
  -23.8921  -14.6123  143.6993 N   0  0  0  0  0  0  0  0  0  0  0  0
  -24.3436  -12.3713  144.2743 C   0  0  0  0  0  0  0  0  0  0  0  0
  -23.7401  -16.0608  144.0071 C   0  0  0  0  0  0  0  0  0  0  0  0
  -25.7061  -17.7017  149.0361 O   0  0  0  0  0  0  0  0  0  0  0  0
  -24.9592  -17.2014  150.0928 C   0  0  0  0  0  0  0  0  0  0  0  0
  -23.6357  -16.7359  150.0167 C   0  0  0  0  0  0  0  0  0  0  0  0
  -22.5978  -17.7018  150.5339 C   0  0  0  0  0  0  0  0  0  0  0  0
  -23.2703  -16.6047  148.5735 O   0  0  0  0  0  0  0  0  0  0  0  0
  -25.0489  -10.1612  144.7999 O   0  0  0  0  0  0  0  0  0  0  0  0
  -26.4963  -11.0543  146.9169 O   0  0  0  0  0  0  0  0  0  0  0  0
  -21.8135  -16.9642  151.4473 O   0  0  0  0  0  0  0  0  0  0  0  0
  -25.5608  -17.4412  151.2592 O   0  0  0  0  0  0  0  0  0  0  0  0
  7 15  1  0
 15 16  1  0
 16 17  1  0
 17 18  1  0
 17 19  1  0
 10 20  1  0
  9 21  1  0
 18 22  1  0
 16 23  2  0
  4  5  2  0
  5  9  1  0
  9 10  2  0
 10 13  1  0
 13 11  2  0
  1  2  2  0
  3  8  2  0
  8  7  1  0
  7  6  2  0
  6  1  1  0
  2  3  1  0
  3  4  1  0
  4 11  1  0
 11 12  1  0
 12 14  2  0
 14  2  1  0
M  END

$$$$
No_1360-/dssg/home/sw_qyf/PocketFlow/Model-Generation-Results/5HT2A_7WC7_rec_A_10.pdb/2024-01-01-03-54-21/
     RDKit          3D

 35 38  0  0  0  0  0  0  0  0999 V2000
  -24.1553  -17.8465  145.7021 C   0  0  0  0  0  0  0  0  0  0  0  0
  -24.6364  -17.2931  146.7091 C   0  0  0  0  0  0  0  0  0  0  0  0
  -24.0780  -17.2921  147.9389 C   0  0  0  0  0  0  0  0  0  0  0  0
  -24.6869  -16.7004  149.1440 C   0  0  0  0  0  0  0  0  0  0  0  0
  -26.0385  -16.2385  148.9552 C   0  0  0  0  0  0  0  0  0  0  0  0
  -26.6430  -16.2999  147.7413 C   0  0  0  0  0  0  0  0  0  0  0  0
  -27.9940  -15.9043  147.4947 C   0  0  0  0  0  0  0  0  0  0  0  0
  -26.0067  -16.8798  146.6573 C   0  0  0  0  0  0  0  0  0  0  0  0
  -29.1039  -16.1819  148.1625 C   0  0  0  0  0  0  0  0  0  0  0  0
  -28.2226  -14.9515  146.4603 C   0  0  0  0  0  0  0  0  0  0  0  0
  -23.9203  -17.0385  144.6059 O   0  0  0  0  0  0  0  0  0  0  0  0
  -29.3494  -14.2739  146.4647 N   0  0  0  0  0  0  0  0  0  0  0  0
  -26.9915  -14.4149  145.4862 Cl  0  0  0  0  0  0  0  0  0  0  0  0
  -29.7585  -13.6145  147.3885 C   0  0  0  0  0  0  0  0  0  0  0  0
  -30.7294  -12.4434  147.0458 C   0  0  0  0  0  0  0  0  0  0  0  0
  -31.2497  -11.7848  148.2048 C   0  0  0  0  0  0  0  0  0  0  0  0
  -32.1368  -12.4181  148.9673 C   0  0  0  0  0  0  0  0  0  0  0  0
  -32.6064  -11.7503  150.1920 C   0  0  0  0  0  0  0  0  0  0  0  0
  -33.3161  -12.3043  151.1774 C   0  0  0  0  0  0  0  0  0  0  0  0
  -23.8138  -19.0667  145.5411 O   0  0  0  0  0  0  0  0  0  0  0  0
  -33.3363  -13.7583  151.2063 C   0  0  0  0  0  0  0  0  0  0  0  0
  -32.7402  -14.4272  150.1245 C   0  0  0  0  0  0  0  0  0  0  0  0
  -32.0361  -13.7497  149.1771 C   0  0  0  0  0  0  0  0  0  0  0  0
  -29.9657  -14.4424  148.7010 C   0  0  0  0  0  0  0  0  0  0  0  0
  -29.5490  -15.5592  149.0949 N   0  0  0  0  0  0  0  0  0  0  0  0
  -31.0718  -13.9230  149.4933 N   0  0  0  0  0  0  0  0  0  0  0  0
  -22.8030  -17.6943  148.1313 O   0  0  0  0  0  0  0  0  0  0  0  0
  -23.8825  -15.6278  144.8177 C   0  0  0  0  0  0  0  0  0  0  0  0
  -22.6412  -15.0145  144.6721 C   0  0  0  0  0  0  0  0  0  0  0  0
  -22.6329  -13.5717  144.5612 C   0  0  0  0  0  0  0  0  0  0  0  0
  -23.8789  -12.8335  145.0518 C   0  0  0  0  0  0  0  0  0  0  0  0
  -23.9218  -11.4733  144.9242 C   0  0  0  0  0  0  0  0  0  0  0  0
  -25.1754  -10.9221  145.3378 C   0  0  0  0  0  0  0  0  0  0  0  0
  -25.9178  -11.4909  146.2481 C   0  0  0  0  0  0  0  0  0  0  0  0
  -25.5565  -12.7498  146.7974 C   0  0  0  0  0  0  0  0  0  0  0  0
  1  2  1  0
  6  7  1  0
  7  9  2  0
  7 10  1  0
  1 11  1  0
 10 12  1  0
 10 13  1  0
 12 14  2  0
 14 15  1  0
 15 16  2  0
 16 17  1  0
  1 20  2  0
 14 24  1  0
  9 25  1  0
 24 25  1  0
 23 26  1  0
 24 26  2  0
  3 27  1  0
 11 28  1  0
 28 29  2  3
 29 30  1  0
 30 31  2  3
 31 32  1  0
 32 33  2  3
 33 34  1  0
 34 35  2  0
  2  3  2  0
  3  4  1  0
  4  5  2  0
  5  6  1  0
  6  8  2  0
  8  2  1  0
 17 18  2  0
 18 19  1  0
 19 21  2  0
 21 22  1  0
 22 23  2  0
 23 17  1  0
M  END

$$$$
No_1361-/dssg/home/sw_qyf/PocketFlow/Model-Generation-Results/5HT2A_7WC7_rec_A_10.pdb/2024-01-01-03-54-21/
     RDKit          3D

 27 28  0  0  0  0  0  0  0  0999 V2000
  -24.1553  -17.8465  145.7021 C   0  0  0  0  0  0  0  0  0  0  0  0
  -24.6364  -17.2931  146.7091 C   0  0  0  0  0  0  0  0  0  0  0  0
  -24.5709  -15.9334  146.8074 C   0  0  0  0  0  0  0  0  0  0  0  0
  -24.3883  -15.1807  145.6115 C   0  0  0  0  0  0  0  0  0  0  0  0
  -23.6710  -15.8133  144.5990 C   0  0  0  0  0  0  0  0  0  0  0  0
  -23.7275  -17.1747  144.5879 C   0  0  0  0  0  0  0  0  0  0  0  0
  -24.4002  -13.6558  145.7268 C   0  0  0  0  0  0  0  0  0  0  0  0
  -25.3629  -13.0973  146.4933 C   0  0  0  0  0  0  0  0  0  0  0  0
  -23.4598  -12.8963  144.9930 C   0  0  0  0  0  0  0  0  0  0  0  0
  -25.5701  -11.6956  146.4427 C   0  0  0  0  0  0  0  0  0  0  0  0
  -23.5617  -11.4648  145.1256 C   0  0  0  0  0  0  0  0  0  0  0  0
  -24.6833  -10.8902  145.7685 C   0  0  0  0  0  0  0  0  0  0  0  0
  -24.0383  -19.2785  145.6464 N   0  0  0  0  0  0  0  0  0  0  0  0
  -22.4642  -13.3748  144.3322 O   0  0  0  0  0  0  0  0  0  0  0  0
  -24.9565  -18.0688  147.9786 C   0  0  0  0  0  0  0  0  0  0  0  0
  -26.0794  -18.2638  148.1852 F   0  0  0  0  0  0  0  0  0  0  0  0
  -24.5276  -17.3477  149.2247 F   0  0  0  0  0  0  0  0  0  0  0  0
  -24.1797  -19.1225  148.0866 F   0  0  0  0  0  0  0  0  0  0  0  0
  -22.7905  -19.9594  145.5675 C   0  0  0  0  0  0  0  0  0  0  0  0
  -25.1197  -20.1306  145.7674 C   0  0  0  0  0  0  0  0  0  0  0  0
  -22.6749  -13.6391  142.9821 C   0  0  0  0  0  0  0  0  0  0  0  0
  -26.5725  -11.1496  147.1705 F   0  0  0  0  0  0  0  0  0  0  0  0
  -21.6131  -14.3635  142.7552 O   0  0  0  0  0  0  0  0  0  0  0  0
  -23.8016  -14.1633  142.6723 O   0  0  0  0  0  0  0  0  0  0  0  0
  -22.4245  -15.5632  144.7968 O   0  0  0  0  0  0  0  0  0  0  0  0
  -23.5707  -17.8309  143.4919 O   0  0  0  0  0  0  0  0  0  0  0  0
  -24.7734  -21.3620  145.7156 O   0  0  0  0  0  0  0  0  0  0  0  0
  1  2  1  0
  2  3  1  0
  3  4  1  0
  1  6  1  0
  5  6  1  0
  4  7  1  0
  1 13  1  0
  9 14  1  0
  2 15  1  0
 15 16  1  0
 15 17  1  0
 15 18  1  0
 13 19  1  0
 13 20  1  0
 14 21  1  0
 10 22  1  0
 21 23  2  0
 21 24  1  0
  5 25  1  0
  6 26  2  0
 20 27  2  0
  4  5  1  0
  7  8  2  0
  8 10  1  0
 10 12  2  0
 12 11  1  0
 11  9  2  0
  9  7  1  0
M  END

$$$$
No_1362-/dssg/home/sw_qyf/PocketFlow/Model-Generation-Results/5HT2A_7WC7_rec_A_10.pdb/2024-01-01-03-54-21/
     RDKit          3D

 35 37  0  0  0  0  0  0  0  0999 V2000
  -23.1746  -16.6014  144.8668 C   0  0  0  0  0  0  0  0  0  0  0  0
  -23.8963  -15.5346  144.7885 C   0  0  0  0  0  0  0  0  0  0  0  0
  -24.5755  -15.0383  145.9043 C   0  0  0  0  0  0  0  0  0  0  0  0
  -25.6726  -15.0536  146.1073 C   0  0  0  0  0  0  0  0  0  0  0  0
  -23.3810  -17.3233  146.1036 C   0  0  0  0  0  0  0  0  0  0  0  0
  -26.7717  -14.7536  145.2477 C   0  0  0  0  0  0  0  0  0  0  0  0
  -24.0440  -16.8820  147.2306 C   0  0  0  0  0  0  0  0  0  0  0  0
  -25.2675  -16.2052  147.2583 C   0  0  0  0  0  0  0  0  0  0  0  0
  -27.9573  -14.3027  146.0320 C   0  0  0  0  0  0  0  0  0  0  0  0
  -28.3733  -12.9287  145.9775 C   0  0  0  0  0  0  0  0  0  0  0  0
  -29.5623  -12.5120  146.7304 C   0  0  0  0  0  0  0  0  0  0  0  0
  -30.1725  -13.3976  147.5791 C   0  0  0  0  0  0  0  0  0  0  0  0
  -29.6735  -14.7290  147.6360 C   0  0  0  0  0  0  0  0  0  0  0  0
  -28.6374  -14.9589  146.9895 C   0  0  0  0  0  0  0  0  0  0  0  0
  -29.9652  -11.1930  146.5303 N   0  0  0  0  0  0  0  0  0  0  0  0
  -23.9742  -13.6236  146.2976 C   0  0  0  0  0  0  0  0  0  0  0  0
  -23.4550  -12.7727  145.3577 C   0  0  0  0  0  0  0  0  0  0  0  0
  -23.0138  -11.5210  145.5419 C   0  0  0  0  0  0  0  0  0  0  0  0
  -30.2192  -10.6912  145.3048 C   0  0  0  0  0  0  0  0  0  0  0  0
  -30.8583   -9.6541  145.2183 O   0  0  0  0  0  0  0  0  0  0  0  0
  -29.5534  -11.0748  144.3066 O   0  0  0  0  0  0  0  0  0  0  0  0
  -23.0677  -13.4297  144.0816 C   0  0  0  0  0  0  0  0  0  0  0  0
  -23.0106  -14.5095  144.2382 O   0  0  0  0  0  0  0  0  0  0  0  0
  -23.7377  -17.4908  148.6293 C   0  0  0  0  0  0  0  0  0  0  0  0
  -24.5290  -17.7503  149.4266 O   0  0  0  0  0  0  0  0  0  0  0  0
  -22.4400  -17.4323  148.9039 O   0  0  0  0  0  0  0  0  0  0  0  0
  -24.9898  -16.8024  150.4462 C   0  0  0  0  0  0  0  0  0  0  0  0
  -29.6127  -10.3360  143.0988 C   0  0  0  0  0  0  0  0  0  0  0  0
  -28.8149   -9.1995  142.9092 C   0  0  0  0  0  0  0  0  0  0  0  0
  -29.4330   -8.1737  142.1553 C   0  0  0  0  0  0  0  0  0  0  0  0
  -29.1108   -8.0653  140.7407 C   0  0  0  0  0  0  0  0  0  0  0  0
  -28.6801   -9.1178  140.0162 C   0  0  0  0  0  0  0  0  0  0  0  0
  -28.3577   -8.9055  138.6625 C   0  0  0  0  0  0  0  0  0  0  0  0
  -28.3039   -9.7806  137.7153 C   0  0  0  0  0  0  0  0  0  0  0  0
  -28.0390  -11.0971  138.1074 C   0  0  0  0  0  0  0  0  0  0  0  0
  1  2  1  0
  2  3  1  0
  3  4  2  0
  1  5  1  0
  4  6  1  0
  5  7  2  0
  4  8  1  0
  7  8  1  0
  6  9  1  0
 11 15  1  0
  3 16  1  0
 16 17  2  0
 17 18  1  0
 15 19  1  0
 19 20  2  0
 19 21  1  0
 17 22  1  0
  2 23  1  0
 22 23  1  0
  7 24  1  0
 24 25  1  0
 24 26  2  0
 25 27  1  0
 21 28  1  0
 28 29  1  0
 29 30  1  0
 30 31  2  3
 31 32  1  0
 32 33  2  3
 33 34  1  0
 34 35  2  0
  9 10  2  0
 10 11  1  0
 11 12  2  0
 12 13  1  0
 13 14  2  0
 14  9  1  0
M  END

$$$$
No_1363-/dssg/home/sw_qyf/PocketFlow/Model-Generation-Results/5HT2A_7WC7_rec_A_10.pdb/2024-01-01-03-54-21/
     RDKit          3D

 12 12  0  0  0  0  0  0  0  0999 V2000
  -23.1746  -16.6014  144.8668 C   0  0  0  0  0  0  0  0  0  0  0  0
  -23.7011  -17.0158  145.9774 C   0  0  0  0  0  0  0  0  0  0  0  0
  -24.2134  -16.0722  146.8877 C   0  0  0  0  0  0  0  0  0  0  0  0
  -24.5407  -14.7704  146.3552 C   0  0  0  0  0  0  0  0  0  0  0  0
  -24.1477  -14.4045  145.0969 C   0  0  0  0  0  0  0  0  0  0  0  0
  -23.3867  -15.3023  144.3541 C   0  0  0  0  0  0  0  0  0  0  0  0
  -23.5023  -18.3885  146.5540 C   0  0  0  0  0  0  0  0  0  0  0  0
  -24.3034  -13.1723  144.6871 F   0  0  0  0  0  0  0  0  0  0  0  0
  -23.9453  -18.7696  147.6068 O   0  0  0  0  0  0  0  0  0  0  0  0
  -22.9646  -19.2787  145.8250 O   0  0  0  0  0  0  0  0  0  0  0  0
  -25.1326  -13.8328  147.2189 O   0  0  0  0  0  0  0  0  0  0  0  0
  -25.7944  -12.7551  146.5196 C   0  0  0  0  0  0  0  0  0  0  0  0
  2  7  1  0
  5  8  1  0
  7  9  2  0
  7 10  1  0
  4 11  1  0
 11 12  1  0
  1  2  2  0
  2  3  1  0
  3  4  2  0
  4  5  1  0
  5  6  2  0
  6  1  1  0
M  END

$$$$
No_1364-/dssg/home/sw_qyf/PocketFlow/Model-Generation-Results/5HT2A_7WC7_rec_A_10.pdb/2024-01-01-03-54-21/
     RDKit          3D

 35 37  0  0  0  0  0  0  0  0999 V2000
  -23.1746  -16.6014  144.8668 C   0  0  0  0  0  0  0  0  0  0  0  0
  -23.8963  -15.5346  144.7885 C   0  0  0  0  0  0  0  0  0  0  0  0
  -24.5755  -15.0383  145.9043 C   0  0  0  0  0  0  0  0  0  0  0  0
  -25.0618  -13.6819  146.0347 C   0  0  0  0  0  0  0  0  0  0  0  0
  -24.0242  -12.8249  145.9593 C   0  0  0  0  0  0  0  0  0  0  0  0
  -23.5540  -17.4786  146.0177 C   0  0  0  0  0  0  0  0  0  0  0  0
  -22.9774  -18.6333  146.2350 N   0  0  0  0  0  0  0  0  0  0  0  0
  -24.5612  -16.0214  147.0454 C   0  0  0  0  0  0  0  0  0  0  0  0
  -24.0225  -17.1092  147.1888 C   0  0  0  0  0  0  0  0  0  0  0  0
  -26.3828  -13.2705  146.1141 C   0  0  0  0  0  0  0  0  0  0  0  0
  -26.9074  -12.5691  145.1946 C   0  0  0  0  0  0  0  0  0  0  0  0
  -28.2653  -12.1054  145.2129 C   0  0  0  0  0  0  0  0  0  0  0  0
  -28.8126  -10.9801  144.4758 C   0  0  0  0  0  0  0  0  0  0  0  0
  -27.9777  -10.3940  143.5229 C   0  0  0  0  0  0  0  0  0  0  0  0
  -28.4952   -9.3714  142.7883 C   0  0  0  0  0  0  0  0  0  0  0  0
  -29.6507   -8.7094  143.1965 C   0  0  0  0  0  0  0  0  0  0  0  0
  -30.2902   -7.6947  142.4599 C   0  0  0  0  0  0  0  0  0  0  0  0
  -29.8259   -7.4836  141.1751 C   0  0  0  0  0  0  0  0  0  0  0  0
  -28.8857   -8.3740  140.5510 C   0  0  0  0  0  0  0  0  0  0  0  0
  -28.5000   -8.2263  139.2056 C   0  0  0  0  0  0  0  0  0  0  0  0
  -28.2833   -9.2343  141.3667 C   0  0  0  0  0  0  0  0  0  0  0  0
  -27.7748   -9.0400  138.7184 F   0  0  0  0  0  0  0  0  0  0  0  0
  -29.7701   -8.3304  138.4731 F   0  0  0  0  0  0  0  0  0  0  0  0
  -24.1370  -17.8557  148.1886 F   0  0  0  0  0  0  0  0  0  0  0  0
  -26.6588  -10.9108  143.4398 C   0  0  0  0  0  0  0  0  0  0  0  0
  -26.1018  -11.8341  144.3657 C   0  0  0  0  0  0  0  0  0  0  0  0
  -29.1949  -12.7308  146.2554 C   0  0  0  0  0  0  0  0  0  0  0  0
  -30.2243  -11.7946  147.0264 Cl  0  0  0  0  0  0  0  0  0  0  0  0
  -29.9356  -13.7375  145.5936 F   0  0  0  0  0  0  0  0  0  0  0  0
  -28.5092  -13.3731  147.2714 F   0  0  0  0  0  0  0  0  0  0  0  0
  -28.1043   -6.9581  138.8891 F   0  0  0  0  0  0  0  0  0  0  0  0
  -23.8407  -14.6874  143.8134 O   0  0  0  0  0  0  0  0  0  0  0  0
  -31.3155   -6.9441  143.0115 N   0  0  0  0  0  0  0  0  0  0  0  0
  -23.4751  -12.3028  147.0344 O   0  0  0  0  0  0  0  0  0  0  0  0
  -23.3613  -12.4675  144.8668 O   0  0  0  0  0  0  0  0  0  0  0  0
  1  2  1  0
  2  3  1  0
  3  4  1  0
  4  5  1  0
  1  6  1  0
  6  7  2  0
  3  8  1  0
  6  9  1  0
  8  9  1  0
  4 10  1  0
 14 15  1  0
 19 20  1  0
 20 22  1  0
 20 23  1  0
  9 24  1  0
 12 27  1  0
 27 28  1  0
 27 29  1  0
 27 30  1  0
 20 31  1  0
  2 32  1  0
 17 33  1  0
  5 34  2  0
  5 35  1  0
 10 11  1  0
 15 16  2  0
 16 17  1  0
 17 18  2  0
 18 19  1  0
 19 21  2  0
 21 15  1  0
 11 12  2  0
 12 13  1  0
 13 14  2  0
 14 25  1  0
 25 26  2  0
 26 11  1  0
M  END

$$$$
No_1365-/dssg/home/sw_qyf/PocketFlow/Model-Generation-Results/5HT2A_7WC7_rec_A_10.pdb/2024-01-01-03-54-21/
     RDKit          3D

 35 38  0  0  0  0  0  0  0  0999 V2000
  -23.1746  -16.6014  144.8668 C   0  0  0  0  0  0  0  0  0  0  0  0
  -23.8963  -15.5346  144.7885 C   0  0  0  0  0  0  0  0  0  0  0  0
  -25.0303  -15.2549  144.5358 C   0  0  0  0  0  0  0  0  0  0  0  0
  -25.6045  -13.9524  144.2294 C   0  0  0  0  0  0  0  0  0  0  0  0
  -24.8624  -12.8904  144.6738 C   0  0  0  0  0  0  0  0  0  0  0  0
  -23.5278  -13.1645  145.1476 C   0  0  0  0  0  0  0  0  0  0  0  0
  -23.0148  -14.3796  145.1899 C   0  0  0  0  0  0  0  0  0  0  0  0
  -23.3765  -17.4166  146.1752 C   0  0  0  0  0  0  0  0  0  0  0  0
  -23.4813  -16.6317  147.2733 C   0  0  0  0  0  0  0  0  0  0  0  0
  -23.7137  -17.3916  148.5732 C   0  0  0  0  0  0  0  0  0  0  0  0
  -23.5726  -16.6377  149.7777 C   0  0  0  0  0  0  0  0  0  0  0  0
  -27.0082  -13.7638  143.8360 C   0  0  0  0  0  0  0  0  0  0  0  0
  -27.2373  -12.3940  143.3890 C   0  0  0  0  0  0  0  0  0  0  0  0
  -27.7605  -12.1948  142.1168 C   0  0  0  0  0  0  0  0  0  0  0  0
  -27.7808  -13.1363  141.0701 C   0  0  0  0  0  0  0  0  0  0  0  0
  -27.6377  -12.5221  139.8387 C   0  0  0  0  0  0  0  0  0  0  0  0
  -27.2148  -13.0449  138.6120 C   0  0  0  0  0  0  0  0  0  0  0  0
  -28.0233  -11.0169  139.9535 C   0  0  0  0  0  0  0  0  0  0  0  0
  -27.9567  -10.1691  138.8204 C   0  0  0  0  0  0  0  0  0  0  0  0
  -27.8518  -10.8723  141.5021 C   0  0  0  0  0  0  0  0  0  0  0  0
  -28.8742  -10.1899  137.9430 C   0  0  0  0  0  0  0  0  0  0  0  0
  -28.9801   -8.9363  137.1042 C   0  0  0  0  0  0  0  0  0  0  0  0
  -28.1566   -7.8069  137.5213 C   0  0  0  0  0  0  0  0  0  0  0  0
  -27.8000   -7.7862  138.9455 C   0  0  0  0  0  0  0  0  0  0  0  0
  -27.8499   -8.7653  139.7785 C   0  0  0  0  0  0  0  0  0  0  0  0
  -22.7223  -11.8860  145.4960 C   0  0  0  0  0  0  0  0  0  0  0  0
  -23.3730  -18.8367  146.2003 C   0  0  0  0  0  0  0  0  0  0  0  0
  -24.3618  -19.3447  145.6768 O   0  0  0  0  0  0  0  0  0  0  0  0
  -23.0711  -17.3086  150.9449 C   0  0  0  0  0  0  0  0  0  0  0  0
  -28.2638  -11.7541  144.4667 C   0  0  0  0  0  0  0  0  0  0  0  0
  -28.6149  -10.4593  144.4016 C   0  0  0  0  0  0  0  0  0  0  0  0
  -29.6643  -10.0200  145.3000 C   0  0  0  0  0  0  0  0  0  0  0  0
  -30.0108  -10.9261  146.4259 C   0  0  0  0  0  0  0  0  0  0  0  0
  -29.4143  -12.1551  146.5502 C   0  0  0  0  0  0  0  0  0  0  0  0
  -28.4761  -12.5870  145.6521 C   0  0  0  0  0  0  0  0  0  0  0  0
  1  2  1  0
  1  8  1  0
  8  9  2  3
  9 10  1  0
 10 11  1  0
  4 12  1  0
 12 13  1  0
 13 14  2  3
 14 15  1  0
 15 16  2  0
 16 17  1  0
 16 18  1  0
 18 19  1  0
 14 20  1  0
 18 20  1  0
  6 26  1  0
  8 27  1  0
 27 28  2  0
 11 29  1  0
 13 30  1  0
  2  3  2  0
  3  4  1  0
  4  5  2  0
  5  6  1  0
  6  7  2  0
  7  2  1  0
 19 21  2  0
 21 22  1  0
 22 23  2  0
 23 24  1  0
 24 25  2  0
 25 19  1  0
 30 31  2  0
 31 32  1  0
 32 33  2  0
 33 34  1  0
 34 35  2  0
 35 30  1  0
M  END

$$$$
No_1366-/dssg/home/sw_qyf/PocketFlow/Model-Generation-Results/5HT2A_7WC7_rec_A_10.pdb/2024-01-01-03-54-21/
     RDKit          3D

 35 37  0  0  0  0  0  0  0  0999 V2000
  -23.1746  -16.6014  144.8668 C   0  0  0  0  0  0  0  0  0  0  0  0
  -23.8963  -15.5346  144.7885 C   0  0  0  0  0  0  0  0  0  0  0  0
  -23.6398  -14.5115  145.3281 C   0  0  0  0  0  0  0  0  0  0  0  0
  -24.6397  -13.8424  146.2286 C   0  0  0  0  0  0  0  0  0  0  0  0
  -25.5796  -12.8818  145.7656 C   0  0  0  0  0  0  0  0  0  0  0  0
  -25.1988  -11.6691  145.6259 C   0  0  0  0  0  0  0  0  0  0  0  0
  -23.7586  -17.6124  145.6748 C   0  0  0  0  0  0  0  0  0  0  0  0
  -24.8616  -17.1744  146.5487 C   0  0  0  0  0  0  0  0  0  0  0  0
  -24.8628  -17.6094  147.9103 C   0  0  0  0  0  0  0  0  0  0  0  0
  -25.6731  -16.8936  148.9480 C   0  0  0  0  0  0  0  0  0  0  0  0
  -26.2254  -10.6504  145.1442 C   0  0  0  0  0  0  0  0  0  0  0  0
  -27.5523  -11.0735  144.8158 C   0  0  0  0  0  0  0  0  0  0  0  0
  -27.8694  -12.4121  145.2192 C   0  0  0  0  0  0  0  0  0  0  0  0
  -26.9344  -13.2924  145.6759 C   0  0  0  0  0  0  0  0  0  0  0  0
  -28.5250  -10.1235  144.3946 C   0  0  0  0  0  0  0  0  0  0  0  0
  -29.8176  -10.1974  144.8154 C   0  0  0  0  0  0  0  0  0  0  0  0
  -30.2163  -11.2331  146.0931 Cl  0  0  0  0  0  0  0  0  0  0  0  0
  -30.8020   -9.4862  144.3680 O   0  0  0  0  0  0  0  0  0  0  0  0
  -26.9495  -17.2081  148.7217 C   0  0  0  0  0  0  0  0  0  0  0  0
  -27.5588  -16.4862  147.5027 C   0  0  0  0  0  0  0  0  0  0  0  0
  -27.7266  -17.1292  146.4743 C   0  0  0  0  0  0  0  0  0  0  0  0
  -28.1408  -16.5801  145.3127 C   0  0  0  0  0  0  0  0  0  0  0  0
  -22.7755  -13.4636  144.7741 C   0  0  0  0  0  0  0  0  0  0  0  0
  -30.6855   -8.7076  143.3420 C   0  0  0  0  0  0  0  0  0  0  0  0
  -31.0791   -9.1167  142.1880 C   0  0  0  0  0  0  0  0  0  0  0  0
  -30.5838  -10.3857  142.0463 C   0  0  0  0  0  0  0  0  0  0  0  0
  -30.6291   -8.3423  141.0634 O   0  0  0  0  0  0  0  0  0  0  0  0
  -29.3810   -8.3452  140.6428 C   0  0  0  0  0  0  0  0  0  0  0  0
  -28.9405   -7.2250  139.8488 C   0  0  0  0  0  0  0  0  0  0  0  0
  -28.2792   -7.6374  138.6513 C   0  0  0  0  0  0  0  0  0  0  0  0
  -27.7841   -9.0029  138.6597 C   0  0  0  0  0  0  0  0  0  0  0  0
  -27.7667   -9.6256  139.8768 C   0  0  0  0  0  0  0  0  0  0  0  0
  -28.7038   -9.4812  140.7171 C   0  0  0  0  0  0  0  0  0  0  0  0
  -29.2179  -10.5692  141.5196 C   0  0  0  0  0  0  0  0  0  0  0  0
  -23.3219  -18.8143  145.9177 O   0  0  0  0  0  0  0  0  0  0  0  0
  1  2  1  0
  2  3  1  0
  3  4  1  0
  4  5  1  0
  1  7  1  0
  7  8  1  0
  8  9  1  0
  9 10  2  3
 12 15  1  0
 15 16  1  0
 16 17  1  0
 16 18  1  0
 10 19  1  0
 19 20  1  0
 20 21  2  3
 21 22  1  0
  3 23  1  0
 18 24  1  0
 24 25  1  0
 25 26  1  0
 25 27  1  0
 27 28  1  0
 26 34  2  0
 33 34  1  0
  7 35  2  0
 28 29  2  0
 29 30  1  0
 30 31  2  0
 31 32  1  0
 32 33  2  0
 33 28  1  0
  5  6  2  0
  6 11  1  0
 11 12  2  0
 12 13  1  0
 13 14  2  0
 14  5  1  0
M  END

$$$$
No_1367-/dssg/home/sw_qyf/PocketFlow/Model-Generation-Results/5HT2A_7WC7_rec_A_10.pdb/2024-01-01-03-54-21/
     RDKit          3D

 35 36  0  0  0  0  0  0  0  0999 V2000
  -23.1746  -16.6014  144.8668 C   0  0  0  0  0  0  0  0  0  0  0  0
  -23.8963  -15.5346  144.7885 C   0  0  0  0  0  0  0  0  0  0  0  0
  -24.5755  -15.0383  145.9043 C   0  0  0  0  0  0  0  0  0  0  0  0
  -25.0618  -13.6819  146.0347 C   0  0  0  0  0  0  0  0  0  0  0  0
  -24.0242  -12.8249  145.9593 C   0  0  0  0  0  0  0  0  0  0  0  0
  -23.8786  -17.6652  145.6663 C   0  0  0  0  0  0  0  0  0  0  0  0
  -24.6984  -17.2858  146.7874 C   0  0  0  0  0  0  0  0  0  0  0  0
  -25.2546  -15.9953  146.8612 C   0  0  0  0  0  0  0  0  0  0  0  0
  -26.3476  -13.1988  146.2246 C   0  0  0  0  0  0  0  0  0  0  0  0
  -26.6938  -11.8637  146.1234 C   0  0  0  0  0  0  0  0  0  0  0  0
  -27.0727  -11.3969  144.8028 C   0  0  0  0  0  0  0  0  0  0  0  0
  -27.7808  -10.1529  144.7560 C   0  0  0  0  0  0  0  0  0  0  0  0
  -28.2205   -9.6034  143.4837 C   0  0  0  0  0  0  0  0  0  0  0  0
  -29.1409   -8.5540  143.4251 C   0  0  0  0  0  0  0  0  0  0  0  0
  -30.4839   -8.8611  143.3892 C   0  0  0  0  0  0  0  0  0  0  0  0
  -30.9755   -9.9900  143.4693 C   0  0  0  0  0  0  0  0  0  0  0  0
  -30.4237  -10.8406  144.2277 O   0  0  0  0  0  0  0  0  0  0  0  0
  -31.1664   -7.9761  142.1765 C   0  0  0  0  0  0  0  0  0  0  0  0
  -24.4793  -18.6028  144.8217 F   0  0  0  0  0  0  0  0  0  0  0  0
  -23.7896  -17.5488  148.0951 C   0  0  0  0  0  0  0  0  0  0  0  0
  -24.5535  -17.3415  149.4514 C   0  0  0  0  0  0  0  0  0  0  0  0
  -24.2115  -16.4691  150.1275 C   0  0  0  0  0  0  0  0  0  0  0  0
  -31.7198  -10.5581  142.5460 O   0  0  0  0  0  0  0  0  0  0  0  0
  -25.7194  -18.1773  149.5765 C   0  0  0  0  0  0  0  0  0  0  0  0
  -27.4672  -14.0939  146.3421 C   0  0  0  0  0  0  0  0  0  0  0  0
  -27.4814  -15.4306  146.4653 C   0  0  0  0  0  0  0  0  0  0  0  0
  -26.4063  -16.2270  146.8298 C   0  0  0  0  0  0  0  0  0  0  0  0
  -23.0991  -12.9462  145.0336 O   0  0  0  0  0  0  0  0  0  0  0  0
  -22.6750  -11.7426  144.3804 C   0  0  0  0  0  0  0  0  0  0  0  0
  -31.2627   -6.8620  142.3425 O   0  0  0  0  0  0  0  0  0  0  0  0
  -31.6888   -8.5416  141.2542 O   0  0  0  0  0  0  0  0  0  0  0  0
  -28.8591  -16.0292  146.3403 C   0  0  0  0  0  0  0  0  0  0  0  0
  -26.3626  -18.1226  150.9415 C   0  0  0  0  0  0  0  0  0  0  0  0
  -23.6092  -16.8768  151.2866 C   0  0  0  0  0  0  0  0  0  0  0  0
  -22.7219  -15.9547  151.7153 O   0  0  0  0  0  0  0  0  0  0  0  0
  1  2  1  0
  2  3  1  0
  3  4  1  0
  4  5  1  0
  1  6  1  0
  6  7  1  0
  3  8  1  0
  7  8  1  0
  4  9  1  0
  9 10  1  0
 10 11  1  0
 11 12  1  0
 12 13  1  0
 13 14  1  0
 14 15  1  0
 15 16  1  0
 16 17  1  0
 15 18  1  0
  6 19  1  0
  7 20  1  0
 20 21  1  0
 21 22  2  3
 16 23  2  0
 21 24  1  0
  9 25  1  0
 25 26  2  0
  8 27  1  0
 26 27  1  0
  5 28  1  0
 28 29  1  0
 18 30  2  0
 18 31  1  0
 26 32  1  0
 24 33  1  0
 22 34  1  0
 34 35  1  0
M  END

$$$$
No_1368-/dssg/home/sw_qyf/PocketFlow/Model-Generation-Results/5HT2A_7WC7_rec_A_10.pdb/2024-01-01-03-54-21/
     RDKit          3D

 26 28  0  0  0  0  0  0  0  0999 V2000
  -23.8931  -18.2534  145.3804 F   0  0  0  0  0  0  0  0  0  0  0  0
  -24.3394  -17.2619  146.1054 C   0  0  0  0  0  0  0  0  0  0  0  0
  -24.5130  -16.0162  145.5718 C   0  0  0  0  0  0  0  0  0  0  0  0
  -25.2960  -14.9961  146.0616 C   0  0  0  0  0  0  0  0  0  0  0  0
  -25.1750  -13.6618  145.6954 C   0  0  0  0  0  0  0  0  0  0  0  0
  -24.2279  -13.3754  144.7400 C   0  0  0  0  0  0  0  0  0  0  0  0
  -23.4062  -14.3614  144.1644 C   0  0  0  0  0  0  0  0  0  0  0  0
  -23.4626  -15.6198  144.6252 C   0  0  0  0  0  0  0  0  0  0  0  0
  -23.6896  -17.3838  147.3364 F   0  0  0  0  0  0  0  0  0  0  0  0
  -25.6991  -17.7178  146.3536 F   0  0  0  0  0  0  0  0  0  0  0  0
  -25.9996  -12.6164  146.3432 C   0  0  0  0  0  0  0  0  0  0  0  0
  -25.7107  -11.2574  145.9120 C   0  0  0  0  0  0  0  0  0  0  0  0
  -26.2309  -10.9447  144.5569 C   0  0  0  0  0  0  0  0  0  0  0  0
  -27.3964  -11.4660  144.1896 C   0  0  0  0  0  0  0  0  0  0  0  0
  -27.8513  -11.1708  142.9095 C   0  0  0  0  0  0  0  0  0  0  0  0
  -27.5979  -11.9467  141.8683 C   0  0  0  0  0  0  0  0  0  0  0  0
  -27.9740  -11.6353  140.5694 C   0  0  0  0  0  0  0  0  0  0  0  0
  -27.1767  -10.7597  139.9113 C   0  0  0  0  0  0  0  0  0  0  0  0
  -27.7755   -9.6935  139.3529 O   0  0  0  0  0  0  0  0  0  0  0  0
  -28.5460   -8.8706  140.1381 C   0  0  0  0  0  0  0  0  0  0  0  0
  -29.1003   -7.7265  139.4144 C   0  0  0  0  0  0  0  0  0  0  0  0
  -30.0348   -7.0238  140.2451 C   0  0  0  0  0  0  0  0  0  0  0  0
  -30.0152   -7.5105  141.6878 C   0  0  0  0  0  0  0  0  0  0  0  0
  -29.4512   -8.5726  142.2169 C   0  0  0  0  0  0  0  0  0  0  0  0
  -28.7016   -9.3069  141.4225 C   0  0  0  0  0  0  0  0  0  0  0  0
  -28.1411  -10.4433  141.9936 C   0  0  0  0  0  0  0  0  0  0  0  0
  1  2  1  0
  2  3  1  0
  2  9  1  0
  2 10  1  0
  5 11  1  0
 11 12  1  0
 12 13  1  0
 13 14  1  0
 14 15  1  0
 15 16  1  0
 16 17  1  0
 17 18  1  0
 18 19  1  0
 19 20  1  0
 15 26  1  0
 25 26  1  0
  3  4  2  0
  4  5  1  0
  5  6  2  0
  6  7  1  0
  7  8  2  0
  8  3  1  0
 20 21  2  0
 21 22  1  0
 22 23  2  0
 23 24  1  0
 24 25  2  0
 25 20  1  0
M  END

$$$$
No_1369-/dssg/home/sw_qyf/PocketFlow/Model-Generation-Results/5HT2A_7WC7_rec_A_10.pdb/2024-01-01-03-54-21/
     RDKit          3D

 35 40  0  0  0  0  0  0  0  0999 V2000
  -24.1553  -17.8465  145.7021 C   0  0  0  0  0  0  0  0  0  0  0  0
  -23.9795  -18.4462  146.7426 C   0  0  0  0  0  0  0  0  0  0  0  0
  -25.1196  -16.8106  145.6409 C   0  0  0  0  0  0  0  0  0  0  0  0
  -25.2440  -15.8776  144.5240 C   0  0  0  0  0  0  0  0  0  0  0  0
  -26.0733  -14.7284  144.7061 C   0  0  0  0  0  0  0  0  0  0  0  0
  -26.0749  -13.6607  143.7626 C   0  0  0  0  0  0  0  0  0  0  0  0
  -23.9559  -17.6833  147.9078 C   0  0  0  0  0  0  0  0  0  0  0  0
  -24.8264  -16.5643  148.1415 C   0  0  0  0  0  0  0  0  0  0  0  0
  -25.0858  -15.8246  146.9166 C   0  0  0  0  0  0  0  0  0  0  0  0
  -26.9920  -12.6417  143.9273 C   0  0  0  0  0  0  0  0  0  0  0  0
  -27.4232  -11.8808  142.8053 C   0  0  0  0  0  0  0  0  0  0  0  0
  -27.4598  -12.4975  141.5536 C   0  0  0  0  0  0  0  0  0  0  0  0
  -28.0450  -11.8897  140.4355 C   0  0  0  0  0  0  0  0  0  0  0  0
  -27.4997  -12.1564  139.1114 C   0  0  0  0  0  0  0  0  0  0  0  0
  -26.2077  -14.8420  146.8829 C   0  0  0  0  0  0  0  0  0  0  0  0
  -26.1161  -13.8122  145.9947 C   0  0  0  0  0  0  0  0  0  0  0  0
  -27.5137  -12.4955  145.2971 C   0  0  0  0  0  0  0  0  0  0  0  0
  -27.3333  -13.2086  146.3733 C   0  0  0  0  0  0  0  0  0  0  0  0
  -28.6570  -11.4009  145.3333 C   0  0  0  0  0  0  0  0  0  0  0  0
  -29.3243  -11.2827  146.4537 O   0  0  0  0  0  0  0  0  0  0  0  0
  -28.8623  -10.5489  144.3943 N   0  0  0  0  0  0  0  0  0  0  0  0
  -29.6968   -9.4780  144.5384 C   0  0  0  0  0  0  0  0  0  0  0  0
  -29.9275   -8.7098  143.3166 C   0  0  0  0  0  0  0  0  0  0  0  0
  -29.3098   -8.8711  142.2841 C   0  0  0  0  0  0  0  0  0  0  0  0
  -29.4867   -8.0700  141.0924 C   0  0  0  0  0  0  0  0  0  0  0  0
  -29.0462   -6.8458  141.1656 C   0  0  0  0  0  0  0  0  0  0  0  0
  -29.4003   -6.1786  142.5378 C   0  0  0  0  0  0  0  0  0  0  0  0
  -29.9114   -6.8379  143.4460 C   0  0  0  0  0  0  0  0  0  0  0  0
  -26.1931  -12.5699  139.2247 F   0  0  0  0  0  0  0  0  0  0  0  0
  -27.9762  -12.1302  138.0316 F   0  0  0  0  0  0  0  0  0  0  0  0
  -28.2569  -10.8063  143.1008 C   0  0  0  0  0  0  0  0  0  0  0  0
  -28.4245   -9.8311  142.1876 C   0  0  0  0  0  0  0  0  0  0  0  0
  -29.2206   -4.8661  142.6300 O   0  0  0  0  0  0  0  0  0  0  0  0
  -28.7444   -4.0585  141.7475 C   0  0  0  0  0  0  0  0  0  0  0  0
  -28.2368   -2.8024  142.3621 C   0  0  0  0  0  0  0  0  0  0  0  0
  3  4  1  0
  4  5  1  0
  5  6  1  0
  6 10  1  0
 11 12  1  0
 12 13  1  0
 13 14  1  0
  9 15  1  0
  5 16  1  0
 15 16  1  0
 10 17  1  0
 16 18  1  0
 17 18  1  0
 17 19  1  0
 19 20  2  0
 19 21  1  0
 21 22  1  0
 22 23  1  0
 14 29  1  0
 14 30  1  0
 11 31  1  0
 21 31  1  0
 24 32  1  0
 31 32  1  0
 27 33  1  0
 33 34  1  0
 34 35  1  0
 10 11  1  0
  1  2  2  0
  2  7  1  0
  7  8  2  0
  8  9  1  0
  9  3  2  0
  3  1  1  0
 23 28  2  0
 28 27  1  0
 27 26  2  0
 26 25  1  0
 25 24  2  0
 24 23  1  0
M  END

$$$$
No_1370-/dssg/home/sw_qyf/PocketFlow/Model-Generation-Results/5HT2A_7WC7_rec_A_10.pdb/2024-01-01-03-54-21/
     RDKit          3D

 31 35  0  0  0  0  0  0  0  0999 V2000
  -23.1746  -16.6014  144.8668 C   0  0  0  0  0  0  0  0  0  0  0  0
  -23.8963  -15.5346  144.7885 C   0  0  0  0  0  0  0  0  0  0  0  0
  -25.0303  -15.2549  144.5358 C   0  0  0  0  0  0  0  0  0  0  0  0
  -26.0353  -15.5987  145.5920 C   0  0  0  0  0  0  0  0  0  0  0  0
  -25.9437  -16.8805  146.1368 C   0  0  0  0  0  0  0  0  0  0  0  0
  -23.5778  -17.6455  145.9662 C   0  0  0  0  0  0  0  0  0  0  0  0
  -24.9635  -17.9078  146.2182 C   0  0  0  0  0  0  0  0  0  0  0  0
  -27.1922  -14.7723  145.8836 C   0  0  0  0  0  0  0  0  0  0  0  0
  -27.2481  -13.4836  145.3716 C   0  0  0  0  0  0  0  0  0  0  0  0
  -28.1523  -12.5294  145.8775 C   0  0  0  0  0  0  0  0  0  0  0  0
  -28.1699  -11.1760  145.4989 C   0  0  0  0  0  0  0  0  0  0  0  0
  -27.2098  -10.6930  144.5491 C   0  0  0  0  0  0  0  0  0  0  0  0
  -26.2256  -11.6242  144.2073 C   0  0  0  0  0  0  0  0  0  0  0  0
  -26.2096  -12.8895  144.5587 C   0  0  0  0  0  0  0  0  0  0  0  0
  -25.2693  -13.7615  144.3294 N   0  0  0  0  0  0  0  0  0  0  0  0
  -29.2768  -12.9289  146.6432 N   0  0  0  0  0  0  0  0  0  0  0  0
  -29.8490  -12.1606  147.6080 C   0  0  0  0  0  0  0  0  0  0  0  0
  -30.7159  -12.8400  148.5635 C   0  0  0  0  0  0  0  0  0  0  0  0
  -31.7893  -12.9436  148.3172 C   0  0  0  0  0  0  0  0  0  0  0  0
  -32.6880  -12.9169  149.5194 C   0  0  0  0  0  0  0  0  0  0  0  0
  -32.4141  -13.4427  150.6790 C   0  0  0  0  0  0  0  0  0  0  0  0
  -31.0697  -13.9907  150.7598 C   0  0  0  0  0  0  0  0  0  0  0  0
  -30.1596  -13.6089  149.7217 C   0  0  0  0  0  0  0  0  0  0  0  0
  -27.1943   -9.4396  144.2019 F   0  0  0  0  0  0  0  0  0  0  0  0
  -27.0145  -17.1867  147.0282 N   0  0  0  0  0  0  0  0  0  0  0  0
  -28.2707  -17.1239  146.7658 C   0  0  0  0  0  0  0  0  0  0  0  0
  -28.4490  -15.5019  146.6183 C   0  0  0  0  0  0  0  0  0  0  0  0
  -22.6212  -18.1777  146.6802 O   0  0  0  0  0  0  0  0  0  0  0  0
  -34.0617  -12.5229  149.2680 O   0  0  0  0  0  0  0  0  0  0  0  0
  -34.1491  -11.2933  148.5841 C   0  0  0  0  0  0  0  0  0  0  0  0
  -23.0506  -14.4745  145.1993 O   0  0  0  0  0  0  0  0  0  0  0  0
  1  2  1  0
  2  3  1  0
  3  4  1  0
  4  5  1  0
  1  6  1  0
  5  7  1  0
  6  7  2  0
  4  8  1  0
  8  9  1  0
  3 15  1  0
 14 15  1  0
 10 16  1  0
 16 17  1  0
 17 18  1  0
 12 24  1  0
  5 25  1  0
 25 26  1  0
  8 27  1  0
 26 27  1  0
  6 28  1  0
 20 29  1  0
 29 30  1  0
  2 31  2  0
 18 19  2  0
 19 20  1  0
 20 21  2  0
 21 22  1  0
 22 23  2  0
 23 18  1  0
  9 10  2  0
 10 11  1  0
 11 12  2  0
 12 13  1  0
 13 14  2  0
 14  9  1  0
M  END

$$$$
No_1371-/dssg/home/sw_qyf/PocketFlow/Model-Generation-Results/5HT2A_7WC7_rec_A_10.pdb/2024-01-01-03-54-21/
     RDKit          3D

 12 12  0  0  0  0  0  0  0  0999 V2000
  -24.1553  -17.8465  145.7021 C   0  0  0  0  0  0  0  0  0  0  0  0
  -24.2855  -16.6364  145.3494 C   0  0  0  0  0  0  0  0  0  0  0  0
  -24.7210  -15.5955  146.2116 C   0  0  0  0  0  0  0  0  0  0  0  0
  -24.8538  -14.2010  145.8739 C   0  0  0  0  0  0  0  0  0  0  0  0
  -25.3911  -13.2248  146.7184 C   0  0  0  0  0  0  0  0  0  0  0  0
  -24.5930  -18.2699  146.9809 C   0  0  0  0  0  0  0  0  0  0  0  0
  -25.1554  -17.3846  147.9077 C   0  0  0  0  0  0  0  0  0  0  0  0
  -25.2071  -15.9636  147.5445 C   0  0  0  0  0  0  0  0  0  0  0  0
  -24.3639  -13.8250  144.5657 C   0  0  0  0  0  0  0  0  0  0  0  0
  -26.0363  -12.1565  146.0836 C   0  0  0  0  0  0  0  0  0  0  0  0
  -25.5908  -11.6234  144.9117 C   0  0  0  0  0  0  0  0  0  0  0  0
  -26.0854  -10.4913  144.4137 O   0  0  0  0  0  0  0  0  0  0  0  0
  3  4  1  0
  4  5  1  0
  4  9  1  0
  5 10  1  0
 10 11  1  0
 11 12  1  0
  1  2  2  0
  2  3  1  0
  3  8  2  0
  8  7  1  0
  7  6  2  0
  6  1  1  0
M  END

$$$$
No_1372-/dssg/home/sw_qyf/PocketFlow/Model-Generation-Results/5HT2A_7WC7_rec_A_10.pdb/2024-01-01-03-54-21/
     RDKit          3D

 21 22  0  0  0  0  0  0  0  0999 V2000
  -23.1746  -16.6014  144.8668 C   0  0  0  0  0  0  0  0  0  0  0  0
  -23.8963  -15.5346  144.7885 C   0  0  0  0  0  0  0  0  0  0  0  0
  -24.5755  -15.0383  145.9043 C   0  0  0  0  0  0  0  0  0  0  0  0
  -24.8345  -15.9108  146.9141 C   0  0  0  0  0  0  0  0  0  0  0  0
  -25.5867  -15.4957  148.0885 C   0  0  0  0  0  0  0  0  0  0  0  0
  -23.3822  -17.5350  145.9037 C   0  0  0  0  0  0  0  0  0  0  0  0
  -24.1560  -17.1034  146.9765 C   0  0  0  0  0  0  0  0  0  0  0  0
  -25.2360  -13.6726  145.8310 C   0  0  0  0  0  0  0  0  0  0  0  0
  -26.5862  -13.3826  145.6601 C   0  0  0  0  0  0  0  0  0  0  0  0
  -27.0324  -12.1007  145.5821 C   0  0  0  0  0  0  0  0  0  0  0  0
  -28.3612  -11.7201  145.3745 C   0  0  0  0  0  0  0  0  0  0  0  0
  -24.3160  -12.5886  146.1538 C   0  0  0  0  0  0  0  0  0  0  0  0
  -28.7398  -10.6420  144.5157 C   0  0  0  0  0  0  0  0  0  0  0  0
  -28.1400  -10.4296  143.5603 C   0  0  0  0  0  0  0  0  0  0  0  0
  -28.5068   -9.3829  142.6232 C   0  0  0  0  0  0  0  0  0  0  0  0
  -29.5154   -8.4761  142.9417 C   0  0  0  0  0  0  0  0  0  0  0  0
  -30.4959   -8.9116  143.9312 C   0  0  0  0  0  0  0  0  0  0  0  0
  -30.0492   -9.9328  144.8443 C   0  0  0  0  0  0  0  0  0  0  0  0
  -29.8419   -7.2886  142.1234 C   0  0  0  0  0  0  0  0  0  0  0  0
  -29.8810   -6.0767  142.5774 C   0  0  0  0  0  0  0  0  0  0  0  0
  -29.8830   -7.4850  140.7397 C   0  0  0  0  0  0  0  0  0  0  0  0
  4  5  1  0
  3  8  1  0
  8  9  1  0
  9 10  2  3
 10 11  1  0
  8 12  1  0
 16 19  1  0
 19 20  2  0
 19 21  1  0
 11 13  1  0
 13 14  2  0
 14 15  1  0
 15 16  2  0
 16 17  1  0
 17 18  2  0
 18 13  1  0
  1  2  2  0
  2  3  1  0
  3  4  2  0
  4  7  1  0
  7  6  2  0
  6  1  1  0
M  END

$$$$
No_1373-/dssg/home/sw_qyf/PocketFlow/Model-Generation-Results/5HT2A_7WC7_rec_A_10.pdb/2024-01-01-03-54-21/
     RDKit          3D

 35 38  0  0  0  0  0  0  0  0999 V2000
  -23.1746  -16.6014  144.8668 C   0  0  0  0  0  0  0  0  0  0  0  0
  -23.8963  -15.5346  144.7885 C   0  0  0  0  0  0  0  0  0  0  0  0
  -23.6398  -14.5115  145.3281 C   0  0  0  0  0  0  0  0  0  0  0  0
  -24.3241  -13.3648  145.1281 C   0  0  0  0  0  0  0  0  0  0  0  0
  -25.5072  -13.2953  144.4354 C   0  0  0  0  0  0  0  0  0  0  0  0
  -25.9151  -14.5889  143.8605 C   0  0  0  0  0  0  0  0  0  0  0  0
  -25.1243  -15.6356  144.0574 C   0  0  0  0  0  0  0  0  0  0  0  0
  -23.0631  -17.2180  146.2156 C   0  0  0  0  0  0  0  0  0  0  0  0
  -24.3045  -17.6717  146.7711 C   0  0  0  0  0  0  0  0  0  0  0  0
  -24.4301  -17.3011  148.1652 C   0  0  0  0  0  0  0  0  0  0  0  0
  -25.7523  -17.0445  148.7529 C   0  0  0  0  0  0  0  0  0  0  0  0
  -26.8065  -16.7784  147.8513 C   0  0  0  0  0  0  0  0  0  0  0  0
  -26.7286  -17.1580  146.5493 C   0  0  0  0  0  0  0  0  0  0  0  0
  -25.0531  -18.8307  146.3881 C   0  0  0  0  0  0  0  0  0  0  0  0
  -26.2331  -18.2972  146.0143 C   0  0  0  0  0  0  0  0  0  0  0  0
  -23.9169  -11.9806  145.7774 C   0  0  0  0  0  0  0  0  0  0  0  0
  -24.4692  -10.9259  145.4808 O   0  0  0  0  0  0  0  0  0  0  0  0
  -23.2906  -17.0443  149.1067 C   0  0  0  0  0  0  0  0  0  0  0  0
  -23.4003  -16.4454  150.2149 O   0  0  0  0  0  0  0  0  0  0  0  0
  -25.7291  -11.1026  144.8203 C   0  0  0  0  0  0  0  0  0  0  0  0
  -26.2009  -12.1913  144.2101 C   0  0  0  0  0  0  0  0  0  0  0  0
  -26.8233  -10.5610  145.8689 C   0  0  0  0  0  0  0  0  0  0  0  0
  -27.1855  -12.0919  143.3874 O   0  0  0  0  0  0  0  0  0  0  0  0
  -27.9216  -11.3683  142.9349 C   0  0  0  0  0  0  0  0  0  0  0  0
  -28.2141  -11.2556  141.5652 C   0  0  0  0  0  0  0  0  0  0  0  0
  -27.8477  -12.1674  140.6140 C   0  0  0  0  0  0  0  0  0  0  0  0
  -27.8444  -11.9313  139.2490 C   0  0  0  0  0  0  0  0  0  0  0  0
  -27.1465  -10.8548  138.9009 C   0  0  0  0  0  0  0  0  0  0  0  0
  -27.6229   -9.5710  139.5948 C   0  0  0  0  0  0  0  0  0  0  0  0
  -27.9091   -9.8133  141.1062 C   0  0  0  0  0  0  0  0  0  0  0  0
  -28.0325   -8.4151  138.9818 C   0  0  0  0  0  0  0  0  0  0  0  0
  -29.2216   -8.6006  138.6170 F   0  0  0  0  0  0  0  0  0  0  0  0
  -27.2587   -8.1749  137.8423 F   0  0  0  0  0  0  0  0  0  0  0  0
  -28.1340   -7.3494  139.8122 F   0  0  0  0  0  0  0  0  0  0  0  0
  -22.3189  -17.8566  148.9393 O   0  0  0  0  0  0  0  0  0  0  0  0
  1  2  1  0
  1  8  1  0
  8  9  1  0
  9 10  1  0
 10 11  2  0
 11 12  1  0
 12 13  2  0
  9 14  1  0
 13 15  1  0
 14 15  1  0
  4 16  1  0
 16 17  1  0
 10 18  1  0
 18 19  1  0
 17 20  1  0
  5 21  1  0
 20 21  2  0
 20 22  1  0
 21 23  1  0
 23 24  1  0
 24 25  1  0
 29 31  1  0
 31 32  1  0
 31 33  1  0
 31 34  1  0
 18 35  2  0
  2  3  2  0
  3  4  1  0
  4  5  2  0
  5  6  1  0
  6  7  2  0
  7  2  1  0
 25 26  2  0
 26 27  1  0
 27 28  2  0
 28 29  1  0
 29 30  2  0
 30 25  1  0
M  END

$$$$
No_1374-/dssg/home/sw_qyf/PocketFlow/Model-Generation-Results/5HT2A_7WC7_rec_A_10.pdb/2024-01-01-03-54-21/
     RDKit          3D

 12 13  0  0  0  0  0  0  0  0999 V2000
  -24.1553  -17.8465  145.7021 C   0  0  0  0  0  0  0  0  0  0  0  0
  -24.2856  -16.6364  145.3494 C   0  0  0  0  0  0  0  0  0  0  0  0
  -24.7211  -15.5955  146.2115 C   0  0  0  0  0  0  0  0  0  0  0  0
  -25.1322  -16.0374  147.5372 C   0  0  0  0  0  0  0  0  0  0  0  0
  -24.5141  -18.2630  147.0046 C   0  0  0  0  0  0  0  0  0  0  0  0
  -24.9573  -17.2963  147.9768 C   0  0  0  0  0  0  0  0  0  0  0  0
  -24.8720  -14.1818  145.7974 C   0  0  0  0  0  0  0  0  0  0  0  0
  -24.1212  -13.7395  144.8114 C   0  0  0  0  0  0  0  0  0  0  0  0
  -24.0857  -12.3079  144.6001 C   0  0  0  0  0  0  0  0  0  0  0  0
  -24.9299  -11.6228  145.4823 C   0  0  0  0  0  0  0  0  0  0  0  0
  -25.4554  -13.0541  146.5392 C   0  0  0  0  0  0  0  0  0  0  0  0
  -23.3472  -14.3851  143.9269 O   0  0  0  0  0  0  0  0  0  0  0  0
  3  7  1  0
  7  8  2  0
  8  9  1  0
  9 10  2  0
  7 11  1  0
 10 11  1  0
  8 12  1  0
  1  2  2  0
  2  3  1  0
  3  4  2  0
  4  6  1  0
  6  5  2  0
  5  1  1  0
M  END

$$$$
No_1375-/dssg/home/sw_qyf/PocketFlow/Model-Generation-Results/5HT2A_7WC7_rec_A_10.pdb/2024-01-01-03-54-21/
     RDKit          3D

 11 11  0  0  0  0  0  0  0  0999 V2000
  -23.1746  -16.6014  144.8668 C   0  0  0  0  0  0  0  0  0  0  0  0
  -23.7011  -17.0158  145.9774 C   0  0  0  0  0  0  0  0  0  0  0  0
  -24.2134  -16.0722  146.8877 C   0  0  0  0  0  0  0  0  0  0  0  0
  -23.3742  -15.2706  144.3922 C   0  0  0  0  0  0  0  0  0  0  0  0
  -24.0445  -14.2973  145.2608 C   0  0  0  0  0  0  0  0  0  0  0  0
  -24.4773  -14.7066  146.5258 C   0  0  0  0  0  0  0  0  0  0  0  0
  -24.1883  -12.8818  144.8809 C   0  0  0  0  0  0  0  0  0  0  0  0
  -25.1791  -12.7618  144.3647 F   0  0  0  0  0  0  0  0  0  0  0  0
  -24.0663  -12.1189  146.0775 F   0  0  0  0  0  0  0  0  0  0  0  0
  -23.5788  -18.3228  146.4388 N   0  0  0  0  0  0  0  0  0  0  0  0
  -22.6112  -18.8271  146.8280 O   0  0  0  0  0  0  0  0  0  0  0  0
  5  7  1  0
  7  8  1  0
  7  9  1  0
  2 10  1  0
 10 11  2  0
  1  2  2  0
  2  3  1  0
  3  6  2  0
  6  5  1  0
  5  4  2  0
  4  1  1  0
M  END

$$$$
No_1376-/dssg/home/sw_qyf/PocketFlow/Model-Generation-Results/5HT2A_7WC7_rec_A_10.pdb/2024-01-01-03-54-21/
     RDKit          3D

 34 36  0  0  0  0  0  0  0  0999 V2000
  -24.1553  -17.8465  145.7021 C   0  0  0  0  0  0  0  0  0  0  0  0
  -24.6364  -17.2931  146.7091 C   0  0  0  0  0  0  0  0  0  0  0  0
  -24.5709  -15.9334  146.8074 C   0  0  0  0  0  0  0  0  0  0  0  0
  -24.2378  -15.1233  145.7159 C   0  0  0  0  0  0  0  0  0  0  0  0
  -23.7252  -15.7878  144.6028 C   0  0  0  0  0  0  0  0  0  0  0  0
  -23.7316  -17.0968  144.6427 N   0  0  0  0  0  0  0  0  0  0  0  0
  -23.9510  -19.1916  145.3975 N   0  0  0  0  0  0  0  0  0  0  0  0
  -24.2742  -13.6075  145.8506 C   0  0  0  0  0  0  0  0  0  0  0  0
  -25.2652  -12.9917  145.1486 C   0  0  0  0  0  0  0  0  0  0  0  0
  -26.0239  -13.4373  144.2415 C   0  0  0  0  0  0  0  0  0  0  0  0
  -27.0025  -12.6667  143.5572 C   0  0  0  0  0  0  0  0  0  0  0  0
  -27.7675  -13.1515  142.4672 C   0  0  0  0  0  0  0  0  0  0  0  0
  -28.0078  -12.1374  141.5116 C   0  0  0  0  0  0  0  0  0  0  0  0
  -28.2545  -10.7897  141.7990 C   0  0  0  0  0  0  0  0  0  0  0  0
  -27.8740  -10.4623  143.1443 C   0  0  0  0  0  0  0  0  0  0  0  0
  -27.1742  -11.3420  144.0085 C   0  0  0  0  0  0  0  0  0  0  0  0
  -25.3562  -11.5051  145.5305 C   0  0  0  0  0  0  0  0  0  0  0  0
  -26.3163  -10.6876  144.9517 C   0  0  0  0  0  0  0  0  0  0  0  0
  -28.9294   -9.9212  140.9660 C   0  0  0  0  0  0  0  0  0  0  0  0
  -28.3779   -8.5688  140.8746 C   0  0  0  0  0  0  0  0  0  0  0  0
  -28.8080   -7.7745  139.7311 C   0  0  0  0  0  0  0  0  0  0  0  0
  -28.1146   -8.0127  138.5618 C   0  0  0  0  0  0  0  0  0  0  0  0
  -28.6306   -9.2168  137.8134 C   0  0  0  0  0  0  0  0  0  0  0  0
  -28.5736   -8.9711  136.6403 C   0  0  0  0  0  0  0  0  0  0  0  0
  -28.3188  -12.6125  140.1487 C   0  0  0  0  0  0  0  0  0  0  0  0
  -29.2637  -10.0430  135.8658 C   0  0  0  0  0  0  0  0  0  0  0  0
  -30.2271   -9.8886  135.1700 O   0  0  0  0  0  0  0  0  0  0  0  0
  -28.6460  -11.2108  135.7883 O   0  0  0  0  0  0  0  0  0  0  0  0
  -29.8026   -6.7527  139.8824 C   0  0  0  0  0  0  0  0  0  0  0  0
  -27.4187  -12.4528  139.2463 O   0  0  0  0  0  0  0  0  0  0  0  0
  -26.0712  -12.3634  139.6720 C   0  0  0  0  0  0  0  0  0  0  0  0
  -25.1733  -12.6271  138.4448 C   0  0  0  0  0  0  0  0  0  0  0  0
  -24.9468  -18.0497  147.7927 F   0  0  0  0  0  0  0  0  0  0  0  0
  -23.3945  -13.0905  146.5537 O   0  0  0  0  0  0  0  0  0  0  0  0
  1  7  1  0
  4  8  1  0
  8  9  1  0
 14 19  1  0
 19 20  1  0
 20 21  1  0
 21 22  1  0
 22 23  1  0
 23 24  2  3
 13 25  1  0
 24 26  1  0
 26 27  2  0
 26 28  1  0
 21 29  1  0
 25 30  1  0
 30 31  1  0
 31 32  1  0
  2 33  1  0
  8 34  2  0
 11 12  2  0
 12 13  1  0
 13 14  2  0
 14 15  1  0
 15 16  2  0
  9 10  2  0
 10 11  1  0
 11 16  1  0
 16 18  1  0
 18 17  2  0
 17  9  1  0
  1  2  2  0
  2  3  1  0
  3  4  2  0
  4  5  1  0
  5  6  2  0
  6  1  1  0
M  END

$$$$
No_1377-/dssg/home/sw_qyf/PocketFlow/Model-Generation-Results/5HT2A_7WC7_rec_A_10.pdb/2024-01-01-03-54-21/
     RDKit          3D

 14 15  0  0  0  0  0  0  0  0999 V2000
  -23.1746  -16.6014  144.8668 C   0  0  0  0  0  0  0  0  0  0  0  0
  -23.7011  -17.0158  145.9774 C   0  0  0  0  0  0  0  0  0  0  0  0
  -23.7336  -18.2775  146.3737 C   0  0  0  0  0  0  0  0  0  0  0  0
  -24.1960  -18.6445  147.6858 C   0  0  0  0  0  0  0  0  0  0  0  0
  -24.7100  -17.6145  148.5486 C   0  0  0  0  0  0  0  0  0  0  0  0
  -24.7929  -16.2635  148.0870 C   0  0  0  0  0  0  0  0  0  0  0  0
  -24.2508  -15.9434  146.8891 C   0  0  0  0  0  0  0  0  0  0  0  0
  -23.2387  -15.3708  144.4144 O   0  0  0  0  0  0  0  0  0  0  0  0
  -24.1583  -14.6263  145.0214 C   0  0  0  0  0  0  0  0  0  0  0  0
  -24.4075  -14.6351  146.4295 C   0  0  0  0  0  0  0  0  0  0  0  0
  -23.7336  -13.0555  144.6416 C   0  0  0  0  0  0  0  0  0  0  0  0
  -22.4846  -13.0676  144.5096 O   0  0  0  0  0  0  0  0  0  0  0  0
  -23.2720  -19.2646  145.6882 O   0  0  0  0  0  0  0  0  0  0  0  0
  -24.5019  -12.1413  144.7247 O   0  0  0  0  0  0  0  0  0  0  0  0
  1  2  1  0
  1  8  1  0
  8  9  1  0
  7 10  1  0
  9 10  2  0
  9 11  1  0
 11 12  1  0
  3 13  1  0
 11 14  2  0
  2  3  2  0
  3  4  1  0
  4  5  2  0
  5  6  1  0
  6  7  2  0
  7  2  1  0
M  END

$$$$
No_1378-/dssg/home/sw_qyf/PocketFlow/Model-Generation-Results/5HT2A_7WC7_rec_A_10.pdb/2024-01-01-03-54-21/
     RDKit          3D

 35 36  0  0  0  0  0  0  0  0999 V2000
  -24.1553  -17.8465  145.7021 C   0  0  0  0  0  0  0  0  0  0  0  0
  -24.6364  -17.2931  146.7091 C   0  0  0  0  0  0  0  0  0  0  0  0
  -24.0780  -17.2921  147.9389 C   0  0  0  0  0  0  0  0  0  0  0  0
  -24.6761  -16.7363  149.1478 C   0  0  0  0  0  0  0  0  0  0  0  0
  -25.9985  -16.2638  148.9932 C   0  0  0  0  0  0  0  0  0  0  0  0
  -26.6270  -16.3412  147.7728 C   0  0  0  0  0  0  0  0  0  0  0  0
  -25.9734  -16.9166  146.6819 C   0  0  0  0  0  0  0  0  0  0  0  0
  -23.9215  -19.0867  145.6257 F   0  0  0  0  0  0  0  0  0  0  0  0
  -24.8994  -17.4479  144.5513 F   0  0  0  0  0  0  0  0  0  0  0  0
  -22.8782  -17.2183  145.3536 F   0  0  0  0  0  0  0  0  0  0  0  0
  -28.0117  -15.8356  147.5704 C   0  0  0  0  0  0  0  0  0  0  0  0
  -28.3443  -15.0882  146.5017 C   0  0  0  0  0  0  0  0  0  0  0  0
  -27.4016  -14.4347  145.6900 C   0  0  0  0  0  0  0  0  0  0  0  0
  -26.7681  -14.5533  144.9147 C   0  0  0  0  0  0  0  0  0  0  0  0
  -25.9084  -13.5766  144.1366 C   0  0  0  0  0  0  0  0  0  0  0  0
  -24.8610  -13.9895  143.2852 C   0  0  0  0  0  0  0  0  0  0  0  0
  -26.9108  -12.6034  143.4935 C   0  0  0  0  0  0  0  0  0  0  0  0
  -27.3203  -11.4797  144.1539 C   0  0  0  0  0  0  0  0  0  0  0  0
  -27.0962  -11.1294  145.5087 C   0  0  0  0  0  0  0  0  0  0  0  0
  -28.2608  -10.5773  143.4387 C   0  0  0  0  0  0  0  0  0  0  0  0
  -29.5524  -10.4274  143.8532 C   0  0  0  0  0  0  0  0  0  0  0  0
  -30.3096   -9.3725  143.3851 C   0  0  0  0  0  0  0  0  0  0  0  0
  -29.8626   -8.5593  142.6632 C   0  0  0  0  0  0  0  0  0  0  0  0
  -30.6809   -7.4155  142.1241 C   0  0  0  0  0  0  0  0  0  0  0  0
  -27.8765   -9.8679  142.3403 C   0  0  0  0  0  0  0  0  0  0  0  0
  -28.6720   -8.7956  141.9174 C   0  0  0  0  0  0  0  0  0  0  0  0
  -31.1624   -7.4299  141.0509 N   0  0  0  0  0  0  0  0  0  0  0  0
  -26.1810  -10.7186  145.7823 O   0  0  0  0  0  0  0  0  0  0  0  0
  -27.9181  -11.7037  146.4133 O   0  0  0  0  0  0  0  0  0  0  0  0
  -30.9327   -6.4197  143.0313 O   0  0  0  0  0  0  0  0  0  0  0  0
  -23.9268  -16.8203  150.4393 C   0  0  0  0  0  0  0  0  0  0  0  0
  -22.7256  -17.1530  150.5018 O   0  0  0  0  0  0  0  0  0  0  0  0
  -24.7369  -17.0759  151.5641 O   0  0  0  0  0  0  0  0  0  0  0  0
  -23.9957  -14.7655  143.9822 O   0  0  0  0  0  0  0  0  0  0  0  0
  -29.6589  -14.7295  146.5172 O   0  0  0  0  0  0  0  0  0  0  0  0
  1  2  1  0
  1  8  1  0
  1  9  1  0
  1 10  1  0
  6 11  1  0
 11 12  2  3
 12 13  1  0
 13 14  2  3
 14 15  1  0
 15 16  1  0
 15 17  1  0
 17 18  2  3
 18 19  1  0
 18 20  1  0
 23 24  1  0
 24 27  1  0
 19 28  2  0
 19 29  1  0
 24 30  2  0
  4 31  1  0
 31 32  2  0
 31 33  1  0
 16 34  1  0
 12 35  1  0
  2  3  2  0
  3  4  1  0
  4  5  2  0
  5  6  1  0
  6  7  2  0
  7  2  1  0
 20 21  2  0
 21 22  1  0
 22 23  2  0
 23 26  1  0
 26 25  2  0
 25 20  1  0
M  END

$$$$
No_1379-/dssg/home/sw_qyf/PocketFlow/Model-Generation-Results/5HT2A_7WC7_rec_A_10.pdb/2024-01-01-03-54-21/
     RDKit          3D

 15 15  0  0  0  0  0  0  0  0999 V2000
  -23.1746  -16.6014  144.8668 C   0  0  0  0  0  0  0  0  0  0  0  0
  -23.8963  -15.5346  144.7885 C   0  0  0  0  0  0  0  0  0  0  0  0
  -25.3063  -15.4625  144.8521 C   0  0  0  0  0  0  0  0  0  0  0  0
  -26.0192  -14.2249  144.6050 C   0  0  0  0  0  0  0  0  0  0  0  0
  -27.2099  -14.1489  144.1375 C   0  0  0  0  0  0  0  0  0  0  0  0
  -23.2830  -14.2080  144.3990 C   0  0  0  0  0  0  0  0  0  0  0  0
  -27.7279  -12.8838  143.7814 C   0  0  0  0  0  0  0  0  0  0  0  0
  -23.5686  -13.2477  144.9290 N   0  0  0  0  0  0  0  0  0  0  0  0
  -25.1267  -13.0481  144.9310 C   0  0  0  0  0  0  0  0  0  0  0  0
  -28.2094  -12.0417  144.8767 C   0  0  0  0  0  0  0  0  0  0  0  0
  -28.8071  -10.7461  144.5821 C   0  0  0  0  0  0  0  0  0  0  0  0
  -28.8375  -10.2064  143.3689 C   0  0  0  0  0  0  0  0  0  0  0  0
  -29.4328   -8.9902  143.0983 C   0  0  0  0  0  0  0  0  0  0  0  0
  -30.8283   -8.7287  143.3536 C   0  0  0  0  0  0  0  0  0  0  0  0
  -31.4759   -7.7605  142.5514 C   0  0  0  0  0  0  0  0  0  0  0  0
  1  2  2  0
  2  3  1  0
  3  4  1  0
  4  5  1  0
  2  6  1  0
  5  7  2  3
  6  8  1  0
  4  9  1  0
  8  9  1  0
  7 10  1  0
 10 11  1  0
 11 12  2  3
 12 13  1  0
 13 14  1  0
 14 15  1  0
M  END

$$$$
No_1380-/dssg/home/sw_qyf/PocketFlow/Model-Generation-Results/5HT2A_7WC7_rec_A_10.pdb/2024-01-01-03-54-21/
     RDKit          3D

 15 15  0  0  0  0  0  0  0  0999 V2000
  -24.1553  -17.8465  145.7021 C   0  0  0  0  0  0  0  0  0  0  0  0
  -23.9795  -18.4462  146.7426 C   0  0  0  0  0  0  0  0  0  0  0  0
  -25.1593  -16.8262  145.6925 C   0  0  0  0  0  0  0  0  0  0  0  0
  -24.9465  -15.5961  144.9952 C   0  0  0  0  0  0  0  0  0  0  0  0
  -25.8223  -14.4752  145.0170 C   0  0  0  0  0  0  0  0  0  0  0  0
  -27.0184  -14.6633  145.8014 C   0  0  0  0  0  0  0  0  0  0  0  0
  -27.9921  -13.6090  145.8135 C   0  0  0  0  0  0  0  0  0  0  0  0
  -27.7370  -12.4391  145.0609 C   0  0  0  0  0  0  0  0  0  0  0  0
  -26.5454  -12.3265  144.3272 C   0  0  0  0  0  0  0  0  0  0  0  0
  -25.6309  -13.3511  144.2802 C   0  0  0  0  0  0  0  0  0  0  0  0
  -23.4377  -17.6614  147.8798 C   0  0  0  0  0  0  0  0  0  0  0  0
  -23.5256  -16.3001  147.8264 C   0  0  0  0  0  0  0  0  0  0  0  0
  -28.7290  -11.3121  145.1318 C   0  0  0  0  0  0  0  0  0  0  0  0
  -30.0865  -11.5096  144.9024 C   0  0  0  0  0  0  0  0  0  0  0  0
  -30.5666  -10.6738  144.2373 O   0  0  0  0  0  0  0  0  0  0  0  0
  1  2  1  0
  1  3  1  0
  3  4  1  0
  2 11  1  0
 11 12  1  0
  8 13  1  0
 13 14  1  0
 14 15  1  0
  4  5  1  0
  5  6  2  0
  6  7  1  0
  7  8  2  0
  8  9  1  0
  9 10  2  0
 10  5  1  0
M  END

$$$$
No_1381-/dssg/home/sw_qyf/PocketFlow/Model-Generation-Results/5HT2A_7WC7_rec_A_10.pdb/2024-01-01-03-54-21/
     RDKit          3D

 22 25  0  0  0  0  0  0  0  0999 V2000
  -24.1553  -17.8465  145.7021 C   0  0  0  0  0  0  0  0  0  0  0  0
  -23.9795  -18.4462  146.7426 C   0  0  0  0  0  0  0  0  0  0  0  0
  -25.1593  -16.8262  145.6925 C   0  0  0  0  0  0  0  0  0  0  0  0
  -24.9465  -15.5961  144.9952 C   0  0  0  0  0  0  0  0  0  0  0  0
  -25.8339  -14.4742  145.0599 C   0  0  0  0  0  0  0  0  0  0  0  0
  -25.6289  -13.3152  144.3271 C   0  0  0  0  0  0  0  0  0  0  0  0
  -26.8608  -12.6144  144.2262 C   0  0  0  0  0  0  0  0  0  0  0  0
  -27.5431  -12.2996  145.4552 C   0  0  0  0  0  0  0  0  0  0  0  0
  -28.5128  -11.2628  145.5802 C   0  0  0  0  0  0  0  0  0  0  0  0
  -29.6403  -11.4044  146.4634 C   0  0  0  0  0  0  0  0  0  0  0  0
  -29.4462  -12.2672  147.5781 C   0  0  0  0  0  0  0  0  0  0  0  0
  -28.5440  -13.3554  147.4395 C   0  0  0  0  0  0  0  0  0  0  0  0
  -27.6405  -13.4565  146.4174 C   0  0  0  0  0  0  0  0  0  0  0  0
  -26.6925  -14.4980  146.2976 C   0  0  0  0  0  0  0  0  0  0  0  0
  -24.5889  -18.0059  148.0040 C   0  0  0  0  0  0  0  0  0  0  0  0
  -24.7612  -16.9071  148.1792 C   0  0  0  0  0  0  0  0  0  0  0  0
  -25.3207  -16.0171  146.9953 C   0  0  0  0  0  0  0  0  0  0  0  0
  -26.3460  -15.0561  147.2901 C   0  0  0  0  0  0  0  0  0  0  0  0
  -28.5735  -10.1886  144.6055 C   0  0  0  0  0  0  0  0  0  0  0  0
  -29.1272  -10.0698  143.5471 C   0  0  0  0  0  0  0  0  0  0  0  0
  -29.3374  -10.8889  142.7250 C   0  0  0  0  0  0  0  0  0  0  0  0
  -29.9167  -10.6531  141.3663 C   0  0  0  0  0  0  0  0  0  0  0  0
  5  6  1  0
  6  7  1  0
  7  8  1  0
 13 14  1  0
  9 19  1  0
 19 20  1  0
 20 21  2  3
 21 22  1  0
  1  2  2  0
  2 15  1  0
 15 16  2  0
 16 17  1  0
  3  1  1  0
  8  9  2  0
  9 10  1  0
 10 11  2  0
 11 12  1  0
 12 13  2  0
 13  8  1  0
  3  4  2  0
  4  5  1  0
  5 14  2  0
 14 18  1  0
 18 17  2  0
 17  3  1  0
M  END

$$$$
No_1382-/dssg/home/sw_qyf/PocketFlow/Model-Generation-Results/5HT2A_7WC7_rec_A_10.pdb/2024-01-01-03-54-21/
     RDKit          3D

 12 12  0  0  0  0  0  0  0  0999 V2000
  -23.1746  -16.6014  144.8668 C   0  0  0  0  0  0  0  0  0  0  0  0
  -23.8963  -15.5346  144.7885 C   0  0  0  0  0  0  0  0  0  0  0  0
  -23.6398  -14.5115  145.3281 C   0  0  0  0  0  0  0  0  0  0  0  0
  -24.3866  -13.2477  145.3906 C   0  0  0  0  0  0  0  0  0  0  0  0
  -23.7391  -12.0982  145.9891 C   0  0  0  0  0  0  0  0  0  0  0  0
  -23.1316  -17.4762  145.8522 C   0  0  0  0  0  0  0  0  0  0  0  0
  -23.8196  -17.1538  147.0516 C   0  0  0  0  0  0  0  0  0  0  0  0
  -23.2697  -17.2426  148.3432 C   0  0  0  0  0  0  0  0  0  0  0  0
  -24.1036  -17.1549  149.5685 C   0  0  0  0  0  0  0  0  0  0  0  0
  -25.5009  -16.9251  149.3617 C   0  0  0  0  0  0  0  0  0  0  0  0
  -26.0144  -16.6605  148.0780 C   0  0  0  0  0  0  0  0  0  0  0  0
  -25.2367  -16.8103  146.9591 C   0  0  0  0  0  0  0  0  0  0  0  0
  1  2  1  0
  2  3  2  3
  3  4  1  0
  4  5  2  0
  1  6  2  3
  6  7  1  0
  7  8  2  0
  8  9  1  0
  9 10  2  0
 10 11  1  0
 11 12  2  0
 12  7  1  0
M  END

$$$$
No_1383-/dssg/home/sw_qyf/PocketFlow/Model-Generation-Results/5HT2A_7WC7_rec_A_10.pdb/2024-01-01-03-54-21/
     RDKit          3D

 18 18  0  0  0  0  0  0  0  0999 V2000
  -23.8042  -18.1535  145.4053 O   0  0  0  0  0  0  0  0  0  0  0  0
  -24.1154  -17.4458  146.3749 C   0  0  0  0  0  0  0  0  0  0  0  0
  -25.2931  -16.8177  146.3718 C   0  0  0  0  0  0  0  0  0  0  0  0
  -25.4122  -15.6940  145.5587 C   0  0  0  0  0  0  0  0  0  0  0  0
  -26.5424  -14.8790  145.3964 C   0  0  0  0  0  0  0  0  0  0  0  0
  -27.7174  -15.3110  146.1085 C   0  0  0  0  0  0  0  0  0  0  0  0
  -27.6854  -16.4279  146.9448 C   0  0  0  0  0  0  0  0  0  0  0  0
  -26.4869  -17.1749  147.0649 C   0  0  0  0  0  0  0  0  0  0  0  0
  -26.5544  -13.7019  144.5716 C   0  0  0  0  0  0  0  0  0  0  0  0
  -26.3104  -13.9448  143.3117 O   0  0  0  0  0  0  0  0  0  0  0  0
  -26.9855  -12.4279  144.9989 C   0  0  0  0  0  0  0  0  0  0  0  0
  -27.5493  -11.5302  144.2421 C   0  0  0  0  0  0  0  0  0  0  0  0
  -28.8709  -11.0589  144.5087 C   0  0  0  0  0  0  0  0  0  0  0  0
  -29.5173   -9.9696  143.8466 C   0  0  0  0  0  0  0  0  0  0  0  0
  -30.0357  -10.0279  142.7754 C   0  0  0  0  0  0  0  0  0  0  0  0
  -30.7733   -8.8608  142.1975 C   0  0  0  0  0  0  0  0  0  0  0  0
  -30.5504   -7.6564  142.7739 C   0  0  0  0  0  0  0  0  0  0  0  0
  -29.8368   -6.9498  142.6136 C   0  0  0  0  0  0  0  0  0  0  0  0
  1  2  1  0
  2  3  1  0
  5  9  1  0
  9 10  1  0
  9 11  1  0
 11 12  1  0
 12 13  2  3
 13 14  1  0
 14 15  2  3
 15 16  1  0
 16 17  2  3
 17 18  1  0
  3  4  2  0
  4  5  1  0
  5  6  2  0
  6  7  1  0
  7  8  2  0
  8  3  1  0
M  END

$$$$
No_1384-/dssg/home/sw_qyf/PocketFlow/Model-Generation-Results/5HT2A_7WC7_rec_A_10.pdb/2024-01-01-03-54-21/
     RDKit          3D

 30 32  0  0  0  0  0  0  0  0999 V2000
  -23.1746  -16.6014  144.8668 C   0  0  0  0  0  0  0  0  0  0  0  0
  -23.8963  -15.5346  144.7885 C   0  0  0  0  0  0  0  0  0  0  0  0
  -23.6398  -14.5115  145.3281 C   0  0  0  0  0  0  0  0  0  0  0  0
  -24.3866  -13.2477  145.3906 C   0  0  0  0  0  0  0  0  0  0  0  0
  -23.7391  -12.0982  145.9891 C   0  0  0  0  0  0  0  0  0  0  0  0
  -25.7153  -13.1102  144.9365 C   0  0  0  0  0  0  0  0  0  0  0  0
  -26.3103  -13.6742  144.1428 C   0  0  0  0  0  0  0  0  0  0  0  0
  -26.1473  -15.1349  143.6944 C   0  0  0  0  0  0  0  0  0  0  0  0
  -24.9522  -15.6974  143.9931 C   0  0  0  0  0  0  0  0  0  0  0  0
  -23.6805  -17.6942  145.8409 C   0  0  0  0  0  0  0  0  0  0  0  0
  -23.4862  -17.3705  147.1372 C   0  0  0  0  0  0  0  0  0  0  0  0
  -24.6544  -17.4528  148.0567 C   0  0  0  0  0  0  0  0  0  0  0  0
  -25.8003  -16.7326  147.6573 C   0  0  0  0  0  0  0  0  0  0  0  0
  -26.9725  -17.3421  147.2973 C   0  0  0  0  0  0  0  0  0  0  0  0
  -28.1899  -16.4178  147.2913 C   0  0  0  0  0  0  0  0  0  0  0  0
  -28.8836  -15.9998  148.1930 C   0  0  0  0  0  0  0  0  0  0  0  0
  -29.9203  -14.9930  148.1163 C   0  0  0  0  0  0  0  0  0  0  0  0
  -29.9154  -14.2042  146.9015 C   0  0  0  0  0  0  0  0  0  0  0  0
  -28.8613  -14.4273  146.0175 C   0  0  0  0  0  0  0  0  0  0  0  0
  -27.9668  -15.4806  146.1673 C   0  0  0  0  0  0  0  0  0  0  0  0
  -27.1101  -12.9851  143.0727 C   0  0  0  0  0  0  0  0  0  0  0  0
  -26.6804  -11.8183  142.4973 C   0  0  0  0  0  0  0  0  0  0  0  0
  -27.4624  -10.7540  143.2666 C   0  0  0  0  0  0  0  0  0  0  0  0
  -28.4963   -9.9288  142.6268 C   0  0  0  0  0  0  0  0  0  0  0  0
  -29.6657  -10.2262  142.8752 C   0  0  0  0  0  0  0  0  0  0  0  0
  -30.7679   -9.2553  142.4599 C   0  0  0  0  0  0  0  0  0  0  0  0
  -30.4089   -8.1991  141.6439 C   0  0  0  0  0  0  0  0  0  0  0  0
  -29.5733   -8.1348  141.0523 C   0  0  0  0  0  0  0  0  0  0  0  0
  -28.3217   -9.0747  141.5304 C   0  0  0  0  0  0  0  0  0  0  0  0
  -29.1070   -7.1846  140.0090 C   0  0  0  0  0  0  0  0  0  0  0  0
  1  2  1  0
  2  3  2  0
  3  4  1  0
  4  5  1  0
  4  6  1  0
  6  7  2  0
  7  8  1  0
  2  9  1  0
  8  9  1  0
  1 10  1  0
 10 11  1  0
 11 12  1  0
 12 13  1  0
 13 14  2  3
 14 15  1  0
  7 21  1  0
 21 22  1  0
 22 23  1  0
 23 24  1  0
 28 30  1  0
 15 16  2  0
 16 17  1  0
 17 18  2  0
 18 19  1  0
 19 20  2  0
 20 15  1  0
 24 25  2  0
 25 26  1  0
 26 27  2  0
 27 28  1  0
 28 29  2  0
 29 24  1  0
M  END

$$$$
No_1385-/dssg/home/sw_qyf/PocketFlow/Model-Generation-Results/5HT2A_7WC7_rec_A_10.pdb/2024-01-01-03-54-21/
     RDKit          3D

 23 24  0  0  0  0  0  0  0  0999 V2000
  -23.1746  -16.6014  144.8668 C   0  0  0  0  0  0  0  0  0  0  0  0
  -24.0189  -16.0564  145.8445 C   0  0  0  0  0  0  0  0  0  0  0  0
  -24.4850  -14.7380  145.6359 C   0  0  0  0  0  0  0  0  0  0  0  0
  -25.3334  -14.0797  146.6105 C   0  0  0  0  0  0  0  0  0  0  0  0
  -25.7120  -12.7595  146.4431 C   0  0  0  0  0  0  0  0  0  0  0  0
  -25.3190  -11.9841  145.3047 C   0  0  0  0  0  0  0  0  0  0  0  0
  -24.3451  -12.6067  144.4930 C   0  0  0  0  0  0  0  0  0  0  0  0
  -23.9468  -13.9401  144.7201 C   0  0  0  0  0  0  0  0  0  0  0  0
  -24.4836  -16.8193  146.9469 C   0  0  0  0  0  0  0  0  0  0  0  0
  -24.0177  -18.0902  147.1454 C   0  0  0  0  0  0  0  0  0  0  0  0
  -23.2652  -18.6715  146.1643 C   0  0  0  0  0  0  0  0  0  0  0  0
  -22.8951  -17.9712  145.0854 N   0  0  0  0  0  0  0  0  0  0  0  0
  -25.7328  -10.6277  145.1289 C   0  0  0  0  0  0  0  0  0  0  0  0
  -26.9424  -10.4581  144.5285 N   0  0  0  0  0  0  0  0  0  0  0  0
  -27.5897  -10.8509  143.8085 C   0  0  0  0  0  0  0  0  0  0  0  0
  -28.8437  -10.2049  143.3217 C   0  0  0  0  0  0  0  0  0  0  0  0
  -28.7564   -9.0491  142.8985 C   0  0  0  0  0  0  0  0  0  0  0  0
  -29.9394   -8.3277  142.4795 C   0  0  0  0  0  0  0  0  0  0  0  0
  -29.9505   -7.2316  141.6128 C   0  0  0  0  0  0  0  0  0  0  0  0
  -31.2827   -8.7891  142.8537 C   0  0  0  0  0  0  0  0  0  0  0  0
  -29.4390   -5.9472  142.0957 C   0  0  0  0  0  0  0  0  0  0  0  0
  -29.2463   -5.0121  141.1500 N   0  0  0  0  0  0  0  0  0  0  0  0
  -31.4927   -9.8885  143.3161 O   0  0  0  0  0  0  0  0  0  0  0  0
  6 13  1  0
 13 14  1  0
 14 15  1  0
 15 16  2  3
 16 17  1  0
 17 18  1  0
 18 19  1  0
 18 20  1  0
 19 21  2  3
 21 22  1  0
 20 23  1  0
  2  3  1  0
  1  2  2  0
  2  9  1  0
  9 10  2  0
 10 11  1  0
 11 12  2  0
 12  1  1  0
  3  4  2  0
  4  5  1  0
  5  6  2  0
  6  7  1  0
  7  8  2  0
  8  3  1  0
M  END

$$$$
No_1386-/dssg/home/sw_qyf/PocketFlow/Model-Generation-Results/5HT2A_7WC7_rec_A_10.pdb/2024-01-01-03-54-21/
     RDKit          3D

 35 37  0  0  0  0  0  0  0  0999 V2000
  -24.1553  -17.8465  145.7021 C   0  0  0  0  0  0  0  0  0  0  0  0
  -23.9795  -18.4462  146.7426 C   0  0  0  0  0  0  0  0  0  0  0  0
  -24.2723  -16.4220  145.8037 C   0  0  0  0  0  0  0  0  0  0  0  0
  -24.0151  -15.5895  144.6874 C   0  0  0  0  0  0  0  0  0  0  0  0
  -24.0834  -17.9646  148.0883 C   0  0  0  0  0  0  0  0  0  0  0  0
  -24.2949  -16.5690  148.2409 C   0  0  0  0  0  0  0  0  0  0  0  0
  -24.3289  -15.7594  147.1024 C   0  0  0  0  0  0  0  0  0  0  0  0
  -23.2822  -14.3816  144.8547 C   0  0  0  0  0  0  0  0  0  0  0  0
  -22.8491  -13.6467  143.7200 C   0  0  0  0  0  0  0  0  0  0  0  0
  -22.0996  -14.1240  143.1538 O   0  0  0  0  0  0  0  0  0  0  0  0
  -22.6803  -12.3234  144.0732 O   0  0  0  0  0  0  0  0  0  0  0  0
  -22.4612  -12.0859  145.5826 C   0  0  0  0  0  0  0  0  0  0  0  0
  -23.5600  -13.1505  146.0184 C   0  0  0  0  0  0  0  0  0  0  0  0
  -23.8159  -19.8112  146.6591 O   0  0  0  0  0  0  0  0  0  0  0  0
  -24.1401  -20.3506  145.4803 C   0  0  0  0  0  0  0  0  0  0  0  0
  -24.8763  -12.9869  146.2801 C   0  0  0  0  0  0  0  0  0  0  0  0
  -25.7417  -12.2955  145.5609 C   0  0  0  0  0  0  0  0  0  0  0  0
  -26.7430  -12.1230  145.3027 C   0  0  0  0  0  0  0  0  0  0  0  0
  -27.5038  -11.0763  144.5836 C   0  0  0  0  0  0  0  0  0  0  0  0
  -28.8491  -10.9519  144.2090 C   0  0  0  0  0  0  0  0  0  0  0  0
  -29.3870   -9.9882  143.4155 C   0  0  0  0  0  0  0  0  0  0  0  0
  -30.4783   -9.6728  143.0678 C   0  0  0  0  0  0  0  0  0  0  0  0
  -30.8579   -8.6287  142.1332 C   0  0  0  0  0  0  0  0  0  0  0  0
  -29.7630   -7.9225  141.5539 C   0  0  0  0  0  0  0  0  0  0  0  0
  -28.4273   -8.3458  141.9075 C   0  0  0  0  0  0  0  0  0  0  0  0
  -28.1960   -9.3751  142.7952 C   0  0  0  0  0  0  0  0  0  0  0  0
  -29.8731   -6.8820  140.5511 C   0  0  0  0  0  0  0  0  0  0  0  0
  -27.7252  -13.2950  145.4270 C   0  0  0  0  0  0  0  0  0  0  0  0
  -27.6837  -13.9217  146.7348 C   0  0  0  0  0  0  0  0  0  0  0  0
  -28.8290  -14.5777  147.1714 C   0  0  0  0  0  0  0  0  0  0  0  0
  -30.0735  -13.9905  147.0743 C   0  0  0  0  0  0  0  0  0  0  0  0
  -28.7259  -15.9255  147.7493 C   0  0  0  0  0  0  0  0  0  0  0  0
  -29.2345  -16.1543  149.0453 C   0  0  0  0  0  0  0  0  0  0  0  0
  -30.4080  -12.7101  147.0827 C   0  0  0  0  0  0  0  0  0  0  0  0
  -29.0670  -17.3962  149.5950 C   0  0  0  0  0  0  0  0  0  0  0  0
  1  2  1  0
  1  3  1  0
  3  4  2  3
  2  5  1  0
  5  6  1  0
  3  7  1  0
  6  7  1  0
  4  8  1  0
  8  9  1  0
  9 10  2  0
  9 11  1  0
 11 12  1  0
  8 13  1  0
 12 13  1  0
  2 14  1  0
 14 15  1  0
 13 16  1  0
 16 17  1  0
 17 18  2  3
 18 19  1  0
 19 20  2  3
 20 21  1  0
 24 27  1  0
 18 28  1  0
 28 29  1  0
 29 30  1  0
 30 31  2  3
 30 32  1  0
 32 33  1  0
 31 34  1  0
 33 35  2  0
 21 22  2  0
 22 23  1  0
 23 24  2  0
 24 25  1  0
 25 26  2  0
 26 21  1  0
M  END

$$$$
No_1387-/dssg/home/sw_qyf/PocketFlow/Model-Generation-Results/5HT2A_7WC7_rec_A_10.pdb/2024-01-01-03-54-21/
     RDKit          3D

 35 39  0  0  0  0  0  0  0  0999 V2000
  -23.1746  -16.6014  144.8668 C   0  0  0  0  0  0  0  0  0  0  0  0
  -23.8963  -15.5346  144.7885 C   0  0  0  0  0  0  0  0  0  0  0  0
  -24.5755  -15.0383  145.9043 C   0  0  0  0  0  0  0  0  0  0  0  0
  -24.8345  -15.9108  146.9141 C   0  0  0  0  0  0  0  0  0  0  0  0
  -24.2398  -17.1433  146.9649 C   0  0  0  0  0  0  0  0  0  0  0  0
  -23.4221  -17.5266  145.9093 C   0  0  0  0  0  0  0  0  0  0  0  0
  -25.2512  -13.6667  145.8878 C   0  0  0  0  0  0  0  0  0  0  0  0
  -24.5224  -12.6898  145.5986 C   0  0  0  0  0  0  0  0  0  0  0  0
  -25.0626  -11.3470  145.4897 C   0  0  0  0  0  0  0  0  0  0  0  0
  -26.4928  -11.2294  145.6126 C   0  0  0  0  0  0  0  0  0  0  0  0
  -27.2395  -12.3281  146.0669 C   0  0  0  0  0  0  0  0  0  0  0  0
  -26.6268  -13.6387  146.1134 C   0  0  0  0  0  0  0  0  0  0  0  0
  -28.5978  -12.1634  146.2514 N   0  0  0  0  0  0  0  0  0  0  0  0
  -29.3113  -11.0727  145.9424 C   0  0  0  0  0  0  0  0  0  0  0  0
  -29.3514  -13.1176  147.0433 C   0  0  0  0  0  0  0  0  0  0  0  0
  -29.5634  -14.3874  146.6467 C   0  0  0  0  0  0  0  0  0  0  0  0
  -30.2540  -10.5646  146.6897 O   0  0  0  0  0  0  0  0  0  0  0  0
  -29.1051  -10.5071  144.5808 C   0  0  0  0  0  0  0  0  0  0  0  0
  -28.1650  -10.6645  143.7108 C   0  0  0  0  0  0  0  0  0  0  0  0
  -26.8139  -10.8303  144.3120 C   0  0  0  0  0  0  0  0  0  0  0  0
  -30.3731   -9.8354  144.0500 C   0  0  0  0  0  0  0  0  0  0  0  0
  -30.4825   -8.4361  144.2048 C   0  0  0  0  0  0  0  0  0  0  0  0
  -30.3650  -10.1315  142.5797 N   0  0  0  0  0  0  0  0  0  0  0  0
  -23.1588  -12.7278  145.4604 O   0  0  0  0  0  0  0  0  0  0  0  0
  -29.7297  -12.7079  148.3683 C   0  0  0  0  0  0  0  0  0  0  0  0
  -30.4946  -13.6011  149.1488 C   0  0  0  0  0  0  0  0  0  0  0  0
  -30.3047  -15.3013  147.5066 C   0  0  0  0  0  0  0  0  0  0  0  0
  -30.6607  -14.8983  148.7200 C   0  0  0  0  0  0  0  0  0  0  0  0
  -24.3153  -17.9975  148.1683 C   0  0  0  0  0  0  0  0  0  0  0  0
  -23.5946  -17.4690  149.3982 C   0  0  0  0  0  0  0  0  0  0  0  0
  -24.3081  -17.1538  150.6068 C   0  0  0  0  0  0  0  0  0  0  0  0
  -23.4880  -16.6972  151.7252 C   0  0  0  0  0  0  0  0  0  0  0  0
  -22.0483  -16.6141  151.4955 C   0  0  0  0  0  0  0  0  0  0  0  0
  -22.2858  -17.2268  149.4949 N   0  0  0  0  0  0  0  0  0  0  0  0
  -21.6127  -16.7393  150.4023 C   0  0  0  0  0  0  0  0  0  0  0  0
  3  7  1  0
 11 13  1  0
 13 14  1  0
 13 15  1  0
 14 17  1  0
 14 18  1  0
 18 19  2  0
 10 20  1  0
 19 20  1  0
 18 21  1  0
 21 22  1  0
 21 23  1  0
  8 24  1  0
  5 29  1  0
 29 30  1  0
  1  2  2  0
  2  3  1  0
  3  4  2  0
  4  5  1  0
  5  6  2  0
  6  1  1  0
 15 16  2  0
 16 27  1  0
 27 28  2  0
 28 26  1  0
 26 25  2  0
 25 15  1  0
 30 31  2  0
 31 32  1  0
 32 33  2  0
 33 35  1  0
 35 34  2  0
 34 30  1  0
  7  8  2  0
  8  9  1  0
  9 10  2  0
 10 11  1  0
 11 12  2  0
 12  7  1  0
M  END

$$$$
No_1388-/dssg/home/sw_qyf/PocketFlow/Model-Generation-Results/5HT2A_7WC7_rec_A_10.pdb/2024-01-01-03-54-21/
     RDKit          3D

 32 33  0  0  0  0  0  0  0  0999 V2000
  -23.1746  -16.6014  144.8668 C   0  0  0  0  0  0  0  0  0  0  0  0
  -23.8963  -15.5346  144.7885 C   0  0  0  0  0  0  0  0  0  0  0  0
  -25.0304  -15.2549  144.5358 C   0  0  0  0  0  0  0  0  0  0  0  0
  -26.0482  -16.0541  145.3273 C   0  0  0  0  0  0  0  0  0  0  0  0
  -24.1314  -17.6118  145.6547 C   0  0  0  0  0  0  0  0  0  0  0  0
  -25.4664  -17.2664  145.8096 C   0  0  0  0  0  0  0  0  0  0  0  0
  -25.5852  -13.9177  144.0643 C   0  0  0  0  0  0  0  0  0  0  0  0
  -26.1071  -13.0029  144.7977 N   0  0  0  0  0  0  0  0  0  0  0  0
  -25.3350  -12.3599  145.6073 C   0  0  0  0  0  0  0  0  0  0  0  0
  -23.8208  -12.5856  146.1206 Cl  0  0  0  0  0  0  0  0  0  0  0  0
  -25.9425  -11.1798  146.1727 O   0  0  0  0  0  0  0  0  0  0  0  0
  -25.6965  -13.8907  142.7487 O   0  0  0  0  0  0  0  0  0  0  0  0
  -23.5858  -18.8673  146.1171 C   0  0  0  0  0  0  0  0  0  0  0  0
  -22.8102  -18.7577  147.0995 O   0  0  0  0  0  0  0  0  0  0  0  0
  -24.0290  -19.9296  145.7176 O   0  0  0  0  0  0  0  0  0  0  0  0
  -27.4404  -15.8576  145.5016 C   0  0  0  0  0  0  0  0  0  0  0  0
  -28.0901  -16.6338  146.5183 C   0  0  0  0  0  0  0  0  0  0  0  0
  -28.2267  -15.9238  147.8619 C   0  0  0  0  0  0  0  0  0  0  0  0
  -28.3333  -14.5721  147.8965 C   0  0  0  0  0  0  0  0  0  0  0  0
  -29.2161  -13.7595  147.1874 C   0  0  0  0  0  0  0  0  0  0  0  0
  -30.5850  -13.9186  147.1136 C   0  0  0  0  0  0  0  0  0  0  0  0
  -28.6007  -12.6096  146.3965 C   0  0  0  0  0  0  0  0  0  0  0  0
  -29.4894  -11.6589  145.8034 C   0  0  0  0  0  0  0  0  0  0  0  0
  -29.1964  -11.0676  144.5865 C   0  0  0  0  0  0  0  0  0  0  0  0
  -28.2411  -11.5202  143.8131 C   0  0  0  0  0  0  0  0  0  0  0  0
  -30.0748   -9.9831  144.0267 C   0  0  0  0  0  0  0  0  0  0  0  0
  -29.9139   -9.4768  142.8091 C   0  0  0  0  0  0  0  0  0  0  0  0
  -30.6923   -8.4351  142.3603 C   0  0  0  0  0  0  0  0  0  0  0  0
  -28.0876  -11.0288  142.4527 C   0  0  0  0  0  0  0  0  0  0  0  0
  -28.8582   -9.9918  142.0135 C   0  0  0  0  0  0  0  0  0  0  0  0
  -30.7862   -7.9783  141.1792 O   0  0  0  0  0  0  0  0  0  0  0  0
  -31.4315   -7.7253  143.3234 O   0  0  0  0  0  0  0  0  0  0  0  0
  3  7  1  0
  7  8  1  0
  8  9  1  0
  9 10  1  0
  9 11  2  0
  7 12  2  0
  5 13  1  0
 13 14  1  0
 13 15  2  0
  4 16  1  0
 16 17  2  3
 17 18  1  0
 18 19  1  0
 19 20  1  0
 20 21  2  0
 20 22  1  0
 22 23  1  0
 23 24  1  0
 27 28  1  0
 28 31  2  0
 28 32  1  0
 24 25  2  0
 25 29  1  0
 29 30  2  0
 30 27  1  0
 27 26  2  0
 26 24  1  0
  1  2  2  0
  2  3  1  0
  3  4  2  0
  4  6  1  0
  6  5  2  0
  5  1  1  0
M  END

$$$$
No_1389-/dssg/home/sw_qyf/PocketFlow/Model-Generation-Results/5HT2A_7WC7_rec_A_10.pdb/2024-01-01-03-54-21/
     RDKit          3D

 33 36  0  0  0  0  0  0  0  0999 V2000
  -24.1553  -17.8465  145.7021 C   0  0  0  0  0  0  0  0  0  0  0  0
  -24.2855  -16.6364  145.3494 C   0  0  0  0  0  0  0  0  0  0  0  0
  -25.0033  -15.6772  146.0737 C   0  0  0  0  0  0  0  0  0  0  0  0
  -24.8869  -14.2981  145.8377 C   0  0  0  0  0  0  0  0  0  0  0  0
  -24.0229  -13.8996  144.7516 C   0  0  0  0  0  0  0  0  0  0  0  0
  -24.9285  -18.3589  146.7591 C   0  0  0  0  0  0  0  0  0  0  0  0
  -23.2387  -14.8170  144.0919 C   0  0  0  0  0  0  0  0  0  0  0  0
  -23.3448  -16.1149  144.3263 C   0  0  0  0  0  0  0  0  0  0  0  0
  -25.6757  -17.4654  147.5535 C   0  0  0  0  0  0  0  0  0  0  0  0
  -25.7289  -16.1202  147.2873 C   0  0  0  0  0  0  0  0  0  0  0  0
  -25.5924  -13.2569  146.5964 C   0  0  0  0  0  0  0  0  0  0  0  0
  -26.8812  -13.0110  146.1618 C   0  0  0  0  0  0  0  0  0  0  0  0
  -27.2754  -11.7235  146.0189 C   0  0  0  0  0  0  0  0  0  0  0  0
  -28.6657  -11.3940  145.6109 C   0  0  0  0  0  0  0  0  0  0  0  0
  -29.0124  -10.3093  144.8135 C   0  0  0  0  0  0  0  0  0  0  0  0
  -27.9600   -9.5523  144.2507 C   0  0  0  0  0  0  0  0  0  0  0  0
  -28.3161   -8.3747  143.5537 C   0  0  0  0  0  0  0  0  0  0  0  0
  -29.2161   -8.3285  142.5143 C   0  0  0  0  0  0  0  0  0  0  0  0
  -30.5513   -8.5920  142.9877 C   0  0  0  0  0  0  0  0  0  0  0  0
  -31.5574   -8.4278  141.8832 C   0  0  0  0  0  0  0  0  0  0  0  0
  -28.9968   -8.0979  141.1953 C   0  0  0  0  0  0  0  0  0  0  0  0
  -29.3582   -6.8866  140.6962 C   0  0  0  0  0  0  0  0  0  0  0  0
  -32.7500   -8.5833  142.4129 O   0  0  0  0  0  0  0  0  0  0  0  0
  -31.4784   -7.8806  140.8187 O   0  0  0  0  0  0  0  0  0  0  0  0
  -30.5223   -6.4356  140.6160 C   0  0  0  0  0  0  0  0  0  0  0  0
  -26.5995   -9.8511  144.6039 C   0  0  0  0  0  0  0  0  0  0  0  0
  -26.3025  -11.1533  144.9427 C   0  0  0  0  0  0  0  0  0  0  0  0
  -29.7265  -12.1135  146.3567 C   0  0  0  0  0  0  0  0  0  0  0  0
  -30.0100  -11.6652  147.7179 C   0  0  0  0  0  0  0  0  0  0  0  0
  -30.8868  -12.5779  148.5264 C   0  0  0  0  0  0  0  0  0  0  0  0
  -30.6720  -13.7621  148.2629 O   0  0  0  0  0  0  0  0  0  0  0  0
  -31.7196  -12.1748  149.3608 O   0  0  0  0  0  0  0  0  0  0  0  0
  -23.5760  -18.8115  144.9953 O   0  0  0  0  0  0  0  0  0  0  0  0
  4 11  1  0
 11 12  1  0
 16 17  1  0
 17 18  1  0
 18 19  1  0
 19 20  1  0
 18 21  1  0
 21 22  2  0
 20 23  2  0
 20 24  1  0
 22 25  1  0
 24 25  1  0
 14 28  1  0
 28 29  1  0
 29 30  1  0
 30 31  1  0
 30 32  2  0
  1 33  1  0
 12 13  1  0
  1  2  2  0
  3 10  2  0
 10  9  1  0
  9  6  2  0
  6  1  1  0
 13 14  2  0
 14 15  1  0
 15 16  2  0
 16 26  1  0
 26 27  2  0
 27 13  1  0
  2  3  1  0
  3  4  1  0
  4  5  2  0
  5  7  1  0
  7  8  2  0
  8  2  1  0
M  END

$$$$
No_1390-/dssg/home/sw_qyf/PocketFlow/Model-Generation-Results/5HT2A_7WC7_rec_A_10.pdb/2024-01-01-03-54-21/
     RDKit          3D

 10 10  0  0  0  0  0  0  0  0999 V2000
  -23.1746  -16.6014  144.8668 C   0  0  0  0  0  0  0  0  0  0  0  0
  -23.7011  -17.0158  145.9774 C   0  0  0  0  0  0  0  0  0  0  0  0
  -24.2134  -16.0722  146.8877 C   0  0  0  0  0  0  0  0  0  0  0  0
  -23.3742  -15.2706  144.3922 C   0  0  0  0  0  0  0  0  0  0  0  0
  -22.9476  -14.6944  143.2310 C   0  0  0  0  0  0  0  0  0  0  0  0
  -24.5227  -14.7250  146.5298 C   0  0  0  0  0  0  0  0  0  0  0  0
  -23.9699  -14.2796  145.3584 C   0  0  0  0  0  0  0  0  0  0  0  0
  -23.6288  -18.4427  146.4388 C   0  0  0  0  0  0  0  0  0  0  0  0
  -24.5906  -19.2676  147.4694 Cl  0  0  0  0  0  0  0  0  0  0  0  0
  -22.6281  -19.1064  145.9591 O   0  0  0  0  0  0  0  0  0  0  0  0
  4  5  1  0
  2  8  1  0
  8  9  1  0
  8 10  2  0
  1  2  2  0
  2  3  1  0
  3  6  2  0
  6  7  1  0
  7  4  2  0
  4  1  1  0
M  END

$$$$
No_1391-/dssg/home/sw_qyf/PocketFlow/Model-Generation-Results/5HT2A_7WC7_rec_A_10.pdb/2024-01-01-03-54-21/
     RDKit          3D

 21 22  0  0  0  0  0  0  0  0999 V2000
  -24.1553  -17.8465  145.7021 C   0  0  0  0  0  0  0  0  0  0  0  0
  -23.9795  -18.4462  146.7426 C   0  0  0  0  0  0  0  0  0  0  0  0
  -25.1196  -16.8106  145.6409 C   0  0  0  0  0  0  0  0  0  0  0  0
  -25.9236  -16.5070  146.7422 C   0  0  0  0  0  0  0  0  0  0  0  0
  -25.6627  -17.1841  147.9274 C   0  0  0  0  0  0  0  0  0  0  0  0
  -24.6813  -18.1540  148.0079 C   0  0  0  0  0  0  0  0  0  0  0  0
  -26.9716  -15.4553  146.6645 C   0  0  0  0  0  0  0  0  0  0  0  0
  -26.7557  -14.3988  145.8960 C   0  0  0  0  0  0  0  0  0  0  0  0
  -25.5335  -14.1138  145.2434 C   0  0  0  0  0  0  0  0  0  0  0  0
  -24.7244  -15.3822  144.8755 C   0  0  0  0  0  0  0  0  0  0  0  0
  -27.7655  -13.6737  145.2511 C   0  0  0  0  0  0  0  0  0  0  0  0
  -28.5702  -12.8741  146.3271 C   0  0  0  0  0  0  0  0  0  0  0  0
  -29.0465  -13.3051  147.4607 C   0  0  0  0  0  0  0  0  0  0  0  0
  -29.0497  -11.5304  145.8449 C   0  0  0  0  0  0  0  0  0  0  0  0
  -30.2552  -10.9748  146.3457 C   0  0  0  0  0  0  0  0  0  0  0  0
  -30.4982   -9.8270  145.7272 N   0  0  0  0  0  0  0  0  0  0  0  0
  -30.0570  -12.5162  148.2408 C   0  0  0  0  0  0  0  0  0  0  0  0
  -30.5783  -11.3912  147.6961 C   0  0  0  0  0  0  0  0  0  0  0  0
  -30.5248  -13.0790  149.3804 O   0  0  0  0  0  0  0  0  0  0  0  0
  -29.3387  -12.0782  149.1165 F   0  0  0  0  0  0  0  0  0  0  0  0
  -31.7400  -11.0091  148.1065 O   0  0  0  0  0  0  0  0  0  0  0  0
  8 11  1  0
 11 12  1  0
 12 13  1  0
 12 14  1  0
 14 15  1  0
 15 16  1  0
 13 17  2  3
 15 18  1  0
 17 19  1  0
 17 20  1  0
 18 21  1  0
  4  7  2  0
  7  8  1  0
  8  9  2  0
  9 10  1  0
 10  3  2  0
  1  2  2  0
  2  6  1  0
  6  5  2  0
  5  4  1  0
  4  3  1  0
  3  1  1  0
M  END

$$$$
No_1392-/dssg/home/sw_qyf/PocketFlow/Model-Generation-Results/5HT2A_7WC7_rec_A_10.pdb/2024-01-01-03-54-21/
     RDKit          3D

 31 33  0  0  0  0  0  0  0  0999 V2000
  -24.1553  -17.8465  145.7021 C   0  0  0  0  0  0  0  0  0  0  0  0
  -24.2856  -16.6364  145.3494 C   0  0  0  0  0  0  0  0  0  0  0  0
  -25.0033  -15.6772  146.0737 C   0  0  0  0  0  0  0  0  0  0  0  0
  -24.8869  -14.2981  145.8377 C   0  0  0  0  0  0  0  0  0  0  0  0
  -25.3793  -13.2111  146.5918 C   0  0  0  0  0  0  0  0  0  0  0  0
  -24.8689  -11.8895  146.2480 C   0  0  0  0  0  0  0  0  0  0  0  0
  -25.0273  -18.3453  146.7012 C   0  0  0  0  0  0  0  0  0  0  0  0
  -25.7876  -17.5277  147.4721 C   0  0  0  0  0  0  0  0  0  0  0  0
  -25.7467  -16.1409  147.2640 C   0  0  0  0  0  0  0  0  0  0  0  0
  -24.8655  -13.8868  144.3515 C   0  0  0  0  0  0  0  0  0  0  0  0
  -24.8988  -11.6043  144.8583 C   0  0  0  0  0  0  0  0  0  0  0  0
  -24.9974  -10.2421  144.6089 C   0  0  0  0  0  0  0  0  0  0  0  0
  -24.5220  -12.5877  144.0687 N   0  0  0  0  0  0  0  0  0  0  0  0
  -23.5702  -16.1712  144.2961 O   0  0  0  0  0  0  0  0  0  0  0  0
  -26.2989  -10.0120  144.1041 O   0  0  0  0  0  0  0  0  0  0  0  0
  -27.2535  -10.3213  145.0067 C   0  0  0  0  0  0  0  0  0  0  0  0
  -28.4317  -11.0096  144.4052 C   0  0  0  0  0  0  0  0  0  0  0  0
  -29.4271  -11.3508  145.3279 C   0  0  0  0  0  0  0  0  0  0  0  0
  -29.0164  -12.0432  146.6057 C   0  0  0  0  0  0  0  0  0  0  0  0
  -30.1196  -12.4039  147.4528 C   0  0  0  0  0  0  0  0  0  0  0  0
  -29.7499  -12.6811  148.8410 C   0  0  0  0  0  0  0  0  0  0  0  0
  -28.5098  -11.3136  143.0680 C   0  0  0  0  0  0  0  0  0  0  0  0
  -27.5837  -12.1412  142.4567 C   0  0  0  0  0  0  0  0  0  0  0  0
  -27.6796  -12.5361  141.1210 C   0  0  0  0  0  0  0  0  0  0  0  0
  -28.5590  -11.9055  140.2459 C   0  0  0  0  0  0  0  0  0  0  0  0
  -29.4124  -10.6246  142.3070 C   0  0  0  0  0  0  0  0  0  0  0  0
  -30.2563   -9.6335  142.6853 N   0  0  0  0  0  0  0  0  0  0  0  0
  -29.3901  -10.9062  140.8791 C   0  0  0  0  0  0  0  0  0  0  0  0
  -30.0999   -8.3088  142.4647 C   0  0  0  0  0  0  0  0  0  0  0  0
  -28.8333   -7.4163  141.5127 Br  0  0  0  0  0  0  0  0  0  0  0  0
  -31.1232   -7.3746  143.1597 C   0  0  0  0  0  0  0  0  0  0  0  0
  3  4  1  0
  4  5  1  0
  5  6  1  0
  4 10  1  0
  6 11  1  0
 11 12  1  0
 10 13  1  0
 11 13  1  0
  2 14  1  0
 12 15  1  0
 15 16  1  0
 16 17  1  0
 17 18  2  3
 18 19  1  0
 19 20  1  0
 20 21  1  0
 17 22  1  0
 26 27  1  0
 27 29  1  0
 29 30  1  0
 29 31  1  0
  1  2  2  0
  2  3  1  0
  3  9  2  0
  9  8  1  0
  8  7  2  0
  7  1  1  0
 22 23  2  0
 23 24  1  0
 24 25  2  0
 25 28  1  0
 28 26  2  0
 26 22  1  0
M  END

$$$$
No_1393-/dssg/home/sw_qyf/PocketFlow/Model-Generation-Results/5HT2A_7WC7_rec_A_10.pdb/2024-01-01-03-54-21/
     RDKit          3D

  6  5  0  0  0  0  0  0  0  0999 V2000
  -23.1746  -16.6014  144.8668 C   0  0  0  0  0  0  0  0  0  0  0  0
  -24.0189  -16.0564  145.8445 C   0  0  0  0  0  0  0  0  0  0  0  0
  -25.3176  -15.9168  145.6822 C   0  0  0  0  0  0  0  0  0  0  0  0
  -26.1692  -16.6799  146.4632 C   0  0  0  0  0  0  0  0  0  0  0  0
  -27.6295  -16.5109  146.3615 C   0  0  0  0  0  0  0  0  0  0  0  0
  -28.0276  -15.3009  145.7610 C   0  0  0  0  0  0  0  0  0  0  0  0
  1  2  1  0
  2  3  2  3
  3  4  1  0
  4  5  1  0
  5  6  1  0
M  END

$$$$
No_1394-/dssg/home/sw_qyf/PocketFlow/Model-Generation-Results/5HT2A_7WC7_rec_A_10.pdb/2024-01-01-03-54-21/
     RDKit          3D

 26 27  0  0  0  0  0  0  0  0999 V2000
  -24.1553  -17.8465  145.7021 C   0  0  0  0  0  0  0  0  0  0  0  0
  -23.9795  -18.4462  146.7426 C   0  0  0  0  0  0  0  0  0  0  0  0
  -25.1593  -16.8262  145.6925 C   0  0  0  0  0  0  0  0  0  0  0  0
  -25.9346  -16.5763  146.8154 C   0  0  0  0  0  0  0  0  0  0  0  0
  -25.6041  -17.2802  147.9650 C   0  0  0  0  0  0  0  0  0  0  0  0
  -24.6016  -18.1919  147.9827 C   0  0  0  0  0  0  0  0  0  0  0  0
  -27.0089  -15.5468  146.7485 C   0  0  0  0  0  0  0  0  0  0  0  0
  -28.1891  -15.7106  147.4281 C   0  0  0  0  0  0  0  0  0  0  0  0
  -29.1982  -14.7168  147.3972 C   0  0  0  0  0  0  0  0  0  0  0  0
  -30.4026  -14.6848  148.1479 C   0  0  0  0  0  0  0  0  0  0  0  0
  -28.7500  -13.3999  146.9029 C   0  0  0  0  0  0  0  0  0  0  0  0
  -27.6349  -13.1433  146.1773 C   0  0  0  0  0  0  0  0  0  0  0  0
  -27.2830  -11.9586  145.5820 C   0  0  0  0  0  0  0  0  0  0  0  0
  -26.7086  -14.3624  146.1348 C   0  0  0  0  0  0  0  0  0  0  0  0
  -26.2615  -11.4233  146.0410 F   0  0  0  0  0  0  0  0  0  0  0  0
  -28.3096  -11.0231  145.9224 F   0  0  0  0  0  0  0  0  0  0  0  0
  -27.1990  -12.0541  144.3008 F   0  0  0  0  0  0  0  0  0  0  0  0
  -31.2422  -13.5430  148.2272 C   0  0  0  0  0  0  0  0  0  0  0  0
  -32.1777  -13.3869  149.2789 C   0  0  0  0  0  0  0  0  0  0  0  0
  -32.9833  -12.2434  149.2625 C   0  0  0  0  0  0  0  0  0  0  0  0
  -33.3745  -11.1462  148.2764 Cl  0  0  0  0  0  0  0  0  0  0  0  0
  -22.9299  -19.4153  146.7788 O   0  0  0  0  0  0  0  0  0  0  0  0
  -23.5433  -18.0320  144.5155 O   0  0  0  0  0  0  0  0  0  0  0  0
  -33.5691  -11.9716  150.7519 C   0  0  0  0  0  0  0  0  0  0  0  0
  -33.6644  -10.8186  151.0819 O   0  0  0  0  0  0  0  0  0  0  0  0
  -34.1738  -12.9115  151.3188 O   0  0  0  0  0  0  0  0  0  0  0  0
  4  7  1  0
  9 10  1  0
 12 13  1  0
 13 15  1  0
 13 16  1  0
 13 17  1  0
 10 18  2  3
 18 19  1  0
 19 20  1  0
 20 21  1  0
  2 22  1  0
  1 23  1  0
 20 24  1  0
 24 25  2  0
 24 26  1  0
  1  2  2  0
  2  6  1  0
  6  5  2  0
  5  4  1  0
  4  3  2  0
  3  1  1  0
  7  8  2  0
  8  9  1  0
  9 11  2  0
 11 12  1  0
 12 14  2  0
 14  7  1  0
M  END

$$$$
No_1395-/dssg/home/sw_qyf/PocketFlow/Model-Generation-Results/5HT2A_7WC7_rec_A_10.pdb/2024-01-01-03-54-21/
     RDKit          3D

 29 32  0  0  0  0  0  0  0  0999 V2000
  -24.1553  -17.8465  145.7021 C   0  0  0  0  0  0  0  0  0  0  0  0
  -24.2855  -16.6364  145.3494 C   0  0  0  0  0  0  0  0  0  0  0  0
  -25.0033  -15.6772  146.0737 C   0  0  0  0  0  0  0  0  0  0  0  0
  -25.1197  -14.2834  145.7299 C   0  0  0  0  0  0  0  0  0  0  0  0
  -24.2707  -13.8793  144.6500 C   0  0  0  0  0  0  0  0  0  0  0  0
  -24.8686  -18.3355  146.8179 C   0  0  0  0  0  0  0  0  0  0  0  0
  -25.6154  -17.5363  147.5807 C   0  0  0  0  0  0  0  0  0  0  0  0
  -25.7525  -16.1596  147.2668 C   0  0  0  0  0  0  0  0  0  0  0  0
  -24.2175  -12.4904  144.4025 C   0  0  0  0  0  0  0  0  0  0  0  0
  -25.0858  -11.5947  145.1718 C   0  0  0  0  0  0  0  0  0  0  0  0
  -25.9186  -12.0890  146.2177 C   0  0  0  0  0  0  0  0  0  0  0  0
  -25.8474  -13.4151  146.5392 C   0  0  0  0  0  0  0  0  0  0  0  0
  -23.6462  -16.1962  144.2583 O   0  0  0  0  0  0  0  0  0  0  0  0
  -23.5617  -14.8054  144.0328 C   0  0  0  0  0  0  0  0  0  0  0  0
  -23.5006  -18.7651  144.9795 O   0  0  0  0  0  0  0  0  0  0  0  0
  -25.1218  -10.2836  144.8351 O   0  0  0  0  0  0  0  0  0  0  0  0
  -26.4091   -9.8967  144.2778 C   0  0  0  0  0  0  0  0  0  0  0  0
  -27.4603  -10.8105  144.4082 C   0  0  0  0  0  0  0  0  0  0  0  0
  -28.7312  -10.2757  143.8917 C   0  0  0  0  0  0  0  0  0  0  0  0
  -29.8894  -10.4956  144.4948 C   0  0  0  0  0  0  0  0  0  0  0  0
  -30.9102   -9.7760  144.0574 N   0  0  0  0  0  0  0  0  0  0  0  0
  -30.8211   -8.9988  142.9758 C   0  0  0  0  0  0  0  0  0  0  0  0
  -29.6802   -8.8192  142.3194 C   0  0  0  0  0  0  0  0  0  0  0  0
  -28.5623   -9.5126  142.7278 C   0  0  0  0  0  0  0  0  0  0  0  0
  -29.6419   -7.9976  141.0762 C   0  0  0  0  0  0  0  0  0  0  0  0
  -29.6220   -6.6756  141.0441 C   0  0  0  0  0  0  0  0  0  0  0  0
  -29.9653  -11.3192  145.6163 O   0  0  0  0  0  0  0  0  0  0  0  0
  -29.3189   -8.5902  139.8391 C   0  0  0  0  0  0  0  0  0  0  0  0
  -28.9218   -7.8792  138.7343 C   0  0  0  0  0  0  0  0  0  0  0  0
  3  4  1  0
  2 13  1  0
  5 14  1  0
 13 14  1  0
  1 15  1  0
 10 16  1  0
 16 17  1  0
 17 18  1  0
 23 25  1  0
 25 26  2  0
 20 27  1  0
 25 28  1  0
 28 29  1  0
 18 19  1  0
  1  2  2  0
  2  3  1  0
  3  8  2  0
  8  7  1  0
  7  6  2  0
  6  1  1  0
  4  5  2  0
  5  9  1  0
  9 10  2  0
 10 11  1  0
 11 12  2  0
 12  4  1  0
 19 20  2  0
 20 21  1  0
 21 22  2  0
 22 23  1  0
 23 24  2  0
 24 19  1  0
M  END

$$$$
No_1396-/dssg/home/sw_qyf/PocketFlow/Model-Generation-Results/5HT2A_7WC7_rec_A_10.pdb/2024-01-01-03-54-21/
     RDKit          3D

 35 37  0  0  0  0  0  0  0  0999 V2000
  -23.1746  -16.6014  144.8668 C   0  0  0  0  0  0  0  0  0  0  0  0
  -23.7011  -17.0158  145.9774 C   0  0  0  0  0  0  0  0  0  0  0  0
  -24.7095  -16.6222  146.3578 C   0  0  0  0  0  0  0  0  0  0  0  0
  -24.9846  -15.5183  146.7686 C   0  0  0  0  0  0  0  0  0  0  0  0
  -23.5803  -15.1678  144.5733 C   0  0  0  0  0  0  0  0  0  0  0  0
  -24.5551  -14.5817  145.5074 C   0  0  0  0  0  0  0  0  0  0  0  0
  -24.8955  -13.1208  145.4658 C   0  0  0  0  0  0  0  0  0  0  0  0
  -26.1357  -12.8329  145.7504 C   0  0  0  0  0  0  0  0  0  0  0  0
  -27.1265  -13.2737  146.3844 C   0  0  0  0  0  0  0  0  0  0  0  0
  -28.4230  -12.6687  146.5834 C   0  0  0  0  0  0  0  0  0  0  0  0
  -28.6330  -11.4694  145.8634 C   0  0  0  0  0  0  0  0  0  0  0  0
  -27.6236  -10.8838  145.0749 C   0  0  0  0  0  0  0  0  0  0  0  0
  -26.3788  -11.5411  145.0221 C   0  0  0  0  0  0  0  0  0  0  0  0
  -23.8122  -12.4915  146.0223 O   0  0  0  0  0  0  0  0  0  0  0  0
  -29.8907  -10.8317  145.9776 N   0  0  0  0  0  0  0  0  0  0  0  0
  -22.8617  -18.2075  146.5336 C   0  0  0  0  0  0  0  0  0  0  0  0
  -27.7601   -9.6898  144.5087 F   0  0  0  0  0  0  0  0  0  0  0  0
  -29.3542  -13.2621  147.2738 F   0  0  0  0  0  0  0  0  0  0  0  0
  -23.2057  -19.3280  146.3649 O   0  0  0  0  0  0  0  0  0  0  0  0
  -23.1839  -14.4171  143.6716 O   0  0  0  0  0  0  0  0  0  0  0  0
  -21.8226  -17.8813  147.2837 O   0  0  0  0  0  0  0  0  0  0  0  0
  -25.7275  -17.6774  147.1309 C   0  0  0  0  0  0  0  0  0  0  0  0
  -27.0288  -17.5624  146.4794 C   0  0  0  0  0  0  0  0  0  0  0  0
  -27.7025  -16.2936  146.8356 C   0  0  0  0  0  0  0  0  0  0  0  0
  -28.3874  -16.4147  148.1460 C   0  0  0  0  0  0  0  0  0  0  0  0
  -27.9968  -17.3806  149.0380 C   0  0  0  0  0  0  0  0  0  0  0  0
  -29.5457  -15.5739  148.4379 C   0  0  0  0  0  0  0  0  0  0  0  0
  -30.3142  -15.3416  149.4608 C   0  0  0  0  0  0  0  0  0  0  0  0
  -28.8987  -17.4559  150.2952 C   0  0  0  0  0  0  0  0  0  0  0  0
  -31.3756  -14.5347  149.7623 C   0  0  0  0  0  0  0  0  0  0  0  0
  -29.9817  -16.4254  150.5566 C   0  0  0  0  0  0  0  0  0  0  0  0
  -32.0263  -14.4705  150.9648 C   0  0  0  0  0  0  0  0  0  0  0  0
  -32.9588  -13.4584  151.1873 C   0  0  0  0  0  0  0  0  0  0  0  0
  -33.5404  -13.2046  152.4426 C   0  0  0  0  0  0  0  0  0  0  0  0
  -33.1959  -12.5644  150.0611 C   0  0  0  0  0  0  0  0  0  0  0  0
  1  2  1  0
  2  3  1  0
  1  5  1  0
  4  6  1  0
  5  6  1  0
  6  7  1  0
  7  8  1  0
  7 14  1  0
 11 15  1  0
  2 16  1  0
 12 17  1  0
 10 18  1  0
 16 19  1  0
  5 20  2  0
 16 21  2  0
  3 22  1  0
 22 23  1  0
 23 24  1  0
 24 25  1  0
 28 30  1  0
 30 32  2  3
 32 33  1  0
 33 34  1  0
 33 35  1  0
  3  4  1  0
 25 26  2  0
 26 29  1  0
 29 31  2  0
 31 28  1  0
 28 27  2  0
 27 25  1  0
  8  9  2  0
  9 10  1  0
 10 11  2  0
 11 12  1  0
 12 13  2  0
 13  8  1  0
M  END

$$$$
No_1397-/dssg/home/sw_qyf/PocketFlow/Model-Generation-Results/5HT2A_7WC7_rec_A_10.pdb/2024-01-01-03-54-21/
     RDKit          3D

 29 30  0  0  0  0  0  0  0  0999 V2000
  -23.8931  -18.2534  145.3804 F   0  0  0  0  0  0  0  0  0  0  0  0
  -24.1483  -17.4442  146.3400 C   0  0  0  0  0  0  0  0  0  0  0  0
  -24.4181  -16.0969  145.9075 C   0  0  0  0  0  0  0  0  0  0  0  0
  -24.0234  -15.7071  144.6250 C   0  0  0  0  0  0  0  0  0  0  0  0
  -24.2232  -14.3188  144.2488 C   0  0  0  0  0  0  0  0  0  0  0  0
  -24.8205  -13.4352  145.2050 C   0  0  0  0  0  0  0  0  0  0  0  0
  -25.2750  -13.8625  146.4578 C   0  0  0  0  0  0  0  0  0  0  0  0
  -25.0194  -15.2205  146.8544 C   0  0  0  0  0  0  0  0  0  0  0  0
  -25.1893  -17.9416  147.2481 O   0  0  0  0  0  0  0  0  0  0  0  0
  -22.8908  -17.4541  147.0245 F   0  0  0  0  0  0  0  0  0  0  0  0
  -25.0256  -12.1137  144.8684 N   0  0  0  0  0  0  0  0  0  0  0  0
  -26.1090  -11.4790  145.3095 C   0  0  0  0  0  0  0  0  0  0  0  0
  -26.6101  -10.3502  144.6308 C   0  0  0  0  0  0  0  0  0  0  0  0
  -27.7294  -10.4672  143.7509 C   0  0  0  0  0  0  0  0  0  0  0  0
  -28.4062   -9.4138  143.2609 C   0  0  0  0  0  0  0  0  0  0  0  0
  -28.2229   -8.1547  143.9279 C   0  0  0  0  0  0  0  0  0  0  0  0
  -28.8792   -7.0102  143.3628 C   0  0  0  0  0  0  0  0  0  0  0  0
  -29.7499   -7.1088  142.2560 C   0  0  0  0  0  0  0  0  0  0  0  0
  -29.9932   -8.3212  141.7335 C   0  0  0  0  0  0  0  0  0  0  0  0
  -29.3315   -9.4783  142.2274 C   0  0  0  0  0  0  0  0  0  0  0  0
  -27.3720  -11.4300  142.7704 O   0  0  0  0  0  0  0  0  0  0  0  0
  -26.4077  -11.5824  146.6038 O   0  0  0  0  0  0  0  0  0  0  0  0
  -29.6552  -10.6591  141.6958 O   0  0  0  0  0  0  0  0  0  0  0  0
  -30.8509   -8.3604  140.7496 O   0  0  0  0  0  0  0  0  0  0  0  0
  -29.0162  -10.8860  140.4921 C   0  0  0  0  0  0  0  0  0  0  0  0
  -28.5000  -12.2554  140.3889 C   0  0  0  0  0  0  0  0  0  0  0  0
  -27.5894  -12.4376  139.2480 C   0  0  0  0  0  0  0  0  0  0  0  0
  -26.0900  -12.3750  139.4847 C   0  0  0  0  0  0  0  0  0  0  0  0
  -25.3477  -12.5019  138.4185 O   0  0  0  0  0  0  0  0  0  0  0  0
  1  2  1  0
  2  3  1  0
  2  9  1  0
  2 10  1  0
  6 11  1  0
 11 12  1  0
 12 13  1  0
 13 14  1  0
 14 21  1  0
 12 22  2  0
 20 23  1  0
 19 24  1  0
 23 25  1  0
 25 26  1  0
 26 27  2  3
 27 28  1  0
 28 29  1  0
 14 15  1  0
 15 16  2  0
 16 17  1  0
 17 18  2  0
 18 19  1  0
 19 20  2  0
 20 15  1  0
  3  4  2  0
  4  5  1  0
  5  6  2  0
  6  7  1  0
  7  8  2  0
  8  3  1  0
M  END

$$$$
No_1398-/dssg/home/sw_qyf/PocketFlow/Model-Generation-Results/5HT2A_7WC7_rec_A_10.pdb/2024-01-01-03-54-21/
     RDKit          3D

 30 34  0  0  0  0  0  0  0  0999 V2000
  -23.1746  -16.6014  144.8668 C   0  0  0  0  0  0  0  0  0  0  0  0
  -23.8963  -15.5346  144.7885 C   0  0  0  0  0  0  0  0  0  0  0  0
  -25.0304  -15.2549  144.5358 C   0  0  0  0  0  0  0  0  0  0  0  0
  -25.6045  -13.9524  144.2294 C   0  0  0  0  0  0  0  0  0  0  0  0
  -26.9716  -13.7632  143.8495 C   0  0  0  0  0  0  0  0  0  0  0  0
  -24.0440  -17.7385  145.0423 C   0  0  0  0  0  0  0  0  0  0  0  0
  -25.3719  -17.5333  145.2947 C   0  0  0  0  0  0  0  0  0  0  0  0
  -25.9112  -16.2733  145.0481 C   0  0  0  0  0  0  0  0  0  0  0  0
  -27.4622  -12.5454  143.4380 C   0  0  0  0  0  0  0  0  0  0  0  0
  -28.3746  -11.9347  143.9012 C   0  0  0  0  0  0  0  0  0  0  0  0
  -28.8888  -10.6050  143.3895 C   0  0  0  0  0  0  0  0  0  0  0  0
  -28.6740  -10.2908  142.0934 C   0  0  0  0  0  0  0  0  0  0  0  0
  -29.1343   -9.1235  141.5078 C   0  0  0  0  0  0  0  0  0  0  0  0
  -28.9673   -8.7714  140.1915 C   0  0  0  0  0  0  0  0  0  0  0  0
  -29.5549   -7.5455  139.7220 C   0  0  0  0  0  0  0  0  0  0  0  0
  -29.9701   -6.6326  140.7427 C   0  0  0  0  0  0  0  0  0  0  0  0
  -29.6419   -7.8781  142.2138 C   0  0  0  0  0  0  0  0  0  0  0  0
  -28.0410  -11.2589  141.2714 C   0  0  0  0  0  0  0  0  0  0  0  0
  -27.4269  -12.4413  141.9759 C   0  0  0  0  0  0  0  0  0  0  0  0
  -23.3770  -19.2994  145.4073 Cl  0  0  0  0  0  0  0  0  0  0  0  0
  -28.6613  -11.9631  145.7254 Cl  0  0  0  0  0  0  0  0  0  0  0  0
  -30.1048   -7.4886  143.2096 F   0  0  0  0  0  0  0  0  0  0  0  0
  -26.7510  -13.2844  141.1942 O   0  0  0  0  0  0  0  0  0  0  0  0
  -28.3283   -9.6067  139.1592 C   0  0  0  0  0  0  0  0  0  0  0  0
  -27.9588  -10.7324  139.0361 C   0  0  0  0  0  0  0  0  0  0  0  0
  -27.6180  -11.5414  140.1383 C   0  0  0  0  0  0  0  0  0  0  0  0
  -26.8963  -12.7523  139.8541 C   0  0  0  0  0  0  0  0  0  0  0  0
  -29.6487   -9.8396  144.2338 O   0  0  0  0  0  0  0  0  0  0  0  0
  -30.8196  -10.2398  144.8169 C   0  0  0  0  0  0  0  0  0  0  0  0
  -30.5976  -11.0044  145.9159 O   0  0  0  0  0  0  0  0  0  0  0  0
  3  4  1  0
  4  5  2  3
  5  9  1  0
 12 13  1  0
 13 14  2  0
 14 15  1  0
 15 16  2  0
 13 17  1  0
 16 17  1  0
  6 20  1  0
 10 21  1  0
 17 22  1  0
 19 23  1  0
 14 24  1  0
 24 25  2  0
 18 26  1  0
 25 26  1  0
 23 27  1  0
 26 27  1  0
 11 28  1  0
 28 29  1  0
 29 30  1  0
  9 10  2  0
 10 11  1  0
 11 12  2  0
 12 18  1  0
 18 19  2  0
 19  9  1  0
  1  2  2  0
  2  3  1  0
  3  8  2  0
  8  7  1  0
  7  6  2  0
  6  1  1  0
M  END

$$$$
No_1399-/dssg/home/sw_qyf/PocketFlow/Model-Generation-Results/5HT2A_7WC7_rec_A_10.pdb/2024-01-01-03-54-21/
     RDKit          3D

 11 11  0  0  0  0  0  0  0  0999 V2000
  -24.1553  -17.8465  145.7021 C   0  0  0  0  0  0  0  0  0  0  0  0
  -23.9795  -18.4462  146.7426 C   0  0  0  0  0  0  0  0  0  0  0  0
  -25.1593  -16.8262  145.6925 C   0  0  0  0  0  0  0  0  0  0  0  0
  -24.9465  -15.5961  144.9952 C   0  0  0  0  0  0  0  0  0  0  0  0
  -25.8223  -14.4752  145.0170 C   0  0  0  0  0  0  0  0  0  0  0  0
  -26.5395  -14.2060  146.1042 C   0  0  0  0  0  0  0  0  0  0  0  0
  -27.2470  -15.4172  146.6383 C   0  0  0  0  0  0  0  0  0  0  0  0
  -26.2513  -16.6030  146.7944 C   0  0  0  0  0  0  0  0  0  0  0  0
  -23.6947  -15.5210  144.2194 C   0  0  0  0  0  0  0  0  0  0  0  0
  -24.3768  -17.9927  147.8522 O   0  0  0  0  0  0  0  0  0  0  0  0
  -22.9415  -16.5094  144.0444 O   0  0  0  0  0  0  0  0  0  0  0  0
  1  2  1  0
  1  3  1  0
  3  4  1  0
  4  5  1  0
  5  6  1  0
  6  7  1  0
  3  8  1  0
  7  8  1  0
  4  9  1  0
  2 10  1  0
  9 11  2  0
M  END

$$$$
No_1400-/dssg/home/sw_qyf/PocketFlow/Model-Generation-Results/5HT2A_7WC7_rec_A_10.pdb/2024-01-01-03-54-21/
     RDKit          3D

 19 20  0  0  0  0  0  0  0  0999 V2000
  -24.1553  -17.8465  145.7021 C   0  0  0  0  0  0  0  0  0  0  0  0
  -24.2856  -16.6364  145.3494 C   0  0  0  0  0  0  0  0  0  0  0  0
  -24.5733  -15.7651  145.9979 C   0  0  0  0  0  0  0  0  0  0  0  0
  -24.7088  -14.2765  145.5906 C   0  0  0  0  0  0  0  0  0  0  0  0
  -25.2269  -13.1991  146.2986 C   0  0  0  0  0  0  0  0  0  0  0  0
  -24.4599  -18.2327  147.0243 C   0  0  0  0  0  0  0  0  0  0  0  0
  -24.8762  -17.2628  147.9319 C   0  0  0  0  0  0  0  0  0  0  0  0
  -24.9299  -15.8401  147.4544 C   0  0  0  0  0  0  0  0  0  0  0  0
  -25.5576  -12.1136  145.9005 C   0  0  0  0  0  0  0  0  0  0  0  0
  -26.6303  -11.3370  145.9359 C   0  0  0  0  0  0  0  0  0  0  0  0
  -26.8374  -10.1842  145.0590 C   0  0  0  0  0  0  0  0  0  0  0  0
  -24.1650  -13.9489  144.2695 C   0  0  0  0  0  0  0  0  0  0  0  0
  -28.0961   -9.7890  144.6483 C   0  0  0  0  0  0  0  0  0  0  0  0
  -29.2246  -10.5550  145.1104 C   0  0  0  0  0  0  0  0  0  0  0  0
  -29.0294  -11.6189  146.0849 C   0  0  0  0  0  0  0  0  0  0  0  0
  -27.7625  -12.0731  146.3485 C   0  0  0  0  0  0  0  0  0  0  0  0
  -23.0042  -13.3567  144.2568 O   0  0  0  0  0  0  0  0  0  0  0  0
  -25.1319  -17.4928  149.2114 F   0  0  0  0  0  0  0  0  0  0  0  0
  -30.5759  -12.4597  146.8232 Br  0  0  0  0  0  0  0  0  0  0  0  0
  3  4  1  0
  4  5  1  0
  5  9  2  3
  9 10  1  0
  4 12  1  0
 12 17  1  0
  7 18  1  0
 15 19  1  0
  1  2  2  0
  2  3  1  0
  3  8  2  0
  8  7  1  0
  7  6  2  0
  6  1  1  0
 10 11  2  0
 11 13  1  0
 13 14  2  0
 14 15  1  0
 15 16  2  0
 16 10  1  0
M  END

$$$$
No_1401-/dssg/home/sw_qyf/PocketFlow/Model-Generation-Results/5HT2A_7WC7_rec_A_10.pdb/2024-01-01-03-54-21/
     RDKit          3D

 28 30  0  0  0  0  0  0  0  0999 V2000
  -23.1746  -16.6014  144.8668 C   0  0  0  0  0  0  0  0  0  0  0  0
  -23.8963  -15.5346  144.7885 C   0  0  0  0  0  0  0  0  0  0  0  0
  -23.6398  -14.5115  145.3281 C   0  0  0  0  0  0  0  0  0  0  0  0
  -24.3240  -13.3648  145.1281 C   0  0  0  0  0  0  0  0  0  0  0  0
  -25.5072  -13.2953  144.4353 C   0  0  0  0  0  0  0  0  0  0  0  0
  -25.9151  -14.5889  143.8605 C   0  0  0  0  0  0  0  0  0  0  0  0
  -25.1243  -15.6356  144.0574 C   0  0  0  0  0  0  0  0  0  0  0  0
  -23.8198  -17.8917  145.8226 Cl  0  0  0  0  0  0  0  0  0  0  0  0
  -26.4333  -12.1514  144.3176 C   0  0  0  0  0  0  0  0  0  0  0  0
  -26.2458  -11.1383  145.1978 N   0  0  0  0  0  0  0  0  0  0  0  0
  -27.4561  -11.9463  143.4288 C   0  0  0  0  0  0  0  0  0  0  0  0
  -27.8214  -10.7106  143.1081 C   0  0  0  0  0  0  0  0  0  0  0  0
  -28.2732  -10.2069  141.9840 C   0  0  0  0  0  0  0  0  0  0  0  0
  -28.9708   -8.9974  141.8172 C   0  0  0  0  0  0  0  0  0  0  0  0
  -29.3009   -8.2496  143.0125 C   0  0  0  0  0  0  0  0  0  0  0  0
  -29.0724   -8.9036  144.2394 C   0  0  0  0  0  0  0  0  0  0  0  0
  -28.3661  -10.0669  144.3935 C   0  0  0  0  0  0  0  0  0  0  0  0
  -27.1967  -10.0802  145.3753 C   0  0  0  0  0  0  0  0  0  0  0  0
  -30.0027   -6.9857  142.8784 C   0  0  0  0  0  0  0  0  0  0  0  0
  -28.0106  -10.9205  140.6776 C   0  0  0  0  0  0  0  0  0  0  0  0
  -27.4864  -10.2676  139.6088 C   0  0  0  0  0  0  0  0  0  0  0  0
  -27.1909   -9.1020  139.7180 O   0  0  0  0  0  0  0  0  0  0  0  0
  -27.0938  -11.0029  138.6436 O   0  0  0  0  0  0  0  0  0  0  0  0
  -27.5077  -12.3794  138.7512 C   0  0  0  0  0  0  0  0  0  0  0  0
  -29.7314   -6.0307  142.5645 O   0  0  0  0  0  0  0  0  0  0  0  0
  -31.3875   -7.1677  143.1024 O   0  0  0  0  0  0  0  0  0  0  0  0
  -27.0586  -13.1623  138.0919 O   0  0  0  0  0  0  0  0  0  0  0  0
  -28.4366  -12.7970  139.4630 O   0  0  0  0  0  0  0  0  0  0  0  0
  1  2  1  0
  1  8  1  0
  5  9  1  0
  9 10  1  0
  9 11  1  0
 11 12  1  0
 10 18  1  0
 17 18  1  0
 15 19  1  0
 13 20  1  0
 20 21  1  0
 21 22  2  0
 21 23  1  0
 23 24  1  0
 19 25  2  0
 19 26  1  0
 24 27  2  0
 24 28  1  0
 12 13  2  0
 13 14  1  0
 14 15  2  0
 15 16  1  0
 16 17  2  0
 17 12  1  0
  2  3  2  0
  3  4  1  0
  4  5  2  0
  5  6  1  0
  6  7  2  0
  7  2  1  0
M  END

$$$$
No_1402-/dssg/home/sw_qyf/PocketFlow/Model-Generation-Results/5HT2A_7WC7_rec_A_10.pdb/2024-01-01-03-54-21/
     RDKit          3D

 26 26  0  0  0  0  0  0  0  0999 V2000
  -24.1553  -17.8465  145.7021 C   0  0  0  0  0  0  0  0  0  0  0  0
  -23.9795  -18.4462  146.7426 C   0  0  0  0  0  0  0  0  0  0  0  0
  -25.1593  -16.8262  145.6925 C   0  0  0  0  0  0  0  0  0  0  0  0
  -25.3302  -15.8818  144.5925 C   0  0  0  0  0  0  0  0  0  0  0  0
  -24.4570  -18.1009  148.0274 C   0  0  0  0  0  0  0  0  0  0  0  0
  -25.3496  -17.0286  148.1023 C   0  0  0  0  0  0  0  0  0  0  0  0
  -25.5669  -16.2449  146.9641 C   0  0  0  0  0  0  0  0  0  0  0  0
  -24.1866  -15.0522  144.1641 C   0  0  0  0  0  0  0  0  0  0  0  0
  -24.5102  -13.5375  144.1629 C   0  0  0  0  0  0  0  0  0  0  0  0
  -23.4462  -12.8714  145.1093 C   0  0  0  0  0  0  0  0  0  0  0  0
  -24.0986  -12.0814  146.1912 C   0  0  0  0  0  0  0  0  0  0  0  0
  -25.3703  -12.7404  146.5459 C   0  0  0  0  0  0  0  0  0  0  0  0
  -26.4864  -12.0535  145.9353 C   0  0  0  0  0  0  0  0  0  0  0  0
  -26.3186  -11.0845  144.9778 C   0  0  0  0  0  0  0  0  0  0  0  0
  -27.4362  -10.5992  144.3493 C   0  0  0  0  0  0  0  0  0  0  0  0
  -27.4755   -9.6404  143.3524 C   0  0  0  0  0  0  0  0  0  0  0  0
  -28.6636   -9.4188  142.6849 C   0  0  0  0  0  0  0  0  0  0  0  0
  -28.6933   -8.9995  141.4004 C   0  0  0  0  0  0  0  0  0  0  0  0
  -27.9629   -9.6167  140.4010 C   0  0  0  0  0  0  0  0  0  0  0  0
  -27.3217  -10.8400  140.6037 C   0  0  0  0  0  0  0  0  0  0  0  0
  -26.6732  -11.4456  139.4525 C   0  0  0  0  0  0  0  0  0  0  0  0
  -27.7943  -12.6584  138.9778 Cl  0  0  0  0  0  0  0  0  0  0  0  0
  -29.8649   -9.2256  143.5228 C   0  0  0  0  0  0  0  0  0  0  0  0
  -31.0857   -8.8094  143.0506 C   0  0  0  0  0  0  0  0  0  0  0  0
  -32.1675   -8.9551  143.6747 O   0  0  0  0  0  0  0  0  0  0  0  0
  -31.1066   -8.0653  141.9759 O   0  0  0  0  0  0  0  0  0  0  0  0
  3  4  1  0
  4  8  1  0
  8  9  1  0
  9 10  1  0
 10 11  1  0
 11 12  1  0
 12 13  1  0
 13 14  2  3
 14 15  1  0
 15 16  2  3
 16 17  1  0
 17 18  2  3
 18 19  1  0
 19 20  2  3
 20 21  1  0
 21 22  1  0
 17 23  1  0
 23 24  1  0
 24 25  1  0
 24 26  2  0
  1  2  2  0
  2  5  1  0
  5  6  2  0
  6  7  1  0
  7  3  2  0
  3  1  1  0
M  END

$$$$
No_1403-/dssg/home/sw_qyf/PocketFlow/Model-Generation-Results/5HT2A_7WC7_rec_A_10.pdb/2024-01-01-03-54-21/
     RDKit          3D

  9  9  0  0  0  0  0  0  0  0999 V2000
  -23.8931  -18.2534  145.3804 F   0  0  0  0  0  0  0  0  0  0  0  0
  -24.3394  -17.2619  146.1054 C   0  0  0  0  0  0  0  0  0  0  0  0
  -24.5130  -16.0162  145.5718 C   0  0  0  0  0  0  0  0  0  0  0  0
  -25.1442  -14.9500  146.1721 C   0  0  0  0  0  0  0  0  0  0  0  0
  -25.3127  -13.6572  145.6299 C   0  0  0  0  0  0  0  0  0  0  0  0
  -24.6229  -13.4443  144.4500 C   0  0  0  0  0  0  0  0  0  0  0  0
  -23.8725  -14.4617  143.8826 C   0  0  0  0  0  0  0  0  0  0  0  0
  -23.8126  -15.6945  144.4689 C   0  0  0  0  0  0  0  0  0  0  0  0
  -23.6401  -17.3597  147.3335 F   0  0  0  0  0  0  0  0  0  0  0  0
  1  2  1  0
  2  9  1  0
  2  3  1  0
  3  4  2  0
  4  5  1  0
  5  6  2  0
  6  7  1  0
  7  8  2  0
  8  3  1  0
M  END

$$$$
No_1404-/dssg/home/sw_qyf/PocketFlow/Model-Generation-Results/5HT2A_7WC7_rec_A_10.pdb/2024-01-01-03-54-21/
     RDKit          3D

 35 37  0  0  0  0  0  0  0  0999 V2000
  -24.1553  -17.8465  145.7021 C   0  0  0  0  0  0  0  0  0  0  0  0
  -24.6364  -17.2931  146.7091 C   0  0  0  0  0  0  0  0  0  0  0  0
  -24.0780  -17.2921  147.9389 C   0  0  0  0  0  0  0  0  0  0  0  0
  -24.6761  -16.7363  149.1478 C   0  0  0  0  0  0  0  0  0  0  0  0
  -25.9985  -16.2638  148.9932 C   0  0  0  0  0  0  0  0  0  0  0  0
  -26.6270  -16.3412  147.7728 C   0  0  0  0  0  0  0  0  0  0  0  0
  -25.9734  -16.9165  146.6819 C   0  0  0  0  0  0  0  0  0  0  0  0
  -23.8064  -16.8947  144.5712 C   0  0  0  0  0  0  0  0  0  0  0  0
  -24.1209  -15.5392  145.0034 C   0  0  0  0  0  0  0  0  0  0  0  0
  -23.9853  -14.6043  144.3094 C   0  0  0  0  0  0  0  0  0  0  0  0
  -24.2555  -13.1517  144.7832 C   0  0  0  0  0  0  0  0  0  0  0  0
  -24.8006  -13.0477  146.1223 C   0  0  0  0  0  0  0  0  0  0  0  0
  -24.9036  -14.2478  146.9338 C   0  0  0  0  0  0  0  0  0  0  0  0
  -24.5843  -15.3578  146.3632 C   0  0  0  0  0  0  0  0  0  0  0  0
  -22.8502  -15.1073  147.2888 P   0  0  0  0  0  0  0  0  0  0  0  0
  -21.7610  -15.9256  146.8403 O   0  0  0  0  0  0  0  0  0  0  0  0
  -22.9473  -14.2237  148.2603 O   0  0  0  0  0  0  0  0  0  0  0  0
  -23.6515  -15.3207  148.1478 O   0  0  0  0  0  0  0  0  0  0  0  0
  -22.5876  -15.6100  149.4379 Cl  0  0  0  0  0  0  0  0  0  0  0  0
  -23.5269  -13.3128  148.1788 F   0  0  0  0  0  0  0  0  0  0  0  0
  -26.4641  -14.3863  146.4094 O   0  0  0  0  0  0  0  0  0  0  0  0
  -27.2001  -13.3235  146.8383 C   0  0  0  0  0  0  0  0  0  0  0  0
  -28.6421  -13.5729  146.8461 C   0  0  0  0  0  0  0  0  0  0  0  0
  -29.4513  -12.4792  147.2432 C   0  0  0  0  0  0  0  0  0  0  0  0
  -30.8259  -12.6504  147.4753 C   0  0  0  0  0  0  0  0  0  0  0  0
  -30.8902  -13.2302  148.7006 C   0  0  0  0  0  0  0  0  0  0  0  0
  -32.1294  -13.2233  149.4090 C   0  0  0  0  0  0  0  0  0  0  0  0
  -32.2717  -13.7804  150.7092 C   0  0  0  0  0  0  0  0  0  0  0  0
  -31.5675  -14.9951  150.9509 C   0  0  0  0  0  0  0  0  0  0  0  0
  -30.3794  -15.2163  150.0913 C   0  0  0  0  0  0  0  0  0  0  0  0
  -30.1685  -14.4110  148.9469 C   0  0  0  0  0  0  0  0  0  0  0  0
  -33.0068  -12.1374  149.2213 O   0  0  0  0  0  0  0  0  0  0  0  0
  -24.8329  -17.9657  149.9303 O   0  0  0  0  0  0  0  0  0  0  0  0
  -24.0140  -19.2692  145.5371 C   0  0  0  0  0  0  0  0  0  0  0  0
  -23.7735  -12.1278  146.7307 O   0  0  0  0  0  0  0  0  0  0  0  0
  1  2  1  0
  1  8  1  0
  8  9  1  0
 14 15  1  0
 15 16  2  0
 15 17  1  0
 15 18  1  0
 18 19  1  0
 17 20  1  0
 13 21  1  0
 21 22  1  0
 22 23  1  0
 23 24  2  3
 24 25  1  0
 27 32  1  0
  4 33  1  0
  1 34  1  0
 12 35  1  0
 25 26  1  0
 26 27  2  0
 27 28  1  0
 28 29  2  0
 29 30  1  0
 30 31  2  0
 31 26  1  0
  2  3  2  0
  3  4  1  0
  4  5  2  0
  5  6  1  0
  6  7  2  0
  7  2  1  0
  9 10  2  0
 10 11  1  0
 11 12  2  0
 12 13  1  0
 13 14  2  0
 14  9  1  0
M  END

$$$$
No_1405-/dssg/home/sw_qyf/PocketFlow/Model-Generation-Results/5HT2A_7WC7_rec_A_10.pdb/2024-01-01-03-54-21/
     RDKit          3D

 21 23  0  0  0  0  0  0  0  0999 V2000
  -23.1746  -16.6014  144.8668 C   0  0  0  0  0  0  0  0  0  0  0  0
  -23.8963  -15.5346  144.7885 C   0  0  0  0  0  0  0  0  0  0  0  0
  -24.5755  -15.0383  145.9043 C   0  0  0  0  0  0  0  0  0  0  0  0
  -25.3266  -13.7882  145.9354 C   0  0  0  0  0  0  0  0  0  0  0  0
  -23.3054  -17.4825  145.9483 C   0  0  0  0  0  0  0  0  0  0  0  0
  -23.9717  -17.0786  147.1155 C   0  0  0  0  0  0  0  0  0  0  0  0
  -24.6279  -15.8542  147.1153 C   0  0  0  0  0  0  0  0  0  0  0  0
  -26.2636  -13.4205  145.9056 C   0  0  0  0  0  0  0  0  0  0  0  0
  -26.8841  -12.0742  145.9059 C   0  0  0  0  0  0  0  0  0  0  0  0
  -25.9549  -11.0719  145.6116 C   0  0  0  0  0  0  0  0  0  0  0  0
  -24.2126  -12.5642  146.1013 C   0  0  0  0  0  0  0  0  0  0  0  0
  -24.6196  -11.3063  145.8746 C   0  0  0  0  0  0  0  0  0  0  0  0
  -28.3497  -11.8517  145.7502 C   0  0  0  0  0  0  0  0  0  0  0  0
  -29.2181  -12.4474  146.7397 C   0  0  0  0  0  0  0  0  0  0  0  0
  -29.2952  -13.7290  147.1299 C   0  0  0  0  0  0  0  0  0  0  0  0
  -30.3022  -14.1231  148.0878 C   0  0  0  0  0  0  0  0  0  0  0  0
  -31.0351  -13.1968  148.8174 C   0  0  0  0  0  0  0  0  0  0  0  0
  -30.9372  -11.8287  148.4144 C   0  0  0  0  0  0  0  0  0  0  0  0
  -30.0978  -11.3894  147.4124 C   0  0  0  0  0  0  0  0  0  0  0  0
  -28.8447  -11.1422  144.6498 C   0  0  0  0  0  0  0  0  0  0  0  0
  -29.8593  -10.4802  144.8186 O   0  0  0  0  0  0  0  0  0  0  0  0
  3  4  1  0
  9 13  1  0
 13 14  1  0
 13 20  1  0
 20 21  2  0
  1  2  2  0
  2  3  1  0
  3  7  2  0
  7  6  1  0
  6  5  2  0
  5  1  1  0
  4  8  2  0
  8  9  1  0
  9 10  2  0
 10 12  1  0
 12 11  2  0
 11  4  1  0
 14 15  2  0
 15 16  1  0
 16 17  2  0
 17 18  1  0
 18 19  2  0
 19 14  1  0
M  END

$$$$
No_1406-/dssg/home/sw_qyf/PocketFlow/Model-Generation-Results/5HT2A_7WC7_rec_A_10.pdb/2024-01-01-03-54-21/
     RDKit          3D

 35 38  0  0  0  0  0  0  0  0999 V2000
  -23.1746  -16.6014  144.8668 C   0  0  0  0  0  0  0  0  0  0  0  0
  -23.8963  -15.5346  144.7885 C   0  0  0  0  0  0  0  0  0  0  0  0
  -24.5755  -15.0383  145.9043 C   0  0  0  0  0  0  0  0  0  0  0  0
  -25.3266  -13.7882  145.9354 C   0  0  0  0  0  0  0  0  0  0  0  0
  -23.3055  -17.4826  145.9483 C   0  0  0  0  0  0  0  0  0  0  0  0
  -23.9717  -17.0786  147.1155 C   0  0  0  0  0  0  0  0  0  0  0  0
  -24.6279  -15.8543  147.1153 C   0  0  0  0  0  0  0  0  0  0  0  0
  -25.8437  -13.2945  144.9179 C   0  0  0  0  0  0  0  0  0  0  0  0
  -26.5515  -12.0350  144.9228 C   0  0  0  0  0  0  0  0  0  0  0  0
  -27.3793  -11.5521  143.9200 C   0  0  0  0  0  0  0  0  0  0  0  0
  -28.3155  -10.5152  144.2256 C   0  0  0  0  0  0  0  0  0  0  0  0
  -28.6816   -9.5321  143.3536 C   0  0  0  0  0  0  0  0  0  0  0  0
  -28.8154   -9.9301  141.9869 C   0  0  0  0  0  0  0  0  0  0  0  0
  -29.4625   -9.1349  141.0666 C   0  0  0  0  0  0  0  0  0  0  0  0
  -28.8896   -8.7904  139.8348 C   0  0  0  0  0  0  0  0  0  0  0  0
  -28.0075   -9.7277  139.2809 C   0  0  0  0  0  0  0  0  0  0  0  0
  -27.4691   -9.5959  138.0690 C   0  0  0  0  0  0  0  0  0  0  0  0
  -27.5136  -10.8322  140.1473 C   0  0  0  0  0  0  0  0  0  0  0  0
  -27.8812  -10.9062  141.5275 C   0  0  0  0  0  0  0  0  0  0  0  0
  -27.2063  -11.7340  142.5204 C   0  0  0  0  0  0  0  0  0  0  0  0
  -28.0525   -8.5211  137.1941 C   0  0  0  0  0  0  0  0  0  0  0  0
  -27.2296  -12.1919  146.3991 C   0  0  0  0  0  0  0  0  0  0  0  0
  -23.9601  -17.8621  148.3863 C   0  0  0  0  0  0  0  0  0  0  0  0
  -24.5514  -17.0380  149.2807 F   0  0  0  0  0  0  0  0  0  0  0  0
  -24.7040  -18.9089  148.3049 F   0  0  0  0  0  0  0  0  0  0  0  0
  -26.6408  -13.4502  146.9296 C   0  0  0  0  0  0  0  0  0  0  0  0
  -22.7330  -18.0749  148.7849 F   0  0  0  0  0  0  0  0  0  0  0  0
  -30.7941   -8.7274  141.2065 C   0  0  0  0  0  0  0  0  0  0  0  0
  -31.1614   -7.6028  140.8076 F   0  0  0  0  0  0  0  0  0  0  0  0
  -30.8596   -8.4912  142.7519 F   0  0  0  0  0  0  0  0  0  0  0  0
  -23.8909  -14.7144  143.7559 O   0  0  0  0  0  0  0  0  0  0  0  0
  -26.6406  -11.6707  139.7475 O   0  0  0  0  0  0  0  0  0  0  0  0
  -27.0158  -12.5365  138.7594 C   0  0  0  0  0  0  0  0  0  0  0  0
  -29.0991   -8.8878  136.3532 O   0  0  0  0  0  0  0  0  0  0  0  0
  -25.4433  -10.8982  145.2412 C   0  0  0  0  0  0  0  0  0  0  0  0
  3  4  1  0
  4  8  2  0
  8  9  1  0
  9 10  1  0
 10 11  1  0
 11 12  1  0
 12 13  1  0
 16 17  1  0
 10 20  1  0
 19 20  1  0
 17 21  2  3
  9 22  1  0
  6 23  1  0
 23 24  1  0
 23 25  1  0
  4 26  1  0
 22 26  1  0
 23 27  1  0
 14 28  1  0
 28 29  1  0
 28 30  1  0
  2 31  1  0
 18 32  1  0
 32 33  1  0
 21 34  1  0
  9 35  1  0
 13 14  2  0
 14 15  1  0
 15 16  2  0
 16 18  1  0
 18 19  2  0
 19 13  1  0
  1  2  2  0
  2  3  1  0
  3  7  2  0
  7  6  1  0
  6  5  2  0
  5  1  1  0
M  END

$$$$
No_1407-/dssg/home/sw_qyf/PocketFlow/Model-Generation-Results/5HT2A_7WC7_rec_A_10.pdb/2024-01-01-03-54-21/
     RDKit          3D

 13 13  0  0  0  0  0  0  0  0999 V2000
  -24.1553  -17.8465  145.7021 C   0  0  0  0  0  0  0  0  0  0  0  0
  -24.2856  -16.6364  145.3494 C   0  0  0  0  0  0  0  0  0  0  0  0
  -24.7211  -15.5955  146.2115 C   0  0  0  0  0  0  0  0  0  0  0  0
  -24.8539  -14.2010  145.8739 C   0  0  0  0  0  0  0  0  0  0  0  0
  -25.3912  -13.2248  146.7184 C   0  0  0  0  0  0  0  0  0  0  0  0
  -24.5931  -18.2699  146.9809 C   0  0  0  0  0  0  0  0  0  0  0  0
  -24.9237  -17.2241  147.8560 C   0  0  0  0  0  0  0  0  0  0  0  0
  -25.0433  -15.8471  147.5323 C   0  0  0  0  0  0  0  0  0  0  0  0
  -24.3961  -13.8118  144.5294 C   0  0  0  0  0  0  0  0  0  0  0  0
  -25.4117  -11.8367  146.2823 C   0  0  0  0  0  0  0  0  0  0  0  0
  -25.2346  -11.5747  144.8844 C   0  0  0  0  0  0  0  0  0  0  0  0
  -23.8710  -14.6694  143.8194 O   0  0  0  0  0  0  0  0  0  0  0  0
  -24.6373  -12.4301  144.1587 C   0  0  0  0  0  0  0  0  0  0  0  0
  3  4  1  0
  4  5  1  0
  4  9  1  0
  5 10  1  0
 10 11  2  3
  9 12  2  0
 11 13  1  0
  1  2  2  0
  2  3  1  0
  3  8  2  0
  8  7  1  0
  7  6  2  0
  6  1  1  0
M  END

$$$$
No_1408-/dssg/home/sw_qyf/PocketFlow/Model-Generation-Results/5HT2A_7WC7_rec_A_10.pdb/2024-01-01-03-54-21/
     RDKit          3D

 28 30  0  0  0  0  0  0  0  0999 V2000
  -24.1553  -17.8465  145.7021 C   0  0  0  0  0  0  0  0  0  0  0  0
  -24.6364  -17.2931  146.7091 C   0  0  0  0  0  0  0  0  0  0  0  0
  -24.0780  -17.2921  147.9389 C   0  0  0  0  0  0  0  0  0  0  0  0
  -24.6761  -16.7363  149.1478 C   0  0  0  0  0  0  0  0  0  0  0  0
  -25.9985  -16.2638  148.9932 C   0  0  0  0  0  0  0  0  0  0  0  0
  -26.6270  -16.3412  147.7728 C   0  0  0  0  0  0  0  0  0  0  0  0
  -25.9734  -16.9165  146.6819 C   0  0  0  0  0  0  0  0  0  0  0  0
  -23.8394  -16.9427  144.6493 N   0  0  0  0  0  0  0  0  0  0  0  0
  -23.4496  -18.9522  145.5944 O   0  0  0  0  0  0  0  0  0  0  0  0
  -28.0545  -15.9001  147.7390 C   0  0  0  0  0  0  0  0  0  0  0  0
  -29.0997  -16.4486  148.3437 C   0  0  0  0  0  0  0  0  0  0  0  0
  -28.3005  -14.7183  146.9329 C   0  0  0  0  0  0  0  0  0  0  0  0
  -27.4067  -13.9052  146.2416 C   0  0  0  0  0  0  0  0  0  0  0  0
  -27.7324  -12.7589  145.6638 C   0  0  0  0  0  0  0  0  0  0  0  0
  -29.0230  -12.1992  145.8699 C   0  0  0  0  0  0  0  0  0  0  0  0
  -29.8708  -12.9064  146.7543 C   0  0  0  0  0  0  0  0  0  0  0  0
  -29.5811  -14.0753  147.3037 C   0  0  0  0  0  0  0  0  0  0  0  0
  -29.2690  -10.8981  145.1322 C   0  0  0  0  0  0  0  0  0  0  0  0
  -29.2485  -10.7371  143.9257 C   0  0  0  0  0  0  0  0  0  0  0  0
  -29.6680   -9.5673  143.2408 C   0  0  0  0  0  0  0  0  0  0  0  0
  -30.9024   -8.9613  143.6048 C   0  0  0  0  0  0  0  0  0  0  0  0
  -31.1467   -7.7074  142.9503 C   0  0  0  0  0  0  0  0  0  0  0  0
  -30.2832   -7.5594  141.7655 C   0  0  0  0  0  0  0  0  0  0  0  0
  -30.0788   -8.3604  140.9048 C   0  0  0  0  0  0  0  0  0  0  0  0
  -29.3087   -7.9642  139.7318 C   0  0  0  0  0  0  0  0  0  0  0  0
  -28.2494   -8.7345  139.2496 C   0  0  0  0  0  0  0  0  0  0  0  0
  -27.8129   -8.5431  137.9529 C   0  0  0  0  0  0  0  0  0  0  0  0
  -29.0416   -9.2992  141.9088 C   0  0  0  0  0  0  0  0  0  0  0  0
  1  2  1  0
  1  8  1  0
  1  9  2  0
  6 10  1  0
 10 11  2  0
 10 12  1  0
 15 18  1  0
 18 19  2  3
 19 20  1  0
 20 21  1  0
 21 22  1  0
 22 23  1  0
 23 24  1  0
 24 25  1  0
 25 26  2  3
 26 27  1  0
 20 28  1  0
 24 28  1  0
 12 13  2  0
 13 14  1  0
 14 15  2  0
 15 16  1  0
 16 17  2  0
 17 12  1  0
  2  3  2  0
  3  4  1  0
  4  5  2  0
  5  6  1  0
  6  7  2  0
  7  2  1  0
M  END

$$$$
No_1409-/dssg/home/sw_qyf/PocketFlow/Model-Generation-Results/5HT2A_7WC7_rec_A_10.pdb/2024-01-01-03-54-21/
     RDKit          3D

 21 22  0  0  0  0  0  0  0  0999 V2000
  -24.1553  -17.8465  145.7021 C   0  0  0  0  0  0  0  0  0  0  0  0
  -24.6364  -17.2931  146.7091 C   0  0  0  0  0  0  0  0  0  0  0  0
  -24.0780  -17.2921  147.9389 C   0  0  0  0  0  0  0  0  0  0  0  0
  -24.6761  -16.7363  149.1478 C   0  0  0  0  0  0  0  0  0  0  0  0
  -25.9985  -16.2638  148.9932 C   0  0  0  0  0  0  0  0  0  0  0  0
  -26.6270  -16.3412  147.7728 C   0  0  0  0  0  0  0  0  0  0  0  0
  -25.9734  -16.9165  146.6819 C   0  0  0  0  0  0  0  0  0  0  0  0
  -23.5997  -19.0159  145.5545 N   0  0  0  0  0  0  0  0  0  0  0  0
  -23.8309  -16.9040  144.5155 C   0  0  0  0  0  0  0  0  0  0  0  0
  -24.3018  -15.5326  144.6806 C   0  0  0  0  0  0  0  0  0  0  0  0
  -23.4393  -14.4681  144.6879 C   0  0  0  0  0  0  0  0  0  0  0  0
  -24.0264  -13.1042  144.8148 C   0  0  0  0  0  0  0  0  0  0  0  0
  -25.3970  -12.9335  145.0676 C   0  0  0  0  0  0  0  0  0  0  0  0
  -25.8728  -11.6583  145.3797 C   0  0  0  0  0  0  0  0  0  0  0  0
  -27.2693  -11.4858  145.7164 C   0  0  0  0  0  0  0  0  0  0  0  0
  -28.0790  -10.6687  144.9781 C   0  0  0  0  0  0  0  0  0  0  0  0
  -29.5398  -10.7303  144.9313 C   0  0  0  0  0  0  0  0  0  0  0  0
  -29.9781  -11.4617  146.0861 N   0  0  0  0  0  0  0  0  0  0  0  0
  -29.2419  -12.1957  146.9262 C   0  0  0  0  0  0  0  0  0  0  0  0
  -29.7118  -12.8946  147.8824 N   0  0  0  0  0  0  0  0  0  0  0  0
  -27.8064  -12.2077  146.7613 C   0  0  0  0  0  0  0  0  0  0  0  0
  1  2  1  0
  1  8  2  0
  1  9  1  0
  9 10  1  0
 10 11  3  0
 11 12  1  0
 12 13  2  3
 13 14  1  0
 14 15  1  0
 19 20  1  0
  2  3  2  0
  3  4  1  0
  4  5  2  0
  5  6  1  0
  6  7  2  0
  7  2  1  0
 15 16  2  0
 16 17  1  0
 17 18  2  0
 18 19  1  0
 19 21  2  0
 21 15  1  0
M  END

$$$$
No_1410-/dssg/home/sw_qyf/PocketFlow/Model-Generation-Results/5HT2A_7WC7_rec_A_10.pdb/2024-01-01-03-54-21/
     RDKit          3D

 35 38  0  0  0  0  0  0  0  0999 V2000
  -23.1746  -16.6014  144.8668 C   0  0  0  0  0  0  0  0  0  0  0  0
  -23.8963  -15.5346  144.7885 C   0  0  0  0  0  0  0  0  0  0  0  0
  -23.4976  -14.2961  145.1226 C   0  0  0  0  0  0  0  0  0  0  0  0
  -24.3175  -13.3088  145.7775 C   0  0  0  0  0  0  0  0  0  0  0  0
  -23.7843  -12.0647  146.2451 C   0  0  0  0  0  0  0  0  0  0  0  0
  -23.7450  -17.8171  145.1307 C   0  0  0  0  0  0  0  0  0  0  0  0
  -24.7895  -17.8163  146.2105 C   0  0  0  0  0  0  0  0  0  0  0  0
  -25.7632  -16.8161  146.1887 C   0  0  0  0  0  0  0  0  0  0  0  0
  -25.2297  -15.5374  145.6897 C   0  0  0  0  0  0  0  0  0  0  0  0
  -25.1105  -14.1981  146.4969 C   0  0  0  0  0  0  0  0  0  0  0  0
  -27.0633  -16.7695  146.5056 C   0  0  0  0  0  0  0  0  0  0  0  0
  -27.8438  -16.8001  145.6964 F   0  0  0  0  0  0  0  0  0  0  0  0
  -27.3023  -15.7305  147.4243 F   0  0  0  0  0  0  0  0  0  0  0  0
  -27.4021  -17.7696  147.4702 F   0  0  0  0  0  0  0  0  0  0  0  0
  -22.6121  -13.5395  144.0939 C   0  0  0  0  0  0  0  0  0  0  0  0
  -21.8893  -12.5156  144.4531 O   0  0  0  0  0  0  0  0  0  0  0  0
  -22.7139  -11.5030  145.2865 C   0  0  0  0  0  0  0  0  0  0  0  0
  -22.8035  -18.8536  145.5800 O   0  0  0  0  0  0  0  0  0  0  0  0
  -22.7996  -18.8946  147.0120 C   0  0  0  0  0  0  0  0  0  0  0  0
  -23.5687  -17.8002  147.5599 C   0  0  0  0  0  0  0  0  0  0  0  0
  -24.3820  -18.1645  148.6833 O   0  0  0  0  0  0  0  0  0  0  0  0
  -24.5556  -17.2252  149.9302 P   0  0  0  0  0  0  0  0  0  0  0  0
  -25.8903  -16.8911  150.0363 O   0  0  0  0  0  0  0  0  0  0  0  0
  -23.6692  -16.0581  149.7209 O   0  0  0  0  0  0  0  0  0  0  0  0
  -24.0530  -18.0078  151.1532 O   0  0  0  0  0  0  0  0  0  0  0  0
  -25.5688  -17.0053  145.1792 Cl  0  0  0  0  0  0  0  0  0  0  0  0
  -25.4180  -12.6023  144.6902 C   0  0  0  0  0  0  0  0  0  0  0  0
  -26.5738  -13.4354  144.5644 C   0  0  0  0  0  0  0  0  0  0  0  0
  -27.4045  -12.7778  143.5035 C   0  0  0  0  0  0  0  0  0  0  0  0
  -27.0838  -11.5235  143.0364 C   0  0  0  0  0  0  0  0  0  0  0  0
  -28.0531  -11.0521  142.0416 C   0  0  0  0  0  0  0  0  0  0  0  0
  -28.9593   -9.9910  142.2987 C   0  0  0  0  0  0  0  0  0  0  0  0
  -29.9320  -10.1093  143.2679 C   0  0  0  0  0  0  0  0  0  0  0  0
  -30.8797   -9.0135  143.4500 C   0  0  0  0  0  0  0  0  0  0  0  0
  -30.5899   -7.8587  142.6284 C   0  0  0  0  0  0  0  0  0  0  0  0
  1  2  2  0
  2  3  1  0
  3  4  1  0
  4  5  1  0
  1  6  1  0
  6  7  2  0
  7  8  1  0
  2  9  1  0
  8  9  1  0
  4 10  1  0
  9 10  1  0
  8 11  1  0
 11 12  1  0
 11 13  1  0
 11 14  1  0
  3 15  1  0
 15 16  1  0
  5 17  1  0
 16 17  1  0
  6 18  1  0
 18 19  1  0
  7 20  1  0
 19 20  1  0
 20 21  1  0
 21 22  1  0
 22 23  1  0
 22 24  2  0
 22 25  1  0
  8 26  1  0
  4 27  1  0
 27 28  1  0
 28 29  2  3
 29 30  1  0
 30 31  1  0
 31 32  1  0
 32 33  1  0
 33 34  1  0
 34 35  1  0
M  END

$$$$
No_1411-/dssg/home/sw_qyf/PocketFlow/Model-Generation-Results/5HT2A_7WC7_rec_A_10.pdb/2024-01-01-03-54-21/
     RDKit          3D

 32 34  0  0  0  0  0  0  0  0999 V2000
  -24.1553  -17.8465  145.7021 C   0  0  0  0  0  0  0  0  0  0  0  0
  -24.2856  -16.6364  145.3494 C   0  0  0  0  0  0  0  0  0  0  0  0
  -25.0033  -15.6772  146.0737 C   0  0  0  0  0  0  0  0  0  0  0  0
  -25.7224  -16.0756  147.0213 C   0  0  0  0  0  0  0  0  0  0  0  0
  -26.8990  -15.4143  147.4599 C   0  0  0  0  0  0  0  0  0  0  0  0
  -24.9748  -18.4281  146.7368 C   0  0  0  0  0  0  0  0  0  0  0  0
  -25.7912  -17.4717  147.3794 C   0  0  0  0  0  0  0  0  0  0  0  0
  -24.9527  -14.2239  145.6410 C   0  0  0  0  0  0  0  0  0  0  0  0
  -23.9309  -13.4688  146.1592 C   0  0  0  0  0  0  0  0  0  0  0  0
  -23.7466  -12.1133  145.6124 C   0  0  0  0  0  0  0  0  0  0  0  0
  -25.7328  -13.7848  144.6167 C   0  0  0  0  0  0  0  0  0  0  0  0
  -26.6416  -12.6265  144.7973 C   0  0  0  0  0  0  0  0  0  0  0  0
  -26.2859  -11.4095  144.3365 C   0  0  0  0  0  0  0  0  0  0  0  0
  -25.0271  -11.0497  145.4304 C   0  0  0  0  0  0  0  0  0  0  0  0
  -23.4645  -16.1508  144.3643 F   0  0  0  0  0  0  0  0  0  0  0  0
  -27.2182  -10.2535  144.6446 C   0  0  0  0  0  0  0  0  0  0  0  0
  -27.9752   -9.8448  143.4666 C   0  0  0  0  0  0  0  0  0  0  0  0
  -29.3284  -10.3017  143.4734 C   0  0  0  0  0  0  0  0  0  0  0  0
  -30.1919  -10.0347  144.4155 C   0  0  0  0  0  0  0  0  0  0  0  0
  -30.1570   -9.0542  144.8762 O   0  0  0  0  0  0  0  0  0  0  0  0
  -29.8146   -9.9283  142.1881 O   0  0  0  0  0  0  0  0  0  0  0  0
  -29.1133  -10.0889  141.1396 C   0  0  0  0  0  0  0  0  0  0  0  0
  -28.1218  -10.9980  141.1018 C   0  0  0  0  0  0  0  0  0  0  0  0
  -27.3329  -11.1952  139.8772 C   0  0  0  0  0  0  0  0  0  0  0  0
  -26.5980  -12.3775  139.6199 C   0  0  0  0  0  0  0  0  0  0  0  0
  -25.8785  -12.4079  138.4948 O   0  0  0  0  0  0  0  0  0  0  0  0
  -26.6836  -13.3445  140.4253 O   0  0  0  0  0  0  0  0  0  0  0  0
  -27.2739  -10.1792  139.0526 O   0  0  0  0  0  0  0  0  0  0  0  0
  -28.3782   -9.4875  138.7568 C   0  0  0  0  0  0  0  0  0  0  0  0
  -28.9703   -8.9269  140.0866 C   0  0  0  0  0  0  0  0  0  0  0  0
  -29.4820   -7.6601  140.2859 C   0  0  0  0  0  0  0  0  0  0  0  0
  -29.2688   -6.7909  139.4721 O   0  0  0  0  0  0  0  0  0  0  0  0
  4  5  1  0
  3  8  1  0
  8  9  1  0
  9 10  2  0
  8 11  1  0
 11 12  1  0
 12 13  1  0
 10 14  1  0
 13 14  1  0
  2 15  1  0
 13 16  1  0
 16 17  1  0
 17 18  1  0
 18 19  1  0
 19 20  1  0
 18 21  1  0
 21 22  1  0
 22 23  1  0
 23 24  2  0
 24 25  1  0
 25 26  1  0
 25 27  2  0
 24 28  1  0
 28 29  1  0
 22 30  1  0
 29 30  1  0
 30 31  1  0
 31 32  2  0
  1  2  2  0
  2  3  1  0
  3  4  2  0
  4  7  1  0
  7  6  2  0
  6  1  1  0
M  END

$$$$
No_1412-/dssg/home/sw_qyf/PocketFlow/Model-Generation-Results/5HT2A_7WC7_rec_A_10.pdb/2024-01-01-03-54-21/
     RDKit          3D

 15 15  0  0  0  0  0  0  0  0999 V2000
  -24.1553  -17.8465  145.7021 C   0  0  0  0  0  0  0  0  0  0  0  0
  -23.9795  -18.4462  146.7426 C   0  0  0  0  0  0  0  0  0  0  0  0
  -25.1196  -16.8106  145.6409 C   0  0  0  0  0  0  0  0  0  0  0  0
  -25.2440  -15.8776  144.5240 C   0  0  0  0  0  0  0  0  0  0  0  0
  -26.0733  -14.7284  144.7061 C   0  0  0  0  0  0  0  0  0  0  0  0
  -27.0964  -14.7050  145.6625 C   0  0  0  0  0  0  0  0  0  0  0  0
  -28.0285  -13.6627  145.7566 C   0  0  0  0  0  0  0  0  0  0  0  0
  -28.9375  -13.4769  146.8575 C   0  0  0  0  0  0  0  0  0  0  0  0
  -29.5655  -12.2537  147.1332 C   0  0  0  0  0  0  0  0  0  0  0  0
  -30.2614  -12.1280  148.2693 F   0  0  0  0  0  0  0  0  0  0  0  0
  -26.1120  -16.5439  146.7243 C   0  0  0  0  0  0  0  0  0  0  0  0
  -27.0806  -15.6012  146.7106 C   0  0  0  0  0  0  0  0  0  0  0  0
  -28.6365  -11.1833  147.2959 F   0  0  0  0  0  0  0  0  0  0  0  0
  -30.2005  -11.7450  146.0126 F   0  0  0  0  0  0  0  0  0  0  0  0
  -22.7566  -19.1054  146.8342 N   0  0  0  0  0  0  0  0  0  0  0  0
  1  2  2  3
  1  3  1  0
  6  7  1  0
  7  8  1  0
  8  9  1  0
  9 10  1  0
  9 13  1  0
  9 14  1  0
  2 15  1  0
  3  4  2  0
  4  5  1  0
  5  6  2  0
  6 12  1  0
 12 11  2  0
 11  3  1  0
M  END

$$$$
No_1413-/dssg/home/sw_qyf/PocketFlow/Model-Generation-Results/5HT2A_7WC7_rec_A_10.pdb/2024-01-01-03-54-21/
     RDKit          3D

 35 37  0  0  0  0  0  0  0  0999 V2000
  -24.1553  -17.8465  145.7021 C   0  0  0  0  0  0  0  0  0  0  0  0
  -24.6364  -17.2931  146.7091 C   0  0  0  0  0  0  0  0  0  0  0  0
  -24.0780  -17.2921  147.9389 C   0  0  0  0  0  0  0  0  0  0  0  0
  -22.7158  -17.6979  148.0096 C   0  0  0  0  0  0  0  0  0  0  0  0
  -22.1536  -18.1706  146.8775 N   0  0  0  0  0  0  0  0  0  0  0  0
  -22.7983  -18.2156  145.7533 C   0  0  0  0  0  0  0  0  0  0  0  0
  -26.1028  -16.8235  146.6925 C   0  0  0  0  0  0  0  0  0  0  0  0
  -26.2976  -15.7874  145.8094 C   0  0  0  0  0  0  0  0  0  0  0  0
  -26.1894  -14.4303  146.3047 C   0  0  0  0  0  0  0  0  0  0  0  0
  -26.4743  -13.2760  145.5483 C   0  0  0  0  0  0  0  0  0  0  0  0
  -26.1219  -13.2291  144.2739 C   0  0  0  0  0  0  0  0  0  0  0  0
  -27.3121  -12.9457  143.3766 C   0  0  0  0  0  0  0  0  0  0  0  0
  -27.0655  -13.0955  141.9562 C   0  0  0  0  0  0  0  0  0  0  0  0
  -27.9578  -12.5377  141.0392 C   0  0  0  0  0  0  0  0  0  0  0  0
  -27.3341  -11.4594  140.2036 C   0  0  0  0  0  0  0  0  0  0  0  0
  -28.0036  -10.1987  140.1456 C   0  0  0  0  0  0  0  0  0  0  0  0
  -28.5427   -9.6316  141.2626 C   0  0  0  0  0  0  0  0  0  0  0  0
  -28.5882  -10.1494  142.5031 C   0  0  0  0  0  0  0  0  0  0  0  0
  -29.3895   -9.5216  143.5407 C   0  0  0  0  0  0  0  0  0  0  0  0
  -30.6421   -9.4308  143.3962 C   0  0  0  0  0  0  0  0  0  0  0  0
  -31.0163   -8.8164  142.3710 O   0  0  0  0  0  0  0  0  0  0  0  0
  -28.3465   -9.6119  138.8631 C   0  0  0  0  0  0  0  0  0  0  0  0
  -28.7588   -8.2294  138.7850 C   0  0  0  0  0  0  0  0  0  0  0  0
  -29.3174   -7.6126  139.9955 C   0  0  0  0  0  0  0  0  0  0  0  0
  -29.2011   -8.3094  141.2183 C   0  0  0  0  0  0  0  0  0  0  0  0
  -30.3675   -8.3005  141.3405 C   0  0  0  0  0  0  0  0  0  0  0  0
  -31.2942   -8.6923  144.6476 C   0  0  0  0  0  0  0  0  0  0  0  0
  -27.0870  -12.1964  146.2421 C   0  0  0  0  0  0  0  0  0  0  0  0
  -31.5491   -7.7573  140.4488 O   0  0  0  0  0  0  0  0  0  0  0  0
  -26.9512  -11.9762  138.9200 O   0  0  0  0  0  0  0  0  0  0  0  0
  -26.4496  -11.0650  146.2474 O   0  0  0  0  0  0  0  0  0  0  0  0
  -28.2814  -12.2572  146.7609 O   0  0  0  0  0  0  0  0  0  0  0  0
  -28.3611   -6.5403  139.9315 O   0  0  0  0  0  0  0  0  0  0  0  0
  -29.0317  -10.4070  144.7746 O   0  0  0  0  0  0  0  0  0  0  0  0
  -26.7282  -16.4470  148.0252 C   0  0  0  0  0  0  0  0  0  0  0  0
  2  7  1  0
  7  8  1  0
  8  9  1  0
  9 10  1  0
 10 11  1  0
 11 12  1  0
 12 13  1  0
 13 14  1  0
 14 15  1  0
 15 16  1  0
 18 19  1  0
 19 20  1  0
 20 21  1  0
 21 26  1  0
 25 26  1  0
 20 27  1  0
 10 28  1  0
 26 29  1  0
 15 30  1  0
 28 31  2  0
 28 32  1  0
 24 33  1  0
 19 34  1  0
  7 35  1  0
 18 17  1  0
  1  2  2  0
  2  3  1  0
  3  4  2  0
  4  5  1  0
  5  6  2  0
  6  1  1  0
 16 17  1  0
 17 25  2  0
 25 24  1  0
 24 23  2  0
 23 22  1  0
 22 16  2  0
M  END

$$$$
No_1414-/dssg/home/sw_qyf/PocketFlow/Model-Generation-Results/5HT2A_7WC7_rec_A_10.pdb/2024-01-01-03-54-21/
     RDKit          3D

 35 35  0  0  0  0  0  0  0  0999 V2000
  -23.1746  -16.6014  144.8668 C   0  0  0  0  0  0  0  0  0  0  0  0
  -23.8963  -15.5346  144.7885 C   0  0  0  0  0  0  0  0  0  0  0  0
  -23.6398  -14.5115  145.3281 C   0  0  0  0  0  0  0  0  0  0  0  0
  -24.3241  -13.3648  145.1282 C   0  0  0  0  0  0  0  0  0  0  0  0
  -23.8304  -12.0965  145.7921 C   0  0  0  0  0  0  0  0  0  0  0  0
  -25.3061  -13.1627  144.3112 O   0  0  0  0  0  0  0  0  0  0  0  0
  -23.6153  -17.8026  145.6028 C   0  0  0  0  0  0  0  0  0  0  0  0
  -23.5839  -17.5336  146.9891 C   0  0  0  0  0  0  0  0  0  0  0  0
  -24.7848  -17.6004  147.7852 C   0  0  0  0  0  0  0  0  0  0  0  0
  -25.8583  -16.8653  147.2594 C   0  0  0  0  0  0  0  0  0  0  0  0
  -26.8231  -16.4363  148.1852 C   0  0  0  0  0  0  0  0  0  0  0  0
  -27.4598  -17.3089  148.9037 C   0  0  0  0  0  0  0  0  0  0  0  0
  -28.6863  -16.6686  149.4671 C   0  0  0  0  0  0  0  0  0  0  0  0
  -29.5785  -16.0501  148.4437 C   0  0  0  0  0  0  0  0  0  0  0  0
  -29.8801  -14.6599  148.7579 C   0  0  0  0  0  0  0  0  0  0  0  0
  -30.0116  -13.7136  147.6630 C   0  0  0  0  0  0  0  0  0  0  0  0
  -30.1785  -12.3191  147.9997 C   0  0  0  0  0  0  0  0  0  0  0  0
  -29.6799  -11.3972  147.1941 O   0  0  0  0  0  0  0  0  0  0  0  0
  -30.3096  -11.1860  146.0240 C   0  0  0  0  0  0  0  0  0  0  0  0
  -29.4630  -10.3856  145.0827 C   0  0  0  0  0  0  0  0  0  0  0  0
  -28.0885  -10.6595  144.9317 C   0  0  0  0  0  0  0  0  0  0  0  0
  -27.2671   -9.8031  144.1608 C   0  0  0  0  0  0  0  0  0  0  0  0
  -27.9159   -8.8847  143.3744 C   0  0  0  0  0  0  0  0  0  0  0  0
  -30.0062   -9.3811  144.2339 C   0  0  0  0  0  0  0  0  0  0  0  0
  -29.2533   -8.6670  143.4357 C   0  0  0  0  0  0  0  0  0  0  0  0
  -29.8529   -7.5547  142.5950 C   0  0  0  0  0  0  0  0  0  0  0  0
  -30.3271   -7.9642  141.3225 C   0  0  0  0  0  0  0  0  0  0  0  0
  -29.5787   -7.5018  140.1576 C   0  0  0  0  0  0  0  0  0  0  0  0
  -29.2847   -8.4164  139.0768 C   0  0  0  0  0  0  0  0  0  0  0  0
  -28.1384   -7.9565  138.2237 C   0  0  0  0  0  0  0  0  0  0  0  0
  -26.5253  -13.7182  144.6908 C   0  0  0  0  0  0  0  0  0  0  0  0
  -27.4354  -14.1425  143.6921 C   0  0  0  0  0  0  0  0  0  0  0  0
  -26.8018  -13.9610  142.3993 C   0  0  0  0  0  0  0  0  0  0  0  0
  -27.5556  -13.2084  141.3183 C   0  0  0  0  0  0  0  0  0  0  0  0
  -26.8325  -12.6455  140.2546 C   0  0  0  0  0  0  0  0  0  0  0  0
  1  2  1  0
  2  3  2  3
  3  4  1  0
  4  5  1  0
  4  6  1  0
  1  7  1  0
  7  8  1  0
  8  9  1  0
  9 10  1  0
 10 11  1  0
 11 12  1  0
 12 13  1  0
 13 14  1  0
 14 15  1  0
 15 16  1  0
 16 17  1  0
 17 18  1  0
 18 19  1  0
 19 20  1  0
 25 26  1  0
 26 27  1  0
 27 28  1  0
 28 29  1  0
 29 30  1  0
  6 31  1  0
 31 32  1  0
 32 33  1  0
 33 34  1  0
 34 35  1  0
 20 21  2  0
 21 22  1  0
 22 23  2  0
 23 25  1  0
 25 24  2  0
 24 20  1  0
M  END

$$$$
No_1415-/dssg/home/sw_qyf/PocketFlow/Model-Generation-Results/5HT2A_7WC7_rec_A_10.pdb/2024-01-01-03-54-21/
     RDKit          3D

 35 37  0  0  0  0  0  0  0  0999 V2000
  -24.1553  -17.8465  145.7021 C   0  0  0  0  0  0  0  0  0  0  0  0
  -24.2856  -16.6364  145.3494 C   0  0  0  0  0  0  0  0  0  0  0  0
  -25.0033  -15.6772  146.0737 C   0  0  0  0  0  0  0  0  0  0  0  0
  -25.6964  -16.1810  147.2049 C   0  0  0  0  0  0  0  0  0  0  0  0
  -24.8143  -18.3454  146.8324 C   0  0  0  0  0  0  0  0  0  0  0  0
  -25.5292  -17.4614  147.6373 C   0  0  0  0  0  0  0  0  0  0  0  0
  -23.5978  -16.0422  144.1195 C   0  0  0  0  0  0  0  0  0  0  0  0
  -23.0216  -14.8224  144.3099 N   0  0  0  0  0  0  0  0  0  0  0  0
  -23.6895  -13.6785  144.0073 C   0  0  0  0  0  0  0  0  0  0  0  0
  -22.8744  -12.5786  144.4252 N   0  0  0  0  0  0  0  0  0  0  0  0
  -24.7835  -13.5757  143.6836 O   0  0  0  0  0  0  0  0  0  0  0  0
  -23.4453  -11.3659  145.0476 C   0  0  0  0  0  0  0  0  0  0  0  0
  -24.2110  -11.7534  146.2746 C   0  0  0  0  0  0  0  0  0  0  0  0
  -25.5562  -11.2933  146.4743 C   0  0  0  0  0  0  0  0  0  0  0  0
  -26.5702  -11.5714  145.5583 C   0  0  0  0  0  0  0  0  0  0  0  0
  -27.8372  -12.2184  146.1161 C   0  0  0  0  0  0  0  0  0  0  0  0
  -27.7836  -13.4624  146.6891 C   0  0  0  0  0  0  0  0  0  0  0  0
  -28.9171  -14.0931  147.2132 C   0  0  0  0  0  0  0  0  0  0  0  0
  -30.0790  -13.2938  147.3128 C   0  0  0  0  0  0  0  0  0  0  0  0
  -30.0791  -12.0074  146.8621 C   0  0  0  0  0  0  0  0  0  0  0  0
  -28.9333  -11.4254  146.2778 C   0  0  0  0  0  0  0  0  0  0  0  0
  -28.9185  -15.4619  147.6971 C   0  0  0  0  0  0  0  0  0  0  0  0
  -28.5395  -16.5440  146.9213 C   0  0  0  0  0  0  0  0  0  0  0  0
  -29.3892  -15.6933  149.0479 C   0  0  0  0  0  0  0  0  0  0  0  0
  -29.4084  -17.0393  149.5403 C   0  0  0  0  0  0  0  0  0  0  0  0
  -28.4579  -17.8276  147.5427 C   0  0  0  0  0  0  0  0  0  0  0  0
  -28.9021  -18.0017  148.8327 C   0  0  0  0  0  0  0  0  0  0  0  0
  -23.5301  -12.5347  147.2857 C   0  0  0  0  0  0  0  0  0  0  0  0
  -31.1944  -11.2485  147.2361 O   0  0  0  0  0  0  0  0  0  0  0  0
  -23.5232  -18.7905  144.9813 O   0  0  0  0  0  0  0  0  0  0  0  0
  -28.0057  -16.3485  145.7908 O   0  0  0  0  0  0  0  0  0  0  0  0
  -26.9783  -10.2834  144.7933 C   0  0  0  0  0  0  0  0  0  0  0  0
  -27.6164  -10.4879  143.4965 C   0  0  0  0  0  0  0  0  0  0  0  0
  -27.3738  -11.5410  142.7857 C   0  0  0  0  0  0  0  0  0  0  0  0
  -27.9978  -11.7480  141.5201 C   0  0  0  0  0  0  0  0  0  0  0  0
  2  7  1  0
  7  8  1  0
  8  9  1  0
  9 10  1  0
  9 11  2  0
 10 12  1  0
 12 13  1  0
 13 14  2  3
 14 15  1  0
 15 16  1  0
 18 22  1  0
 13 28  1  0
 20 29  1  0
  1 30  1  0
 23 31  1  0
 15 32  1  0
 32 33  1  0
 33 34  2  3
 34 35  1  0
  1  2  2  0
  2  3  1  0
  3  4  2  0
  4  6  1  0
  6  5  2  0
  5  1  1  0
 22 23  2  0
 23 26  1  0
 26 27  2  0
 27 25  1  0
 25 24  2  0
 24 22  1  0
 16 17  2  0
 17 18  1  0
 18 19  2  0
 19 20  1  0
 20 21  2  0
 21 16  1  0
M  END

$$$$
No_1416-/dssg/home/sw_qyf/PocketFlow/Model-Generation-Results/5HT2A_7WC7_rec_A_10.pdb/2024-01-01-03-54-21/
     RDKit          3D

 12 12  0  0  0  0  0  0  0  0999 V2000
  -24.1553  -17.8465  145.7021 C   0  0  0  0  0  0  0  0  0  0  0  0
  -23.9795  -18.4462  146.7426 C   0  0  0  0  0  0  0  0  0  0  0  0
  -25.1593  -16.8262  145.6925 C   0  0  0  0  0  0  0  0  0  0  0  0
  -24.9465  -15.5961  144.9952 C   0  0  0  0  0  0  0  0  0  0  0  0
  -25.8223  -14.4752  145.0170 C   0  0  0  0  0  0  0  0  0  0  0  0
  -27.0184  -14.6633  145.8014 C   0  0  0  0  0  0  0  0  0  0  0  0
  -27.3189  -15.8960  146.4009 C   0  0  0  0  0  0  0  0  0  0  0  0
  -26.3633  -16.9366  146.4299 C   0  0  0  0  0  0  0  0  0  0  0  0
  -24.0271  -17.6994  148.0567 C   0  0  0  0  0  0  0  0  0  0  0  0
  -24.0242  -17.2046  149.0016 C   0  0  0  0  0  0  0  0  0  0  0  0
  -23.9471  -16.7883  150.3857 C   0  0  0  0  0  0  0  0  0  0  0  0
  -23.7638  -15.3751  144.2927 N   0  0  0  0  0  0  0  0  0  0  0  0
  1  2  1  0
  1  3  1  0
  2  9  1  0
  9 10  3  0
 10 11  1  0
  4 12  1  0
  3  4  2  0
  4  5  1  0
  5  6  2  0
  6  7  1  0
  7  8  2  0
  8  3  1  0
M  END

$$$$
No_1417-/dssg/home/sw_qyf/PocketFlow/Model-Generation-Results/5HT2A_7WC7_rec_A_10.pdb/2024-01-01-03-54-21/
     RDKit          3D

 22 23  0  0  0  0  0  0  0  0999 V2000
  -23.1746  -16.6014  144.8668 C   0  0  0  0  0  0  0  0  0  0  0  0
  -24.0189  -16.0564  145.8445 C   0  0  0  0  0  0  0  0  0  0  0  0
  -24.4850  -14.7380  145.6359 C   0  0  0  0  0  0  0  0  0  0  0  0
  -25.2717  -14.0560  146.5949 C   0  0  0  0  0  0  0  0  0  0  0  0
  -25.5669  -12.6700  146.4456 C   0  0  0  0  0  0  0  0  0  0  0  0
  -25.1774  -11.9727  145.2644 C   0  0  0  0  0  0  0  0  0  0  0  0
  -24.2583  -12.6444  144.4323 C   0  0  0  0  0  0  0  0  0  0  0  0
  -23.9746  -14.0153  144.6649 C   0  0  0  0  0  0  0  0  0  0  0  0
  -24.4407  -16.8601  146.9515 C   0  0  0  0  0  0  0  0  0  0  0  0
  -23.9838  -18.0624  147.1984 C   0  0  0  0  0  0  0  0  0  0  0  0
  -23.2378  -18.6773  146.1978 C   0  0  0  0  0  0  0  0  0  0  0  0
  -22.8409  -18.0640  145.1127 N   0  0  0  0  0  0  0  0  0  0  0  0
  -25.4634  -10.7043  145.1425 O   0  0  0  0  0  0  0  0  0  0  0  0
  -26.7388  -10.4402  144.5028 C   0  0  0  0  0  0  0  0  0  0  0  0
  -27.3719  -11.2032  143.8661 C   0  0  0  0  0  0  0  0  0  0  0  0
  -27.7764  -12.3663  144.2285 C   0  0  0  0  0  0  0  0  0  0  0  0
  -27.7187  -10.7764  142.4878 C   0  0  0  0  0  0  0  0  0  0  0  0
  -27.6298  -11.5535  141.3606 C   0  0  0  0  0  0  0  0  0  0  0  0
  -27.8737  -11.1643  140.0761 C   0  0  0  0  0  0  0  0  0  0  0  0
  -28.0974   -9.7903  139.8296 C   0  0  0  0  0  0  0  0  0  0  0  0
  -28.1790   -9.2248  138.5470 C   0  0  0  0  0  0  0  0  0  0  0  0
  -28.3327   -7.7954  138.4189 C   0  0  0  0  0  0  0  0  0  0  0  0
  2  3  1  0
  6 13  1  0
 13 14  1  0
 14 15  1  0
 15 16  1  0
 15 17  1  0
 17 18  2  3
 18 19  1  0
 19 20  2  3
 20 21  1  0
 21 22  2  0
  1  2  2  0
  2  9  1  0
  9 10  2  0
 10 11  1  0
 11 12  2  0
 12  1  1  0
  3  4  2  0
  4  5  1  0
  5  6  2  0
  6  7  1  0
  7  8  2  0
  8  3  1  0
M  END

$$$$
No_1418-/dssg/home/sw_qyf/PocketFlow/Model-Generation-Results/5HT2A_7WC7_rec_A_10.pdb/2024-01-01-03-54-21/
     RDKit          3D

 10 10  0  0  0  0  0  0  0  0999 V2000
  -24.1553  -17.8465  145.7021 C   0  0  0  0  0  0  0  0  0  0  0  0
  -23.9795  -18.4462  146.7426 C   0  0  0  0  0  0  0  0  0  0  0  0
  -24.2723  -16.4220  145.8037 C   0  0  0  0  0  0  0  0  0  0  0  0
  -24.0151  -15.5895  144.6874 C   0  0  0  0  0  0  0  0  0  0  0  0
  -23.3452  -14.4395  144.9397 C   0  0  0  0  0  0  0  0  0  0  0  0
  -22.8487  -13.6443  143.7912 C   0  0  0  0  0  0  0  0  0  0  0  0
  -24.2099  -17.7911  148.0320 C   0  0  0  0  0  0  0  0  0  0  0  0
  -24.6171  -16.6340  148.0573 C   0  0  0  0  0  0  0  0  0  0  0  0
  -24.5204  -15.7584  147.0277 C   0  0  0  0  0  0  0  0  0  0  0  0
  -22.3584  -12.4592  144.1646 O   0  0  0  0  0  0  0  0  0  0  0  0
  3  4  1  0
  4  5  1  0
  5  6  1  0
  6 10  1  0
  1  2  2  0
  2  7  1  0
  7  8  2  0
  8  9  1  0
  9  3  2  0
  3  1  1  0
M  END

$$$$
No_1419-/dssg/home/sw_qyf/PocketFlow/Model-Generation-Results/5HT2A_7WC7_rec_A_10.pdb/2024-01-01-03-54-21/
     RDKit          3D

 14 14  0  0  0  0  0  0  0  0999 V2000
  -23.1746  -16.6014  144.8668 C   0  0  0  0  0  0  0  0  0  0  0  0
  -24.0189  -16.0564  145.8445 C   0  0  0  0  0  0  0  0  0  0  0  0
  -24.4145  -16.8299  146.9062 C   0  0  0  0  0  0  0  0  0  0  0  0
  -23.8925  -17.9780  147.0944 C   0  0  0  0  0  0  0  0  0  0  0  0
  -24.4583  -14.6154  145.6463 C   0  0  0  0  0  0  0  0  0  0  0  0
  -25.4103  -14.0649  146.5111 C   0  0  0  0  0  0  0  0  0  0  0  0
  -25.7806  -12.7243  146.3180 C   0  0  0  0  0  0  0  0  0  0  0  0
  -27.0412  -12.1619  146.3901 C   0  0  0  0  0  0  0  0  0  0  0  0
  -28.1309  -12.8074  146.7039 C   0  0  0  0  0  0  0  0  0  0  0  0
  -27.9809  -14.2279  146.9878 C   0  0  0  0  0  0  0  0  0  0  0  0
  -29.0201  -15.0592  147.4152 C   0  0  0  0  0  0  0  0  0  0  0  0
  -30.2594  -14.4277  147.7389 C   0  0  0  0  0  0  0  0  0  0  0  0
  -30.4034  -13.0440  147.5338 C   0  0  0  0  0  0  0  0  0  0  0  0
  -29.3117  -12.2472  147.0868 C   0  0  0  0  0  0  0  0  0  0  0  0
  1  2  1  0
  2  3  1  0
  3  4  1  0
  2  5  1  0
  5  6  2  3
  6  7  1  0
  7  8  1  0
  8  9  1  0
  9 10  2  0
 10 11  1  0
 11 12  2  0
 12 13  1  0
 13 14  2  0
 14  9  1  0
M  END

$$$$
No_1420-/dssg/home/sw_qyf/PocketFlow/Model-Generation-Results/5HT2A_7WC7_rec_A_10.pdb/2024-01-01-03-54-21/
     RDKit          3D

 23 25  0  0  0  0  0  0  0  0999 V2000
  -24.1553  -17.8465  145.7021 C   0  0  0  0  0  0  0  0  0  0  0  0
  -24.6364  -17.2931  146.7091 C   0  0  0  0  0  0  0  0  0  0  0  0
  -24.5709  -15.9334  146.8074 C   0  0  0  0  0  0  0  0  0  0  0  0
  -25.1945  -15.2026  145.8427 C   0  0  0  0  0  0  0  0  0  0  0  0
  -26.3677  -14.6515  145.8558 C   0  0  0  0  0  0  0  0  0  0  0  0
  -26.3768  -13.2895  145.8027 C   0  0  0  0  0  0  0  0  0  0  0  0
  -25.4741  -12.5278  145.2700 C   0  0  0  0  0  0  0  0  0  0  0  0
  -24.1309  -13.1296  145.1690 C   0  0  0  0  0  0  0  0  0  0  0  0
  -23.9817  -14.5079  145.3945 C   0  0  0  0  0  0  0  0  0  0  0  0
  -23.2493  -12.4435  144.3675 N   0  0  0  0  0  0  0  0  0  0  0  0
  -23.9749  -19.2885  145.5928 C   0  0  0  0  0  0  0  0  0  0  0  0
  -27.8118  -12.5616  145.8402 C   0  0  0  0  0  0  0  0  0  0  0  0
  -28.7257  -12.8501  146.8547 C   0  0  0  0  0  0  0  0  0  0  0  0
  -29.8747  -11.9889  146.9197 C   0  0  0  0  0  0  0  0  0  0  0  0
  -30.0057  -11.0271  145.9672 N   0  0  0  0  0  0  0  0  0  0  0  0
  -29.0636  -10.7472  145.0716 C   0  0  0  0  0  0  0  0  0  0  0  0
  -27.9247  -11.5215  145.0337 C   0  0  0  0  0  0  0  0  0  0  0  0
  -29.4075   -9.6710  144.1139 C   0  0  0  0  0  0  0  0  0  0  0  0
  -30.1254   -9.8834  142.9600 C   0  0  0  0  0  0  0  0  0  0  0  0
  -30.2866   -8.9011  142.1714 C   0  0  0  0  0  0  0  0  0  0  0  0
  -29.8374   -7.5565  142.3385 C   0  0  0  0  0  0  0  0  0  0  0  0
  -28.8197   -8.4018  144.0814 C   0  0  0  0  0  0  0  0  0  0  0  0
  -29.0028   -7.3683  143.3460 C   0  0  0  0  0  0  0  0  0  0  0  0
  1  2  1  0
  2  3  1  0
  3  4  1  0
  8 10  1  0
  1 11  2  0
  6 12  1  0
 16 18  1  0
 12 13  2  0
 13 14  1  0
 14 15  2  0
 15 16  1  0
 16 17  2  0
 17 12  1  0
 18 19  2  0
 19 20  1  0
 20 21  2  0
 21 23  1  0
 23 22  2  0
 22 18  1  0
  4  5  2  0
  5  6  1  0
  6  7  2  0
  7  8  1  0
  8  9  2  0
  9  4  1  0
M  END

$$$$
No_1421-/dssg/home/sw_qyf/PocketFlow/Model-Generation-Results/5HT2A_7WC7_rec_A_10.pdb/2024-01-01-03-54-21/
     RDKit          3D

 35 37  0  0  0  0  0  0  0  0999 V2000
  -24.1553  -17.8465  145.7021 C   0  0  0  0  0  0  0  0  0  0  0  0
  -24.2856  -16.6364  145.3494 C   0  0  0  0  0  0  0  0  0  0  0  0
  -24.7211  -15.5955  146.2115 C   0  0  0  0  0  0  0  0  0  0  0  0
  -25.1322  -16.0374  147.5372 C   0  0  0  0  0  0  0  0  0  0  0  0
  -24.5163  -18.2968  146.9928 C   0  0  0  0  0  0  0  0  0  0  0  0
  -24.9534  -17.3074  147.9886 C   0  0  0  0  0  0  0  0  0  0  0  0
  -24.8651  -14.1840  145.8143 C   0  0  0  0  0  0  0  0  0  0  0  0
  -24.0216  -13.6960  144.9078 C   0  0  0  0  0  0  0  0  0  0  0  0
  -23.9543  -12.2473  144.7616 C   0  0  0  0  0  0  0  0  0  0  0  0
  -24.9262  -11.4441  145.4634 C   0  0  0  0  0  0  0  0  0  0  0  0
  -25.8435  -12.0086  146.3345 C   0  0  0  0  0  0  0  0  0  0  0  0
  -25.7512  -13.3866  146.6043 C   0  0  0  0  0  0  0  0  0  0  0  0
  -23.9819  -16.2154  144.1420 F   0  0  0  0  0  0  0  0  0  0  0  0
  -25.2263  -17.7369  149.2330 O   0  0  0  0  0  0  0  0  0  0  0  0
  -25.1999  -16.7895  150.3386 C   0  0  0  0  0  0  0  0  0  0  0  0
  -24.9102  -17.6564  151.6237 C   0  0  0  0  0  0  0  0  0  0  0  0
  -23.9166  -18.7262  144.7371 O   0  0  0  0  0  0  0  0  0  0  0  0
  -26.7338  -11.2032  146.9457 O   0  0  0  0  0  0  0  0  0  0  0  0
  -27.7051  -10.8264  146.0522 C   0  0  0  0  0  0  0  0  0  0  0  0
  -28.4390  -11.7364  145.2980 C   0  0  0  0  0  0  0  0  0  0  0  0
  -29.4637  -11.3444  145.1533 C   0  0  0  0  0  0  0  0  0  0  0  0
  -29.6265  -10.2926  144.6307 C   0  0  0  0  0  0  0  0  0  0  0  0
  -29.6408  -10.0644  143.2448 C   0  0  0  0  0  0  0  0  0  0  0  0
  -30.1124   -8.9046  142.6108 C   0  0  0  0  0  0  0  0  0  0  0  0
  -31.3537   -8.3834  142.9918 C   0  0  0  0  0  0  0  0  0  0  0  0
  -29.5427   -8.2399  141.4398 C   0  0  0  0  0  0  0  0  0  0  0  0
  -28.9472   -8.9963  140.4411 C   0  0  0  0  0  0  0  0  0  0  0  0
  -28.3106  -10.1739  140.5493 C   0  0  0  0  0  0  0  0  0  0  0  0
  -27.5874  -10.7934  139.6114 C   0  0  0  0  0  0  0  0  0  0  0  0
  -26.9115  -12.0189  139.8887 C   0  0  0  0  0  0  0  0  0  0  0  0
  -28.6902  -10.8642  142.4156 C   0  0  0  0  0  0  0  0  0  0  0  0
  -28.5217  -11.6441  141.5983 O   0  0  0  0  0  0  0  0  0  0  0  0
  -26.4368  -12.5308  138.6920 O   0  0  0  0  0  0  0  0  0  0  0  0
  -28.5002   -8.3329  139.2484 C   0  0  0  0  0  0  0  0  0  0  0  0
  -28.8100   -8.5371  138.1842 C   0  0  0  0  0  0  0  0  0  0  0  0
  3  7  1  0
  2 13  1  0
  6 14  1  0
 14 15  1  0
 15 16  1  0
  1 17  1  0
 11 18  1  0
 18 19  1  0
 19 20  1  0
 20 21  1  0
 21 22  1  0
 22 23  1  0
 23 24  1  0
 24 25  2  0
 24 26  1  0
 26 27  1  0
 27 28  1  0
 28 29  2  3
 29 30  1  0
 23 31  1  0
 28 32  1  0
 31 32  1  0
 30 33  1  0
 27 34  1  0
 34 35  2  0
  1  2  2  0
  2  3  1  0
  3  4  2  0
  4  6  1  0
  6  5  2  0
  5  1  1  0
  7  8  2  0
  8  9  1  0
  9 10  2  0
 10 11  1  0
 11 12  2  0
 12  7  1  0
M  END

$$$$
No_1422-/dssg/home/sw_qyf/PocketFlow/Model-Generation-Results/5HT2A_7WC7_rec_A_10.pdb/2024-01-01-03-54-21/
     RDKit          3D

 18 19  0  0  0  0  0  0  0  0999 V2000
  -23.1746  -16.6014  144.8668 C   0  0  0  0  0  0  0  0  0  0  0  0
  -23.7011  -17.0158  145.9774 C   0  0  0  0  0  0  0  0  0  0  0  0
  -23.7336  -18.2775  146.3737 C   0  0  0  0  0  0  0  0  0  0  0  0
  -24.1960  -18.6445  147.6858 C   0  0  0  0  0  0  0  0  0  0  0  0
  -24.7100  -17.6145  148.5486 C   0  0  0  0  0  0  0  0  0  0  0  0
  -24.7929  -16.2635  148.0870 C   0  0  0  0  0  0  0  0  0  0  0  0
  -24.2508  -15.9434  146.8891 C   0  0  0  0  0  0  0  0  0  0  0  0
  -22.9131  -15.3694  144.6484 O   0  0  0  0  0  0  0  0  0  0  0  0
  -23.8154  -14.4512  145.0167 C   0  0  0  0  0  0  0  0  0  0  0  0
  -23.7012  -13.0699  144.5112 C   0  0  0  0  0  0  0  0  0  0  0  0
  -24.6062  -14.6367  146.2247 C   0  0  0  0  0  0  0  0  0  0  0  0
  -22.6277  -12.2968  145.2511 C   0  0  0  0  0  0  0  0  0  0  0  0
  -23.2464  -19.2497  145.7036 O   0  0  0  0  0  0  0  0  0  0  0  0
  -25.1437  -17.9521  149.7436 F   0  0  0  0  0  0  0  0  0  0  0  0
  -25.0255  -12.4108  144.7297 C   0  0  0  0  0  0  0  0  0  0  0  0
  -25.2037  -11.0109  145.3735 Cl  0  0  0  0  0  0  0  0  0  0  0  0
  -25.8995  -13.2932  145.3882 F   0  0  0  0  0  0  0  0  0  0  0  0
  -22.0256  -11.2902  144.2952 C   0  0  0  0  0  0  0  0  0  0  0  0
  1  2  1  0
  1  8  1  0
  8  9  1  0
  9 10  2  3
  7 11  1  0
  9 11  1  0
 10 12  1  0
  3 13  1  0
  5 14  1  0
 10 15  1  0
 15 16  1  0
 15 17  1  0
 12 18  1  0
  2  3  2  0
  3  4  1  0
  4  5  2  0
  5  6  1  0
  6  7  2  0
  7  2  1  0
M  END

$$$$
No_1423-/dssg/home/sw_qyf/PocketFlow/Model-Generation-Results/5HT2A_7WC7_rec_A_10.pdb/2024-01-01-03-54-21/
     RDKit          3D

 30 31  0  0  0  0  0  0  0  0999 V2000
  -23.1746  -16.6014  144.8668 C   0  0  0  0  0  0  0  0  0  0  0  0
  -23.8963  -15.5346  144.7885 C   0  0  0  0  0  0  0  0  0  0  0  0
  -24.6479  -15.0447  145.8164 C   0  0  0  0  0  0  0  0  0  0  0  0
  -24.7862  -15.8388  146.9698 C   0  0  0  0  0  0  0  0  0  0  0  0
  -24.1323  -17.0288  147.0733 C   0  0  0  0  0  0  0  0  0  0  0  0
  -23.3328  -17.4298  146.0306 C   0  0  0  0  0  0  0  0  0  0  0  0
  -25.4239  -13.7422  145.7900 C   0  0  0  0  0  0  0  0  0  0  0  0
  -26.7272  -13.7506  145.7410 C   0  0  0  0  0  0  0  0  0  0  0  0
  -27.2848  -12.6515  145.6890 C   0  0  0  0  0  0  0  0  0  0  0  0
  -26.6453  -11.3387  145.5282 C   0  0  0  0  0  0  0  0  0  0  0  0
  -24.5874  -12.5521  145.8729 C   0  0  0  0  0  0  0  0  0  0  0  0
  -25.2423  -11.3771  145.7746 C   0  0  0  0  0  0  0  0  0  0  0  0
  -28.8293  -12.4275  145.6508 C   0  0  0  0  0  0  0  0  0  0  0  0
  -29.3926  -11.2956  145.1099 C   0  0  0  0  0  0  0  0  0  0  0  0
  -30.5009  -10.7353  145.7906 C   0  0  0  0  0  0  0  0  0  0  0  0
  -29.0455  -10.7899  143.8294 C   0  0  0  0  0  0  0  0  0  0  0  0
  -29.8211   -9.8582  143.1255 C   0  0  0  0  0  0  0  0  0  0  0  0
  -29.6524   -8.9324  142.7196 C   0  0  0  0  0  0  0  0  0  0  0  0
  -30.6944   -7.9505  142.2650 C   0  0  0  0  0  0  0  0  0  0  0  0
  -31.0093   -7.2895  143.1189 F   0  0  0  0  0  0  0  0  0  0  0  0
  -30.2614   -7.1136  141.1748 F   0  0  0  0  0  0  0  0  0  0  0  0
  -31.8155   -8.5428  141.7363 F   0  0  0  0  0  0  0  0  0  0  0  0
  -30.6435  -11.1524  147.0291 O   0  0  0  0  0  0  0  0  0  0  0  0
  -24.1185  -17.8103  148.3743 C   0  0  0  0  0  0  0  0  0  0  0  0
  -25.2716  -17.5124  149.1845 C   0  0  0  0  0  0  0  0  0  0  0  0
  -25.2182  -18.1461  150.3515 F   0  0  0  0  0  0  0  0  0  0  0  0
  -25.3196  -16.1850  149.4765 F   0  0  0  0  0  0  0  0  0  0  0  0
  -23.8267  -14.4643  143.4180 Cl  0  0  0  0  0  0  0  0  0  0  0  0
  -26.3887  -17.7435  148.4994 F   0  0  0  0  0  0  0  0  0  0  0  0
  -22.7072  -18.5891  146.1211 O   0  0  0  0  0  0  0  0  0  0  0  0
  2  3  1  0
  3  4  1  0
  4  5  1  0
  1  6  1  0
  5  6  1  0
  3  7  1  0
  9 13  1  0
 13 14  1  0
 14 15  1  0
 14 16  1  0
 16 17  1  0
 17 18  2  3
 18 19  1  0
 19 20  1  0
 19 21  1  0
 19 22  1  0
 15 23  1  0
  5 24  1  0
 24 25  1  0
 25 26  1  0
 25 27  1  0
  2 28  1  0
 25 29  1  0
  6 30  2  0
  1  2  1  0
  7  8  2  0
  8  9  1  0
  9 10  2  0
 10 12  1  0
 12 11  2  0
 11  7  1  0
M  END

$$$$
No_1424-/dssg/home/sw_qyf/PocketFlow/Model-Generation-Results/5HT2A_7WC7_rec_A_10.pdb/2024-01-01-03-54-21/
     RDKit          3D

 27 29  0  0  0  0  0  0  0  0999 V2000
  -24.1553  -17.8465  145.7021 C   0  0  0  0  0  0  0  0  0  0  0  0
  -24.2856  -16.6364  145.3494 C   0  0  0  0  0  0  0  0  0  0  0  0
  -25.0033  -15.6772  146.0737 C   0  0  0  0  0  0  0  0  0  0  0  0
  -25.1197  -14.2835  145.7299 C   0  0  0  0  0  0  0  0  0  0  0  0
  -24.2707  -13.8793  144.6500 C   0  0  0  0  0  0  0  0  0  0  0  0
  -24.8686  -18.3355  146.8179 C   0  0  0  0  0  0  0  0  0  0  0  0
  -23.4213  -14.7686  144.0334 C   0  0  0  0  0  0  0  0  0  0  0  0
  -23.3932  -16.0844  144.3175 C   0  0  0  0  0  0  0  0  0  0  0  0
  -25.6450  -17.4591  147.5909 C   0  0  0  0  0  0  0  0  0  0  0  0
  -25.7561  -16.1038  147.2695 C   0  0  0  0  0  0  0  0  0  0  0  0
  -25.9217  -13.3274  146.4582 C   0  0  0  0  0  0  0  0  0  0  0  0
  -27.3066  -13.3680  146.1973 C   0  0  0  0  0  0  0  0  0  0  0  0
  -27.9587  -12.1064  146.3177 C   0  0  0  0  0  0  0  0  0  0  0  0
  -29.4035  -12.0778  146.1618 C   0  0  0  0  0  0  0  0  0  0  0  0
  -29.8660  -11.5533  147.1734 O   0  0  0  0  0  0  0  0  0  0  0  0
  -29.9971  -12.2499  145.1947 O   0  0  0  0  0  0  0  0  0  0  0  0
  -23.5385  -18.7881  145.0280 O   0  0  0  0  0  0  0  0  0  0  0  0
  -24.2742  -12.5659  144.3698 O   0  0  0  0  0  0  0  0  0  0  0  0
  -23.3469  -11.7363  145.1942 C   0  0  0  0  0  0  0  0  0  0  0  0
  -22.7787  -12.3725  146.4345 C   0  0  0  0  0  0  0  0  0  0  0  0
  -23.9131  -12.5762  147.3623 C   0  0  0  0  0  0  0  0  0  0  0  0
  -25.0255  -13.3582  147.3382 C   0  0  0  0  0  0  0  0  0  0  0  0
  -21.9878  -11.2619  146.9145 O   0  0  0  0  0  0  0  0  0  0  0  0
  -28.0648  -14.3419  146.0045 O   0  0  0  0  0  0  0  0  0  0  0  0
  -23.3092  -20.0289  145.8031 C   0  0  0  0  0  0  0  0  0  0  0  0
  -24.2336  -20.7697  145.8078 O   0  0  0  0  0  0  0  0  0  0  0  0
  -22.1154  -20.1676  146.1002 O   0  0  0  0  0  0  0  0  0  0  0  0
  4 11  1  0
 11 12  1  0
 12 13  1  0
 13 14  1  0
 14 15  1  0
 14 16  2  0
  1 17  1  0
  5 18  1  0
 18 19  1  0
 19 20  1  0
 20 21  1  0
 11 22  1  0
 21 22  1  0
 20 23  1  0
 12 24  2  0
 17 25  1  0
 25 26  1  0
 25 27  2  0
  1  2  2  0
  3 10  2  0
 10  9  1  0
  9  6  2  0
  6  1  1  0
  2  3  1  0
  3  4  1  0
  4  5  2  0
  5  7  1  0
  7  8  2  0
  8  2  1  0
M  END

$$$$
No_1425-/dssg/home/sw_qyf/PocketFlow/Model-Generation-Results/5HT2A_7WC7_rec_A_10.pdb/2024-01-01-03-54-21/
     RDKit          3D

 35 36  0  0  0  0  0  0  0  0999 V2000
  -23.1746  -16.6014  144.8668 C   0  0  0  0  0  0  0  0  0  0  0  0
  -23.8963  -15.5346  144.7885 C   0  0  0  0  0  0  0  0  0  0  0  0
  -23.6398  -14.5115  145.3281 C   0  0  0  0  0  0  0  0  0  0  0  0
  -24.3866  -13.2477  145.3906 C   0  0  0  0  0  0  0  0  0  0  0  0
  -25.6595  -13.1543  144.8975 C   0  0  0  0  0  0  0  0  0  0  0  0
  -26.4904  -12.0232  145.0331 C   0  0  0  0  0  0  0  0  0  0  0  0
  -27.8437  -12.0381  144.7013 C   0  0  0  0  0  0  0  0  0  0  0  0
  -28.7862  -11.6153  145.6570 C   0  0  0  0  0  0  0  0  0  0  0  0
  -29.8094  -12.4578  145.9615 C   0  0  0  0  0  0  0  0  0  0  0  0
  -30.2972  -11.9834  147.4201 C   0  0  0  0  0  0  0  0  0  0  0  0
  -30.4656  -13.0977  148.3562 C   0  0  0  0  0  0  0  0  0  0  0  0
  -30.7883  -14.2235  147.8521 C   0  0  0  0  0  0  0  0  0  0  0  0
  -29.7996  -14.6772  146.7913 C   0  0  0  0  0  0  0  0  0  0  0  0
  -29.3695  -13.6135  145.9335 C   0  0  0  0  0  0  0  0  0  0  0  0
  -23.5956  -17.7807  145.6254 C   0  0  0  0  0  0  0  0  0  0  0  0
  -23.6384  -18.8231  145.0721 F   0  0  0  0  0  0  0  0  0  0  0  0
  -22.7624  -17.7445  146.7689 F   0  0  0  0  0  0  0  0  0  0  0  0
  -24.8650  -17.4157  146.0994 F   0  0  0  0  0  0  0  0  0  0  0  0
  -23.8490  -11.9860  145.9037 C   0  0  0  0  0  0  0  0  0  0  0  0
  -26.2114  -11.2320  145.9990 C   0  0  0  0  0  0  0  0  0  0  0  0
  -24.6623  -11.0541  146.4016 C   0  0  0  0  0  0  0  0  0  0  0  0
  -30.7881  -10.8028  147.6447 O   0  0  0  0  0  0  0  0  0  0  0  0
  -29.3518  -16.0511  146.7137 C   0  0  0  0  0  0  0  0  0  0  0  0
  -28.4730  -16.4479  147.9072 C   0  0  0  0  0  0  0  0  0  0  0  0
  -27.1343  -15.8958  148.1018 C   0  0  0  0  0  0  0  0  0  0  0  0
  -26.1398  -16.5734  148.8060 C   0  0  0  0  0  0  0  0  0  0  0  0
  -24.8720  -16.7034  148.2442 C   0  0  0  0  0  0  0  0  0  0  0  0
  -24.0430  -15.4439  147.9561 Cl  0  0  0  0  0  0  0  0  0  0  0  0
  -24.1076  -17.5413  149.1252 O   0  0  0  0  0  0  0  0  0  0  0  0
  -29.0636  -16.8969  149.0048 O   0  0  0  0  0  0  0  0  0  0  0  0
  -27.9382  -11.2178  143.3390 C   0  0  0  0  0  0  0  0  0  0  0  0
  -28.6354  -10.0331  143.3574 C   0  0  0  0  0  0  0  0  0  0  0  0
  -29.0108   -9.3717  142.1788 C   0  0  0  0  0  0  0  0  0  0  0  0
  -28.7562   -9.8923  140.9597 C   0  0  0  0  0  0  0  0  0  0  0  0
  -28.8832   -9.1456  139.7669 C   0  0  0  0  0  0  0  0  0  0  0  0
  1  2  1  0
  2  3  2  3
  3  4  1  0
  6  7  1  0
  7  8  1  0
  8  9  1  0
  9 10  1  0
 10 11  1  0
 11 12  1  0
 12 13  1  0
  9 14  1  0
 13 14  1  0
  1 15  1  0
 15 16  1  0
 15 17  1  0
 15 18  1  0
 10 22  2  0
 13 23  1  0
 23 24  1  0
 24 25  1  0
 25 26  2  3
 26 27  1  0
 27 28  1  0
 27 29  1  0
 24 30  1  0
  7 31  1  0
 31 32  2  3
 32 33  1  0
 33 34  2  3
 34 35  1  0
  4  5  2  0
  5  6  1  0
  6 20  2  0
 20 21  1  0
 21 19  2  0
 19  4  1  0
M  END

$$$$
No_1426-/dssg/home/sw_qyf/PocketFlow/Model-Generation-Results/5HT2A_7WC7_rec_A_10.pdb/2024-01-01-03-54-21/
     RDKit          3D

 25 27  0  0  0  0  0  0  0  0999 V2000
  -23.1746  -16.6014  144.8668 C   0  0  0  0  0  0  0  0  0  0  0  0
  -24.0189  -16.0564  145.8445 C   0  0  0  0  0  0  0  0  0  0  0  0
  -24.4850  -14.7380  145.6359 C   0  0  0  0  0  0  0  0  0  0  0  0
  -25.2717  -14.0560  146.5949 C   0  0  0  0  0  0  0  0  0  0  0  0
  -25.5669  -12.6700  146.4456 C   0  0  0  0  0  0  0  0  0  0  0  0
  -25.1774  -11.9727  145.2644 C   0  0  0  0  0  0  0  0  0  0  0  0
  -24.2583  -12.6444  144.4323 C   0  0  0  0  0  0  0  0  0  0  0  0
  -23.9746  -14.0153  144.6649 C   0  0  0  0  0  0  0  0  0  0  0  0
  -24.4407  -16.8601  146.9515 C   0  0  0  0  0  0  0  0  0  0  0  0
  -23.9838  -18.0624  147.1984 C   0  0  0  0  0  0  0  0  0  0  0  0
  -23.3735  -18.7428  146.1949 C   0  0  0  0  0  0  0  0  0  0  0  0
  -22.9695  -18.0948  145.0986 N   0  0  0  0  0  0  0  0  0  0  0  0
  -25.4773  -10.7105  145.1324 O   0  0  0  0  0  0  0  0  0  0  0  0
  -26.7773  -10.4138  145.3263 C   0  0  0  0  0  0  0  0  0  0  0  0
  -27.7840  -11.3008  145.5170 C   0  0  0  0  0  0  0  0  0  0  0  0
  -29.1428  -10.8728  145.3275 C   0  0  0  0  0  0  0  0  0  0  0  0
  -29.5054   -9.8234  144.5507 C   0  0  0  0  0  0  0  0  0  0  0  0
  -30.9206   -9.5506  144.4252 C   0  0  0  0  0  0  0  0  0  0  0  0
  -31.2328   -8.8048  143.2332 C   0  0  0  0  0  0  0  0  0  0  0  0
  -30.2111   -8.3762  142.4723 C   0  0  0  0  0  0  0  0  0  0  0  0
  -30.4042   -7.4702  141.3571 C   0  0  0  0  0  0  0  0  0  0  0  0
  -29.3600   -7.5117  140.2711 C   0  0  0  0  0  0  0  0  0  0  0  0
  -28.9328   -9.3502  143.2911 C   0  0  0  0  0  0  0  0  0  0  0  0
  -29.4149   -8.3622  139.1498 C   0  0  0  0  0  0  0  0  0  0  0  0
  -28.2285   -8.3097  138.3521 C   0  0  0  0  0  0  0  0  0  0  0  0
  2  3  1  0
  6 13  1  0
 13 14  1  0
 14 15  1  0
 15 16  2  3
 16 17  1  0
 17 18  1  0
 18 19  1  0
 19 20  1  0
 20 21  1  0
 21 22  2  3
 17 23  1  0
 20 23  1  0
 22 24  1  0
 24 25  2  0
  1  2  2  0
  2  9  1  0
  9 10  2  0
 10 11  1  0
 11 12  2  0
 12  1  1  0
  3  4  2  0
  4  5  1  0
  5  6  2  0
  6  7  1  0
  7  8  2  0
  8  3  1  0
M  END

$$$$
No_1427-/dssg/home/sw_qyf/PocketFlow/Model-Generation-Results/5HT2A_7WC7_rec_A_10.pdb/2024-01-01-03-54-21/
     RDKit          3D

 35 38  0  0  0  0  0  0  0  0999 V2000
  -24.1553  -17.8465  145.7021 C   0  0  0  0  0  0  0  0  0  0  0  0
  -24.2856  -16.6364  145.3494 C   0  0  0  0  0  0  0  0  0  0  0  0
  -25.0033  -15.6772  146.0737 C   0  0  0  0  0  0  0  0  0  0  0  0
  -25.6964  -16.1810  147.2049 C   0  0  0  0  0  0  0  0  0  0  0  0
  -24.8143  -18.3454  146.8324 C   0  0  0  0  0  0  0  0  0  0  0  0
  -25.5292  -17.4614  147.6373 C   0  0  0  0  0  0  0  0  0  0  0  0
  -23.5056  -16.2160  144.2697 F   0  0  0  0  0  0  0  0  0  0  0  0
  -25.1216  -14.2534  145.6499 C   0  0  0  0  0  0  0  0  0  0  0  0
  -26.3208  -13.7310  145.5037 C   0  0  0  0  0  0  0  0  0  0  0  0
  -26.4265  -12.3381  145.1327 C   0  0  0  0  0  0  0  0  0  0  0  0
  -25.2617  -11.5549  145.1612 C   0  0  0  0  0  0  0  0  0  0  0  0
  -24.0085  -12.1463  145.4324 C   0  0  0  0  0  0  0  0  0  0  0  0
  -23.9015  -13.5104  145.7137 C   0  0  0  0  0  0  0  0  0  0  0  0
  -27.7320  -11.6769  144.9591 C   0  0  0  0  0  0  0  0  0  0  0  0
  -28.8576  -12.0065  145.6701 C   0  0  0  0  0  0  0  0  0  0  0  0
  -30.0249  -11.2054  145.6212 C   0  0  0  0  0  0  0  0  0  0  0  0
  -30.0478  -10.1360  144.6888 C   0  0  0  0  0  0  0  0  0  0  0  0
  -28.9551   -9.8353  143.9283 C   0  0  0  0  0  0  0  0  0  0  0  0
  -27.7777  -10.5519  144.1023 C   0  0  0  0  0  0  0  0  0  0  0  0
  -28.9800   -8.7094  143.0084 C   0  0  0  0  0  0  0  0  0  0  0  0
  -29.2848   -8.9939  141.6002 C   0  0  0  0  0  0  0  0  0  0  0  0
  -29.4287   -7.9426  140.7416 C   0  0  0  0  0  0  0  0  0  0  0  0
  -29.6004   -8.2230  139.4059 C   0  0  0  0  0  0  0  0  0  0  0  0
  -28.5717   -8.9850  138.7928 C   0  0  0  0  0  0  0  0  0  0  0  0
  -28.0298  -10.0431  139.6043 C   0  0  0  0  0  0  0  0  0  0  0  0
  -28.2128   -9.9006  141.0893 C   0  0  0  0  0  0  0  0  0  0  0  0
  -27.2672  -11.0892  139.0888 C   0  0  0  0  0  0  0  0  0  0  0  0
  -26.1726  -11.4349  139.6097 O   0  0  0  0  0  0  0  0  0  0  0  0
  -27.8405  -11.8507  138.1980 O   0  0  0  0  0  0  0  0  0  0  0  0
  -28.8367  -13.0209  146.5626 O   0  0  0  0  0  0  0  0  0  0  0  0
  -29.9354  -13.7777  146.7337 C   0  0  0  0  0  0  0  0  0  0  0  0
  -30.5222  -13.5625  148.0504 C   0  0  0  0  0  0  0  0  0  0  0  0
  -31.5336  -13.2743  148.2988 F   0  0  0  0  0  0  0  0  0  0  0  0
  -30.1630  -14.7541  148.8344 F   0  0  0  0  0  0  0  0  0  0  0  0
  -29.7411  -12.5652  148.7553 F   0  0  0  0  0  0  0  0  0  0  0  0
  2  7  1  0
  3  8  1  0
 10 14  1  0
 18 20  1  0
 20 21  1  0
 25 27  1  0
 27 28  1  0
 27 29  2  0
 15 30  1  0
 30 31  1  0
 31 32  1  0
 32 33  1  0
 32 34  1  0
 32 35  1  0
 14 15  2  0
 15 16  1  0
 16 17  2  0
 17 18  1  0
 18 19  2  0
 19 14  1  0
  1  2  2  0
  2  3  1  0
  3  4  2  0
  4  6  1  0
  6  5  2  0
  5  1  1  0
  8  9  2  0
  9 10  1  0
 10 11  2  0
 11 12  1  0
 12 13  2  0
 13  8  1  0
 21 22  2  0
 22 23  1  0
 23 24  2  0
 24 25  1  0
 25 26  2  0
 26 21  1  0
M  END

$$$$
No_1428-/dssg/home/sw_qyf/PocketFlow/Model-Generation-Results/5HT2A_7WC7_rec_A_10.pdb/2024-01-01-03-54-21/
     RDKit          3D

  7  7  0  0  0  0  0  0  0  0999 V2000
  -23.8931  -18.2534  145.3804 F   0  0  0  0  0  0  0  0  0  0  0  0
  -24.3394  -17.2619  146.1054 C   0  0  0  0  0  0  0  0  0  0  0  0
  -24.5544  -17.4430  147.4759 C   0  0  0  0  0  0  0  0  0  0  0  0
  -24.5412  -15.9711  145.4988 C   0  0  0  0  0  0  0  0  0  0  0  0
  -24.9437  -14.8222  146.2134 C   0  0  0  0  0  0  0  0  0  0  0  0
  -24.9780  -16.2156  148.2388 C   0  0  0  0  0  0  0  0  0  0  0  0
  -25.1442  -15.0067  147.6730 C   0  0  0  0  0  0  0  0  0  0  0  0
  1  2  1  0
  2  3  2  0
  3  6  1  0
  6  7  2  0
  7  5  1  0
  5  4  2  0
  4  2  1  0
M  END

$$$$
No_1429-/dssg/home/sw_qyf/PocketFlow/Model-Generation-Results/5HT2A_7WC7_rec_A_10.pdb/2024-01-01-03-54-21/
     RDKit          3D

 35 38  0  0  0  0  0  0  0  0999 V2000
  -24.1553  -17.8465  145.7021 C   0  0  0  0  0  0  0  0  0  0  0  0
  -23.9795  -18.4462  146.7426 C   0  0  0  0  0  0  0  0  0  0  0  0
  -25.1196  -16.8106  145.6409 C   0  0  0  0  0  0  0  0  0  0  0  0
  -25.9236  -16.5070  146.7422 C   0  0  0  0  0  0  0  0  0  0  0  0
  -26.9588  -15.5563  146.6458 C   0  0  0  0  0  0  0  0  0  0  0  0
  -26.8348  -14.5437  145.7143 C   0  0  0  0  0  0  0  0  0  0  0  0
  -25.8786  -14.6986  144.6313 C   0  0  0  0  0  0  0  0  0  0  0  0
  -24.9607  -15.7429  144.6829 C   0  0  0  0  0  0  0  0  0  0  0  0
  -24.7514  -18.2654  147.9394 C   0  0  0  0  0  0  0  0  0  0  0  0
  -25.7621  -17.2610  147.9441 C   0  0  0  0  0  0  0  0  0  0  0  0
  -25.8437  -13.8490  143.6502 F   0  0  0  0  0  0  0  0  0  0  0  0
  -27.8584  -13.4416  145.6177 C   0  0  0  0  0  0  0  0  0  0  0  0
  -27.4763  -12.2305  145.0007 C   0  0  0  0  0  0  0  0  0  0  0  0
  -28.4242  -11.1834  145.1038 C   0  0  0  0  0  0  0  0  0  0  0  0
  -29.5785  -11.2723  145.9077 C   0  0  0  0  0  0  0  0  0  0  0  0
  -29.7226  -12.3448  146.7544 C   0  0  0  0  0  0  0  0  0  0  0  0
  -28.8250  -13.4224  146.6886 C   0  0  0  0  0  0  0  0  0  0  0  0
  -28.2563  -10.0462  144.0982 C   0  0  0  0  0  0  0  0  0  0  0  0
  -29.3431   -9.3091  143.7867 C   0  0  0  0  0  0  0  0  0  0  0  0
  -29.8919   -9.3905  142.5482 C   0  0  0  0  0  0  0  0  0  0  0  0
  -31.0917   -8.6191  142.2667 C   0  0  0  0  0  0  0  0  0  0  0  0
  -31.3127   -8.2468  141.0461 C   0  0  0  0  0  0  0  0  0  0  0  0
  -30.2076   -8.1486  140.0950 C   0  0  0  0  0  0  0  0  0  0  0  0
  -28.9749   -8.8137  140.3764 C   0  0  0  0  0  0  0  0  0  0  0  0
  -28.8204   -9.2893  141.6685 C   0  0  0  0  0  0  0  0  0  0  0  0
  -27.9905   -8.7386  139.3280 C   0  0  0  0  0  0  0  0  0  0  0  0
  -27.1299   -9.8731  139.2903 C   0  0  0  0  0  0  0  0  0  0  0  0
  -27.7669  -11.0882  139.5971 C   0  0  0  0  0  0  0  0  0  0  0  0
  -27.2192  -12.2204  139.2020 C   0  0  0  0  0  0  0  0  0  0  0  0
  -32.1118   -8.7018  143.1057 O   0  0  0  0  0  0  0  0  0  0  0  0
  -30.7277  -12.3871  147.6685 O   0  0  0  0  0  0  0  0  0  0  0  0
  -30.6294  -11.7340  148.8390 C   0  0  0  0  0  0  0  0  0  0  0  0
  -25.9744  -12.1470  138.4786 C   0  0  0  0  0  0  0  0  0  0  0  0
  -25.0912  -12.9451  138.8429 N   0  0  0  0  0  0  0  0  0  0  0  0
  -27.9724   -7.7446  138.3552 C   0  0  0  0  0  0  0  0  0  0  0  0
  7 11  1  0
  6 12  1  0
 14 18  1  0
 18 19  1  0
 24 26  1  0
 26 27  1  0
 27 28  1  0
 28 29  2  3
 21 30  1  0
 16 31  1  0
 31 32  1  0
 29 33  1  0
 33 34  1  0
 26 35  1  0
 19 20  1  0
 12 13  2  0
 13 14  1  0
 14 15  2  0
 15 16  1  0
 16 17  2  0
 17 12  1  0
  4  5  2  0
  5  6  1  0
  6  7  2  0
  7  8  1  0
  8  3  2  0
  1  2  2  0
  2  9  1  0
  9 10  2  0
 10  4  1  0
  4  3  1  0
  3  1  1  0
 20 21  2  0
 21 22  1  0
 22 23  2  0
 23 24  1  0
 24 25  2  0
 25 20  1  0
M  END

$$$$
No_1430-/dssg/home/sw_qyf/PocketFlow/Model-Generation-Results/5HT2A_7WC7_rec_A_10.pdb/2024-01-01-03-54-21/
     RDKit          3D

 33 37  0  0  0  0  0  0  0  0999 V2000
  -24.1553  -17.8465  145.7021 C   0  0  0  0  0  0  0  0  0  0  0  0
  -24.2855  -16.6364  145.3494 C   0  0  0  0  0  0  0  0  0  0  0  0
  -25.0033  -15.6772  146.0737 C   0  0  0  0  0  0  0  0  0  0  0  0
  -25.1197  -14.2834  145.7299 C   0  0  0  0  0  0  0  0  0  0  0  0
  -25.8357  -13.3153  146.4318 C   0  0  0  0  0  0  0  0  0  0  0  0
  -24.4121  -18.1697  146.7824 C   0  0  0  0  0  0  0  0  0  0  0  0
  -25.0886  -17.4534  147.7842 C   0  0  0  0  0  0  0  0  0  0  0  0
  -25.2879  -16.0451  147.4263 C   0  0  0  0  0  0  0  0  0  0  0  0
  -26.1835  -12.2616  145.9247 C   0  0  0  0  0  0  0  0  0  0  0  0
  -25.6619  -11.6045  144.8541 C   0  0  0  0  0  0  0  0  0  0  0  0
  -24.6441  -13.8738  144.3988 C   0  0  0  0  0  0  0  0  0  0  0  0
  -23.7719  -14.5371  143.6856 N   0  0  0  0  0  0  0  0  0  0  0  0
  -24.8025  -12.4471  144.0616 C   0  0  0  0  0  0  0  0  0  0  0  0
  -25.9079  -10.3692  144.4750 O   0  0  0  0  0  0  0  0  0  0  0  0
  -23.6550  -15.9260  144.1229 C   0  0  0  0  0  0  0  0  0  0  0  0
  -27.2131   -9.9743  144.2720 C   0  0  0  0  0  0  0  0  0  0  0  0
  -27.6673   -9.2717  143.2791 C   0  0  0  0  0  0  0  0  0  0  0  0
  -29.0006   -8.9053  143.0832 C   0  0  0  0  0  0  0  0  0  0  0  0
  -29.9731   -9.4740  144.0056 C   0  0  0  0  0  0  0  0  0  0  0  0
  -29.4808  -10.3421  145.0676 C   0  0  0  0  0  0  0  0  0  0  0  0
  -28.1724  -10.6024  145.2065 C   0  0  0  0  0  0  0  0  0  0  0  0
  -27.4471  -11.5121  146.3846 N   0  0  0  0  0  0  0  0  0  0  0  0
  -29.4251   -8.0255  142.0597 C   0  0  0  0  0  0  0  0  0  0  0  0
  -29.3686   -7.6255  140.9968 C   0  0  0  0  0  0  0  0  0  0  0  0
  -29.8090   -8.1611  139.7524 C   0  0  0  0  0  0  0  0  0  0  0  0
  -28.8997   -8.2693  138.6660 C   0  0  0  0  0  0  0  0  0  0  0  0
  -28.1252   -9.3279  138.3499 C   0  0  0  0  0  0  0  0  0  0  0  0
  -27.4802  -10.0408  139.4563 C   0  0  0  0  0  0  0  0  0  0  0  0
  -26.8081  -11.2472  139.3370 C   0  0  0  0  0  0  0  0  0  0  0  0
  -27.5987  -12.3300  139.9107 C   0  0  0  0  0  0  0  0  0  0  0  0
  -28.8904  -12.3336  140.0724 C   0  0  0  0  0  0  0  0  0  0  0  0
  -31.2391   -9.2127  143.9571 O   0  0  0  0  0  0  0  0  0  0  0  0
  -26.8838  -12.8041  141.2962 C   0  0  0  0  0  0  0  0  0  0  0  0
 10 14  1  0
 14 16  1  0
  9 22  1  0
 21 22  1  0
 18 23  1  0
 23 24  3  0
 24 25  1  0
 25 26  2  3
 26 27  1  0
 27 28  2  3
 28 29  1  0
 29 30  1  0
 30 31  1  0
 19 32  1  0
 30 33  1  0
  4  5  2  0
  5  9  1  0
  9 10  2  0
 10 13  1  0
 13 11  2  0
  1  2  2  0
  3  8  2  0
  8  7  1  0
  7  6  2  0
  6  1  1  0
  2  3  1  0
  3  4  1  0
  4 11  1  0
 11 12  1  0
 12 15  2  0
 15  2  1  0
 16 17  2  0
 17 18  1  0
 18 19  2  0
 19 20  1  0
 20 21  2  0
 21 16  1  0
M  END

$$$$
No_1431-/dssg/home/sw_qyf/PocketFlow/Model-Generation-Results/5HT2A_7WC7_rec_A_10.pdb/2024-01-01-03-54-21/
     RDKit          3D

 35 39  0  0  0  0  0  0  0  0999 V2000
  -23.1746  -16.6014  144.8668 C   0  0  0  0  0  0  0  0  0  0  0  0
  -23.8963  -15.5346  144.7885 C   0  0  0  0  0  0  0  0  0  0  0  0
  -25.3063  -15.4625  144.8521 C   0  0  0  0  0  0  0  0  0  0  0  0
  -26.0192  -14.2249  144.6050 C   0  0  0  0  0  0  0  0  0  0  0  0
  -27.2099  -14.1489  144.1375 C   0  0  0  0  0  0  0  0  0  0  0  0
  -23.2830  -14.2080  144.3990 C   0  0  0  0  0  0  0  0  0  0  0  0
  -27.7279  -12.8838  143.7814 C   0  0  0  0  0  0  0  0  0  0  0  0
  -23.9649  -13.0345  144.4789 N   0  0  0  0  0  0  0  0  0  0  0  0
  -25.2902  -13.0747  144.5263 C   0  0  0  0  0  0  0  0  0  0  0  0
  -28.2740  -12.0948  144.5801 C   0  0  0  0  0  0  0  0  0  0  0  0
  -28.8827  -10.7650  144.2325 C   0  0  0  0  0  0  0  0  0  0  0  0
  -28.9005  -10.4250  143.1702 C   0  0  0  0  0  0  0  0  0  0  0  0
  -28.3445  -11.2569  142.0925 C   0  0  0  0  0  0  0  0  0  0  0  0
  -27.7350  -12.4499  142.4051 C   0  0  0  0  0  0  0  0  0  0  0  0
  -29.4932   -9.1386  142.9599 N   0  0  0  0  0  0  0  0  0  0  0  0
  -29.2005   -8.4018  141.8582 C   0  0  0  0  0  0  0  0  0  0  0  0
  -29.9736   -7.8689  141.2148 C   0  0  0  0  0  0  0  0  0  0  0  0
  -31.3316   -7.5198  141.5774 C   0  0  0  0  0  0  0  0  0  0  0  0
  -31.6190   -8.2512  142.8746 C   0  0  0  0  0  0  0  0  0  0  0  0
  -30.7739   -9.1267  143.4418 C   0  0  0  0  0  0  0  0  0  0  0  0
  -29.5906   -7.0756  139.9440 C   0  0  0  0  0  0  0  0  0  0  0  0
  -28.8464   -7.8761  138.9733 C   0  0  0  0  0  0  0  0  0  0  0  0
  -28.5182   -7.7586  137.8279 C   0  0  0  0  0  0  0  0  0  0  0  0
  -28.0644   -8.8783  137.0051 C   0  0  0  0  0  0  0  0  0  0  0  0
  -28.0652  -10.1225  137.6715 C   0  0  0  0  0  0  0  0  0  0  0  0
  -28.2437  -10.2316  139.0635 C   0  0  0  0  0  0  0  0  0  0  0  0
  -28.6922   -9.2133  139.7198 C   0  0  0  0  0  0  0  0  0  0  0  0
  -23.8934  -17.7780  145.3865 C   0  0  0  0  0  0  0  0  0  0  0  0
  -23.7505  -18.0726  146.7916 C   0  0  0  0  0  0  0  0  0  0  0  0
  -24.8527  -17.8458  147.6483 C   0  0  0  0  0  0  0  0  0  0  0  0
  -24.5575  -17.2735  148.9707 C   0  0  0  0  0  0  0  0  0  0  0  0
  -25.6581  -16.9189  149.8125 C   0  0  0  0  0  0  0  0  0  0  0  0
  -26.8772  -16.8630  149.1323 C   0  0  0  0  0  0  0  0  0  0  0  0
  -27.0828  -17.0265  147.8142 C   0  0  0  0  0  0  0  0  0  0  0  0
  -25.8452  -17.0764  146.9829 C   0  0  0  0  0  0  0  0  0  0  0  0
  1  2  2  3
  2  3  1  0
  3  4  1  0
  4  5  1  0
  2  6  1  0
  6  8  1  0
  4  9  1  0
  8  9  1  0
 12 15  1  0
 15 16  1  0
 17 18  1  0
 15 20  1  0
 19 20  1  0
 17 21  1  0
 21 22  1  0
  1 28  1  0
 28 29  1  0
 29 30  1  0
  5  7  1  0
 16 17  1  0
 18 19  1  0
  7 10  2  0
 10 11  1  0
 11 12  2  0
 12 13  1  0
 13 14  2  0
 14  7  1  0
 22 23  2  0
 23 24  1  0
 24 25  2  0
 25 26  1  0
 26 27  2  0
 27 22  1  0
 30 31  2  0
 31 32  1  0
 32 33  2  0
 33 34  1  0
 34 35  2  0
 35 30  1  0
M  END

$$$$
No_1432-/dssg/home/sw_qyf/PocketFlow/Model-Generation-Results/5HT2A_7WC7_rec_A_10.pdb/2024-01-01-03-54-21/
     RDKit          3D

 35 36  0  0  0  0  0  0  0  0999 V2000
  -23.1746  -16.6014  144.8668 C   0  0  0  0  0  0  0  0  0  0  0  0
  -23.7011  -17.0158  145.9774 C   0  0  0  0  0  0  0  0  0  0  0  0
  -24.2593  -16.1244  146.9100 C   0  0  0  0  0  0  0  0  0  0  0  0
  -24.5135  -14.7390  146.5020 C   0  0  0  0  0  0  0  0  0  0  0  0
  -24.0813  -14.3812  145.2164 C   0  0  0  0  0  0  0  0  0  0  0  0
  -23.3915  -15.2667  144.4690 C   0  0  0  0  0  0  0  0  0  0  0  0
  -24.2377  -12.9157  144.8809 C   0  0  0  0  0  0  0  0  0  0  0  0
  -24.7758  -12.1890  145.6111 C   0  0  0  0  0  0  0  0  0  0  0  0
  -25.1980  -10.8438  145.2342 C   0  0  0  0  0  0  0  0  0  0  0  0
  -26.6109  -10.6259  144.9564 C   0  0  0  0  0  0  0  0  0  0  0  0
  -27.0978   -9.6477  144.0459 C   0  0  0  0  0  0  0  0  0  0  0  0
  -28.4919   -9.4749  143.8912 C   0  0  0  0  0  0  0  0  0  0  0  0
  -29.3447  -10.3217  144.6882 C   0  0  0  0  0  0  0  0  0  0  0  0
  -28.8497  -11.2679  145.5923 C   0  0  0  0  0  0  0  0  0  0  0  0
  -27.4968  -11.4294  145.7274 C   0  0  0  0  0  0  0  0  0  0  0  0
  -29.7520  -12.0356  146.3408 N   0  0  0  0  0  0  0  0  0  0  0  0
  -29.3918  -12.5315  147.6280 C   0  0  0  0  0  0  0  0  0  0  0  0
  -30.4748  -13.2414  148.3370 C   0  0  0  0  0  0  0  0  0  0  0  0
  -31.5329  -12.5318  148.8195 C   0  0  0  0  0  0  0  0  0  0  0  0
  -31.7160  -12.6093  150.2163 C   0  0  0  0  0  0  0  0  0  0  0  0
  -23.5355  -18.4550  146.4585 C   0  0  0  0  0  0  0  0  0  0  0  0
  -22.6046  -18.8409  146.9050 O   0  0  0  0  0  0  0  0  0  0  0  0
  -24.7444  -19.0431  146.6779 O   0  0  0  0  0  0  0  0  0  0  0  0
  -32.3995  -11.6228  150.9802 C   0  0  0  0  0  0  0  0  0  0  0  0
  -29.0228   -8.5076  142.9981 C   0  0  0  0  0  0  0  0  0  0  0  0
  -29.4147   -8.8223  141.7538 C   0  0  0  0  0  0  0  0  0  0  0  0
  -29.9370   -9.8994  141.1979 C   0  0  0  0  0  0  0  0  0  0  0  0
  -29.3519   -7.6658  140.7225 C   0  0  0  0  0  0  0  0  0  0  0  0
  -29.6776   -6.4707  141.0894 N   0  0  0  0  0  0  0  0  0  0  0  0
  -29.0311   -7.8996  139.4852 N   0  0  0  0  0  0  0  0  0  0  0  0
  -27.9940   -8.3205  138.8046 C   0  0  0  0  0  0  0  0  0  0  0  0
  -28.1300   -8.3781  137.4299 C   0  0  0  0  0  0  0  0  0  0  0  0
  -32.6646  -11.7480  152.3308 C   0  0  0  0  0  0  0  0  0  0  0  0
  -33.8410  -11.7041  152.5747 F   0  0  0  0  0  0  0  0  0  0  0  0
  -31.8950  -10.7422  153.0613 F   0  0  0  0  0  0  0  0  0  0  0  0
  5  7  1  0
  7  8  2  3
  8  9  1  0
 14 16  1  0
 16 17  1  0
 17 18  1  0
 18 19  1  0
 19 20  1  0
  2 21  1  0
 21 22  2  0
 21 23  1  0
 20 24  2  3
 12 25  1  0
 25 26  2  3
 26 27  1  0
 26 28  1  0
 28 29  1  0
 28 30  2  3
 30 31  1  0
 31 32  2  0
 24 33  1  0
 33 34  1  0
 33 35  1  0
  9 10  1  0
  1  2  2  0
  2  3  1  0
  3  4  2  0
  4  5  1  0
  5  6  2  0
  6  1  1  0
 10 11  2  0
 11 12  1  0
 12 13  2  0
 13 14  1  0
 14 15  2  0
 15 10  1  0
M  END

$$$$
No_1433-/dssg/home/sw_qyf/PocketFlow/Model-Generation-Results/5HT2A_7WC7_rec_A_10.pdb/2024-01-01-03-54-21/
     RDKit          3D

 22 24  0  0  0  0  0  0  0  0999 V2000
  -23.1746  -16.6014  144.8668 C   0  0  0  0  0  0  0  0  0  0  0  0
  -23.8963  -15.5346  144.7885 C   0  0  0  0  0  0  0  0  0  0  0  0
  -23.4976  -14.2961  145.1226 C   0  0  0  0  0  0  0  0  0  0  0  0
  -23.9189  -13.0599  144.7480 C   0  0  0  0  0  0  0  0  0  0  0  0
  -22.9866  -12.0510  145.4019 C   0  0  0  0  0  0  0  0  0  0  0  0
  -23.4201  -17.5795  145.7373 C   0  0  0  0  0  0  0  0  0  0  0  0
  -24.6637  -17.5373  146.4817 C   0  0  0  0  0  0  0  0  0  0  0  0
  -25.5945  -16.5580  146.2920 C   0  0  0  0  0  0  0  0  0  0  0  0
  -25.1720  -15.4366  145.5111 C   0  0  0  0  0  0  0  0  0  0  0  0
  -26.8513  -16.5519  147.0418 C   0  0  0  0  0  0  0  0  0  0  0  0
  -28.0587  -16.5716  146.2861 C   0  0  0  0  0  0  0  0  0  0  0  0
  -29.2472  -16.2152  146.8855 C   0  0  0  0  0  0  0  0  0  0  0  0
  -29.1860  -15.8223  148.3219 C   0  0  0  0  0  0  0  0  0  0  0  0
  -28.0131  -15.9882  149.0016 C   0  0  0  0  0  0  0  0  0  0  0  0
  -26.7748  -16.2328  148.3817 C   0  0  0  0  0  0  0  0  0  0  0  0
  -25.6448  -16.2957  149.0593 O   0  0  0  0  0  0  0  0  0  0  0  0
  -25.3316  -12.8231  145.1937 C   0  0  0  0  0  0  0  0  0  0  0  0
  -25.5956  -12.1996  146.2944 C   0  0  0  0  0  0  0  0  0  0  0  0
  -27.0063  -11.6982  146.4415 C   0  0  0  0  0  0  0  0  0  0  0  0
  -27.9416  -12.0426  145.5189 C   0  0  0  0  0  0  0  0  0  0  0  0
  -27.5829  -12.6502  144.3126 C   0  0  0  0  0  0  0  0  0  0  0  0
  -26.3023  -12.9825  144.1793 C   0  0  0  0  0  0  0  0  0  0  0  0
  2  3  1  0
  3  4  1  0
  4  5  1  0
  8 10  1  0
 15 16  1  0
  4 17  1  0
 17 18  2  0
 18 19  1  0
 19 20  2  0
 20 21  1  0
 21 22  2  0
 22 17  1  0
  1  2  2  0
  2  9  1  0
  9  8  2  0
  8  7  1  0
  7  6  2  0
  6  1  1  0
 10 11  2  0
 11 12  1  0
 12 13  2  0
 13 14  1  0
 14 15  2  0
 15 10  1  0
M  END

$$$$
No_1434-/dssg/home/sw_qyf/PocketFlow/Model-Generation-Results/5HT2A_7WC7_rec_A_10.pdb/2024-01-01-03-54-21/
     RDKit          3D

 13 14  0  0  0  0  0  0  0  0999 V2000
  -24.1553  -17.8465  145.7021 C   0  0  0  0  0  0  0  0  0  0  0  0
  -24.2855  -16.6364  145.3494 C   0  0  0  0  0  0  0  0  0  0  0  0
  -24.7211  -15.5955  146.2116 C   0  0  0  0  0  0  0  0  0  0  0  0
  -25.1321  -16.0374  147.5372 C   0  0  0  0  0  0  0  0  0  0  0  0
  -24.5141  -18.2630  147.0046 C   0  0  0  0  0  0  0  0  0  0  0  0
  -24.9573  -17.2963  147.9769 C   0  0  0  0  0  0  0  0  0  0  0  0
  -24.8720  -14.1818  145.7974 C   0  0  0  0  0  0  0  0  0  0  0  0
  -25.6103  -13.2835  146.3221 C   0  0  0  0  0  0  0  0  0  0  0  0
  -25.6053  -11.9244  145.9376 C   0  0  0  0  0  0  0  0  0  0  0  0
  -24.5902  -11.4450  145.1295 C   0  0  0  0  0  0  0  0  0  0  0  0
  -23.8209  -13.7154  144.8599 C   0  0  0  0  0  0  0  0  0  0  0  0
  -23.7128  -12.3531  144.6455 N   0  0  0  0  0  0  0  0  0  0  0  0
  -22.9571  -14.4376  144.3354 O   0  0  0  0  0  0  0  0  0  0  0  0
  3  7  1  0
  8  9  1  0
  7 11  1  0
 10 12  1  0
 11 12  1  0
 11 13  2  0
  7  8  1  0
  9 10  1  0
  1  2  2  0
  2  3  1  0
  3  4  2  0
  4  6  1  0
  6  5  2  0
  5  1  1  0
M  END

$$$$
No_1435-/dssg/home/sw_qyf/PocketFlow/Model-Generation-Results/5HT2A_7WC7_rec_A_10.pdb/2024-01-01-03-54-21/
     RDKit          3D

 33 36  0  0  0  0  0  0  0  0999 V2000
  -23.1746  -16.6014  144.8668 C   0  0  0  0  0  0  0  0  0  0  0  0
  -24.0189  -16.0564  145.8445 C   0  0  0  0  0  0  0  0  0  0  0  0
  -24.4850  -14.7380  145.6359 C   0  0  0  0  0  0  0  0  0  0  0  0
  -25.2717  -14.0560  146.5949 C   0  0  0  0  0  0  0  0  0  0  0  0
  -25.5669  -12.6700  146.4456 C   0  0  0  0  0  0  0  0  0  0  0  0
  -25.1774  -11.9727  145.2644 C   0  0  0  0  0  0  0  0  0  0  0  0
  -24.2583  -12.6444  144.4323 C   0  0  0  0  0  0  0  0  0  0  0  0
  -23.9746  -14.0153  144.6649 C   0  0  0  0  0  0  0  0  0  0  0  0
  -24.4407  -16.8601  146.9515 C   0  0  0  0  0  0  0  0  0  0  0  0
  -25.1111  -16.6229  147.9710 C   0  0  0  0  0  0  0  0  0  0  0  0
  -24.9821  -17.2513  149.2422 C   0  0  0  0  0  0  0  0  0  0  0  0
  -24.3975  -17.0446  150.1767 C   0  0  0  0  0  0  0  0  0  0  0  0
  -25.4534  -10.7018  145.1348 O   0  0  0  0  0  0  0  0  0  0  0  0
  -26.7390  -10.4468  144.5047 C   0  0  0  0  0  0  0  0  0  0  0  0
  -27.8335  -10.9405  145.1635 C   0  0  0  0  0  0  0  0  0  0  0  0
  -29.1248  -10.5241  144.7362 C   0  0  0  0  0  0  0  0  0  0  0  0
  -29.3196   -9.5785  143.7689 C   0  0  0  0  0  0  0  0  0  0  0  0
  -30.5989   -9.2050  143.3584 C   0  0  0  0  0  0  0  0  0  0  0  0
  -30.7450   -8.6221  142.1160 C   0  0  0  0  0  0  0  0  0  0  0  0
  -29.5651   -8.3167  141.3757 C   0  0  0  0  0  0  0  0  0  0  0  0
  -29.6234   -7.5001  140.2188 C   0  0  0  0  0  0  0  0  0  0  0  0
  -28.7684   -7.8461  139.0911 C   0  0  0  0  0  0  0  0  0  0  0  0
  -28.0830   -9.0885  139.0469 C   0  0  0  0  0  0  0  0  0  0  0  0
  -27.9351   -9.8494  140.2729 C   0  0  0  0  0  0  0  0  0  0  0  0
  -27.2165  -11.0086  140.3549 C   0  0  0  0  0  0  0  0  0  0  0  0
  -28.8144   -9.5108  141.4108 C   0  0  0  0  0  0  0  0  0  0  0  0
  -26.0164  -11.3568  139.1258 Br  0  0  0  0  0  0  0  0  0  0  0  0
  -28.3950   -9.9563  142.5111 C   0  0  0  0  0  0  0  0  0  0  0  0
  -23.2940  -17.7811  147.2346 C   0  0  0  0  0  0  0  0  0  0  0  0
  -23.1514  -16.3351  150.2903 C   0  0  0  0  0  0  0  0  0  0  0  0
  -26.7476   -9.4668  143.7516 C   0  0  0  0  0  0  0  0  0  0  0  0
  -27.5226   -9.3369  142.7260 N   0  0  0  0  0  0  0  0  0  0  0  0
  -21.9439  -17.1897  150.8086 C   0  0  0  0  0  0  0  0  0  0  0  0
  1  2  1  0
  2  3  1  0
  2  9  1  0
  9 10  1  0
 10 11  2  3
 11 12  1  0
  6 13  1  0
 13 14  1  0
 14 15  1  0
 15 16  2  0
 16 17  1  0
 24 25  1  0
 25 27  1  0
  9 29  1  0
 12 30  2  3
 14 31  1  0
 28 32  1  0
 31 32  1  0
 30 33  1  0
 17 18  2  0
 18 19  1  0
 19 20  2  0
 26 28  2  0
 28 17  1  0
  3  4  2  0
  4  5  1  0
  5  6  2  0
  6  7  1  0
  7  8  2  0
  8  3  1  0
 20 21  1  0
 21 22  2  0
 22 23  1  0
 23 24  2  0
 24 26  1  0
 26 20  1  0
M  END

$$$$
No_1436-/dssg/home/sw_qyf/PocketFlow/Model-Generation-Results/5HT2A_7WC7_rec_A_10.pdb/2024-01-01-03-54-21/
     RDKit          3D

 13 14  0  0  0  0  0  0  0  0999 V2000
  -24.1553  -17.8465  145.7021 C   0  0  0  0  0  0  0  0  0  0  0  0
  -24.2856  -16.6364  145.3494 C   0  0  0  0  0  0  0  0  0  0  0  0
  -24.7837  -15.7223  145.8474 C   0  0  0  0  0  0  0  0  0  0  0  0
  -25.6062  -15.9757  147.0426 C   0  0  0  0  0  0  0  0  0  0  0  0
  -24.8560  -18.2318  146.8941 C   0  0  0  0  0  0  0  0  0  0  0  0
  -25.5370  -17.2345  147.6143 C   0  0  0  0  0  0  0  0  0  0  0  0
  -24.9394  -14.2217  145.4239 C   0  0  0  0  0  0  0  0  0  0  0  0
  -24.8152  -13.3579  146.3562 C   0  0  0  0  0  0  0  0  0  0  0  0
  -24.7837  -11.9414  146.0992 C   0  0  0  0  0  0  0  0  0  0  0  0
  -24.7873  -13.9146  144.1079 C   0  0  0  0  0  0  0  0  0  0  0  0
  -24.7581  -11.5631  144.7667 C   0  0  0  0  0  0  0  0  0  0  0  0
  -24.8947  -12.9651  143.7024 N   0  0  0  0  0  0  0  0  0  0  0  0
  -23.5507  -16.4145  144.0930 O   0  0  0  0  0  0  0  0  0  0  0  0
  3  7  1  0
  2 13  1  0
  1  2  2  0
  2  3  1  0
  3  4  2  0
  4  6  1  0
  6  5  2  0
  5  1  1  0
  7  8  2  0
  8  9  1  0
  9 11  2  0
 11 12  1  0
 12 10  2  0
 10  7  1  0
M  END

$$$$
No_1437-/dssg/home/sw_qyf/PocketFlow/Model-Generation-Results/5HT2A_7WC7_rec_A_10.pdb/2024-01-01-03-54-21/
     RDKit          3D

 35 37  0  0  0  0  0  0  0  0999 V2000
  -23.1746  -16.6014  144.8668 C   0  0  0  0  0  0  0  0  0  0  0  0
  -24.0189  -16.0564  145.8445 C   0  0  0  0  0  0  0  0  0  0  0  0
  -24.4850  -14.7380  145.6359 C   0  0  0  0  0  0  0  0  0  0  0  0
  -25.3334  -14.0797  146.6105 C   0  0  0  0  0  0  0  0  0  0  0  0
  -25.7120  -12.7595  146.4431 C   0  0  0  0  0  0  0  0  0  0  0  0
  -26.8215  -12.1889  146.8038 C   0  0  0  0  0  0  0  0  0  0  0  0
  -27.3044  -11.0102  146.1259 C   0  0  0  0  0  0  0  0  0  0  0  0
  -28.5684  -10.9654  145.6009 C   0  0  0  0  0  0  0  0  0  0  0  0
  -28.9713  -10.1326  144.5038 C   0  0  0  0  0  0  0  0  0  0  0  0
  -30.2383   -9.9890  144.0083 C   0  0  0  0  0  0  0  0  0  0  0  0
  -30.6775   -8.6638  144.0269 C   0  0  0  0  0  0  0  0  0  0  0  0
  -30.3682   -7.8285  142.8394 C   0  0  0  0  0  0  0  0  0  0  0  0
  -30.8213   -8.2178  141.5365 C   0  0  0  0  0  0  0  0  0  0  0  0
  -23.9776  -13.9415  144.5720 C   0  0  0  0  0  0  0  0  0  0  0  0
  -23.4133  -14.3630  143.6895 O   0  0  0  0  0  0  0  0  0  0  0  0
  -23.0489  -17.9648  144.9969 C   0  0  0  0  0  0  0  0  0  0  0  0
  -23.7502  -18.4001  146.1950 C   0  0  0  0  0  0  0  0  0  0  0  0
  -24.4592  -17.0901  146.7149 C   0  0  0  0  0  0  0  0  0  0  0  0
  -24.7890  -12.0964  145.4385 C   0  0  0  0  0  0  0  0  0  0  0  0
  -24.2390  -12.5236  144.6000 C   0  0  0  0  0  0  0  0  0  0  0  0
  -29.9775   -7.8528  140.4834 C   0  0  0  0  0  0  0  0  0  0  0  0
  -29.1586   -6.9578  140.6407 C   0  0  0  0  0  0  0  0  0  0  0  0
  -28.8631   -6.3376  141.9054 C   0  0  0  0  0  0  0  0  0  0  0  0
  -29.4356   -6.8792  143.0148 C   0  0  0  0  0  0  0  0  0  0  0  0
  -25.8746  -17.3144  147.0135 C   0  0  0  0  0  0  0  0  0  0  0  0
  -26.8703  -17.2300  145.9953 C   0  0  0  0  0  0  0  0  0  0  0  0
  -27.9625  -16.2350  146.2297 C   0  0  0  0  0  0  0  0  0  0  0  0
  -27.5722  -14.8809  146.3956 C   0  0  0  0  0  0  0  0  0  0  0  0
  -28.9554  -14.2269  146.5230 C   0  0  0  0  0  0  0  0  0  0  0  0
  -27.8666   -9.6025  143.7273 C   0  0  0  0  0  0  0  0  0  0  0  0
  -29.7209  -14.4245  147.7669 C   0  0  0  0  0  0  0  0  0  0  0  0
  -30.7303  -13.4552  148.0928 C   0  0  0  0  0  0  0  0  0  0  0  0
  -30.6218  -13.0226  149.4931 C   0  0  0  0  0  0  0  0  0  0  0  0
  -24.8581  -14.3391  147.8935 O   0  0  0  0  0  0  0  0  0  0  0  0
  -31.8959  -13.0043  150.1286 C   0  0  0  0  0  0  0  0  0  0  0  0
  1  2  1  0
  2  3  2  3
  3  4  1  0
  4  5  1  0
  5  6  1  0
  6  7  1  0
  7  8  1  0
  8  9  2  3
  9 10  1  0
 10 11  1  0
 11 12  1  0
  3 14  1  0
 14 15  1  0
  1 16  2  0
 16 17  1  0
  2 18  1  0
 17 18  1  0
  5 19  1  0
 14 20  1  0
 19 20  1  0
 18 25  1  0
 25 26  1  0
 26 27  1  0
 27 28  2  3
 28 29  1  0
  9 30  1  0
 29 31  1  0
 31 32  2  3
 32 33  1  0
  4 34  1  0
 33 35  1  0
 12 13  2  0
 13 21  1  0
 21 22  2  0
 22 23  1  0
 23 24  2  0
 24 12  1  0
M  END

$$$$
No_1438-/dssg/home/sw_qyf/PocketFlow/Model-Generation-Results/5HT2A_7WC7_rec_A_10.pdb/2024-01-01-03-54-21/
     RDKit          3D

  7  7  0  0  0  0  0  0  0  0999 V2000
  -23.1746  -16.6014  144.8668 C   0  0  0  0  0  0  0  0  0  0  0  0
  -24.0189  -16.0564  145.8445 C   0  0  0  0  0  0  0  0  0  0  0  0
  -24.4145  -16.8299  146.9062 C   0  0  0  0  0  0  0  0  0  0  0  0
  -25.2730  -16.2838  147.9150 C   0  0  0  0  0  0  0  0  0  0  0  0
  -25.7919  -14.9951  147.6737 C   0  0  0  0  0  0  0  0  0  0  0  0
  -24.5377  -14.6789  145.6474 C   0  0  0  0  0  0  0  0  0  0  0  0
  -25.2166  -14.2119  146.5158 C   0  0  0  0  0  0  0  0  0  0  0  0
  1  2  1  0
  2  3  2  0
  3  4  1  0
  4  5  2  0
  5  7  1  0
  7  6  2  0
  6  2  1  0
M  END

$$$$
No_1439-/dssg/home/sw_qyf/PocketFlow/Model-Generation-Results/5HT2A_7WC7_rec_A_10.pdb/2024-01-01-03-54-21/
     RDKit          3D

 32 34  0  0  0  0  0  0  0  0999 V2000
  -23.1746  -16.6014  144.8668 C   0  0  0  0  0  0  0  0  0  0  0  0
  -24.0189  -16.0564  145.8445 C   0  0  0  0  0  0  0  0  0  0  0  0
  -24.4145  -16.8299  146.9062 C   0  0  0  0  0  0  0  0  0  0  0  0
  -25.2273  -16.2787  147.9854 C   0  0  0  0  0  0  0  0  0  0  0  0
  -25.7358  -15.0095  147.7773 C   0  0  0  0  0  0  0  0  0  0  0  0
  -25.3901  -14.2337  146.6672 C   0  0  0  0  0  0  0  0  0  0  0  0
  -24.5390  -14.7030  145.7350 C   0  0  0  0  0  0  0  0  0  0  0  0
  -24.1426  -13.8633  144.6266 C   0  0  0  0  0  0  0  0  0  0  0  0
  -24.9217  -13.6161  143.8344 O   0  0  0  0  0  0  0  0  0  0  0  0
  -25.9026  -12.8213  146.6438 C   0  0  0  0  0  0  0  0  0  0  0  0
  -26.2867  -12.2513  145.4301 C   0  0  0  0  0  0  0  0  0  0  0  0
  -25.3630  -12.3440  144.2820 C   0  0  0  0  0  0  0  0  0  0  0  0
  -27.4990  -11.6422  145.2658 C   0  0  0  0  0  0  0  0  0  0  0  0
  -28.6707  -12.0344  145.9205 C   0  0  0  0  0  0  0  0  0  0  0  0
  -29.8806  -11.3761  145.7427 C   0  0  0  0  0  0  0  0  0  0  0  0
  -29.6865  -10.2205  144.9203 C   0  0  0  0  0  0  0  0  0  0  0  0
  -28.6264   -9.8274  144.2475 C   0  0  0  0  0  0  0  0  0  0  0  0
  -27.4724  -10.5589  144.4019 C   0  0  0  0  0  0  0  0  0  0  0  0
  -23.8965  -18.2026  147.0940 C   0  0  0  0  0  0  0  0  0  0  0  0
  -23.2105  -18.6650  147.9835 O   0  0  0  0  0  0  0  0  0  0  0  0
  -24.4490  -19.1323  146.2713 O   0  0  0  0  0  0  0  0  0  0  0  0
  -28.7367   -8.7180  143.2974 C   0  0  0  0  0  0  0  0  0  0  0  0
  -29.8663   -8.3956  142.6201 C   0  0  0  0  0  0  0  0  0  0  0  0
  -29.8862   -7.4705  141.6056 C   0  0  0  0  0  0  0  0  0  0  0  0
  -29.9333   -7.7797  140.2937 C   0  0  0  0  0  0  0  0  0  0  0  0
  -29.5892   -8.4586  139.6112 C   0  0  0  0  0  0  0  0  0  0  0  0
  -28.3678   -9.2842  140.0250 C   0  0  0  0  0  0  0  0  0  0  0  0
  -27.7302  -10.2061  139.1000 C   0  0  0  0  0  0  0  0  0  0  0  0
  -26.7575  -11.0421  139.7690 C   0  0  0  0  0  0  0  0  0  0  0  0
  -26.5729  -12.2353  138.9694 C   0  0  0  0  0  0  0  0  0  0  0  0
  -25.6605  -13.0539  139.3918 O   0  0  0  0  0  0  0  0  0  0  0  0
  -27.2053  -12.4734  137.9311 O   0  0  0  0  0  0  0  0  0  0  0  0
  1  2  1  0
  7  8  1  0
  8  9  1  0
  6 10  1  0
 10 11  1  0
  9 12  1  0
 11 12  1  0
 11 13  1  0
  3 19  1  0
 19 20  2  0
 19 21  1  0
 17 22  1  0
 22 23  1  0
 23 24  2  3
 24 25  1  0
 25 26  2  3
 26 27  1  0
 27 28  2  3
 28 29  1  0
 29 30  1  0
 30 31  1  0
 30 32  2  0
  2  3  2  0
  3  4  1  0
  4  5  2  0
  5  6  1  0
  6  7  2  0
  7  2  1  0
 13 14  2  0
 14 15  1  0
 15 16  2  0
 16 17  1  0
 17 18  2  0
 18 13  1  0
M  END

$$$$
No_1440-/dssg/home/sw_qyf/PocketFlow/Model-Generation-Results/5HT2A_7WC7_rec_A_10.pdb/2024-01-01-03-54-21/
     RDKit          3D

 35 37  0  0  0  0  0  0  0  0999 V2000
  -24.1553  -17.8465  145.7021 C   0  0  0  0  0  0  0  0  0  0  0  0
  -23.9795  -18.4462  146.7426 C   0  0  0  0  0  0  0  0  0  0  0  0
  -25.1593  -16.8262  145.6925 C   0  0  0  0  0  0  0  0  0  0  0  0
  -25.3302  -15.8818  144.5925 C   0  0  0  0  0  0  0  0  0  0  0  0
  -24.4570  -18.1009  148.0274 C   0  0  0  0  0  0  0  0  0  0  0  0
  -25.3496  -17.0286  148.1023 C   0  0  0  0  0  0  0  0  0  0  0  0
  -25.5669  -16.2449  146.9641 C   0  0  0  0  0  0  0  0  0  0  0  0
  -26.3837  -15.0461  144.6540 N   0  0  0  0  0  0  0  0  0  0  0  0
  -27.1971  -14.9159  145.6189 C   0  0  0  0  0  0  0  0  0  0  0  0
  -28.2494  -13.9731  145.6567 C   0  0  0  0  0  0  0  0  0  0  0  0
  -29.1569  -13.8708  146.7685 C   0  0  0  0  0  0  0  0  0  0  0  0
  -30.0520  -12.7807  146.9340 C   0  0  0  0  0  0  0  0  0  0  0  0
  -29.7671  -11.6188  146.1328 C   0  0  0  0  0  0  0  0  0  0  0  0
  -28.7000  -11.5259  145.2660 C   0  0  0  0  0  0  0  0  0  0  0  0
  -27.8810  -12.6849  145.1181 C   0  0  0  0  0  0  0  0  0  0  0  0
  -26.7637  -15.4630  146.9247 C   0  0  0  0  0  0  0  0  0  0  0  0
  -28.4801  -10.2936  144.5319 C   0  0  0  0  0  0  0  0  0  0  0  0
  -27.2708   -9.9566  144.1740 C   0  0  0  0  0  0  0  0  0  0  0  0
  -29.5823   -9.5925  143.9778 C   0  0  0  0  0  0  0  0  0  0  0  0
  -29.4716   -8.5787  143.0759 C   0  0  0  0  0  0  0  0  0  0  0  0
  -30.4458   -8.2042  142.2192 C   0  0  0  0  0  0  0  0  0  0  0  0
  -30.2634   -7.4065  141.1810 N   0  0  0  0  0  0  0  0  0  0  0  0
  -31.6747   -8.8040  142.2569 O   0  0  0  0  0  0  0  0  0  0  0  0
  -29.0332   -6.6743  141.1291 C   0  0  0  0  0  0  0  0  0  0  0  0
  -24.2815  -15.4927  143.9910 O   0  0  0  0  0  0  0  0  0  0  0  0
  -31.0181  -12.8052  147.8344 O   0  0  0  0  0  0  0  0  0  0  0  0
  -30.9215  -13.6372  148.9064 C   0  0  0  0  0  0  0  0  0  0  0  0
  -31.8013  -13.5003  149.9959 C   0  0  0  0  0  0  0  0  0  0  0  0
  -32.6056  -12.3679  150.1027 C   0  0  0  0  0  0  0  0  0  0  0  0
  -32.9910  -11.6113  149.0495 C   0  0  0  0  0  0  0  0  0  0  0  0
  -32.7613  -11.8642  147.8876 N   0  0  0  0  0  0  0  0  0  0  0  0
  -34.1325  -10.7926  149.3428 N   0  0  0  0  0  0  0  0  0  0  0  0
  -32.2809  -10.5547  147.6559 C   0  0  0  0  0  0  0  0  0  0  0  0
  -32.0526   -9.5611  147.9883 O   0  0  0  0  0  0  0  0  0  0  0  0
  -30.0489  -14.5825  149.0114 N   0  0  0  0  0  0  0  0  0  0  0  0
  3  4  1  0
  4  8  1  0
  9 10  1  0
  7 16  1  0
  9 16  1  0
 14 17  1  0
 17 18  2  0
 17 19  1  0
 19 20  1  0
 20 21  1  0
 21 22  1  0
 21 23  2  0
 22 24  1  0
  4 25  2  0
 12 26  1  0
 26 27  1  0
 27 28  2  3
 28 29  1  0
 29 30  2  3
 30 31  1  0
 30 32  1  0
 31 33  1  0
 33 34  2  0
 27 35  1  0
  9  8  1  0
  1  2  2  0
  2  5  1  0
  5  6  2  0
  6  7  1  0
  7  3  2  0
  3  1  1  0
 10 11  2  0
 11 12  1  0
 12 13  2  0
 13 14  1  0
 14 15  2  0
 15 10  1  0
M  END

$$$$
No_1441-/dssg/home/sw_qyf/PocketFlow/Model-Generation-Results/5HT2A_7WC7_rec_A_10.pdb/2024-01-01-03-54-21/
     RDKit          3D

 18 17  0  0  0  0  0  0  0  0999 V2000
  -23.1746  -16.6014  144.8668 C   0  0  0  0  0  0  0  0  0  0  0  0
  -23.8963  -15.5346  144.7885 C   0  0  0  0  0  0  0  0  0  0  0  0
  -23.6398  -14.5115  145.3281 C   0  0  0  0  0  0  0  0  0  0  0  0
  -24.3240  -13.3648  145.1281 C   0  0  0  0  0  0  0  0  0  0  0  0
  -23.8303  -12.0965  145.7921 C   0  0  0  0  0  0  0  0  0  0  0  0
  -25.3060  -13.1626  144.3111 O   0  0  0  0  0  0  0  0  0  0  0  0
  -23.5864  -17.8093  144.8020 C   0  0  0  0  0  0  0  0  0  0  0  0
  -24.3547  -18.1531  146.1396 C   0  0  0  0  0  0  0  0  0  0  0  0
  -24.0360  -17.3762  147.1959 C   0  0  0  0  0  0  0  0  0  0  0  0
  -23.2518  -17.6555  148.0449 C   0  0  0  0  0  0  0  0  0  0  0  0
  -23.1316  -16.9439  149.4212 C   0  0  0  0  0  0  0  0  0  0  0  0
  -24.9342  -19.4346  146.2876 C   0  0  0  0  0  0  0  0  0  0  0  0
  -26.4725  -12.5633  144.7801 C   0  0  0  0  0  0  0  0  0  0  0  0
  -27.5695  -12.9272  144.5054 C   0  0  0  0  0  0  0  0  0  0  0  0
  -28.7875  -12.1104  144.8886 C   0  0  0  0  0  0  0  0  0  0  0  0
  -29.0958  -12.0890  146.2685 C   0  0  0  0  0  0  0  0  0  0  0  0
  -28.0454  -12.1061  147.0005 F   0  0  0  0  0  0  0  0  0  0  0  0
  -29.9003  -13.2003  146.5867 F   0  0  0  0  0  0  0  0  0  0  0  0
  1  2  1  0
  2  3  2  3
  3  4  1  0
  4  5  1  0
  4  6  1  0
  1  7  1  0
  7  8  1  0
  8  9  1  0
  9 10  1  0
 10 11  2  0
  8 12  1  0
  6 13  1  0
 13 14  1  0
 14 15  2  3
 15 16  1  0
 16 17  1  0
 16 18  1  0
M  END

$$$$
No_1442-/dssg/home/sw_qyf/PocketFlow/Model-Generation-Results/5HT2A_7WC7_rec_A_10.pdb/2024-01-01-03-54-21/
     RDKit          3D

 28 32  0  0  0  0  0  0  0  0999 V2000
  -24.1553  -17.8465  145.7021 C   0  0  0  0  0  0  0  0  0  0  0  0
  -23.9795  -18.4462  146.7426 C   0  0  0  0  0  0  0  0  0  0  0  0
  -25.1196  -16.8106  145.6408 C   0  0  0  0  0  0  0  0  0  0  0  0
  -25.9237  -16.5070  146.7422 C   0  0  0  0  0  0  0  0  0  0  0  0
  -26.9588  -15.5563  146.6457 C   0  0  0  0  0  0  0  0  0  0  0  0
  -28.0525  -15.5152  147.4931 C   0  0  0  0  0  0  0  0  0  0  0  0
  -29.0416  -14.5505  147.3669 C   0  0  0  0  0  0  0  0  0  0  0  0
  -28.8082  -13.4759  146.5131 C   0  0  0  0  0  0  0  0  0  0  0  0
  -29.7007  -12.3004  146.5085 C   0  0  0  0  0  0  0  0  0  0  0  0
  -24.6373  -18.1823  147.9668 C   0  0  0  0  0  0  0  0  0  0  0  0
  -25.6409  -17.1522  147.9506 C   0  0  0  0  0  0  0  0  0  0  0  0
  -29.2863  -11.1769  145.7191 C   0  0  0  0  0  0  0  0  0  0  0  0
  -28.9333  -11.3312  144.4345 C   0  0  0  0  0  0  0  0  0  0  0  0
  -28.9762  -10.3187  143.4467 C   0  0  0  0  0  0  0  0  0  0  0  0
  -29.8608   -9.2942  143.6924 C   0  0  0  0  0  0  0  0  0  0  0  0
  -30.1224   -8.3245  142.6643 C   0  0  0  0  0  0  0  0  0  0  0  0
  -31.1234   -7.3924  142.7554 C   0  0  0  0  0  0  0  0  0  0  0  0
  -26.9411  -14.5337  145.5987 C   0  0  0  0  0  0  0  0  0  0  0  0
  -27.6831  -13.4504  145.6737 C   0  0  0  0  0  0  0  0  0  0  0  0
  -29.4013   -8.3599  141.4194 C   0  0  0  0  0  0  0  0  0  0  0  0
  -29.4754   -7.3045  140.5150 C   0  0  0  0  0  0  0  0  0  0  0  0
  -28.3815   -9.3488  141.2367 C   0  0  0  0  0  0  0  0  0  0  0  0
  -28.2559  -10.3868  142.2387 C   0  0  0  0  0  0  0  0  0  0  0  0
  -27.9159  -12.4659  144.2369 C   0  0  0  0  0  0  0  0  0  0  0  0
  -30.6091  -12.1923  147.4529 O   0  0  0  0  0  0  0  0  0  0  0  0
  -24.6652  -15.6349  144.9960 N   0  0  0  0  0  0  0  0  0  0  0  0
  -25.7068  -14.6397  144.6870 C   0  0  0  0  0  0  0  0  0  0  0  0
  -23.5018  -14.9260  145.3090 C   0  0  0  0  0  0  0  0  0  0  0  0
  4  5  1  0
  8  9  1  0
  9 12  1  0
 12 13  1  0
 13 14  1  0
 16 17  1  0
 20 21  1  0
 13 24  1  0
 19 24  1  0
  9 25  2  0
  3 26  1  0
 18 27  1  0
 26 27  1  0
 26 28  1  0
 14 15  2  0
 15 16  1  0
 16 20  2  0
 20 22  1  0
 22 23  2  0
 23 14  1  0
  5  6  2  0
  6  7  1  0
  7  8  2  0
  8 19  1  0
 19 18  2  0
 18  5  1  0
  1  2  2  0
  2 10  1  0
 10 11  2  0
 11  4  1  0
  4  3  2  0
  3  1  1  0
M  END

$$$$
No_1443-/dssg/home/sw_qyf/PocketFlow/Model-Generation-Results/5HT2A_7WC7_rec_A_10.pdb/2024-01-01-03-54-21/
     RDKit          3D

 15 16  0  0  0  0  0  0  0  0999 V2000
  -23.1746  -16.6014  144.8668 C   0  0  0  0  0  0  0  0  0  0  0  0
  -23.8963  -15.5346  144.7885 C   0  0  0  0  0  0  0  0  0  0  0  0
  -24.5755  -15.0383  145.9043 C   0  0  0  0  0  0  0  0  0  0  0  0
  -24.8345  -15.9108  146.9141 C   0  0  0  0  0  0  0  0  0  0  0  0
  -24.2398  -17.1433  146.9649 C   0  0  0  0  0  0  0  0  0  0  0  0
  -23.4221  -17.5266  145.9093 C   0  0  0  0  0  0  0  0  0  0  0  0
  -25.2380  -13.6642  145.8941 C   0  0  0  0  0  0  0  0  0  0  0  0
  -24.4020  -12.6411  146.0740 C   0  0  0  0  0  0  0  0  0  0  0  0
  -26.5592  -13.4850  145.6641 C   0  0  0  0  0  0  0  0  0  0  0  0
  -27.1595  -12.2092  145.6863 C   0  0  0  0  0  0  0  0  0  0  0  0
  -26.3163  -11.1026  145.6745 C   0  0  0  0  0  0  0  0  0  0  0  0
  -24.9669  -11.3489  146.0885 N   0  0  0  0  0  0  0  0  0  0  0  0
  -28.5701  -11.9513  145.5035 C   0  0  0  0  0  0  0  0  0  0  0  0
  -29.5652  -12.3396  146.4855 C   0  0  0  0  0  0  0  0  0  0  0  0
  -29.2643  -13.4802  147.5759 Cl  0  0  0  0  0  0  0  0  0  0  0  0
  3  7  1  0
 10 13  1  0
 13 14  2  3
 14 15  1  0
  1  2  2  0
  2  3  1  0
  3  4  2  0
  4  5  1  0
  5  6  2  0
  6  1  1  0
  7  8  2  0
  8 12  1  0
 12 11  2  0
 11 10  1  0
 10  9  2  0
  9  7  1  0
M  END

$$$$
No_1444-/dssg/home/sw_qyf/PocketFlow/Model-Generation-Results/5HT2A_7WC7_rec_A_10.pdb/2024-01-01-03-54-21/
     RDKit          3D

 25 25  0  0  0  0  0  0  0  0999 V2000
  -24.1553  -17.8465  145.7021 C   0  0  0  0  0  0  0  0  0  0  0  0
  -23.9795  -18.4462  146.7426 C   0  0  0  0  0  0  0  0  0  0  0  0
  -25.1593  -16.8262  145.6925 C   0  0  0  0  0  0  0  0  0  0  0  0
  -26.3426  -16.9003  146.3448 C   0  0  0  0  0  0  0  0  0  0  0  0
  -24.0322  -17.9689  147.7984 C   0  0  0  0  0  0  0  0  0  0  0  0
  -26.1932  -16.7605  147.8824 C   0  0  0  0  0  0  0  0  0  0  0  0
  -25.2719  -17.5142  148.6029 C   0  0  0  0  0  0  0  0  0  0  0  0
  -23.5076  -17.8888  144.4698 N   0  0  0  0  0  0  0  0  0  0  0  0
  -25.0166  -15.4921  144.9675 C   0  0  0  0  0  0  0  0  0  0  0  0
  -26.0233  -14.7296  144.5374 C   0  0  0  0  0  0  0  0  0  0  0  0
  -25.8730  -13.5698  143.8111 C   0  0  0  0  0  0  0  0  0  0  0  0
  -27.0564  -12.9446  143.3963 C   0  0  0  0  0  0  0  0  0  0  0  0
  -27.3094  -12.5802  142.0613 C   0  0  0  0  0  0  0  0  0  0  0  0
  -27.2100  -13.4243  141.0779 C   0  0  0  0  0  0  0  0  0  0  0  0
  -27.4042  -12.9222  139.7602 C   0  0  0  0  0  0  0  0  0  0  0  0
  -26.6814  -12.9505  138.6995 C   0  0  0  0  0  0  0  0  0  0  0  0
  -25.2116  -13.0798  139.0251 C   0  0  0  0  0  0  0  0  0  0  0  0
  -25.4924  -17.7726  150.0075 C   0  0  0  0  0  0  0  0  0  0  0  0
  -26.4951  -18.2299  150.4867 O   0  0  0  0  0  0  0  0  0  0  0  0
  -24.3898  -17.4852  150.8468 O   0  0  0  0  0  0  0  0  0  0  0  0
  -28.0159  -11.3019  141.9311 C   0  0  0  0  0  0  0  0  0  0  0  0
  -28.2607  -10.6457  140.8226 C   0  0  0  0  0  0  0  0  0  0  0  0
  -28.8317   -9.4032  140.7082 C   0  0  0  0  0  0  0  0  0  0  0  0
  -29.4540   -8.7958  141.8327 C   0  0  0  0  0  0  0  0  0  0  0  0
  -30.0663   -7.5050  141.7771 C   0  0  0  0  0  0  0  0  0  0  0  0
  1  2  1  0
  1  3  1  0
  3  4  2  0
  2  5  1  0
  4  6  1  0
  5  7  1  0
  6  7  1  0
  1  8  1  0
  3  9  1  0
  9 10  2  3
 10 11  1  0
 11 12  1  0
 12 13  1  0
 13 14  1  0
 14 15  2  3
 15 16  1  0
 16 17  1  0
  7 18  1  0
 18 19  2  0
 18 20  1  0
 13 21  1  0
 21 22  2  3
 22 23  1  0
 23 24  2  3
 24 25  1  0
M  END

$$$$
No_1445-/dssg/home/sw_qyf/PocketFlow/Model-Generation-Results/5HT2A_7WC7_rec_A_10.pdb/2024-01-01-03-54-21/
     RDKit          3D

 28 31  0  0  0  0  0  0  0  0999 V2000
  -24.1553  -17.8465  145.7021 C   0  0  0  0  0  0  0  0  0  0  0  0
  -23.9795  -18.4462  146.7426 C   0  0  0  0  0  0  0  0  0  0  0  0
  -24.3577  -16.4380  145.7329 C   0  0  0  0  0  0  0  0  0  0  0  0
  -24.4745  -15.6012  144.5587 C   0  0  0  0  0  0  0  0  0  0  0  0
  -24.5845  -14.1656  144.8311 C   0  0  0  0  0  0  0  0  0  0  0  0
  -25.4952  -13.5661  145.3467 C   0  0  0  0  0  0  0  0  0  0  0  0
  -24.0407  -17.8881  148.0828 C   0  0  0  0  0  0  0  0  0  0  0  0
  -24.2814  -16.5035  148.1944 C   0  0  0  0  0  0  0  0  0  0  0  0
  -24.4153  -15.7595  147.0613 C   0  0  0  0  0  0  0  0  0  0  0  0
  -25.8189  -12.2156  145.0845 C   0  0  0  0  0  0  0  0  0  0  0  0
  -26.7613  -11.5385  145.8633 C   0  0  0  0  0  0  0  0  0  0  0  0
  -28.1127  -11.7154  145.4007 C   0  0  0  0  0  0  0  0  0  0  0  0
  -29.1028  -12.3398  146.2008 C   0  0  0  0  0  0  0  0  0  0  0  0
  -28.7372  -13.5479  146.8108 C   0  0  0  0  0  0  0  0  0  0  0  0
  -29.6538  -14.2836  147.6553 C   0  0  0  0  0  0  0  0  0  0  0  0
  -29.3107  -15.6311  148.0472 C   0  0  0  0  0  0  0  0  0  0  0  0
  -28.0463  -16.1613  147.6773 C   0  0  0  0  0  0  0  0  0  0  0  0
  -27.1398  -15.4222  146.9138 C   0  0  0  0  0  0  0  0  0  0  0  0
  -27.4948  -14.1870  146.4188 C   0  0  0  0  0  0  0  0  0  0  0  0
  -26.5643  -13.4496  145.6490 C   0  0  0  0  0  0  0  0  0  0  0  0
  -27.1479  -13.9205  144.3297 F   0  0  0  0  0  0  0  0  0  0  0  0
  -26.1121  -13.0770  146.6063 O   0  0  0  0  0  0  0  0  0  0  0  0
  -25.0800  -13.6270  147.3445 C   0  0  0  0  0  0  0  0  0  0  0  0
  -24.5551  -14.4935  147.2919 N   0  0  0  0  0  0  0  0  0  0  0  0
  -26.2382  -10.2454  145.5445 O   0  0  0  0  0  0  0  0  0  0  0  0
  -23.3636  -13.5164  144.1046 C   0  0  0  0  0  0  0  0  0  0  0  0
  -21.9870  -13.7871  144.7163 C   0  0  0  0  0  0  0  0  0  0  0  0
  -21.1220  -13.0123  143.8361 C   0  0  0  0  0  0  0  0  0  0  0  0
  3  4  1  0
  4  5  1  0
  5  6  2  3
  6 10  1  0
 10 11  1  0
 11 12  1  0
 12 13  1  0
  6 20  1  0
 19 20  1  0
 20 21  1  0
 20 22  1  0
 22 23  1  0
  9 24  1  0
 23 24  2  3
 11 25  1  0
  5 26  1  0
 26 27  1  0
 27 28  1  0
 13 14  1  0
 14 15  2  0
 15 16  1  0
 16 17  2  0
 17 18  1  0
 18 19  2  0
 19 14  1  0
  1  2  2  0
  2  7  1  0
  7  8  2  0
  8  9  1  0
  9  3  2  0
  3  1  1  0
M  END

$$$$
No_1446-/dssg/home/sw_qyf/PocketFlow/Model-Generation-Results/5HT2A_7WC7_rec_A_10.pdb/2024-01-01-03-54-21/
     RDKit          3D

 27 29  0  0  0  0  0  0  0  0999 V2000
  -23.8998  -17.8495  145.5131 N   0  0  0  0  0  0  0  0  0  0  0  0
  -24.2980  -17.2303  146.4737 C   0  0  0  0  0  0  0  0  0  0  0  0
  -24.3388  -17.7142  147.7916 C   0  0  0  0  0  0  0  0  0  0  0  0
  -24.2345  -16.7483  148.8829 C   0  0  0  0  0  0  0  0  0  0  0  0
  -24.0211  -17.2894  150.2054 C   0  0  0  0  0  0  0  0  0  0  0  0
  -25.1640  -15.9604  146.1976 C   0  0  0  0  0  0  0  0  0  0  0  0
  -26.3741  -15.7947  146.5988 C   0  0  0  0  0  0  0  0  0  0  0  0
  -27.3416  -16.7475  146.7868 C   0  0  0  0  0  0  0  0  0  0  0  0
  -26.9862  -14.4295  146.5120 C   0  0  0  0  0  0  0  0  0  0  0  0
  -28.3249  -14.0915  146.7993 C   0  0  0  0  0  0  0  0  0  0  0  0
  -28.8248  -12.7882  146.8268 C   0  0  0  0  0  0  0  0  0  0  0  0
  -27.9713  -11.8428  146.1273 C   0  0  0  0  0  0  0  0  0  0  0  0
  -26.6747  -12.1420  145.7632 C   0  0  0  0  0  0  0  0  0  0  0  0
  -26.2171  -13.3688  145.9387 C   0  0  0  0  0  0  0  0  0  0  0  0
  -30.3750  -12.3305  147.3432 Cl  0  0  0  0  0  0  0  0  0  0  0  0
  -25.8300  -11.0446  145.2998 C   0  0  0  0  0  0  0  0  0  0  0  0
  -24.5566  -11.1005  145.4291 O   0  0  0  0  0  0  0  0  0  0  0  0
  -26.3186  -10.0121  144.6639 O   0  0  0  0  0  0  0  0  0  0  0  0
  -23.8749  -12.2274  144.9192 C   0  0  0  0  0  0  0  0  0  0  0  0
  -22.5007  -12.0986  144.5342 C   0  0  0  0  0  0  0  0  0  0  0  0
  -21.8858  -13.1090  143.8268 C   0  0  0  0  0  0  0  0  0  0  0  0
  -22.7104  -14.3342  143.8158 C   0  0  0  0  0  0  0  0  0  0  0  0
  -24.0849  -14.3658  144.0216 C   0  0  0  0  0  0  0  0  0  0  0  0
  -24.6378  -13.2459  144.6356 N   0  0  0  0  0  0  0  0  0  0  0  0
  -26.0615  -13.5375  144.9495 C   0  0  0  0  0  0  0  0  0  0  0  0
  -24.1180  -16.4727  151.1779 C   0  0  0  0  0  0  0  0  0  0  0  0
  -23.4347  -19.0092  145.5054 O   0  0  0  0  0  0  0  0  0  0  0  0
  1  2  1  0
  2  3  1  0
  3  4  1  0
  4  5  1  0
  2  6  1  0
  6  7  1  0
  7  8  2  0
  7  9  1  0
 11 15  1  0
 13 16  1  0
 16 17  1  0
 16 18  2  0
 17 19  1  0
 19 20  1  0
 21 22  1  0
 19 24  1  0
 23 24  1  0
 14 25  1  0
 24 25  1  0
  5 26  1  0
  1 27  2  0
 20 21  1  0
 22 23  1  0
  9 10  2  0
 10 11  1  0
 11 12  2  0
 12 13  1  0
 13 14  2  0
 14  9  1  0
M  END

$$$$
No_1447-/dssg/home/sw_qyf/PocketFlow/Model-Generation-Results/5HT2A_7WC7_rec_A_10.pdb/2024-01-01-03-54-21/
     RDKit          3D

 21 23  0  0  0  0  0  0  0  0999 V2000
  -24.1553  -17.8465  145.7021 C   0  0  0  0  0  0  0  0  0  0  0  0
  -23.9795  -18.4462  146.7426 C   0  0  0  0  0  0  0  0  0  0  0  0
  -25.1593  -16.8262  145.6925 C   0  0  0  0  0  0  0  0  0  0  0  0
  -25.9346  -16.5763  146.8154 C   0  0  0  0  0  0  0  0  0  0  0  0
  -25.6041  -17.2802  147.9650 C   0  0  0  0  0  0  0  0  0  0  0  0
  -24.6016  -18.1919  147.9827 C   0  0  0  0  0  0  0  0  0  0  0  0
  -27.0089  -15.5468  146.7485 C   0  0  0  0  0  0  0  0  0  0  0  0
  -28.1891  -15.7106  147.4281 C   0  0  0  0  0  0  0  0  0  0  0  0
  -29.1788  -14.7229  147.3639 C   0  0  0  0  0  0  0  0  0  0  0  0
  -28.9437  -13.5064  146.7471 C   0  0  0  0  0  0  0  0  0  0  0  0
  -27.7149  -13.2603  146.0957 C   0  0  0  0  0  0  0  0  0  0  0  0
  -26.7490  -14.2539  146.1116 C   0  0  0  0  0  0  0  0  0  0  0  0
  -27.4543  -11.9974  145.4038 C   0  0  0  0  0  0  0  0  0  0  0  0
  -28.0248  -11.1145  145.0950 C   0  0  0  0  0  0  0  0  0  0  0  0
  -27.8454  -10.1831  144.0281 C   0  0  0  0  0  0  0  0  0  0  0  0
  -28.8145   -9.3212  143.4990 C   0  0  0  0  0  0  0  0  0  0  0  0
  -30.1389   -9.4392  143.7726 C   0  0  0  0  0  0  0  0  0  0  0  0
  -31.0208   -8.5221  143.2571 C   0  0  0  0  0  0  0  0  0  0  0  0
  -30.5868   -7.6770  142.2553 C   0  0  0  0  0  0  0  0  0  0  0  0
  -29.3096   -7.6486  141.7716 C   0  0  0  0  0  0  0  0  0  0  0  0
  -28.3871   -8.5511  142.4257 C   0  0  0  0  0  0  0  0  0  0  0  0
  4  7  1  0
 11 13  1  0
 13 14  2  3
 14 15  1  0
 15 16  1  0
  1  2  2  0
  2  6  1  0
  6  5  2  0
  5  4  1  0
  4  3  2  0
  3  1  1  0
  7  8  2  0
  8  9  1  0
  9 10  2  0
 10 11  1  0
 11 12  2  0
 12  7  1  0
 16 17  2  0
 17 18  1  0
 18 19  2  0
 19 20  1  0
 20 21  2  0
 21 16  1  0
M  END

$$$$
No_1448-/dssg/home/sw_qyf/PocketFlow/Model-Generation-Results/5HT2A_7WC7_rec_A_10.pdb/2024-01-01-03-54-21/
     RDKit          3D

 29 31  0  0  0  0  0  0  0  0999 V2000
  -24.1553  -17.8465  145.7021 C   0  0  0  0  0  0  0  0  0  0  0  0
  -24.2856  -16.6364  145.3494 C   0  0  0  0  0  0  0  0  0  0  0  0
  -23.7824  -15.9602  144.3554 C   0  0  0  0  0  0  0  0  0  0  0  0
  -23.9871  -14.5276  144.1537 C   0  0  0  0  0  0  0  0  0  0  0  0
  -24.7876  -13.8357  145.1351 C   0  0  0  0  0  0  0  0  0  0  0  0
  -25.3945  -14.5459  146.1755 C   0  0  0  0  0  0  0  0  0  0  0  0
  -25.0741  -15.8909  146.3327 C   0  0  0  0  0  0  0  0  0  0  0  0
  -23.2608  -18.6718  145.7735 C   0  0  0  0  0  0  0  0  0  0  0  0
  -23.3752  -19.9431  146.2113 N   0  0  0  0  0  0  0  0  0  0  0  0
  -25.2978  -18.7185  146.1893 C   0  0  0  0  0  0  0  0  0  0  0  0
  -24.6547  -19.9418  146.4074 N   0  0  0  0  0  0  0  0  0  0  0  0
  -25.0179  -12.3967  144.9517 C   0  0  0  0  0  0  0  0  0  0  0  0
  -25.9428  -11.8441  146.0237 C   0  0  0  0  0  0  0  0  0  0  0  0
  -27.3035  -11.5474  145.5079 C   0  0  0  0  0  0  0  0  0  0  0  0
  -27.5643  -10.7190  144.5318 C   0  0  0  0  0  0  0  0  0  0  0  0
  -28.9808  -10.4443  144.2255 C   0  0  0  0  0  0  0  0  0  0  0  0
  -29.3847   -9.6673  143.1444 C   0  0  0  0  0  0  0  0  0  0  0  0
  -28.9393  -10.1009  141.9222 C   0  0  0  0  0  0  0  0  0  0  0  0
  -27.9134  -10.9823  141.7225 C   0  0  0  0  0  0  0  0  0  0  0  0
  -27.2315  -11.3117  143.0592 C   0  0  0  0  0  0  0  0  0  0  0  0
  -27.4864  -11.5772  140.5653 C   0  0  0  0  0  0  0  0  0  0  0  0
  -27.2146  -10.7895  139.4793 C   0  0  0  0  0  0  0  0  0  0  0  0
  -26.9857  -11.1758  138.3002 O   0  0  0  0  0  0  0  0  0  0  0  0
  -30.5225   -8.7468  143.2473 C   0  0  0  0  0  0  0  0  0  0  0  0
  -31.4010   -9.2021  143.8795 F   0  0  0  0  0  0  0  0  0  0  0  0
  -31.0428   -8.4619  141.9637 F   0  0  0  0  0  0  0  0  0  0  0  0
  -30.0766   -7.5341  143.5721 F   0  0  0  0  0  0  0  0  0  0  0  0
  -27.4444  -12.9058  140.4517 O   0  0  0  0  0  0  0  0  0  0  0  0
  -27.1002   -9.4631  139.5637 O   0  0  0  0  0  0  0  0  0  0  0  0
  1  2  1  0
  1  8  1  0
  8  9  2  0
  1 10  1  0
  9 11  1  0
 10 11  1  0
  5 12  1  0
 12 13  1  0
 13 14  1  0
 19 21  1  0
 21 22  1  0
 22 23  1  0
 17 24  1  0
 24 25  1  0
 24 26  1  0
 24 27  1  0
 21 28  1  0
 22 29  2  0
 14 15  1  0
 15 16  2  0
 16 17  1  0
 17 18  2  0
 18 19  1  0
 19 20  2  0
 20 15  1  0
  2  3  2  0
  3  4  1  0
  4  5  2  0
  5  6  1  0
  6  7  2  0
  7  2  1  0
M  END

$$$$
No_1449-/dssg/home/sw_qyf/PocketFlow/Model-Generation-Results/5HT2A_7WC7_rec_A_10.pdb/2024-01-01-03-54-21/
     RDKit          3D

 35 37  0  0  0  0  0  0  0  0999 V2000
  -24.1553  -17.8465  145.7021 C   0  0  0  0  0  0  0  0  0  0  0  0
  -23.9795  -18.4462  146.7426 C   0  0  0  0  0  0  0  0  0  0  0  0
  -25.1196  -16.8106  145.6409 C   0  0  0  0  0  0  0  0  0  0  0  0
  -25.9236  -16.5070  146.7422 C   0  0  0  0  0  0  0  0  0  0  0  0
  -26.9588  -15.5563  146.6458 C   0  0  0  0  0  0  0  0  0  0  0  0
  -26.8348  -14.5437  145.7143 C   0  0  0  0  0  0  0  0  0  0  0  0
  -25.8786  -14.6986  144.6313 C   0  0  0  0  0  0  0  0  0  0  0  0
  -24.9607  -15.7429  144.6829 C   0  0  0  0  0  0  0  0  0  0  0  0
  -24.7514  -18.2654  147.9394 C   0  0  0  0  0  0  0  0  0  0  0  0
  -25.7621  -17.2610  147.9441 C   0  0  0  0  0  0  0  0  0  0  0  0
  -25.8828  -13.7495  143.5314 C   0  0  0  0  0  0  0  0  0  0  0  0
  -26.8625  -13.1938  143.1528 O   0  0  0  0  0  0  0  0  0  0  0  0
  -27.0135  -12.4053  142.3033 C   0  0  0  0  0  0  0  0  0  0  0  0
  -27.2301  -12.9737  140.9817 C   0  0  0  0  0  0  0  0  0  0  0  0
  -27.7720  -12.1832  139.9604 C   0  0  0  0  0  0  0  0  0  0  0  0
  -27.5562  -10.7575  140.1620 C   0  0  0  0  0  0  0  0  0  0  0  0
  -27.8031   -9.8858  138.9975 C   0  0  0  0  0  0  0  0  0  0  0  0
  -28.1455   -8.4866  139.3159 C   0  0  0  0  0  0  0  0  0  0  0  0
  -28.6386   -7.7056  138.2525 C   0  0  0  0  0  0  0  0  0  0  0  0
  -27.4575  -11.0768  142.4726 C   0  0  0  0  0  0  0  0  0  0  0  0
  -27.4253  -10.6185  143.7554 O   0  0  0  0  0  0  0  0  0  0  0  0
  -27.6809  -10.2087  141.4307 C   0  0  0  0  0  0  0  0  0  0  0  0
  -28.4436   -9.8142  144.2697 C   0  0  0  0  0  0  0  0  0  0  0  0
  -29.7330  -10.4010  144.2438 C   0  0  0  0  0  0  0  0  0  0  0  0
  -29.9417  -11.2823  145.0878 O   0  0  0  0  0  0  0  0  0  0  0  0
  -30.5993  -10.0226  143.4363 O   0  0  0  0  0  0  0  0  0  0  0  0
  -28.2528  -15.7773  147.2817 C   0  0  0  0  0  0  0  0  0  0  0  0
  -28.5680  -16.8366  147.9774 C   0  0  0  0  0  0  0  0  0  0  0  0
  -29.2587  -14.7393  147.1986 C   0  0  0  0  0  0  0  0  0  0  0  0
  -29.4026  -13.6389  148.1801 C   0  0  0  0  0  0  0  0  0  0  0  0
  -30.4612  -12.6639  148.2190 C   0  0  0  0  0  0  0  0  0  0  0  0
  -31.3964  -12.8598  149.0632 N   0  0  0  0  0  0  0  0  0  0  0  0
  -32.4052  -11.9697  149.2799 C   0  0  0  0  0  0  0  0  0  0  0  0
  -32.8264  -11.6111  150.5217 C   0  0  0  0  0  0  0  0  0  0  0  0
  -32.4388  -12.2302  151.5275 O   0  0  0  0  0  0  0  0  0  0  0  0
  7 11  1  0
 11 12  1  0
 12 13  1  0
 13 14  1  0
 14 15  1  0
 15 16  1  0
 16 17  2  3
 17 18  1  0
 18 19  1  0
 13 20  1  0
 20 21  1  0
 16 22  1  0
 20 22  1  0
 21 23  1  0
 23 24  1  0
 24 25  2  0
 24 26  1  0
  5 27  1  0
 27 28  1  0
 27 29  1  0
 29 30  2  3
 30 31  1  0
 31 32  1  0
 32 33  1  0
 33 34  1  0
 34 35  1  0
  4  5  2  0
  5  6  1  0
  6  7  2  0
  7  8  1  0
  8  3  2  0
  1  2  2  0
  2  9  1  0
  9 10  2  0
 10  4  1  0
  4  3  1  0
  3  1  1  0
M  END

$$$$
No_1450-/dssg/home/sw_qyf/PocketFlow/Model-Generation-Results/5HT2A_7WC7_rec_A_10.pdb/2024-01-01-03-54-21/
     RDKit          3D

 22 23  0  0  0  0  0  0  0  0999 V2000
  -24.1553  -17.8465  145.7021 C   0  0  0  0  0  0  0  0  0  0  0  0
  -23.9795  -18.4462  146.7426 C   0  0  0  0  0  0  0  0  0  0  0  0
  -25.1196  -16.8106  145.6409 C   0  0  0  0  0  0  0  0  0  0  0  0
  -25.2440  -15.8776  144.5240 C   0  0  0  0  0  0  0  0  0  0  0  0
  -24.0642  -15.4170  143.9520 C   0  0  0  0  0  0  0  0  0  0  0  0
  -23.3966  -14.4625  144.8053 C   0  0  0  0  0  0  0  0  0  0  0  0
  -24.1764  -13.5187  145.5965 C   0  0  0  0  0  0  0  0  0  0  0  0
  -23.9544  -12.1250  145.4020 C   0  0  0  0  0  0  0  0  0  0  0  0
  -24.5692  -18.1121  148.0038 C   0  0  0  0  0  0  0  0  0  0  0  0
  -25.4383  -17.0068  148.0569 C   0  0  0  0  0  0  0  0  0  0  0  0
  -25.6205  -16.2569  146.9020 C   0  0  0  0  0  0  0  0  0  0  0  0
  -23.0130  -11.5580  144.6638 C   0  0  0  0  0  0  0  0  0  0  0  0
  -21.9038  -12.4453  144.3338 C   0  0  0  0  0  0  0  0  0  0  0  0
  -22.3843  -13.6785  144.0306 C   0  0  0  0  0  0  0  0  0  0  0  0
  -26.5505  -15.1324  146.9925 C   0  0  0  0  0  0  0  0  0  0  0  0
  -27.2592  -14.5470  146.0806 C   0  0  0  0  0  0  0  0  0  0  0  0
  -28.3718  -13.7492  146.3770 C   0  0  0  0  0  0  0  0  0  0  0  0
  -28.4125  -12.4132  145.9546 C   0  0  0  0  0  0  0  0  0  0  0  0
  -29.6081  -11.5964  146.2531 C   0  0  0  0  0  0  0  0  0  0  0  0
  -29.7280  -10.4726  145.5500 F   0  0  0  0  0  0  0  0  0  0  0  0
  -29.7047  -11.2943  147.6940 F   0  0  0  0  0  0  0  0  0  0  0  0
  -27.1208  -14.8040  144.6658 C   0  0  0  0  0  0  0  0  0  0  0  0
  3  4  1  0
  4  5  1  0
  5  6  1  0
 11 15  1  0
 15 16  1  0
 16 17  1  0
 17 18  2  3
 18 19  1  0
 19 20  1  0
 19 21  1  0
 16 22  1  0
  6  7  2  0
  7  8  1  0
  8 12  2  0
 12 13  1  0
 13 14  2  0
 14  6  1  0
  1  2  2  0
  2  9  1  0
  9 10  2  0
 10 11  1  0
 11  3  2  0
  3  1  1  0
M  END

$$$$
No_1451-/dssg/home/sw_qyf/PocketFlow/Model-Generation-Results/5HT2A_7WC7_rec_A_10.pdb/2024-01-01-03-54-21/
     RDKit          3D

 35 37  0  0  0  0  0  0  0  0999 V2000
  -24.1553  -17.8465  145.7021 C   0  0  0  0  0  0  0  0  0  0  0  0
  -24.6364  -17.2931  146.7091 C   0  0  0  0  0  0  0  0  0  0  0  0
  -24.0780  -17.2921  147.9389 C   0  0  0  0  0  0  0  0  0  0  0  0
  -24.6869  -16.7004  149.1440 C   0  0  0  0  0  0  0  0  0  0  0  0
  -26.0385  -16.2385  148.9552 C   0  0  0  0  0  0  0  0  0  0  0  0
  -26.6430  -16.2999  147.7413 C   0  0  0  0  0  0  0  0  0  0  0  0
  -27.9940  -15.9043  147.4947 C   0  0  0  0  0  0  0  0  0  0  0  0
  -26.0067  -16.8798  146.6574 C   0  0  0  0  0  0  0  0  0  0  0  0
  -28.2724  -14.8389  146.6537 C   0  0  0  0  0  0  0  0  0  0  0  0
  -29.2999  -13.8997  146.9913 C   0  0  0  0  0  0  0  0  0  0  0  0
  -29.4251  -12.6315  146.4233 C   0  0  0  0  0  0  0  0  0  0  0  0
  -28.4436  -12.1902  145.4637 C   0  0  0  0  0  0  0  0  0  0  0  0
  -27.3780  -13.1261  145.2314 C   0  0  0  0  0  0  0  0  0  0  0  0
  -27.2088  -14.3375  145.8906 C   0  0  0  0  0  0  0  0  0  0  0  0
  -28.5604  -10.9326  144.7974 C   0  0  0  0  0  0  0  0  0  0  0  0
  -27.5254  -10.4046  144.0217 C   0  0  0  0  0  0  0  0  0  0  0  0
  -27.7277   -9.2266  143.3554 C   0  0  0  0  0  0  0  0  0  0  0  0
  -23.8515  -17.0096  144.6034 N   0  0  0  0  0  0  0  0  0  0  0  0
  -29.7995  -10.2195  144.7280 C   0  0  0  0  0  0  0  0  0  0  0  0
  -30.0423   -9.1087  143.9783 C   0  0  0  0  0  0  0  0  0  0  0  0
  -28.9304   -8.5396  143.3386 C   0  0  0  0  0  0  0  0  0  0  0  0
  -24.1364  -19.1406  145.3805 O   0  0  0  0  0  0  0  0  0  0  0  0
  -29.0901   -7.2677  142.5933 C   0  0  0  0  0  0  0  0  0  0  0  0
  -29.4132   -6.1658  143.0322 C   0  0  0  0  0  0  0  0  0  0  0  0
  -29.2471   -7.5045  141.1021 C   0  0  0  0  0  0  0  0  0  0  0  0
  -30.1111   -8.4953  140.5778 C   0  0  0  0  0  0  0  0  0  0  0  0
  -30.0934   -8.5649  139.2328 C   0  0  0  0  0  0  0  0  0  0  0  0
  -28.8783   -8.3579  138.5113 C   0  0  0  0  0  0  0  0  0  0  0  0
  -28.6505   -8.4526  137.3049 C   0  0  0  0  0  0  0  0  0  0  0  0
  -29.1928   -4.9879  142.2515 N   0  0  0  0  0  0  0  0  0  0  0  0
  -28.9468   -3.7985  142.8302 C   0  0  0  0  0  0  0  0  0  0  0  0
  -28.5994   -2.6958  142.0270 C   0  0  0  0  0  0  0  0  0  0  0  0
  -29.0187   -3.6336  144.1000 O   0  0  0  0  0  0  0  0  0  0  0  0
  -22.7968  -17.7136  148.1100 O   0  0  0  0  0  0  0  0  0  0  0  0
  -27.6744   -7.9407  139.3727 C   0  0  0  0  0  0  0  0  0  0  0  0
  1  2  1  0
  6  7  1  0
  7  9  1  0
 12 15  1  0
  1 18  1  0
  1 22  2  0
 21 23  1  0
 23 24  1  0
 23 25  1  0
 25 26  1  0
 26 27  2  3
 27 28  1  0
 28 29  2  0
 24 30  1  0
 30 31  1  0
 31 32  1  0
 31 33  2  0
  3 34  1  0
 28 35  1  0
  2  3  2  0
  3  4  1  0
  4  5  2  0
  5  6  1  0
  6  8  2  0
  8  2  1  0
  9 10  2  0
 10 11  1  0
 11 12  2  0
 12 13  1  0
 13 14  2  0
 14  9  1  0
 15 16  2  0
 16 17  1  0
 17 21  2  0
 21 20  1  0
 20 19  2  0
 19 15  1  0
M  END

$$$$
No_1452-/dssg/home/sw_qyf/PocketFlow/Model-Generation-Results/5HT2A_7WC7_rec_A_10.pdb/2024-01-01-03-54-21/
     RDKit          3D

 13 14  0  0  0  0  0  0  0  0999 V2000
  -24.1553  -17.8465  145.7021 C   0  0  0  0  0  0  0  0  0  0  0  0
  -23.9795  -18.4462  146.7426 C   0  0  0  0  0  0  0  0  0  0  0  0
  -25.1196  -16.8105  145.6408 C   0  0  0  0  0  0  0  0  0  0  0  0
  -25.9236  -16.5070  146.7422 C   0  0  0  0  0  0  0  0  0  0  0  0
  -26.9537  -15.5312  146.7010 C   0  0  0  0  0  0  0  0  0  0  0  0
  -27.8401  -15.4424  147.7620 C   0  0  0  0  0  0  0  0  0  0  0  0
  -24.6529  -18.1918  147.9641 C   0  0  0  0  0  0  0  0  0  0  0  0
  -25.6485  -17.1582  147.9551 C   0  0  0  0  0  0  0  0  0  0  0  0
  -27.0756  -14.6522  145.6304 C   0  0  0  0  0  0  0  0  0  0  0  0
  -28.9646  -14.5423  147.6762 C   0  0  0  0  0  0  0  0  0  0  0  0
  -28.1243  -13.6227  145.6398 C   0  0  0  0  0  0  0  0  0  0  0  0
  -29.0535  -13.6058  146.7153 C   0  0  0  0  0  0  0  0  0  0  0  0
  -30.2692  -12.3850  146.6609 Cl  0  0  0  0  0  0  0  0  0  0  0  0
  4  5  1  0
 12 13  1  0
  5  6  2  0
  6 10  1  0
 10 12  2  0
 12 11  1  0
 11  9  2  0
  9  5  1  0
  1  2  2  0
  2  7  1  0
  7  8  2  0
  8  4  1  0
  4  3  2  0
  3  1  1  0
M  END

$$$$
No_1453-/dssg/home/sw_qyf/PocketFlow/Model-Generation-Results/5HT2A_7WC7_rec_A_10.pdb/2024-01-01-03-54-21/
     RDKit          3D

 35 38  0  0  0  0  0  0  0  0999 V2000
  -24.1553  -17.8465  145.7021 C   0  0  0  0  0  0  0  0  0  0  0  0
  -24.2855  -16.6364  145.3494 C   0  0  0  0  0  0  0  0  0  0  0  0
  -25.0033  -15.6772  146.0737 C   0  0  0  0  0  0  0  0  0  0  0  0
  -25.1197  -14.2834  145.7299 C   0  0  0  0  0  0  0  0  0  0  0  0
  -24.2707  -13.8793  144.6500 C   0  0  0  0  0  0  0  0  0  0  0  0
  -24.8686  -18.3355  146.8179 C   0  0  0  0  0  0  0  0  0  0  0  0
  -23.4212  -14.7686  144.0334 C   0  0  0  0  0  0  0  0  0  0  0  0
  -23.3932  -16.0844  144.3175 C   0  0  0  0  0  0  0  0  0  0  0  0
  -25.6441  -17.4723  147.5882 C   0  0  0  0  0  0  0  0  0  0  0  0
  -25.7767  -16.1272  147.2748 C   0  0  0  0  0  0  0  0  0  0  0  0
  -25.9336  -13.3425  146.4506 C   0  0  0  0  0  0  0  0  0  0  0  0
  -25.5213  -11.9565  146.4655 C   0  0  0  0  0  0  0  0  0  0  0  0
  -25.8954  -11.2687  145.1713 C   0  0  0  0  0  0  0  0  0  0  0  0
  -27.2055  -10.7403  145.1358 C   0  0  0  0  0  0  0  0  0  0  0  0
  -27.6249  -10.0394  143.9814 C   0  0  0  0  0  0  0  0  0  0  0  0
  -28.8764  -10.1859  143.4517 C   0  0  0  0  0  0  0  0  0  0  0  0
  -29.3155   -9.4695  142.3186 C   0  0  0  0  0  0  0  0  0  0  0  0
  -30.0841   -8.3254  142.3638 C   0  0  0  0  0  0  0  0  0  0  0  0
  -30.1669   -7.4609  141.2521 C   0  0  0  0  0  0  0  0  0  0  0  0
  -29.4881   -7.8522  140.0701 C   0  0  0  0  0  0  0  0  0  0  0  0
  -28.6479   -8.9374  140.0522 C   0  0  0  0  0  0  0  0  0  0  0  0
  -28.5034   -9.7561  141.1721 C   0  0  0  0  0  0  0  0  0  0  0  0
  -27.9155   -9.2317  138.8089 C   0  0  0  0  0  0  0  0  0  0  0  0
  -30.9554   -8.0435  143.5582 C   0  0  0  0  0  0  0  0  0  0  0  0
  -27.4175   -8.2509  138.4494 F   0  0  0  0  0  0  0  0  0  0  0  0
  -26.9003  -10.1244  139.1857 F   0  0  0  0  0  0  0  0  0  0  0  0
  -28.6520   -9.8257  137.9455 F   0  0  0  0  0  0  0  0  0  0  0  0
  -29.8914   -9.9288  144.5191 O   0  0  0  0  0  0  0  0  0  0  0  0
  -30.8388   -9.0121  144.5100 C   0  0  0  0  0  0  0  0  0  0  0  0
  -29.1685  -11.7277  143.1829 C   0  0  0  0  0  0  0  0  0  0  0  0
  -23.5347  -18.7863  145.0180 O   0  0  0  0  0  0  0  0  0  0  0  0
  -24.9634  -10.9192  144.4559 O   0  0  0  0  0  0  0  0  0  0  0  0
  -27.7819  -12.3368  142.9007 C   0  0  0  0  0  0  0  0  0  0  0  0
  -27.4136  -12.8685  141.8238 C   0  0  0  0  0  0  0  0  0  0  0  0
  -28.0332  -12.6682  140.6159 C   0  0  0  0  0  0  0  0  0  0  0  0
  4 11  1  0
 11 12  1  0
 12 13  1  0
 13 14  1  0
 14 15  2  3
 15 16  1  0
 16 17  1  0
 21 23  1  0
 18 24  1  0
 23 25  1  0
 23 26  1  0
 23 27  1  0
 16 28  1  0
 24 29  2  0
 28 29  1  0
 16 30  1  0
  1 31  1  0
 13 32  2  0
 30 33  1  0
 33 34  2  3
 34 35  1  0
 17 18  1  0
 18 19  2  0
 19 20  1  0
 20 21  2  0
 21 22  1  0
 22 17  2  0
  1  2  2  0
  3 10  2  0
 10  9  1  0
  9  6  2  0
  6  1  1  0
  2  3  1  0
  3  4  1  0
  4  5  2  0
  5  7  1  0
  7  8  2  0
  8  2  1  0
M  END

$$$$
No_1454-/dssg/home/sw_qyf/PocketFlow/Model-Generation-Results/5HT2A_7WC7_rec_A_10.pdb/2024-01-01-03-54-21/
     RDKit          3D

 22 24  0  0  0  0  0  0  0  0999 V2000
  -23.1746  -16.6014  144.8668 C   0  0  0  0  0  0  0  0  0  0  0  0
  -23.7011  -17.0158  145.9774 C   0  0  0  0  0  0  0  0  0  0  0  0
  -24.7096  -16.6222  146.3577 C   0  0  0  0  0  0  0  0  0  0  0  0
  -25.4819  -15.5594  145.8226 C   0  0  0  0  0  0  0  0  0  0  0  0
  -24.9841  -15.0030  144.6879 C   0  0  0  0  0  0  0  0  0  0  0  0
  -23.7823  -15.5257  144.1978 C   0  0  0  0  0  0  0  0  0  0  0  0
  -25.6422  -13.8894  143.9561 C   0  0  0  0  0  0  0  0  0  0  0  0
  -25.8535  -13.7932  142.7505 N   0  0  0  0  0  0  0  0  0  0  0  0
  -26.4442  -12.8801  144.8303 C   0  0  0  0  0  0  0  0  0  0  0  0
  -27.1808  -11.9710  144.2042 C   0  0  0  0  0  0  0  0  0  0  0  0
  -27.7941  -10.9040  144.9697 C   0  0  0  0  0  0  0  0  0  0  0  0
  -28.5552   -9.9145  144.2572 C   0  0  0  0  0  0  0  0  0  0  0  0
  -28.7064   -9.9806  142.8860 C   0  0  0  0  0  0  0  0  0  0  0  0
  -28.0511  -11.0420  142.1867 C   0  0  0  0  0  0  0  0  0  0  0  0
  -27.3797  -12.0328  142.8590 C   0  0  0  0  0  0  0  0  0  0  0  0
  -26.6349  -12.9713  142.0557 C   0  0  0  0  0  0  0  0  0  0  0  0
  -28.0068  -12.5950  144.4499 O   0  0  0  0  0  0  0  0  0  0  0  0
  -27.4442  -11.0479  142.2030 O   0  0  0  0  0  0  0  0  0  0  0  0
  -28.2620  -12.2761  142.2354 O   0  0  0  0  0  0  0  0  0  0  0  0
  -27.9518  -13.8065  144.8998 C   0  0  0  0  0  0  0  0  0  0  0  0
  -27.8334  -12.9144  141.0336 C   0  0  0  0  0  0  0  0  0  0  0  0
  -28.3875  -13.7585  146.2948 N   0  0  0  0  0  0  0  0  0  0  0  0
  5  7  1  0
  7  8  1  0
  7  9  1  0
  9 10  2  3
 10 11  1  0
 11 12  2  3
 12 13  1  0
 13 14  2  3
 14 15  1  0
  8 16  1  0
 15 16  1  0
 10 17  1  0
 14 18  1  0
 15 19  1  0
 17 20  1  0
 16 21  1  0
 19 21  1  0
 20 22  1  0
  1  2  2  0
  2  3  1  0
  3  4  2  0
  4  5  1  0
  5  6  2  0
  6  1  1  0
M  END

$$$$
No_1455-/dssg/home/sw_qyf/PocketFlow/Model-Generation-Results/5HT2A_7WC7_rec_A_10.pdb/2024-01-01-03-54-21/
     RDKit          3D

 30 32  0  0  0  0  0  0  0  0999 V2000
  -24.1553  -17.8465  145.7021 C   0  0  0  0  0  0  0  0  0  0  0  0
  -24.2856  -16.6364  145.3494 C   0  0  0  0  0  0  0  0  0  0  0  0
  -24.5733  -15.7651  145.9979 C   0  0  0  0  0  0  0  0  0  0  0  0
  -24.7088  -14.2765  145.5906 C   0  0  0  0  0  0  0  0  0  0  0  0
  -24.0081  -14.0224  144.3771 C   0  0  0  0  0  0  0  0  0  0  0  0
  -24.5461  -18.2167  147.0077 C   0  0  0  0  0  0  0  0  0  0  0  0
  -24.9798  -17.2136  147.8740 C   0  0  0  0  0  0  0  0  0  0  0  0
  -24.9934  -15.8410  147.4193 C   0  0  0  0  0  0  0  0  0  0  0  0
  -26.0955  -13.7125  145.6818 C   0  0  0  0  0  0  0  0  0  0  0  0
  -26.4243  -12.6226  145.1182 C   0  0  0  0  0  0  0  0  0  0  0  0
  -27.7129  -12.4501  144.5550 C   0  0  0  0  0  0  0  0  0  0  0  0
  -28.0004  -11.3872  143.6456 C   0  0  0  0  0  0  0  0  0  0  0  0
  -27.9853  -10.1223  144.1812 C   0  0  0  0  0  0  0  0  0  0  0  0
  -28.3277   -9.0323  143.3680 C   0  0  0  0  0  0  0  0  0  0  0  0
  -28.8653   -9.2043  142.0374 C   0  0  0  0  0  0  0  0  0  0  0  0
  -29.2957   -8.1836  141.2273 C   0  0  0  0  0  0  0  0  0  0  0  0
  -29.6348   -8.3253  139.9347 C   0  0  0  0  0  0  0  0  0  0  0  0
  -28.7618   -9.2553  139.2766 C   0  0  0  0  0  0  0  0  0  0  0  0
  -28.7165   -9.3183  137.8758 C   0  0  0  0  0  0  0  0  0  0  0  0
  -27.8180  -10.1030  139.9579 C   0  0  0  0  0  0  0  0  0  0  0  0
  -27.8475  -10.0463  141.4221 C   0  0  0  0  0  0  0  0  0  0  0  0
  -27.9759  -11.5238  142.2268 C   0  0  0  0  0  0  0  0  0  0  0  0
  -25.2566  -17.5201  149.3394 C   0  0  0  0  0  0  0  0  0  0  0  0
  -26.4684  -17.6174  149.7580 O   0  0  0  0  0  0  0  0  0  0  0  0
  -24.2374  -17.5949  150.1944 O   0  0  0  0  0  0  0  0  0  0  0  0
  -30.2435   -7.2126  141.9290 C   0  0  0  0  0  0  0  0  0  0  0  0
  -31.4952   -7.2673  142.3214 F   0  0  0  0  0  0  0  0  0  0  0  0
  -29.5420   -6.8049  143.2670 F   0  0  0  0  0  0  0  0  0  0  0  0
  -29.9340   -5.9836  141.3062 F   0  0  0  0  0  0  0  0  0  0  0  0
  -22.9674  -13.2363  144.4160 O   0  0  0  0  0  0  0  0  0  0  0  0
  3  4  1  0
  4  5  2  3
  4  9  1  0
  9 10  2  3
 10 11  1  0
 11 12  1  0
 18 19  1  0
  7 23  1  0
 23 24  2  0
 23 25  1  0
 16 26  1  0
 26 27  1  0
 26 28  1  0
 26 29  1  0
  5 30  1  0
 15 16  1  0
 16 17  2  0
 17 18  1  0
 18 20  2  0
 20 21  1  0
  1  2  2  0
  2  3  1  0
  3  8  2  0
  8  7  1  0
  7  6  2  0
  6  1  1  0
 12 13  2  0
 13 14  1  0
 14 15  2  0
 15 21  1  0
 21 22  2  0
 22 12  1  0
M  END

$$$$
No_1456-/dssg/home/sw_qyf/PocketFlow/Model-Generation-Results/5HT2A_7WC7_rec_A_10.pdb/2024-01-01-03-54-21/
     RDKit          3D

 19 19  0  0  0  0  0  0  0  0999 V2000
  -24.1553  -17.8465  145.7021 C   0  0  0  0  0  0  0  0  0  0  0  0
  -23.9795  -18.4462  146.7426 C   0  0  0  0  0  0  0  0  0  0  0  0
  -25.1196  -16.8106  145.6408 C   0  0  0  0  0  0  0  0  0  0  0  0
  -25.2440  -15.8776  144.5240 C   0  0  0  0  0  0  0  0  0  0  0  0
  -26.0733  -14.7284  144.7060 C   0  0  0  0  0  0  0  0  0  0  0  0
  -27.0964  -14.7050  145.6625 C   0  0  0  0  0  0  0  0  0  0  0  0
  -27.1085  -15.7327  146.6117 C   0  0  0  0  0  0  0  0  0  0  0  0
  -26.1368  -16.7554  146.5717 C   0  0  0  0  0  0  0  0  0  0  0  0
  -22.6820  -19.1672  146.8235 C   0  0  0  0  0  0  0  0  0  0  0  0
  -26.0514  -13.5897  143.7932 C   0  0  0  0  0  0  0  0  0  0  0  0
  -27.1938  -12.9557  143.4912 N   0  0  0  0  0  0  0  0  0  0  0  0
  -27.5091  -12.5642  142.2509 C   0  0  0  0  0  0  0  0  0  0  0  0
  -28.2504  -11.4075  141.9885 C   0  0  0  0  0  0  0  0  0  0  0  0
  -28.8839  -10.7537  143.0452 C   0  0  0  0  0  0  0  0  0  0  0  0
  -29.7295   -9.6377  142.9578 C   0  0  0  0  0  0  0  0  0  0  0  0
  -29.5993   -8.7776  141.8490 C   0  0  0  0  0  0  0  0  0  0  0  0
  -28.8338   -9.2860  140.7249 C   0  0  0  0  0  0  0  0  0  0  0  0
  -28.1131  -10.5857  140.8286 C   0  0  0  0  0  0  0  0  0  0  0  0
  -27.3671  -10.9918  139.6889 C   0  0  0  0  0  0  0  0  0  0  0  0
  1  2  2  3
  1  3  1  0
  2  9  1  0
  5 10  1  0
 10 11  1  0
 11 12  1  0
 12 13  2  3
 13 14  1  0
 14 15  1  0
 15 16  2  3
 16 17  1  0
 17 18  1  0
 18 19  1  0
  3  4  2  0
  4  5  1  0
  5  6  2  0
  6  7  1  0
  7  8  2  0
  8  3  1  0
M  END

$$$$
No_1457-/dssg/home/sw_qyf/PocketFlow/Model-Generation-Results/5HT2A_7WC7_rec_A_10.pdb/2024-01-01-03-54-21/
     RDKit          3D

 26 27  0  0  0  0  0  0  0  0999 V2000
  -24.1553  -17.8465  145.7021 C   0  0  0  0  0  0  0  0  0  0  0  0
  -23.9795  -18.4462  146.7426 C   0  0  0  0  0  0  0  0  0  0  0  0
  -25.1593  -16.8262  145.6925 C   0  0  0  0  0  0  0  0  0  0  0  0
  -26.3426  -16.9003  146.3448 C   0  0  0  0  0  0  0  0  0  0  0  0
  -26.3343  -16.3346  147.5620 C   0  0  0  0  0  0  0  0  0  0  0  0
  -24.3921  -17.9199  148.0979 C   0  0  0  0  0  0  0  0  0  0  0  0
  -24.8118  -16.7904  148.4375 C   0  0  0  0  0  0  0  0  0  0  0  0
  -24.9485  -15.6170  144.8495 C   0  0  0  0  0  0  0  0  0  0  0  0
  -25.8919  -14.6924  144.5624 C   0  0  0  0  0  0  0  0  0  0  0  0
  -26.6398  -14.1749  145.5441 C   0  0  0  0  0  0  0  0  0  0  0  0
  -27.5626  -13.0730  145.3884 C   0  0  0  0  0  0  0  0  0  0  0  0
  -27.3571  -12.1534  144.3279 C   0  0  0  0  0  0  0  0  0  0  0  0
  -28.1527  -11.0226  144.1670 C   0  0  0  0  0  0  0  0  0  0  0  0
  -27.8630  -10.0258  143.1599 C   0  0  0  0  0  0  0  0  0  0  0  0
  -27.7648  -10.6005  141.9413 C   0  0  0  0  0  0  0  0  0  0  0  0
  -27.3842  -11.9606  141.8053 C   0  0  0  0  0  0  0  0  0  0  0  0
  -27.0999  -12.7645  143.0616 C   0  0  0  0  0  0  0  0  0  0  0  0
  -27.4799  -12.7351  140.6092 C   0  0  0  0  0  0  0  0  0  0  0  0
  -27.1080  -11.9676  139.4162 C   0  0  0  0  0  0  0  0  0  0  0  0
  -28.1176  -10.9932  139.1169 C   0  0  0  0  0  0  0  0  0  0  0  0
  -27.8367   -9.6473  139.3374 C   0  0  0  0  0  0  0  0  0  0  0  0
  -28.2384   -8.5965  138.7091 C   0  0  0  0  0  0  0  0  0  0  0  0
  -28.7322   -8.6140  137.4157 C   0  0  0  0  0  0  0  0  0  0  0  0
  -23.6021  -15.4397  144.2653 C   0  0  0  0  0  0  0  0  0  0  0  0
  -23.2571  -14.2566  143.9518 O   0  0  0  0  0  0  0  0  0  0  0  0
  -27.9244  -10.1503  145.6315 C   0  0  0  0  0  0  0  0  0  0  0  0
  1  2  1  0
  1  3  1  0
  3  4  1  0
  4  5  1  0
  2  6  2  0
  5  7  1  0
  6  7  1  0
  3  8  1  0
  8  9  1  0
  9 10  2  3
 10 11  1  0
 11 12  2  3
 12 13  1  0
 13 14  1  0
 14 15  1  0
 15 16  1  0
 12 17  1  0
 16 17  1  0
 16 18  1  0
 18 19  1  0
 19 20  1  0
 20 21  1  0
 21 22  2  3
 22 23  1  0
  8 24  1  0
 24 25  1  0
 13 26  1  0
M  END

$$$$
No_1458-/dssg/home/sw_qyf/PocketFlow/Model-Generation-Results/5HT2A_7WC7_rec_A_10.pdb/2024-01-01-03-54-21/
     RDKit          3D

 32 35  0  0  0  0  0  0  0  0999 V2000
  -24.1553  -17.8465  145.7021 C   0  0  0  0  0  0  0  0  0  0  0  0
  -24.6364  -17.2931  146.7091 C   0  0  0  0  0  0  0  0  0  0  0  0
  -25.8608  -16.5592  146.5934 C   0  0  0  0  0  0  0  0  0  0  0  0
  -25.9088  -15.1597  146.9911 C   0  0  0  0  0  0  0  0  0  0  0  0
  -24.6057  -14.5448  146.9210 C   0  0  0  0  0  0  0  0  0  0  0  0
  -24.4124  -13.6315  145.8036 C   0  0  0  0  0  0  0  0  0  0  0  0
  -23.2586  -13.5987  145.0920 C   0  0  0  0  0  0  0  0  0  0  0  0
  -25.4791  -12.7118  145.5280 C   0  0  0  0  0  0  0  0  0  0  0  0
  -26.3720  -12.8211  144.9438 C   0  0  0  0  0  0  0  0  0  0  0  0
  -27.3932  -11.8333  144.6328 C   0  0  0  0  0  0  0  0  0  0  0  0
  -27.5977  -11.3318  143.7338 C   0  0  0  0  0  0  0  0  0  0  0  0
  -28.7163  -10.2642  143.5021 C   0  0  0  0  0  0  0  0  0  0  0  0
  -29.5807  -10.1219  144.6159 C   0  0  0  0  0  0  0  0  0  0  0  0
  -29.3649  -10.9230  145.7990 C   0  0  0  0  0  0  0  0  0  0  0  0
  -28.2981  -11.7947  145.8044 C   0  0  0  0  0  0  0  0  0  0  0  0
  -24.5856  -17.2864  144.5662 C   0  0  0  0  0  0  0  0  0  0  0  0
  -24.8397  -15.8342  144.8111 C   0  0  0  0  0  0  0  0  0  0  0  0
  -26.2091  -15.6125  145.0662 C   0  0  0  0  0  0  0  0  0  0  0  0
  -28.9453   -9.4957  142.3570 C   0  0  0  0  0  0  0  0  0  0  0  0
  -28.7133  -10.0448  141.0949 C   0  0  0  0  0  0  0  0  0  0  0  0
  -28.8028   -9.1504  140.0076 C   0  0  0  0  0  0  0  0  0  0  0  0
  -28.2328   -9.3740  138.7032 C   0  0  0  0  0  0  0  0  0  0  0  0
  -29.5579   -7.8664  140.1935 C   0  0  0  0  0  0  0  0  0  0  0  0
  -29.9330   -7.4364  141.5288 C   0  0  0  0  0  0  0  0  0  0  0  0
  -29.6935   -8.2679  142.6694 C   0  0  0  0  0  0  0  0  0  0  0  0
  -28.6552   -8.6243  137.6134 C   0  0  0  0  0  0  0  0  0  0  0  0
  -23.8048  -14.8688  144.2767 C   0  0  0  0  0  0  0  0  0  0  0  0
  -23.4598  -19.1150  145.7621 C   0  0  0  0  0  0  0  0  0  0  0  0
  -25.0927  -11.3659  146.2054 C   0  0  0  0  0  0  0  0  0  0  0  0
  -30.2189  -10.7993  146.8899 N   0  0  0  0  0  0  0  0  0  0  0  0
  -29.0393   -9.2506  136.5281 O   0  0  0  0  0  0  0  0  0  0  0  0
  -22.4933  -19.1915  146.5768 O   0  0  0  0  0  0  0  0  0  0  0  0
  1  2  1  0
  2  3  1  0
  3  4  1  0
  4  5  1  0
  5  6  1  0
  6  7  2  3
  6  8  1  0
  8  9  2  3
  9 10  1  0
  1 16  1  0
 16 17  1  0
  3 18  1  0
 17 18  1  0
 12 19  1  0
 21 22  1  0
 22 26  1  0
  7 27  1  0
 17 27  1  0
  1 28  1  0
  8 29  1  0
 14 30  1  0
 26 31  1  0
 28 32  2  0
 19 20  2  0
 20 21  1  0
 21 23  2  0
 23 24  1  0
 24 25  2  0
 25 19  1  0
 10 11  2  0
 11 12  1  0
 12 13  2  0
 13 14  1  0
 14 15  2  0
 15 10  1  0
M  END

$$$$
No_1459-/dssg/home/sw_qyf/PocketFlow/Model-Generation-Results/5HT2A_7WC7_rec_A_10.pdb/2024-01-01-03-54-21/
     RDKit          3D

  9  9  0  0  0  0  0  0  0  0999 V2000
  -24.1553  -17.8465  145.7021 C   0  0  0  0  0  0  0  0  0  0  0  0
  -24.6364  -17.2931  146.7091 C   0  0  0  0  0  0  0  0  0  0  0  0
  -24.5709  -15.9334  146.8074 C   0  0  0  0  0  0  0  0  0  0  0  0
  -24.2378  -15.1233  145.7159 C   0  0  0  0  0  0  0  0  0  0  0  0
  -24.2498  -13.6819  145.7156 C   0  0  0  0  0  0  0  0  0  0  0  0
  -23.7380  -17.1272  144.5444 C   0  0  0  0  0  0  0  0  0  0  0  0
  -23.7525  -15.7605  144.6336 C   0  0  0  0  0  0  0  0  0  0  0  0
  -23.4555  -12.8927  144.9592 C   0  0  0  0  0  0  0  0  0  0  0  0
  -23.6307  -11.5352  145.1600 N   0  0  0  0  0  0  0  0  0  0  0  0
  4  5  1  0
  5  8  2  3
  8  9  1  0
  1  2  2  0
  2  3  1  0
  3  4  2  0
  4  7  1  0
  7  6  2  0
  6  1  1  0
M  END

$$$$
No_1460-/dssg/home/sw_qyf/PocketFlow/Model-Generation-Results/5HT2A_7WC7_rec_A_10.pdb/2024-01-01-03-54-21/
     RDKit          3D

 28 29  0  0  0  0  0  0  0  0999 V2000
  -23.1746  -16.6014  144.8668 C   0  0  0  0  0  0  0  0  0  0  0  0
  -24.0189  -16.0564  145.8445 C   0  0  0  0  0  0  0  0  0  0  0  0
  -24.4145  -16.8299  146.9062 C   0  0  0  0  0  0  0  0  0  0  0  0
  -25.2730  -16.2838  147.9150 C   0  0  0  0  0  0  0  0  0  0  0  0
  -25.7535  -17.1010  148.9939 C   0  0  0  0  0  0  0  0  0  0  0  0
  -24.4224  -14.6395  145.6836 C   0  0  0  0  0  0  0  0  0  0  0  0
  -25.4224  -14.0729  145.9727 C   0  0  0  0  0  0  0  0  0  0  0  0
  -25.3416  -12.6652  145.7962 C   0  0  0  0  0  0  0  0  0  0  0  0
  -26.4283  -11.7596  146.2038 C   0  0  0  0  0  0  0  0  0  0  0  0
  -27.6473  -12.3494  146.4801 C   0  0  0  0  0  0  0  0  0  0  0  0
  -27.7364  -13.7975  146.6137 C   0  0  0  0  0  0  0  0  0  0  0  0
  -28.9357  -14.3776  146.9985 C   0  0  0  0  0  0  0  0  0  0  0  0
  -26.6736  -14.5410  146.3499 C   0  0  0  0  0  0  0  0  0  0  0  0
  -29.2050  -15.7641  147.0448 C   0  0  0  0  0  0  0  0  0  0  0  0
  -23.9561  -18.1421  147.1044 C   0  0  0  0  0  0  0  0  0  0  0  0
  -30.1163  -13.5518  147.3640 C   0  0  0  0  0  0  0  0  0  0  0  0
  -30.8750  -14.0970  148.3884 N   0  0  0  0  0  0  0  0  0  0  0  0
  -30.3146  -12.4101  147.0375 O   0  0  0  0  0  0  0  0  0  0  0  0
  -23.0673  -18.6767  146.2685 C   0  0  0  0  0  0  0  0  0  0  0  0
  -22.8245  -18.1305  145.0324 C   0  0  0  0  0  0  0  0  0  0  0  0
  -23.5529  -14.0206  144.7654 O   0  0  0  0  0  0  0  0  0  0  0  0
  -25.3943  -16.6539  150.2925 C   0  0  0  0  0  0  0  0  0  0  0  0
  -24.0892  -16.1529  150.4424 C   0  0  0  0  0  0  0  0  0  0  0  0
  -22.9833  -17.1098  150.4304 C   0  0  0  0  0  0  0  0  0  0  0  0
  -21.7946  -16.6047  150.5368 O   0  0  0  0  0  0  0  0  0  0  0  0
  -24.1015  -12.0166  145.3970 C   0  0  0  0  0  0  0  0  0  0  0  0
  -23.2333  -12.8543  144.9123 N   0  0  0  0  0  0  0  0  0  0  0  0
  -22.0628  -12.4030  144.4486 O   0  0  0  0  0  0  0  0  0  0  0  0
  4  5  1  0
  2  6  1  0
  6  7  1  0
 11 12  1  0
 12 14  2  0
 12 16  1  0
 16 17  1  0
 16 18  2  0
  6 21  2  0
  5 22  2  3
 22 23  1  0
 23 24  1  0
 24 25  2  0
  8 26  1  0
 26 27  1  0
 27 28  2  0
  4  3  1  0
  7  8  2  0
  8  9  1  0
  9 10  2  0
 10 11  1  0
 11 13  2  0
 13  7  1  0
  1  2  2  0
  2  3  1  0
  3 15  2  0
 15 19  1  0
 19 20  2  0
 20  1  1  0
M  END

$$$$
No_1461-/dssg/home/sw_qyf/PocketFlow/Model-Generation-Results/5HT2A_7WC7_rec_A_10.pdb/2024-01-01-03-54-21/
     RDKit          3D

 35 36  0  0  0  0  0  0  0  0999 V2000
  -23.1746  -16.6014  144.8668 C   0  0  0  0  0  0  0  0  0  0  0  0
  -24.0189  -16.0564  145.8445 C   0  0  0  0  0  0  0  0  0  0  0  0
  -25.3176  -15.9168  145.6822 C   0  0  0  0  0  0  0  0  0  0  0  0
  -25.8933  -14.7450  145.0632 C   0  0  0  0  0  0  0  0  0  0  0  0
  -25.2602  -14.1168  144.0897 C   0  0  0  0  0  0  0  0  0  0  0  0
  -26.0640  -13.2036  143.2811 C   0  0  0  0  0  0  0  0  0  0  0  0
  -26.1489  -16.5988  146.7291 C   0  0  0  0  0  0  0  0  0  0  0  0
  -27.5627  -16.6747  146.3779 C   0  0  0  0  0  0  0  0  0  0  0  0
  -26.8654  -12.3490  144.0590 C   0  0  0  0  0  0  0  0  0  0  0  0
  -27.5072  -12.8820  145.2537 C   0  0  0  0  0  0  0  0  0  0  0  0
  -26.9213  -14.0414  145.9041 C   0  0  0  0  0  0  0  0  0  0  0  0
  -28.9397  -12.6000  145.4639 C   0  0  0  0  0  0  0  0  0  0  0  0
  -29.2572  -12.4921  146.9663 C   0  0  0  0  0  0  0  0  0  0  0  0
  -29.2767  -13.4079  147.6967 O   0  0  0  0  0  0  0  0  0  0  0  0
  -29.8722  -11.3269  147.3441 O   0  0  0  0  0  0  0  0  0  0  0  0
  -25.6650  -17.3667  147.7307 C   0  0  0  0  0  0  0  0  0  0  0  0
  -25.8183  -16.7869  149.0869 C   0  0  0  0  0  0  0  0  0  0  0  0
  -24.9346  -17.3029  150.1300 C   0  0  0  0  0  0  0  0  0  0  0  0
  -25.1324  -17.5017  151.1987 C   0  0  0  0  0  0  0  0  0  0  0  0
  -23.5470  -17.4903  149.5500 C   0  0  0  0  0  0  0  0  0  0  0  0
  -23.1462  -17.4161  148.4753 O   0  0  0  0  0  0  0  0  0  0  0  0
  -22.5784  -17.7344  150.5202 O   0  0  0  0  0  0  0  0  0  0  0  0
  -26.7767  -14.0392  142.2608 N   0  0  0  0  0  0  0  0  0  0  0  0
  -26.6448  -13.6018  140.9725 C   0  0  0  0  0  0  0  0  0  0  0  0
  -27.7510  -12.6966  140.4374 C   0  0  0  0  0  0  0  0  0  0  0  0
  -27.2579  -11.4750  139.9231 C   0  0  0  0  0  0  0  0  0  0  0  0
  -28.1965  -10.3630  139.6892 C   0  0  0  0  0  0  0  0  0  0  0  0
  -28.7993   -9.9234  140.9165 C   0  0  0  0  0  0  0  0  0  0  0  0
  -29.4185   -8.6908  141.0334 C   0  0  0  0  0  0  0  0  0  0  0  0
  -29.3836   -7.8554  139.8212 C   0  0  0  0  0  0  0  0  0  0  0  0
  -28.6385   -8.2083  138.7500 C   0  0  0  0  0  0  0  0  0  0  0  0
  -27.9777   -9.4437  138.8028 C   0  0  0  0  0  0  0  0  0  0  0  0
  -30.2347   -8.2776  142.2104 C   0  0  0  0  0  0  0  0  0  0  0  0
  -30.3012   -7.0075  142.6491 C   0  0  0  0  0  0  0  0  0  0  0  0
  -31.6084   -8.9694  142.1824 C   0  0  0  0  0  0  0  0  0  0  0  0
  1  2  1  0
  2  3  1  0
  3  4  1  0
  3  7  1  0
  7  8  1  0
 10 12  1  0
 12 13  1  0
 13 14  1  0
 13 15  2  0
  7 16  1  0
 16 17  1  0
 17 18  1  0
 18 19  2  0
 18 20  1  0
 20 21  1  0
 20 22  2  0
  6 23  1  0
 23 24  1  0
 24 25  1  0
 25 26  1  0
 26 27  1  0
 29 33  1  0
 33 34  1  0
 33 35  1  0
 27 28  2  0
 28 29  1  0
 29 30  2  0
 30 31  1  0
 31 32  2  0
 32 27  1  0
  4  5  2  0
  5  6  1  0
  6  9  2  0
  9 10  1  0
 10 11  2  0
 11  4  1  0
M  END

$$$$
No_1462-/dssg/home/sw_qyf/PocketFlow/Model-Generation-Results/5HT2A_7WC7_rec_A_10.pdb/2024-01-01-03-54-21/
     RDKit          3D

 25 27  0  0  0  0  0  0  0  0999 V2000
  -24.1553  -17.8465  145.7021 C   0  0  0  0  0  0  0  0  0  0  0  0
  -23.9795  -18.4462  146.7426 C   0  0  0  0  0  0  0  0  0  0  0  0
  -25.1196  -16.8106  145.6409 C   0  0  0  0  0  0  0  0  0  0  0  0
  -25.9236  -16.5070  146.7422 C   0  0  0  0  0  0  0  0  0  0  0  0
  -25.6173  -17.2153  147.9099 C   0  0  0  0  0  0  0  0  0  0  0  0
  -24.6179  -18.1473  147.9620 C   0  0  0  0  0  0  0  0  0  0  0  0
  -26.9636  -15.4823  146.6618 C   0  0  0  0  0  0  0  0  0  0  0  0
  -26.7700  -14.4181  145.8778 C   0  0  0  0  0  0  0  0  0  0  0  0
  -25.6340  -14.0962  145.1105 C   0  0  0  0  0  0  0  0  0  0  0  0
  -25.5341  -12.8384  144.4503 C   0  0  0  0  0  0  0  0  0  0  0  0
  -26.7806  -12.2197  144.1991 C   0  0  0  0  0  0  0  0  0  0  0  0
  -26.8320  -11.0735  143.3929 C   0  0  0  0  0  0  0  0  0  0  0  0
  -28.0250  -10.6898  142.8364 C   0  0  0  0  0  0  0  0  0  0  0  0
  -29.1533  -10.1686  143.6669 C   0  0  0  0  0  0  0  0  0  0  0  0
  -30.3174   -9.6920  143.0784 C   0  0  0  0  0  0  0  0  0  0  0  0
  -30.1962   -9.3716  141.7747 N   0  0  0  0  0  0  0  0  0  0  0  0
  -29.1834   -9.6541  140.9561 C   0  0  0  0  0  0  0  0  0  0  0  0
  -29.0328   -9.2771  139.6391 C   0  0  0  0  0  0  0  0  0  0  0  0
  -27.9604  -10.3140  141.5562 C   0  0  0  0  0  0  0  0  0  0  0  0
  -28.1118   -9.7230  138.7400 C   0  0  0  0  0  0  0  0  0  0  0  0
  -27.7655  -13.3379  145.6940 C   0  0  0  0  0  0  0  0  0  0  0  0
  -27.8239  -12.3675  144.9372 N   0  0  0  0  0  0  0  0  0  0  0  0
  -29.6679   -7.9567  139.2576 C   0  0  0  0  0  0  0  0  0  0  0  0
  -29.0454  -13.6399  146.3718 N   0  0  0  0  0  0  0  0  0  0  0  0
  -28.1384   -9.1779  137.5164 N   0  0  0  0  0  0  0  0  0  0  0  0
  4  7  1  0
 11 12  1  0
 12 13  1  0
 17 18  1  0
 18 20  2  3
 18 23  1  0
 21 24  1  0
 20 25  1  0
  7  8  1  0
  1  2  2  0
  2  6  1  0
  6  5  2  0
  5  4  1  0
  4  3  2  0
  3  1  1  0
 13 14  2  0
 14 15  1  0
 15 16  2  0
 16 17  1  0
 17 19  2  0
 19 13  1  0
  8  9  2  0
  9 10  1  0
 10 11  2  0
 11 22  1  0
 22 21  2  0
 21  8  1  0
M  END

$$$$
No_1463-/dssg/home/sw_qyf/PocketFlow/Model-Generation-Results/5HT2A_7WC7_rec_A_10.pdb/2024-01-01-03-54-21/
     RDKit          3D

 29 30  0  0  0  0  0  0  0  0999 V2000
  -24.1553  -17.8465  145.7021 C   0  0  0  0  0  0  0  0  0  0  0  0
  -23.9795  -18.4462  146.7426 C   0  0  0  0  0  0  0  0  0  0  0  0
  -25.1593  -16.8262  145.6925 C   0  0  0  0  0  0  0  0  0  0  0  0
  -25.3302  -15.8818  144.5925 C   0  0  0  0  0  0  0  0  0  0  0  0
  -24.4570  -18.1009  148.0274 C   0  0  0  0  0  0  0  0  0  0  0  0
  -25.3496  -17.0286  148.1023 C   0  0  0  0  0  0  0  0  0  0  0  0
  -25.5669  -16.2449  146.9641 C   0  0  0  0  0  0  0  0  0  0  0  0
  -24.1832  -15.0607  144.1575 C   0  0  0  0  0  0  0  0  0  0  0  0
  -24.5000  -13.5410  144.1628 C   0  0  0  0  0  0  0  0  0  0  0  0
  -25.5435  -13.2096  144.9067 C   0  0  0  0  0  0  0  0  0  0  0  0
  -26.7373  -13.1058  144.1053 C   0  0  0  0  0  0  0  0  0  0  0  0
  -27.8677  -12.4013  144.6604 C   0  0  0  0  0  0  0  0  0  0  0  0
  -28.4184  -11.2574  144.1389 C   0  0  0  0  0  0  0  0  0  0  0  0
  -29.4835  -10.5836  144.8998 C   0  0  0  0  0  0  0  0  0  0  0  0
  -29.7982  -11.0887  146.2252 C   0  0  0  0  0  0  0  0  0  0  0  0
  -29.1253  -12.1260  146.8033 C   0  0  0  0  0  0  0  0  0  0  0  0
  -28.1279  -12.7888  146.0482 C   0  0  0  0  0  0  0  0  0  0  0  0
  -30.1999   -9.5594  144.3656 N   0  0  0  0  0  0  0  0  0  0  0  0
  -29.7575   -8.7654  143.4892 C   0  0  0  0  0  0  0  0  0  0  0  0
  -30.6906   -7.7356  142.9688 C   0  0  0  0  0  0  0  0  0  0  0  0
  -30.2527   -7.0147  141.8017 C   0  0  0  0  0  0  0  0  0  0  0  0
  -29.8099   -7.7347  140.5824 C   0  0  0  0  0  0  0  0  0  0  0  0
  -28.5092   -7.5391  140.1597 C   0  0  0  0  0  0  0  0  0  0  0  0
  -28.2736   -8.3257  138.8564 C   0  0  0  0  0  0  0  0  0  0  0  0
  -28.7582   -8.0336  137.5758 C   0  0  0  0  0  0  0  0  0  0  0  0
  -27.4874   -9.5453  139.0920 C   0  0  0  0  0  0  0  0  0  0  0  0
  -28.0954  -10.8510  139.1017 C   0  0  0  0  0  0  0  0  0  0  0  0
  -27.4768  -11.7304  140.2022 C   0  0  0  0  0  0  0  0  0  0  0  0
  -27.8757  -13.0650  140.2411 C   0  0  0  0  0  0  0  0  0  0  0  0
  3  4  1  0
  4  8  1  0
  8  9  1  0
  9 10  1  0
 10 11  1  0
 14 18  1  0
 18 19  1  0
 19 20  2  3
 20 21  1  0
 21 22  1  0
 22 23  2  3
 23 24  1  0
 24 25  2  0
 24 26  1  0
 26 27  1  0
 27 28  1  0
 28 29  1  0
 11 12  1  0
 12 13  2  0
 13 14  1  0
 14 15  2  0
 15 16  1  0
 16 17  2  0
 17 12  1  0
  1  2  2  0
  2  5  1  0
  5  6  2  0
  6  7  1  0
  7  3  2  0
  3  1  1  0
M  END

$$$$
No_1464-/dssg/home/sw_qyf/PocketFlow/Model-Generation-Results/5HT2A_7WC7_rec_A_10.pdb/2024-01-01-03-54-21/
     RDKit          3D

  6  5  0  0  0  0  0  0  0  0999 V2000
  -23.1746  -16.6014  144.8668 C   0  0  0  0  0  0  0  0  0  0  0  0
  -23.7011  -17.0158  145.9774 C   0  0  0  0  0  0  0  0  0  0  0  0
  -24.1621  -18.2199  146.2255 C   0  0  0  0  0  0  0  0  0  0  0  0
  -25.0765  -18.4615  147.2799 C   0  0  0  0  0  0  0  0  0  0  0  0
  -24.8903  -17.5474  148.4592 C   0  0  0  0  0  0  0  0  0  0  0  0
  -24.4265  -16.2345  148.2668 C   0  0  0  0  0  0  0  0  0  0  0  0
  1  2  3  0
  2  3  1  0
  3  4  1  0
  4  5  1  0
  5  6  1  0
M  END

$$$$
No_1465-/dssg/home/sw_qyf/PocketFlow/Model-Generation-Results/5HT2A_7WC7_rec_A_10.pdb/2024-01-01-03-54-21/
     RDKit          3D

 35 37  0  0  0  0  0  0  0  0999 V2000
  -23.1746  -16.6014  144.8668 C   0  0  0  0  0  0  0  0  0  0  0  0
  -24.0189  -16.0564  145.8445 C   0  0  0  0  0  0  0  0  0  0  0  0
  -24.4850  -14.7380  145.6359 C   0  0  0  0  0  0  0  0  0  0  0  0
  -25.2717  -14.0560  146.5949 C   0  0  0  0  0  0  0  0  0  0  0  0
  -26.3551  -13.4282  146.0390 C   0  0  0  0  0  0  0  0  0  0  0  0
  -26.1863  -12.4524  145.0885 C   0  0  0  0  0  0  0  0  0  0  0  0
  -27.3198  -11.7494  144.5773 C   0  0  0  0  0  0  0  0  0  0  0  0
  -27.3895  -11.1615  143.2972 C   0  0  0  0  0  0  0  0  0  0  0  0
  -28.3224  -10.2045  143.0462 C   0  0  0  0  0  0  0  0  0  0  0  0
  -28.4160   -9.4999  141.8486 C   0  0  0  0  0  0  0  0  0  0  0  0
  -27.7652  -10.0011  140.6888 C   0  0  0  0  0  0  0  0  0  0  0  0
  -27.7044   -9.2672  139.4901 C   0  0  0  0  0  0  0  0  0  0  0  0
  -28.6313   -8.1360  139.4044 C   0  0  0  0  0  0  0  0  0  0  0  0
  -29.4362   -7.7270  140.4905 C   0  0  0  0  0  0  0  0  0  0  0  0
  -29.3596   -8.4716  141.6920 C   0  0  0  0  0  0  0  0  0  0  0  0
  -24.4909  -16.8381  146.9188 C   0  0  0  0  0  0  0  0  0  0  0  0
  -25.2027  -16.5580  147.8669 C   0  0  0  0  0  0  0  0  0  0  0  0
  -26.1029  -16.1276  147.9661 C   0  0  0  0  0  0  0  0  0  0  0  0
  -23.8384  -18.1867  146.8609 C   0  0  0  0  0  0  0  0  0  0  0  0
  -24.0159  -13.9902  144.5659 C   0  0  0  0  0  0  0  0  0  0  0  0
  -29.2635   -9.9761  144.1502 C   0  0  0  0  0  0  0  0  0  0  0  0
  -29.2529  -10.5958  145.4061 C   0  0  0  0  0  0  0  0  0  0  0  0
  -28.1930  -11.4731  145.6638 C   0  0  0  0  0  0  0  0  0  0  0  0
  -24.4506  -19.0753  146.9232 O   0  0  0  0  0  0  0  0  0  0  0  0
  -22.5122  -18.3902  146.8410 O   0  0  0  0  0  0  0  0  0  0  0  0
  -24.5134  -16.8116  149.2870 C   0  0  0  0  0  0  0  0  0  0  0  0
  -27.2421  -16.9269  148.6351 C   0  0  0  0  0  0  0  0  0  0  0  0
  -28.6319  -16.5607  148.4807 C   0  0  0  0  0  0  0  0  0  0  0  0
  -29.0358  -15.6788  147.4671 C   0  0  0  0  0  0  0  0  0  0  0  0
  -29.9641  -14.5655  147.7135 C   0  0  0  0  0  0  0  0  0  0  0  0
  -30.5051  -14.3756  148.9615 C   0  0  0  0  0  0  0  0  0  0  0  0
  -31.4045  -13.2703  149.1367 C   0  0  0  0  0  0  0  0  0  0  0  0
  -31.0572  -12.0709  148.3857 C   0  0  0  0  0  0  0  0  0  0  0  0
  -30.2745  -12.1514  147.2872 N   0  0  0  0  0  0  0  0  0  0  0  0
  -29.6841  -13.4099  146.9898 C   0  0  0  0  0  0  0  0  0  0  0  0
  1  2  1  0
  2  3  1  0
  3  4  1  0
  4  5  1  0
  5  6  2  3
  6  7  1  0
  9 10  1  0
  2 16  1  0
 16 17  1  0
 17 18  2  3
 16 19  1  0
  3 20  1  0
 19 24  2  0
 19 25  1  0
 17 26  1  0
 18 27  1  0
 27 28  2  3
 28 29  1  0
 29 30  1  0
 30 31  2  0
 31 32  1  0
 32 33  2  0
 33 34  1  0
 34 35  2  0
 35 30  1  0
 10 11  2  0
 11 12  1  0
 12 13  2  0
 13 14  1  0
 14 15  2  0
 15 10  1  0
  7  8  2  0
  8  9  1  0
  9 21  2  0
 21 22  1  0
 22 23  2  0
 23  7  1  0
M  END

$$$$
No_1466-/dssg/home/sw_qyf/PocketFlow/Model-Generation-Results/5HT2A_7WC7_rec_A_10.pdb/2024-01-01-03-54-21/
     RDKit          3D

 35 37  0  0  0  0  0  0  0  0999 V2000
  -23.1746  -16.6014  144.8668 C   0  0  0  0  0  0  0  0  0  0  0  0
  -23.7011  -17.0158  145.9774 C   0  0  0  0  0  0  0  0  0  0  0  0
  -24.2134  -16.0722  146.8877 C   0  0  0  0  0  0  0  0  0  0  0  0
  -24.7882  -16.3410  148.2078 C   0  0  0  0  0  0  0  0  0  0  0  0
  -23.4231  -15.2781  144.3679 C   0  0  0  0  0  0  0  0  0  0  0  0
  -24.0726  -14.2968  145.2170 C   0  0  0  0  0  0  0  0  0  0  0  0
  -24.4910  -14.7123  146.5041 C   0  0  0  0  0  0  0  0  0  0  0  0
  -26.2215  -16.5906  148.3585 C   0  0  0  0  0  0  0  0  0  0  0  0
  -27.1177  -15.8713  147.6588 C   0  0  0  0  0  0  0  0  0  0  0  0
  -26.9135  -15.2051  146.5301 C   0  0  0  0  0  0  0  0  0  0  0  0
  -25.7458  -14.3421  146.3534 C   0  0  0  0  0  0  0  0  0  0  0  0
  -23.5026  -18.4030  146.4471 C   0  0  0  0  0  0  0  0  0  0  0  0
  -24.4929  -19.1408  146.5641 O   0  0  0  0  0  0  0  0  0  0  0  0
  -24.2648  -12.9713  144.7132 C   0  0  0  0  0  0  0  0  0  0  0  0
  -23.7226  -11.9951  145.5028 N   0  0  0  0  0  0  0  0  0  0  0  0
  -28.5531  -16.1092  148.1066 C   0  0  0  0  0  0  0  0  0  0  0  0
  -29.4786  -15.3737  147.4306 N   0  0  0  0  0  0  0  0  0  0  0  0
  -30.1398  -14.2876  148.0127 C   0  0  0  0  0  0  0  0  0  0  0  0
  -30.5602  -14.1658  149.2835 C   0  0  0  0  0  0  0  0  0  0  0  0
  -31.3647  -13.1337  149.7316 C   0  0  0  0  0  0  0  0  0  0  0  0
  -31.4482  -12.0238  148.8253 C   0  0  0  0  0  0  0  0  0  0  0  0
  -30.3020  -13.1499  147.1913 C   0  0  0  0  0  0  0  0  0  0  0  0
  -30.8734  -12.0128  147.6528 C   0  0  0  0  0  0  0  0  0  0  0  0
  -28.8594  -16.7656  149.0826 O   0  0  0  0  0  0  0  0  0  0  0  0
  -30.9389  -10.9103  146.8662 O   0  0  0  0  0  0  0  0  0  0  0  0
  -22.3133  -18.8048  146.7347 O   0  0  0  0  0  0  0  0  0  0  0  0
  -29.7367  -10.2992  146.4533 C   0  0  0  0  0  0  0  0  0  0  0  0
  -28.7551  -11.2883  146.0204 C   0  0  0  0  0  0  0  0  0  0  0  0
  -27.7131  -10.8161  145.0688 C   0  0  0  0  0  0  0  0  0  0  0  0
  -27.9615   -9.9503  144.0948 C   0  0  0  0  0  0  0  0  0  0  0  0
  -27.7382  -10.2159  142.8285 C   0  0  0  0  0  0  0  0  0  0  0  0
  -28.3624   -9.5050  141.7883 C   0  0  0  0  0  0  0  0  0  0  0  0
  -28.2552   -9.8365  140.4248 C   0  0  0  0  0  0  0  0  0  0  0  0
  -28.5087   -8.9803  139.3841 C   0  0  0  0  0  0  0  0  0  0  0  0
  -29.2821   -7.8058  139.7251 C   0  0  0  0  0  0  0  0  0  0  0  0
  4  8  1  0
  8  9  1  0
  9 10  2  0
  7 11  1  0
 10 11  1  0
  2 12  1  0
 12 13  2  0
  6 14  1  0
 14 15  1  0
  9 16  1  0
 16 17  1  0
 17 18  1  0
 16 24  2  0
 23 25  1  0
 12 26  1  0
 25 27  1  0
 27 28  1  0
 28 29  2  3
 29 30  1  0
 30 31  1  0
 31 32  1  0
 32 33  1  0
 33 34  2  3
 34 35  1  0
  4  3  1  0
  1  2  2  0
  2  3  1  0
  3  7  2  0
  7  6  1  0
  6  5  2  0
  5  1  1  0
 18 19  2  0
 19 20  1  0
 20 21  2  0
 21 23  1  0
 23 22  2  0
 22 18  1  0
M  END

$$$$
No_1467-/dssg/home/sw_qyf/PocketFlow/Model-Generation-Results/5HT2A_7WC7_rec_A_10.pdb/2024-01-01-03-54-21/
     RDKit          3D

 12 13  0  0  0  0  0  0  0  0999 V2000
  -24.1553  -17.8465  145.7021 C   0  0  0  0  0  0  0  0  0  0  0  0
  -24.2856  -16.6364  145.3494 C   0  0  0  0  0  0  0  0  0  0  0  0
  -24.5732  -15.7651  145.9979 C   0  0  0  0  0  0  0  0  0  0  0  0
  -25.1772  -15.7608  146.8967 C   0  0  0  0  0  0  0  0  0  0  0  0
  -24.7491  -18.1486  146.9814 C   0  0  0  0  0  0  0  0  0  0  0  0
  -25.2477  -17.0667  147.7032 C   0  0  0  0  0  0  0  0  0  0  0  0
  -24.5930  -14.1936  145.3883 C   0  0  0  0  0  0  0  0  0  0  0  0
  -25.2370  -13.1477  145.9755 C   0  0  0  0  0  0  0  0  0  0  0  0
  -24.6881  -11.8551  146.0226 C   0  0  0  0  0  0  0  0  0  0  0  0
  -23.8190  -11.5481  144.9781 C   0  0  0  0  0  0  0  0  0  0  0  0
  -23.6549  -13.8565  144.3190 C   0  0  0  0  0  0  0  0  0  0  0  0
  -23.1913  -12.5604  144.3345 N   0  0  0  0  0  0  0  0  0  0  0  0
  3  7  1  0
  7  8  2  0
  8  9  1  0
  9 10  2  0
 10 12  1  0
 12 11  2  0
 11  7  1  0
  1  2  2  0
  2  3  1  0
  3  4  2  0
  4  6  1  0
  6  5  2  0
  5  1  1  0
M  END

$$$$
No_1468-/dssg/home/sw_qyf/PocketFlow/Model-Generation-Results/5HT2A_7WC7_rec_A_10.pdb/2024-01-01-03-54-21/
     RDKit          3D

 35 38  0  0  0  0  0  0  0  0999 V2000
  -24.1553  -17.8465  145.7021 C   0  0  0  0  0  0  0  0  0  0  0  0
  -23.9795  -18.4462  146.7426 C   0  0  0  0  0  0  0  0  0  0  0  0
  -25.1593  -16.8262  145.6925 C   0  0  0  0  0  0  0  0  0  0  0  0
  -25.3302  -15.8818  144.5925 C   0  0  0  0  0  0  0  0  0  0  0  0
  -24.4570  -18.1009  148.0274 C   0  0  0  0  0  0  0  0  0  0  0  0
  -25.3496  -17.0286  148.1023 C   0  0  0  0  0  0  0  0  0  0  0  0
  -25.5669  -16.2449  146.9641 C   0  0  0  0  0  0  0  0  0  0  0  0
  -25.1447  -14.4296  144.8260 C   0  0  0  0  0  0  0  0  0  0  0  0
  -25.8955  -13.8381  145.7744 C   0  0  0  0  0  0  0  0  0  0  0  0
  -25.7813  -14.6980  147.1566 C   0  0  0  0  0  0  0  0  0  0  0  0
  -25.6903  -12.3705  146.0489 C   0  0  0  0  0  0  0  0  0  0  0  0
  -25.7348  -11.5718  144.9416 C   0  0  0  0  0  0  0  0  0  0  0  0
  -25.4560  -11.8375  143.9768 O   0  0  0  0  0  0  0  0  0  0  0  0
  -26.4697  -10.3066  145.1243 O   0  0  0  0  0  0  0  0  0  0  0  0
  -25.9326  -16.6753  149.2398 O   0  0  0  0  0  0  0  0  0  0  0  0
  -27.0632   -9.7475  144.0814 C   0  0  0  0  0  0  0  0  0  0  0  0
  -28.4758  -10.0146  143.8715 C   0  0  0  0  0  0  0  0  0  0  0  0
  -29.1106  -10.8314  144.8006 C   0  0  0  0  0  0  0  0  0  0  0  0
  -29.0611   -9.7695  142.5950 C   0  0  0  0  0  0  0  0  0  0  0  0
  -28.4236   -9.6656  141.4416 C   0  0  0  0  0  0  0  0  0  0  0  0
  -28.6740   -8.7677  140.4177 C   0  0  0  0  0  0  0  0  0  0  0  0
  -29.7246   -7.8036  140.5558 C   0  0  0  0  0  0  0  0  0  0  0  0
  -30.5780   -8.0146  141.7354 C   0  0  0  0  0  0  0  0  0  0  0  0
  -30.2022   -8.8341  142.7900 C   0  0  0  0  0  0  0  0  0  0  0  0
  -27.9827   -8.6778  139.1424 C   0  0  0  0  0  0  0  0  0  0  0  0
  -28.2291   -7.7772  138.2956 N   0  0  0  0  0  0  0  0  0  0  0  0
  -27.1226   -9.6263  138.9527 O   0  0  0  0  0  0  0  0  0  0  0  0
  -31.0923   -8.9031  144.0065 C   0  0  0  0  0  0  0  0  0  0  0  0
  -30.1707  -10.3165  145.6597 C   0  0  0  0  0  0  0  0  0  0  0  0
  -32.1632   -8.1647  143.7566 O   0  0  0  0  0  0  0  0  0  0  0  0
  -30.9627   -9.6449  145.1295 C   0  0  0  0  0  0  0  0  0  0  0  0
  -30.3679  -11.0385  146.7625 F   0  0  0  0  0  0  0  0  0  0  0  0
  -23.7833  -18.2744  144.5461 O   0  0  0  0  0  0  0  0  0  0  0  0
  -27.0084  -17.4707  149.5913 C   0  0  0  0  0  0  0  0  0  0  0  0
  -27.4589  -13.9734  145.4480 C   0  0  0  0  0  0  0  0  0  0  0  0
  3  4  1  0
  4  8  1  0
  8  9  1  0
  7 10  1  0
  9 10  1  0
  9 11  1  0
 11 12  1  0
 12 13  2  0
 12 14  1  0
  6 15  1  0
 14 16  1  0
 16 17  1  0
 17 18  2  0
 17 19  1  0
 21 25  1  0
 25 26  1  0
 25 27  2  0
 24 28  1  0
 18 29  1  0
 28 30  2  0
 28 31  1  0
 29 31  2  0
 29 32  1  0
  1 33  1  0
 15 34  1  0
  9 35  1  0
  1  2  2  0
  2  5  1  0
  5  6  2  0
  6  7  1  0
  7  3  2  0
  3  1  1  0
 19 20  2  0
 20 21  1  0
 21 22  2  0
 22 23  1  0
 23 24  2  0
 24 19  1  0
M  END

$$$$
No_1469-/dssg/home/sw_qyf/PocketFlow/Model-Generation-Results/5HT2A_7WC7_rec_A_10.pdb/2024-01-01-03-54-21/
     RDKit          3D

 13 15  0  0  0  0  0  0  0  0999 V2000
  -24.1553  -17.8465  145.7021 C   0  0  0  0  0  0  0  0  0  0  0  0
  -24.2855  -16.6364  145.3494 C   0  0  0  0  0  0  0  0  0  0  0  0
  -24.7838  -15.7223  145.8474 C   0  0  0  0  0  0  0  0  0  0  0  0
  -25.6063  -15.9757  147.0425 C   0  0  0  0  0  0  0  0  0  0  0  0
  -24.8561  -18.2319  146.8940 C   0  0  0  0  0  0  0  0  0  0  0  0
  -25.5371  -17.2345  147.6142 C   0  0  0  0  0  0  0  0  0  0  0  0
  -24.9296  -14.2246  145.4235 C   0  0  0  0  0  0  0  0  0  0  0  0
  -24.7490  -13.6514  144.6238 C   0  0  0  0  0  0  0  0  0  0  0  0
  -24.8224  -12.2764  144.5804 N   0  0  0  0  0  0  0  0  0  0  0  0
  -25.4277  -11.6198  145.6105 C   0  0  0  0  0  0  0  0  0  0  0  0
  -25.7647  -12.3381  146.7303 N   0  0  0  0  0  0  0  0  0  0  0  0
  -25.5574  -13.6473  146.7394 C   0  0  0  0  0  0  0  0  0  0  0  0
  -25.7662  -14.7168  147.5681 N   0  0  0  0  0  0  0  0  0  0  0  0
  3  7  1  0
  4 13  1  0
 12 13  1  0
  1  2  2  0
  2  3  1  0
  3  4  2  0
  4  6  1  0
  6  5  2  0
  5  1  1  0
  7  8  2  0
  8  9  1  0
  9 10  2  0
 10 11  1  0
 11 12  2  0
 12  7  1  0
M  END

$$$$
No_1470-/dssg/home/sw_qyf/PocketFlow/Model-Generation-Results/5HT2A_7WC7_rec_A_10.pdb/2024-01-01-03-54-21/
     RDKit          3D

 30 31  0  0  0  0  0  0  0  0999 V2000
  -24.1553  -17.8465  145.7021 C   0  0  0  0  0  0  0  0  0  0  0  0
  -24.6364  -17.2931  146.7091 C   0  0  0  0  0  0  0  0  0  0  0  0
  -24.5709  -15.9334  146.8074 C   0  0  0  0  0  0  0  0  0  0  0  0
  -24.3883  -15.1807  145.6115 C   0  0  0  0  0  0  0  0  0  0  0  0
  -24.5560  -13.7894  145.5018 C   0  0  0  0  0  0  0  0  0  0  0  0
  -24.0119  -13.0541  144.4727 C   0  0  0  0  0  0  0  0  0  0  0  0
  -23.7718  -17.2090  144.5435 C   0  0  0  0  0  0  0  0  0  0  0  0
  -23.8967  -15.8070  144.5515 C   0  0  0  0  0  0  0  0  0  0  0  0
  -23.6521  -11.7063  144.8931 C   0  0  0  0  0  0  0  0  0  0  0  0
  -25.9491  -13.5047  145.9544 C   0  0  0  0  0  0  0  0  0  0  0  0
  -26.9258  -12.8963  145.1188 C   0  0  0  0  0  0  0  0  0  0  0  0
  -28.0212  -12.3180  145.7480 C   0  0  0  0  0  0  0  0  0  0  0  0
  -28.8901  -11.4120  145.1544 C   0  0  0  0  0  0  0  0  0  0  0  0
  -28.7340  -11.0214  143.8337 C   0  0  0  0  0  0  0  0  0  0  0  0
  -27.6895  -11.7487  143.1434 C   0  0  0  0  0  0  0  0  0  0  0  0
  -26.7704  -12.5159  143.7893 C   0  0  0  0  0  0  0  0  0  0  0  0
  -29.7151  -10.2954  143.0553 C   0  0  0  0  0  0  0  0  0  0  0  0
  -30.7631   -9.9877  143.5218 O   0  0  0  0  0  0  0  0  0  0  0  0
  -29.5144  -10.2532  141.7139 O   0  0  0  0  0  0  0  0  0  0  0  0
  -24.0066  -19.3954  145.6765 C   0  0  0  0  0  0  0  0  0  0  0  0
  -29.9681  -10.9548  145.9113 O   0  0  0  0  0  0  0  0  0  0  0  0
  -31.5647   -9.0368  142.7445 C   0  0  0  0  0  0  0  0  0  0  0  0
  -30.6010   -8.1034  142.0149 C   0  0  0  0  0  0  0  0  0  0  0  0
  -30.4725   -7.0373  142.3939 C   0  0  0  0  0  0  0  0  0  0  0  0
  -29.5069   -6.0510  141.7951 C   0  0  0  0  0  0  0  0  0  0  0  0
  -29.1969   -4.8478  142.4596 C   0  0  0  0  0  0  0  0  0  0  0  0
  -28.8544   -3.7307  141.8301 C   0  0  0  0  0  0  0  0  0  0  0  0
  -28.4525   -2.5470  142.5104 C   0  0  0  0  0  0  0  0  0  0  0  0
  -29.9774   -8.8054  141.0145 C   0  0  0  0  0  0  0  0  0  0  0  0
  -29.2144   -8.3179  140.0330 C   0  0  0  0  0  0  0  0  0  0  0  0
  5  6  1  0
  6  9  1  0
  5 10  1  0
 10 11  1  0
 14 17  1  0
 17 18  1  0
 17 19  2  0
  1 20  1  0
 13 21  1  0
 18 22  1  0
 22 23  1  0
 23 24  2  3
 24 25  1  0
 25 26  1  0
 26 27  2  3
 27 28  1  0
 23 29  1  0
 29 30  2  0
  5  4  1  0
 11 12  2  0
 12 13  1  0
 13 14  2  0
 14 15  1  0
 15 16  2  0
 16 11  1  0
  1  2  2  0
  2  3  1  0
  3  4  2  0
  4  8  1  0
  8  7  2  0
  7  1  1  0
M  END

$$$$
No_1471-/dssg/home/sw_qyf/PocketFlow/Model-Generation-Results/5HT2A_7WC7_rec_A_10.pdb/2024-01-01-03-54-21/
     RDKit          3D

 29 31  0  0  0  0  0  0  0  0999 V2000
  -23.1746  -16.6014  144.8668 C   0  0  0  0  0  0  0  0  0  0  0  0
  -23.7011  -17.0158  145.9774 C   0  0  0  0  0  0  0  0  0  0  0  0
  -23.7336  -18.2775  146.3737 C   0  0  0  0  0  0  0  0  0  0  0  0
  -23.2769  -15.1496  144.5841 C   0  0  0  0  0  0  0  0  0  0  0  0
  -24.0283  -14.2099  145.3704 C   0  0  0  0  0  0  0  0  0  0  0  0
  -24.6472  -14.7123  146.5451 C   0  0  0  0  0  0  0  0  0  0  0  0
  -24.4752  -16.0939  146.8994 C   0  0  0  0  0  0  0  0  0  0  0  0
  -23.8580  -12.8065  145.3531 C   0  0  0  0  0  0  0  0  0  0  0  0
  -22.5714  -12.2245  145.0199 C   0  0  0  0  0  0  0  0  0  0  0  0
  -25.0140  -11.9750  145.4382 C   0  0  0  0  0  0  0  0  0  0  0  0
  -25.5426  -11.2049  144.4021 C   0  0  0  0  0  0  0  0  0  0  0  0
  -26.7339  -10.3809  144.6872 C   0  0  0  0  0  0  0  0  0  0  0  0
  -27.8960  -11.2213  145.0860 C   0  0  0  0  0  0  0  0  0  0  0  0
  -29.1702  -10.8097  144.7322 C   0  0  0  0  0  0  0  0  0  0  0  0
  -29.5063   -9.6994  143.9721 C   0  0  0  0  0  0  0  0  0  0  0  0
  -30.8032   -9.2634  143.8480 C   0  0  0  0  0  0  0  0  0  0  0  0
  -31.0717   -8.3159  142.8218 C   0  0  0  0  0  0  0  0  0  0  0  0
  -29.9595   -8.3260  141.8094 C   0  0  0  0  0  0  0  0  0  0  0  0
  -29.8949   -7.2677  140.8483 C   0  0  0  0  0  0  0  0  0  0  0  0
  -28.8228   -9.2727  142.7350 C   0  0  0  0  0  0  0  0  0  0  0  0
  -30.3503   -7.8900  139.8678 F   0  0  0  0  0  0  0  0  0  0  0  0
  -28.4863   -7.1729  140.5622 F   0  0  0  0  0  0  0  0  0  0  0  0
  -22.8456  -19.0018  146.4693 O   0  0  0  0  0  0  0  0  0  0  0  0
  -24.9968  -18.9048  146.6735 N   0  0  0  0  0  0  0  0  0  0  0  0
  -27.6957  -12.3322  145.9959 C   0  0  0  0  0  0  0  0  0  0  0  0
  -26.2208  -12.8293  145.9982 C   0  0  0  0  0  0  0  0  0  0  0  0
  -25.9619  -14.1331  146.6175 C   0  0  0  0  0  0  0  0  0  0  0  0
  -26.9098  -14.6457  147.3238 O   0  0  0  0  0  0  0  0  0  0  0  0
  -26.1979  -14.1680  145.5136 Cl  0  0  0  0  0  0  0  0  0  0  0  0
  2  3  1  0
  5  8  1  0
  8  9  1  0
  8 10  1  0
 10 11  1  0
 11 12  1  0
 12 13  1  0
 13 14  2  3
 14 15  1  0
 15 16  1  0
 16 17  1  0
 17 18  1  0
 18 19  2  3
 15 20  1  0
 18 20  1  0
 19 21  1  0
 19 22  1  0
  3 23  2  0
  3 24  1  0
 13 25  1  0
 10 26  1  0
 25 26  1  0
 26 27  1  0
 27 28  2  0
 27 29  1  0
  1  2  2  0
  2  7  1  0
  7  6  2  0
  6  5  1  0
  5  4  2  0
  4  1  1  0
M  END

$$$$
No_1472-/dssg/home/sw_qyf/PocketFlow/Model-Generation-Results/5HT2A_7WC7_rec_A_10.pdb/2024-01-01-03-54-21/
     RDKit          3D

 35 38  0  0  0  0  0  0  0  0999 V2000
  -23.1746  -16.6014  144.8668 C   0  0  0  0  0  0  0  0  0  0  0  0
  -23.8963  -15.5346  144.7885 C   0  0  0  0  0  0  0  0  0  0  0  0
  -23.6398  -14.5115  145.3281 C   0  0  0  0  0  0  0  0  0  0  0  0
  -24.6397  -13.8424  146.2286 C   0  0  0  0  0  0  0  0  0  0  0  0
  -25.6315  -14.4099  146.7658 C   0  0  0  0  0  0  0  0  0  0  0  0
  -23.6475  -17.6225  145.7084 C   0  0  0  0  0  0  0  0  0  0  0  0
  -23.2202  -18.8637  145.8693 C   0  0  0  0  0  0  0  0  0  0  0  0
  -26.3078  -15.3813  145.9920 C   0  0  0  0  0  0  0  0  0  0  0  0
  -25.3487  -16.1784  145.2098 C   0  0  0  0  0  0  0  0  0  0  0  0
  -25.0122  -17.4113  145.8805 N   0  0  0  0  0  0  0  0  0  0  0  0
  -24.1831  -12.3667  146.7068 C   0  0  0  0  0  0  0  0  0  0  0  0
  -27.3230  -16.1935  146.6586 C   0  0  0  0  0  0  0  0  0  0  0  0
  -28.0474  -15.5395  147.7629 C   0  0  0  0  0  0  0  0  0  0  0  0
  -28.5360  -14.3098  147.5105 C   0  0  0  0  0  0  0  0  0  0  0  0
  -29.7859  -13.7771  148.0964 C   0  0  0  0  0  0  0  0  0  0  0  0
  -30.1749  -12.4163  147.9775 C   0  0  0  0  0  0  0  0  0  0  0  0
  -29.5402  -11.6135  146.9483 C   0  0  0  0  0  0  0  0  0  0  0  0
  -28.4315  -12.1775  146.2574 C   0  0  0  0  0  0  0  0  0  0  0  0
  -27.9778  -13.4822  146.5284 C   0  0  0  0  0  0  0  0  0  0  0  0
  -27.7831  -11.3223  145.2810 C   0  0  0  0  0  0  0  0  0  0  0  0
  -27.1875  -11.6351  144.1793 C   0  0  0  0  0  0  0  0  0  0  0  0
  -26.9177  -10.6816  143.2158 C   0  0  0  0  0  0  0  0  0  0  0  0
  -28.1294  -10.2809  142.5370 C   0  0  0  0  0  0  0  0  0  0  0  0
  -28.9626   -9.4232  143.1762 C   0  0  0  0  0  0  0  0  0  0  0  0
  -30.0155   -8.8211  142.5662 C   0  0  0  0  0  0  0  0  0  0  0  0
  -31.3163   -8.6132  143.1131 C   0  0  0  0  0  0  0  0  0  0  0  0
  -32.1477   -7.8936  142.5084 F   0  0  0  0  0  0  0  0  0  0  0  0
  -28.5668  -10.7824  141.3557 C   0  0  0  0  0  0  0  0  0  0  0  0
  -27.8579  -11.8191  140.6728 C   0  0  0  0  0  0  0  0  0  0  0  0
  -27.1238  -12.6687  141.2675 C   0  0  0  0  0  0  0  0  0  0  0  0
  -26.3141  -13.6679  140.4982 C   0  0  0  0  0  0  0  0  0  0  0  0
  -25.7393  -13.0896  139.5988 N   0  0  0  0  0  0  0  0  0  0  0  0
  -27.6996  -11.7248  139.2620 C   0  0  0  0  0  0  0  0  0  0  0  0
  -26.7537  -12.4657  138.7150 C   0  0  0  0  0  0  0  0  0  0  0  0
  -31.0811   -7.9196  144.3794 F   0  0  0  0  0  0  0  0  0  0  0  0
  1  2  1  0
  1  6  1  0
  6  7  2  0
  6 10  1  0
  9 10  1  0
  4 11  1  0
  8 12  1  0
 12 13  1  0
 13 14  1  0
 18 20  1  0
 20 21  2  3
 21 22  1  0
 22 23  1  0
 23 24  2  3
 24 25  1  0
 25 26  2  3
 26 27  1  0
 23 28  1  0
 28 29  1  0
 26 35  1  0
 14 15  2  0
 15 16  1  0
 16 17  2  0
 17 18  1  0
 18 19  2  0
 19 14  1  0
  2  3  2  0
  3  4  1  0
  4  5  2  0
  5  8  1  0
  8  9  2  0
  9  2  1  0
 29 30  2  0
 30 31  1  0
 31 32  2  0
 32 34  1  0
 34 33  2  0
 33 29  1  0
M  END

$$$$
No_1473-/dssg/home/sw_qyf/PocketFlow/Model-Generation-Results/5HT2A_7WC7_rec_A_10.pdb/2024-01-01-03-54-21/
     RDKit          3D

 13 14  0  0  0  0  0  0  0  0999 V2000
  -24.1553  -17.8465  145.7021 C   0  0  0  0  0  0  0  0  0  0  0  0
  -24.2856  -16.6364  145.3494 C   0  0  0  0  0  0  0  0  0  0  0  0
  -24.7211  -15.5955  146.2115 C   0  0  0  0  0  0  0  0  0  0  0  0
  -24.8539  -14.2010  145.8739 C   0  0  0  0  0  0  0  0  0  0  0  0
  -24.1440  -13.8321  144.7074 C   0  0  0  0  0  0  0  0  0  0  0  0
  -23.5078  -14.7946  143.9923 N   0  0  0  0  0  0  0  0  0  0  0  0
  -23.5385  -16.0602  144.3598 C   0  0  0  0  0  0  0  0  0  0  0  0
  -25.0266  -18.4309  146.7211 C   0  0  0  0  0  0  0  0  0  0  0  0
  -25.6351  -17.4938  147.6027 C   0  0  0  0  0  0  0  0  0  0  0  0
  -25.6672  -16.1148  147.3415 C   0  0  0  0  0  0  0  0  0  0  0  0
  -23.8920  -12.5676  144.5007 O   0  0  0  0  0  0  0  0  0  0  0  0
  -25.4202  -13.1957  146.7823 C   0  0  0  0  0  0  0  0  0  0  0  0
  -24.8716  -11.8739  146.7085 C   0  0  0  0  0  0  0  0  0  0  0  0
  3  4  1  0
  4  5  1  0
  5  6  1  0
  2  7  1  0
  6  7  1  0
  5 11  2  0
  4 12  1  0
 12 13  1  0
  1  2  2  0
  2  3  1  0
  3 10  2  0
 10  9  1  0
  9  8  2  0
  8  1  1  0
M  END

$$$$
No_1474-/dssg/home/sw_qyf/PocketFlow/Model-Generation-Results/5HT2A_7WC7_rec_A_10.pdb/2024-01-01-03-54-21/
     RDKit          3D

 17 17  0  0  0  0  0  0  0  0999 V2000
  -23.1746  -16.6014  144.8668 C   0  0  0  0  0  0  0  0  0  0  0  0
  -23.7011  -17.0158  145.9774 C   0  0  0  0  0  0  0  0  0  0  0  0
  -24.2134  -16.0722  146.8877 C   0  0  0  0  0  0  0  0  0  0  0  0
  -23.3742  -15.2706  144.3922 C   0  0  0  0  0  0  0  0  0  0  0  0
  -24.0445  -14.2973  145.2608 C   0  0  0  0  0  0  0  0  0  0  0  0
  -24.4773  -14.7066  146.5258 C   0  0  0  0  0  0  0  0  0  0  0  0
  -24.1883  -12.8818  144.8809 C   0  0  0  0  0  0  0  0  0  0  0  0
  -25.2998  -12.4212  144.8290 O   0  0  0  0  0  0  0  0  0  0  0  0
  -23.5602  -18.4324  146.4550 C   0  0  0  0  0  0  0  0  0  0  0  0
  -24.2799  -19.2620  146.1305 O   0  0  0  0  0  0  0  0  0  0  0  0
  -23.0142  -12.2296  144.7683 O   0  0  0  0  0  0  0  0  0  0  0  0
  -22.5167  -18.6514  147.2688 O   0  0  0  0  0  0  0  0  0  0  0  0
  -25.5549  -11.1857  145.4021 C   0  0  0  0  0  0  0  0  0  0  0  0
  -27.0775  -10.9806  145.5832 C   0  0  0  0  0  0  0  0  0  0  0  0
  -27.5275  -11.5644  146.6377 F   0  0  0  0  0  0  0  0  0  0  0  0
  -27.3044   -9.5804  145.7008 F   0  0  0  0  0  0  0  0  0  0  0  0
  -27.7604  -11.3850  144.4766 F   0  0  0  0  0  0  0  0  0  0  0  0
  5  7  1  0
  7  8  1  0
  2  9  1  0
  9 10  2  0
  7 11  2  0
  9 12  1  0
  8 13  1  0
 13 14  1  0
 14 15  1  0
 14 16  1  0
 14 17  1  0
  1  2  2  0
  2  3  1  0
  3  6  2  0
  6  5  1  0
  5  4  2  0
  4  1  1  0
M  END

$$$$
No_1475-/dssg/home/sw_qyf/PocketFlow/Model-Generation-Results/5HT2A_7WC7_rec_A_10.pdb/2024-01-01-03-54-21/
     RDKit          3D

 35 36  0  0  0  0  0  0  0  0999 V2000
  -24.1553  -17.8465  145.7021 C   0  0  0  0  0  0  0  0  0  0  0  0
  -24.2856  -16.6364  145.3494 C   0  0  0  0  0  0  0  0  0  0  0  0
  -24.7838  -15.7223  145.8474 C   0  0  0  0  0  0  0  0  0  0  0  0
  -25.6062  -15.9757  147.0425 C   0  0  0  0  0  0  0  0  0  0  0  0
  -24.8560  -18.2319  146.8940 C   0  0  0  0  0  0  0  0  0  0  0  0
  -25.5370  -17.2345  147.6143 C   0  0  0  0  0  0  0  0  0  0  0  0
  -24.9260  -14.3151  145.4457 N   0  0  0  0  0  0  0  0  0  0  0  0
  -24.1219  -13.8186  144.5338 C   0  0  0  0  0  0  0  0  0  0  0  0
  -25.7818  -13.3700  146.0671 C   0  0  0  0  0  0  0  0  0  0  0  0
  -26.7287  -12.8217  145.3043 C   0  0  0  0  0  0  0  0  0  0  0  0
  -28.0182  -13.2597  145.2380 C   0  0  0  0  0  0  0  0  0  0  0  0
  -28.8767  -12.4268  145.9452 C   0  0  0  0  0  0  0  0  0  0  0  0
  -29.2173  -11.1048  145.5145 C   0  0  0  0  0  0  0  0  0  0  0  0
  -29.1383  -10.8086  144.2559 C   0  0  0  0  0  0  0  0  0  0  0  0
  -29.1316   -9.4999  143.7265 C   0  0  0  0  0  0  0  0  0  0  0  0
  -30.4495   -8.9087  143.5642 C   0  0  0  0  0  0  0  0  0  0  0  0
  -30.8705   -8.4548  142.2983 C   0  0  0  0  0  0  0  0  0  0  0  0
  -29.7705   -8.5129  141.3271 C   0  0  0  0  0  0  0  0  0  0  0  0
  -29.7023   -7.4350  140.3517 C   0  0  0  0  0  0  0  0  0  0  0  0
  -29.0321   -7.8978  139.1984 C   0  0  0  0  0  0  0  0  0  0  0  0
  -28.1628   -9.0260  139.1681 C   0  0  0  0  0  0  0  0  0  0  0  0
  -28.2346   -9.9200  140.2853 C   0  0  0  0  0  0  0  0  0  0  0  0
  -29.1021   -9.6384  141.3479 C   0  0  0  0  0  0  0  0  0  0  0  0
  -27.4155  -11.1382  140.1800 C   0  0  0  0  0  0  0  0  0  0  0  0
  -27.9770  -12.3560  140.6556 C   0  0  0  0  0  0  0  0  0  0  0  0
  -29.6394  -12.9965  147.1092 C   0  0  0  0  0  0  0  0  0  0  0  0
  -29.8374  -14.3267  147.3662 C   0  0  0  0  0  0  0  0  0  0  0  0
  -30.2612  -12.1033  148.1295 C   0  0  0  0  0  0  0  0  0  0  0  0
  -26.9445  -13.2697  141.2402 C   0  0  0  0  0  0  0  0  0  0  0  0
  -26.1503  -13.9235  140.5002 O   0  0  0  0  0  0  0  0  0  0  0  0
  -32.0951   -8.1258  142.0322 O   0  0  0  0  0  0  0  0  0  0  0  0
  -31.5828  -12.4905  148.5505 C   0  0  0  0  0  0  0  0  0  0  0  0
  -32.3881  -11.4419  149.2196 C   0  0  0  0  0  0  0  0  0  0  0  0
  -33.3111  -11.9150  150.2338 C   0  0  0  0  0  0  0  0  0  0  0  0
  -34.0923  -11.1850  150.5320 O   0  0  0  0  0  0  0  0  0  0  0  0
  3  7  1  0
  7  8  1  0
  7  9  1  0
  9 10  1  0
 10 11  1  0
 11 12  1  0
 12 13  1  0
 13 14  2  3
 14 15  1  0
 15 16  1  0
 16 17  1  0
 17 18  1  0
 22 24  1  0
 24 25  1  0
 12 26  1  0
 26 27  1  0
 26 28  1  0
 25 29  1  0
 29 30  1  0
 17 31  2  0
 28 32  1  0
 32 33  1  0
 33 34  1  0
 34 35  2  0
 18 19  2  0
 19 20  1  0
 20 21  2  0
 21 22  1  0
 22 23  2  0
 23 18  1  0
  1  2  2  0
  2  3  1  0
  3  4  2  0
  4  6  1  0
  6  5  2  0
  5  1  1  0
M  END

$$$$
No_1476-/dssg/home/sw_qyf/PocketFlow/Model-Generation-Results/5HT2A_7WC7_rec_A_10.pdb/2024-01-01-03-54-21/
     RDKit          3D

 19 20  0  0  0  0  0  0  0  0999 V2000
  -24.1553  -17.8465  145.7021 C   0  0  0  0  0  0  0  0  0  0  0  0
  -24.6364  -17.2931  146.7091 C   0  0  0  0  0  0  0  0  0  0  0  0
  -25.8608  -16.5592  146.5934 C   0  0  0  0  0  0  0  0  0  0  0  0
  -26.9933  -16.9082  147.1889 C   0  0  0  0  0  0  0  0  0  0  0  0
  -28.2114  -16.1477  146.9896 C   0  0  0  0  0  0  0  0  0  0  0  0
  -28.1869  -14.8900  146.3591 C   0  0  0  0  0  0  0  0  0  0  0  0
  -26.9306  -14.4696  145.8021 C   0  0  0  0  0  0  0  0  0  0  0  0
  -25.7608  -15.2964  145.9443 C   0  0  0  0  0  0  0  0  0  0  0  0
  -26.8039  -13.1572  145.1459 C   0  0  0  0  0  0  0  0  0  0  0  0
  -26.7401  -13.1612  143.8598 C   0  0  0  0  0  0  0  0  0  0  0  0
  -25.8768  -14.0777  143.1464 C   0  0  0  0  0  0  0  0  0  0  0  0
  -24.0012  -17.5252  148.0355 C   0  0  0  0  0  0  0  0  0  0  0  0
  -22.5889  -17.2385  148.1278 C   0  0  0  0  0  0  0  0  0  0  0  0
  -27.5143  -12.3008  142.9982 C   0  0  0  0  0  0  0  0  0  0  0  0
  -28.2794  -11.2220  143.5621 C   0  0  0  0  0  0  0  0  0  0  0  0
  -29.1790  -10.4387  142.7933 C   0  0  0  0  0  0  0  0  0  0  0  0
  -29.1486  -10.5685  141.4656 C   0  0  0  0  0  0  0  0  0  0  0  0
  -28.2853  -11.4990  140.8579 C   0  0  0  0  0  0  0  0  0  0  0  0
  -27.4755  -12.3560  141.6181 C   0  0  0  0  0  0  0  0  0  0  0  0
  1  2  1  0
  2  3  1  0
  7  9  1  0
  9 10  1  0
 10 11  1  0
  2 12  1  0
 12 13  1  0
 10 14  1  0
 14 15  2  0
 15 16  1  0
 16 17  2  0
 17 18  1  0
 18 19  2  0
 19 14  1  0
  3  4  2  0
  4  5  1  0
  5  6  2  0
  6  7  1  0
  7  8  2  0
  8  3  1  0
M  END

$$$$
No_1477-/dssg/home/sw_qyf/PocketFlow/Model-Generation-Results/5HT2A_7WC7_rec_A_10.pdb/2024-01-01-03-54-21/
     RDKit          3D

 35 39  0  0  0  0  0  0  0  0999 V2000
  -23.1746  -16.6014  144.8668 C   0  0  0  0  0  0  0  0  0  0  0  0
  -23.7011  -17.0158  145.9774 C   0  0  0  0  0  0  0  0  0  0  0  0
  -24.2134  -16.0722  146.8877 C   0  0  0  0  0  0  0  0  0  0  0  0
  -23.3742  -15.2706  144.3922 C   0  0  0  0  0  0  0  0  0  0  0  0
  -24.0445  -14.2973  145.2608 C   0  0  0  0  0  0  0  0  0  0  0  0
  -24.4773  -14.7066  146.5258 C   0  0  0  0  0  0  0  0  0  0  0  0
  -24.1860  -12.6623  144.8030 Cl  0  0  0  0  0  0  0  0  0  0  0  0
  -23.5898  -18.3185  146.4374 N   0  0  0  0  0  0  0  0  0  0  0  0
  -24.1646  -19.2456  146.1362 O   0  0  0  0  0  0  0  0  0  0  0  0
  -24.7273  -16.5276  148.2811 C   0  0  0  0  0  0  0  0  0  0  0  0
  -26.1706  -16.6136  148.4918 C   0  0  0  0  0  0  0  0  0  0  0  0
  -26.5158  -17.1394  149.7540 C   0  0  0  0  0  0  0  0  0  0  0  0
  -25.4538  -17.5738  150.6680 C   0  0  0  0  0  0  0  0  0  0  0  0
  -24.1609  -17.4089  150.3863 C   0  0  0  0  0  0  0  0  0  0  0  0
  -23.7511  -16.9959  149.1714 C   0  0  0  0  0  0  0  0  0  0  0  0
  -27.1477  -16.2171  147.6142 C   0  0  0  0  0  0  0  0  0  0  0  0
  -28.1047  -16.6251  147.1521 C   0  0  0  0  0  0  0  0  0  0  0  0
  -29.0670  -15.9700  146.2982 C   0  0  0  0  0  0  0  0  0  0  0  0
  -28.8034  -14.5522  146.2726 C   0  0  0  0  0  0  0  0  0  0  0  0
  -27.7142  -13.9187  146.7806 C   0  0  0  0  0  0  0  0  0  0  0  0
  -26.9244  -14.6642  147.5428 C   0  0  0  0  0  0  0  0  0  0  0  0
  -27.7533  -12.4877  146.5847 C   0  0  0  0  0  0  0  0  0  0  0  0
  -27.5814  -12.0220  145.4068 N   0  0  0  0  0  0  0  0  0  0  0  0
  -26.5960  -11.8941  144.7026 C   0  0  0  0  0  0  0  0  0  0  0  0
  -26.8386  -10.8917  143.6075 C   0  0  0  0  0  0  0  0  0  0  0  0
  -28.2537  -10.7511  143.4321 C   0  0  0  0  0  0  0  0  0  0  0  0
  -28.7600  -11.3089  144.7711 C   0  0  0  0  0  0  0  0  0  0  0  0
  -28.9489  -10.1477  142.4843 C   0  0  0  0  0  0  0  0  0  0  0  0
  -30.1196   -9.4082  142.6496 C   0  0  0  0  0  0  0  0  0  0  0  0
  -30.3602   -8.1768  142.0168 C   0  0  0  0  0  0  0  0  0  0  0  0
  -29.6452   -7.8659  140.8548 C   0  0  0  0  0  0  0  0  0  0  0  0
  -28.6440   -8.7708  140.4167 C   0  0  0  0  0  0  0  0  0  0  0  0
  -28.2345   -9.8106  141.3119 C   0  0  0  0  0  0  0  0  0  0  0  0
  -27.9381   -8.5142  139.1888 C   0  0  0  0  0  0  0  0  0  0  0  0
  -28.1834   -7.4350  138.6331 F   0  0  0  0  0  0  0  0  0  0  0  0
  5  7  1  0
  2  8  1  0
  8  9  2  0
  3 10  1  0
 11 16  1  0
 20 22  1  0
 22 23  1  0
 23 24  1  0
 24 25  2  0
 25 26  1  0
 23 27  1  0
 26 27  1  0
 26 28  1  0
 32 34  1  0
 34 35  1  0
 28 29  2  0
 29 30  1  0
 30 31  2  0
 31 32  1  0
 32 33  2  0
 33 28  1  0
  1  2  2  0
  2  3  1  0
  3  6  2  0
  6  5  1  0
  5  4  2  0
  4  1  1  0
 10 11  1  0
 11 12  2  0
 12 13  1  0
 13 14  2  0
 14 15  1  0
 15 10  2  0
 16 17  2  0
 17 18  1  0
 18 19  2  0
 19 20  1  0
 20 21  2  0
 21 16  1  0
M  END

$$$$
No_1478-/dssg/home/sw_qyf/PocketFlow/Model-Generation-Results/5HT2A_7WC7_rec_A_10.pdb/2024-01-01-03-54-21/
     RDKit          3D

  6  6  0  0  0  0  0  0  0  0999 V2000
  -23.1746  -16.6014  144.8668 C   0  0  0  0  0  0  0  0  0  0  0  0
  -23.7011  -17.0158  145.9774 C   0  0  0  0  0  0  0  0  0  0  0  0
  -24.7095  -16.6222  146.3578 C   0  0  0  0  0  0  0  0  0  0  0  0
  -25.4819  -15.5594  145.8227 C   0  0  0  0  0  0  0  0  0  0  0  0
  -24.9840  -15.0029  144.6879 C   0  0  0  0  0  0  0  0  0  0  0  0
  -23.7823  -15.5257  144.1978 C   0  0  0  0  0  0  0  0  0  0  0  0
  1  2  2  0
  2  3  1  0
  3  4  2  0
  4  5  1  0
  5  6  2  0
  6  1  1  0
M  END

$$$$
No_1479-/dssg/home/sw_qyf/PocketFlow/Model-Generation-Results/5HT2A_7WC7_rec_A_10.pdb/2024-01-01-03-54-21/
     RDKit          3D

 35 37  0  0  0  0  0  0  0  0999 V2000
  -23.1746  -16.6014  144.8668 C   0  0  0  0  0  0  0  0  0  0  0  0
  -24.0189  -16.0564  145.8445 C   0  0  0  0  0  0  0  0  0  0  0  0
  -24.4850  -14.7380  145.6359 C   0  0  0  0  0  0  0  0  0  0  0  0
  -25.2717  -14.0560  146.5949 C   0  0  0  0  0  0  0  0  0  0  0  0
  -25.5669  -12.6700  146.4456 C   0  0  0  0  0  0  0  0  0  0  0  0
  -25.1774  -11.9727  145.2644 C   0  0  0  0  0  0  0  0  0  0  0  0
  -24.2583  -12.6444  144.4323 C   0  0  0  0  0  0  0  0  0  0  0  0
  -23.9746  -14.0153  144.6649 C   0  0  0  0  0  0  0  0  0  0  0  0
  -25.1329  -17.0481  146.2507 C   0  0  0  0  0  0  0  0  0  0  0  0
  -24.7476  -18.2750  146.8112 C   0  0  0  0  0  0  0  0  0  0  0  0
  -23.7680  -18.9618  146.0814 C   0  0  0  0  0  0  0  0  0  0  0  0
  -22.7091  -18.1252  145.3502 C   0  0  0  0  0  0  0  0  0  0  0  0
  -25.4670  -10.6990  145.1560 O   0  0  0  0  0  0  0  0  0  0  0  0
  -26.2605  -10.4011  144.0667 C   0  0  0  0  0  0  0  0  0  0  0  0
  -27.5185   -9.8440  144.5821 C   0  0  0  0  0  0  0  0  0  0  0  0
  -28.7217  -10.4090  144.0212 C   0  0  0  0  0  0  0  0  0  0  0  0
  -28.7840  -11.4462  143.5815 C   0  0  0  0  0  0  0  0  0  0  0  0
  -29.8587   -9.4282  143.9907 C   0  0  0  0  0  0  0  0  0  0  0  0
  -30.6149   -9.1655  144.7572 C   0  0  0  0  0  0  0  0  0  0  0  0
  -30.2083   -9.0416  142.5429 C   0  0  0  0  0  0  0  0  0  0  0  0
  -31.1406   -8.0782  142.3269 C   0  0  0  0  0  0  0  0  0  0  0  0
  -28.9651   -8.7344  141.6895 C   0  0  0  0  0  0  0  0  0  0  0  0
  -29.0522   -8.7998  140.2413 C   0  0  0  0  0  0  0  0  0  0  0  0
  -28.0924   -9.3590  139.4821 C   0  0  0  0  0  0  0  0  0  0  0  0
  -28.1035   -9.1669  138.1520 C   0  0  0  0  0  0  0  0  0  0  0  0
  -28.9605   -8.1267  137.5703 C   0  0  0  0  0  0  0  0  0  0  0  0
  -29.8243   -7.4953  138.4945 C   0  0  0  0  0  0  0  0  0  0  0  0
  -29.8106   -7.6977  139.7960 C   0  0  0  0  0  0  0  0  0  0  0  0
  -27.1693  -10.4058  140.0359 C   0  0  0  0  0  0  0  0  0  0  0  0
  -26.2037  -10.7580  139.4250 O   0  0  0  0  0  0  0  0  0  0  0  0
  -26.2049  -17.1743  145.2065 C   0  0  0  0  0  0  0  0  0  0  0  0
  -27.4411  -16.4655  146.0935 C   0  0  0  0  0  0  0  0  0  0  0  0
  -28.3093  -16.7961  146.5757 C   0  0  0  0  0  0  0  0  0  0  0  0
  -29.3681  -15.9596  147.1555 C   0  0  0  0  0  0  0  0  0  0  0  0
  -29.1948  -14.5359  146.9432 C   0  0  0  0  0  0  0  0  0  0  0  0
  2  3  1  0
  6 13  1  0
 13 14  1  0
 14 15  1  0
 15 16  1  0
 16 17  2  0
 16 18  1  0
 18 19  1  0
 18 20  1  0
 20 21  1  0
 20 22  1  0
 22 23  1  0
 24 29  1  0
 29 30  1  0
  9 31  1  0
 31 32  1  0
 32 33  2  3
 33 34  1  0
 34 35  2  0
  1  2  2  0
  2  9  1  0
  9 10  2  0
 10 11  1  0
 11 12  2  0
 12  1  1  0
 23 24  2  0
 24 25  1  0
 25 26  2  0
 26 27  1  0
 27 28  2  0
 28 23  1  0
  3  4  2  0
  4  5  1  0
  5  6  2  0
  6  7  1  0
  7  8  2  0
  8  3  1  0
M  END

$$$$
No_1480-/dssg/home/sw_qyf/PocketFlow/Model-Generation-Results/5HT2A_7WC7_rec_A_10.pdb/2024-01-01-03-54-21/
     RDKit          3D

 10  9  0  0  0  0  0  0  0  0999 V2000
  -23.1746  -16.6014  144.8668 C   0  0  0  0  0  0  0  0  0  0  0  0
  -24.0189  -16.0564  145.8445 C   0  0  0  0  0  0  0  0  0  0  0  0
  -24.4850  -14.7380  145.6359 C   0  0  0  0  0  0  0  0  0  0  0  0
  -25.2717  -14.0560  146.5949 C   0  0  0  0  0  0  0  0  0  0  0  0
  -25.5669  -12.6700  146.4456 C   0  0  0  0  0  0  0  0  0  0  0  0
  -26.8021  -12.1600  146.1704 C   0  0  0  0  0  0  0  0  0  0  0  0
  -27.9641  -12.8311  146.3625 C   0  0  0  0  0  0  0  0  0  0  0  0
  -29.2105  -12.2125  146.2023 C   0  0  0  0  0  0  0  0  0  0  0  0
  -29.3113  -11.1114  145.3464 C   0  0  0  0  0  0  0  0  0  0  0  0
  -28.0752  -10.4956  144.8615 C   0  0  0  0  0  0  0  0  0  0  0  0
  1  2  1  0
  2  3  1  0
  3  4  1  0
  4  5  1  0
  5  6  2  3
  6  7  1  0
  7  8  1  0
  8  9  2  3
  9 10  1  0
M  END

$$$$
No_1481-/dssg/home/sw_qyf/PocketFlow/Model-Generation-Results/5HT2A_7WC7_rec_A_10.pdb/2024-01-01-03-54-21/
     RDKit          3D

 34 38  0  0  0  0  0  0  0  0999 V2000
  -24.1553  -17.8465  145.7021 C   0  0  0  0  0  0  0  0  0  0  0  0
  -23.9795  -18.4462  146.7426 C   0  0  0  0  0  0  0  0  0  0  0  0
  -25.1196  -16.8106  145.6409 C   0  0  0  0  0  0  0  0  0  0  0  0
  -25.9236  -16.5070  146.7422 C   0  0  0  0  0  0  0  0  0  0  0  0
  -25.6173  -17.2153  147.9099 C   0  0  0  0  0  0  0  0  0  0  0  0
  -24.6179  -18.1473  147.9620 C   0  0  0  0  0  0  0  0  0  0  0  0
  -26.9636  -15.4823  146.6618 C   0  0  0  0  0  0  0  0  0  0  0  0
  -28.1934  -15.6518  147.2415 C   0  0  0  0  0  0  0  0  0  0  0  0
  -29.1683  -14.6637  147.1886 C   0  0  0  0  0  0  0  0  0  0  0  0
  -28.8996  -13.4261  146.6411 C   0  0  0  0  0  0  0  0  0  0  0  0
  -27.6059  -13.1467  146.1052 C   0  0  0  0  0  0  0  0  0  0  0  0
  -26.6444  -14.1462  146.1410 C   0  0  0  0  0  0  0  0  0  0  0  0
  -27.3057  -11.8133  145.5459 C   0  0  0  0  0  0  0  0  0  0  0  0
  -25.9660  -11.4888  145.4401 C   0  0  0  0  0  0  0  0  0  0  0  0
  -25.5983  -10.2248  144.9230 C   0  0  0  0  0  0  0  0  0  0  0  0
  -26.6526   -9.4452  144.3476 C   0  0  0  0  0  0  0  0  0  0  0  0
  -27.9677   -9.8665  144.4128 C   0  0  0  0  0  0  0  0  0  0  0  0
  -28.3091  -11.0937  145.0582 C   0  0  0  0  0  0  0  0  0  0  0  0
  -28.9735   -9.0683  143.8609 N   0  0  0  0  0  0  0  0  0  0  0  0
  -30.2632   -9.3955  143.9112 C   0  0  0  0  0  0  0  0  0  0  0  0
  -30.9357  -10.0529  143.5610 C   0  0  0  0  0  0  0  0  0  0  0  0
  -30.3878  -10.6957  142.2767 C   0  0  0  0  0  0  0  0  0  0  0  0
  -29.4167   -9.8361  141.6238 C   0  0  0  0  0  0  0  0  0  0  0  0
  -28.4992  -10.4625  140.5914 C   0  0  0  0  0  0  0  0  0  0  0  0
  -27.8968   -9.7095  139.6417 C   0  0  0  0  0  0  0  0  0  0  0  0
  -28.2789   -8.3128  139.4907 C   0  0  0  0  0  0  0  0  0  0  0  0
  -29.2274   -7.7576  140.4494 C   0  0  0  0  0  0  0  0  0  0  0  0
  -29.8275   -8.5124  141.3576 C   0  0  0  0  0  0  0  0  0  0  0  0
  -28.0742  -11.8379  140.7797 C   0  0  0  0  0  0  0  0  0  0  0  0
  -27.2759  -12.4685  140.2722 C   0  0  0  0  0  0  0  0  0  0  0  0
  -26.7089  -12.0085  139.0130 C   0  0  0  0  0  0  0  0  0  0  0  0
  -26.9956  -10.5513  138.8152 C   0  0  0  0  0  0  0  0  0  0  0  0
  -25.8791  -12.5593  138.3464 O   0  0  0  0  0  0  0  0  0  0  0  0
  -26.2852  -16.8626  149.0668 O   0  0  0  0  0  0  0  0  0  0  0  0
  4  7  1  0
 11 13  1  0
 17 19  1  0
 19 20  1  0
 20 21  2  3
 21 22  1  0
 22 23  1  0
 31 33  1  0
  5 34  1  0
 23 24  2  0
 25 26  2  0
 26 27  1  0
 27 28  2  0
 28 23  1  0
  7  8  2  0
  8  9  1  0
  9 10  2  0
 10 11  1  0
 11 12  2  0
 12  7  1  0
  1  2  2  0
  2  6  1  0
  6  5  2  0
  5  4  1  0
  4  3  2  0
  3  1  1  0
 13 14  2  0
 14 15  1  0
 15 16  2  0
 16 17  1  0
 17 18  2  0
 18 13  1  0
 24 25  1  0
 25 32  1  0
 32 31  2  0
 31 30  1  0
 30 29  2  0
 29 24  1  0
M  END

$$$$
No_1482-/dssg/home/sw_qyf/PocketFlow/Model-Generation-Results/5HT2A_7WC7_rec_A_10.pdb/2024-01-01-03-54-21/
     RDKit          3D

 35 38  0  0  0  0  0  0  0  0999 V2000
  -24.1553  -17.8465  145.7021 C   0  0  0  0  0  0  0  0  0  0  0  0
  -23.9795  -18.4462  146.7426 C   0  0  0  0  0  0  0  0  0  0  0  0
  -25.1593  -16.8262  145.6925 C   0  0  0  0  0  0  0  0  0  0  0  0
  -25.3302  -15.8818  144.5925 C   0  0  0  0  0  0  0  0  0  0  0  0
  -24.4570  -18.1009  148.0274 C   0  0  0  0  0  0  0  0  0  0  0  0
  -25.3496  -17.0286  148.1023 C   0  0  0  0  0  0  0  0  0  0  0  0
  -25.5669  -16.2449  146.9641 C   0  0  0  0  0  0  0  0  0  0  0  0
  -26.3741  -14.9288  144.6496 C   0  0  0  0  0  0  0  0  0  0  0  0
  -26.1287  -13.7482  145.0260 C   0  0  0  0  0  0  0  0  0  0  0  0
  -26.6973  -12.9096  145.6151 C   0  0  0  0  0  0  0  0  0  0  0  0
  -27.0155  -11.6834  145.4594 C   0  0  0  0  0  0  0  0  0  0  0  0
  -26.0610  -10.9017  144.6542 C   0  0  0  0  0  0  0  0  0  0  0  0
  -25.0297  -11.1687  144.7469 C   0  0  0  0  0  0  0  0  0  0  0  0
  -24.9383  -13.0181  144.2365 C   0  0  0  0  0  0  0  0  0  0  0  0
  -25.9532  -16.6352  149.2918 N   0  0  0  0  0  0  0  0  0  0  0  0
  -28.1829  -11.0543  145.9977 N   0  0  0  0  0  0  0  0  0  0  0  0
  -29.2091  -11.6797  146.5874 C   0  0  0  0  0  0  0  0  0  0  0  0
  -30.4104  -10.9399  146.8504 C   0  0  0  0  0  0  0  0  0  0  0  0
  -29.3532  -12.9648  146.5411 O   0  0  0  0  0  0  0  0  0  0  0  0
  -23.9467  -13.4679  143.7777 O   0  0  0  0  0  0  0  0  0  0  0  0
  -23.7596  -18.2456  144.5514 O   0  0  0  0  0  0  0  0  0  0  0  0
  -27.2671  -16.7361  149.4301 C   0  0  0  0  0  0  0  0  0  0  0  0
  -28.0710  -16.0059  148.6313 C   0  0  0  0  0  0  0  0  0  0  0  0
  -27.8150  -15.5801  147.3649 C   0  0  0  0  0  0  0  0  0  0  0  0
  -26.7028  -15.9292  146.6040 C   0  0  0  0  0  0  0  0  0  0  0  0
  -27.2607  -15.8941  145.2097 C   0  0  0  0  0  0  0  0  0  0  0  0
  -25.0276  -16.5546  150.4021 C   0  0  0  0  0  0  0  0  0  0  0  0
  -30.8486  -10.1308  146.1237 O   0  0  0  0  0  0  0  0  0  0  0  0
  -31.0563  -11.3751  147.9868 O   0  0  0  0  0  0  0  0  0  0  0  0
  -30.4907  -12.2420  148.8878 C   0  0  0  0  0  0  0  0  0  0  0  0
  -31.3517  -13.5547  149.0214 C   0  0  0  0  0  0  0  0  0  0  0  0
  -32.2196  -13.3666  150.2278 C   0  0  0  0  0  0  0  0  0  0  0  0
  -33.1378  -12.3980  150.2851 C   0  0  0  0  0  0  0  0  0  0  0  0
  -33.3064  -11.4582  149.2442 C   0  0  0  0  0  0  0  0  0  0  0  0
  -32.0284  -14.4284  151.2456 C   0  0  0  0  0  0  0  0  0  0  0  0
  3  4  1  0
  4  8  1  0
  8  9  1  0
  6 15  1  0
 11 16  1  0
 16 17  1  0
 17 18  1  0
 17 19  2  0
 14 20  1  0
  1 21  1  0
 15 22  1  0
 22 23  2  0
 23 24  1  0
  7 25  1  0
 24 25  2  0
  8 26  1  0
 25 26  1  0
 15 27  1  0
 18 28  1  0
 18 29  1  0
 29 30  1  0
 30 31  1  0
 31 32  1  0
 32 33  2  3
 33 34  1  0
 32 35  1  0
  9 10  2  0
 10 11  1  0
 11 12  2  0
 12 13  1  0
 13 14  2  0
 14  9  1  0
  1  2  2  0
  2  5  1  0
  5  6  2  0
  6  7  1  0
  7  3  2  0
  3  1  1  0
M  END

$$$$
No_1483-/dssg/home/sw_qyf/PocketFlow/Model-Generation-Results/5HT2A_7WC7_rec_A_10.pdb/2024-01-01-03-54-21/
     RDKit          3D

 35 39  0  0  0  0  0  0  0  0999 V2000
  -24.1553  -17.8465  145.7021 C   0  0  0  0  0  0  0  0  0  0  0  0
  -23.9795  -18.4462  146.7426 C   0  0  0  0  0  0  0  0  0  0  0  0
  -25.1593  -16.8262  145.6925 C   0  0  0  0  0  0  0  0  0  0  0  0
  -25.3302  -15.8818  144.5925 C   0  0  0  0  0  0  0  0  0  0  0  0
  -24.4570  -18.1009  148.0274 C   0  0  0  0  0  0  0  0  0  0  0  0
  -25.3496  -17.0286  148.1023 C   0  0  0  0  0  0  0  0  0  0  0  0
  -25.5669  -16.2449  146.9641 C   0  0  0  0  0  0  0  0  0  0  0  0
  -26.3741  -14.9288  144.6496 C   0  0  0  0  0  0  0  0  0  0  0  0
  -26.4786  -13.8189  143.7853 C   0  0  0  0  0  0  0  0  0  0  0  0
  -26.4025  -14.0632  142.4225 C   0  0  0  0  0  0  0  0  0  0  0  0
  -27.1788  -13.2000  141.4763 C   0  0  0  0  0  0  0  0  0  0  0  0
  -27.2603  -13.5031  140.1526 C   0  0  0  0  0  0  0  0  0  0  0  0
  -27.9162  -12.4316  139.3885 C   0  0  0  0  0  0  0  0  0  0  0  0
  -28.3433  -11.2420  140.0475 C   0  0  0  0  0  0  0  0  0  0  0  0
  -28.2323  -11.0444  141.4345 C   0  0  0  0  0  0  0  0  0  0  0  0
  -27.5839  -12.0285  142.1776 C   0  0  0  0  0  0  0  0  0  0  0  0
  -28.8318   -9.8087  141.9625 C   0  0  0  0  0  0  0  0  0  0  0  0
  -29.2860   -8.7201  141.3208 C   0  0  0  0  0  0  0  0  0  0  0  0
  -29.8912   -7.6487  142.0771 C   0  0  0  0  0  0  0  0  0  0  0  0
  -30.4798   -7.9212  143.2751 C   0  0  0  0  0  0  0  0  0  0  0  0
  -30.2971   -9.1252  143.9296 C   0  0  0  0  0  0  0  0  0  0  0  0
  -29.5675  -10.1435  143.3187 C   0  0  0  0  0  0  0  0  0  0  0  0
  -26.4658  -15.1454  146.9514 C   0  0  0  0  0  0  0  0  0  0  0  0
  -26.8003  -14.3216  146.0089 C   0  0  0  0  0  0  0  0  0  0  0  0
  -27.5436  -13.1622  145.9565 C   0  0  0  0  0  0  0  0  0  0  0  0
  -28.1293  -12.4807  147.0165 C   0  0  0  0  0  0  0  0  0  0  0  0
  -27.4110  -12.6868  144.5015 C   0  0  0  0  0  0  0  0  0  0  0  0
  -29.3146  -11.6412  146.5335 C   0  0  0  0  0  0  0  0  0  0  0  0
  -30.4248  -11.6867  147.3474 O   0  0  0  0  0  0  0  0  0  0  0  0
  -28.7637   -8.3094  140.0453 C   0  0  0  0  0  0  0  0  0  0  0  0
  -27.8417   -8.7241  139.2141 C   0  0  0  0  0  0  0  0  0  0  0  0
  -29.6124   -7.2200  139.4401 C   0  0  0  0  0  0  0  0  0  0  0  0
  -27.6132   -8.2104  137.9480 C   0  0  0  0  0  0  0  0  0  0  0  0
  -25.9793  -16.7520  149.2677 O   0  0  0  0  0  0  0  0  0  0  0  0
  -30.2259  -12.3703  148.4616 C   0  0  0  0  0  0  0  0  0  0  0  0
  1  2  1  0
  3  4  1  0
  5  6  1  0
  3  7  1  0
  6  7  1  0
  4  8  1  0
  8  9  1  0
  9 10  1  0
 15 17  1  0
  7 23  1  0
  8 24  1  0
 23 24  1  0
 24 25  1  0
 25 26  1  0
  9 27  1  0
 25 27  1  0
 26 28  1  0
 28 29  1  0
 18 30  1  0
 30 31  2  3
 30 32  1  0
 31 33  1  0
  6 34  2  0
 29 35  1  0
 10 11  1  0
  5  2  1  0
  1  3  1  0
 17 18  2  0
 18 19  1  0
 19 20  2  0
 20 21  1  0
 21 22  2  0
 22 17  1  0
 11 12  2  0
 12 13  1  0
 13 14  2  0
 14 15  1  0
 15 16  2  0
 16 11  1  0
M  END

$$$$
No_1484-/dssg/home/sw_qyf/PocketFlow/Model-Generation-Results/5HT2A_7WC7_rec_A_10.pdb/2024-01-01-03-54-21/
     RDKit          3D

 23 25  0  0  0  0  0  0  0  0999 V2000
  -23.1746  -16.6014  144.8668 C   0  0  0  0  0  0  0  0  0  0  0  0
  -23.6940  -15.6412  144.6033 N   0  0  0  0  0  0  0  0  0  0  0  0
  -24.4369  -14.8700  145.4473 C   0  0  0  0  0  0  0  0  0  0  0  0
  -24.8203  -15.5268  146.5496 C   0  0  0  0  0  0  0  0  0  0  0  0
  -23.5943  -17.3923  145.9529 N   0  0  0  0  0  0  0  0  0  0  0  0
  -24.3238  -16.7945  146.8879 C   0  0  0  0  0  0  0  0  0  0  0  0
  -24.8412  -13.4783  145.1842 C   0  0  0  0  0  0  0  0  0  0  0  0
  -23.9359  -12.4831  145.5335 C   0  0  0  0  0  0  0  0  0  0  0  0
  -26.0028  -13.2329  144.5130 C   0  0  0  0  0  0  0  0  0  0  0  0
  -26.7554  -12.1230  144.9803 C   0  0  0  0  0  0  0  0  0  0  0  0
  -27.8628  -11.7186  144.5193 C   0  0  0  0  0  0  0  0  0  0  0  0
  -28.9921  -11.3942  145.2642 C   0  0  0  0  0  0  0  0  0  0  0  0
  -29.2295  -11.9776  146.4071 C   0  0  0  0  0  0  0  0  0  0  0  0
  -30.4675  -12.0038  147.1548 C   0  0  0  0  0  0  0  0  0  0  0  0
  -30.5569  -12.8544  148.3217 C   0  0  0  0  0  0  0  0  0  0  0  0
  -29.6299  -13.9321  148.4211 C   0  0  0  0  0  0  0  0  0  0  0  0
  -28.5116  -14.0355  147.5853 C   0  0  0  0  0  0  0  0  0  0  0  0
  -28.3166  -13.1233  146.6165 C   0  0  0  0  0  0  0  0  0  0  0  0
  -24.6431  -17.5177  148.1562 C   0  0  0  0  0  0  0  0  0  0  0  0
  -23.8403  -17.0888  149.3838 C   0  0  0  0  0  0  0  0  0  0  0  0
  -24.4576  -11.1867  145.6103 N   0  0  0  0  0  0  0  0  0  0  0  0
  -25.8331  -11.0085  145.2615 C   0  0  0  0  0  0  0  0  0  0  0  0
  -24.3383  -17.1630  150.6406 C   0  0  0  0  0  0  0  0  0  0  0  0
  3  7  1  0
 10 11  1  0
 11 12  2  3
 12 13  1  0
  6 19  1  0
 19 20  1  0
 20 23  2  0
  7  8  2  0
  8 21  1  0
 21 22  2  0
 22 10  1  0
 10  9  2  0
  9  7  1  0
 13 14  2  0
 14 15  1  0
 15 16  2  0
 16 17  1  0
 17 18  2  0
 18 13  1  0
  1  2  2  0
  2  3  1  0
  3  4  2  0
  4  6  1  0
  6  5  2  0
  5  1  1  0
M  END

$$$$
No_1485-/dssg/home/sw_qyf/PocketFlow/Model-Generation-Results/5HT2A_7WC7_rec_A_10.pdb/2024-01-01-03-54-21/
     RDKit          3D

 25 26  0  0  0  0  0  0  0  0999 V2000
  -24.1553  -17.8465  145.7021 C   0  0  0  0  0  0  0  0  0  0  0  0
  -23.9795  -18.4462  146.7426 C   0  0  0  0  0  0  0  0  0  0  0  0
  -24.2723  -16.4220  145.8037 C   0  0  0  0  0  0  0  0  0  0  0  0
  -24.9934  -15.8373  146.8363 C   0  0  0  0  0  0  0  0  0  0  0  0
  -24.4240  -17.9698  148.0343 C   0  0  0  0  0  0  0  0  0  0  0  0
  -24.7712  -16.6380  148.1358 C   0  0  0  0  0  0  0  0  0  0  0  0
  -24.2867  -15.6123  144.5523 C   0  0  0  0  0  0  0  0  0  0  0  0
  -25.2116  -14.4672  144.4777 C   0  0  0  0  0  0  0  0  0  0  0  0
  -24.6591  -13.3505  144.1064 C   0  0  0  0  0  0  0  0  0  0  0  0
  -24.2902  -12.4650  145.2374 C   0  0  0  0  0  0  0  0  0  0  0  0
  -25.0205  -12.6097  146.3661 C   0  0  0  0  0  0  0  0  0  0  0  0
  -24.9696  -11.4887  147.2949 C   0  0  0  0  0  0  0  0  0  0  0  0
  -23.3044  -15.8278  143.8058 O   0  0  0  0  0  0  0  0  0  0  0  0
  -26.6041  -14.7993  144.4281 C   0  0  0  0  0  0  0  0  0  0  0  0
  -24.0206  -11.1773  144.8121 O   0  0  0  0  0  0  0  0  0  0  0  0
  -25.6232  -10.4196  146.5453 O   0  0  0  0  0  0  0  0  0  0  0  0
  -25.3985  -10.5725  145.1641 C   0  0  0  0  0  0  0  0  0  0  0  0
  -25.6266   -9.1629  144.5234 C   0  0  0  0  0  0  0  0  0  0  0  0
  -27.0523   -9.0540  144.0732 C   0  0  0  0  0  0  0  0  0  0  0  0
  -27.4751   -8.7443  142.9018 C   0  0  0  0  0  0  0  0  0  0  0  0
  -28.9393   -8.5546  142.6962 C   0  0  0  0  0  0  0  0  0  0  0  0
  -29.4204   -7.4544  142.0835 C   0  0  0  0  0  0  0  0  0  0  0  0
  -30.7339   -7.3623  141.5485 C   0  0  0  0  0  0  0  0  0  0  0  0
  -31.6117   -8.4744  142.1170 C   0  0  0  0  0  0  0  0  0  0  0  0
  -31.1668   -9.5211  142.7594 C   0  0  0  0  0  0  0  0  0  0  0  0
  3  7  1  0
  7  8  1  0
  8  9  1  0
  9 10  1  0
 10 11  1  0
 11 12  1  0
  7 13  2  0
  8 14  1  0
 10 15  1  0
 12 16  1  0
 15 17  1  0
 16 17  1  0
 17 18  1  0
 18 19  1  0
 19 20  1  0
 20 21  2  3
 21 22  1  0
 22 23  2  3
 23 24  1  0
 24 25  2  0
  1  2  2  0
  2  5  1  0
  5  6  2  0
  6  4  1  0
  4  3  2  0
  3  1  1  0
M  END

$$$$
No_1486-/dssg/home/sw_qyf/PocketFlow/Model-Generation-Results/5HT2A_7WC7_rec_A_10.pdb/2024-01-01-03-54-21/
     RDKit          3D

 12 12  0  0  0  0  0  0  0  0999 V2000
  -24.0934  -18.1020  145.4883 Cl  0  0  0  0  0  0  0  0  0  0  0  0
  -24.1957  -16.5069  145.7546 C   0  0  0  0  0  0  0  0  0  0  0  0
  -24.0968  -15.6360  144.6517 C   0  0  0  0  0  0  0  0  0  0  0  0
  -24.0211  -14.2354  144.8988 C   0  0  0  0  0  0  0  0  0  0  0  0
  -23.3841  -13.3615  143.9891 C   0  0  0  0  0  0  0  0  0  0  0  0
  -24.5398  -15.9518  147.0985 C   0  0  0  0  0  0  0  0  0  0  0  0
  -24.5678  -14.5600  147.2952 C   0  0  0  0  0  0  0  0  0  0  0  0
  -24.2029  -13.6777  146.2878 C   0  0  0  0  0  0  0  0  0  0  0  0
  -24.8187  -16.9180  148.1863 C   0  0  0  0  0  0  0  0  0  0  0  0
  -23.7180  -17.4183  148.9244 C   0  0  0  0  0  0  0  0  0  0  0  0
  -23.2372  -16.5484  150.0402 C   0  0  0  0  0  0  0  0  0  0  0  0
  -22.6222  -13.7482  143.3508 O   0  0  0  0  0  0  0  0  0  0  0  0
  1  2  1  0
  6  9  1  0
  9 10  1  0
 10 11  1  0
  5 12  2  0
  5  4  1  0
  2  3  2  0
  3  4  1  0
  4  8  2  0
  8  7  1  0
  7  6  2  0
  6  2  1  0
M  END

$$$$
No_1487-/dssg/home/sw_qyf/PocketFlow/Model-Generation-Results/5HT2A_7WC7_rec_A_10.pdb/2024-01-01-03-54-21/
     RDKit          3D

 22 24  0  0  0  0  0  0  0  0999 V2000
  -23.8998  -17.8495  145.5131 N   0  0  0  0  0  0  0  0  0  0  0  0
  -24.1393  -18.2577  146.6176 C   0  0  0  0  0  0  0  0  0  0  0  0
  -24.3812  -16.7191  145.0677 C   0  0  0  0  0  0  0  0  0  0  0  0
  -23.7267  -15.8804  144.2014 C   0  0  0  0  0  0  0  0  0  0  0  0
  -24.2592  -14.4898  144.0042 C   0  0  0  0  0  0  0  0  0  0  0  0
  -24.9423  -17.6506  147.4829 N   0  0  0  0  0  0  0  0  0  0  0  0
  -24.7585  -13.9652  145.2649 C   0  0  0  0  0  0  0  0  0  0  0  0
  -25.1677  -12.5677  145.2779 C   0  0  0  0  0  0  0  0  0  0  0  0
  -26.4729  -12.2025  144.9659 C   0  0  0  0  0  0  0  0  0  0  0  0
  -27.3297  -12.4239  145.9649 C   0  0  0  0  0  0  0  0  0  0  0  0
  -28.4013  -11.7563  146.1693 C   0  0  0  0  0  0  0  0  0  0  0  0
  -28.8787  -10.8372  145.2128 C   0  0  0  0  0  0  0  0  0  0  0  0
  -30.1648  -10.2283  145.2727 C   0  0  0  0  0  0  0  0  0  0  0  0
  -30.5445   -9.3661  144.2758 C   0  0  0  0  0  0  0  0  0  0  0  0
  -31.7102   -8.8686  144.1183 C   0  0  0  0  0  0  0  0  0  0  0  0
  -25.4690  -16.4689  147.2131 C   0  0  0  0  0  0  0  0  0  0  0  0
  -25.1138  -15.8346  146.0287 N   0  0  0  0  0  0  0  0  0  0  0  0
  -25.3382  -14.5339  145.9600 C   0  0  0  0  0  0  0  0  0  0  0  0
  -31.9810   -7.9727  142.9738 C   0  0  0  0  0  0  0  0  0  0  0  0
  -26.9178  -13.7983  146.6484 C   0  0  0  0  0  0  0  0  0  0  0  0
  -30.8746   -7.8169  141.9968 C   0  0  0  0  0  0  0  0  0  0  0  0
  -29.6558   -8.4024  142.2352 C   0  0  0  0  0  0  0  0  0  0  0  0
  1  2  1  0
  1  3  1  0
  3  4  1  0
  2  6  1  0
  5  7  1  0
  7  8  1  0
  8  9  1  0
  9 10  1  0
 10 11  2  3
 11 12  1  0
 12 13  1  0
 13 14  2  3
 14 15  1  0
  6 16  1  0
  3 17  1  0
 16 17  1  0
  7 18  1  0
 17 18  1  0
 15 19  2  3
 10 20  1  0
 18 20  1  0
 19 21  1  0
 21 22  2  0
  4  5  1  0
M  END

$$$$
No_1488-/dssg/home/sw_qyf/PocketFlow/Model-Generation-Results/5HT2A_7WC7_rec_A_10.pdb/2024-01-01-03-54-21/
     RDKit          3D

  7  7  0  0  0  0  0  0  0  0999 V2000
  -24.1553  -17.8465  145.7021 C   0  0  0  0  0  0  0  0  0  0  0  0
  -24.2856  -16.6364  145.3494 C   0  0  0  0  0  0  0  0  0  0  0  0
  -25.0033  -15.6772  146.0737 C   0  0  0  0  0  0  0  0  0  0  0  0
  -25.6964  -16.1810  147.2049 C   0  0  0  0  0  0  0  0  0  0  0  0
  -24.8143  -18.3454  146.8324 C   0  0  0  0  0  0  0  0  0  0  0  0
  -25.5292  -17.4614  147.6373 C   0  0  0  0  0  0  0  0  0  0  0  0
  -23.7221  -15.8595  144.2449 N   0  0  0  0  0  0  0  0  0  0  0  0
  2  7  1  0
  1  2  2  0
  2  3  1  0
  3  4  2  0
  4  6  1  0
  6  5  2  0
  5  1  1  0
M  END

$$$$
No_1489-/dssg/home/sw_qyf/PocketFlow/Model-Generation-Results/5HT2A_7WC7_rec_A_10.pdb/2024-01-01-03-54-21/
     RDKit          3D

 16 18  0  0  0  0  0  0  0  0999 V2000
  -24.1553  -17.8465  145.7021 C   0  0  0  0  0  0  0  0  0  0  0  0
  -24.2856  -16.6364  145.3494 C   0  0  0  0  0  0  0  0  0  0  0  0
  -24.5733  -15.7651  145.9979 C   0  0  0  0  0  0  0  0  0  0  0  0
  -25.0272  -15.9886  147.3700 C   0  0  0  0  0  0  0  0  0  0  0  0
  -24.4993  -18.2276  147.0208 C   0  0  0  0  0  0  0  0  0  0  0  0
  -24.9009  -17.2232  147.9329 C   0  0  0  0  0  0  0  0  0  0  0  0
  -24.7137  -14.2591  145.5600 C   0  0  0  0  0  0  0  0  0  0  0  0
  -23.8904  -13.7860  144.6618 C   0  0  0  0  0  0  0  0  0  0  0  0
  -25.7337  -13.4391  146.1564 C   0  0  0  0  0  0  0  0  0  0  0  0
  -26.1648  -12.6368  145.7088 C   0  0  0  0  0  0  0  0  0  0  0  0
  -27.3855  -11.8116  146.0030 C   0  0  0  0  0  0  0  0  0  0  0  0
  -27.8241  -10.7103  145.2485 C   0  0  0  0  0  0  0  0  0  0  0  0
  -27.1290  -10.3862  144.0743 C   0  0  0  0  0  0  0  0  0  0  0  0
  -25.8314  -10.9141  144.0232 C   0  0  0  0  0  0  0  0  0  0  0  0
  -25.3351  -11.9348  144.6412 C   0  0  0  0  0  0  0  0  0  0  0  0
  -24.2859  -12.5580  144.1457 N   0  0  0  0  0  0  0  0  0  0  0  0
  3  7  1  0
  7  8  2  0
  8 16  1  0
 16 15  2  0
 10  9  2  0
  9  7  1  0
  1  2  2  0
  2  3  1  0
  3  4  2  0
  4  6  1  0
  6  5  2  0
  5  1  1  0
 10 11  1  0
 11 12  2  0
 12 13  1  0
 13 14  2  0
 14 15  1  0
 15 10  1  0
M  END

$$$$
No_1490-/dssg/home/sw_qyf/PocketFlow/Model-Generation-Results/5HT2A_7WC7_rec_A_10.pdb/2024-01-01-03-54-21/
     RDKit          3D

 35 36  0  0  0  0  0  0  0  0999 V2000
  -23.1746  -16.6014  144.8668 C   0  0  0  0  0  0  0  0  0  0  0  0
  -23.7011  -17.0158  145.9774 C   0  0  0  0  0  0  0  0  0  0  0  0
  -23.7336  -18.2775  146.3737 C   0  0  0  0  0  0  0  0  0  0  0  0
  -24.1960  -18.6445  147.6858 C   0  0  0  0  0  0  0  0  0  0  0  0
  -24.7100  -17.6145  148.5486 C   0  0  0  0  0  0  0  0  0  0  0  0
  -24.7929  -16.2635  148.0870 C   0  0  0  0  0  0  0  0  0  0  0  0
  -24.2508  -15.9434  146.8891 C   0  0  0  0  0  0  0  0  0  0  0  0
  -23.0996  -15.3329  144.5430 N   0  0  0  0  0  0  0  0  0  0  0  0
  -24.1199  -14.3747  144.6644 C   0  0  0  0  0  0  0  0  0  0  0  0
  -23.6445  -13.0683  144.1947 C   0  0  0  0  0  0  0  0  0  0  0  0
  -22.9813  -12.3646  145.5118 C   0  0  0  0  0  0  0  0  0  0  0  0
  -23.0585  -19.2678  145.8762 O   0  0  0  0  0  0  0  0  0  0  0  0
  -25.3220  -14.6952  143.7959 C   0  0  0  0  0  0  0  0  0  0  0  0
  -25.8299  -13.5982  143.0681 C   0  0  0  0  0  0  0  0  0  0  0  0
  -27.0020  -12.9402  143.9287 C   0  0  0  0  0  0  0  0  0  0  0  0
  -27.2675  -13.2454  145.1894 C   0  0  0  0  0  0  0  0  0  0  0  0
  -28.1572  -12.4863  145.9001 C   0  0  0  0  0  0  0  0  0  0  0  0
  -28.5620  -12.7723  147.2831 C   0  0  0  0  0  0  0  0  0  0  0  0
  -29.7218  -12.0693  147.8448 C   0  0  0  0  0  0  0  0  0  0  0  0
  -30.4581  -11.2295  147.0308 C   0  0  0  0  0  0  0  0  0  0  0  0
  -29.9781  -10.8913  145.7265 C   0  0  0  0  0  0  0  0  0  0  0  0
  -28.8515  -11.5129  145.2267 C   0  0  0  0  0  0  0  0  0  0  0  0
  -30.7853   -9.6744  144.8611 Cl  0  0  0  0  0  0  0  0  0  0  0  0
  -24.0621  -12.2295  146.5637 C   0  0  0  0  0  0  0  0  0  0  0  0
  -25.9151  -13.6062  141.8411 O   0  0  0  0  0  0  0  0  0  0  0  0
  -25.2388  -17.9223  149.7124 F   0  0  0  0  0  0  0  0  0  0  0  0
  -23.7701  -12.7745  147.7525 O   0  0  0  0  0  0  0  0  0  0  0  0
  -25.2615  -11.9493  146.3552 O   0  0  0  0  0  0  0  0  0  0  0  0
  -26.7745  -12.8674  141.1661 C   0  0  0  0  0  0  0  0  0  0  0  0
  -27.3675  -13.4151  139.9043 C   0  0  0  0  0  0  0  0  0  0  0  0
  -27.8473  -12.1704  139.2062 C   0  0  0  0  0  0  0  0  0  0  0  0
  -27.1326  -11.7943  138.0500 C   0  0  0  0  0  0  0  0  0  0  0  0
  -27.9110  -11.3291  137.1156 O   0  0  0  0  0  0  0  0  0  0  0  0
  -28.8320  -10.4607  137.4105 C   0  0  0  0  0  0  0  0  0  0  0  0
  -29.1074   -9.5016  136.3406 C   0  0  0  0  0  0  0  0  0  0  0  0
  1  2  1  0
  1  8  1  0
  8  9  1  0
  9 10  1  0
 10 11  1  0
  3 12  1  0
  9 13  1  0
 13 14  1  0
 14 15  1  0
 15 16  2  3
 16 17  1  0
 21 23  1  0
 11 24  1  0
 14 25  1  0
  5 26  1  0
 24 27  2  0
 24 28  1  0
 25 29  1  0
 29 30  1  0
 30 31  1  0
 31 32  1  0
 32 33  1  0
 33 34  1  0
 34 35  1  0
 17 18  2  0
 18 19  1  0
 19 20  2  0
 20 21  1  0
 21 22  2  0
 22 17  1  0
  2  3  2  0
  3  4  1  0
  4  5  2  0
  5  6  1  0
  6  7  2  0
  7  2  1  0
M  END

$$$$
No_1491-/dssg/home/sw_qyf/PocketFlow/Model-Generation-Results/5HT2A_7WC7_rec_A_10.pdb/2024-01-01-03-54-21/
     RDKit          3D

 30 33  0  0  0  0  0  0  0  0999 V2000
  -24.1553  -17.8465  145.7021 C   0  0  0  0  0  0  0  0  0  0  0  0
  -24.2856  -16.6364  145.3494 C   0  0  0  0  0  0  0  0  0  0  0  0
  -24.7837  -15.7223  145.8474 C   0  0  0  0  0  0  0  0  0  0  0  0
  -25.6062  -15.9757  147.0426 C   0  0  0  0  0  0  0  0  0  0  0  0
  -24.8560  -18.2319  146.8941 C   0  0  0  0  0  0  0  0  0  0  0  0
  -25.5370  -17.2345  147.6143 C   0  0  0  0  0  0  0  0  0  0  0  0
  -24.9277  -14.2280  145.4103 C   0  0  0  0  0  0  0  0  0  0  0  0
  -25.9185  -13.4314  145.8090 C   0  0  0  0  0  0  0  0  0  0  0  0
  -25.7856  -12.0179  145.7886 C   0  0  0  0  0  0  0  0  0  0  0  0
  -24.6143  -11.4555  145.2421 C   0  0  0  0  0  0  0  0  0  0  0  0
  -23.5335  -12.2874  144.8439 C   0  0  0  0  0  0  0  0  0  0  0  0
  -23.6778  -13.6974  145.0029 C   0  0  0  0  0  0  0  0  0  0  0  0
  -26.8789  -11.1743  145.7958 N   0  0  0  0  0  0  0  0  0  0  0  0
  -27.9222  -11.1493  144.9531 C   0  0  0  0  0  0  0  0  0  0  0  0
  -28.1383  -11.4568  143.8862 C   0  0  0  0  0  0  0  0  0  0  0  0
  -28.5592  -10.6478  142.8794 C   0  0  0  0  0  0  0  0  0  0  0  0
  -28.5186  -10.8926  141.4182 C   0  0  0  0  0  0  0  0  0  0  0  0
  -29.0409   -9.9884  140.5176 C   0  0  0  0  0  0  0  0  0  0  0  0
  -29.5159   -8.7234  140.9884 C   0  0  0  0  0  0  0  0  0  0  0  0
  -29.6013   -8.4553  142.3662 C   0  0  0  0  0  0  0  0  0  0  0  0
  -29.1086   -9.3509  143.3286 C   0  0  0  0  0  0  0  0  0  0  0  0
  -29.7531   -7.8719  139.9702 N   0  0  0  0  0  0  0  0  0  0  0  0
  -30.0904   -7.0932  142.7139 C   0  0  0  0  0  0  0  0  0  0  0  0
  -28.0493  -12.0855  141.0396 N   0  0  0  0  0  0  0  0  0  0  0  0
  -26.9458  -12.7105  141.5569 C   0  0  0  0  0  0  0  0  0  0  0  0
  -27.0137  -13.0953  142.9450 N   0  0  0  0  0  0  0  0  0  0  0  0
  -27.3327  -12.4354  143.9905 C   0  0  0  0  0  0  0  0  0  0  0  0
  -27.7293  -13.4042  145.0782 C   0  0  0  0  0  0  0  0  0  0  0  0
  -26.3645  -13.5208  147.4266 C   0  0  0  0  0  0  0  0  0  0  0  0
  -28.4714  -13.2822  146.1470 C   0  0  0  0  0  0  0  0  0  0  0  0
  3  7  1  0
  9 13  1  0
 13 14  1  0
 14 15  1  0
 19 22  1  0
 20 23  1  0
 17 24  1  0
 24 25  1  0
 25 26  1  0
 15 27  1  0
 26 27  1  0
 27 28  1  0
  8 29  1  0
 28 30  1  0
 15 16  1  0
  1  2  2  0
  2  3  1  0
  3  4  2  0
  4  6  1  0
  6  5  2  0
  5  1  1  0
  7  8  2  0
  8  9  1  0
  9 10  2  0
 10 11  1  0
 11 12  2  0
 12  7  1  0
 16 17  1  0
 17 18  2  0
 18 19  1  0
 19 20  2  0
 20 21  1  0
 21 16  2  0
M  END

$$$$
No_1492-/dssg/home/sw_qyf/PocketFlow/Model-Generation-Results/5HT2A_7WC7_rec_A_10.pdb/2024-01-01-03-54-21/
     RDKit          3D

 35 36  0  0  0  0  0  0  0  0999 V2000
  -23.1746  -16.6014  144.8668 C   0  0  0  0  0  0  0  0  0  0  0  0
  -23.7011  -17.0158  145.9774 C   0  0  0  0  0  0  0  0  0  0  0  0
  -24.2134  -16.0722  146.8877 C   0  0  0  0  0  0  0  0  0  0  0  0
  -23.6191  -15.3702  144.4058 C   0  0  0  0  0  0  0  0  0  0  0  0
  -24.2693  -14.3706  145.2007 C   0  0  0  0  0  0  0  0  0  0  0  0
  -24.5760  -13.0311  144.7342 C   0  0  0  0  0  0  0  0  0  0  0  0
  -24.5605  -14.7633  146.5331 C   0  0  0  0  0  0  0  0  0  0  0  0
  -25.1189  -12.1723  145.7855 C   0  0  0  0  0  0  0  0  0  0  0  0
  -25.8115  -11.0111  145.2735 C   0  0  0  0  0  0  0  0  0  0  0  0
  -27.2816  -10.9941  145.4685 C   0  0  0  0  0  0  0  0  0  0  0  0
  -27.8424  -11.9005  146.2788 C   0  0  0  0  0  0  0  0  0  0  0  0
  -29.2382  -11.9648  146.4966 C   0  0  0  0  0  0  0  0  0  0  0  0
  -29.8199  -12.8374  147.3934 N   0  0  0  0  0  0  0  0  0  0  0  0
  -30.5984  -12.4392  148.5036 C   0  0  0  0  0  0  0  0  0  0  0  0
  -31.7155  -13.2495  148.7617 C   0  0  0  0  0  0  0  0  0  0  0  0
  -29.9528  -11.0836  145.9598 O   0  0  0  0  0  0  0  0  0  0  0  0
  -23.3836  -18.3992  146.5318 C   0  0  0  0  0  0  0  0  0  0  0  0
  -24.1609  -19.2141  146.3928 O   0  0  0  0  0  0  0  0  0  0  0  0
  -31.9665  -13.3056  150.2569 C   0  0  0  0  0  0  0  0  0  0  0  0
  -32.8480  -13.5319  150.9091 C   0  0  0  0  0  0  0  0  0  0  0  0
  -32.8506  -13.7544  152.3791 C   0  0  0  0  0  0  0  0  0  0  0  0
  -24.5985  -16.5742  148.3365 C   0  0  0  0  0  0  0  0  0  0  0  0
  -25.8282  -16.5378  148.7877 N   0  0  0  0  0  0  0  0  0  0  0  0
  -26.5489  -17.5784  148.9496 C   0  0  0  0  0  0  0  0  0  0  0  0
  -27.9570  -17.2381  149.4349 C   0  0  0  0  0  0  0  0  0  0  0  0
  -28.6719  -16.3387  148.4893 C   0  0  0  0  0  0  0  0  0  0  0  0
  -29.6504  -15.4960  149.0192 C   0  0  0  0  0  0  0  0  0  0  0  0
  -28.4052  -16.2578  147.1514 C   0  0  0  0  0  0  0  0  0  0  0  0
  -29.1274  -15.3493  146.3174 C   0  0  0  0  0  0  0  0  0  0  0  0
  -29.9198  -15.6676  150.4160 N   0  0  0  0  0  0  0  0  0  0  0  0
  -33.9758  -14.1376  153.0544 C   0  0  0  0  0  0  0  0  0  0  0  0
  -33.9515  -14.6957  154.2468 C   0  0  0  0  0  0  0  0  0  0  0  0
  -22.2180  -18.5855  147.0199 O   0  0  0  0  0  0  0  0  0  0  0  0
  -30.2277  -14.7739  146.9237 C   0  0  0  0  0  0  0  0  0  0  0  0
  -30.4659  -14.8205  148.2458 N   0  0  0  0  0  0  0  0  0  0  0  0
  5  6  1  0
  6  8  1  0
  8  9  1  0
  9 10  1  0
 10 11  2  3
 11 12  1  0
 12 13  1  0
 13 14  1  0
 14 15  1  0
 12 16  2  0
  2 17  1  0
 17 18  1  0
 15 19  1  0
 19 20  2  3
 20 21  1  0
  3 22  1  0
 22 23  1  0
 23 24  1  0
 24 25  1  0
 25 26  1  0
 27 30  1  0
 21 31  1  0
 31 32  1  0
 17 33  2  0
 26 27  2  0
 27 35  1  0
 35 34  2  0
 34 29  1  0
 29 28  2  0
 28 26  1  0
  1  2  2  0
  2  3  1  0
  3  7  2  0
  7  5  1  0
  5  4  2  0
  4  1  1  0
M  END

$$$$
No_1493-/dssg/home/sw_qyf/PocketFlow/Model-Generation-Results/5HT2A_7WC7_rec_A_10.pdb/2024-01-01-03-54-21/
     RDKit          3D

 16 17  0  0  0  0  0  0  0  0999 V2000
  -23.1746  -16.6014  144.8668 C   0  0  0  0  0  0  0  0  0  0  0  0
  -23.7011  -17.0158  145.9774 C   0  0  0  0  0  0  0  0  0  0  0  0
  -23.7336  -18.2775  146.3737 C   0  0  0  0  0  0  0  0  0  0  0  0
  -23.8112  -15.3695  144.2738 C   0  0  0  0  0  0  0  0  0  0  0  0
  -24.2192  -14.3645  145.3045 C   0  0  0  0  0  0  0  0  0  0  0  0
  -24.9709  -14.8083  146.4404 C   0  0  0  0  0  0  0  0  0  0  0  0
  -25.4670  -13.8260  147.3024 C   0  0  0  0  0  0  0  0  0  0  0  0
  -24.4782  -16.0983  146.8422 C   0  0  0  0  0  0  0  0  0  0  0  0
  -24.0022  -12.9256  145.0271 C   0  0  0  0  0  0  0  0  0  0  0  0
  -22.8438  -12.4555  144.7387 O   0  0  0  0  0  0  0  0  0  0  0  0
  -25.0132  -12.0763  145.0119 N   0  0  0  0  0  0  0  0  0  0  0  0
  -26.1935  -12.0366  145.8552 C   0  0  0  0  0  0  0  0  0  0  0  0
  -26.4086  -12.8555  146.8574 N   0  0  0  0  0  0  0  0  0  0  0  0
  -27.0680  -11.1470  145.5353 O   0  0  0  0  0  0  0  0  0  0  0  0
  -23.7753  -18.7305  147.5168 O   0  0  0  0  0  0  0  0  0  0  0  0
  -23.9690  -19.3262  145.4343 N   0  0  0  0  0  0  0  0  0  0  0  0
  1  2  1  0
  2  3  1  0
  1  4  1  0
  4  5  1  0
  5  6  1  0
  6  7  2  0
  2  8  1  0
  6  8  1  0
  5  9  1  0
  9 10  1  0
  9 11  1  0
 11 12  1  0
  7 13  1  0
 12 13  1  0
 12 14  2  0
  3 15  2  0
  3 16  1  0
M  END

$$$$
No_1494-/dssg/home/sw_qyf/PocketFlow/Model-Generation-Results/5HT2A_7WC7_rec_A_10.pdb/2024-01-01-03-54-21/
     RDKit          3D

 35 37  0  0  0  0  0  0  0  0999 V2000
  -23.1746  -16.6014  144.8668 C   0  0  0  0  0  0  0  0  0  0  0  0
  -23.8963  -15.5346  144.7885 C   0  0  0  0  0  0  0  0  0  0  0  0
  -24.5755  -15.0383  145.9043 C   0  0  0  0  0  0  0  0  0  0  0  0
  -25.3266  -13.7882  145.9354 C   0  0  0  0  0  0  0  0  0  0  0  0
  -23.3054  -17.4824  145.9484 C   0  0  0  0  0  0  0  0  0  0  0  0
  -23.9716  -17.0786  147.1155 C   0  0  0  0  0  0  0  0  0  0  0  0
  -24.6279  -15.8542  147.1153 C   0  0  0  0  0  0  0  0  0  0  0  0
  -26.0298  -13.3771  144.9754 C   0  0  0  0  0  0  0  0  0  0  0  0
  -26.6315  -12.1348  144.9339 C   0  0  0  0  0  0  0  0  0  0  0  0
  -27.1951  -11.5280  144.3066 C   0  0  0  0  0  0  0  0  0  0  0  0
  -27.7969  -12.0039  143.0639 C   0  0  0  0  0  0  0  0  0  0  0  0
  -27.1807  -13.3311  142.7663 C   0  0  0  0  0  0  0  0  0  0  0  0
  -26.3710  -13.9492  143.6989 C   0  0  0  0  0  0  0  0  0  0  0  0
  -28.5322  -11.3292  142.0759 C   0  0  0  0  0  0  0  0  0  0  0  0
  -28.2096  -10.1021  141.7463 C   0  0  0  0  0  0  0  0  0  0  0  0
  -29.0534   -8.9568  142.1516 C   0  0  0  0  0  0  0  0  0  0  0  0
  -29.4249   -8.7299  143.3814 C   0  0  0  0  0  0  0  0  0  0  0  0
  -29.3705   -9.7208  144.3509 C   0  0  0  0  0  0  0  0  0  0  0  0
  -30.3109   -9.8038  145.3637 C   0  0  0  0  0  0  0  0  0  0  0  0
  -30.3286  -10.9942  146.1511 C   0  0  0  0  0  0  0  0  0  0  0  0
  -29.2500  -11.9211  146.1117 C   0  0  0  0  0  0  0  0  0  0  0  0
  -29.4133  -12.9993  147.0769 C   0  0  0  0  0  0  0  0  0  0  0  0
  -30.2824  -12.9704  148.0365 C   0  0  0  0  0  0  0  0  0  0  0  0
  -31.1871  -11.9320  148.2093 C   0  0  0  0  0  0  0  0  0  0  0  0
  -31.1196  -10.9846  147.3125 C   0  0  0  0  0  0  0  0  0  0  0  0
  -27.3333   -9.8923  140.6056 C   0  0  0  0  0  0  0  0  0  0  0  0
  -27.6790  -10.4350  139.3229 C   0  0  0  0  0  0  0  0  0  0  0  0
  -28.3931   -9.6010  138.4604 C   0  0  0  0  0  0  0  0  0  0  0  0
  -28.4302   -8.1715  138.7695 C   0  0  0  0  0  0  0  0  0  0  0  0
  -27.4971  -11.7938  139.0584 C   0  0  0  0  0  0  0  0  0  0  0  0
  -27.8119  -12.3110  137.9328 O   0  0  0  0  0  0  0  0  0  0  0  0
  -26.9666  -12.6383  139.9917 O   0  0  0  0  0  0  0  0  0  0  0  0
  -28.4807  -14.0801  146.9815 N   0  0  0  0  0  0  0  0  0  0  0  0
  -28.6697  -15.3404  147.4922 C   0  0  0  0  0  0  0  0  0  0  0  0
  -27.6955  -16.3222  147.2336 C   0  0  0  0  0  0  0  0  0  0  0  0
  3  4  1  0
  4  8  1  0
 11 14  1  0
 14 15  1  0
 15 16  2  3
 16 17  1  0
 17 18  1  0
 18 19  2  3
 19 20  1  0
 15 26  1  0
 26 27  1  0
 27 28  1  0
 28 29  2  0
 27 30  1  0
 30 31  2  0
 30 32  1  0
 22 33  1  0
 33 34  2  3
 34 35  1  0
  1  2  2  0
  2  3  1  0
  3  7  2  0
  7  6  1  0
  6  5  2  0
  5  1  1  0
  8  9  2  0
  9 10  1  0
 10 11  2  0
 11 12  1  0
 12 13  2  0
 13  8  1  0
 20 21  2  0
 21 22  1  0
 22 23  2  0
 23 24  1  0
 24 25  2  0
 25 20  1  0
M  END

$$$$
No_1495-/dssg/home/sw_qyf/PocketFlow/Model-Generation-Results/5HT2A_7WC7_rec_A_10.pdb/2024-01-01-03-54-21/
     RDKit          3D

 35 39  0  0  0  0  0  0  0  0999 V2000
  -24.1553  -17.8465  145.7021 C   0  0  0  0  0  0  0  0  0  0  0  0
  -23.9795  -18.4462  146.7426 C   0  0  0  0  0  0  0  0  0  0  0  0
  -25.1196  -16.8106  145.6409 C   0  0  0  0  0  0  0  0  0  0  0  0
  -25.9236  -16.5070  146.7422 C   0  0  0  0  0  0  0  0  0  0  0  0
  -25.6173  -17.2153  147.9099 C   0  0  0  0  0  0  0  0  0  0  0  0
  -24.6179  -18.1473  147.9620 C   0  0  0  0  0  0  0  0  0  0  0  0
  -26.9749  -15.4806  146.6971 C   0  0  0  0  0  0  0  0  0  0  0  0
  -28.1740  -15.7949  146.3286 C   0  0  0  0  0  0  0  0  0  0  0  0
  -29.1773  -14.7981  146.3471 C   0  0  0  0  0  0  0  0  0  0  0  0
  -28.8866  -13.4166  146.7213 C   0  0  0  0  0  0  0  0  0  0  0  0
  -27.4728  -13.0783  146.8188 C   0  0  0  0  0  0  0  0  0  0  0  0
  -26.5603  -14.0908  146.8970 C   0  0  0  0  0  0  0  0  0  0  0  0
  -29.8813  -12.3515  146.6175 C   0  0  0  0  0  0  0  0  0  0  0  0
  -29.7417  -11.3713  145.7704 O   0  0  0  0  0  0  0  0  0  0  0  0
  -29.3273  -11.3073  144.5598 C   0  0  0  0  0  0  0  0  0  0  0  0
  -29.6996  -10.1501  143.7957 C   0  0  0  0  0  0  0  0  0  0  0  0
  -29.3727   -9.9945  142.4784 C   0  0  0  0  0  0  0  0  0  0  0  0
  -30.0038   -9.0871  141.6567 C   0  0  0  0  0  0  0  0  0  0  0  0
  -30.9734   -8.1719  142.3267 C   0  0  0  0  0  0  0  0  0  0  0  0
  -31.2772   -8.3418  143.7038 C   0  0  0  0  0  0  0  0  0  0  0  0
  -30.7244   -9.3467  144.4088 C   0  0  0  0  0  0  0  0  0  0  0  0
  -28.3339  -10.8178  141.8690 C   0  0  0  0  0  0  0  0  0  0  0  0
  -27.3210  -11.1831  142.1638 C   0  0  0  0  0  0  0  0  0  0  0  0
  -26.5603  -12.2705  141.5769 C   0  0  0  0  0  0  0  0  0  0  0  0
  -27.0596  -12.6562  140.2887 C   0  0  0  0  0  0  0  0  0  0  0  0
  -28.2470  -12.1218  139.7847 C   0  0  0  0  0  0  0  0  0  0  0  0
  -28.9489  -11.2413  140.5616 C   0  0  0  0  0  0  0  0  0  0  0  0
  -30.0024  -11.8368  148.1490 C   0  0  0  0  0  0  0  0  0  0  0  0
  -31.1647  -12.5882  148.8773 C   0  0  0  0  0  0  0  0  0  0  0  0
  -32.1067  -11.8057  149.5412 C   0  0  0  0  0  0  0  0  0  0  0  0
  -32.9497  -12.3458  150.5225 C   0  0  0  0  0  0  0  0  0  0  0  0
  -32.4896  -13.6198  150.9515 C   0  0  0  0  0  0  0  0  0  0  0  0
  -31.5069  -14.3707  150.3758 C   0  0  0  0  0  0  0  0  0  0  0  0
  -30.7324  -13.7951  149.3908 C   0  0  0  0  0  0  0  0  0  0  0  0
  -31.0376  -15.6366  150.7438 N   0  0  0  0  0  0  0  0  0  0  0  0
  4  7  1  0
 10 13  1  0
 13 14  1  0
 14 15  1  0
 15 16  1  0
 17 22  1  0
 13 28  1  0
 28 29  1  0
 33 35  1  0
 22 23  2  0
 23 24  1  0
 24 25  2  0
 25 26  1  0
 26 27  2  0
 27 22  1  0
  7  8  2  0
  8  9  1  0
  9 10  2  0
 10 11  1  0
 11 12  2  0
 12  7  1  0
  1  2  2  0
  2  6  1  0
  6  5  2  0
  5  4  1  0
  4  3  2  0
  3  1  1  0
 29 30  2  0
 30 31  1  0
 31 32  2  0
 32 33  1  0
 33 34  2  0
 34 29  1  0
 16 17  1  0
 17 18  2  0
 18 19  1  0
 19 20  2  0
 20 21  1  0
 21 16  2  0
M  END

$$$$
No_1496-/dssg/home/sw_qyf/PocketFlow/Model-Generation-Results/5HT2A_7WC7_rec_A_10.pdb/2024-01-01-03-54-21/
     RDKit          3D

 35 38  0  0  0  0  0  0  0  0999 V2000
  -24.1553  -17.8465  145.7021 C   0  0  0  0  0  0  0  0  0  0  0  0
  -23.9795  -18.4462  146.7426 C   0  0  0  0  0  0  0  0  0  0  0  0
  -25.1196  -16.8106  145.6409 C   0  0  0  0  0  0  0  0  0  0  0  0
  -25.9236  -16.5070  146.7422 C   0  0  0  0  0  0  0  0  0  0  0  0
  -26.9588  -15.5563  146.6458 C   0  0  0  0  0  0  0  0  0  0  0  0
  -26.8348  -14.5437  145.7143 C   0  0  0  0  0  0  0  0  0  0  0  0
  -27.7919  -13.4811  145.5684 C   0  0  0  0  0  0  0  0  0  0  0  0
  -27.5540  -12.3288  144.7465 C   0  0  0  0  0  0  0  0  0  0  0  0
  -26.8724  -12.5006  143.6115 C   0  0  0  0  0  0  0  0  0  0  0  0
  -25.9112  -13.6283  143.5728 C   0  0  0  0  0  0  0  0  0  0  0  0
  -26.0572  -14.6871  144.5509 C   0  0  0  0  0  0  0  0  0  0  0  0
  -24.6874  -18.2026  147.9656 C   0  0  0  0  0  0  0  0  0  0  0  0
  -25.7062  -17.2511  147.9388 C   0  0  0  0  0  0  0  0  0  0  0  0
  -25.1807  -15.7124  144.5667 C   0  0  0  0  0  0  0  0  0  0  0  0
  -28.8730  -11.4793  144.5758 C   0  0  0  0  0  0  0  0  0  0  0  0
  -28.7636  -10.3111  143.9042 C   0  0  0  0  0  0  0  0  0  0  0  0
  -29.9119   -9.4785  143.7097 C   0  0  0  0  0  0  0  0  0  0  0  0
  -29.9014   -8.4958  142.7306 C   0  0  0  0  0  0  0  0  0  0  0  0
  -30.1470   -7.2219  143.0576 C   0  0  0  0  0  0  0  0  0  0  0  0
  -30.4964   -8.8695  141.4008 C   0  0  0  0  0  0  0  0  0  0  0  0
  -29.6064   -8.2998  140.4695 C   0  0  0  0  0  0  0  0  0  0  0  0
  -28.5403   -8.8653  139.8505 C   0  0  0  0  0  0  0  0  0  0  0  0
  -28.1061   -8.4983  138.5744 C   0  0  0  0  0  0  0  0  0  0  0  0
  -27.8718  -10.0021  140.4344 C   0  0  0  0  0  0  0  0  0  0  0  0
  -26.9020  -10.7052  139.8149 C   0  0  0  0  0  0  0  0  0  0  0  0
  -27.0391  -12.1869  140.0447 C   0  0  0  0  0  0  0  0  0  0  0  0
  -26.2036  -12.9804  139.4593 O   0  0  0  0  0  0  0  0  0  0  0  0
  -28.3034  -12.6944  139.9700 O   0  0  0  0  0  0  0  0  0  0  0  0
  -26.4388  -16.9414  149.0392 O   0  0  0  0  0  0  0  0  0  0  0  0
  -28.8073  -13.3053  146.6917 C   0  0  0  0  0  0  0  0  0  0  0  0
  -29.6120  -12.3262  146.9864 C   0  0  0  0  0  0  0  0  0  0  0  0
  -29.6819  -11.2365  145.8538 C   0  0  0  0  0  0  0  0  0  0  0  0
  -30.4874  -12.1984  148.0776 C   0  0  0  0  0  0  0  0  0  0  0  0
  -30.9453  -13.2416  148.6547 O   0  0  0  0  0  0  0  0  0  0  0  0
  -30.3756   -6.9103  139.6904 Cl  0  0  0  0  0  0  0  0  0  0  0  0
  6  7  1  0
  8  9  1  0
  9 10  1  0
 10 11  1  0
 16 17  1  0
 17 18  1  0
 18 19  2  0
 18 20  1  0
 20 21  1  0
 21 22  1  0
 22 23  1  0
 22 24  1  0
 24 25  2  3
 25 26  1  0
 26 27  1  0
 26 28  2  0
 13 29  1  0
 31 33  1  0
 33 34  1  0
 21 35  1  0
 16 15  1  0
  4  5  2  0
  5  6  1  0
  6 11  2  0
 11 14  1  0
 14  3  2  0
  7  8  2  0
  8 15  1  0
 15 32  2  0
 32 31  1  0
 31 30  2  0
 30  7  1  0
  1  2  2  0
  2 12  1  0
 12 13  2  0
 13  4  1  0
  4  3  1  0
  3  1  1  0
M  END

$$$$
No_1497-/dssg/home/sw_qyf/PocketFlow/Model-Generation-Results/5HT2A_7WC7_rec_A_10.pdb/2024-01-01-03-54-21/
     RDKit          3D

 23 26  0  0  0  0  0  0  0  0999 V2000
  -24.1553  -17.8465  145.7021 C   0  0  0  0  0  0  0  0  0  0  0  0
  -23.9795  -18.4462  146.7426 C   0  0  0  0  0  0  0  0  0  0  0  0
  -25.1593  -16.8262  145.6925 C   0  0  0  0  0  0  0  0  0  0  0  0
  -26.3426  -16.9003  146.3448 C   0  0  0  0  0  0  0  0  0  0  0  0
  -24.9078  -18.3640  147.8289 C   0  0  0  0  0  0  0  0  0  0  0  0
  -26.0312  -17.5122  147.7122 C   0  0  0  0  0  0  0  0  0  0  0  0
  -27.4996  -16.1150  146.1993 C   0  0  0  0  0  0  0  0  0  0  0  0
  -27.8219  -14.9876  146.4483 C   0  0  0  0  0  0  0  0  0  0  0  0
  -28.5162  -14.0489  146.5787 C   0  0  0  0  0  0  0  0  0  0  0  0
  -28.9077  -12.7812  146.6063 C   0  0  0  0  0  0  0  0  0  0  0  0
  -28.3419  -11.7752  146.5594 C   0  0  0  0  0  0  0  0  0  0  0  0
  -26.9976  -11.7015  145.9877 C   0  0  0  0  0  0  0  0  0  0  0  0
  -26.0126  -12.5775  146.4743 C   0  0  0  0  0  0  0  0  0  0  0  0
  -24.6430  -12.2695  146.2045 C   0  0  0  0  0  0  0  0  0  0  0  0
  -23.6174  -13.1740  146.7314 C   0  0  0  0  0  0  0  0  0  0  0  0
  -26.2306  -14.0848  146.3673 C   0  0  0  0  0  0  0  0  0  0  0  0
  -23.8996  -14.4297  146.2441 C   0  0  0  0  0  0  0  0  0  0  0  0
  -25.2061  -14.9694  146.6600 C   0  0  0  0  0  0  0  0  0  0  0  0
  -25.2452  -16.2718  146.1166 O   0  0  0  0  0  0  0  0  0  0  0  0
  -24.2756  -16.5306  146.5824 C   0  0  0  0  0  0  0  0  0  0  0  0
  -25.1021  -15.0990  148.3431 C   0  0  0  0  0  0  0  0  0  0  0  0
  -25.8506  -14.4260  145.9715 O   0  0  0  0  0  0  0  0  0  0  0  0
  -24.7646  -15.3457  148.1594 O   0  0  0  0  0  0  0  0  0  0  0  0
  4  7  1  0
  7  8  2  3
  8  9  1  0
  9 10  2  0
 10 11  1  0
 11 12  2  0
 12 13  1  0
 13 14  1  0
 14 15  1  0
  8 16  1  0
 13 16  1  0
 15 17  1  0
 16 18  1  0
 17 18  1  0
  3 19  1  0
  1 20  1  0
 19 20  1  0
 18 21  1  0
 16 22  1  0
 21 23  1  0
  1  2  2  0
  2  5  1  0
  5  6  2  0
  6  4  1  0
  4  3  2  0
  3  1  1  0
M  END

$$$$
No_1498-/dssg/home/sw_qyf/PocketFlow/Model-Generation-Results/5HT2A_7WC7_rec_A_10.pdb/2024-01-01-03-54-21/
     RDKit          3D

 18 19  0  0  0  0  0  0  0  0999 V2000
  -23.1746  -16.6014  144.8668 C   0  0  0  0  0  0  0  0  0  0  0  0
  -23.8963  -15.5346  144.7885 C   0  0  0  0  0  0  0  0  0  0  0  0
  -24.6479  -15.0447  145.8164 C   0  0  0  0  0  0  0  0  0  0  0  0
  -25.3835  -13.7782  145.7887 C   0  0  0  0  0  0  0  0  0  0  0  0
  -25.5840  -12.9393  146.6927 C   0  0  0  0  0  0  0  0  0  0  0  0
  -23.3260  -17.4394  146.0484 C   0  0  0  0  0  0  0  0  0  0  0  0
  -24.0657  -17.0203  147.1562 C   0  0  0  0  0  0  0  0  0  0  0  0
  -24.7664  -15.7793  147.0832 C   0  0  0  0  0  0  0  0  0  0  0  0
  -26.1810  -11.6728  146.4824 C   0  0  0  0  0  0  0  0  0  0  0  0
  -26.6284  -11.3598  145.2064 C   0  0  0  0  0  0  0  0  0  0  0  0
  -27.2604  -10.1280  144.9379 C   0  0  0  0  0  0  0  0  0  0  0  0
  -25.6868  -13.5369  144.3641 C   0  0  0  0  0  0  0  0  0  0  0  0
  -26.4824  -12.3041  144.1796 C   0  0  0  0  0  0  0  0  0  0  0  0
  -28.2413   -9.9088  144.4444 C   0  0  0  0  0  0  0  0  0  0  0  0
  -28.6844   -9.0398  143.4204 C   0  0  0  0  0  0  0  0  0  0  0  0
  -29.5658   -9.2080  142.5736 C   0  0  0  0  0  0  0  0  0  0  0  0
  -30.6284   -9.9576  142.6271 C   0  0  0  0  0  0  0  0  0  0  0  0
  -31.5397  -10.0466  141.7457 N   0  0  0  0  0  0  0  0  0  0  0  0
  3  4  1  0
 10 11  1  0
 11 14  1  0
 14 15  1  0
 15 16  1  0
 16 17  2  3
 17 18  1  0
  4  5  2  0
  5  9  1  0
  9 10  2  0
 10 13  1  0
 13 12  2  0
 12  4  1  0
  1  2  2  0
  2  3  1  0
  3  8  2  0
  8  7  1  0
  7  6  2  0
  6  1  1  0
M  END

$$$$
No_1499-/dssg/home/sw_qyf/PocketFlow/Model-Generation-Results/5HT2A_7WC7_rec_A_10.pdb/2024-01-01-03-54-21/
     RDKit          3D

 35 38  0  0  0  0  0  0  0  0999 V2000
  -24.1553  -17.8465  145.7021 C   0  0  0  0  0  0  0  0  0  0  0  0
  -24.6364  -17.2931  146.7091 C   0  0  0  0  0  0  0  0  0  0  0  0
  -25.8608  -16.5592  146.5934 C   0  0  0  0  0  0  0  0  0  0  0  0
  -25.9533  -15.5604  145.6681 C   0  0  0  0  0  0  0  0  0  0  0  0
  -27.0678  -14.6961  145.5542 C   0  0  0  0  0  0  0  0  0  0  0  0
  -24.0556  -16.8606  144.5402 C   0  0  0  0  0  0  0  0  0  0  0  0
  -25.0331  -15.8644  144.5557 C   0  0  0  0  0  0  0  0  0  0  0  0
  -26.9002  -13.5208  144.7860 C   0  0  0  0  0  0  0  0  0  0  0  0
  -27.5308  -12.3458  145.0762 C   0  0  0  0  0  0  0  0  0  0  0  0
  -27.3109  -11.1049  144.4276 C   0  0  0  0  0  0  0  0  0  0  0  0
  -27.1837  -10.0005  145.0163 C   0  0  0  0  0  0  0  0  0  0  0  0
  -28.4112  -11.0973  143.3374 C   0  0  0  0  0  0  0  0  0  0  0  0
  -28.0993  -10.8195  142.1061 C   0  0  0  0  0  0  0  0  0  0  0  0
  -28.2491  -10.0025  141.2707 C   0  0  0  0  0  0  0  0  0  0  0  0
  -28.9531   -8.7615  141.4671 C   0  0  0  0  0  0  0  0  0  0  0  0
  -29.6893   -8.5324  142.6390 C   0  0  0  0  0  0  0  0  0  0  0  0
  -30.4118   -7.2769  142.6757 C   0  0  0  0  0  0  0  0  0  0  0  0
  -29.0463   -7.7505  140.4015 C   0  0  0  0  0  0  0  0  0  0  0  0
  -28.7118   -8.1002  139.0732 C   0  0  0  0  0  0  0  0  0  0  0  0
  -29.1239   -7.3697  138.0489 C   0  0  0  0  0  0  0  0  0  0  0  0
  -27.7421   -9.1839  138.8620 C   0  0  0  0  0  0  0  0  0  0  0  0
  -27.6301  -10.1720  139.9235 C   0  0  0  0  0  0  0  0  0  0  0  0
  -28.2001  -14.9183  146.2920 C   0  0  0  0  0  0  0  0  0  0  0  0
  -29.0031  -13.7475  146.7341 C   0  0  0  0  0  0  0  0  0  0  0  0
  -28.7313  -12.4546  146.0017 C   0  0  0  0  0  0  0  0  0  0  0  0
  -30.1324  -13.7944  147.6170 C   0  0  0  0  0  0  0  0  0  0  0  0
  -30.9301  -12.6015  147.8467 C   0  0  0  0  0  0  0  0  0  0  0  0
  -31.6898  -12.5496  149.1002 C   0  0  0  0  0  0  0  0  0  0  0  0
  -32.5135  -11.5221  149.4234 C   0  0  0  0  0  0  0  0  0  0  0  0
  -33.0065  -11.4059  150.6543 C   0  0  0  0  0  0  0  0  0  0  0  0
  -32.6851  -12.3480  151.6829 C   0  0  0  0  0  0  0  0  0  0  0  0
  -31.8882  -13.4268  151.3532 C   0  0  0  0  0  0  0  0  0  0  0  0
  -31.3526  -13.5128  150.0653 C   0  0  0  0  0  0  0  0  0  0  0  0
  -24.2280  -17.7295  148.1873 C   0  0  0  0  0  0  0  0  0  0  0  0
  -23.1207  -18.0867  148.1622 F   0  0  0  0  0  0  0  0  0  0  0  0
  4  5  1  0
  9 10  1  0
 10 11  1  0
 10 12  1  0
 12 13  1  0
 13 14  1  0
 15 16  1  0
 16 17  2  0
 19 20  1  0
 24 26  1  0
 26 27  1  0
  2 34  1  0
 34 35  1  0
 27 28  1  0
 28 29  2  0
 29 30  1  0
 30 31  2  0
 31 32  1  0
 32 33  2  0
 33 28  1  0
 14 15  2  0
 15 18  1  0
 18 19  2  0
 19 21  1  0
 21 22  2  0
 22 14  1  0
  5  8  2  0
  8  9  1  0
  9 25  2  0
 25 24  1  0
 24 23  2  0
 23  5  1  0
  1  2  2  0
  2  3  1  0
  3  4  2  0
  4  7  1  0
  7  6  2  0
  6  1  1  0
M  END

$$$$
No_1500-/dssg/home/sw_qyf/PocketFlow/Model-Generation-Results/5HT2A_7WC7_rec_A_10.pdb/2024-01-01-03-54-21/
     RDKit          3D

 25 27  0  0  0  0  0  0  0  0999 V2000
  -24.1553  -17.8465  145.7021 C   0  0  0  0  0  0  0  0  0  0  0  0
  -23.9795  -18.4462  146.7426 C   0  0  0  0  0  0  0  0  0  0  0  0
  -23.3558  -17.2450  144.9339 C   0  0  0  0  0  0  0  0  0  0  0  0
  -23.8124  -18.0051  147.7479 C   0  0  0  0  0  0  0  0  0  0  0  0
  -23.9189  -17.0133  148.5016 C   0  0  0  0  0  0  0  0  0  0  0  0
  -23.8524  -16.1256  143.9319 C   0  0  0  0  0  0  0  0  0  0  0  0
  -24.2894  -14.9146  144.7862 C   0  0  0  0  0  0  0  0  0  0  0  0
  -25.4602  -14.6369  144.9736 C   0  0  0  0  0  0  0  0  0  0  0  0
  -25.9598  -13.5874  145.4315 C   0  0  0  0  0  0  0  0  0  0  0  0
  -25.0784  -12.5106  145.8673 C   0  0  0  0  0  0  0  0  0  0  0  0
  -23.6904  -12.7821  145.7646 C   0  0  0  0  0  0  0  0  0  0  0  0
  -23.2830  -13.9442  145.1073 C   0  0  0  0  0  0  0  0  0  0  0  0
  -25.0206  -16.1655  148.0399 C   0  0  0  0  0  0  0  0  0  0  0  0
  -25.6293  -11.0165  146.5910 Cl  0  0  0  0  0  0  0  0  0  0  0  0
  -26.3593  -16.6162  148.3394 C   0  0  0  0  0  0  0  0  0  0  0  0
  -27.4790  -15.9887  147.7347 C   0  0  0  0  0  0  0  0  0  0  0  0
  -28.7554  -16.3160  148.2567 C   0  0  0  0  0  0  0  0  0  0  0  0
  -29.9122  -15.6705  147.7095 C   0  0  0  0  0  0  0  0  0  0  0  0
  -29.5660  -14.4985  146.8623 C   0  0  0  0  0  0  0  0  0  0  0  0
  -28.3975  -14.2150  146.4275 C   0  0  0  0  0  0  0  0  0  0  0  0
  -28.2111  -13.0968  145.5844 C   0  0  0  0  0  0  0  0  0  0  0  0
  -27.2898  -13.1772  145.6667 C   0  0  0  0  0  0  0  0  0  0  0  0
  -27.3329  -15.0855  147.0501 N   0  0  0  0  0  0  0  0  0  0  0  0
  -27.2325  -11.8272  145.9349 O   0  0  0  0  0  0  0  0  0  0  0  0
  -28.1744  -10.7846  146.0265 C   0  0  0  0  0  0  0  0  0  0  0  0
  1  2  2  3
  1  3  1  0
  2  4  1  0
  4  5  2  3
  3  6  1  0
  6  7  1  0
  5 13  1  0
 10 14  1  0
 13 15  1  0
 20 21  1  0
  9 22  1  0
 21 22  1  0
 22 24  1  0
 24 25  1  0
 15 16  1  0
 16 17  1  0
 17 18  2  0
 18 19  1  0
 19 20  2  0
 20 23  1  0
 23 16  2  0
  7  8  2  0
  8  9  1  0
  9 10  2  0
 10 11  1  0
 11 12  2  0
 12  7  1  0
M  END

$$$$
No_1501-/dssg/home/sw_qyf/PocketFlow/Model-Generation-Results/5HT2A_7WC7_rec_A_10.pdb/2024-01-01-03-54-21/
     RDKit          3D

 22 23  0  0  0  0  0  0  0  0999 V2000
  -24.1553  -17.8465  145.7021 C   0  0  0  0  0  0  0  0  0  0  0  0
  -23.9795  -18.4462  146.7426 C   0  0  0  0  0  0  0  0  0  0  0  0
  -25.1593  -16.8262  145.6925 C   0  0  0  0  0  0  0  0  0  0  0  0
  -24.9465  -15.5961  144.9952 C   0  0  0  0  0  0  0  0  0  0  0  0
  -25.8339  -14.4742  145.0599 C   0  0  0  0  0  0  0  0  0  0  0  0
  -27.0182  -14.6297  145.8322 C   0  0  0  0  0  0  0  0  0  0  0  0
  -27.2859  -15.8685  146.4498 C   0  0  0  0  0  0  0  0  0  0  0  0
  -26.3483  -16.9196  146.4585 C   0  0  0  0  0  0  0  0  0  0  0  0
  -27.9961  -13.5424  145.8419 C   0  0  0  0  0  0  0  0  0  0  0  0
  -29.0217  -13.4392  146.8473 C   0  0  0  0  0  0  0  0  0  0  0  0
  -29.8025  -12.2563  146.9675 C   0  0  0  0  0  0  0  0  0  0  0  0
  -29.6351  -11.2211  146.0997 N   0  0  0  0  0  0  0  0  0  0  0  0
  -28.6061  -11.2468  145.2010 C   0  0  0  0  0  0  0  0  0  0  0  0
  -27.7915  -12.3675  145.1121 C   0  0  0  0  0  0  0  0  0  0  0  0
  -28.4922  -10.0420  144.5943 N   0  0  0  0  0  0  0  0  0  0  0  0
  -30.8034  -12.2280  147.7995 F   0  0  0  0  0  0  0  0  0  0  0  0
  -23.9835  -17.6755  148.0537 C   0  0  0  0  0  0  0  0  0  0  0  0
  -24.0616  -17.2267  148.9666 C   0  0  0  0  0  0  0  0  0  0  0  0
  -22.8602  -17.2498  149.7636 C   0  0  0  0  0  0  0  0  0  0  0  0
  -23.8007  -15.4364  144.2832 N   0  0  0  0  0  0  0  0  0  0  0  0
  -27.5244   -9.8052  143.7235 C   0  0  0  0  0  0  0  0  0  0  0  0
  -23.0282  -17.2912  151.2822 C   0  0  0  0  0  0  0  0  0  0  0  0
  1  2  1  0
  1  3  1  0
  6  9  1  0
 13 15  1  0
 11 16  1  0
  2 17  1  0
 17 18  3  0
 18 19  1  0
  4 20  1  0
 15 21  1  0
 19 22  1  0
  3  4  2  0
  4  5  1  0
  5  6  2  0
  6  7  1  0
  7  8  2  0
  8  3  1  0
  9 10  2  0
 10 11  1  0
 11 12  2  0
 12 13  1  0
 13 14  2  0
 14  9  1  0
M  END

$$$$
No_1502-/dssg/home/sw_qyf/PocketFlow/Model-Generation-Results/5HT2A_7WC7_rec_A_10.pdb/2024-01-01-03-54-21/
     RDKit          3D

 33 34  0  0  0  0  0  0  0  0999 V2000
  -23.1746  -16.6014  144.8668 C   0  0  0  0  0  0  0  0  0  0  0  0
  -24.0189  -16.0564  145.8445 C   0  0  0  0  0  0  0  0  0  0  0  0
  -24.4145  -16.8299  146.9062 C   0  0  0  0  0  0  0  0  0  0  0  0
  -23.9612  -18.1384  147.0126 C   0  0  0  0  0  0  0  0  0  0  0  0
  -23.1429  -18.6221  146.0418 C   0  0  0  0  0  0  0  0  0  0  0  0
  -22.8095  -17.8231  145.0610 N   0  0  0  0  0  0  0  0  0  0  0  0
  -24.4778  -14.6134  145.4848 C   0  0  0  0  0  0  0  0  0  0  0  0
  -25.1550  -13.8686  146.4980 C   0  0  0  0  0  0  0  0  0  0  0  0
  -25.4402  -12.5078  146.3566 C   0  0  0  0  0  0  0  0  0  0  0  0
  -25.1400  -11.8945  145.1062 C   0  0  0  0  0  0  0  0  0  0  0  0
  -24.3842  -12.6365  144.2267 C   0  0  0  0  0  0  0  0  0  0  0  0
  -24.0404  -13.9712  144.3867 C   0  0  0  0  0  0  0  0  0  0  0  0
  -25.3914  -10.5881  144.9638 O   0  0  0  0  0  0  0  0  0  0  0  0
  -26.3905  -10.3290  144.0489 C   0  0  0  0  0  0  0  0  0  0  0  0
  -27.7453  -10.6572  144.6219 C   0  0  0  0  0  0  0  0  0  0  0  0
  -28.5990  -11.0697  143.8353 C   0  0  0  0  0  0  0  0  0  0  0  0
  -28.4309  -11.2057  142.4402 C   0  0  0  0  0  0  0  0  0  0  0  0
  -27.5937  -11.2510  141.8356 C   0  0  0  0  0  0  0  0  0  0  0  0
  -27.8357  -11.6097  140.3499 C   0  0  0  0  0  0  0  0  0  0  0  0
  -27.4135  -10.8060  139.3421 C   0  0  0  0  0  0  0  0  0  0  0  0
  -28.2800   -9.8282  139.0067 C   0  0  0  0  0  0  0  0  0  0  0  0
  -28.2186   -8.5233  139.7905 C   0  0  0  0  0  0  0  0  0  0  0  0
  -29.1296   -7.4691  139.3833 C   0  0  0  0  0  0  0  0  0  0  0  0
  -30.3872   -7.6219  140.1494 C   0  0  0  0  0  0  0  0  0  0  0  0
  -30.1585   -7.3545  141.6032 C   0  0  0  0  0  0  0  0  0  0  0  0
  -29.3951   -6.7001  142.1086 C   0  0  0  0  0  0  0  0  0  0  0  0
  -31.2769   -7.9256  142.5079 C   0  0  0  0  0  0  0  0  0  0  0  0
  -30.9154   -8.1994  143.8582 C   0  0  0  0  0  0  0  0  0  0  0  0
  -27.3726  -13.1286  140.0585 C   0  0  0  0  0  0  0  0  0  0  0  0
  -27.0933  -13.7334  141.4581 C   0  0  0  0  0  0  0  0  0  0  0  0
  -26.8688  -12.9850  142.5685 C   0  0  0  0  0  0  0  0  0  0  0  0
  -27.6289  -13.3439  143.5243 O   0  0  0  0  0  0  0  0  0  0  0  0
  -25.7026  -12.4877  142.7306 O   0  0  0  0  0  0  0  0  0  0  0  0
  2  7  1  0
 10 13  1  0
 13 14  1  0
 14 15  1  0
 15 16  2  3
 16 17  1  0
 17 18  2  3
 18 19  1  0
 19 20  1  0
 20 21  1  0
 21 22  1  0
 22 23  1  0
 23 24  1  0
 24 25  1  0
 25 26  2  0
 25 27  1  0
 27 28  1  0
 19 29  1  0
 29 30  1  0
 30 31  1  0
 31 32  1  0
 31 33  2  0
  1  2  2  0
  2  3  1  0
  3  4  2  0
  4  5  1  0
  5  6  2  0
  6  1  1  0
  7  8  2  0
  8  9  1  0
  9 10  2  0
 10 11  1  0
 11 12  2  0
 12  7  1  0
M  END

$$$$
No_1503-/dssg/home/sw_qyf/PocketFlow/Model-Generation-Results/5HT2A_7WC7_rec_A_10.pdb/2024-01-01-03-54-21/
     RDKit          3D

 16 18  0  0  0  0  0  0  0  0999 V2000
  -24.1553  -17.8465  145.7021 C   0  0  0  0  0  0  0  0  0  0  0  0
  -24.2856  -16.6364  145.3494 C   0  0  0  0  0  0  0  0  0  0  0  0
  -24.5733  -15.7651  145.9979 C   0  0  0  0  0  0  0  0  0  0  0  0
  -24.7790  -14.3201  145.5847 C   0  0  0  0  0  0  0  0  0  0  0  0
  -25.3736  -13.2401  146.2096 C   0  0  0  0  0  0  0  0  0  0  0  0
  -25.0036  -11.9161  145.9969 C   0  0  0  0  0  0  0  0  0  0  0  0
  -23.3010  -18.6841  145.7133 C   0  0  0  0  0  0  0  0  0  0  0  0
  -24.1314  -11.6704  145.0117 C   0  0  0  0  0  0  0  0  0  0  0  0
  -23.3188  -12.6472  144.4590 C   0  0  0  0  0  0  0  0  0  0  0  0
  -23.6764  -14.0373  144.8031 C   0  0  0  0  0  0  0  0  0  0  0  0
  -23.3259  -19.9593  146.3974 C   0  0  0  0  0  0  0  0  0  0  0  0
  -25.8012  -10.9425  146.5366 O   0  0  0  0  0  0  0  0  0  0  0  0
  -25.0019  -15.9694  147.4373 C   0  0  0  0  0  0  0  0  0  0  0  0
  -24.4699  -16.9674  148.1964 C   0  0  0  0  0  0  0  0  0  0  0  0
  -23.8754  -17.8350  147.9593 C   0  0  0  0  0  0  0  0  0  0  0  0
  -23.3830  -18.5861  147.0099 C   0  0  0  0  0  0  0  0  0  0  0  0
  1  2  1  0
  2  3  1  0
  3  4  1  0
  1  7  2  3
  7 11  1  0
  6 12  1  0
  3 13  1  0
 13 14  2  3
 14 15  1  0
  7 16  1  0
 11 16  1  0
 15 16  1  0
  4  5  2  0
  5  6  1  0
  6  8  2  0
  8  9  1  0
  9 10  2  0
 10  4  1  0
M  END

$$$$
No_1504-/dssg/home/sw_qyf/PocketFlow/Model-Generation-Results/5HT2A_7WC7_rec_A_10.pdb/2024-01-01-03-54-21/
     RDKit          3D

 18 19  0  0  0  0  0  0  0  0999 V2000
  -24.1553  -17.8465  145.7021 C   0  0  0  0  0  0  0  0  0  0  0  0
  -24.6364  -17.2931  146.7091 C   0  0  0  0  0  0  0  0  0  0  0  0
  -24.5709  -15.9334  146.8074 C   0  0  0  0  0  0  0  0  0  0  0  0
  -24.2379  -15.1233  145.7159 C   0  0  0  0  0  0  0  0  0  0  0  0
  -23.7251  -15.7878  144.6028 C   0  0  0  0  0  0  0  0  0  0  0  0
  -23.7316  -17.0968  144.6427 N   0  0  0  0  0  0  0  0  0  0  0  0
  -24.0429  -19.2100  145.5626 N   0  0  0  0  0  0  0  0  0  0  0  0
  -24.2583  -13.6039  145.8467 C   0  0  0  0  0  0  0  0  0  0  0  0
  -23.3983  -12.8604  145.1617 C   0  0  0  0  0  0  0  0  0  0  0  0
  -23.5717  -11.4178  145.1716 C   0  0  0  0  0  0  0  0  0  0  0  0
  -24.9946  -11.2077  145.1516 C   0  0  0  0  0  0  0  0  0  0  0  0
  -25.9502  -11.9167  145.8392 C   0  0  0  0  0  0  0  0  0  0  0  0
  -25.6311  -13.2766  146.0275 C   0  0  0  0  0  0  0  0  0  0  0  0
  -27.3155  -11.4632  146.0949 C   0  0  0  0  0  0  0  0  0  0  0  0
  -28.3179  -11.8271  145.2053 C   0  0  0  0  0  0  0  0  0  0  0  0
  -29.0829  -11.0931  144.7713 C   0  0  0  0  0  0  0  0  0  0  0  0
  -29.7931  -10.2098  145.6237 N   0  0  0  0  0  0  0  0  0  0  0  0
  -29.4857  -10.8620  143.5287 O   0  0  0  0  0  0  0  0  0  0  0  0
  1  7  1  0
  4  8  1  0
 12 14  1  0
 14 15  2  3
 15 16  1  0
 16 17  1  0
 16 18  2  0
  1  2  2  0
  2  3  1  0
  3  4  2  0
  4  5  1  0
  5  6  2  0
  6  1  1  0
  8  9  2  0
  9 10  1  0
 10 11  2  0
 11 12  1  0
 12 13  2  0
 13  8  1  0
M  END

$$$$
No_1505-/dssg/home/sw_qyf/PocketFlow/Model-Generation-Results/5HT2A_7WC7_rec_A_10.pdb/2024-01-01-03-54-21/
     RDKit          3D

 35 37  0  0  0  0  0  0  0  0999 V2000
  -23.3109  -16.7473  145.0363 P   0  0  0  0  0  0  0  0  0  0  0  0
  -23.4117  -16.1089  146.1010 O   0  0  0  0  0  0  0  0  0  0  0  0
  -22.6603  -17.9951  145.1083 O   0  0  0  0  0  0  0  0  0  0  0  0
  -24.7792  -17.0829  144.4391 O   0  0  0  0  0  0  0  0  0  0  0  0
  -22.7530  -15.8272  143.8541 O   0  0  0  0  0  0  0  0  0  0  0  0
  -24.6245  -15.9184  146.9784 C   0  0  0  0  0  0  0  0  0  0  0  0
  -25.3041  -14.6809  146.8349 C   0  0  0  0  0  0  0  0  0  0  0  0
  -24.5653  -13.5302  146.4695 C   0  0  0  0  0  0  0  0  0  0  0  0
  -24.9056  -12.8083  145.3314 C   0  0  0  0  0  0  0  0  0  0  0  0
  -23.8402  -12.3421  144.5609 C   0  0  0  0  0  0  0  0  0  0  0  0
  -22.5707  -12.7870  145.3062 C   0  0  0  0  0  0  0  0  0  0  0  0
  -23.1949  -13.3641  146.4806 O   0  0  0  0  0  0  0  0  0  0  0  0
  -25.7386  -11.6520  145.7357 O   0  0  0  0  0  0  0  0  0  0  0  0
  -26.8173  -11.2438  145.1375 C   0  0  0  0  0  0  0  0  0  0  0  0
  -26.7575  -10.1571  144.3034 C   0  0  0  0  0  0  0  0  0  0  0  0
  -28.0733  -11.7109  145.3997 C   0  0  0  0  0  0  0  0  0  0  0  0
  -28.4467  -12.7390  146.3541 C   0  0  0  0  0  0  0  0  0  0  0  0
  -29.7824  -12.9147  146.7835 C   0  0  0  0  0  0  0  0  0  0  0  0
  -27.7969   -9.5625  143.6626 C   0  0  0  0  0  0  0  0  0  0  0  0
  -29.0768  -10.1012  143.9943 C   0  0  0  0  0  0  0  0  0  0  0  0
  -29.2247  -11.1577  144.8887 C   0  0  0  0  0  0  0  0  0  0  0  0
  -29.8994  -13.9946  147.8013 C   0  0  0  0  0  0  0  0  0  0  0  0
  -30.2906   -9.4258  143.3593 C   0  0  0  0  0  0  0  0  0  0  0  0
  -31.2416   -9.8371  143.7171 F   0  0  0  0  0  0  0  0  0  0  0  0
  -30.1993   -9.6471  141.9662 F   0  0  0  0  0  0  0  0  0  0  0  0
  -30.2149   -8.1010  143.3465 F   0  0  0  0  0  0  0  0  0  0  0  0
  -29.1218  -15.2272  147.6304 C   0  0  0  0  0  0  0  0  0  0  0  0
  -29.0929  -16.1019  148.7253 C   0  0  0  0  0  0  0  0  0  0  0  0
  -30.0913  -16.0764  149.7395 C   0  0  0  0  0  0  0  0  0  0  0  0
  -30.8480  -14.8869  149.8614 C   0  0  0  0  0  0  0  0  0  0  0  0
  -30.7681  -13.8875  148.9562 C   0  0  0  0  0  0  0  0  0  0  0  0
  -31.6695  -12.7365  149.1319 C   0  0  0  0  0  0  0  0  0  0  0  0
  -32.6928  -12.5973  150.0119 C   0  0  0  0  0  0  0  0  0  0  0  0
  -33.3971  -11.4320  150.1086 C   0  0  0  0  0  0  0  0  0  0  0  0
  -33.2425  -10.5361  151.0153 N   0  0  0  0  0  0  0  0  0  0  0  0
  1  2  1  0
  1  3  2  0
  1  4  1  0
  1  5  1  0
  2  6  1  0
  6  7  1  0
  7  8  1  0
  8  9  1  0
  9 10  1  0
 10 11  1  0
  8 12  1  0
 11 12  1  0
  9 13  1  0
 13 14  1  0
 16 17  1  0
 17 18  2  3
 18 22  1  0
 20 23  1  0
 23 24  1  0
 23 25  1  0
 23 26  1  0
 31 32  1  0
 32 33  2  3
 33 34  1  0
 34 35  1  0
 14 15  2  0
 15 19  1  0
 19 20  2  0
 20 21  1  0
 21 16  2  0
 16 14  1  0
 22 27  2  0
 27 28  1  0
 28 29  2  0
 29 30  1  0
 30 31  2  0
 31 22  1  0
M  END

$$$$
No_1506-/dssg/home/sw_qyf/PocketFlow/Model-Generation-Results/5HT2A_7WC7_rec_A_10.pdb/2024-01-01-03-54-21/
     RDKit          3D

 33 36  0  0  0  0  0  0  0  0999 V2000
  -23.1746  -16.6014  144.8668 C   0  0  0  0  0  0  0  0  0  0  0  0
  -23.8963  -15.5346  144.7885 C   0  0  0  0  0  0  0  0  0  0  0  0
  -23.6398  -14.5115  145.3281 C   0  0  0  0  0  0  0  0  0  0  0  0
  -24.3866  -13.2477  145.3906 C   0  0  0  0  0  0  0  0  0  0  0  0
  -23.7392  -12.0982  145.9891 C   0  0  0  0  0  0  0  0  0  0  0  0
  -23.1316  -17.4762  145.8522 C   0  0  0  0  0  0  0  0  0  0  0  0
  -23.8196  -17.1538  147.0516 C   0  0  0  0  0  0  0  0  0  0  0  0
  -23.2697  -17.2426  148.3432 C   0  0  0  0  0  0  0  0  0  0  0  0
  -24.0929  -17.1050  149.5650 C   0  0  0  0  0  0  0  0  0  0  0  0
  -25.4832  -16.8441  149.3888 C   0  0  0  0  0  0  0  0  0  0  0  0
  -26.0003  -16.5850  148.0933 C   0  0  0  0  0  0  0  0  0  0  0  0
  -25.2175  -16.7807  146.9703 C   0  0  0  0  0  0  0  0  0  0  0  0
  -27.4408  -16.2216  148.0249 C   0  0  0  0  0  0  0  0  0  0  0  0
  -27.7192  -15.0588  147.2603 C   0  0  0  0  0  0  0  0  0  0  0  0
  -28.9759  -14.5110  147.3179 C   0  0  0  0  0  0  0  0  0  0  0  0
  -29.4573  -13.4064  146.5808 C   0  0  0  0  0  0  0  0  0  0  0  0
  -28.5136  -12.7577  145.7287 C   0  0  0  0  0  0  0  0  0  0  0  0
  -27.2524  -13.3698  145.5533 C   0  0  0  0  0  0  0  0  0  0  0  0
  -26.8588  -14.4615  146.3641 C   0  0  0  0  0  0  0  0  0  0  0  0
  -28.9620  -11.6200  144.9360 C   0  0  0  0  0  0  0  0  0  0  0  0
  -29.7248  -10.5339  145.5140 C   0  0  0  0  0  0  0  0  0  0  0  0
  -30.0705   -9.5495  144.7082 N   0  0  0  0  0  0  0  0  0  0  0  0
  -29.8346   -9.4461  143.4330 C   0  0  0  0  0  0  0  0  0  0  0  0
  -30.3554   -8.4161  142.7259 C   0  0  0  0  0  0  0  0  0  0  0  0
  -29.8883   -8.0949  141.3887 C   0  0  0  0  0  0  0  0  0  0  0  0
  -30.2136   -7.0150  140.6066 C   0  0  0  0  0  0  0  0  0  0  0  0
  -28.6071  -11.3913  143.5979 C   0  0  0  0  0  0  0  0  0  0  0  0
  -29.0272  -10.3884  142.8511 C   0  0  0  0  0  0  0  0  0  0  0  0
  -29.4382   -7.0688  139.3459 C   0  0  0  0  0  0  0  0  0  0  0  0
  -28.5588   -8.1678  139.0283 C   0  0  0  0  0  0  0  0  0  0  0  0
  -28.8577   -9.0137  140.8369 C   0  0  0  0  0  0  0  0  0  0  0  0
  -28.6335   -9.9214  141.7404 F   0  0  0  0  0  0  0  0  0  0  0  0
  -28.2655   -8.9456  139.6803 C   0  0  0  0  0  0  0  0  0  0  0  0
  1  2  1  0
  2  3  2  3
  3  4  1  0
  4  5  2  0
  1  6  2  3
  6  7  1  0
 11 13  1  0
 17 20  1  0
 20 21  1  0
 21 22  1  0
 22 23  1  0
 23 24  1  0
 24 25  1  0
 20 27  1  0
 23 28  1  0
 27 28  1  0
 28 32  1  0
 13 14  1  0
 14 15  2  0
 15 16  1  0
 16 17  2  0
 17 18  1  0
 18 19  2  0
 19 14  1  0
 25 26  2  0
 26 29  1  0
 29 30  2  0
 30 33  1  0
 33 31  2  0
 31 25  1  0
  7  8  2  0
  8  9  1  0
  9 10  2  0
 10 11  1  0
 11 12  2  0
 12  7  1  0
M  END

$$$$
No_1507-/dssg/home/sw_qyf/PocketFlow/Model-Generation-Results/5HT2A_7WC7_rec_A_10.pdb/2024-01-01-03-54-21/
     RDKit          3D

 29 31  0  0  0  0  0  0  0  0999 V2000
  -24.1553  -17.8465  145.7021 C   0  0  0  0  0  0  0  0  0  0  0  0
  -23.9795  -18.4462  146.7426 C   0  0  0  0  0  0  0  0  0  0  0  0
  -25.1593  -16.8262  145.6925 C   0  0  0  0  0  0  0  0  0  0  0  0
  -25.9346  -16.5763  146.8154 C   0  0  0  0  0  0  0  0  0  0  0  0
  -27.0180  -15.6510  146.7805 C   0  0  0  0  0  0  0  0  0  0  0  0
  -26.9512  -14.7001  146.1507 C   0  0  0  0  0  0  0  0  0  0  0  0
  -25.9744  -14.5861  144.9905 C   0  0  0  0  0  0  0  0  0  0  0  0
  -25.8975  -13.4639  144.1352 C   0  0  0  0  0  0  0  0  0  0  0  0
  -25.0756  -15.6282  144.8221 C   0  0  0  0  0  0  0  0  0  0  0  0
  -26.9329  -12.5235  144.2115 C   0  0  0  0  0  0  0  0  0  0  0  0
  -27.1935  -11.5371  143.2764 C   0  0  0  0  0  0  0  0  0  0  0  0
  -28.3313  -10.6689  143.4724 C   0  0  0  0  0  0  0  0  0  0  0  0
  -28.8482   -9.8215  142.5492 C   0  0  0  0  0  0  0  0  0  0  0  0
  -29.8344   -8.8627  142.8831 C   0  0  0  0  0  0  0  0  0  0  0  0
  -30.3281   -7.8719  142.0240 C   0  0  0  0  0  0  0  0  0  0  0  0
  -29.7471   -7.8700  140.7474 C   0  0  0  0  0  0  0  0  0  0  0  0
  -28.8229   -8.8316  140.3470 C   0  0  0  0  0  0  0  0  0  0  0  0
  -28.4155   -9.7778  141.2646 C   0  0  0  0  0  0  0  0  0  0  0  0
  -28.4025   -8.5287  138.9167 C   0  0  0  0  0  0  0  0  0  0  0  0
  -23.3537  -17.8407  147.7664 C   0  0  0  0  0  0  0  0  0  0  0  0
  -24.1916  -17.1214  148.8418 C   0  0  0  0  0  0  0  0  0  0  0  0
  -23.7583  -16.8524  150.0901 C   0  0  0  0  0  0  0  0  0  0  0  0
  -25.4268  -16.3949  148.2641 C   0  0  0  0  0  0  0  0  0  0  0  0
  -28.4557   -9.1954  137.8574 C   0  0  0  0  0  0  0  0  0  0  0  0
  -22.4890  -16.9832  150.4358 O   0  0  0  0  0  0  0  0  0  0  0  0
  -28.8638  -10.5484  137.8501 C   0  0  0  0  0  0  0  0  0  0  0  0
  -28.0991  -11.3672  137.0401 C   0  0  0  0  0  0  0  0  0  0  0  0
  -27.8727   -9.8956  144.8817 C   0  0  0  0  0  0  0  0  0  0  0  0
  -24.6463  -16.8720  151.0864 O   0  0  0  0  0  0  0  0  0  0  0  0
  1  2  1  0
  7  8  1  0
  8 10  2  3
 10 11  1  0
 11 12  2  3
 12 13  1  0
 17 19  1  0
  2 20  2  0
 20 21  1  0
 21 22  1  0
  4 23  1  0
 21 23  1  0
 19 24  2  3
 22 25  2  0
 24 26  1  0
 26 27  2  0
 12 28  1  0
 22 29  1  0
  1  3  1  0
 13 14  2  0
 14 15  1  0
 15 16  2  0
 16 17  1  0
 17 18  2  0
 18 13  1  0
  3  4  2  0
  4  5  1  0
  5  6  2  0
  6  7  1  0
  7  9  2  0
  9  3  1  0
M  END

$$$$
No_1508-/dssg/home/sw_qyf/PocketFlow/Model-Generation-Results/5HT2A_7WC7_rec_A_10.pdb/2024-01-01-03-54-21/
     RDKit          3D

 18 20  0  0  0  0  0  0  0  0999 V2000
  -24.1553  -17.8465  145.7021 C   0  0  0  0  0  0  0  0  0  0  0  0
  -24.2856  -16.6364  145.3494 C   0  0  0  0  0  0  0  0  0  0  0  0
  -25.0033  -15.6772  146.0737 C   0  0  0  0  0  0  0  0  0  0  0  0
  -25.1197  -14.2835  145.7299 C   0  0  0  0  0  0  0  0  0  0  0  0
  -24.2707  -13.8793  144.6500 C   0  0  0  0  0  0  0  0  0  0  0  0
  -24.3823  -18.2848  146.6233 C   0  0  0  0  0  0  0  0  0  0  0  0
  -25.1430  -17.5821  147.6691 C   0  0  0  0  0  0  0  0  0  0  0  0
  -25.4002  -16.2453  147.4152 C   0  0  0  0  0  0  0  0  0  0  0  0
  -24.2847  -12.5000  144.3869 C   0  0  0  0  0  0  0  0  0  0  0  0
  -24.6727  -11.7934  145.6133 C   0  0  0  0  0  0  0  0  0  0  0  0
  -25.3653  -13.1390  146.5488 C   0  0  0  0  0  0  0  0  0  0  0  0
  -23.8897  -16.1695  144.0657 N   0  0  0  0  0  0  0  0  0  0  0  0
  -23.8429  -14.8268  143.8080 C   0  0  0  0  0  0  0  0  0  0  0  0
  -23.5503  -18.7365  144.7648 O   0  0  0  0  0  0  0  0  0  0  0  0
  -25.9256  -10.8981  145.4143 C   0  0  0  0  0  0  0  0  0  0  0  0
  -25.7085   -9.8736  144.7299 F   0  0  0  0  0  0  0  0  0  0  0  0
  -26.2958  -10.3286  146.7281 F   0  0  0  0  0  0  0  0  0  0  0  0
  -27.0280  -11.5379  145.0189 F   0  0  0  0  0  0  0  0  0  0  0  0
  5  9  1  0
  9 10  2  0
  4 11  1  0
 10 11  1  0
  1 14  1  0
 10 15  1  0
 15 16  1  0
 15 17  1  0
 15 18  1  0
  1  2  2  0
  3  8  2  0
  8  7  1  0
  7  6  2  0
  6  1  1  0
  2  3  1  0
  3  4  1  0
  4  5  2  0
  5 13  1  0
 13 12  2  0
 12  2  1  0
M  END

$$$$
No_1509-/dssg/home/sw_qyf/PocketFlow/Model-Generation-Results/5HT2A_7WC7_rec_A_10.pdb/2024-01-01-03-54-21/
     RDKit          3D

 35 38  0  0  0  0  0  0  0  0999 V2000
  -24.1553  -17.8465  145.7021 C   0  0  0  0  0  0  0  0  0  0  0  0
  -24.2856  -16.6364  145.3494 C   0  0  0  0  0  0  0  0  0  0  0  0
  -24.5733  -15.7651  145.9979 C   0  0  0  0  0  0  0  0  0  0  0  0
  -25.0272  -15.9886  147.3700 C   0  0  0  0  0  0  0  0  0  0  0  0
  -24.4993  -18.2276  147.0208 C   0  0  0  0  0  0  0  0  0  0  0  0
  -24.9009  -17.2232  147.9329 C   0  0  0  0  0  0  0  0  0  0  0  0
  -24.7156  -14.2654  145.5569 C   0  0  0  0  0  0  0  0  0  0  0  0
  -23.9527  -13.7875  144.6641 C   0  0  0  0  0  0  0  0  0  0  0  0
  -23.9098  -12.3574  144.4760 C   0  0  0  0  0  0  0  0  0  0  0  0
  -24.7465  -11.5746  145.2943 C   0  0  0  0  0  0  0  0  0  0  0  0
  -25.6197  -12.1108  146.2181 C   0  0  0  0  0  0  0  0  0  0  0  0
  -25.5350  -13.4725  146.5075 C   0  0  0  0  0  0  0  0  0  0  0  0
  -25.1999  -17.5440  149.3501 C   0  0  0  0  0  0  0  0  0  0  0  0
  -25.2511  -16.6387  150.1686 O   0  0  0  0  0  0  0  0  0  0  0  0
  -23.8939  -16.3958  143.9971 O   0  0  0  0  0  0  0  0  0  0  0  0
  -25.4768  -18.7073  149.7125 O   0  0  0  0  0  0  0  0  0  0  0  0
  -23.6548  -19.2490  144.7742 Cl  0  0  0  0  0  0  0  0  0  0  0  0
  -26.4129  -11.2785  146.9804 O   0  0  0  0  0  0  0  0  0  0  0  0
  -27.6962  -11.4295  146.5811 C   0  0  0  0  0  0  0  0  0  0  0  0
  -28.5717  -12.1979  147.3977 C   0  0  0  0  0  0  0  0  0  0  0  0
  -29.9583  -12.3012  147.1985 C   0  0  0  0  0  0  0  0  0  0  0  0
  -30.2997  -11.5988  146.1016 N   0  0  0  0  0  0  0  0  0  0  0  0
  -28.5578  -10.8502  145.6463 C   0  0  0  0  0  0  0  0  0  0  0  0
  -29.7423  -11.0269  145.3799 C   0  0  0  0  0  0  0  0  0  0  0  0
  -30.2798  -10.3006  144.3418 N   0  0  0  0  0  0  0  0  0  0  0  0
  -29.8641   -9.8478  143.1138 C   0  0  0  0  0  0  0  0  0  0  0  0
  -28.9646  -10.5768  142.3812 C   0  0  0  0  0  0  0  0  0  0  0  0
  -28.5889  -10.2296  141.0571 C   0  0  0  0  0  0  0  0  0  0  0  0
  -29.0174   -8.9980  140.5359 C   0  0  0  0  0  0  0  0  0  0  0  0
  -29.8793   -8.1717  141.3997 C   0  0  0  0  0  0  0  0  0  0  0  0
  -30.3273   -8.6267  142.6717 C   0  0  0  0  0  0  0  0  0  0  0  0
  -28.6411   -8.4732  139.2739 C   0  0  0  0  0  0  0  0  0  0  0  0
  -28.9066   -7.2582  138.8858 N   0  0  0  0  0  0  0  0  0  0  0  0
  -27.8099   -9.1996  138.4778 N   0  0  0  0  0  0  0  0  0  0  0  0
  -31.2643   -7.7740  143.4087 C   0  0  0  0  0  0  0  0  0  0  0  0
  3  7  1  0
  6 13  1  0
 13 14  1  0
  2 15  1  0
 13 16  2  0
  1 17  1  0
 11 18  1  0
 18 19  1  0
 24 25  1  0
 25 26  1  0
 29 32  1  0
 32 33  2  0
 32 34  1  0
 31 35  1  0
 26 27  2  0
 27 28  1  0
 28 29  2  0
 29 30  1  0
 30 31  2  0
 31 26  1  0
  1  2  2  0
  2  3  1  0
  3  4  2  0
  4  6  1  0
  6  5  2  0
  5  1  1  0
  7  8  2  0
  8  9  1  0
  9 10  2  0
 10 11  1  0
 11 12  2  0
 12  7  1  0
 19 20  2  0
 20 21  1  0
 21 22  2  0
 22 24  1  0
 24 23  2  0
 23 19  1  0
M  END

$$$$
No_1510-/dssg/home/sw_qyf/PocketFlow/Model-Generation-Results/5HT2A_7WC7_rec_A_10.pdb/2024-01-01-03-54-21/
     RDKit          3D

 10 11  0  0  0  0  0  0  0  0999 V2000
  -23.1746  -16.6014  144.8668 C   0  0  0  0  0  0  0  0  0  0  0  0
  -23.7011  -17.0158  145.9774 C   0  0  0  0  0  0  0  0  0  0  0  0
  -24.7096  -16.6222  146.3577 C   0  0  0  0  0  0  0  0  0  0  0  0
  -25.2589  -16.9410  147.8027 C   0  0  0  0  0  0  0  0  0  0  0  0
  -26.4623  -16.4173  148.3313 C   0  0  0  0  0  0  0  0  0  0  0  0
  -23.7746  -15.4747  144.2302 C   0  0  0  0  0  0  0  0  0  0  0  0
  -24.8824  -14.8618  144.8182 C   0  0  0  0  0  0  0  0  0  0  0  0
  -25.3598  -15.4040  145.9867 C   0  0  0  0  0  0  0  0  0  0  0  0
  -27.1114  -15.3626  147.6342 C   0  0  0  0  0  0  0  0  0  0  0  0
  -26.5598  -14.8326  146.4790 C   0  0  0  0  0  0  0  0  0  0  0  0
  1  2  2  0
  2  3  1  0
  8  7  1  0
  7  6  2  0
  6  1  1  0
  3  4  2  0
  4  5  1  0
  5  9  2  0
  9 10  1  0
 10  8  2  0
  8  3  1  0
M  END

$$$$
No_1511-/dssg/home/sw_qyf/PocketFlow/Model-Generation-Results/5HT2A_7WC7_rec_A_10.pdb/2024-01-01-03-54-21/
     RDKit          3D

 11 10  0  0  0  0  0  0  0  0999 V2000
  -23.8042  -18.1535  145.4053 O   0  0  0  0  0  0  0  0  0  0  0  0
  -24.3135  -17.1214  145.8338 C   0  0  0  0  0  0  0  0  0  0  0  0
  -24.8156  -17.0337  147.1279 C   0  0  0  0  0  0  0  0  0  0  0  0
  -24.0874  -17.6154  148.0941 C   0  0  0  0  0  0  0  0  0  0  0  0
  -23.1845  -16.9465  148.7191 N   0  0  0  0  0  0  0  0  0  0  0  0
  -24.3225  -15.9044  144.9704 C   0  0  0  0  0  0  0  0  0  0  0  0
  -25.2112  -14.8633  145.1600 C   0  0  0  0  0  0  0  0  0  0  0  0
  -25.0793  -13.6780  144.4122 C   0  0  0  0  0  0  0  0  0  0  0  0
  -25.8625  -12.5732  144.8557 C   0  0  0  0  0  0  0  0  0  0  0  0
  -26.9240  -12.8527  145.6863 C   0  0  0  0  0  0  0  0  0  0  0  0
  -27.1416  -14.0578  146.3709 C   0  0  0  0  0  0  0  0  0  0  0  0
  1  2  1  0
  2  3  1  0
  3  4  1  0
  4  5  1  0
  2  6  1  0
  6  7  2  3
  7  8  1  0
  8  9  2  3
  9 10  1  0
 10 11  2  0
M  END

$$$$
No_1512-/dssg/home/sw_qyf/PocketFlow/Model-Generation-Results/5HT2A_7WC7_rec_A_10.pdb/2024-01-01-03-54-21/
     RDKit          3D

 16 15  0  0  0  0  0  0  0  0999 V2000
  -23.1746  -16.6014  144.8668 C   0  0  0  0  0  0  0  0  0  0  0  0
  -23.8963  -15.5346  144.7885 C   0  0  0  0  0  0  0  0  0  0  0  0
  -25.0304  -15.2549  144.5358 C   0  0  0  0  0  0  0  0  0  0  0  0
  -25.8853  -14.7934  145.2672 C   0  0  0  0  0  0  0  0  0  0  0  0
  -25.4331  -13.6599  146.1680 C   0  0  0  0  0  0  0  0  0  0  0  0
  -24.9543  -12.6464  145.7813 C   0  0  0  0  0  0  0  0  0  0  0  0
  -24.1714  -12.4449  144.9226 C   0  0  0  0  0  0  0  0  0  0  0  0
  -23.1747  -11.4960  145.0673 C   0  0  0  0  0  0  0  0  0  0  0  0
  -23.9921  -17.7181  145.3236 C   0  0  0  0  0  0  0  0  0  0  0  0
  -24.9334  -17.6248  146.2610 C   0  0  0  0  0  0  0  0  0  0  0  0
  -25.2455  -17.1377  147.1412 C   0  0  0  0  0  0  0  0  0  0  0  0
  -25.8284  -17.1113  148.2911 C   0  0  0  0  0  0  0  0  0  0  0  0
  -25.5832  -17.4214  149.5067 C   0  0  0  0  0  0  0  0  0  0  0  0
  -24.1776  -17.2473  150.0159 C   0  0  0  0  0  0  0  0  0  0  0  0
  -23.1164  -17.3991  149.3675 N   0  0  0  0  0  0  0  0  0  0  0  0
  -27.3591  -14.8871  145.1184 C   0  0  0  0  0  0  0  0  0  0  0  0
  1  2  1  0
  2  3  2  3
  3  4  1  0
  4  5  1  0
  5  6  2  3
  6  7  1  0
  7  8  1  0
  1  9  2  3
  9 10  1  0
 10 11  2  3
 11 12  1  0
 12 13  2  3
 13 14  1  0
 14 15  1  0
  4 16  1  0
M  END

$$$$
No_1513-/dssg/home/sw_qyf/PocketFlow/Model-Generation-Results/5HT2A_7WC7_rec_A_10.pdb/2024-01-01-03-54-21/
     RDKit          3D

 35 36  0  0  0  0  0  0  0  0999 V2000
  -23.1746  -16.6014  144.8668 C   0  0  0  0  0  0  0  0  0  0  0  0
  -23.8963  -15.5346  144.7885 C   0  0  0  0  0  0  0  0  0  0  0  0
  -24.5755  -15.0383  145.9043 C   0  0  0  0  0  0  0  0  0  0  0  0
  -25.3266  -13.7882  145.9354 C   0  0  0  0  0  0  0  0  0  0  0  0
  -23.3055  -17.4826  145.9483 C   0  0  0  0  0  0  0  0  0  0  0  0
  -23.9717  -17.0786  147.1155 C   0  0  0  0  0  0  0  0  0  0  0  0
  -24.6279  -15.8543  147.1153 C   0  0  0  0  0  0  0  0  0  0  0  0
  -25.8438  -13.2945  144.9179 C   0  0  0  0  0  0  0  0  0  0  0  0
  -26.7274  -12.3651  144.9913 C   0  0  0  0  0  0  0  0  0  0  0  0
  -27.5069  -11.7058  143.9588 C   0  0  0  0  0  0  0  0  0  0  0  0
  -28.4138  -10.6408  144.2238 C   0  0  0  0  0  0  0  0  0  0  0  0
  -28.9001   -9.7518  143.3047 C   0  0  0  0  0  0  0  0  0  0  0  0
  -29.7852   -8.6945  143.5803 C   0  0  0  0  0  0  0  0  0  0  0  0
  -30.2426   -7.8377  142.6143 C   0  0  0  0  0  0  0  0  0  0  0  0
  -29.7796   -7.9864  141.2700 C   0  0  0  0  0  0  0  0  0  0  0  0
  -28.8840   -9.0300  141.0060 C   0  0  0  0  0  0  0  0  0  0  0  0
  -28.4759   -9.9038  142.0021 C   0  0  0  0  0  0  0  0  0  0  0  0
  -28.2795   -9.3573  139.7371 C   0  0  0  0  0  0  0  0  0  0  0  0
  -27.6653  -10.5383  139.4292 C   0  0  0  0  0  0  0  0  0  0  0  0
  -26.3775  -10.6198  139.1036 C   0  0  0  0  0  0  0  0  0  0  0  0
  -27.9844   -8.2726  138.8798 C   0  0  0  0  0  0  0  0  0  0  0  0
  -25.8513  -11.8861  138.8855 N   0  0  0  0  0  0  0  0  0  0  0  0
  -27.0059  -11.8990  146.3675 C   0  0  0  0  0  0  0  0  0  0  0  0
  -23.9566  -17.8641  148.3857 C   0  0  0  0  0  0  0  0  0  0  0  0
  -24.3788  -17.0711  149.6701 C   0  0  0  0  0  0  0  0  0  0  0  0
  -25.3305  -17.4575  150.4202 C   0  0  0  0  0  0  0  0  0  0  0  0
  -26.4043  -18.3041  150.1009 C   0  0  0  0  0  0  0  0  0  0  0  0
  -27.5962  -17.8543  150.7800 C   0  0  0  0  0  0  0  0  0  0  0  0
  -25.6823  -13.8569  143.7081 O   0  0  0  0  0  0  0  0  0  0  0  0
  -28.7851   -7.9810  137.7982 N   0  0  0  0  0  0  0  0  0  0  0  0
  -28.7329  -17.5071  150.0039 C   0  0  0  0  0  0  0  0  0  0  0  0
  -28.5325  -16.9210  148.7047 C   0  0  0  0  0  0  0  0  0  0  0  0
  -27.8478  -17.4013  147.7291 C   0  0  0  0  0  0  0  0  0  0  0  0
  -27.7236  -16.5828  146.5354 C   0  0  0  0  0  0  0  0  0  0  0  0
  -28.4485  -15.3727  146.4214 C   0  0  0  0  0  0  0  0  0  0  0  0
  3  4  1  0
  4  8  2  3
  8  9  1  0
  9 10  1  0
 10 11  2  3
 11 12  1  0
 16 18  1  0
 18 19  1  0
 19 20  2  3
 18 21  1  0
 20 22  1  0
  9 23  1  0
  6 24  1  0
 24 25  1  0
 25 26  2  3
 26 27  1  0
 27 28  1  0
  8 29  1  0
 21 30  1  0
 28 31  1  0
 31 32  1  0
 32 33  2  3
 33 34  1  0
 34 35  2  0
 12 13  2  0
 13 14  1  0
 14 15  2  0
 15 16  1  0
 16 17  2  0
 17 12  1  0
  1  2  2  0
  2  3  1  0
  3  7  2  0
  7  6  1  0
  6  5  2  0
  5  1  1  0
M  END

$$$$
No_1514-/dssg/home/sw_qyf/PocketFlow/Model-Generation-Results/5HT2A_7WC7_rec_A_10.pdb/2024-01-01-03-54-21/
     RDKit          3D

 12 12  0  0  0  0  0  0  0  0999 V2000
  -24.1553  -17.8465  145.7021 C   0  0  0  0  0  0  0  0  0  0  0  0
  -24.2855  -16.6364  145.3494 C   0  0  0  0  0  0  0  0  0  0  0  0
  -24.5733  -15.7651  145.9979 C   0  0  0  0  0  0  0  0  0  0  0  0
  -24.7088  -14.2765  145.5906 C   0  0  0  0  0  0  0  0  0  0  0  0
  -25.2269  -13.1991  146.2986 C   0  0  0  0  0  0  0  0  0  0  0  0
  -24.2801  -18.0885  146.9067 C   0  0  0  0  0  0  0  0  0  0  0  0
  -24.5749  -17.2049  147.9006 C   0  0  0  0  0  0  0  0  0  0  0  0
  -24.7182  -15.8028  147.4667 C   0  0  0  0  0  0  0  0  0  0  0  0
  -25.2562  -11.9125  145.8870 C   0  0  0  0  0  0  0  0  0  0  0  0
  -24.2346  -13.8683  144.2840 C   0  0  0  0  0  0  0  0  0  0  0  0
  -23.9339  -14.7930  143.4909 F   0  0  0  0  0  0  0  0  0  0  0  0
  -24.7633  -11.5042  144.6950 C   0  0  0  0  0  0  0  0  0  0  0  0
  3  4  1  0
  4  5  1  0
  5  9  2  3
  4 10  1  0
 10 11  1  0
  9 12  1  0
  1  2  2  0
  2  3  1  0
  3  8  2  0
  8  7  1  0
  7  6  2  0
  6  1  1  0
M  END

$$$$
No_1515-/dssg/home/sw_qyf/PocketFlow/Model-Generation-Results/5HT2A_7WC7_rec_A_10.pdb/2024-01-01-03-54-21/
     RDKit          3D

 18 18  0  0  0  0  0  0  0  0999 V2000
  -23.1746  -16.6014  144.8668 C   0  0  0  0  0  0  0  0  0  0  0  0
  -23.7011  -17.0158  145.9774 C   0  0  0  0  0  0  0  0  0  0  0  0
  -23.7336  -18.2775  146.3737 C   0  0  0  0  0  0  0  0  0  0  0  0
  -24.1960  -18.6445  147.6858 C   0  0  0  0  0  0  0  0  0  0  0  0
  -24.7100  -17.6145  148.5486 C   0  0  0  0  0  0  0  0  0  0  0  0
  -24.7929  -16.2635  148.0870 C   0  0  0  0  0  0  0  0  0  0  0  0
  -24.2508  -15.9434  146.8891 C   0  0  0  0  0  0  0  0  0  0  0  0
  -22.4415  -15.6338  144.7979 F   0  0  0  0  0  0  0  0  0  0  0  0
  -23.5090  -17.2190  143.7560 F   0  0  0  0  0  0  0  0  0  0  0  0
  -24.2678  -14.6791  146.5594 F   0  0  0  0  0  0  0  0  0  0  0  0
  -23.2895  -19.2517  145.6649 O   0  0  0  0  0  0  0  0  0  0  0  0
  -25.2386  -17.9430  149.9224 C   0  0  0  0  0  0  0  0  0  0  0  0
  -26.2737  -18.5216  150.0437 F   0  0  0  0  0  0  0  0  0  0  0  0
  -25.3361  -16.6572  150.5592 F   0  0  0  0  0  0  0  0  0  0  0  0
  -24.1701  -18.3484  150.6829 F   0  0  0  0  0  0  0  0  0  0  0  0
  -24.1489  -20.3891  145.6109 C   0  0  0  0  0  0  0  0  0  0  0  0
  -25.5325  -20.2284  145.8856 C   0  0  0  0  0  0  0  0  0  0  0  0
  -23.5770  -21.4681  145.4613 O   0  0  0  0  0  0  0  0  0  0  0  0
  1  2  1  0
  1  8  1  0
  1  9  1  0
  7 10  1  0
  3 11  1  0
  5 12  1  0
 12 13  1  0
 12 14  1  0
 12 15  1  0
 11 16  1  0
 16 17  1  0
 16 18  2  0
  2  3  2  0
  3  4  1  0
  4  5  2  0
  5  6  1  0
  6  7  2  0
  7  2  1  0
M  END

$$$$
No_1516-/dssg/home/sw_qyf/PocketFlow/Model-Generation-Results/5HT2A_7WC7_rec_A_10.pdb/2024-01-01-03-54-21/
     RDKit          3D

 11 11  0  0  0  0  0  0  0  0999 V2000
  -23.1746  -16.6014  144.8668 C   0  0  0  0  0  0  0  0  0  0  0  0
  -23.8963  -15.5346  144.7885 C   0  0  0  0  0  0  0  0  0  0  0  0
  -25.0304  -15.2549  144.5358 C   0  0  0  0  0  0  0  0  0  0  0  0
  -25.8853  -14.7934  145.2672 C   0  0  0  0  0  0  0  0  0  0  0  0
  -27.3492  -14.8162  145.2842 C   0  0  0  0  0  0  0  0  0  0  0  0
  -28.1066  -14.1519  146.2791 C   0  0  0  0  0  0  0  0  0  0  0  0
  -29.2349  -14.5841  146.8920 C   0  0  0  0  0  0  0  0  0  0  0  0
  -30.0213  -13.7219  147.6497 C   0  0  0  0  0  0  0  0  0  0  0  0
  -29.6150  -12.3425  147.7958 C   0  0  0  0  0  0  0  0  0  0  0  0
  -28.4517  -11.8445  147.1982 C   0  0  0  0  0  0  0  0  0  0  0  0
  -27.6836  -12.7697  146.4460 C   0  0  0  0  0  0  0  0  0  0  0  0
  1  2  1  0
  2  3  2  3
  3  4  1  0
  4  5  1  0
  5  6  1  0
  6  7  2  0
  7  8  1  0
  8  9  2  0
  9 10  1  0
 10 11  2  0
 11  6  1  0
M  END

$$$$
No_1517-/dssg/home/sw_qyf/PocketFlow/Model-Generation-Results/5HT2A_7WC7_rec_A_10.pdb/2024-01-01-03-54-21/
     RDKit          3D

 35 39  0  0  0  0  0  0  0  0999 V2000
  -24.1553  -17.8465  145.7021 C   0  0  0  0  0  0  0  0  0  0  0  0
  -23.9795  -18.4462  146.7426 C   0  0  0  0  0  0  0  0  0  0  0  0
  -24.3577  -16.4380  145.7329 C   0  0  0  0  0  0  0  0  0  0  0  0
  -24.4745  -15.6012  144.5587 C   0  0  0  0  0  0  0  0  0  0  0  0
  -24.5845  -14.1656  144.8311 C   0  0  0  0  0  0  0  0  0  0  0  0
  -24.6908  -13.6330  146.1427 C   0  0  0  0  0  0  0  0  0  0  0  0
  -24.0647  -17.8833  148.0762 C   0  0  0  0  0  0  0  0  0  0  0  0
  -24.3291  -16.5038  148.1786 C   0  0  0  0  0  0  0  0  0  0  0  0
  -24.4512  -15.7595  147.0720 C   0  0  0  0  0  0  0  0  0  0  0  0
  -24.6341  -14.3421  147.1947 C   0  0  0  0  0  0  0  0  0  0  0  0
  -24.8422  -12.1148  146.2052 C   0  0  0  0  0  0  0  0  0  0  0  0
  -24.9639  -11.3441  145.0639 C   0  0  0  0  0  0  0  0  0  0  0  0
  -25.6523  -10.0704  145.2066 C   0  0  0  0  0  0  0  0  0  0  0  0
  -26.3607   -9.6144  144.0173 C   0  0  0  0  0  0  0  0  0  0  0  0
  -27.7663  -10.0314  143.9494 C   0  0  0  0  0  0  0  0  0  0  0  0
  -28.3464  -10.9874  144.7819 C   0  0  0  0  0  0  0  0  0  0  0  0
  -29.4952  -10.7386  145.3915 C   0  0  0  0  0  0  0  0  0  0  0  0
  -29.8732  -11.5128  146.5114 N   0  0  0  0  0  0  0  0  0  0  0  0
  -29.0409  -12.5259  146.8333 C   0  0  0  0  0  0  0  0  0  0  0  0
  -27.9113  -12.8213  146.2581 N   0  0  0  0  0  0  0  0  0  0  0  0
  -27.4943  -12.0246  145.2309 C   0  0  0  0  0  0  0  0  0  0  0  0
  -28.6280   -9.2855  143.0184 C   0  0  0  0  0  0  0  0  0  0  0  0
  -29.2141   -8.2022  143.3577 C   0  0  0  0  0  0  0  0  0  0  0  0
  -30.0751   -7.4671  142.3991 C   0  0  0  0  0  0  0  0  0  0  0  0
  -30.1419   -8.0367  141.1045 C   0  0  0  0  0  0  0  0  0  0  0  0
  -29.3943   -9.1342  140.7838 C   0  0  0  0  0  0  0  0  0  0  0  0
  -28.6184   -9.7599  141.7633 C   0  0  0  0  0  0  0  0  0  0  0  0
  -29.5073  -13.3009  147.9503 N   0  0  0  0  0  0  0  0  0  0  0  0
  -30.5796  -13.1849  148.7024 C   0  0  0  0  0  0  0  0  0  0  0  0
  -31.4227  -12.0504  148.6497 C   0  0  0  0  0  0  0  0  0  0  0  0
  -32.5438  -11.9734  149.4630 C   0  0  0  0  0  0  0  0  0  0  0  0
  -33.4432  -10.9093  149.3192 C   0  0  0  0  0  0  0  0  0  0  0  0
  -30.9184  -14.1555  149.6469 C   0  0  0  0  0  0  0  0  0  0  0  0
  -32.0047  -14.0772  150.4991 C   0  0  0  0  0  0  0  0  0  0  0  0
  -32.8186  -12.9538  150.4013 C   0  0  0  0  0  0  0  0  0  0  0  0
  6 11  1  0
 11 12  2  3
 12 13  1  0
 13 14  1  0
 14 15  1  0
 15 16  1  0
 15 22  1  0
 19 28  1  0
 28 29  1  0
 31 32  1  0
 22 23  2  0
 23 24  1  0
 24 25  2  0
 25 26  1  0
 26 27  2  0
 27 22  1  0
  1  2  2  0
  2  7  1  0
  7  8  2  0
  8  9  1  0
  3  1  1  0
  3  4  2  0
  4  5  1  0
  5  6  2  0
  6 10  1  0
 10  9  2  0
  9  3  1  0
 29 30  2  0
 30 31  1  0
 31 35  2  0
 35 34  1  0
 34 33  2  0
 33 29  1  0
 16 17  2  0
 17 18  1  0
 18 19  2  0
 19 20  1  0
 20 21  2  0
 21 16  1  0
M  END

$$$$
No_1518-/dssg/home/sw_qyf/PocketFlow/Model-Generation-Results/5HT2A_7WC7_rec_A_10.pdb/2024-01-01-03-54-21/
     RDKit          3D

 17 19  0  0  0  0  0  0  0  0999 V2000
  -23.1746  -16.6014  144.8668 C   0  0  0  0  0  0  0  0  0  0  0  0
  -24.0189  -16.0564  145.8445 C   0  0  0  0  0  0  0  0  0  0  0  0
  -24.4145  -16.8299  146.9062 C   0  0  0  0  0  0  0  0  0  0  0  0
  -25.2730  -16.2838  147.9150 C   0  0  0  0  0  0  0  0  0  0  0  0
  -25.7919  -14.9951  147.6737 C   0  0  0  0  0  0  0  0  0  0  0  0
  -24.5377  -14.6789  145.6474 C   0  0  0  0  0  0  0  0  0  0  0  0
  -24.1196  -13.8271  144.6537 C   0  0  0  0  0  0  0  0  0  0  0  0
  -25.4048  -14.1729  146.7241 C   0  0  0  0  0  0  0  0  0  0  0  0
  -24.7524  -13.1779  144.0261 N   0  0  0  0  0  0  0  0  0  0  0  0
  -22.7219  -13.6790  144.4170 O   0  0  0  0  0  0  0  0  0  0  0  0
  -23.9936  -18.2165  147.0556 C   0  0  0  0  0  0  0  0  0  0  0  0
  -23.3661  -18.9063  146.1490 N   0  0  0  0  0  0  0  0  0  0  0  0
  -23.0367  -18.1542  144.9912 C   0  0  0  0  0  0  0  0  0  0  0  0
  -25.8764  -12.8099  146.6095 C   0  0  0  0  0  0  0  0  0  0  0  0
  -26.2574  -12.2268  145.8291 N   0  0  0  0  0  0  0  0  0  0  0  0
  -25.5811  -12.0774  144.5373 C   0  0  0  0  0  0  0  0  0  0  0  0
  -25.6799  -10.9195  143.9709 O   0  0  0  0  0  0  0  0  0  0  0  0
  6  7  1  0
  7  9  1  0
  7 10  2  0
  8 14  1  0
 14 15  2  0
  9 16  1  0
 15 16  1  0
 16 17  2  0
  1  2  2  0
  3 11  2  0
 11 12  1  0
 12 13  2  0
 13  1  1  0
  2  3  1  0
  3  4  1  0
  4  5  2  0
  5  8  1  0
  8  6  2  0
  6  2  1  0
M  END

$$$$
No_1519-/dssg/home/sw_qyf/PocketFlow/Model-Generation-Results/5HT2A_7WC7_rec_A_10.pdb/2024-01-01-03-54-21/
     RDKit          3D

 35 38  0  0  0  0  0  0  0  0999 V2000
  -24.1553  -17.8465  145.7021 C   0  0  0  0  0  0  0  0  0  0  0  0
  -24.2856  -16.6364  145.3494 C   0  0  0  0  0  0  0  0  0  0  0  0
  -24.7211  -15.5955  146.2115 C   0  0  0  0  0  0  0  0  0  0  0  0
  -24.8539  -14.2010  145.8739 C   0  0  0  0  0  0  0  0  0  0  0  0
  -25.3912  -13.2248  146.7184 C   0  0  0  0  0  0  0  0  0  0  0  0
  -24.5931  -18.2699  146.9809 C   0  0  0  0  0  0  0  0  0  0  0  0
  -25.1555  -17.3846  147.9076 C   0  0  0  0  0  0  0  0  0  0  0  0
  -25.2072  -15.9636  147.5445 C   0  0  0  0  0  0  0  0  0  0  0  0
  -24.3640  -13.8250  144.5657 C   0  0  0  0  0  0  0  0  0  0  0  0
  -25.3419  -11.8445  146.2821 C   0  0  0  0  0  0  0  0  0  0  0  0
  -23.8322  -14.6910  143.7292 C   0  0  0  0  0  0  0  0  0  0  0  0
  -23.7651  -16.1010  144.0553 C   0  0  0  0  0  0  0  0  0  0  0  0
  -26.2338  -11.6349  145.2443 C   0  0  0  0  0  0  0  0  0  0  0  0
  -26.1236  -10.3959  144.5626 C   0  0  0  0  0  0  0  0  0  0  0  0
  -27.0962  -10.0705  143.5710 C   0  0  0  0  0  0  0  0  0  0  0  0
  -28.0341  -11.0203  143.1838 C   0  0  0  0  0  0  0  0  0  0  0  0
  -28.0390  -12.2770  143.9482 C   0  0  0  0  0  0  0  0  0  0  0  0
  -27.1673  -12.5436  144.8814 C   0  0  0  0  0  0  0  0  0  0  0  0
  -29.0122  -10.6623  142.2250 C   0  0  0  0  0  0  0  0  0  0  0  0
  -29.2819   -9.5255  141.9893 N   0  0  0  0  0  0  0  0  0  0  0  0
  -30.3097   -8.8632  142.7378 C   0  0  0  0  0  0  0  0  0  0  0  0
  -30.4769   -7.4793  142.3449 N   0  0  0  0  0  0  0  0  0  0  0  0
  -30.9470   -9.2543  143.7179 N   0  0  0  0  0  0  0  0  0  0  0  0
  -29.7824   -6.9144  141.3656 C   0  0  0  0  0  0  0  0  0  0  0  0
  -29.4967   -7.6786  140.1622 C   0  0  0  0  0  0  0  0  0  0  0  0
  -29.1672   -8.7564  140.0267 C   0  0  0  0  0  0  0  0  0  0  0  0
  -28.9093   -9.1891  140.7707 C   0  0  0  0  0  0  0  0  0  0  0  0
  -28.4738   -8.7324  138.6443 C   0  0  0  0  0  0  0  0  0  0  0  0
  -29.0545   -8.1071  137.8242 F   0  0  0  0  0  0  0  0  0  0  0  0
  -27.1281   -8.3499  138.6198 F   0  0  0  0  0  0  0  0  0  0  0  0
  -28.1361  -10.0644  138.1485 F   0  0  0  0  0  0  0  0  0  0  0  0
  -23.5770  -19.1160  144.7085 Cl  0  0  0  0  0  0  0  0  0  0  0  0
  -25.5169  -17.7025  149.3264 C   0  0  0  0  0  0  0  0  0  0  0  0
  -26.6928  -17.7385  149.6892 O   0  0  0  0  0  0  0  0  0  0  0  0
  -24.5068  -18.0588  150.2704 O   0  0  0  0  0  0  0  0  0  0  0  0
  4  5  1  0
  5 10  2  3
 10 13  1  0
 16 19  1  0
 19 20  1  0
 20 21  1  0
 21 22  1  0
 21 23  2  0
 22 24  1  0
 24 25  1  0
 25 26  2  0
 20 27  1  0
 26 27  1  0
 26 28  1  0
 28 29  1  0
 28 30  1  0
 28 31  1  0
  1 32  1  0
  7 33  1  0
 33 34  2  0
 33 35  1  0
  3  4  1  0
  4  9  2  0
  9 11  1  0
 11 12  2  0
 12  2  1  0
 13 14  2  0
 14 15  1  0
 15 16  2  0
 16 17  1  0
 17 18  2  0
 18 13  1  0
  1  2  2  0
  2  3  1  0
  3  8  2  0
  8  7  1  0
  7  6  2  0
  6  1  1  0
M  END

$$$$
No_1520-/dssg/home/sw_qyf/PocketFlow/Model-Generation-Results/5HT2A_7WC7_rec_A_10.pdb/2024-01-01-03-54-21/
     RDKit          3D

 22 23  0  0  0  0  0  0  0  0999 V2000
  -23.1746  -16.6014  144.8668 C   0  0  0  0  0  0  0  0  0  0  0  0
  -24.0189  -16.0564  145.8445 C   0  0  0  0  0  0  0  0  0  0  0  0
  -24.4850  -14.7380  145.6359 C   0  0  0  0  0  0  0  0  0  0  0  0
  -25.3334  -14.0797  146.6105 C   0  0  0  0  0  0  0  0  0  0  0  0
  -25.7120  -12.7595  146.4431 C   0  0  0  0  0  0  0  0  0  0  0  0
  -25.2808  -11.9605  145.3602 C   0  0  0  0  0  0  0  0  0  0  0  0
  -24.2994  -12.5741  144.5564 C   0  0  0  0  0  0  0  0  0  0  0  0
  -23.8450  -13.9153  144.6819 C   0  0  0  0  0  0  0  0  0  0  0  0
  -25.0801  -16.9346  146.3861 C   0  0  0  0  0  0  0  0  0  0  0  0
  -24.7006  -17.3822  147.6192 C   0  0  0  0  0  0  0  0  0  0  0  0
  -23.4811  -17.9919  147.7921 C   0  0  0  0  0  0  0  0  0  0  0  0
  -25.6217  -10.6983  145.1891 N   0  0  0  0  0  0  0  0  0  0  0  0
  -26.8927  -10.4334  144.5924 C   0  0  0  0  0  0  0  0  0  0  0  0
  -28.0088  -11.1423  144.9503 C   0  0  0  0  0  0  0  0  0  0  0  0
  -29.2552  -10.6631  144.4900 C   0  0  0  0  0  0  0  0  0  0  0  0
  -29.4613   -9.5785  143.6932 C   0  0  0  0  0  0  0  0  0  0  0  0
  -28.2218   -8.9430  143.2895 C   0  0  0  0  0  0  0  0  0  0  0  0
  -27.0360   -9.2552  143.8452 C   0  0  0  0  0  0  0  0  0  0  0  0
  -30.8085   -9.2273  143.3826 C   0  0  0  0  0  0  0  0  0  0  0  0
  -30.8265   -8.4523  142.3865 O   0  0  0  0  0  0  0  0  0  0  0  0
  -25.5436  -17.1938  148.7958 C   0  0  0  0  0  0  0  0  0  0  0  0
  -26.7233  -16.9478  148.6970 O   0  0  0  0  0  0  0  0  0  0  0  0
  1  2  1  0
  2  9  1  0
  9 10  1  0
 10 11  1  0
  6 12  1  0
 12 13  1  0
 16 19  1  0
 19 20  1  0
 10 21  1  0
 21 22  2  0
  2  3  1  0
 13 14  2  0
 14 15  1  0
 15 16  2  0
 16 17  1  0
 17 18  2  0
 18 13  1  0
  3  4  2  0
  4  5  1  0
  5  6  2  0
  6  7  1  0
  7  8  2  0
  8  3  1  0
M  END

$$$$
No_1521-/dssg/home/sw_qyf/PocketFlow/Model-Generation-Results/5HT2A_7WC7_rec_A_10.pdb/2024-01-01-03-54-21/
     RDKit          3D

 13 13  0  0  0  0  0  0  0  0999 V2000
  -24.1553  -17.8465  145.7021 C   0  0  0  0  0  0  0  0  0  0  0  0
  -23.9795  -18.4462  146.7426 C   0  0  0  0  0  0  0  0  0  0  0  0
  -25.1196  -16.8106  145.6408 C   0  0  0  0  0  0  0  0  0  0  0  0
  -25.9237  -16.5070  146.7422 C   0  0  0  0  0  0  0  0  0  0  0  0
  -26.9588  -15.5563  146.6457 C   0  0  0  0  0  0  0  0  0  0  0  0
  -26.8349  -14.5437  145.7143 C   0  0  0  0  0  0  0  0  0  0  0  0
  -25.9431  -14.6698  144.6072 C   0  0  0  0  0  0  0  0  0  0  0  0
  -24.9911  -15.3349  144.7343 C   0  0  0  0  0  0  0  0  0  0  0  0
  -23.5044  -17.7229  147.8203 C   0  0  0  0  0  0  0  0  0  0  0  0
  -22.5166  -17.7668  148.5882 C   0  0  0  0  0  0  0  0  0  0  0  0
  -22.5457  -16.7988  149.7748 C   0  0  0  0  0  0  0  0  0  0  0  0
  -25.9045  -13.4317  143.7835 C   0  0  0  0  0  0  0  0  0  0  0  0
  -26.6273  -13.6535  142.6390 O   0  0  0  0  0  0  0  0  0  0  0  0
  1  2  2  3
  1  3  1  0
  3  4  1  0
  4  5  1  0
  5  6  1  0
  6  7  1  0
  3  8  1  0
  7  8  1  0
  2  9  1  0
  9 10  2  3
 10 11  1  0
  7 12  1  0
 12 13  1  0
M  END

$$$$
No_1522-/dssg/home/sw_qyf/PocketFlow/Model-Generation-Results/5HT2A_7WC7_rec_A_10.pdb/2024-01-01-03-54-21/
     RDKit          3D

 13 13  0  0  0  0  0  0  0  0999 V2000
  -23.1746  -16.6014  144.8668 C   0  0  0  0  0  0  0  0  0  0  0  0
  -23.7011  -17.0158  145.9774 C   0  0  0  0  0  0  0  0  0  0  0  0
  -24.2134  -16.0722  146.8877 C   0  0  0  0  0  0  0  0  0  0  0  0
  -23.3742  -15.2706  144.3922 C   0  0  0  0  0  0  0  0  0  0  0  0
  -24.0638  -14.3065  145.2723 C   0  0  0  0  0  0  0  0  0  0  0  0
  -24.4769  -14.7246  146.5384 C   0  0  0  0  0  0  0  0  0  0  0  0
  -24.1665  -12.9848  144.7170 C   0  0  0  0  0  0  0  0  0  0  0  0
  -23.7463  -11.9728  145.8221 C   0  0  0  0  0  0  0  0  0  0  0  0
  -23.5636  -18.4433  146.4527 C   0  0  0  0  0  0  0  0  0  0  0  0
  -22.5429  -18.6710  147.1157 F   0  0  0  0  0  0  0  0  0  0  0  0
  -24.6594  -18.6681  147.3359 F   0  0  0  0  0  0  0  0  0  0  0  0
  -23.6267  -19.2964  145.4898 F   0  0  0  0  0  0  0  0  0  0  0  0
  -24.6016  -12.7185  143.7104 O   0  0  0  0  0  0  0  0  0  0  0  0
  5  7  1  0
  7  8  1  0
  2  9  1  0
  9 10  1  0
  9 11  1  0
  9 12  1  0
  7 13  2  0
  1  2  2  0
  2  3  1  0
  3  6  2  0
  6  5  1  0
  5  4  2  0
  4  1  1  0
M  END

$$$$
No_1523-/dssg/home/sw_qyf/PocketFlow/Model-Generation-Results/5HT2A_7WC7_rec_A_10.pdb/2024-01-01-03-54-21/
     RDKit          3D

  6  6  0  0  0  0  0  0  0  0999 V2000
  -24.1553  -17.8465  145.7021 C   0  0  0  0  0  0  0  0  0  0  0  0
  -23.9795  -18.4462  146.7426 C   0  0  0  0  0  0  0  0  0  0  0  0
  -25.1593  -16.8262  145.6925 C   0  0  0  0  0  0  0  0  0  0  0  0
  -26.3426  -16.9003  146.3448 C   0  0  0  0  0  0  0  0  0  0  0  0
  -24.9078  -18.3640  147.8289 C   0  0  0  0  0  0  0  0  0  0  0  0
  -26.0312  -17.5122  147.7122 C   0  0  0  0  0  0  0  0  0  0  0  0
  1  2  2  0
  2  5  1  0
  5  6  2  0
  6  4  1  0
  4  3  2  0
  3  1  1  0
M  END

$$$$
No_1524-/dssg/home/sw_qyf/PocketFlow/Model-Generation-Results/5HT2A_7WC7_rec_A_10.pdb/2024-01-01-03-54-21/
     RDKit          3D

 35 37  0  0  0  0  0  0  0  0999 V2000
  -24.0934  -18.1020  145.4883 Cl  0  0  0  0  0  0  0  0  0  0  0  0
  -24.4464  -18.1212  146.9585 C   0  0  0  0  0  0  0  0  0  0  0  0
  -25.6690  -17.4336  147.3666 C   0  0  0  0  0  0  0  0  0  0  0  0
  -25.4696  -15.9822  147.5116 C   0  0  0  0  0  0  0  0  0  0  0  0
  -25.3314  -15.2298  146.2484 C   0  0  0  0  0  0  0  0  0  0  0  0
  -26.1502  -14.3731  145.9425 C   0  0  0  0  0  0  0  0  0  0  0  0
  -25.8867  -13.6070  144.6554 C   0  0  0  0  0  0  0  0  0  0  0  0
  -24.8553  -14.0758  143.8088 C   0  0  0  0  0  0  0  0  0  0  0  0
  -23.9862  -15.0655  144.2951 C   0  0  0  0  0  0  0  0  0  0  0  0
  -24.1476  -15.6123  145.5320 C   0  0  0  0  0  0  0  0  0  0  0  0
  -26.8643  -12.5782  144.1540 C   0  0  0  0  0  0  0  0  0  0  0  0
  -27.5483  -11.8634  145.0069 N   0  0  0  0  0  0  0  0  0  0  0  0
  -28.4988  -10.9503  144.6354 C   0  0  0  0  0  0  0  0  0  0  0  0
  -28.2005   -9.9754  143.6984 C   0  0  0  0  0  0  0  0  0  0  0  0
  -29.2245   -9.1669  143.1998 C   0  0  0  0  0  0  0  0  0  0  0  0
  -28.9695   -8.4295  142.0054 C   0  0  0  0  0  0  0  0  0  0  0  0
  -29.7484   -7.2442  141.7023 C   0  0  0  0  0  0  0  0  0  0  0  0
  -30.9612   -7.2156  142.3184 N   0  0  0  0  0  0  0  0  0  0  0  0
  -31.3540   -8.0491  143.3316 C   0  0  0  0  0  0  0  0  0  0  0  0
  -30.4560   -9.0604  143.7773 C   0  0  0  0  0  0  0  0  0  0  0  0
  -29.4869   -6.4954  140.6935 N   0  0  0  0  0  0  0  0  0  0  0  0
  -27.1135  -12.5920  142.9451 O   0  0  0  0  0  0  0  0  0  0  0  0
  -29.6319  -11.1218  145.1284 O   0  0  0  0  0  0  0  0  0  0  0  0
  -23.2602  -17.6495  147.7466 N   0  0  0  0  0  0  0  0  0  0  0  0
  -22.0629  -17.3996  147.3120 C   0  0  0  0  0  0  0  0  0  0  0  0
  -23.4672  -17.4564  149.2312 C   0  0  0  0  0  0  0  0  0  0  0  0
  -24.5411  -17.8621  149.8825 C   0  0  0  0  0  0  0  0  0  0  0  0
  -24.8669  -17.2293  151.1597 C   0  0  0  0  0  0  0  0  0  0  0  0
  -23.7342  -16.5910  151.7508 C   0  0  0  0  0  0  0  0  0  0  0  0
  -22.4525  -16.4465  151.0702 C   0  0  0  0  0  0  0  0  0  0  0  0
  -22.3859  -16.7299  149.8213 C   0  0  0  0  0  0  0  0  0  0  0  0
  -26.6896  -17.6302  146.4022 O   0  0  0  0  0  0  0  0  0  0  0  0
  -29.0521   -7.0153  139.4978 C   0  0  0  0  0  0  0  0  0  0  0  0
  -28.6931   -8.4219  139.4563 C   0  0  0  0  0  0  0  0  0  0  0  0
  -28.1728   -9.0039  138.2837 C   0  0  0  0  0  0  0  0  0  0  0  0
  1  2  1  0
  2  3  1  0
  3  4  1  0
  4  5  1  0
  7 11  1  0
 11 12  1  0
 12 13  1  0
 13 14  1  0
 17 21  1  0
 11 22  2  0
 13 23  2  0
  2 24  1  0
 24 25  1  0
 24 26  1  0
  3 32  1  0
 21 33  1  0
 33 34  1  0
 34 35  1  0
 14 15  1  0
 26 27  2  0
 27 28  1  0
 28 29  2  0
 29 30  1  0
 30 31  2  0
 31 26  1  0
  5  6  2  0
  6  7  1  0
  7  8  2  0
  8  9  1  0
  9 10  2  0
 10  5  1  0
 15 16  2  0
 16 17  1  0
 17 18  2  0
 18 19  1  0
 19 20  2  0
 20 15  1  0
M  END

$$$$
No_1525-/dssg/home/sw_qyf/PocketFlow/Model-Generation-Results/5HT2A_7WC7_rec_A_10.pdb/2024-01-01-03-54-21/
     RDKit          3D

 23 24  0  0  0  0  0  0  0  0999 V2000
  -24.1553  -17.8465  145.7021 C   0  0  0  0  0  0  0  0  0  0  0  0
  -24.6364  -17.2931  146.7091 C   0  0  0  0  0  0  0  0  0  0  0  0
  -25.8608  -16.5592  146.5934 C   0  0  0  0  0  0  0  0  0  0  0  0
  -26.9933  -16.9082  147.1889 C   0  0  0  0  0  0  0  0  0  0  0  0
  -28.2350  -16.1839  146.8943 C   0  0  0  0  0  0  0  0  0  0  0  0
  -28.1591  -14.9305  146.2109 C   0  0  0  0  0  0  0  0  0  0  0  0
  -26.9098  -14.5235  145.6600 C   0  0  0  0  0  0  0  0  0  0  0  0
  -25.7461  -15.3614  145.8720 C   0  0  0  0  0  0  0  0  0  0  0  0
  -26.8049  -13.2839  144.9023 C   0  0  0  0  0  0  0  0  0  0  0  0
  -26.6641  -12.1105  145.5844 C   0  0  0  0  0  0  0  0  0  0  0  0
  -26.6042  -10.8321  144.9236 C   0  0  0  0  0  0  0  0  0  0  0  0
  -27.5844  -10.5203  143.8989 C   0  0  0  0  0  0  0  0  0  0  0  0
  -28.6344  -10.4262  144.0699 C   0  0  0  0  0  0  0  0  0  0  0  0
  -29.6296   -9.9920  143.0916 C   0  0  0  0  0  0  0  0  0  0  0  0
  -29.0886   -9.9801  141.7844 C   0  0  0  0  0  0  0  0  0  0  0  0
  -27.8649  -10.4940  141.4890 C   0  0  0  0  0  0  0  0  0  0  0  0
  -27.0116  -10.7786  142.5986 C   0  0  0  0  0  0  0  0  0  0  0  0
  -24.0123  -17.4769  148.0595 C   0  0  0  0  0  0  0  0  0  0  0  0
  -24.6559  -17.6332  149.0279 F   0  0  0  0  0  0  0  0  0  0  0  0
  -23.1536  -16.2875  148.3432 F   0  0  0  0  0  0  0  0  0  0  0  0
  -27.4275  -10.5324  140.1042 C   0  0  0  0  0  0  0  0  0  0  0  0
  -26.8981  -11.5672  139.6755 O   0  0  0  0  0  0  0  0  0  0  0  0
  -27.4150   -9.4708  139.3706 O   0  0  0  0  0  0  0  0  0  0  0  0
  1  2  1  0
  2  3  1  0
  7  9  1  0
  9 10  1  0
 10 11  2  3
 11 12  1  0
  2 18  1  0
 18 19  1  0
 18 20  1  0
 16 21  1  0
 21 22  1  0
 21 23  2  0
 12 13  2  0
 13 14  1  0
 14 15  2  0
 15 16  1  0
 16 17  2  0
 17 12  1  0
  3  4  2  0
  4  5  1  0
  5  6  2  0
  6  7  1  0
  7  8  2  0
  8  3  1  0
M  END

$$$$
No_1526-/dssg/home/sw_qyf/PocketFlow/Model-Generation-Results/5HT2A_7WC7_rec_A_10.pdb/2024-01-01-03-54-21/
     RDKit          3D

  7  7  0  0  0  0  0  0  0  0999 V2000
  -23.1746  -16.6014  144.8668 C   0  0  0  0  0  0  0  0  0  0  0  0
  -24.0189  -16.0564  145.8445 C   0  0  0  0  0  0  0  0  0  0  0  0
  -24.4145  -16.8299  146.9062 C   0  0  0  0  0  0  0  0  0  0  0  0
  -25.2730  -16.2838  147.9150 C   0  0  0  0  0  0  0  0  0  0  0  0
  -25.7919  -14.9951  147.6737 C   0  0  0  0  0  0  0  0  0  0  0  0
  -24.5377  -14.6789  145.6474 C   0  0  0  0  0  0  0  0  0  0  0  0
  -25.4158  -14.1968  146.6885 C   0  0  0  0  0  0  0  0  0  0  0  0
  1  2  1  0
  2  3  2  0
  3  4  1  0
  4  5  2  0
  5  7  1  0
  7  6  2  0
  6  2  1  0
M  END

$$$$
No_1527-/dssg/home/sw_qyf/PocketFlow/Model-Generation-Results/5HT2A_7WC7_rec_A_10.pdb/2024-01-01-03-54-21/
     RDKit          3D

 22 24  0  0  0  0  0  0  0  0999 V2000
  -23.8931  -18.2534  145.3804 F   0  0  0  0  0  0  0  0  0  0  0  0
  -24.1483  -17.4442  146.3400 C   0  0  0  0  0  0  0  0  0  0  0  0
  -24.1779  -17.7762  147.6608 C   0  0  0  0  0  0  0  0  0  0  0  0
  -24.6113  -16.0736  145.9746 C   0  0  0  0  0  0  0  0  0  0  0  0
  -24.5593  -15.5724  144.7344 C   0  0  0  0  0  0  0  0  0  0  0  0
  -25.1915  -14.2921  144.4445 C   0  0  0  0  0  0  0  0  0  0  0  0
  -24.6144  -16.9239  148.7285 C   0  0  0  0  0  0  0  0  0  0  0  0
  -25.2999  -15.7703  148.3641 C   0  0  0  0  0  0  0  0  0  0  0  0
  -25.2487  -15.2842  147.0650 C   0  0  0  0  0  0  0  0  0  0  0  0
  -26.4899  -14.2965  144.1819 C   0  0  0  0  0  0  0  0  0  0  0  0
  -27.1293  -13.0329  143.8708 C   0  0  0  0  0  0  0  0  0  0  0  0
  -27.6093  -12.8816  142.5863 C   0  0  0  0  0  0  0  0  0  0  0  0
  -28.0520  -11.6319  141.9353 C   0  0  0  0  0  0  0  0  0  0  0  0
  -28.4402  -10.5621  142.8714 C   0  0  0  0  0  0  0  0  0  0  0  0
  -28.0820  -10.8651  144.2951 C   0  0  0  0  0  0  0  0  0  0  0  0
  -27.4830  -11.9536  144.7474 C   0  0  0  0  0  0  0  0  0  0  0  0
  -29.0165   -9.3848  142.4497 C   0  0  0  0  0  0  0  0  0  0  0  0
  -28.9160   -8.9330  141.1425 C   0  0  0  0  0  0  0  0  0  0  0  0
  -29.6253   -7.8285  140.6698 C   0  0  0  0  0  0  0  0  0  0  0  0
  -30.4998   -7.1802  141.6092 C   0  0  0  0  0  0  0  0  0  0  0  0
  -30.6677   -7.6585  142.8884 C   0  0  0  0  0  0  0  0  0  0  0  0
  -29.9854   -8.8238  143.3212 C   0  0  0  0  0  0  0  0  0  0  0  0
  1  2  1  0
  4  5  1  0
  5  6  1  0
  6 10  2  3
 10 11  1  0
 14 17  1  0
 17 18  2  0
 18 19  1  0
 19 20  2  0
 20 21  1  0
 21 22  2  0
 22 17  1  0
 11 12  2  0
 12 13  1  0
 13 14  2  0
 14 15  1  0
 15 16  2  0
 16 11  1  0
  2  3  2  0
  3  7  1  0
  7  8  2  0
  8  9  1  0
  9  4  2  0
  4  2  1  0
M  END

$$$$
No_1528-/dssg/home/sw_qyf/PocketFlow/Model-Generation-Results/5HT2A_7WC7_rec_A_10.pdb/2024-01-01-03-54-21/
     RDKit          3D

 13 14  0  0  0  0  0  0  0  0999 V2000
  -24.1553  -17.8465  145.7021 C   0  0  0  0  0  0  0  0  0  0  0  0
  -24.6364  -17.2931  146.7091 C   0  0  0  0  0  0  0  0  0  0  0  0
  -24.5709  -15.9334  146.8074 C   0  0  0  0  0  0  0  0  0  0  0  0
  -24.3883  -15.1807  145.6115 C   0  0  0  0  0  0  0  0  0  0  0  0
  -24.4653  -13.7482  145.5544 C   0  0  0  0  0  0  0  0  0  0  0  0
  -23.7872  -17.2069  144.5261 C   0  0  0  0  0  0  0  0  0  0  0  0
  -23.8361  -15.8256  144.5760 C   0  0  0  0  0  0  0  0  0  0  0  0
  -23.5399  -12.9734  144.9822 C   0  0  0  0  0  0  0  0  0  0  0  0
  -23.7113  -11.6128  145.1256 N   0  0  0  0  0  0  0  0  0  0  0  0
  -25.5353  -12.9996  146.1817 C   0  0  0  0  0  0  0  0  0  0  0  0
  -25.6802  -11.6752  146.2888 C   0  0  0  0  0  0  0  0  0  0  0  0
  -24.6585  -11.0072  145.6551 N   0  0  0  0  0  0  0  0  0  0  0  0
  -24.0195  -19.3635  145.8746 C   0  0  0  0  0  0  0  0  0  0  0  0
  4  5  1  0
  1 13  1  0
  5  8  2  0
  8  9  1  0
  9 12  2  0
 12 11  1  0
 11 10  2  0
 10  5  1  0
  1  2  2  0
  2  3  1  0
  3  4  2  0
  4  7  1  0
  7  6  2  0
  6  1  1  0
M  END

$$$$
No_1529-/dssg/home/sw_qyf/PocketFlow/Model-Generation-Results/5HT2A_7WC7_rec_A_10.pdb/2024-01-01-03-54-21/
     RDKit          3D

 18 20  0  0  0  0  0  0  0  0999 V2000
  -23.1746  -16.6014  144.8668 C   0  0  0  0  0  0  0  0  0  0  0  0
  -23.8963  -15.5346  144.7885 C   0  0  0  0  0  0  0  0  0  0  0  0
  -24.5755  -15.0383  145.9043 C   0  0  0  0  0  0  0  0  0  0  0  0
  -25.3266  -13.7882  145.9354 C   0  0  0  0  0  0  0  0  0  0  0  0
  -23.3054  -17.4824  145.9484 C   0  0  0  0  0  0  0  0  0  0  0  0
  -23.9716  -17.0786  147.1155 C   0  0  0  0  0  0  0  0  0  0  0  0
  -24.6279  -15.8542  147.1153 C   0  0  0  0  0  0  0  0  0  0  0  0
  -24.6661  -12.6411  146.3187 C   0  0  0  0  0  0  0  0  0  0  0  0
  -25.3587  -11.3879  146.2957 C   0  0  0  0  0  0  0  0  0  0  0  0
  -26.6718  -11.3137  145.7362 C   0  0  0  0  0  0  0  0  0  0  0  0
  -27.3032  -12.4576  145.3963 C   0  0  0  0  0  0  0  0  0  0  0  0
  -26.6368  -13.7261  145.4618 C   0  0  0  0  0  0  0  0  0  0  0  0
  -23.9592  -17.8639  148.3845 C   0  0  0  0  0  0  0  0  0  0  0  0
  -25.1806  -17.6977  149.1636 C   0  0  0  0  0  0  0  0  0  0  0  0
  -25.9999  -16.6719  148.9700 C   0  0  0  0  0  0  0  0  0  0  0  0
  -25.8305  -15.7186  147.8758 C   0  0  0  0  0  0  0  0  0  0  0  0
  -23.8017  -14.7143  143.7646 O   0  0  0  0  0  0  0  0  0  0  0  0
  -27.2429  -14.7799  145.0558 F   0  0  0  0  0  0  0  0  0  0  0  0
  3  4  1  0
  2 17  1  0
 12 18  1  0
  4  8  2  0
  8  9  1  0
  9 10  2  0
 10 11  1  0
 11 12  2  0
 12  4  1  0
  1  2  2  0
  2  3  1  0
  3  7  2  0
  6  5  2  0
  5  1  1  0
  6  7  1  0
  7 16  1  0
 16 15  2  0
 15 14  1  0
 14 13  2  0
 13  6  1  0
M  END

$$$$
No_1530-/dssg/home/sw_qyf/PocketFlow/Model-Generation-Results/5HT2A_7WC7_rec_A_10.pdb/2024-01-01-03-54-21/
     RDKit          3D

 25 27  0  0  0  0  0  0  0  0999 V2000
  -23.1746  -16.6014  144.8668 C   0  0  0  0  0  0  0  0  0  0  0  0
  -23.8963  -15.5346  144.7885 C   0  0  0  0  0  0  0  0  0  0  0  0
  -24.6479  -15.0447  145.8164 C   0  0  0  0  0  0  0  0  0  0  0  0
  -25.3835  -13.7782  145.7887 C   0  0  0  0  0  0  0  0  0  0  0  0
  -25.5840  -12.9393  146.6927 C   0  0  0  0  0  0  0  0  0  0  0  0
  -23.3260  -17.4394  146.0484 C   0  0  0  0  0  0  0  0  0  0  0  0
  -24.0657  -17.0203  147.1562 C   0  0  0  0  0  0  0  0  0  0  0  0
  -24.7664  -15.7793  147.0832 C   0  0  0  0  0  0  0  0  0  0  0  0
  -26.1810  -11.6728  146.4824 C   0  0  0  0  0  0  0  0  0  0  0  0
  -26.6284  -11.3598  145.2064 C   0  0  0  0  0  0  0  0  0  0  0  0
  -26.3829  -12.2860  144.2011 C   0  0  0  0  0  0  0  0  0  0  0  0
  -25.7675  -13.5257  144.4060 C   0  0  0  0  0  0  0  0  0  0  0  0
  -27.1957  -10.0478  144.8647 C   0  0  0  0  0  0  0  0  0  0  0  0
  -28.2575   -9.9817  143.9223 C   0  0  0  0  0  0  0  0  0  0  0  0
  -28.6808   -8.8928  143.3182 C   0  0  0  0  0  0  0  0  0  0  0  0
  -29.8899   -8.7203  142.7996 C   0  0  0  0  0  0  0  0  0  0  0  0
  -30.7759   -9.8743  142.7073 C   0  0  0  0  0  0  0  0  0  0  0  0
  -30.2159  -10.9902  143.1843 N   0  0  0  0  0  0  0  0  0  0  0  0
  -29.2038  -11.0975  143.9293 C   0  0  0  0  0  0  0  0  0  0  0  0
  -30.3749   -7.4662  142.1093 C   0  0  0  0  0  0  0  0  0  0  0  0
  -29.4263   -6.9431  141.0626 Cl  0  0  0  0  0  0  0  0  0  0  0  0
  -24.0900  -17.7581  148.4319 C   0  0  0  0  0  0  0  0  0  0  0  0
  -24.8772  -17.0439  149.1537 F   0  0  0  0  0  0  0  0  0  0  0  0
  -24.5329  -18.9687  148.2913 F   0  0  0  0  0  0  0  0  0  0  0  0
  -22.8443  -17.7451  148.9877 F   0  0  0  0  0  0  0  0  0  0  0  0
  3  4  1  0
 10 13  1  0
 13 14  1  0
 16 20  1  0
 20 21  1  0
  7 22  1  0
 22 23  1  0
 22 24  1  0
 22 25  1  0
 14 15  2  0
 15 16  1  0
 16 17  2  0
 17 18  1  0
 18 19  2  0
 19 14  1  0
  1  2  2  0
  2  3  1  0
  3  8  2  0
  8  7  1  0
  7  6  2  0
  6  1  1  0
  4  5  2  0
  5  9  1  0
  9 10  2  0
 10 11  1  0
 11 12  2  0
 12  4  1  0
M  END

$$$$
No_1531-/dssg/home/sw_qyf/PocketFlow/Model-Generation-Results/5HT2A_7WC7_rec_A_10.pdb/2024-01-01-03-54-21/
     RDKit          3D

 19 20  0  0  0  0  0  0  0  0999 V2000
  -23.1746  -16.6014  144.8668 C   0  0  0  0  0  0  0  0  0  0  0  0
  -23.8963  -15.5346  144.7885 C   0  0  0  0  0  0  0  0  0  0  0  0
  -24.5755  -15.0383  145.9043 C   0  0  0  0  0  0  0  0  0  0  0  0
  -25.3266  -13.7882  145.9354 C   0  0  0  0  0  0  0  0  0  0  0  0
  -23.3054  -17.4824  145.9484 C   0  0  0  0  0  0  0  0  0  0  0  0
  -23.9716  -17.0786  147.1155 C   0  0  0  0  0  0  0  0  0  0  0  0
  -24.6279  -15.8542  147.1153 C   0  0  0  0  0  0  0  0  0  0  0  0
  -25.8439  -13.2946  144.9179 C   0  0  0  0  0  0  0  0  0  0  0  0
  -26.5517  -12.0351  144.9228 C   0  0  0  0  0  0  0  0  0  0  0  0
  -27.3798  -11.5523  143.9202 C   0  0  0  0  0  0  0  0  0  0  0  0
  -28.3161  -10.5156  144.2258 C   0  0  0  0  0  0  0  0  0  0  0  0
  -29.5908  -10.4957  143.6628 C   0  0  0  0  0  0  0  0  0  0  0  0
  -29.5745  -10.0866  142.2526 C   0  0  0  0  0  0  0  0  0  0  0  0
  -28.6468  -10.7352  141.4362 C   0  0  0  0  0  0  0  0  0  0  0  0
  -28.1222  -11.6126  141.4963 C   0  0  0  0  0  0  0  0  0  0  0  0
  -27.1495  -11.9285  142.6770 C   0  0  0  0  0  0  0  0  0  0  0  0
  -30.7179   -9.1647  141.9465 C   0  0  0  0  0  0  0  0  0  0  0  0
  -31.7146   -9.1338  142.6038 O   0  0  0  0  0  0  0  0  0  0  0  0
  -30.3255   -8.0803  141.2870 O   0  0  0  0  0  0  0  0  0  0  0  0
  3  4  1  0
  4  8  2  3
  8  9  1  0
  9 10  1  0
 10 11  1  0
 11 12  1  0
 12 13  1  0
 13 14  1  0
 14 15  2  0
 10 16  1  0
 15 16  1  0
 13 17  1  0
 17 18  1  0
 17 19  2  0
  1  2  2  0
  2  3  1  0
  3  7  2  0
  7  6  1  0
  6  5  2  0
  5  1  1  0
M  END

$$$$
No_1532-/dssg/home/sw_qyf/PocketFlow/Model-Generation-Results/5HT2A_7WC7_rec_A_10.pdb/2024-01-01-03-54-21/
     RDKit          3D

 10 10  0  0  0  0  0  0  0  0999 V2000
  -23.1746  -16.6014  144.8668 C   0  0  0  0  0  0  0  0  0  0  0  0
  -23.7011  -17.0158  145.9774 C   0  0  0  0  0  0  0  0  0  0  0  0
  -24.2134  -16.0722  146.8877 C   0  0  0  0  0  0  0  0  0  0  0  0
  -23.3742  -15.2706  144.3922 C   0  0  0  0  0  0  0  0  0  0  0  0
  -24.0638  -14.3065  145.2723 C   0  0  0  0  0  0  0  0  0  0  0  0
  -24.4769  -14.7246  146.5384 C   0  0  0  0  0  0  0  0  0  0  0  0
  -24.2073  -12.8864  144.8852 C   0  0  0  0  0  0  0  0  0  0  0  0
  -23.1488  -12.0826  145.5252 C   0  0  0  0  0  0  0  0  0  0  0  0
  -23.5654  -18.3435  146.4184 N   0  0  0  0  0  0  0  0  0  0  0  0
  -22.6222  -18.7995  146.8289 O   0  0  0  0  0  0  0  0  0  0  0  0
  5  7  1  0
  7  8  1  0
  2  9  1  0
  9 10  2  0
  1  2  2  0
  2  3  1  0
  3  6  2  0
  6  5  1  0
  5  4  2  0
  4  1  1  0
M  END

$$$$
No_1533-/dssg/home/sw_qyf/PocketFlow/Model-Generation-Results/5HT2A_7WC7_rec_A_10.pdb/2024-01-01-03-54-21/
     RDKit          3D

 16 18  0  0  0  0  0  0  0  0999 V2000
  -24.1553  -17.8465  145.7021 C   0  0  0  0  0  0  0  0  0  0  0  0
  -24.2856  -16.6364  145.3494 C   0  0  0  0  0  0  0  0  0  0  0  0
  -24.7211  -15.5955  146.2115 C   0  0  0  0  0  0  0  0  0  0  0  0
  -24.8539  -14.2010  145.8739 C   0  0  0  0  0  0  0  0  0  0  0  0
  -24.1440  -13.8321  144.7074 C   0  0  0  0  0  0  0  0  0  0  0  0
  -23.4275  -14.8130  143.9942 C   0  0  0  0  0  0  0  0  0  0  0  0
  -23.5139  -16.1160  144.3501 C   0  0  0  0  0  0  0  0  0  0  0  0
  -25.0898  -18.4665  146.6156 C   0  0  0  0  0  0  0  0  0  0  0  0
  -25.7382  -17.5265  147.4994 C   0  0  0  0  0  0  0  0  0  0  0  0
  -25.8940  -16.1294  147.1653 C   0  0  0  0  0  0  0  0  0  0  0  0
  -23.8845  -12.4996  144.5429 O   0  0  0  0  0  0  0  0  0  0  0  0
  -22.8525  -11.9982  145.4437 C   0  0  0  0  0  0  0  0  0  0  0  0
  -25.4261  -13.2226  146.8110 C   0  0  0  0  0  0  0  0  0  0  0  0
  -25.0788  -11.8624  146.5456 C   0  0  0  0  0  0  0  0  0  0  0  0
  -23.9896  -11.2544  145.9623 C   0  0  0  0  0  0  0  0  0  0  0  0
  -24.6704  -10.4524  144.9210 O   0  0  0  0  0  0  0  0  0  0  0  0
  3  4  1  0
  4  5  1  0
  5  6  1  0
  2  7  1  0
  6  7  1  0
  5 11  1  0
 11 12  1  0
  4 13  1  0
 13 14  1  0
 12 15  1  0
 14 15  1  0
 15 16  1  0
  1  2  2  0
  2  3  1  0
  3 10  2  0
 10  9  1  0
  9  8  2  0
  8  1  1  0
M  END

$$$$
No_1534-/dssg/home/sw_qyf/PocketFlow/Model-Generation-Results/5HT2A_7WC7_rec_A_10.pdb/2024-01-01-03-54-21/
     RDKit          3D

 31 33  0  0  0  0  0  0  0  0999 V2000
  -23.1746  -16.6014  144.8668 C   0  0  0  0  0  0  0  0  0  0  0  0
  -23.8963  -15.5346  144.7885 C   0  0  0  0  0  0  0  0  0  0  0  0
  -24.5755  -15.0383  145.9043 C   0  0  0  0  0  0  0  0  0  0  0  0
  -25.0618  -13.6819  146.0347 C   0  0  0  0  0  0  0  0  0  0  0  0
  -26.1212  -13.2239  146.2655 C   0  0  0  0  0  0  0  0  0  0  0  0
  -23.3988  -17.5289  145.9572 C   0  0  0  0  0  0  0  0  0  0  0  0
  -24.0509  -17.0603  147.1196 C   0  0  0  0  0  0  0  0  0  0  0  0
  -24.6392  -15.7936  147.1455 C   0  0  0  0  0  0  0  0  0  0  0  0
  -26.5138  -11.7978  146.2518 C   0  0  0  0  0  0  0  0  0  0  0  0
  -23.9707  -12.6258  145.7083 C   0  0  0  0  0  0  0  0  0  0  0  0
  -24.3153  -11.2783  145.4617 C   0  0  0  0  0  0  0  0  0  0  0  0
  -25.5693  -10.9076  145.7757 C   0  0  0  0  0  0  0  0  0  0  0  0
  -23.8243  -14.7075  143.7921 O   0  0  0  0  0  0  0  0  0  0  0  0
  -24.0993  -17.9224  148.3690 C   0  0  0  0  0  0  0  0  0  0  0  0
  -23.3657  -17.3517  149.5556 C   0  0  0  0  0  0  0  0  0  0  0  0
  -24.0382  -17.0651  150.7872 C   0  0  0  0  0  0  0  0  0  0  0  0
  -27.8475  -11.4664  146.4954 N   0  0  0  0  0  0  0  0  0  0  0  0
  -28.9351  -11.8877  145.8270 C   0  0  0  0  0  0  0  0  0  0  0  0
  -30.0617  -11.0414  145.8022 C   0  0  0  0  0  0  0  0  0  0  0  0
  -29.6148   -9.9284  145.6673 O   0  0  0  0  0  0  0  0  0  0  0  0
  -29.0151  -13.0979  145.4856 O   0  0  0  0  0  0  0  0  0  0  0  0
  -25.3644  -17.3874  150.8149 N   0  0  0  0  0  0  0  0  0  0  0  0
  -25.9260  -18.3254  150.1539 C   0  0  0  0  0  0  0  0  0  0  0  0
  -25.4475  -18.2713  148.8158 N   0  0  0  0  0  0  0  0  0  0  0  0
  -22.8379  -18.7535  146.0241 O   0  0  0  0  0  0  0  0  0  0  0  0
  -30.6951  -11.2284  147.2128 C   0  0  0  0  0  0  0  0  0  0  0  0
  -30.9487  -12.1926  147.5987 O   0  0  0  0  0  0  0  0  0  0  0  0
  -30.7322  -12.8025  149.2814 P   0  0  0  0  0  0  0  0  0  0  0  0
  -29.8584  -13.9540  149.1328 O   0  0  0  0  0  0  0  0  0  0  0  0
  -32.1202  -13.5589  149.4830 O   0  0  0  0  0  0  0  0  0  0  0  0
  -30.3025  -12.3071  150.2580 O   0  0  0  0  0  0  0  0  0  0  0  0
  3  4  1  0
  2 13  1  0
  7 14  1  0
  9 17  1  0
 17 18  1  0
 18 19  1  0
 19 20  1  0
 18 21  2  0
  6 25  1  0
 19 26  1  0
 26 27  1  0
 27 28  1  0
 28 29  2  0
 28 30  1  0
 28 31  1  0
  4  5  2  0
  5  9  1  0
  9 12  2  0
 12 11  1  0
 11 10  2  0
 10  4  1  0
  1  2  2  0
  2  3  1  0
  3  8  2  0
  8  7  1  0
  7  6  2  0
  6  1  1  0
 14 15  2  0
 15 16  1  0
 16 22  2  0
 22 23  1  0
 23 24  2  0
 24 14  1  0
M  END

$$$$
No_1535-/dssg/home/sw_qyf/PocketFlow/Model-Generation-Results/5HT2A_7WC7_rec_A_10.pdb/2024-01-01-03-54-21/
     RDKit          3D

 14 13  0  0  0  0  0  0  0  0999 V2000
  -24.1553  -17.8465  145.7021 C   0  0  0  0  0  0  0  0  0  0  0  0
  -23.9795  -18.4462  146.7426 C   0  0  0  0  0  0  0  0  0  0  0  0
  -25.1593  -16.8262  145.6925 C   0  0  0  0  0  0  0  0  0  0  0  0
  -24.9465  -15.5961  144.9952 C   0  0  0  0  0  0  0  0  0  0  0  0
  -25.8223  -14.4752  145.0170 C   0  0  0  0  0  0  0  0  0  0  0  0
  -25.9204  -13.6429  143.9382 C   0  0  0  0  0  0  0  0  0  0  0  0
  -27.1287  -12.8255  143.8999 C   0  0  0  0  0  0  0  0  0  0  0  0
  -27.6121  -12.3910  145.1213 C   0  0  0  0  0  0  0  0  0  0  0  0
  -28.6247  -11.3596  145.2020 C   0  0  0  0  0  0  0  0  0  0  0  0
  -28.7707  -10.3921  144.2587 C   0  0  0  0  0  0  0  0  0  0  0  0
  -28.3504  -10.7639  142.9651 C   0  0  0  0  0  0  0  0  0  0  0  0
  -28.6974   -9.9893  141.8850 C   0  0  0  0  0  0  0  0  0  0  0  0
  -29.6898   -9.0578  141.8726 C   0  0  0  0  0  0  0  0  0  0  0  0
  -30.5586   -8.9645  142.9790 C   0  0  0  0  0  0  0  0  0  0  0  0
  1  2  1  0
  1  3  1  0
  3  4  1  0
  4  5  1  0
  5  6  1  0
  6  7  1  0
  7  8  2  3
  8  9  1  0
  9 10  2  3
 10 11  1  0
 11 12  1  0
 12 13  1  0
 13 14  1  0
M  END

$$$$
No_1536-/dssg/home/sw_qyf/PocketFlow/Model-Generation-Results/5HT2A_7WC7_rec_A_10.pdb/2024-01-01-03-54-21/
     RDKit          3D

 23 24  0  0  0  0  0  0  0  0999 V2000
  -23.1746  -16.6014  144.8668 C   0  0  0  0  0  0  0  0  0  0  0  0
  -23.7011  -17.0158  145.9774 C   0  0  0  0  0  0  0  0  0  0  0  0
  -23.7336  -18.2775  146.3737 C   0  0  0  0  0  0  0  0  0  0  0  0
  -23.8112  -15.3694  144.2738 C   0  0  0  0  0  0  0  0  0  0  0  0
  -23.1412  -14.0561  144.6259 C   0  0  0  0  0  0  0  0  0  0  0  0
  -24.0300  -13.0828  145.3764 C   0  0  0  0  0  0  0  0  0  0  0  0
  -23.9611  -11.7447  145.0554 C   0  0  0  0  0  0  0  0  0  0  0  0
  -24.2121  -18.6599  147.6895 C   0  0  0  0  0  0  0  0  0  0  0  0
  -24.8270  -17.5731  148.4714 C   0  0  0  0  0  0  0  0  0  0  0  0
  -24.8490  -16.2435  148.0163 C   0  0  0  0  0  0  0  0  0  0  0  0
  -24.2915  -15.9225  146.8269 C   0  0  0  0  0  0  0  0  0  0  0  0
  -25.0376  -10.9184  145.6089 C   0  0  0  0  0  0  0  0  0  0  0  0
  -25.9332  -10.3576  144.7981 C   0  0  0  0  0  0  0  0  0  0  0  0
  -27.3431  -10.8003  144.7561 C   0  0  0  0  0  0  0  0  0  0  0  0
  -27.8244  -11.8724  145.4293 C   0  0  0  0  0  0  0  0  0  0  0  0
  -29.2364  -12.0564  145.6965 C   0  0  0  0  0  0  0  0  0  0  0  0
  -29.6756  -12.8622  146.8205 C   0  0  0  0  0  0  0  0  0  0  0  0
  -29.0660  -14.1030  146.9278 C   0  0  0  0  0  0  0  0  0  0  0  0
  -27.7309  -14.2060  146.3713 C   0  0  0  0  0  0  0  0  0  0  0  0
  -27.1621  -13.1131  145.6196 C   0  0  0  0  0  0  0  0  0  0  0  0
  -28.0877  -10.1741  143.6734 C   0  0  0  0  0  0  0  0  0  0  0  0
  -28.6844  -10.2464  142.7487 C   0  0  0  0  0  0  0  0  0  0  0  0
  -28.9405  -11.0877  141.6643 C   0  0  0  0  0  0  0  0  0  0  0  0
  1  2  1  0
  1  4  1  0
  4  5  1  0
  5  6  1  0
  6  7  2  3
  7 12  1  0
 12 13  1  0
 13 14  1  0
 14 21  1  0
 21 22  3  0
 22 23  1  0
 14 15  1  0
 15 16  2  0
 16 17  1  0
 17 18  2  0
 18 19  1  0
 19 20  2  0
 20 15  1  0
  2  3  2  0
  3  8  1  0
  8  9  2  0
  9 10  1  0
 10 11  2  0
 11  2  1  0
M  END

$$$$
No_1537-/dssg/home/sw_qyf/PocketFlow/Model-Generation-Results/5HT2A_7WC7_rec_A_10.pdb/2024-01-01-03-54-21/
     RDKit          3D

 20 20  0  0  0  0  0  0  0  0999 V2000
  -24.1553  -17.8465  145.7021 C   0  0  0  0  0  0  0  0  0  0  0  0
  -23.9795  -18.4462  146.7426 C   0  0  0  0  0  0  0  0  0  0  0  0
  -23.3558  -17.2450  144.9339 C   0  0  0  0  0  0  0  0  0  0  0  0
  -24.9341  -19.0253  147.6214 C   0  0  0  0  0  0  0  0  0  0  0  0
  -23.9048  -16.1596  144.0438 C   0  0  0  0  0  0  0  0  0  0  0  0
  -24.9584  -15.3229  144.7042 C   0  0  0  0  0  0  0  0  0  0  0  0
  -25.1063  -14.0061  144.2439 C   0  0  0  0  0  0  0  0  0  0  0  0
  -26.2428  -13.3146  144.7419 C   0  0  0  0  0  0  0  0  0  0  0  0
  -26.6421  -12.0839  144.2419 C   0  0  0  0  0  0  0  0  0  0  0  0
  -26.8742  -11.0580  145.1916 C   0  0  0  0  0  0  0  0  0  0  0  0
  -27.7996  -11.4496  146.2402 C   0  0  0  0  0  0  0  0  0  0  0  0
  -28.7832  -12.2767  145.9559 C   0  0  0  0  0  0  0  0  0  0  0  0
  -28.4478  -13.7384  146.1382 C   0  0  0  0  0  0  0  0  0  0  0  0
  -29.3783  -14.6029  146.7257 C   0  0  0  0  0  0  0  0  0  0  0  0
  -26.6999  -13.6222  146.0533 C   0  0  0  0  0  0  0  0  0  0  0  0
  -28.8640  -15.5896  147.4510 N   0  0  0  0  0  0  0  0  0  0  0  0
  -29.1318  -15.7887  148.8432 C   0  0  0  0  0  0  0  0  0  0  0  0
  -28.4471  -16.8239  146.8778 C   0  0  0  0  0  0  0  0  0  0  0  0
  -26.5671   -9.6567  144.8475 C   0  0  0  0  0  0  0  0  0  0  0  0
  -29.9867  -12.0408  145.7281 O   0  0  0  0  0  0  0  0  0  0  0  0
  1  2  2  3
  1  3  1  0
  2  4  1  0
  3  5  1  0
  5  6  1  0
  6  7  2  3
  7  8  1  0
  8  9  1  0
  9 10  1  0
 10 11  1  0
 11 12  1  0
 12 13  1  0
 13 14  1  0
  8 15  1  0
 13 15  1  0
 14 16  1  0
 16 17  1  0
 16 18  1  0
 10 19  1  0
 12 20  2  0
M  END

$$$$
No_1538-/dssg/home/sw_qyf/PocketFlow/Model-Generation-Results/5HT2A_7WC7_rec_A_10.pdb/2024-01-01-03-54-21/
     RDKit          3D

 11 12  0  0  0  0  0  0  0  0999 V2000
  -24.1553  -17.8465  145.7021 C   0  0  0  0  0  0  0  0  0  0  0  0
  -24.2856  -16.6364  145.3494 C   0  0  0  0  0  0  0  0  0  0  0  0
  -24.7211  -15.5955  146.2116 C   0  0  0  0  0  0  0  0  0  0  0  0
  -25.1321  -16.0374  147.5372 C   0  0  0  0  0  0  0  0  0  0  0  0
  -24.5163  -18.2968  146.9928 C   0  0  0  0  0  0  0  0  0  0  0  0
  -24.9534  -17.3074  147.9886 C   0  0  0  0  0  0  0  0  0  0  0  0
  -24.8795  -14.1918  145.8039 C   0  0  0  0  0  0  0  0  0  0  0  0
  -24.0624  -13.7230  144.8076 C   0  0  0  0  0  0  0  0  0  0  0  0
  -23.5136  -12.3738  145.0939 C   0  0  0  0  0  0  0  0  0  0  0  0
  -24.3662  -11.5838  145.9517 C   0  0  0  0  0  0  0  0  0  0  0  0
  -24.5999  -13.0159  146.9861 C   0  0  0  0  0  0  0  0  0  0  0  0
  3  7  1  0
  7  8  1  0
  8  9  2  0
  9 10  1  0
  7 11  1  0
 10 11  1  0
  1  2  2  0
  2  3  1  0
  3  4  2  0
  4  6  1  0
  6  5  2  0
  5  1  1  0
M  END

$$$$
No_1539-/dssg/home/sw_qyf/PocketFlow/Model-Generation-Results/5HT2A_7WC7_rec_A_10.pdb/2024-01-01-03-54-21/
     RDKit          3D

 35 38  0  0  0  0  0  0  0  0999 V2000
  -24.1553  -17.8465  145.7021 C   0  0  0  0  0  0  0  0  0  0  0  0
  -24.6364  -17.2931  146.7091 C   0  0  0  0  0  0  0  0  0  0  0  0
  -24.0780  -17.2921  147.9389 C   0  0  0  0  0  0  0  0  0  0  0  0
  -22.8286  -17.6790  148.0416 C   0  0  0  0  0  0  0  0  0  0  0  0
  -24.6803  -17.6372  144.4016 C   0  0  0  0  0  0  0  0  0  0  0  0
  -22.1604  -18.1395  146.8555 C   0  0  0  0  0  0  0  0  0  0  0  0
  -22.7802  -18.1365  145.7346 C   0  0  0  0  0  0  0  0  0  0  0  0
  -26.0640  -16.7975  146.5020 C   0  0  0  0  0  0  0  0  0  0  0  0
  -26.3848  -15.5713  146.0793 C   0  0  0  0  0  0  0  0  0  0  0  0
  -27.6140  -14.9863  146.4386 C   0  0  0  0  0  0  0  0  0  0  0  0
  -27.9377  -13.6898  146.1116 C   0  0  0  0  0  0  0  0  0  0  0  0
  -27.0603  -12.8851  145.3128 C   0  0  0  0  0  0  0  0  0  0  0  0
  -25.8554  -13.5086  144.9234 C   0  0  0  0  0  0  0  0  0  0  0  0
  -25.5476  -14.8204  145.2545 C   0  0  0  0  0  0  0  0  0  0  0  0
  -29.1991  -13.0604  146.6447 C   0  0  0  0  0  0  0  0  0  0  0  0
  -29.9320  -13.4053  147.7869 C   0  0  0  0  0  0  0  0  0  0  0  0
  -29.5168  -11.6822  146.1703 C   0  0  0  0  0  0  0  0  0  0  0  0
  -28.9814  -11.2359  145.1397 O   0  0  0  0  0  0  0  0  0  0  0  0
  -29.4955  -10.0022  144.6189 C   0  0  0  0  0  0  0  0  0  0  0  0
  -28.9301   -9.4520  143.5362 C   0  0  0  0  0  0  0  0  0  0  0  0
  -27.8611  -10.1344  142.9274 C   0  0  0  0  0  0  0  0  0  0  0  0
  -27.7926  -10.2987  141.5322 C   0  0  0  0  0  0  0  0  0  0  0  0
  -27.2391  -11.4378  140.8934 C   0  0  0  0  0  0  0  0  0  0  0  0
  -27.2816  -11.5372  139.5129 C   0  0  0  0  0  0  0  0  0  0  0  0
  -27.6596  -10.4971  138.8357 N   0  0  0  0  0  0  0  0  0  0  0  0
  -28.1079   -9.3337  139.3753 C   0  0  0  0  0  0  0  0  0  0  0  0
  -28.2039   -9.2600  140.8159 C   0  0  0  0  0  0  0  0  0  0  0  0
  -28.5238   -8.2252  138.5641 C   0  0  0  0  0  0  0  0  0  0  0  0
  -30.6439  -12.8588  148.4394 C   0  0  0  0  0  0  0  0  0  0  0  0
  -31.5355  -13.3668  149.4980 C   0  0  0  0  0  0  0  0  0  0  0  0
  -32.4990  -12.6651  150.2157 C   0  0  0  0  0  0  0  0  0  0  0  0
  -32.6910  -12.5987  151.4736 C   0  0  0  0  0  0  0  0  0  0  0  0
  -32.6404  -13.8286  152.1465 C   0  0  0  0  0  0  0  0  0  0  0  0
  -31.7454  -14.8208  151.4709 C   0  0  0  0  0  0  0  0  0  0  0  0
  -31.1661  -14.5347  150.2764 C   0  0  0  0  0  0  0  0  0  0  0  0
  2  8  1  0
  8  9  1  0
 11 15  1  0
 15 16  2  3
 15 17  1  0
 17 18  1  0
 18 19  1  0
 19 20  1  0
 20 21  1  0
 21 22  1  0
 26 28  1  0
 16 29  1  0
  5  1  1  0
 29 30  1  0
 22 23  2  0
 23 24  1  0
 24 25  2  0
 25 26  1  0
 26 27  2  0
 27 22  1  0
 30 31  2  0
 31 32  1  0
 32 33  2  0
 33 34  1  0
 34 35  2  0
 35 30  1  0
  9 10  2  0
 10 11  1  0
 11 12  2  0
 12 13  1  0
 13 14  2  0
 14  9  1  0
  1  2  2  0
  2  3  1  0
  3  4  2  0
  4  6  1  0
  6  7  2  0
  7  1  1  0
M  END

$$$$
No_1540-/dssg/home/sw_qyf/PocketFlow/Model-Generation-Results/5HT2A_7WC7_rec_A_10.pdb/2024-01-01-03-54-21/
     RDKit          3D

 19 22  0  0  0  0  0  0  0  0999 V2000
  -24.1553  -17.8465  145.7021 C   0  0  0  0  0  0  0  0  0  0  0  0
  -24.2856  -16.6364  145.3494 C   0  0  0  0  0  0  0  0  0  0  0  0
  -25.0033  -15.6772  146.0737 C   0  0  0  0  0  0  0  0  0  0  0  0
  -25.6964  -16.1810  147.2049 C   0  0  0  0  0  0  0  0  0  0  0  0
  -24.8143  -18.3454  146.8324 C   0  0  0  0  0  0  0  0  0  0  0  0
  -25.5292  -17.4614  147.6373 C   0  0  0  0  0  0  0  0  0  0  0  0
  -23.6890  -15.8550  144.1437 C   0  0  0  0  0  0  0  0  0  0  0  0
  -23.4980  -14.4501  144.4756 C   0  0  0  0  0  0  0  0  0  0  0  0
  -24.4153  -14.0027  145.4993 C   0  0  0  0  0  0  0  0  0  0  0  0
  -25.5832  -13.1785  145.3979 C   0  0  0  0  0  0  0  0  0  0  0  0
  -25.3076  -11.8933  145.6393 C   0  0  0  0  0  0  0  0  0  0  0  0
  -26.3655  -10.8079  145.4849 C   0  0  0  0  0  0  0  0  0  0  0  0
  -27.6986  -11.2390  145.2715 C   0  0  0  0  0  0  0  0  0  0  0  0
  -28.7396  -10.3342  145.0517 C   0  0  0  0  0  0  0  0  0  0  0  0
  -30.0031  -10.5774  145.5069 C   0  0  0  0  0  0  0  0  0  0  0  0
  -30.0902  -11.8402  146.2506 C   0  0  0  0  0  0  0  0  0  0  0  0
  -29.0289  -12.6512  146.5724 C   0  0  0  0  0  0  0  0  0  0  0  0
  -27.7811  -12.3216  146.1494 C   0  0  0  0  0  0  0  0  0  0  0  0
  -26.8447  -13.5158  146.3544 C   0  0  0  0  0  0  0  0  0  0  0  0
  2  7  1  0
  7  8  1  0
  3  9  1  0
  8  9  1  0
  9 10  1  0
 13 14  1  0
 14 15  2  0
 15 16  1  0
 16 17  2  0
 17 18  1  0
  1  2  2  0
  2  3  1  0
  3  4  2  0
  4  6  1  0
  6  5  2  0
  5  1  1  0
 10 11  2  0
 11 12  1  0
 12 13  2  0
 13 18  1  0
 18 19  2  0
 19 10  1  0
M  END

$$$$
No_1541-/dssg/home/sw_qyf/PocketFlow/Model-Generation-Results/5HT2A_7WC7_rec_A_10.pdb/2024-01-01-03-54-21/
     RDKit          3D

 18 19  0  0  0  0  0  0  0  0999 V2000
  -23.1746  -16.6014  144.8668 C   0  0  0  0  0  0  0  0  0  0  0  0
  -23.8963  -15.5346  144.7885 C   0  0  0  0  0  0  0  0  0  0  0  0
  -24.5755  -15.0383  145.9043 C   0  0  0  0  0  0  0  0  0  0  0  0
  -24.8345  -15.9108  146.9141 C   0  0  0  0  0  0  0  0  0  0  0  0
  -24.2398  -17.1433  146.9649 C   0  0  0  0  0  0  0  0  0  0  0  0
  -23.4221  -17.5266  145.9093 C   0  0  0  0  0  0  0  0  0  0  0  0
  -25.2512  -13.6667  145.8878 C   0  0  0  0  0  0  0  0  0  0  0  0
  -24.5224  -12.6898  145.5986 C   0  0  0  0  0  0  0  0  0  0  0  0
  -23.0890  -12.6473  145.3337 C   0  0  0  0  0  0  0  0  0  0  0  0
  -22.4447  -11.4692  144.9249 C   0  0  0  0  0  0  0  0  0  0  0  0
  -26.6381  -13.6656  145.5066 C   0  0  0  0  0  0  0  0  0  0  0  0
  -27.3176  -12.4168  145.7157 C   0  0  0  0  0  0  0  0  0  0  0  0
  -26.5485  -11.2186  145.6621 C   0  0  0  0  0  0  0  0  0  0  0  0
  -25.0912  -11.3273  145.7307 C   0  0  0  0  0  0  0  0  0  0  0  0
  -28.7511  -12.2865  145.8334 C   0  0  0  0  0  0  0  0  0  0  0  0
  -29.4523  -12.6129  147.0887 C   0  0  0  0  0  0  0  0  0  0  0  0
  -30.1772  -11.5470  147.8207 C   0  0  0  0  0  0  0  0  0  0  0  0
  -30.9406  -11.9710  148.9708 C   0  0  0  0  0  0  0  0  0  0  0  0
  3  7  1  0
  8  9  1  0
  9 10  1  0
 12 15  1  0
 15 16  1  0
 16 17  2  3
 17 18  1  0
  1  2  2  0
  2  3  1  0
  3  4  2  0
  4  5  1  0
  5  6  2  0
  6  1  1  0
  7  8  2  0
  8 14  1  0
 14 13  2  0
 13 12  1  0
 12 11  2  0
 11  7  1  0
M  END

$$$$
No_1542-/dssg/home/sw_qyf/PocketFlow/Model-Generation-Results/5HT2A_7WC7_rec_A_10.pdb/2024-01-01-03-54-21/
     RDKit          3D

 22 23  0  0  0  0  0  0  0  0999 V2000
  -23.1746  -16.6014  144.8668 C   0  0  0  0  0  0  0  0  0  0  0  0
  -23.8963  -15.5346  144.7885 C   0  0  0  0  0  0  0  0  0  0  0  0
  -24.6479  -15.0447  145.8164 C   0  0  0  0  0  0  0  0  0  0  0  0
  -24.7862  -15.8388  146.9698 C   0  0  0  0  0  0  0  0  0  0  0  0
  -24.1323  -17.0288  147.0733 C   0  0  0  0  0  0  0  0  0  0  0  0
  -23.3328  -17.4298  146.0306 C   0  0  0  0  0  0  0  0  0  0  0  0
  -25.4239  -13.7422  145.7900 C   0  0  0  0  0  0  0  0  0  0  0  0
  -24.6974  -12.5583  145.8956 C   0  0  0  0  0  0  0  0  0  0  0  0
  -25.3823  -11.3089  145.7426 C   0  0  0  0  0  0  0  0  0  0  0  0
  -26.7660  -13.6739  145.6331 C   0  0  0  0  0  0  0  0  0  0  0  0
  -27.5553  -14.8963  145.6214 C   0  0  0  0  0  0  0  0  0  0  0  0
  -26.7701  -11.2994  145.6403 C   0  0  0  0  0  0  0  0  0  0  0  0
  -27.4506  -12.4738  145.6163 C   0  0  0  0  0  0  0  0  0  0  0  0
  -27.7947  -15.6819  146.8161 C   0  0  0  0  0  0  0  0  0  0  0  0
  -27.9784  -17.0187  146.8113 C   0  0  0  0  0  0  0  0  0  0  0  0
  -23.3170  -12.5067  146.0133 N   0  0  0  0  0  0  0  0  0  0  0  0
  -24.1533  -17.8841  148.3431 C   0  0  0  0  0  0  0  0  0  0  0  0
  -23.5280  -17.2936  149.5444 C   0  0  0  0  0  0  0  0  0  0  0  0
  -24.1928  -16.3333  150.3488 C   0  0  0  0  0  0  0  0  0  0  0  0
  -28.7764  -12.4340  145.5369 F   0  0  0  0  0  0  0  0  0  0  0  0
  -23.7928  -14.7290  143.7174 O   0  0  0  0  0  0  0  0  0  0  0  0
  -27.6474  -17.6489  145.7412 N   0  0  0  0  0  0  0  0  0  0  0  0
  3  7  1  0
 10 11  1  0
 11 14  2  3
 14 15  1  0
  8 16  1  0
  5 17  1  0
 17 18  1  0
 18 19  1  0
 13 20  1  0
  2 21  1  0
 15 22  1  0
  1  2  2  0
  2  3  1  0
  3  4  2  0
  4  5  1  0
  5  6  2  0
  6  1  1  0
  7  8  2  0
  8  9  1  0
  9 12  2  0
 12 13  1  0
 13 10  2  0
 10  7  1  0
M  END

$$$$
No_1543-/dssg/home/sw_qyf/PocketFlow/Model-Generation-Results/5HT2A_7WC7_rec_A_10.pdb/2024-01-01-03-54-21/
     RDKit          3D

 19 20  0  0  0  0  0  0  0  0999 V2000
  -24.1553  -17.8465  145.7021 C   0  0  0  0  0  0  0  0  0  0  0  0
  -24.2856  -16.6364  145.3494 C   0  0  0  0  0  0  0  0  0  0  0  0
  -25.0033  -15.6772  146.0737 C   0  0  0  0  0  0  0  0  0  0  0  0
  -25.1197  -14.2835  145.7299 C   0  0  0  0  0  0  0  0  0  0  0  0
  -24.2707  -13.8793  144.6500 C   0  0  0  0  0  0  0  0  0  0  0  0
  -24.8686  -18.3355  146.8179 C   0  0  0  0  0  0  0  0  0  0  0  0
  -25.6154  -17.5363  147.5807 C   0  0  0  0  0  0  0  0  0  0  0  0
  -25.7525  -16.1597  147.2668 C   0  0  0  0  0  0  0  0  0  0  0  0
  -23.3153  -13.1259  144.9221 C   0  0  0  0  0  0  0  0  0  0  0  0
  -22.3257  -12.6143  143.9015 C   0  0  0  0  0  0  0  0  0  0  0  0
  -26.5671  -13.8604  145.5966 C   0  0  0  0  0  0  0  0  0  0  0  0
  -27.4542  -14.3765  145.4015 C   0  0  0  0  0  0  0  0  0  0  0  0
  -26.6221  -12.3369  145.6951 C   0  0  0  0  0  0  0  0  0  0  0  0
  -27.8912  -11.7491  145.6105 C   0  0  0  0  0  0  0  0  0  0  0  0
  -28.8629  -13.8882  145.4771 C   0  0  0  0  0  0  0  0  0  0  0  0
  -28.9983  -12.4863  145.6824 C   0  0  0  0  0  0  0  0  0  0  0  0
  -21.4526  -11.6297  144.3716 O   0  0  0  0  0  0  0  0  0  0  0  0
  -21.9825  -13.4490  143.0717 O   0  0  0  0  0  0  0  0  0  0  0  0
  -23.5038  -18.7627  144.9600 O   0  0  0  0  0  0  0  0  0  0  0  0
  3  4  1  0
  4  5  2  3
  5  9  1  0
  9 10  1  0
  4 11  1  0
 10 17  1  0
 10 18  2  0
  1 19  1  0
 11 12  2  0
 12 15  1  0
 15 16  2  0
 16 14  1  0
 14 13  2  0
 13 11  1  0
  1  2  2  0
  2  3  1  0
  3  8  2  0
  8  7  1  0
  7  6  2  0
  6  1  1  0
M  END

$$$$
No_1544-/dssg/home/sw_qyf/PocketFlow/Model-Generation-Results/5HT2A_7WC7_rec_A_10.pdb/2024-01-01-03-54-21/
     RDKit          3D

 35 38  0  0  0  0  0  0  0  0999 V2000
  -23.1746  -16.6014  144.8668 C   0  0  0  0  0  0  0  0  0  0  0  0
  -23.7011  -17.0158  145.9774 C   0  0  0  0  0  0  0  0  0  0  0  0
  -23.7336  -18.2775  146.3737 C   0  0  0  0  0  0  0  0  0  0  0  0
  -23.2769  -15.1496  144.5841 C   0  0  0  0  0  0  0  0  0  0  0  0
  -24.3619  -14.4074  145.0925 C   0  0  0  0  0  0  0  0  0  0  0  0
  -24.9302  -14.8236  146.3386 C   0  0  0  0  0  0  0  0  0  0  0  0
  -24.7112  -16.1877  146.7285 C   0  0  0  0  0  0  0  0  0  0  0  0
  -24.1549  -18.8237  147.3940 O   0  0  0  0  0  0  0  0  0  0  0  0
  -22.9071  -19.1467  145.7643 O   0  0  0  0  0  0  0  0  0  0  0  0
  -24.4594  -12.9851  144.7899 C   0  0  0  0  0  0  0  0  0  0  0  0
  -25.7028  -12.3960  145.1468 C   0  0  0  0  0  0  0  0  0  0  0  0
  -26.3008  -12.8269  146.1463 C   0  0  0  0  0  0  0  0  0  0  0  0
  -26.1492  -14.1801  146.7270 C   0  0  0  0  0  0  0  0  0  0  0  0
  -25.9548  -11.0438  144.5736 C   0  0  0  0  0  0  0  0  0  0  0  0
  -25.0474  -10.0465  144.4777 Cl  0  0  0  0  0  0  0  0  0  0  0  0
  -27.3812  -10.8887  144.1069 C   0  0  0  0  0  0  0  0  0  0  0  0
  -27.7541   -9.9209  143.2933 C   0  0  0  0  0  0  0  0  0  0  0  0
  -29.1531   -9.7837  142.9116 C   0  0  0  0  0  0  0  0  0  0  0  0
  -29.5261   -9.3912  141.7386 C   0  0  0  0  0  0  0  0  0  0  0  0
  -30.4416   -8.3536  141.5770 C   0  0  0  0  0  0  0  0  0  0  0  0
  -30.4295   -7.5556  140.4460 C   0  0  0  0  0  0  0  0  0  0  0  0
  -29.5011   -7.8509  139.4125 C   0  0  0  0  0  0  0  0  0  0  0  0
  -28.5255   -8.8349  139.5856 C   0  0  0  0  0  0  0  0  0  0  0  0
  -28.5162   -9.5587  140.7888 C   0  0  0  0  0  0  0  0  0  0  0  0
  -29.9503   -9.1357  144.1409 C   0  0  0  0  0  0  0  0  0  0  0  0
  -31.2041   -8.6554  143.8349 C   0  0  0  0  0  0  0  0  0  0  0  0
  -31.3908   -7.8856  142.6762 C   0  0  0  0  0  0  0  0  0  0  0  0
  -27.6604   -9.0432  138.6179 O   0  0  0  0  0  0  0  0  0  0  0  0
  -27.4616  -12.2069  146.7121 F   0  0  0  0  0  0  0  0  0  0  0  0
  -22.5476  -14.6611  143.6472 O   0  0  0  0  0  0  0  0  0  0  0  0
  -25.2744  -16.6379  147.8131 O   0  0  0  0  0  0  0  0  0  0  0  0
  -25.5235  -16.6401  148.9163 C   0  0  0  0  0  0  0  0  0  0  0  0
  -24.6824  -17.1703  149.9652 C   0  0  0  0  0  0  0  0  0  0  0  0
  -23.4526  -16.5787  150.3440 C   0  0  0  0  0  0  0  0  0  0  0  0
  -22.4667  -17.3808  151.0736 C   0  0  0  0  0  0  0  0  0  0  0  0
  2  3  1  0
  3  8  2  0
  3  9  1  0
 11 14  1  0
 14 15  1  0
 14 16  1  0
 16 17  2  3
 17 18  1  0
 23 28  1  0
 12 29  1  0
  4 30  1  0
  7 31  1  0
 31 32  1  0
 32 33  1  0
 33 34  2  3
 34 35  1  0
  6 13  1  0
 13 12  2  0
 12 11  1  0
 11 10  2  0
 10  5  1  0
  1  2  2  0
  2  7  1  0
  7  6  2  0
  6  5  1  0
  5  4  2  0
  4  1  1  0
 18 19  1  0
 20 27  1  0
 27 26  2  0
 26 25  1  0
 25 18  2  0
 19 20  1  0
 20 21  2  0
 21 22  1  0
 22 23  2  0
 23 24  1  0
 24 19  2  0
M  END

$$$$
No_1545-/dssg/home/sw_qyf/PocketFlow/Model-Generation-Results/5HT2A_7WC7_rec_A_10.pdb/2024-01-01-03-54-21/
     RDKit          3D

 35 37  0  0  0  0  0  0  0  0999 V2000
  -23.1746  -16.6014  144.8668 C   0  0  0  0  0  0  0  0  0  0  0  0
  -23.8963  -15.5346  144.7885 C   0  0  0  0  0  0  0  0  0  0  0  0
  -25.0304  -15.2549  144.5358 C   0  0  0  0  0  0  0  0  0  0  0  0
  -25.6045  -13.9524  144.2294 C   0  0  0  0  0  0  0  0  0  0  0  0
  -24.8624  -12.8904  144.6738 C   0  0  0  0  0  0  0  0  0  0  0  0
  -23.5278  -13.1645  145.1476 C   0  0  0  0  0  0  0  0  0  0  0  0
  -23.0148  -14.3796  145.1899 C   0  0  0  0  0  0  0  0  0  0  0  0
  -23.3570  -17.3352  143.8914 F   0  0  0  0  0  0  0  0  0  0  0  0
  -23.5613  -17.3832  146.0695 F   0  0  0  0  0  0  0  0  0  0  0  0
  -27.0080  -13.7738  143.8389 C   0  0  0  0  0  0  0  0  0  0  0  0
  -27.6733  -12.7675  144.5998 C   0  0  0  0  0  0  0  0  0  0  0  0
  -28.1706  -11.5326  144.0461 C   0  0  0  0  0  0  0  0  0  0  0  0
  -29.0942  -10.6889  144.7230 C   0  0  0  0  0  0  0  0  0  0  0  0
  -29.5138  -11.1365  146.1003 C   0  0  0  0  0  0  0  0  0  0  0  0
  -28.9985  -12.2830  146.6542 C   0  0  0  0  0  0  0  0  0  0  0  0
  -28.1164  -13.1133  145.9225 C   0  0  0  0  0  0  0  0  0  0  0  0
  -29.6302   -9.5470  144.1120 C   0  0  0  0  0  0  0  0  0  0  0  0
  -30.7877   -9.0180  144.2372 C   0  0  0  0  0  0  0  0  0  0  0  0
  -31.3232   -8.2653  143.1625 C   0  0  0  0  0  0  0  0  0  0  0  0
  -30.4037   -7.8993  142.1154 C   0  0  0  0  0  0  0  0  0  0  0  0
  -30.3892   -6.8598  141.2539 C   0  0  0  0  0  0  0  0  0  0  0  0
  -29.3191   -6.9389  140.2379 C   0  0  0  0  0  0  0  0  0  0  0  0
  -29.2680   -9.2124  142.6012 C   0  0  0  0  0  0  0  0  0  0  0  0
  -29.3276   -8.0095  139.3354 C   0  0  0  0  0  0  0  0  0  0  0  0
  -28.2765   -7.9991  138.4010 C   0  0  0  0  0  0  0  0  0  0  0  0
  -22.7144  -11.8730  145.4742 C   0  0  0  0  0  0  0  0  0  0  0  0
  -29.3894  -12.5831  147.9200 O   0  0  0  0  0  0  0  0  0  0  0  0
  -28.5812   -7.7101  136.7439 Cl  0  0  0  0  0  0  0  0  0  0  0  0
  -30.6506  -12.5457  148.3665 C   0  0  0  0  0  0  0  0  0  0  0  0
  -31.1880  -13.8214  148.8352 C   0  0  0  0  0  0  0  0  0  0  0  0
  -30.1711  -14.8578  148.8407 C   0  0  0  0  0  0  0  0  0  0  0  0
  -30.0142  -15.8497  149.8195 C   0  0  0  0  0  0  0  0  0  0  0  0
  -29.1255  -16.9513  149.5540 C   0  0  0  0  0  0  0  0  0  0  0  0
  -28.1881  -16.7514  148.5359 C   0  0  0  0  0  0  0  0  0  0  0  0
  -28.2909  -15.7509  147.6162 C   0  0  0  0  0  0  0  0  0  0  0  0
  1  2  1  0
  1  8  1  0
  1  9  1  0
  4 10  1  0
 10 11  1  0
 13 17  1  0
 17 18  1  0
 18 19  1  0
 19 20  1  0
 20 21  1  0
 21 22  2  3
 17 23  1  0
 20 23  1  0
 22 24  1  0
 24 25  1  0
  6 26  1  0
 15 27  1  0
 25 28  1  0
 27 29  1  0
 29 30  2  3
 30 31  1  0
 31 32  2  3
 32 33  1  0
 33 34  2  3
 34 35  1  0
 11 12  2  0
 12 13  1  0
 13 14  2  0
 14 15  1  0
 15 16  2  0
 16 11  1  0
  2  3  2  0
  3  4  1  0
  4  5  2  0
  5  6  1  0
  6  7  2  0
  7  2  1  0
M  END

$$$$
No_1546-/dssg/home/sw_qyf/PocketFlow/Model-Generation-Results/5HT2A_7WC7_rec_A_10.pdb/2024-01-01-03-54-21/
     RDKit          3D

 35 38  0  0  0  0  0  0  0  0999 V2000
  -24.1553  -17.8465  145.7021 C   0  0  0  0  0  0  0  0  0  0  0  0
  -23.9795  -18.4462  146.7426 C   0  0  0  0  0  0  0  0  0  0  0  0
  -25.1196  -16.8106  145.6409 C   0  0  0  0  0  0  0  0  0  0  0  0
  -25.9236  -16.5070  146.7422 C   0  0  0  0  0  0  0  0  0  0  0  0
  -25.6173  -17.2153  147.9099 C   0  0  0  0  0  0  0  0  0  0  0  0
  -24.6179  -18.1473  147.9620 C   0  0  0  0  0  0  0  0  0  0  0  0
  -26.9749  -15.4806  146.6971 C   0  0  0  0  0  0  0  0  0  0  0  0
  -28.1740  -15.7949  146.3286 C   0  0  0  0  0  0  0  0  0  0  0  0
  -29.0675  -14.9045  146.8801 C   0  0  0  0  0  0  0  0  0  0  0  0
  -28.9751  -13.5209  146.9912 C   0  0  0  0  0  0  0  0  0  0  0  0
  -29.9570  -12.5659  147.3759 C   0  0  0  0  0  0  0  0  0  0  0  0
  -30.7880  -12.7576  148.2277 O   0  0  0  0  0  0  0  0  0  0  0  0
  -29.9594  -11.3444  146.6885 N   0  0  0  0  0  0  0  0  0  0  0  0
  -27.5474  -13.0138  146.7805 C   0  0  0  0  0  0  0  0  0  0  0  0
  -26.5510  -14.0498  146.8496 C   0  0  0  0  0  0  0  0  0  0  0  0
  -29.1696  -11.0174  145.6233 C   0  0  0  0  0  0  0  0  0  0  0  0
  -29.7415  -10.6729  144.3719 C   0  0  0  0  0  0  0  0  0  0  0  0
  -30.4454   -9.4051  144.4003 C   0  0  0  0  0  0  0  0  0  0  0  0
  -31.0608   -8.9652  143.1238 C   0  0  0  0  0  0  0  0  0  0  0  0
  -30.4485   -7.8886  142.7057 O   0  0  0  0  0  0  0  0  0  0  0  0
  -30.1570   -7.8972  141.2942 C   0  0  0  0  0  0  0  0  0  0  0  0
  -29.0742   -8.7940  141.0465 C   0  0  0  0  0  0  0  0  0  0  0  0
  -28.5832   -8.9100  139.7355 C   0  0  0  0  0  0  0  0  0  0  0  0
  -27.6349   -9.9512  139.4547 C   0  0  0  0  0  0  0  0  0  0  0  0
  -27.3683  -10.9177  140.4340 C   0  0  0  0  0  0  0  0  0  0  0  0
  -27.9187  -10.7443  141.7480 C   0  0  0  0  0  0  0  0  0  0  0  0
  -28.8281   -9.7185  142.0055 C   0  0  0  0  0  0  0  0  0  0  0  0
  -30.6788  -10.0001  142.2641 O   0  0  0  0  0  0  0  0  0  0  0  0
  -28.7438   -7.8722  138.9516 N   0  0  0  0  0  0  0  0  0  0  0  0
  -31.5551   -9.6070  145.3908 O   0  0  0  0  0  0  0  0  0  0  0  0
  -25.1416  -13.6256  146.6959 C   0  0  0  0  0  0  0  0  0  0  0  0
  -24.6267  -12.8538  145.6004 C   0  0  0  0  0  0  0  0  0  0  0  0
  -23.2563  -12.9130  145.2539 C   0  0  0  0  0  0  0  0  0  0  0  0
  -22.9659  -12.4824  143.7943 C   0  0  0  0  0  0  0  0  0  0  0  0
  -25.5015  -11.9085  145.0183 C   0  0  0  0  0  0  0  0  0  0  0  0
  1  2  2  0
  1  3  1  0
  3  4  2  0
  4  5  1  0
  2  6  1  0
  5  6  2  0
  4  7  1  0
  7  8  1  0
  8  9  2  0
  9 10  1  0
 10 11  1  0
 11 12  2  0
 11 13  1  0
 10 14  1  0
  7 15  1  0
 14 15  2  0
 13 16  1  0
 16 17  1  0
 17 18  1  0
 18 19  1  0
 19 20  1  0
 20 21  1  0
 21 22  2  0
 22 23  1  0
 23 24  2  0
 24 25  1  0
 25 26  2  0
 22 27  1  0
 26 27  1  0
 19 28  1  0
 27 28  1  0
 23 29  1  0
 18 30  1  0
 15 31  1  0
 31 32  1  0
 32 33  1  0
 33 34  1  0
 32 35  1  0
M  END

$$$$
No_1547-/dssg/home/sw_qyf/PocketFlow/Model-Generation-Results/5HT2A_7WC7_rec_A_10.pdb/2024-01-01-03-54-21/
     RDKit          3D

 20 22  0  0  0  0  0  0  0  0999 V2000
  -24.1553  -17.8465  145.7021 C   0  0  0  0  0  0  0  0  0  0  0  0
  -24.2855  -16.6364  145.3494 C   0  0  0  0  0  0  0  0  0  0  0  0
  -24.7211  -15.5955  146.2116 C   0  0  0  0  0  0  0  0  0  0  0  0
  -24.8538  -14.2010  145.8739 C   0  0  0  0  0  0  0  0  0  0  0  0
  -24.1440  -13.8321  144.7074 C   0  0  0  0  0  0  0  0  0  0  0  0
  -23.5079  -14.7946  143.9923 N   0  0  0  0  0  0  0  0  0  0  0  0
  -23.5385  -16.0602  144.3597 C   0  0  0  0  0  0  0  0  0  0  0  0
  -25.0266  -18.4309  146.7211 C   0  0  0  0  0  0  0  0  0  0  0  0
  -25.6350  -17.4937  147.6027 C   0  0  0  0  0  0  0  0  0  0  0  0
  -25.6672  -16.1148  147.3415 C   0  0  0  0  0  0  0  0  0  0  0  0
  -23.3861  -12.6972  144.9013 O   0  0  0  0  0  0  0  0  0  0  0  0
  -26.1283  -13.5273  146.1642 C   0  0  0  0  0  0  0  0  0  0  0  0
  -25.9949  -12.0575  146.2479 C   0  0  0  0  0  0  0  0  0  0  0  0
  -27.2483  -11.3156  146.1984 C   0  0  0  0  0  0  0  0  0  0  0  0
  -28.5266  -11.9664  146.3602 C   0  0  0  0  0  0  0  0  0  0  0  0
  -29.7312  -11.2824  146.4007 C   0  0  0  0  0  0  0  0  0  0  0  0
  -27.4059  -14.0144  146.2025 C   0  0  0  0  0  0  0  0  0  0  0  0
  -28.5264  -13.2905  146.2975 C   0  0  0  0  0  0  0  0  0  0  0  0
  -30.0753  -10.4104  145.5948 O   0  0  0  0  0  0  0  0  0  0  0  0
  -30.5669  -11.5393  147.4483 O   0  0  0  0  0  0  0  0  0  0  0  0
  3  4  1  0
  4  5  1  0
  5  6  1  0
  2  7  1  0
  6  7  1  0
  5 11  2  0
  4 12  1  0
 15 16  1  0
 16 19  1  0
 16 20  2  0
  1  2  2  0
  2  3  1  0
  3 10  2  0
 10  9  1  0
  9  8  2  0
  8  1  1  0
 12 13  2  0
 13 14  1  0
 14 15  2  0
 15 18  1  0
 18 17  2  0
 17 12  1  0
M  END

$$$$
No_1548-/dssg/home/sw_qyf/PocketFlow/Model-Generation-Results/5HT2A_7WC7_rec_A_10.pdb/2024-01-01-03-54-21/
     RDKit          3D

 22 24  0  0  0  0  0  0  0  0999 V2000
  -24.1553  -17.8465  145.7021 C   0  0  0  0  0  0  0  0  0  0  0  0
  -23.9795  -18.4462  146.7426 C   0  0  0  0  0  0  0  0  0  0  0  0
  -25.1196  -16.8106  145.6408 C   0  0  0  0  0  0  0  0  0  0  0  0
  -25.2440  -15.8776  144.5240 C   0  0  0  0  0  0  0  0  0  0  0  0
  -26.0733  -14.7284  144.7060 C   0  0  0  0  0  0  0  0  0  0  0  0
  -26.0749  -13.6607  143.7625 C   0  0  0  0  0  0  0  0  0  0  0  0
  -23.9559  -17.6833  147.9078 C   0  0  0  0  0  0  0  0  0  0  0  0
  -24.8264  -16.5643  148.1415 C   0  0  0  0  0  0  0  0  0  0  0  0
  -25.0858  -15.8246  146.9166 C   0  0  0  0  0  0  0  0  0  0  0  0
  -26.9920  -12.6417  143.9273 C   0  0  0  0  0  0  0  0  0  0  0  0
  -27.4232  -11.8809  142.8053 C   0  0  0  0  0  0  0  0  0  0  0  0
  -28.4022  -10.8544  143.0027 C   0  0  0  0  0  0  0  0  0  0  0  0
  -29.0736  -10.2029  141.9758 C   0  0  0  0  0  0  0  0  0  0  0  0
  -30.0956   -9.2681  142.2121 C   0  0  0  0  0  0  0  0  0  0  0  0
  -30.5823   -8.4182  141.2189 C   0  0  0  0  0  0  0  0  0  0  0  0
  -29.6960   -7.7488  140.5699 C   0  0  0  0  0  0  0  0  0  0  0  0
  -28.6636   -8.4646  139.8755 C   0  0  0  0  0  0  0  0  0  0  0  0
  -28.2188   -9.6283  140.7956 C   0  0  0  0  0  0  0  0  0  0  0  0
  -26.2181  -14.8512  146.8732 C   0  0  0  0  0  0  0  0  0  0  0  0
  -26.1327  -13.8142  145.9632 C   0  0  0  0  0  0  0  0  0  0  0  0
  -28.0110   -8.2013  138.7355 C   0  0  0  0  0  0  0  0  0  0  0  0
  -27.5909   -9.2457  137.9527 C   0  0  0  0  0  0  0  0  0  0  0  0
  3  4  1  0
  4  5  1  0
  5  6  1  0
  6 10  1  0
 10 11  2  3
 11 12  1  0
  9 19  1  0
  5 20  1  0
 19 20  1  0
 17 21  1  0
 21 22  1  0
 12 13  1  0
 13 14  2  0
 14 15  1  0
 15 16  2  0
 16 17  1  0
 17 18  2  0
 18 13  1  0
  1  2  2  0
  2  7  1  0
  7  8  2  0
  8  9  1  0
  9  3  2  0
  3  1  1  0
M  END

$$$$
No_1549-/dssg/home/sw_qyf/PocketFlow/Model-Generation-Results/5HT2A_7WC7_rec_A_10.pdb/2024-01-01-03-54-21/
     RDKit          3D

 21 23  0  0  0  0  0  0  0  0999 V2000
  -23.1746  -16.6014  144.8668 C   0  0  0  0  0  0  0  0  0  0  0  0
  -23.8963  -15.5346  144.7885 C   0  0  0  0  0  0  0  0  0  0  0  0
  -25.0304  -15.2549  144.5358 C   0  0  0  0  0  0  0  0  0  0  0  0
  -25.6045  -13.9524  144.2294 C   0  0  0  0  0  0  0  0  0  0  0  0
  -26.9716  -13.7632  143.8495 C   0  0  0  0  0  0  0  0  0  0  0  0
  -27.2940  -12.4851  143.3751 C   0  0  0  0  0  0  0  0  0  0  0  0
  -27.3637  -11.4485  144.2830 C   0  0  0  0  0  0  0  0  0  0  0  0
  -26.0601  -11.1118  144.8312 C   0  0  0  0  0  0  0  0  0  0  0  0
  -25.1103  -12.0610  145.4932 C   0  0  0  0  0  0  0  0  0  0  0  0
  -24.7518  -13.1930  144.8855 C   0  0  0  0  0  0  0  0  0  0  0  0
  -28.5180  -10.6826  144.5992 C   0  0  0  0  0  0  0  0  0  0  0  0
  -28.8077   -9.5481  143.8096 C   0  0  0  0  0  0  0  0  0  0  0  0
  -30.1718   -9.0521  143.8570 C   0  0  0  0  0  0  0  0  0  0  0  0
  -30.5934   -8.0831  142.9423 C   0  0  0  0  0  0  0  0  0  0  0  0
  -29.9168   -8.1722  141.7784 C   0  0  0  0  0  0  0  0  0  0  0  0
  -30.0087   -7.0807  140.8027 C   0  0  0  0  0  0  0  0  0  0  0  0
  -29.2981   -7.4072  139.5216 C   0  0  0  0  0  0  0  0  0  0  0  0
  -28.4315   -8.5482  139.4075 C   0  0  0  0  0  0  0  0  0  0  0  0
  -28.3752   -9.4724  140.4796 C   0  0  0  0  0  0  0  0  0  0  0  0
  -29.0945   -9.2636  141.6285 C   0  0  0  0  0  0  0  0  0  0  0  0
  -28.5553   -9.8769  142.3915 C   0  0  0  0  0  0  0  0  0  0  0  0
  1  2  1  0
  2  3  2  3
  3  4  1  0
  4  5  1  0
  5  6  1  0
  6  7  1  0
  7  8  1  0
  8  9  1  0
  4 10  1  0
  9 10  2  0
  7 11  1  0
 11 12  2  3
 12 13  1  0
 13 14  1  0
 14 15  1  0
 12 21  1  0
 20 21  1  0
 15 16  2  0
 16 17  1  0
 17 18  2  0
 18 19  1  0
 19 20  2  0
 20 15  1  0
M  END

$$$$
No_1550-/dssg/home/sw_qyf/PocketFlow/Model-Generation-Results/5HT2A_7WC7_rec_A_10.pdb/2024-01-01-03-54-21/
     RDKit          3D

 18 20  0  0  0  0  0  0  0  0999 V2000
  -24.1553  -17.8465  145.7021 C   0  0  0  0  0  0  0  0  0  0  0  0
  -23.9795  -18.4462  146.7426 C   0  0  0  0  0  0  0  0  0  0  0  0
  -23.2486  -17.2339  144.9771 C   0  0  0  0  0  0  0  0  0  0  0  0
  -24.9812  -19.0362  147.5824 C   0  0  0  0  0  0  0  0  0  0  0  0
  -23.7180  -16.2391  144.0023 C   0  0  0  0  0  0  0  0  0  0  0  0
  -24.1691  -14.9522  144.6878 C   0  0  0  0  0  0  0  0  0  0  0  0
  -24.1546  -13.8262  144.0736 C   0  0  0  0  0  0  0  0  0  0  0  0
  -24.4491  -12.5835  144.8018 C   0  0  0  0  0  0  0  0  0  0  0  0
  -25.4032  -12.6197  145.6923 C   0  0  0  0  0  0  0  0  0  0  0  0
  -25.9197  -13.5195  146.0427 C   0  0  0  0  0  0  0  0  0  0  0  0
  -25.3587  -14.9256  145.7199 C   0  0  0  0  0  0  0  0  0  0  0  0
  -25.8753  -11.2201  146.2764 C   0  0  0  0  0  0  0  0  0  0  0  0
  -26.1660  -10.3711  145.2016 F   0  0  0  0  0  0  0  0  0  0  0  0
  -27.0885  -11.3699  146.8894 F   0  0  0  0  0  0  0  0  0  0  0  0
  -26.2190  -18.4516  147.0784 C   0  0  0  0  0  0  0  0  0  0  0  0
  -26.1294  -17.4126  146.3239 C   0  0  0  0  0  0  0  0  0  0  0  0
  -25.3581  -17.0919  145.5582 C   0  0  0  0  0  0  0  0  0  0  0  0
  -25.7791  -16.1324  146.1624 C   0  0  0  0  0  0  0  0  0  0  0  0
  3  5  1  0
  5  6  1  0
  9 12  1  0
 12 13  1  0
 12 14  1  0
 11 18  1  0
 17 18  1  0
  3  1  1  0
  1  2  2  0
  2  4  1  0
  4 15  2  0
 15 16  1  0
 16 17  2  0
 17  1  1  0
  6  7  2  0
  7  8  1  0
  8  9  2  0
  9 10  1  0
 10 11  2  0
 11  6  1  0
M  END

$$$$
No_1551-/dssg/home/sw_qyf/PocketFlow/Model-Generation-Results/5HT2A_7WC7_rec_A_10.pdb/2024-01-01-03-54-21/
     RDKit          3D

 35 37  0  0  0  0  0  0  0  0999 V2000
  -24.1553  -17.8465  145.7021 C   0  0  0  0  0  0  0  0  0  0  0  0
  -24.6364  -17.2931  146.7091 C   0  0  0  0  0  0  0  0  0  0  0  0
  -24.0780  -17.2921  147.9389 C   0  0  0  0  0  0  0  0  0  0  0  0
  -24.6761  -16.7363  149.1478 C   0  0  0  0  0  0  0  0  0  0  0  0
  -25.9985  -16.2638  148.9932 C   0  0  0  0  0  0  0  0  0  0  0  0
  -26.6270  -16.3412  147.7728 C   0  0  0  0  0  0  0  0  0  0  0  0
  -25.9734  -16.9166  146.6819 C   0  0  0  0  0  0  0  0  0  0  0  0
  -23.8394  -16.9427  144.6493 N   0  0  0  0  0  0  0  0  0  0  0  0
  -23.4496  -18.9522  145.5944 O   0  0  0  0  0  0  0  0  0  0  0  0
  -28.0544  -15.9001  147.7390 C   0  0  0  0  0  0  0  0  0  0  0  0
  -28.3999  -14.7791  147.0160 C   0  0  0  0  0  0  0  0  0  0  0  0
  -27.5912  -13.8334  146.3554 C   0  0  0  0  0  0  0  0  0  0  0  0
  -26.2123  -14.0253  146.1764 C   0  0  0  0  0  0  0  0  0  0  0  0
  -25.4609  -12.9522  145.6198 C   0  0  0  0  0  0  0  0  0  0  0  0
  -23.9921  -13.0148  145.4745 C   0  0  0  0  0  0  0  0  0  0  0  0
  -23.2544  -11.9103  145.0874 C   0  0  0  0  0  0  0  0  0  0  0  0
  -28.0798  -12.6176  145.8487 C   0  0  0  0  0  0  0  0  0  0  0  0
  -27.3701  -11.6155  145.1774 C   0  0  0  0  0  0  0  0  0  0  0  0
  -25.9556  -11.8015  145.1677 C   0  0  0  0  0  0  0  0  0  0  0  0
  -21.8683  -12.1344  145.0605 N   0  0  0  0  0  0  0  0  0  0  0  0
  -28.0242  -10.3919  144.7804 C   0  0  0  0  0  0  0  0  0  0  0  0
  -29.4279  -10.3214  144.6274 C   0  0  0  0  0  0  0  0  0  0  0  0
  -30.0104   -9.5499  143.6011 C   0  0  0  0  0  0  0  0  0  0  0  0
  -29.2501   -8.9091  142.6970 C   0  0  0  0  0  0  0  0  0  0  0  0
  -29.5759   -8.7418  141.6086 C   0  0  0  0  0  0  0  0  0  0  0  0
  -28.8439   -8.7296  140.3467 C   0  0  0  0  0  0  0  0  0  0  0  0
  -29.1586   -7.9656  139.2307 C   0  0  0  0  0  0  0  0  0  0  0  0
  -28.2192   -8.0458  138.2711 N   0  0  0  0  0  0  0  0  0  0  0  0
  -27.9701   -9.8342  140.1881 C   0  0  0  0  0  0  0  0  0  0  0  0
  -27.7293  -10.7684  141.2554 C   0  0  0  0  0  0  0  0  0  0  0  0
  -28.0445  -10.1571  142.5016 N   0  0  0  0  0  0  0  0  0  0  0  0
  -31.3415   -9.0291  143.9212 C   0  0  0  0  0  0  0  0  0  0  0  0
  -30.2922   -7.3926  139.1049 O   0  0  0  0  0  0  0  0  0  0  0  0
  -29.7968  -14.5540  146.9072 N   0  0  0  0  0  0  0  0  0  0  0  0
  -31.5944   -8.0402  143.8976 O   0  0  0  0  0  0  0  0  0  0  0  0
  1  2  1  0
  1  8  1  0
  1  9  2  0
  6 10  1  0
 10 11  2  3
 11 12  1  0
 14 15  1  0
 15 16  1  0
 16 20  1  0
 18 21  1  0
 21 22  2  3
 22 23  1  0
 26 27  1  0
 27 28  1  0
 23 32  1  0
 27 33  2  0
 11 34  1  0
 32 35  2  0
 23 24  1  0
 12 13  2  0
 13 14  1  0
 14 19  2  0
 19 18  1  0
 18 17  2  0
 17 12  1  0
  2  3  2  0
  3  4  1  0
  4  5  2  0
  5  6  1  0
  6  7  2  0
  7  2  1  0
 24 25  2  0
 25 26  1  0
 26 29  2  0
 29 30  1  0
 30 31  2  0
 31 24  1  0
M  END

$$$$
No_1552-/dssg/home/sw_qyf/PocketFlow/Model-Generation-Results/5HT2A_7WC7_rec_A_10.pdb/2024-01-01-03-54-21/
     RDKit          3D

 23 24  0  0  0  0  0  0  0  0999 V2000
  -24.1553  -17.8465  145.7021 C   0  0  0  0  0  0  0  0  0  0  0  0
  -24.2856  -16.6364  145.3494 C   0  0  0  0  0  0  0  0  0  0  0  0
  -23.7824  -15.9602  144.3553 C   0  0  0  0  0  0  0  0  0  0  0  0
  -23.9871  -14.5276  144.1537 C   0  0  0  0  0  0  0  0  0  0  0  0
  -24.7876  -13.8357  145.1352 C   0  0  0  0  0  0  0  0  0  0  0  0
  -25.3945  -14.5459  146.1755 C   0  0  0  0  0  0  0  0  0  0  0  0
  -25.0741  -15.8908  146.3327 C   0  0  0  0  0  0  0  0  0  0  0  0
  -23.4600  -18.3671  146.6957 C   0  0  0  0  0  0  0  0  0  0  0  0
  -23.2516  -19.6997  146.9439 C   0  0  0  0  0  0  0  0  0  0  0  0
  -23.7119  -20.5444  145.8686 C   0  0  0  0  0  0  0  0  0  0  0  0
  -24.4184  -20.1444  144.8594 C   0  0  0  0  0  0  0  0  0  0  0  0
  -24.5972  -18.7238  144.7420 C   0  0  0  0  0  0  0  0  0  0  0  0
  -25.0221  -12.3814  144.9677 C   0  0  0  0  0  0  0  0  0  0  0  0
  -25.5506  -11.8214  146.0319 O   0  0  0  0  0  0  0  0  0  0  0  0
  -22.9703  -17.5230  147.7424 O   0  0  0  0  0  0  0  0  0  0  0  0
  -23.5908  -11.5965  145.0208 C   0  0  0  0  0  0  0  0  0  0  0  0
  -26.6565  -10.9356  145.7972 C   0  0  0  0  0  0  0  0  0  0  0  0
  -27.4855  -11.2257  144.7445 C   0  0  0  0  0  0  0  0  0  0  0  0
  -27.8748  -10.4343  144.0329 C   0  0  0  0  0  0  0  0  0  0  0  0
  -28.9219  -10.6027  142.9195 C   0  0  0  0  0  0  0  0  0  0  0  0
  -30.0356   -9.8281  142.7560 C   0  0  0  0  0  0  0  0  0  0  0  0
  -30.0849   -8.7699  141.8063 C   0  0  0  0  0  0  0  0  0  0  0  0
  -31.1242   -7.6854  141.9444 C   0  0  0  0  0  0  0  0  0  0  0  0
  1  2  1  0
  5 13  1  0
 13 14  1  0
  8 15  1  0
 13 16  1  0
 14 17  1  0
 17 18  1  0
 18 19  2  3
 19 20  1  0
 20 21  1  0
 21 22  1  0
 22 23  3  0
  2  3  2  0
  3  4  1  0
  4  5  2  0
  5  6  1  0
  6  7  2  0
  7  2  1  0
  1  8  2  0
  8  9  1  0
  9 10  2  0
 10 11  1  0
 11 12  2  0
 12  1  1  0
M  END

$$$$
No_1553-/dssg/home/sw_qyf/PocketFlow/Model-Generation-Results/5HT2A_7WC7_rec_A_10.pdb/2024-01-01-03-54-21/
     RDKit          3D

 28 29  0  0  0  0  0  0  0  0999 V2000
  -23.1746  -16.6014  144.8668 C   0  0  0  0  0  0  0  0  0  0  0  0
  -23.5587  -17.7790  145.3895 Cl  0  0  0  0  0  0  0  0  0  0  0  0
  -24.0733  -15.4380  144.9523 C   0  0  0  0  0  0  0  0  0  0  0  0
  -25.0831  -15.4166  145.7985 C   0  0  0  0  0  0  0  0  0  0  0  0
  -25.8606  -14.2483  146.0919 C   0  0  0  0  0  0  0  0  0  0  0  0
  -25.6581  -13.0325  145.3549 C   0  0  0  0  0  0  0  0  0  0  0  0
  -26.4311  -11.8757  145.5123 C   0  0  0  0  0  0  0  0  0  0  0  0
  -26.1202  -10.7165  144.8134 C   0  0  0  0  0  0  0  0  0  0  0  0
  -23.7492  -14.2010  144.2338 C   0  0  0  0  0  0  0  0  0  0  0  0
  -24.5693  -13.0252  144.5358 C   0  0  0  0  0  0  0  0  0  0  0  0
  -27.9470  -12.1455  145.4866 C   0  0  0  0  0  0  0  0  0  0  0  0
  -28.6133  -12.8766  146.4695 C   0  0  0  0  0  0  0  0  0  0  0  0
  -30.0194  -12.7099  146.6571 C   0  0  0  0  0  0  0  0  0  0  0  0
  -30.4175  -13.1604  147.9989 C   0  0  0  0  0  0  0  0  0  0  0  0
  -29.7424  -14.1879  148.2481 F   0  0  0  0  0  0  0  0  0  0  0  0
  -31.7485  -13.3497  148.0417 F   0  0  0  0  0  0  0  0  0  0  0  0
  -30.0635  -12.0786  148.8340 F   0  0  0  0  0  0  0  0  0  0  0  0
  -27.1081   -9.7591  144.3096 C   0  0  0  0  0  0  0  0  0  0  0  0
  -28.0551  -10.3084  143.5725 C   0  0  0  0  0  0  0  0  0  0  0  0
  -29.0647   -9.5967  142.9334 C   0  0  0  0  0  0  0  0  0  0  0  0
  -29.5667   -9.9243  141.7094 C   0  0  0  0  0  0  0  0  0  0  0  0
  -28.7045  -11.2582  144.6301 C   0  0  0  0  0  0  0  0  0  0  0  0
  -28.9540  -11.0608  141.1311 N   0  0  0  0  0  0  0  0  0  0  0  0
  -27.9617  -10.9569  140.3229 C   0  0  0  0  0  0  0  0  0  0  0  0
  -27.4505  -12.2114  139.7119 C   0  0  0  0  0  0  0  0  0  0  0  0
  -27.3680   -9.8412  139.9547 O   0  0  0  0  0  0  0  0  0  0  0  0
  -26.0791  -12.4560  139.8314 C   0  0  0  0  0  0  0  0  0  0  0  0
  -25.4659  -12.6962  138.6083 O   0  0  0  0  0  0  0  0  0  0  0  0
  1  2  1  0
  1  3  1  0
  6  7  1  0
 12 13  1  0
 13 14  1  0
 14 15  1  0
 14 16  1  0
 14 17  1  0
 19 20  1  0
 20 21  2  3
 21 23  1  0
 23 24  1  0
 24 25  1  0
 24 26  2  0
 25 27  1  0
 27 28  1  0
 12 11  1  0
  7  8  2  0
  8 18  1  0
 18 19  2  0
 19 22  1  0
 22 11  2  0
 11  7  1  0
  3  4  2  0
  4  5  1  0
  5  6  2  0
  6 10  1  0
 10  9  2  0
  9  3  1  0
M  END

$$$$
No_1554-/dssg/home/sw_qyf/PocketFlow/Model-Generation-Results/5HT2A_7WC7_rec_A_10.pdb/2024-01-01-03-54-21/
     RDKit          3D

 33 36  0  0  0  0  0  0  0  0999 V2000
  -24.1553  -17.8465  145.7021 C   0  0  0  0  0  0  0  0  0  0  0  0
  -23.9795  -18.4462  146.7426 C   0  0  0  0  0  0  0  0  0  0  0  0
  -24.2723  -16.4220  145.8037 C   0  0  0  0  0  0  0  0  0  0  0  0
  -24.9934  -15.8373  146.8363 C   0  0  0  0  0  0  0  0  0  0  0  0
  -25.2878  -14.4778  146.8072 C   0  0  0  0  0  0  0  0  0  0  0  0
  -24.4015  -18.0073  148.0208 C   0  0  0  0  0  0  0  0  0  0  0  0
  -24.7473  -16.6561  148.1531 C   0  0  0  0  0  0  0  0  0  0  0  0
  -25.6702  -13.8996  145.7296 C   0  0  0  0  0  0  0  0  0  0  0  0
  -25.5918  -12.7253  145.5112 C   0  0  0  0  0  0  0  0  0  0  0  0
  -26.2739  -12.0031  144.4614 C   0  0  0  0  0  0  0  0  0  0  0  0
  -26.9000  -12.8451  143.4977 C   0  0  0  0  0  0  0  0  0  0  0  0
  -26.7739  -14.2137  143.6925 C   0  0  0  0  0  0  0  0  0  0  0  0
  -26.2668  -14.7715  144.7886 C   0  0  0  0  0  0  0  0  0  0  0  0
  -27.4621  -12.2307  142.3093 C   0  0  0  0  0  0  0  0  0  0  0  0
  -27.3206  -12.7215  141.0579 C   0  0  0  0  0  0  0  0  0  0  0  0
  -28.0039  -12.1431  140.0273 C   0  0  0  0  0  0  0  0  0  0  0  0
  -28.6466  -10.9013  140.2962 C   0  0  0  0  0  0  0  0  0  0  0  0
  -28.7858  -10.3636  141.5981 C   0  0  0  0  0  0  0  0  0  0  0  0
  -28.1843  -11.1031  142.6506 C   0  0  0  0  0  0  0  0  0  0  0  0
  -29.5469   -9.1843  141.9119 C   0  0  0  0  0  0  0  0  0  0  0  0
  -29.2063   -7.9800  141.5461 C   0  0  0  0  0  0  0  0  0  0  0  0
  -30.7946   -9.3777  142.6769 C   0  0  0  0  0  0  0  0  0  0  0  0
  -31.9735   -8.3726  142.8091 Cl  0  0  0  0  0  0  0  0  0  0  0  0
  -28.7500   -6.9893  142.4024 C   0  0  0  0  0  0  0  0  0  0  0  0
  -29.0109   -5.5577  142.0294 C   0  0  0  0  0  0  0  0  0  0  0  0
  -28.8148   -4.5058  143.0356 C   0  0  0  0  0  0  0  0  0  0  0  0
  -29.0103   -3.1872  142.6544 C   0  0  0  0  0  0  0  0  0  0  0  0
  -28.9991   -2.1868  143.7462 C   0  0  0  0  0  0  0  0  0  0  0  0
  -29.2794   -0.8328  143.4194 C   0  0  0  0  0  0  0  0  0  0  0  0
  -29.2522   -7.5612  140.1318 C   0  0  0  0  0  0  0  0  0  0  0  0
  -29.9145   -0.5414  142.1971 C   0  0  0  0  0  0  0  0  0  0  0  0
  -30.0024   -1.5542  141.2521 C   0  0  0  0  0  0  0  0  0  0  0  0
  -29.6053   -2.8424  141.4639 C   0  0  0  0  0  0  0  0  0  0  0  0
  1  2  1  0
  1  3  1  0
  3  4  1  0
  4  5  2  3
  2  6  1  0
  4  7  1  0
  6  7  1  0
  5  8  1  0
 11 14  1  0
 18 20  1  0
 20 21  1  0
 20 22  1  0
 22 23  1  0
 21 24  1  0
 24 25  2  3
 25 26  1  0
 26 27  1  0
 21 30  1  0
 14 15  2  0
 15 16  1  0
 16 17  2  0
 17 18  1  0
 18 19  2  0
 19 14  1  0
 27 28  2  0
 28 29  1  0
 29 31  2  0
 31 32  1  0
 32 33  2  0
 33 27  1  0
  8  9  2  0
  9 10  1  0
 10 11  2  0
 11 12  1  0
 12 13  2  0
 13  8  1  0
M  END

$$$$
No_1555-/dssg/home/sw_qyf/PocketFlow/Model-Generation-Results/5HT2A_7WC7_rec_A_10.pdb/2024-01-01-03-54-21/
     RDKit          3D

 24 24  0  0  0  0  0  0  0  0999 V2000
  -24.1553  -17.8465  145.7021 C   0  0  0  0  0  0  0  0  0  0  0  0
  -24.6364  -17.2931  146.7091 C   0  0  0  0  0  0  0  0  0  0  0  0
  -25.8608  -16.5592  146.5934 C   0  0  0  0  0  0  0  0  0  0  0  0
  -25.9533  -15.5604  145.6681 C   0  0  0  0  0  0  0  0  0  0  0  0
  -25.1031  -14.5122  145.9220 C   0  0  0  0  0  0  0  0  0  0  0  0
  -25.1856  -13.3063  145.1479 C   0  0  0  0  0  0  0  0  0  0  0  0
  -26.2664  -12.6316  145.1470 C   0  0  0  0  0  0  0  0  0  0  0  0
  -26.2542  -11.3813  145.6575 C   0  0  0  0  0  0  0  0  0  0  0  0
  -23.9733  -17.3992  148.0311 C   0  0  0  0  0  0  0  0  0  0  0  0
  -22.5762  -17.2680  148.1227 C   0  0  0  0  0  0  0  0  0  0  0  0
  -26.8199  -10.4023  144.6935 C   0  0  0  0  0  0  0  0  0  0  0  0
  -28.1212  -10.6547  144.1487 C   0  0  0  0  0  0  0  0  0  0  0  0
  -28.4500  -10.0779  143.0167 C   0  0  0  0  0  0  0  0  0  0  0  0
  -29.5934   -9.3748  142.7862 C   0  0  0  0  0  0  0  0  0  0  0  0
  -30.1140   -8.9242  141.6042 C   0  0  0  0  0  0  0  0  0  0  0  0
  -29.1670   -8.9516  140.5598 C   0  0  0  0  0  0  0  0  0  0  0  0
  -29.4232   -8.1766  139.3628 C   0  0  0  0  0  0  0  0  0  0  0  0
  -28.5119   -8.4084  138.2904 C   0  0  0  0  0  0  0  0  0  0  0  0
  -27.4374   -9.2926  138.5406 C   0  0  0  0  0  0  0  0  0  0  0  0
  -27.9691   -9.7884  140.4455 C   0  0  0  0  0  0  0  0  0  0  0  0
  -27.0689  -10.3610  140.2101 N   0  0  0  0  0  0  0  0  0  0  0  0
  -26.6900  -10.0737  138.9816 C   0  0  0  0  0  0  0  0  0  0  0  0
  -28.0708  -10.3068  141.9471 N   0  0  0  0  0  0  0  0  0  0  0  0
  -27.2658  -11.5759  142.0621 N   0  0  0  0  0  0  0  0  0  0  0  0
  1  2  1  0
  2  3  1  0
  3  4  1  0
  4  5  1  0
  5  6  1  0
  6  7  1  0
  7  8  1  0
  2  9  1  0
  9 10  2  0
  8 11  1  0
 11 12  1  0
 12 13  2  3
 13 14  1  0
 14 15  2  3
 15 16  1  0
 16 17  1  0
 17 18  2  0
 18 19  1  0
 16 20  1  0
 20 21  1  0
 19 22  2  0
 21 22  1  0
 20 23  1  0
 23 24  1  0
M  END

$$$$
No_1556-/dssg/home/sw_qyf/PocketFlow/Model-Generation-Results/5HT2A_7WC7_rec_A_10.pdb/2024-01-01-03-54-21/
     RDKit          3D

 30 32  0  0  0  0  0  0  0  0999 V2000
  -24.1553  -17.8465  145.7021 C   0  0  0  0  0  0  0  0  0  0  0  0
  -24.6364  -17.2931  146.7091 C   0  0  0  0  0  0  0  0  0  0  0  0
  -25.8608  -16.5592  146.5934 C   0  0  0  0  0  0  0  0  0  0  0  0
  -26.9933  -16.9082  147.1889 C   0  0  0  0  0  0  0  0  0  0  0  0
  -28.2350  -16.1839  146.8943 C   0  0  0  0  0  0  0  0  0  0  0  0
  -28.1591  -14.9305  146.2109 C   0  0  0  0  0  0  0  0  0  0  0  0
  -26.9098  -14.5235  145.6600 C   0  0  0  0  0  0  0  0  0  0  0  0
  -25.7460  -15.3614  145.8720 C   0  0  0  0  0  0  0  0  0  0  0  0
  -26.8049  -13.2839  144.9023 C   0  0  0  0  0  0  0  0  0  0  0  0
  -26.5767  -13.3510  143.6470 C   0  0  0  0  0  0  0  0  0  0  0  0
  -27.1698  -12.4527  142.6849 C   0  0  0  0  0  0  0  0  0  0  0  0
  -27.7422  -11.2353  143.1191 C   0  0  0  0  0  0  0  0  0  0  0  0
  -28.4482  -10.4099  142.2969 C   0  0  0  0  0  0  0  0  0  0  0  0
  -28.4724  -10.4557  140.9293 C   0  0  0  0  0  0  0  0  0  0  0  0
  -27.7971  -11.6643  140.4345 C   0  0  0  0  0  0  0  0  0  0  0  0
  -27.1794  -12.6514  141.2951 C   0  0  0  0  0  0  0  0  0  0  0  0
  -27.5870  -11.9899  139.0245 C   0  0  0  0  0  0  0  0  0  0  0  0
  -24.0111  -17.4680  148.0618 C   0  0  0  0  0  0  0  0  0  0  0  0
  -22.6620  -17.6223  148.0443 N   0  0  0  0  0  0  0  0  0  0  0  0
  -22.7963  -18.4691  145.8211 C   0  0  0  0  0  0  0  0  0  0  0  0
  -22.1890  -18.2704  147.0208 C   0  0  0  0  0  0  0  0  0  0  0  0
  -29.1494   -9.1081  142.6413 C   0  0  0  0  0  0  0  0  0  0  0  0
  -29.7477   -8.2219  141.8749 C   0  0  0  0  0  0  0  0  0  0  0  0
  -29.9665   -6.9453  142.3542 C   0  0  0  0  0  0  0  0  0  0  0  0
  -30.5599   -8.5353  140.8445 C   0  0  0  0  0  0  0  0  0  0  0  0
  -28.5004  -11.9081  138.1925 O   0  0  0  0  0  0  0  0  0  0  0  0
  -26.3157  -12.2778  138.7246 O   0  0  0  0  0  0  0  0  0  0  0  0
  -24.3333  -14.8249  145.1648 Cl  0  0  0  0  0  0  0  0  0  0  0  0
  -30.3804   -6.6136  143.4069 N   0  0  0  0  0  0  0  0  0  0  0  0
  -29.0920   -5.9588  141.7407 N   0  0  0  0  0  0  0  0  0  0  0  0
  2  3  1  0
  7  9  1  0
  9 10  2  3
 10 11  1  0
 15 17  1  0
 13 22  1  0
 22 23  1  0
 23 24  2  3
 23 25  1  0
 17 26  1  0
 17 27  2  0
  8 28  1  0
 24 29  1  0
 24 30  1  0
 11 12  2  0
 12 13  1  0
 13 14  2  0
 14 15  1  0
 15 16  2  0
 16 11  1  0
  3  4  2  0
  4  5  1  0
  5  6  2  0
  6  7  1  0
  7  8  2  0
  8  3  1  0
  1  2  2  0
  2 18  1  0
 18 19  2  0
 19 21  1  0
 21 20  2  0
 20  1  1  0
M  END

$$$$
No_1557-/dssg/home/sw_qyf/PocketFlow/Model-Generation-Results/5HT2A_7WC7_rec_A_10.pdb/2024-01-01-03-54-21/
     RDKit          3D

 35 37  0  0  0  0  0  0  0  0999 V2000
  -24.1553  -17.8465  145.7021 C   0  0  0  0  0  0  0  0  0  0  0  0
  -23.9795  -18.4462  146.7426 C   0  0  0  0  0  0  0  0  0  0  0  0
  -25.1593  -16.8262  145.6925 C   0  0  0  0  0  0  0  0  0  0  0  0
  -25.3302  -15.8818  144.5925 C   0  0  0  0  0  0  0  0  0  0  0  0
  -24.4570  -18.1009  148.0274 C   0  0  0  0  0  0  0  0  0  0  0  0
  -25.3496  -17.0286  148.1023 C   0  0  0  0  0  0  0  0  0  0  0  0
  -25.5669  -16.2449  146.9641 C   0  0  0  0  0  0  0  0  0  0  0  0
  -24.1866  -15.0522  144.1641 C   0  0  0  0  0  0  0  0  0  0  0  0
  -24.2566  -13.6348  144.4173 C   0  0  0  0  0  0  0  0  0  0  0  0
  -23.7302  -13.1898  145.5642 C   0  0  0  0  0  0  0  0  0  0  0  0
  -23.6634  -11.7312  145.7935 C   0  0  0  0  0  0  0  0  0  0  0  0
  -24.5496  -10.9552  144.9696 C   0  0  0  0  0  0  0  0  0  0  0  0
  -25.5522  -11.5517  144.1803 C   0  0  0  0  0  0  0  0  0  0  0  0
  -25.3438  -12.9030  143.8709 C   0  0  0  0  0  0  0  0  0  0  0  0
  -26.4931  -15.1621  147.0376 C   0  0  0  0  0  0  0  0  0  0  0  0
  -27.8598  -15.2580  146.6718 C   0  0  0  0  0  0  0  0  0  0  0  0
  -28.6352  -14.1367  146.6894 C   0  0  0  0  0  0  0  0  0  0  0  0
  -29.9804  -14.0692  146.9275 C   0  0  0  0  0  0  0  0  0  0  0  0
  -30.6030  -12.8849  147.2825 C   0  0  0  0  0  0  0  0  0  0  0  0
  -29.8700  -11.6524  147.0614 C   0  0  0  0  0  0  0  0  0  0  0  0
  -28.5261  -11.6880  146.7180 C   0  0  0  0  0  0  0  0  0  0  0  0
  -27.8543  -12.8819  146.6165 C   0  0  0  0  0  0  0  0  0  0  0  0
  -28.4695  -16.4988  146.3834 C   0  0  0  0  0  0  0  0  0  0  0  0
  -26.5350  -10.7772  143.4848 C   0  0  0  0  0  0  0  0  0  0  0  0
  -27.1318   -9.8671  144.1527 O   0  0  0  0  0  0  0  0  0  0  0  0
  -26.9070  -10.9746  142.3039 O   0  0  0  0  0  0  0  0  0  0  0  0
  -28.3538  -11.0486  142.0550 C   0  0  0  0  0  0  0  0  0  0  0  0
  -28.7563  -10.2098  141.0621 C   0  0  0  0  0  0  0  0  0  0  0  0
  -29.6433   -9.0907  141.4943 C   0  0  0  0  0  0  0  0  0  0  0  0
  -30.4861   -9.0491  142.5606 C   0  0  0  0  0  0  0  0  0  0  0  0
  -31.1989   -7.8475  142.8862 C   0  0  0  0  0  0  0  0  0  0  0  0
  -29.6370   -7.8779  140.6491 C   0  0  0  0  0  0  0  0  0  0  0  0
  -29.0933   -7.8171  139.3714 C   0  0  0  0  0  0  0  0  0  0  0  0
  -28.3473   -8.4203  138.9149 C   0  0  0  0  0  0  0  0  0  0  0  0
  -27.7461   -9.7565  139.1788 C   0  0  0  0  0  0  0  0  0  0  0  0
  3  4  1  0
  4  8  2  3
  8  9  1  0
  7 15  1  0
 15 16  1  0
 16 17  1  0
 16 23  1  0
 13 24  1  0
 24 25  2  0
 24 26  1  0
 26 27  1  0
 27 28  1  0
 28 29  1  0
 29 30  1  0
 30 31  2  0
 29 32  1  0
 32 33  1  0
 33 34  2  3
 34 35  1  0
  9 10  2  0
 10 11  1  0
 11 12  2  0
 12 13  1  0
 13 14  2  0
 14  9  1  0
 17 18  2  0
 18 19  1  0
 19 20  2  0
 20 21  1  0
 21 22  2  0
 22 17  1  0
  1  2  2  0
  2  5  1  0
  5  6  2  0
  6  7  1  0
  7  3  2  0
  3  1  1  0
M  END

$$$$
No_1558-/dssg/home/sw_qyf/PocketFlow/Model-Generation-Results/5HT2A_7WC7_rec_A_10.pdb/2024-01-01-03-54-21/
     RDKit          3D

 35 38  0  0  0  0  0  0  0  0999 V2000
  -24.1553  -17.8465  145.7021 C   0  0  0  0  0  0  0  0  0  0  0  0
  -23.9795  -18.4462  146.7426 C   0  0  0  0  0  0  0  0  0  0  0  0
  -23.3558  -17.2450  144.9339 C   0  0  0  0  0  0  0  0  0  0  0  0
  -24.9341  -19.0253  147.6214 C   0  0  0  0  0  0  0  0  0  0  0  0
  -23.9048  -16.1596  144.0438 C   0  0  0  0  0  0  0  0  0  0  0  0
  -24.4492  -15.0181  144.7973 C   0  0  0  0  0  0  0  0  0  0  0  0
  -24.3431  -13.7708  144.3105 C   0  0  0  0  0  0  0  0  0  0  0  0
  -23.9309  -12.8537  145.4614 C   0  0  0  0  0  0  0  0  0  0  0  0
  -23.2032  -11.6780  145.1554 C   0  0  0  0  0  0  0  0  0  0  0  0
  -24.9496  -12.7654  146.5538 C   0  0  0  0  0  0  0  0  0  0  0  0
  -25.2767  -14.1457  147.0997 C   0  0  0  0  0  0  0  0  0  0  0  0
  -25.3644  -15.2151  146.0451 C   0  0  0  0  0  0  0  0  0  0  0  0
  -26.2202  -18.5524  147.2423 C   0  0  0  0  0  0  0  0  0  0  0  0
  -25.9406  -17.7294  146.1028 C   0  0  0  0  0  0  0  0  0  0  0  0
  -21.8626  -12.0015  144.5732 C   0  0  0  0  0  0  0  0  0  0  0  0
  -26.7606  -15.2862  145.4555 C   0  0  0  0  0  0  0  0  0  0  0  0
  -27.4115  -13.9385  145.5773 C   0  0  0  0  0  0  0  0  0  0  0  0
  -28.3430  -13.5699  146.2392 C   0  0  0  0  0  0  0  0  0  0  0  0
  -29.0055  -14.2916  147.3646 C   0  0  0  0  0  0  0  0  0  0  0  0
  -30.1362  -13.8671  147.9002 C   0  0  0  0  0  0  0  0  0  0  0  0
  -30.5369  -12.5085  147.7655 C   0  0  0  0  0  0  0  0  0  0  0  0
  -29.8710  -11.7031  146.8334 C   0  0  0  0  0  0  0  0  0  0  0  0
  -28.7970  -12.1493  146.1467 C   0  0  0  0  0  0  0  0  0  0  0  0
  -28.1914  -11.3488  145.2462 N   0  0  0  0  0  0  0  0  0  0  0  0
  -28.5708  -10.7241  144.1779 C   0  0  0  0  0  0  0  0  0  0  0  0
  -27.9742  -10.5794  143.0272 C   0  0  0  0  0  0  0  0  0  0  0  0
  -28.6093   -9.9744  141.9469 C   0  0  0  0  0  0  0  0  0  0  0  0
  -28.1184   -9.8199  140.6456 C   0  0  0  0  0  0  0  0  0  0  0  0
  -28.6867   -9.0660  139.6293 C   0  0  0  0  0  0  0  0  0  0  0  0
  -29.0476   -7.8520  139.9638 C   0  0  0  0  0  0  0  0  0  0  0  0
  -29.7247   -7.7129  141.2818 C   0  0  0  0  0  0  0  0  0  0  0  0
  -29.3412   -8.6474  142.3148 C   0  0  0  0  0  0  0  0  0  0  0  0
  -31.5934  -12.0162  148.5278 O   0  0  0  0  0  0  0  0  0  0  0  0
  -27.9684   -9.2239  138.4253 C   0  0  0  0  0  0  0  0  0  0  0  0
  -29.9018  -10.4325  144.3538 O   0  0  0  0  0  0  0  0  0  0  0  0
  1  2  2  0
  1  3  1  0
  2  4  1  0
  3  5  2  3
  5  6  1  0
  6  7  1  0
  7  8  1  0
  8  9  1  0
  8 10  1  0
 10 11  1  0
  6 12  1  0
 11 12  1  0
  4 13  2  0
  1 14  1  0
 13 14  1  0
  9 15  1  0
 12 16  1  0
 16 17  1  0
 23 24  1  0
 24 25  1  0
 25 26  1  0
 21 33  1  0
 29 34  1  0
 25 35  2  0
 17 18  1  0
 26 27  1  0
 27 28  2  0
 28 29  1  0
 29 30  2  0
 30 31  1  0
 31 32  2  0
 32 27  1  0
 18 19  2  0
 19 20  1  0
 20 21  2  0
 21 22  1  0
 22 23  2  0
 23 18  1  0
M  END

$$$$
No_1559-/dssg/home/sw_qyf/PocketFlow/Model-Generation-Results/5HT2A_7WC7_rec_A_10.pdb/2024-01-01-03-54-21/
     RDKit          3D

 35 38  0  0  0  0  0  0  0  0999 V2000
  -23.1746  -16.6014  144.8668 C   0  0  0  0  0  0  0  0  0  0  0  0
  -24.0189  -16.0564  145.8445 C   0  0  0  0  0  0  0  0  0  0  0  0
  -24.4850  -14.7380  145.6359 C   0  0  0  0  0  0  0  0  0  0  0  0
  -24.0208  -14.0081  144.6269 C   0  0  0  0  0  0  0  0  0  0  0  0
  -24.4092  -12.5999  144.5318 C   0  0  0  0  0  0  0  0  0  0  0  0
  -25.4740  -12.1564  145.3988 C   0  0  0  0  0  0  0  0  0  0  0  0
  -26.2979  -12.7040  145.5651 C   0  0  0  0  0  0  0  0  0  0  0  0
  -25.9063  -14.2191  146.1193 C   0  0  0  0  0  0  0  0  0  0  0  0
  -24.3625  -16.7197  147.0781 C   0  0  0  0  0  0  0  0  0  0  0  0
  -23.8717  -17.9695  147.3307 C   0  0  0  0  0  0  0  0  0  0  0  0
  -22.8405  -17.9823  145.2449 N   0  0  0  0  0  0  0  0  0  0  0  0
  -23.1468  -18.5291  146.4189 C   0  0  0  0  0  0  0  0  0  0  0  0
  -27.7265  -12.5352  146.0051 C   0  0  0  0  0  0  0  0  0  0  0  0
  -28.3727  -11.4659  145.3984 C   0  0  0  0  0  0  0  0  0  0  0  0
  -29.8035  -11.2163  145.7199 C   0  0  0  0  0  0  0  0  0  0  0  0
  -30.4562   -9.7973  145.0634 Cl  0  0  0  0  0  0  0  0  0  0  0  0
  -28.5645  -13.3627  146.8176 C   0  0  0  0  0  0  0  0  0  0  0  0
  -28.0478  -14.5433  147.4123 C   0  0  0  0  0  0  0  0  0  0  0  0
  -28.8192  -15.4689  148.1246 C   0  0  0  0  0  0  0  0  0  0  0  0
  -26.6875  -15.0040  147.0011 C   0  0  0  0  0  0  0  0  0  0  0  0
  -28.3293  -16.6987  148.6722 C   0  0  0  0  0  0  0  0  0  0  0  0
  -29.1721  -17.4882  149.4797 C   0  0  0  0  0  0  0  0  0  0  0  0
  -27.7831  -10.6523  144.3683 C   0  0  0  0  0  0  0  0  0  0  0  0
  -28.3887  -10.1781  143.2354 C   0  0  0  0  0  0  0  0  0  0  0  0
  -28.3294  -10.7277  142.1013 C   0  0  0  0  0  0  0  0  0  0  0  0
  -28.9784  -10.1349  140.9624 C   0  0  0  0  0  0  0  0  0  0  0  0
  -28.9761   -8.8871  141.0320 C   0  0  0  0  0  0  0  0  0  0  0  0
  -29.1495   -8.0885  142.1714 C   0  0  0  0  0  0  0  0  0  0  0  0
  -28.6489   -8.7364  143.3519 C   0  0  0  0  0  0  0  0  0  0  0  0
  -29.4020   -8.1604  139.7062 C   0  0  0  0  0  0  0  0  0  0  0  0
  -30.1653   -7.4003  139.8324 F   0  0  0  0  0  0  0  0  0  0  0  0
  -28.1377   -7.3476  139.3492 F   0  0  0  0  0  0  0  0  0  0  0  0
  -29.1723   -9.0032  138.6818 F   0  0  0  0  0  0  0  0  0  0  0  0
  -29.5191  -17.2026  150.5633 N   0  0  0  0  0  0  0  0  0  0  0  0
  -30.4227  -11.8471  146.5075 O   0  0  0  0  0  0  0  0  0  0  0  0
  2  3  1  0
  7 13  1  0
 13 14  2  3
 14 15  1  0
 15 16  1  0
 13 17  1  0
 17 18  1  0
 18 19  2  3
  8 20  1  0
 18 20  1  0
 19 21  1  0
 21 22  1  0
 14 23  1  0
 23 24  1  0
 27 30  1  0
 30 31  1  0
 30 32  1  0
 30 33  1  0
 22 34  2  0
 15 35  2  0
  1  2  2  0
  2  9  1  0
  9 10  2  0
 10 12  1  0
 12 11  2  0
 11  1  1  0
 24 25  2  0
 25 26  1  0
 26 27  2  0
 27 28  1  0
 28 29  2  0
 29 24  1  0
  3  4  2  0
  4  5  1  0
  5  6  2  0
  6  7  1  0
  7  8  2  0
  8  3  1  0
M  END

$$$$
No_1560-/dssg/home/sw_qyf/PocketFlow/Model-Generation-Results/5HT2A_7WC7_rec_A_10.pdb/2024-01-01-03-54-21/
     RDKit          3D

 33 36  0  0  0  0  0  0  0  0999 V2000
  -23.1746  -16.6014  144.8668 C   0  0  0  0  0  0  0  0  0  0  0  0
  -24.0189  -16.0564  145.8445 C   0  0  0  0  0  0  0  0  0  0  0  0
  -24.4850  -14.7380  145.6359 C   0  0  0  0  0  0  0  0  0  0  0  0
  -24.0208  -14.0081  144.6269 C   0  0  0  0  0  0  0  0  0  0  0  0
  -24.4092  -12.5999  144.5318 C   0  0  0  0  0  0  0  0  0  0  0  0
  -25.4740  -12.1564  145.3988 C   0  0  0  0  0  0  0  0  0  0  0  0
  -26.0026  -12.9757  146.4473 C   0  0  0  0  0  0  0  0  0  0  0  0
  -25.5310  -14.3126  146.5215 C   0  0  0  0  0  0  0  0  0  0  0  0
  -24.3440  -16.8341  146.9928 C   0  0  0  0  0  0  0  0  0  0  0  0
  -23.8810  -18.0850  147.1868 C   0  0  0  0  0  0  0  0  0  0  0  0
  -23.1381  -18.6699  146.1161 C   0  0  0  0  0  0  0  0  0  0  0  0
  -22.8956  -17.9801  145.0371 N   0  0  0  0  0  0  0  0  0  0  0  0
  -25.9631  -10.7752  145.3139 C   0  0  0  0  0  0  0  0  0  0  0  0
  -26.1692  -10.1304  144.2547 C   0  0  0  0  0  0  0  0  0  0  0  0
  -26.7191  -10.7582  143.1458 C   0  0  0  0  0  0  0  0  0  0  0  0
  -28.1725  -10.5843  143.0596 C   0  0  0  0  0  0  0  0  0  0  0  0
  -28.9059  -10.6860  144.2387 C   0  0  0  0  0  0  0  0  0  0  0  0
  -30.2535  -10.2251  144.3294 C   0  0  0  0  0  0  0  0  0  0  0  0
  -30.7994   -9.5281  143.2380 C   0  0  0  0  0  0  0  0  0  0  0  0
  -30.0213   -9.4172  142.0945 C   0  0  0  0  0  0  0  0  0  0  0  0
  -28.7385   -9.8387  142.0397 C   0  0  0  0  0  0  0  0  0  0  0  0
  -32.0564   -9.0638  143.3484 O   0  0  0  0  0  0  0  0  0  0  0  0
  -28.0781   -9.7388  140.7741 C   0  0  0  0  0  0  0  0  0  0  0  0
  -28.4512   -8.6858  139.8769 C   0  0  0  0  0  0  0  0  0  0  0  0
  -28.5558   -8.7961  138.5855 C   0  0  0  0  0  0  0  0  0  0  0  0
  -28.8742   -7.6656  137.7197 C   0  0  0  0  0  0  0  0  0  0  0  0
  -28.2262  -10.0190  137.9479 C   0  0  0  0  0  0  0  0  0  0  0  0
  -27.8101  -10.9750  138.6416 O   0  0  0  0  0  0  0  0  0  0  0  0
  -27.5280  -10.9864  139.7844 C   0  0  0  0  0  0  0  0  0  0  0  0
  -22.9152  -16.0858  143.8306 O   0  0  0  0  0  0  0  0  0  0  0  0
  -26.5300  -11.4994  140.2469 O   0  0  0  0  0  0  0  0  0  0  0  0
  -28.0472   -7.1835  137.2804 O   0  0  0  0  0  0  0  0  0  0  0  0
  -30.1479   -7.4323  137.7982 O   0  0  0  0  0  0  0  0  0  0  0  0
  1  2  1  0
  2  3  1  0
  2  9  1  0
 10 11  1  0
  1 12  1  0
 11 12  1  0
  6 13  1  0
 13 14  1  0
 14 15  1  0
 15 16  1  0
 19 22  1  0
 21 23  1  0
 23 24  1  0
 24 25  2  0
 25 26  1  0
 25 27  1  0
 27 28  1  0
 23 29  1  0
 28 29  1  0
  1 30  2  0
 29 31  2  0
 26 32  1  0
 26 33  2  0
  9 10  1  0
  3  4  2  0
  4  5  1  0
  5  6  2  0
  6  7  1  0
  7  8  2  0
  8  3  1  0
 16 17  2  0
 17 18  1  0
 18 19  2  0
 19 20  1  0
 20 21  2  0
 21 16  1  0
M  END

$$$$
No_1561-/dssg/home/sw_qyf/PocketFlow/Model-Generation-Results/5HT2A_7WC7_rec_A_10.pdb/2024-01-01-03-54-21/
     RDKit          3D

 11 12  0  0  0  0  0  0  0  0999 V2000
  -24.1553  -17.8465  145.7021 C   0  0  0  0  0  0  0  0  0  0  0  0
  -24.2855  -16.6364  145.3494 C   0  0  0  0  0  0  0  0  0  0  0  0
  -23.7824  -15.9603  144.3553 C   0  0  0  0  0  0  0  0  0  0  0  0
  -23.9871  -14.5276  144.1537 C   0  0  0  0  0  0  0  0  0  0  0  0
  -24.7875  -13.8357  145.1352 C   0  0  0  0  0  0  0  0  0  0  0  0
  -25.3944  -14.5459  146.1755 C   0  0  0  0  0  0  0  0  0  0  0  0
  -25.0741  -15.8908  146.3327 C   0  0  0  0  0  0  0  0  0  0  0  0
  -24.7878  -18.4075  146.7775 C   0  0  0  0  0  0  0  0  0  0  0  0
  -25.4984  -17.7655  147.7050 C   0  0  0  0  0  0  0  0  0  0  0  0
  -25.7307  -16.4122  147.5454 C   0  0  0  0  0  0  0  0  0  0  0  0
  -25.0322  -12.1572  144.9179 Cl  0  0  0  0  0  0  0  0  0  0  0  0
  5 11  1  0
  2  3  1  0
  3  4  2  0
  4  5  1  0
  5  6  2  0
  6  7  1  0
  1  2  2  0
  2  7  1  0
  7 10  2  0
 10  9  1  0
  9  8  2  0
  8  1  1  0
M  END

$$$$
No_1562-/dssg/home/sw_qyf/PocketFlow/Model-Generation-Results/5HT2A_7WC7_rec_A_10.pdb/2024-01-01-03-54-21/
     RDKit          3D

 35 37  0  0  0  0  0  0  0  0999 V2000
  -24.1553  -17.8465  145.7021 C   0  0  0  0  0  0  0  0  0  0  0  0
  -23.9795  -18.4462  146.7426 C   0  0  0  0  0  0  0  0  0  0  0  0
  -25.1593  -16.8262  145.6925 C   0  0  0  0  0  0  0  0  0  0  0  0
  -26.3426  -16.9003  146.3448 C   0  0  0  0  0  0  0  0  0  0  0  0
  -27.1700  -15.7345  146.5828 C   0  0  0  0  0  0  0  0  0  0  0  0
  -28.3757  -15.6538  147.3143 C   0  0  0  0  0  0  0  0  0  0  0  0
  -29.1580  -14.5330  147.3085 C   0  0  0  0  0  0  0  0  0  0  0  0
  -28.7324  -13.4034  146.6111 C   0  0  0  0  0  0  0  0  0  0  0  0
  -27.5466  -13.4194  145.8264 C   0  0  0  0  0  0  0  0  0  0  0  0
  -27.0712  -12.2643  145.1352 C   0  0  0  0  0  0  0  0  0  0  0  0
  -26.8003  -14.5609  145.8119 C   0  0  0  0  0  0  0  0  0  0  0  0
  -27.2235  -11.1335  145.3057 C   0  0  0  0  0  0  0  0  0  0  0  0
  -26.8501   -9.9749  144.5138 C   0  0  0  0  0  0  0  0  0  0  0  0
  -26.5845  -12.6446  143.7879 C   0  0  0  0  0  0  0  0  0  0  0  0
  -23.4069  -17.6564  147.8974 C   0  0  0  0  0  0  0  0  0  0  0  0
  -24.2355  -17.5022  149.1329 C   0  0  0  0  0  0  0  0  0  0  0  0
  -23.6177  -17.4831  150.3802 C   0  0  0  0  0  0  0  0  0  0  0  0
  -25.9480  -13.7066  143.6586 O   0  0  0  0  0  0  0  0  0  0  0  0
  -24.7937  -15.5187  144.9935 C   0  0  0  0  0  0  0  0  0  0  0  0
  -23.5233  -15.4197  144.4521 N   0  0  0  0  0  0  0  0  0  0  0  0
  -25.6233  -14.3608  145.3308 C   0  0  0  0  0  0  0  0  0  0  0  0
  -25.1912  -14.0985  142.7272 C   0  0  0  0  0  0  0  0  0  0  0  0
  -22.3022  -16.8244  150.4751 C   0  0  0  0  0  0  0  0  0  0  0  0
  -21.9100  -16.1684  149.8147 N   0  0  0  0  0  0  0  0  0  0  0  0
  -21.8974  -16.2837  148.3824 C   0  0  0  0  0  0  0  0  0  0  0  0
  -22.3765  -16.9476  147.6932 C   0  0  0  0  0  0  0  0  0  0  0  0
  -29.5775  -12.2816  146.6176 N   0  0  0  0  0  0  0  0  0  0  0  0
  -30.0841  -11.7990  147.8579 C   0  0  0  0  0  0  0  0  0  0  0  0
  -29.9385  -11.6015  145.4668 C   0  0  0  0  0  0  0  0  0  0  0  0
  -31.5426  -11.9927  147.9429 C   0  0  0  0  0  0  0  0  0  0  0  0
  -31.9622  -11.7221  149.1722 O   0  0  0  0  0  0  0  0  0  0  0  0
  -33.3076  -11.9652  149.4684 C   0  0  0  0  0  0  0  0  0  0  0  0
  -33.9941  -11.8511  148.4990 C   0  0  0  0  0  0  0  0  0  0  0  0
  -33.5952  -12.1590  150.8657 C   0  0  0  0  0  0  0  0  0  0  0  0
  -33.2614  -11.3393  151.7253 O   0  0  0  0  0  0  0  0  0  0  0  0
  1  2  1  0
  1  3  1  0
  3  4  1  0
  4  5  1  0
  9 10  1  0
 10 12  2  3
 12 13  1  0
 10 14  1  0
  2 15  1  0
 15 16  1  0
 16 17  2  0
 14 18  1  0
  3 19  1  0
 19 20  1  0
 11 21  1  0
 19 21  1  0
 18 22  1  0
 17 23  1  0
 23 24  2  0
 24 25  1  0
 15 26  1  0
 25 26  1  0
  8 27  1  0
 27 28  1  0
 27 29  1  0
 28 30  1  0
 30 31  1  0
 31 32  1  0
 32 33  1  0
 32 34  1  0
 34 35  2  0
  5  6  2  0
  6  7  1  0
  7  8  2  0
  8  9  1  0
  9 11  2  0
 11  5  1  0
M  END

$$$$
No_1563-/dssg/home/sw_qyf/PocketFlow/Model-Generation-Results/5HT2A_7WC7_rec_A_10.pdb/2024-01-01-03-54-21/
     RDKit          3D

 12 13  0  0  0  0  0  0  0  0999 V2000
  -23.1746  -16.6014  144.8668 C   0  0  0  0  0  0  0  0  0  0  0  0
  -23.7011  -17.0158  145.9774 C   0  0  0  0  0  0  0  0  0  0  0  0
  -24.2134  -16.0722  146.8877 C   0  0  0  0  0  0  0  0  0  0  0  0
  -24.5407  -14.7704  146.3553 C   0  0  0  0  0  0  0  0  0  0  0  0
  -24.9626  -13.7061  147.1333 C   0  0  0  0  0  0  0  0  0  0  0  0
  -23.3779  -15.3434  144.3588 C   0  0  0  0  0  0  0  0  0  0  0  0
  -23.9101  -14.3616  145.1708 C   0  0  0  0  0  0  0  0  0  0  0  0
  -25.0465  -12.3843  146.5485 C   0  0  0  0  0  0  0  0  0  0  0  0
  -24.6064  -12.1091  145.2478 C   0  0  0  0  0  0  0  0  0  0  0  0
  -23.9468  -13.1514  144.5845 C   0  0  0  0  0  0  0  0  0  0  0  0
  -23.5474  -18.3358  146.4836 N   0  0  0  0  0  0  0  0  0  0  0  0
  -22.6379  -18.9138  146.8033 O   0  0  0  0  0  0  0  0  0  0  0  0
  1  2  1  0
  2  3  1  0
  3  4  1  0
  1  6  1  0
  6  7  1  0
  2 11  1  0
 11 12  2  0
  4  5  2  0
  5  8  1  0
  8  9  2  0
  9 10  1  0
 10  7  2  0
  7  4  1  0
M  END

$$$$
No_1564-/dssg/home/sw_qyf/PocketFlow/Model-Generation-Results/5HT2A_7WC7_rec_A_10.pdb/2024-01-01-03-54-21/
     RDKit          3D

 18 19  0  0  0  0  0  0  0  0999 V2000
  -23.1746  -16.6014  144.8668 C   0  0  0  0  0  0  0  0  0  0  0  0
  -23.7011  -17.0158  145.9774 C   0  0  0  0  0  0  0  0  0  0  0  0
  -24.2593  -16.1244  146.9100 C   0  0  0  0  0  0  0  0  0  0  0  0
  -24.7835  -16.4779  148.2292 C   0  0  0  0  0  0  0  0  0  0  0  0
  -23.4599  -15.2504  144.4004 C   0  0  0  0  0  0  0  0  0  0  0  0
  -24.1281  -14.2978  145.2912 C   0  0  0  0  0  0  0  0  0  0  0  0
  -24.3356  -12.9630  144.9302 C   0  0  0  0  0  0  0  0  0  0  0  0
  -24.5117  -14.7419  146.5910 C   0  0  0  0  0  0  0  0  0  0  0  0
  -23.2673  -12.1367  145.4525 C   0  0  0  0  0  0  0  0  0  0  0  0
  -26.1825  -16.5221  148.5355 C   0  0  0  0  0  0  0  0  0  0  0  0
  -27.1612  -15.9610  147.7066 C   0  0  0  0  0  0  0  0  0  0  0  0
  -28.5032  -16.0017  148.0913 C   0  0  0  0  0  0  0  0  0  0  0  0
  -29.4689  -15.3295  147.3015 C   0  0  0  0  0  0  0  0  0  0  0  0
  -28.9570  -14.3439  146.4006 C   0  0  0  0  0  0  0  0  0  0  0  0
  -27.6502  -14.2112  146.1048 C   0  0  0  0  0  0  0  0  0  0  0  0
  -26.7195  -14.9391  146.8415 C   0  0  0  0  0  0  0  0  0  0  0  0
  -25.4881  -14.6425  146.5161 N   0  0  0  0  0  0  0  0  0  0  0  0
  -27.3053  -13.1024  144.9164 Cl  0  0  0  0  0  0  0  0  0  0  0  0
  3  4  1  0
  6  7  1  0
  7  9  1  0
  4 10  2  0
 10 11  1  0
 11 12  2  3
 12 13  1  0
 13 14  2  3
 14 15  1  0
 11 16  1  0
  8 17  1  0
 16 17  1  0
 15 18  1  0
  1  2  2  0
  2  3  1  0
  3  8  2  0
  8  6  1  0
  6  5  2  0
  5  1  1  0
M  END

$$$$
No_1565-/dssg/home/sw_qyf/PocketFlow/Model-Generation-Results/5HT2A_7WC7_rec_A_10.pdb/2024-01-01-03-54-21/
     RDKit          3D

 17 19  0  0  0  0  0  0  0  0999 V2000
  -24.1553  -17.8465  145.7021 C   0  0  0  0  0  0  0  0  0  0  0  0
  -24.2856  -16.6364  145.3494 C   0  0  0  0  0  0  0  0  0  0  0  0
  -25.0033  -15.6772  146.0737 C   0  0  0  0  0  0  0  0  0  0  0  0
  -25.1197  -14.2835  145.7299 C   0  0  0  0  0  0  0  0  0  0  0  0
  -24.2707  -13.8793  144.6500 C   0  0  0  0  0  0  0  0  0  0  0  0
  -24.8686  -18.3355  146.8179 C   0  0  0  0  0  0  0  0  0  0  0  0
  -25.6154  -17.5363  147.5807 C   0  0  0  0  0  0  0  0  0  0  0  0
  -25.7525  -16.1597  147.2668 C   0  0  0  0  0  0  0  0  0  0  0  0
  -24.2176  -12.4904  144.4025 C   0  0  0  0  0  0  0  0  0  0  0  0
  -24.7782  -11.7429  145.4109 C   0  0  0  0  0  0  0  0  0  0  0  0
  -26.1446  -13.5009  145.9859 C   0  0  0  0  0  0  0  0  0  0  0  0
  -25.9229  -12.1124  146.1239 C   0  0  0  0  0  0  0  0  0  0  0  0
  -23.6447  -16.2127  144.2230 N   0  0  0  0  0  0  0  0  0  0  0  0
  -23.5095  -14.8114  144.0057 C   0  0  0  0  0  0  0  0  0  0  0  0
  -27.0172  -10.9856  146.8571 Cl  0  0  0  0  0  0  0  0  0  0  0  0
  -23.5051  -18.7814  145.0058 O   0  0  0  0  0  0  0  0  0  0  0  0
  -22.4980  -14.4494  143.3304 O   0  0  0  0  0  0  0  0  0  0  0  0
  1  2  1  0
  3  4  1  0
  1  6  1  0
  6  7  1  0
  3  8  1  0
  2 13  1  0
  5 14  1  0
 13 14  1  0
 12 15  1  0
  1 16  2  0
 14 17  2  0
  3  2  1  0
  8  7  1  0
  4 11  2  0
 11 12  1  0
 12 10  2  0
 10  9  1  0
  9  5  2  0
  5  4  1  0
M  END

$$$$
No_1566-/dssg/home/sw_qyf/PocketFlow/Model-Generation-Results/5HT2A_7WC7_rec_A_10.pdb/2024-01-01-03-54-21/
     RDKit          3D

 25 28  0  0  0  0  0  0  0  0999 V2000
  -24.1553  -17.8465  145.7021 C   0  0  0  0  0  0  0  0  0  0  0  0
  -23.9795  -18.4462  146.7426 C   0  0  0  0  0  0  0  0  0  0  0  0
  -25.1196  -16.8106  145.6408 C   0  0  0  0  0  0  0  0  0  0  0  0
  -25.2440  -15.8776  144.5240 C   0  0  0  0  0  0  0  0  0  0  0  0
  -26.0733  -14.7284  144.7060 C   0  0  0  0  0  0  0  0  0  0  0  0
  -26.0749  -13.6607  143.7625 C   0  0  0  0  0  0  0  0  0  0  0  0
  -24.5764  -18.0942  147.9838 C   0  0  0  0  0  0  0  0  0  0  0  0
  -25.4603  -17.0074  148.0322 C   0  0  0  0  0  0  0  0  0  0  0  0
  -25.6296  -16.2301  146.8834 C   0  0  0  0  0  0  0  0  0  0  0  0
  -27.0394  -12.6494  143.8101 C   0  0  0  0  0  0  0  0  0  0  0  0
  -27.3509  -11.8906  142.7009 C   0  0  0  0  0  0  0  0  0  0  0  0
  -27.4155  -12.5430  141.4591 C   0  0  0  0  0  0  0  0  0  0  0  0
  -27.9447  -11.9056  140.3098 C   0  0  0  0  0  0  0  0  0  0  0  0
  -27.0560  -10.9346  139.7429 C   0  0  0  0  0  0  0  0  0  0  0  0
  -26.4659  -15.0754  146.8527 C   0  0  0  0  0  0  0  0  0  0  0  0
  -26.6627  -14.2287  145.9003 C   0  0  0  0  0  0  0  0  0  0  0  0
  -27.8620   -9.7670  139.1881 C   0  0  0  0  0  0  0  0  0  0  0  0
  -27.8642   -9.4078  137.8977 C   0  0  0  0  0  0  0  0  0  0  0  0
  -28.7640   -8.3237  137.5260 C   0  0  0  0  0  0  0  0  0  0  0  0
  -27.7628  -12.5219  145.0638 C   0  0  0  0  0  0  0  0  0  0  0  0
  -28.6571  -11.3241  145.2245 C   0  0  0  0  0  0  0  0  0  0  0  0
  -29.5844  -11.4074  146.3386 C   0  0  0  0  0  0  0  0  0  0  0  0
  -29.5239  -12.3945  147.3127 C   0  0  0  0  0  0  0  0  0  0  0  0
  -27.5378  -13.3382  146.1291 C   0  0  0  0  0  0  0  0  0  0  0  0
  -28.4489  -13.2888  147.2396 C   0  0  0  0  0  0  0  0  0  0  0  0
 10 11  1  0
 11 12  1  0
 12 13  1  0
 13 14  1  0
 14 17  1  0
 17 18  2  3
 18 19  1  0
  3  4  2  0
  4  5  1  0
 16 15  1  0
 15  9  2  0
  5  6  2  0
  6 10  1  0
 10 20  2  0
 24 16  2  0
 16  5  1  0
 20 21  1  0
 21 22  2  0
 22 23  1  0
 23 25  2  0
 25 24  1  0
 24 20  1  0
  1  2  2  0
  2  7  1  0
  7  8  2  0
  8  9  1  0
  9  3  1  0
  3  1  1  0
M  END

$$$$
No_1567-/dssg/home/sw_qyf/PocketFlow/Model-Generation-Results/5HT2A_7WC7_rec_A_10.pdb/2024-01-01-03-54-21/
     RDKit          3D

 30 30  0  0  0  0  0  0  0  0999 V2000
  -23.1746  -16.6014  144.8668 C   0  0  0  0  0  0  0  0  0  0  0  0
  -23.8963  -15.5346  144.7885 C   0  0  0  0  0  0  0  0  0  0  0  0
  -23.6398  -14.5115  145.3281 C   0  0  0  0  0  0  0  0  0  0  0  0
  -24.3241  -13.3648  145.1281 C   0  0  0  0  0  0  0  0  0  0  0  0
  -23.8303  -12.0965  145.7921 C   0  0  0  0  0  0  0  0  0  0  0  0
  -25.3060  -13.1626  144.3111 O   0  0  0  0  0  0  0  0  0  0  0  0
  -23.6153  -17.8026  145.6028 C   0  0  0  0  0  0  0  0  0  0  0  0
  -23.5839  -17.5337  146.9891 C   0  0  0  0  0  0  0  0  0  0  0  0
  -24.7848  -17.6004  147.7852 C   0  0  0  0  0  0  0  0  0  0  0  0
  -25.3487  -16.1993  148.0098 C   0  0  0  0  0  0  0  0  0  0  0  0
  -26.4660  -12.5751  144.8090 C   0  0  0  0  0  0  0  0  0  0  0  0
  -27.6019  -12.9320  144.4214 C   0  0  0  0  0  0  0  0  0  0  0  0
  -28.7805  -12.1688  144.8834 C   0  0  0  0  0  0  0  0  0  0  0  0
  -29.1151  -10.7971  144.5938 C   0  0  0  0  0  0  0  0  0  0  0  0
  -28.6573  -10.1088  143.5421 C   0  0  0  0  0  0  0  0  0  0  0  0
  -29.2887   -8.8837  143.1451 C   0  0  0  0  0  0  0  0  0  0  0  0
  -30.6071   -8.7018  143.2979 C   0  0  0  0  0  0  0  0  0  0  0  0
  -31.2263   -7.5092  142.7537 C   0  0  0  0  0  0  0  0  0  0  0  0
  -30.4150   -6.7172  142.0460 N   0  0  0  0  0  0  0  0  0  0  0  0
  -29.1393   -6.9252  141.6433 C   0  0  0  0  0  0  0  0  0  0  0  0
  -28.6023   -8.1171  142.2955 C   0  0  0  0  0  0  0  0  0  0  0  0
  -26.4713  -15.8366  147.1378 C   0  0  0  0  0  0  0  0  0  0  0  0
  -27.2456  -16.7280  146.5379 C   0  0  0  0  0  0  0  0  0  0  0  0
  -28.7003  -16.7673  147.1458 C   0  0  0  0  0  0  0  0  0  0  0  0
  -29.2455  -15.3490  147.0410 C   0  0  0  0  0  0  0  0  0  0  0  0
  -30.4451  -14.9304  147.6449 C   0  0  0  0  0  0  0  0  0  0  0  0
  -30.6028  -13.4247  147.6770 C   0  0  0  0  0  0  0  0  0  0  0  0
  -30.0620  -12.8067  148.9362 C   0  0  0  0  0  0  0  0  0  0  0  0
  -27.5142  -10.4609  143.0721 O   0  0  0  0  0  0  0  0  0  0  0  0
  -22.6759  -12.3246  146.5825 C   0  0  0  0  0  0  0  0  0  0  0  0
  1  2  1  0
  2  3  2  3
  3  4  1  0
  4  5  1  0
  4  6  1  0
  1  7  1  0
  7  8  1  0
  8  9  1  0
  9 10  1  0
  6 11  1  0
 11 12  1  0
 12 13  1  0
 13 14  2  3
 14 15  1  0
 15 16  1  0
 10 22  1  0
 22 23  1  0
 23 24  1  0
 24 25  1  0
 25 26  1  0
 26 27  2  3
 27 28  1  0
 15 29  2  0
  5 30  1  0
 16 17  2  0
 17 18  1  0
 18 19  2  0
 19 20  1  0
 20 21  2  0
 21 16  1  0
M  END

$$$$
No_1568-/dssg/home/sw_qyf/PocketFlow/Model-Generation-Results/5HT2A_7WC7_rec_A_10.pdb/2024-01-01-03-54-21/
     RDKit          3D

 28 30  0  0  0  0  0  0  0  0999 V2000
  -24.1553  -17.8465  145.7021 C   0  0  0  0  0  0  0  0  0  0  0  0
  -24.6364  -17.2931  146.7091 C   0  0  0  0  0  0  0  0  0  0  0  0
  -24.0780  -17.2921  147.9389 C   0  0  0  0  0  0  0  0  0  0  0  0
  -24.3226  -16.7243  148.9587 C   0  0  0  0  0  0  0  0  0  0  0  0
  -25.7690  -16.1909  149.0219 C   0  0  0  0  0  0  0  0  0  0  0  0
  -26.5042  -16.3022  147.8715 C   0  0  0  0  0  0  0  0  0  0  0  0
  -25.9312  -16.8728  146.7789 C   0  0  0  0  0  0  0  0  0  0  0  0
  -23.2321  -16.9642  144.8885 C   0  0  0  0  0  0  0  0  0  0  0  0
  -23.9165  -15.6291  144.6166 C   0  0  0  0  0  0  0  0  0  0  0  0
  -25.2073  -15.4954  144.4062 C   0  0  0  0  0  0  0  0  0  0  0  0
  -25.6902  -14.2437  143.9570 C   0  0  0  0  0  0  0  0  0  0  0  0
  -25.3393  -13.1108  144.4115 C   0  0  0  0  0  0  0  0  0  0  0  0
  -23.9431  -13.1264  145.0139 C   0  0  0  0  0  0  0  0  0  0  0  0
  -23.2500  -14.3614  145.1320 C   0  0  0  0  0  0  0  0  0  0  0  0
  -23.3235  -11.9943  145.3303 O   0  0  0  0  0  0  0  0  0  0  0  0
  -27.8781  -15.7287  147.9185 C   0  0  0  0  0  0  0  0  0  0  0  0
  -28.3667  -14.9624  146.8872 C   0  0  0  0  0  0  0  0  0  0  0  0
  -29.1518  -13.8660  147.3079 C   0  0  0  0  0  0  0  0  0  0  0  0
  -30.0755  -13.9539  148.3260 C   0  0  0  0  0  0  0  0  0  0  0  0
  -29.8527  -15.0798  149.2653 C   0  0  0  0  0  0  0  0  0  0  0  0
  -28.7919  -15.9457  149.0158 C   0  0  0  0  0  0  0  0  0  0  0  0
  -29.2819  -12.6375  146.4215 C   0  0  0  0  0  0  0  0  0  0  0  0
  -29.9219  -11.5420  146.8336 N   0  0  0  0  0  0  0  0  0  0  0  0
  -28.7114  -12.5517  145.3059 O   0  0  0  0  0  0  0  0  0  0  0  0
  -29.9229  -10.4898  145.9393 N   0  0  0  0  0  0  0  0  0  0  0  0
  -29.1717  -10.8080  144.9072 C   0  0  0  0  0  0  0  0  0  0  0  0
  -28.7660  -10.3806  143.7386 C   0  0  0  0  0  0  0  0  0  0  0  0
  -29.4019  -10.8005  143.9268 Cl  0  0  0  0  0  0  0  0  0  0  0  0
  1  2  1  0
  1  8  1  0
  8  9  1  0
 13 15  1  0
  6 16  1  0
 18 22  1  0
 22 23  1  0
 22 24  2  0
 23 25  1  0
 25 26  1  0
 26 27  1  0
 26 28  1  0
  2  3  2  0
  3  4  1  0
  4  5  2  0
  5  6  1  0
  6  7  2  0
  7  2  1  0
  9 10  2  0
 10 11  1  0
 11 12  2  0
 12 13  1  0
 13 14  2  0
 14  9  1  0
 16 17  2  0
 17 18  1  0
 18 19  2  0
 19 20  1  0
 20 21  2  0
 21 16  1  0
M  END

$$$$
No_1569-/dssg/home/sw_qyf/PocketFlow/Model-Generation-Results/5HT2A_7WC7_rec_A_10.pdb/2024-01-01-03-54-21/
     RDKit          3D

 21 23  0  0  0  0  0  0  0  0999 V2000
  -23.1746  -16.6014  144.8668 C   0  0  0  0  0  0  0  0  0  0  0  0
  -23.8963  -15.5346  144.7885 C   0  0  0  0  0  0  0  0  0  0  0  0
  -25.0304  -15.2549  144.5358 C   0  0  0  0  0  0  0  0  0  0  0  0
  -25.6045  -13.9524  144.2294 C   0  0  0  0  0  0  0  0  0  0  0  0
  -24.8624  -12.8904  144.6738 C   0  0  0  0  0  0  0  0  0  0  0  0
  -23.5278  -13.1645  145.1476 C   0  0  0  0  0  0  0  0  0  0  0  0
  -23.0570  -14.3847  145.1774 N   0  0  0  0  0  0  0  0  0  0  0  0
  -24.0723  -17.8705  145.1055 C   0  0  0  0  0  0  0  0  0  0  0  0
  -22.7379  -12.0726  145.4666 N   0  0  0  0  0  0  0  0  0  0  0  0
  -24.9280  -17.6212  146.2127 C   0  0  0  0  0  0  0  0  0  0  0  0
  -26.8666  -13.8252  143.8971 F   0  0  0  0  0  0  0  0  0  0  0  0
  -24.3539  -17.9425  147.4113 C   0  0  0  0  0  0  0  0  0  0  0  0
  -24.4992  -17.0814  148.4998 C   0  0  0  0  0  0  0  0  0  0  0  0
  -23.7867  -17.3423  149.7692 C   0  0  0  0  0  0  0  0  0  0  0  0
  -24.2082  -16.8962  151.0216 C   0  0  0  0  0  0  0  0  0  0  0  0
  -25.3462  -17.2812  151.2571 C   0  0  0  0  0  0  0  0  0  0  0  0
  -26.3890  -17.3110  150.0964 C   0  0  0  0  0  0  0  0  0  0  0  0
  -25.8511  -17.0633  148.8450 C   0  0  0  0  0  0  0  0  0  0  0  0
  -26.9103  -16.7966  147.8859 C   0  0  0  0  0  0  0  0  0  0  0  0
  -26.4794  -17.3983  146.5659 C   0  0  0  0  0  0  0  0  0  0  0  0
  -27.9661  -16.2287  147.9898 O   0  0  0  0  0  0  0  0  0  0  0  0
  1  2  1  0
  1  8  1  0
  6  9  1  0
  8 10  1  0
  4 11  1  0
 12 13  1  0
 18 19  1  0
 10 20  1  0
 19 20  1  0
 19 21  2  0
 12 10  1  0
 13 14  2  0
 14 15  1  0
 15 16  2  0
 16 17  1  0
 17 18  2  0
 18 13  1  0
  2  3  2  0
  3  4  1  0
  4  5  2  0
  5  6  1  0
  6  7  2  0
  7  2  1  0
M  END

$$$$
No_1570-/dssg/home/sw_qyf/PocketFlow/Model-Generation-Results/5HT2A_7WC7_rec_A_10.pdb/2024-01-01-03-54-21/
     RDKit          3D

 35 36  0  0  0  0  0  0  0  0999 V2000
  -23.1746  -16.6014  144.8668 C   0  0  0  0  0  0  0  0  0  0  0  0
  -23.8963  -15.5346  144.7885 C   0  0  0  0  0  0  0  0  0  0  0  0
  -23.6398  -14.5115  145.3281 C   0  0  0  0  0  0  0  0  0  0  0  0
  -24.3241  -13.3648  145.1281 C   0  0  0  0  0  0  0  0  0  0  0  0
  -25.5072  -13.2953  144.4354 C   0  0  0  0  0  0  0  0  0  0  0  0
  -26.3858  -12.2346  144.3608 C   0  0  0  0  0  0  0  0  0  0  0  0
  -27.7065  -12.3483  143.7416 C   0  0  0  0  0  0  0  0  0  0  0  0
  -28.5834  -11.2836  143.8798 C   0  0  0  0  0  0  0  0  0  0  0  0
  -29.3459  -11.2356  144.9720 C   0  0  0  0  0  0  0  0  0  0  0  0
  -29.1653  -12.0015  145.9772 O   0  0  0  0  0  0  0  0  0  0  0  0
  -29.9341   -9.9975  145.3659 O   0  0  0  0  0  0  0  0  0  0  0  0
  -23.6432  -17.9282  144.5300 C   0  0  0  0  0  0  0  0  0  0  0  0
  -28.9511  -10.4797  142.7492 C   0  0  0  0  0  0  0  0  0  0  0  0
  -28.4249  -10.8616  141.5117 C   0  0  0  0  0  0  0  0  0  0  0  0
  -28.4677   -9.9308  140.4247 C   0  0  0  0  0  0  0  0  0  0  0  0
  -29.1457   -8.6994  140.5061 C   0  0  0  0  0  0  0  0  0  0  0  0
  -29.7585   -8.3792  141.8273 C   0  0  0  0  0  0  0  0  0  0  0  0
  -29.5821   -9.2407  142.9175 C   0  0  0  0  0  0  0  0  0  0  0  0
  -29.2390   -7.8154  139.4186 C   0  0  0  0  0  0  0  0  0  0  0  0
  -29.8064   -6.7120  139.6383 O   0  0  0  0  0  0  0  0  0  0  0  0
  -28.3837   -7.9398  138.4201 N   0  0  0  0  0  0  0  0  0  0  0  0
  -29.6323  -11.9899  147.2608 C   0  0  0  0  0  0  0  0  0  0  0  0
  -29.5769  -13.3120  148.0136 C   0  0  0  0  0  0  0  0  0  0  0  0
  -30.6620  -13.6925  148.5937 O   0  0  0  0  0  0  0  0  0  0  0  0
  -28.9550  -14.4367  147.1307 C   0  0  0  0  0  0  0  0  0  0  0  0
  -28.5528  -15.5507  147.9360 C   0  0  0  0  0  0  0  0  0  0  0  0
  -27.2581  -16.1113  147.6038 C   0  0  0  0  0  0  0  0  0  0  0  0
  -26.4961  -16.7068  148.6006 C   0  0  0  0  0  0  0  0  0  0  0  0
  -25.1193  -16.9512  148.3131 C   0  0  0  0  0  0  0  0  0  0  0  0
  -24.2607  -17.5092  149.2800 C   0  0  0  0  0  0  0  0  0  0  0  0
  -22.8425  -17.5838  149.0124 C   0  0  0  0  0  0  0  0  0  0  0  0
  -22.5191  -17.5852  147.6876 C   0  0  0  0  0  0  0  0  0  0  0  0
  -23.1687  -18.3453  146.8765 C   0  0  0  0  0  0  0  0  0  0  0  0
  -23.7656  -18.8655  145.5626 C   0  0  0  0  0  0  0  0  0  0  0  0
  -24.0140  -19.0943  147.7856 F   0  0  0  0  0  0  0  0  0  0  0  0
  1  2  1  0
  2  3  2  3
  3  4  1  0
  4  5  2  3
  5  6  1  0
  6  7  1  0
  7  8  1  0
  8  9  1  0
  9 10  1  0
  9 11  2  0
  1 12  2  3
  8 13  1  0
 16 19  1  0
 19 20  2  0
 19 21  1  0
 10 22  1  0
 22 23  1  0
 23 24  1  0
 23 25  1  0
 25 26  1  0
 26 27  1  0
 27 28  2  3
 28 29  1  0
 29 30  1  0
 30 31  1  0
 31 32  1  0
 32 33  1  0
 12 34  1  0
 33 34  2  3
 33 35  1  0
 13 14  2  0
 14 15  1  0
 15 16  2  0
 16 17  1  0
 17 18  2  0
 18 13  1  0
M  END

$$$$
No_1571-/dssg/home/sw_qyf/PocketFlow/Model-Generation-Results/5HT2A_7WC7_rec_A_10.pdb/2024-01-01-03-54-21/
     RDKit          3D

 15 16  0  0  0  0  0  0  0  0999 V2000
  -24.1553  -17.8465  145.7021 C   0  0  0  0  0  0  0  0  0  0  0  0
  -24.2856  -16.6364  145.3494 C   0  0  0  0  0  0  0  0  0  0  0  0
  -23.7824  -15.9602  144.3553 C   0  0  0  0  0  0  0  0  0  0  0  0
  -23.9871  -14.5276  144.1537 C   0  0  0  0  0  0  0  0  0  0  0  0
  -24.7876  -13.8357  145.1352 C   0  0  0  0  0  0  0  0  0  0  0  0
  -25.3945  -14.5459  146.1755 C   0  0  0  0  0  0  0  0  0  0  0  0
  -25.0741  -15.8908  146.3327 C   0  0  0  0  0  0  0  0  0  0  0  0
  -23.2608  -18.6718  145.7735 C   0  0  0  0  0  0  0  0  0  0  0  0
  -23.3791  -19.9499  146.2376 N   0  0  0  0  0  0  0  0  0  0  0  0
  -25.3351  -18.6441  146.1969 C   0  0  0  0  0  0  0  0  0  0  0  0
  -24.7188  -19.8957  146.4506 N   0  0  0  0  0  0  0  0  0  0  0  0
  -25.0226  -12.3921  144.9531 C   0  0  0  0  0  0  0  0  0  0  0  0
  -23.8940  -11.7559  144.9963 F   0  0  0  0  0  0  0  0  0  0  0  0
  -25.7033  -11.8945  146.1008 F   0  0  0  0  0  0  0  0  0  0  0  0
  -25.8974  -12.0469  144.0819 F   0  0  0  0  0  0  0  0  0  0  0  0
  1  2  1  0
  1  8  2  0
  8  9  1  0
  1 10  1  0
  9 11  1  0
 10 11  2  0
  5 12  1  0
 12 13  1  0
 12 14  1  0
 12 15  1  0
  2  3  2  0
  3  4  1  0
  4  5  2  0
  5  6  1  0
  6  7  2  0
  7  2  1  0
M  END

$$$$
No_1572-/dssg/home/sw_qyf/PocketFlow/Model-Generation-Results/5HT2A_7WC7_rec_A_10.pdb/2024-01-01-03-54-21/
     RDKit          3D

 35 37  0  0  0  0  0  0  0  0999 V2000
  -24.1553  -17.8465  145.7021 C   0  0  0  0  0  0  0  0  0  0  0  0
  -24.2856  -16.6364  145.3494 C   0  0  0  0  0  0  0  0  0  0  0  0
  -25.0033  -15.6772  146.0737 C   0  0  0  0  0  0  0  0  0  0  0  0
  -25.7224  -16.0756  147.0213 C   0  0  0  0  0  0  0  0  0  0  0  0
  -25.4436  -17.2546  147.7755 C   0  0  0  0  0  0  0  0  0  0  0  0
  -24.6852  -18.2947  147.0247 C   0  0  0  0  0  0  0  0  0  0  0  0
  -25.0417  -14.2681  145.5619 C   0  0  0  0  0  0  0  0  0  0  0  0
  -24.4978  -13.9200  144.5459 C   0  0  0  0  0  0  0  0  0  0  0  0
  -23.1152  -13.3642  144.6682 C   0  0  0  0  0  0  0  0  0  0  0  0
  -23.0353  -11.9051  144.2343 C   0  0  0  0  0  0  0  0  0  0  0  0
  -25.6622  -13.2936  146.4801 C   0  0  0  0  0  0  0  0  0  0  0  0
  -27.1018  -13.1148  146.3930 C   0  0  0  0  0  0  0  0  0  0  0  0
  -27.6543  -11.8779  146.5737 C   0  0  0  0  0  0  0  0  0  0  0  0
  -29.1022  -11.7300  146.4480 C   0  0  0  0  0  0  0  0  0  0  0  0
  -29.9382  -12.7043  147.1455 C   0  0  0  0  0  0  0  0  0  0  0  0
  -29.3890  -13.9922  147.1882 C   0  0  0  0  0  0  0  0  0  0  0  0
  -27.9956  -14.1956  146.9087 C   0  0  0  0  0  0  0  0  0  0  0  0
  -29.6672  -11.1338  145.2716 C   0  0  0  0  0  0  0  0  0  0  0  0
  -28.7861  -10.0812  144.7268 C   0  0  0  0  0  0  0  0  0  0  0  0
  -29.2816   -9.2554  143.6456 C   0  0  0  0  0  0  0  0  0  0  0  0
  -28.7393   -9.1302  142.5072 C   0  0  0  0  0  0  0  0  0  0  0  0
  -29.3618   -8.2106  141.5149 C   0  0  0  0  0  0  0  0  0  0  0  0
  -28.9501   -7.9948  140.2093 C   0  0  0  0  0  0  0  0  0  0  0  0
  -28.2050   -9.0328  139.5763 C   0  0  0  0  0  0  0  0  0  0  0  0
  -27.7191  -10.0884  140.4376 C   0  0  0  0  0  0  0  0  0  0  0  0
  -28.0500  -10.1420  141.8230 C   0  0  0  0  0  0  0  0  0  0  0  0
  -27.8530   -8.8838  138.3363 N   0  0  0  0  0  0  0  0  0  0  0  0
  -23.7063  -16.3111  144.1549 O   0  0  0  0  0  0  0  0  0  0  0  0
  -28.3699   -7.9080  137.5376 C   0  0  0  0  0  0  0  0  0  0  0  0
  -30.2634   -7.1526  142.1782 C   0  0  0  0  0  0  0  0  0  0  0  0
  -31.5727   -7.3272  141.9826 O   0  0  0  0  0  0  0  0  0  0  0  0
  -24.6699  -17.0369  149.1484 C   0  0  0  0  0  0  0  0  0  0  0  0
  -25.3864  -17.4074  150.3235 C   0  0  0  0  0  0  0  0  0  0  0  0
  -26.6766  -17.9298  150.3010 C   0  0  0  0  0  0  0  0  0  0  0  0
  -27.2381  -18.4145  151.5645 C   0  0  0  0  0  0  0  0  0  0  0  0
  1  2  1  0
  2  3  1  0
  3  4  1  0
  4  5  1  0
  1  6  1  0
  5  6  1  0
  3  7  1  0
  7  8  1  0
  8  9  2  3
  9 10  1  0
  7 11  1  0
 11 12  1  0
 14 18  1  0
 18 19  1  0
 19 20  1  0
 24 27  1  0
  2 28  1  0
 27 29  2  0
 22 30  1  0
 30 31  1  0
  5 32  1  0
 32 33  2  3
 33 34  1  0
 34 35  2  0
 20 21  1  0
 12 13  2  0
 13 14  1  0
 14 15  2  0
 15 16  1  0
 16 17  2  0
 17 12  1  0
 21 22  2  0
 22 23  1  0
 23 24  2  0
 24 25  1  0
 25 26  2  0
 26 21  1  0
M  END

$$$$
No_1573-/dssg/home/sw_qyf/PocketFlow/Model-Generation-Results/5HT2A_7WC7_rec_A_10.pdb/2024-01-01-03-54-21/
     RDKit          3D

 33 34  0  0  0  0  0  0  0  0999 V2000
  -24.1553  -17.8465  145.7021 C   0  0  0  0  0  0  0  0  0  0  0  0
  -23.9795  -18.4462  146.7426 C   0  0  0  0  0  0  0  0  0  0  0  0
  -25.1196  -16.8106  145.6409 C   0  0  0  0  0  0  0  0  0  0  0  0
  -25.2440  -15.8776  144.5240 C   0  0  0  0  0  0  0  0  0  0  0  0
  -24.0642  -15.4170  143.9520 C   0  0  0  0  0  0  0  0  0  0  0  0
  -22.8993  -16.1300  144.2805 C   0  0  0  0  0  0  0  0  0  0  0  0
  -23.0867  -17.1060  145.2524 N   0  0  0  0  0  0  0  0  0  0  0  0
  -26.3900  -17.0583  146.4065 C   0  0  0  0  0  0  0  0  0  0  0  0
  -27.1778  -15.9361  146.9095 C   0  0  0  0  0  0  0  0  0  0  0  0
  -28.4386  -16.0667  147.4453 C   0  0  0  0  0  0  0  0  0  0  0  0
  -29.2477  -14.9487  147.8023 C   0  0  0  0  0  0  0  0  0  0  0  0
  -28.8527  -13.6362  147.3263 C   0  0  0  0  0  0  0  0  0  0  0  0
  -27.5381  -13.5287  146.7271 C   0  0  0  0  0  0  0  0  0  0  0  0
  -26.7988  -14.6373  146.4833 C   0  0  0  0  0  0  0  0  0  0  0  0
  -29.6440  -12.4342  147.6273 C   0  0  0  0  0  0  0  0  0  0  0  0
  -29.5327  -11.3969  146.8604 O   0  0  0  0  0  0  0  0  0  0  0  0
  -30.5128  -12.4342  148.6142 O   0  0  0  0  0  0  0  0  0  0  0  0
  -29.9789  -11.4148  145.5420 C   0  0  0  0  0  0  0  0  0  0  0  0
  -29.1160  -10.3910  144.7372 C   0  0  0  0  0  0  0  0  0  0  0  0
  -29.7960   -9.8079  143.6510 C   0  0  0  0  0  0  0  0  0  0  0  0
  -29.1160   -9.0634  142.7131 C   0  0  0  0  0  0  0  0  0  0  0  0
  -29.6928   -8.0321  141.9817 C   0  0  0  0  0  0  0  0  0  0  0  0
  -29.0466   -7.3255  140.9461 C   0  0  0  0  0  0  0  0  0  0  0  0
  -29.2151   -8.0796  139.7097 C   0  0  0  0  0  0  0  0  0  0  0  0
  -28.0861   -8.9030  139.2931 C   0  0  0  0  0  0  0  0  0  0  0  0
  -28.2196  -10.0806  139.1905 C   0  0  0  0  0  0  0  0  0  0  0  0
  -27.3148  -10.8924  140.1501 C   0  0  0  0  0  0  0  0  0  0  0  0
  -27.3824  -12.3617  140.0772 C   0  0  0  0  0  0  0  0  0  0  0  0
  -26.9154  -13.1209  141.0682 N   0  0  0  0  0  0  0  0  0  0  0  0
  -30.3078   -7.0265  143.0316 C   0  0  0  0  0  0  0  0  0  0  0  0
  -29.8319   -7.3086  138.6184 C   0  0  0  0  0  0  0  0  0  0  0  0
  -23.0797  -17.9668  147.5721 O   0  0  0  0  0  0  0  0  0  0  0  0
  -28.3285  -12.8152  139.3817 O   0  0  0  0  0  0  0  0  0  0  0  0
  1  2  2  3
  1  3  1  0
  3  4  1  0
  4  5  1  0
  5  6  1  0
  1  7  1  0
  6  7  1  0
  3  8  1  0
  8  9  1  0
 12 15  1  0
 15 16  1  0
 15 17  2  0
 16 18  1  0
 18 19  1  0
 19 20  1  0
 20 21  1  0
 21 22  2  3
 22 23  1  0
 23 24  1  0
 24 25  1  0
 25 26  1  0
 26 27  2  3
 27 28  1  0
 28 29  1  0
 22 30  1  0
 24 31  1  0
  2 32  1  0
 28 33  2  0
  9 10  2  0
 10 11  1  0
 11 12  2  0
 12 13  1  0
 13 14  2  0
 14  9  1  0
M  END

$$$$
No_1574-/dssg/home/sw_qyf/PocketFlow/Model-Generation-Results/5HT2A_7WC7_rec_A_10.pdb/2024-01-01-03-54-21/
     RDKit          3D

 24 26  0  0  0  0  0  0  0  0999 V2000
  -24.1553  -17.8465  145.7021 C   0  0  0  0  0  0  0  0  0  0  0  0
  -24.2855  -16.6364  145.3494 C   0  0  0  0  0  0  0  0  0  0  0  0
  -23.7824  -15.9602  144.3553 C   0  0  0  0  0  0  0  0  0  0  0  0
  -24.0538  -14.4894  144.2905 C   0  0  0  0  0  0  0  0  0  0  0  0
  -23.1512  -13.5925  144.1194 C   0  0  0  0  0  0  0  0  0  0  0  0
  -24.8232  -18.5168  146.7752 C   0  0  0  0  0  0  0  0  0  0  0  0
  -25.7013  -17.7036  147.5259 C   0  0  0  0  0  0  0  0  0  0  0  0
  -25.9577  -16.3916  147.2067 C   0  0  0  0  0  0  0  0  0  0  0  0
  -25.2285  -15.7863  146.1330 C   0  0  0  0  0  0  0  0  0  0  0  0
  -25.3918  -14.0530  144.6216 C   0  0  0  0  0  0  0  0  0  0  0  0
  -25.9727  -14.7186  145.7722 C   0  0  0  0  0  0  0  0  0  0  0  0
  -27.4610  -14.8442  145.5610 C   0  0  0  0  0  0  0  0  0  0  0  0
  -23.0910  -12.4654  144.9441 O   0  0  0  0  0  0  0  0  0  0  0  0
  -22.1955  -13.4964  143.2116 O   0  0  0  0  0  0  0  0  0  0  0  0
  -28.2154  -13.6904  146.0647 C   0  0  0  0  0  0  0  0  0  0  0  0
  -29.3366  -13.7412  146.9736 C   0  0  0  0  0  0  0  0  0  0  0  0
  -29.9361  -12.5387  147.4022 C   0  0  0  0  0  0  0  0  0  0  0  0
  -29.4492  -11.2774  146.8214 C   0  0  0  0  0  0  0  0  0  0  0  0
  -28.4968  -11.2571  145.8354 C   0  0  0  0  0  0  0  0  0  0  0  0
  -27.8638  -12.3668  145.5649 C   0  0  0  0  0  0  0  0  0  0  0  0
  -30.9125  -12.5412  148.2703 F   0  0  0  0  0  0  0  0  0  0  0  0
  -29.7091  -14.9906  147.5457 C   0  0  0  0  0  0  0  0  0  0  0  0
  -22.2698  -11.3942  144.7861 C   0  0  0  0  0  0  0  0  0  0  0  0
  -25.6575  -13.8113  146.9492 O   0  0  0  0  0  0  0  0  0  0  0  0
  2  3  1  0
  4  5  1  0
  4 10  1  0
  9 11  1  0
 10 11  1  0
 11 12  1  0
  5 13  1  0
  5 14  2  0
 17 21  1  0
 16 22  1  0
 13 23  1  0
 11 24  1  0
 12 15  1  0
  3  4  1  0
 15 16  2  0
 16 17  1  0
 17 18  2  0
 18 19  1  0
 19 20  2  0
 20 15  1  0
  1  2  2  0
  2  9  1  0
  9  8  2  0
  8  7  1  0
  7  6  2  0
  6  1  1  0
M  END

$$$$
No_1575-/dssg/home/sw_qyf/PocketFlow/Model-Generation-Results/5HT2A_7WC7_rec_A_10.pdb/2024-01-01-03-54-21/
     RDKit          3D

 12 12  0  0  0  0  0  0  0  0999 V2000
  -24.1553  -17.8465  145.7021 C   0  0  0  0  0  0  0  0  0  0  0  0
  -24.6364  -17.2931  146.7091 C   0  0  0  0  0  0  0  0  0  0  0  0
  -25.8608  -16.5592  146.5934 C   0  0  0  0  0  0  0  0  0  0  0  0
  -25.9533  -15.5604  145.6681 C   0  0  0  0  0  0  0  0  0  0  0  0
  -27.0179  -14.6632  145.5500 C   0  0  0  0  0  0  0  0  0  0  0  0
  -24.0512  -16.8635  144.5478 C   0  0  0  0  0  0  0  0  0  0  0  0
  -25.0352  -15.8697  144.5502 C   0  0  0  0  0  0  0  0  0  0  0  0
  -27.9972  -14.5549  146.4905 C   0  0  0  0  0  0  0  0  0  0  0  0
  -28.8713  -13.4294  146.5738 C   0  0  0  0  0  0  0  0  0  0  0  0
  -28.6069  -12.2696  146.2090 C   0  0  0  0  0  0  0  0  0  0  0  0
  -27.5361  -12.1147  145.1876 C   0  0  0  0  0  0  0  0  0  0  0  0
  -27.2403  -10.8817  144.5984 C   0  0  0  0  0  0  0  0  0  0  0  0
  1  2  1  0
  2  3  1  0
  3  4  1  0
  4  5  2  3
  1  6  1  0
  4  7  1  0
  6  7  1  0
  5  8  1  0
  8  9  2  3
  9 10  1  0
 10 11  2  3
 11 12  1  0
M  END

$$$$
No_1576-/dssg/home/sw_qyf/PocketFlow/Model-Generation-Results/5HT2A_7WC7_rec_A_10.pdb/2024-01-01-03-54-21/
     RDKit          3D

 33 36  0  0  0  0  0  0  0  0999 V2000
  -23.1746  -16.6014  144.8668 C   0  0  0  0  0  0  0  0  0  0  0  0
  -23.7011  -17.0158  145.9774 C   0  0  0  0  0  0  0  0  0  0  0  0
  -24.0502  -18.2101  146.3018 C   0  0  0  0  0  0  0  0  0  0  0  0
  -23.7730  -19.2551  145.3865 C   0  0  0  0  0  0  0  0  0  0  0  0
  -23.0370  -15.1795  144.5798 C   0  0  0  0  0  0  0  0  0  0  0  0
  -24.1192  -14.2820  144.8371 C   0  0  0  0  0  0  0  0  0  0  0  0
  -23.8354  -12.9657  144.5680 C   0  0  0  0  0  0  0  0  0  0  0  0
  -24.6056  -12.0334  145.4884 C   0  0  0  0  0  0  0  0  0  0  0  0
  -26.0221  -12.3021  145.6609 C   0  0  0  0  0  0  0  0  0  0  0  0
  -26.3789  -13.6673  145.8875 C   0  0  0  0  0  0  0  0  0  0  0  0
  -25.4391  -14.6678  145.2730 C   0  0  0  0  0  0  0  0  0  0  0  0
  -27.6825  -14.0834  146.2799 C   0  0  0  0  0  0  0  0  0  0  0  0
  -28.6663  -13.1087  146.6281 C   0  0  0  0  0  0  0  0  0  0  0  0
  -28.6936  -11.6983  146.3361 C   0  0  0  0  0  0  0  0  0  0  0  0
  -27.6996  -10.8846  145.8281 C   0  0  0  0  0  0  0  0  0  0  0  0
  -26.6606  -11.0601  145.8076 C   0  0  0  0  0  0  0  0  0  0  0  0
  -27.9118  -15.4039  146.5589 C   0  0  0  0  0  0  0  0  0  0  0  0
  -28.5099  -15.8090  147.7693 C   0  0  0  0  0  0  0  0  0  0  0  0
  -23.9969  -20.4945  145.9810 N   0  0  0  0  0  0  0  0  0  0  0  0
  -30.0018  -11.2380  146.5376 O   0  0  0  0  0  0  0  0  0  0  0  0
  -28.4686  -17.1521  148.2484 C   0  0  0  0  0  0  0  0  0  0  0  0
  -27.6621  -16.4214  145.6578 C   0  0  0  0  0  0  0  0  0  0  0  0
  -29.0033  -17.3187  149.4577 N   0  0  0  0  0  0  0  0  0  0  0  0
  -28.3042  -18.0048  150.4378 C   0  0  0  0  0  0  0  0  0  0  0  0
  -28.9060  -18.3521  151.9279 Cl  0  0  0  0  0  0  0  0  0  0  0  0
  -27.0124  -17.8009  150.4445 O   0  0  0  0  0  0  0  0  0  0  0  0
  -22.1037  -14.8165  143.7802 O   0  0  0  0  0  0  0  0  0  0  0  0
  -25.0620  -18.4829  147.1334 O   0  0  0  0  0  0  0  0  0  0  0  0
  -30.6411  -11.7525  147.6876 C   0  0  0  0  0  0  0  0  0  0  0  0
  -30.2892  -13.0125  148.2112 C   0  0  0  0  0  0  0  0  0  0  0  0
  -31.1387  -13.5334  149.2296 C   0  0  0  0  0  0  0  0  0  0  0  0
  -29.2809  -13.6390  147.6196 C   0  0  0  0  0  0  0  0  0  0  0  0
  -29.2862  -14.7997  148.3104 C   0  0  0  0  0  0  0  0  0  0  0  0
  1  2  2  3
  2  3  1  0
  3  4  1  0
  1  5  1  0
  5  6  1  0
 10 12  1  0
 13 14  1  0
 14 15  2  0
  9 16  1  0
 15 16  1  0
  4 19  1  0
 14 20  1  0
 18 21  1  0
 17 22  1  0
 21 23  1  0
 23 24  1  0
 24 25  1  0
 24 26  2  0
  5 27  2  0
  3 28  1  0
 20 29  1  0
 29 30  2  0
 30 31  1  0
 30 32  1  0
 12 13  2  0
 13 32  1  0
 32 33  2  0
 33 18  1  0
 18 17  2  0
 17 12  1  0
  6  7  2  0
  7  8  1  0
  8  9  2  0
  9 10  1  0
 10 11  2  0
 11  6  1  0
M  END

$$$$
No_1577-/dssg/home/sw_qyf/PocketFlow/Model-Generation-Results/5HT2A_7WC7_rec_A_10.pdb/2024-01-01-03-54-21/
     RDKit          3D

 35 37  0  0  0  0  0  0  0  0999 V2000
  -23.1746  -16.6014  144.8668 C   0  0  0  0  0  0  0  0  0  0  0  0
  -23.8963  -15.5346  144.7885 C   0  0  0  0  0  0  0  0  0  0  0  0
  -24.5755  -15.0383  145.9043 C   0  0  0  0  0  0  0  0  0  0  0  0
  -24.8345  -15.9108  146.9141 C   0  0  0  0  0  0  0  0  0  0  0  0
  -24.2398  -17.1433  146.9649 C   0  0  0  0  0  0  0  0  0  0  0  0
  -23.4221  -17.5266  145.9093 C   0  0  0  0  0  0  0  0  0  0  0  0
  -25.2380  -13.6642  145.8941 C   0  0  0  0  0  0  0  0  0  0  0  0
  -24.4019  -12.6412  146.0739 C   0  0  0  0  0  0  0  0  0  0  0  0
  -26.5689  -13.4806  145.6514 C   0  0  0  0  0  0  0  0  0  0  0  0
  -27.1982  -12.2200  145.6283 C   0  0  0  0  0  0  0  0  0  0  0  0
  -26.4585  -11.1317  145.4315 C   0  0  0  0  0  0  0  0  0  0  0  0
  -24.9792  -11.3143  145.8745 C   0  0  0  0  0  0  0  0  0  0  0  0
  -27.5648  -14.5393  146.0627 C   0  0  0  0  0  0  0  0  0  0  0  0
  -28.6404  -14.3870  146.8961 C   0  0  0  0  0  0  0  0  0  0  0  0
  -29.3210  -15.3938  147.5451 C   0  0  0  0  0  0  0  0  0  0  0  0
  -29.0914  -15.6547  148.5974 C   0  0  0  0  0  0  0  0  0  0  0  0
  -24.3072  -18.0343  148.1856 C   0  0  0  0  0  0  0  0  0  0  0  0
  -23.6361  -17.4328  149.3906 C   0  0  0  0  0  0  0  0  0  0  0  0
  -24.3000  -17.2238  150.6316 C   0  0  0  0  0  0  0  0  0  0  0  0
  -23.7325  -14.6430  143.7881 O   0  0  0  0  0  0  0  0  0  0  0  0
  -29.3871  -16.9429  149.1167 C   0  0  0  0  0  0  0  0  0  0  0  0
  -25.9043  -17.4823  150.7787 Cl  0  0  0  0  0  0  0  0  0  0  0  0
  -26.7860   -9.9058  145.1691 N   0  0  0  0  0  0  0  0  0  0  0  0
  -26.3700   -9.1795  144.1508 C   0  0  0  0  0  0  0  0  0  0  0  0
  -27.4887   -9.0530  143.2183 C   0  0  0  0  0  0  0  0  0  0  0  0
  -28.4433   -8.0240  143.3961 C   0  0  0  0  0  0  0  0  0  0  0  0
  -29.5286   -7.7699  142.5679 C   0  0  0  0  0  0  0  0  0  0  0  0
  -29.5449   -8.5099  141.3594 C   0  0  0  0  0  0  0  0  0  0  0  0
  -28.6209   -9.4774  141.1215 C   0  0  0  0  0  0  0  0  0  0  0  0
  -27.6305   -9.7449  142.0461 C   0  0  0  0  0  0  0  0  0  0  0  0
  -30.5283   -8.2994  140.5029 F   0  0  0  0  0  0  0  0  0  0  0  0
  -29.6953  -16.9976  150.5543 C   0  0  0  0  0  0  0  0  0  0  0  0
  -29.3469  -17.9238  151.3816 C   0  0  0  0  0  0  0  0  0  0  0  0
  -29.0897  -18.5200  152.5655 C   0  0  0  0  0  0  0  0  0  0  0  0
  -28.4224  -19.6944  152.5089 C   0  0  0  0  0  0  0  0  0  0  0  0
  3  7  1  0
  9 13  1  0
 13 14  1  0
 14 15  2  3
 15 16  1  0
  5 17  1  0
 17 18  1  0
 18 19  2  3
  2 20  1  0
 16 21  1  0
 19 22  1  0
 11 23  1  0
 23 24  1  0
 24 25  1  0
 28 31  1  0
 21 32  1  0
 32 33  1  0
 33 34  1  0
 34 35  3  0
  1  2  2  0
  2  3  1  0
  3  4  2  0
  4  5  1  0
  5  6  2  0
  6  1  1  0
 25 26  2  0
 26 27  1  0
 27 28  2  0
 28 29  1  0
 29 30  2  0
 30 25  1  0
  7  8  2  0
  8 12  1  0
 12 11  2  0
 11 10  1  0
 10  9  2  0
  9  7  1  0
M  END

$$$$
No_1578-/dssg/home/sw_qyf/PocketFlow/Model-Generation-Results/5HT2A_7WC7_rec_A_10.pdb/2024-01-01-03-54-21/
     RDKit          3D

 25 26  0  0  0  0  0  0  0  0999 V2000
  -23.1746  -16.6014  144.8668 C   0  0  0  0  0  0  0  0  0  0  0  0
  -23.8963  -15.5346  144.7885 C   0  0  0  0  0  0  0  0  0  0  0  0
  -23.6398  -14.5115  145.3281 C   0  0  0  0  0  0  0  0  0  0  0  0
  -24.6397  -13.8424  146.2286 C   0  0  0  0  0  0  0  0  0  0  0  0
  -24.5240  -12.4425  146.5052 C   0  0  0  0  0  0  0  0  0  0  0  0
  -25.1014  -11.6160  145.4958 C   0  0  0  0  0  0  0  0  0  0  0  0
  -26.5512  -11.3311  145.6870 C   0  0  0  0  0  0  0  0  0  0  0  0
  -27.2564  -10.7411  144.6514 C   0  0  0  0  0  0  0  0  0  0  0  0
  -26.9762  -10.3104  143.7310 C   0  0  0  0  0  0  0  0  0  0  0  0
  -23.1483  -17.0017  146.2868 C   0  0  0  0  0  0  0  0  0  0  0  0
  -27.8325   -9.7631  142.6850 C   0  0  0  0  0  0  0  0  0  0  0  0
  -27.8384  -10.0804  141.4092 C   0  0  0  0  0  0  0  0  0  0  0  0
  -28.3552   -9.2443  140.4080 C   0  0  0  0  0  0  0  0  0  0  0  0
  -28.1309   -9.4456  138.9702 C   0  0  0  0  0  0  0  0  0  0  0  0
  -27.6888  -10.6834  138.7243 N   0  0  0  0  0  0  0  0  0  0  0  0
  -27.3287  -11.6549  139.6361 C   0  0  0  0  0  0  0  0  0  0  0  0
  -27.4389  -11.3709  140.9969 C   0  0  0  0  0  0  0  0  0  0  0  0
  -28.4319   -8.4983  138.0709 C   0  0  0  0  0  0  0  0  0  0  0  0
  -23.2437  -18.4310  146.6485 C   0  0  0  0  0  0  0  0  0  0  0  0
  -23.8941  -18.5996  147.7854 O   0  0  0  0  0  0  0  0  0  0  0  0
  -28.7870  -10.7608  145.0639 C   0  0  0  0  0  0  0  0  0  0  0  0
  -29.7011   -9.9536  144.4587 C   0  0  0  0  0  0  0  0  0  0  0  0
  -29.2798   -9.6637  143.0851 C   0  0  0  0  0  0  0  0  0  0  0  0
  -30.2775   -9.0994  142.2211 C   0  0  0  0  0  0  0  0  0  0  0  0
  -31.5926   -8.9235  142.9198 C   0  0  0  0  0  0  0  0  0  0  0  0
  1  2  1  0
  2  3  1  0
  3  4  1  0
  4  5  1  0
  5  6  1  0
  6  7  1  0
  7  8  1  0
  1 10  1  0
 11 12  1  0
 14 18  1  0
 10 19  1  0
 19 20  1  0
 23 24  1  0
 24 25  1  0
 12 13  2  0
 13 14  1  0
 14 15  2  0
 15 16  1  0
 16 17  2  0
 17 12  1  0
  8  9  2  0
  9 11  1  0
 11 23  2  0
 23 22  1  0
 22 21  2  0
 21  8  1  0
M  END

$$$$
No_1579-/dssg/home/sw_qyf/PocketFlow/Model-Generation-Results/5HT2A_7WC7_rec_A_10.pdb/2024-01-01-03-54-21/
     RDKit          3D

 35 38  0  0  0  0  0  0  0  0999 V2000
  -24.1553  -17.8465  145.7021 C   0  0  0  0  0  0  0  0  0  0  0  0
  -23.9795  -18.4462  146.7426 C   0  0  0  0  0  0  0  0  0  0  0  0
  -25.1196  -16.8106  145.6409 C   0  0  0  0  0  0  0  0  0  0  0  0
  -25.2440  -15.8776  144.5240 C   0  0  0  0  0  0  0  0  0  0  0  0
  -26.0733  -14.7284  144.7061 C   0  0  0  0  0  0  0  0  0  0  0  0
  -26.0749  -13.6607  143.7626 C   0  0  0  0  0  0  0  0  0  0  0  0
  -24.5491  -18.0521  147.9995 C   0  0  0  0  0  0  0  0  0  0  0  0
  -25.4112  -16.9742  148.0640 C   0  0  0  0  0  0  0  0  0  0  0  0
  -25.6107  -16.2038  146.8886 C   0  0  0  0  0  0  0  0  0  0  0  0
  -27.0144  -12.6487  143.8916 C   0  0  0  0  0  0  0  0  0  0  0  0
  -27.7242  -12.4655  145.1149 C   0  0  0  0  0  0  0  0  0  0  0  0
  -27.7246  -13.4994  146.1221 C   0  0  0  0  0  0  0  0  0  0  0  0
  -26.8083  -14.5326  145.9856 C   0  0  0  0  0  0  0  0  0  0  0  0
  -26.4828  -15.1646  146.9912 C   0  0  0  0  0  0  0  0  0  0  0  0
  -28.7057  -11.3244  145.1749 C   0  0  0  0  0  0  0  0  0  0  0  0
  -28.6186  -10.4179  146.1611 C   0  0  0  0  0  0  0  0  0  0  0  0
  -29.6178  -11.1338  144.1222 C   0  0  0  0  0  0  0  0  0  0  0  0
  -29.3592  -10.0426  143.3127 N   0  0  0  0  0  0  0  0  0  0  0  0
  -30.1127   -9.5680  142.4947 C   0  0  0  0  0  0  0  0  0  0  0  0
  -29.6852   -8.4382  141.6943 C   0  0  0  0  0  0  0  0  0  0  0  0
  -29.8805   -7.1222  142.1663 C   0  0  0  0  0  0  0  0  0  0  0  0
  -29.3288   -6.0917  141.4899 N   0  0  0  0  0  0  0  0  0  0  0  0
  -29.3848   -4.8030  142.0945 C   0  0  0  0  0  0  0  0  0  0  0  0
  -28.9428   -3.7183  141.4088 C   0  0  0  0  0  0  0  0  0  0  0  0
  -28.8059   -2.4871  142.1391 C   0  0  0  0  0  0  0  0  0  0  0  0
  -28.9846   -2.4353  143.5143 C   0  0  0  0  0  0  0  0  0  0  0  0
  -29.1350   -3.6943  144.2106 C   0  0  0  0  0  0  0  0  0  0  0  0
  -29.2687   -4.7967  143.5468 C   0  0  0  0  0  0  0  0  0  0  0  0
  -31.2365  -10.0061  142.2333 O   0  0  0  0  0  0  0  0  0  0  0  0
  -29.0618   -8.6172  140.4319 C   0  0  0  0  0  0  0  0  0  0  0  0
  -28.0995   -9.5169  140.1137 C   0  0  0  0  0  0  0  0  0  0  0  0
  -27.6277   -9.7121  138.8359 C   0  0  0  0  0  0  0  0  0  0  0  0
  -28.1434   -8.8313  137.8720 C   0  0  0  0  0  0  0  0  0  0  0  0
  -29.4216   -7.8554  139.3490 F   0  0  0  0  0  0  0  0  0  0  0  0
  -29.0822   -7.9094  138.1817 C   0  0  0  0  0  0  0  0  0  0  0  0
  3  4  1  0
  4  5  1  0
  9 14  1  0
 13 14  1  0
 11 15  1  0
 15 16  2  0
 15 17  1  0
 17 18  1  0
 18 19  1  0
 19 20  1  0
 20 21  1  0
 21 22  1  0
 22 23  1  0
 19 29  2  0
 20 30  1  0
 30 31  2  3
 31 32  1  0
 32 33  2  3
 30 34  1  0
 33 35  1  0
 23 24  2  0
 24 25  1  0
 25 26  2  0
 26 27  1  0
 27 28  2  0
 28 23  1  0
  1  2  2  0
  2  7  1  0
  7  8  2  0
  8  9  1  0
  9  3  2  0
  3  1  1  0
  5  6  2  0
  6 10  1  0
 10 11  2  0
 11 12  1  0
 12 13  2  0
 13  5  1  0
M  END

$$$$
No_1580-/dssg/home/sw_qyf/PocketFlow/Model-Generation-Results/5HT2A_7WC7_rec_A_10.pdb/2024-01-01-03-54-21/
     RDKit          3D

 23 24  0  0  0  0  0  0  0  0999 V2000
  -24.1553  -17.8465  145.7021 C   0  0  0  0  0  0  0  0  0  0  0  0
  -24.2856  -16.6364  145.3494 C   0  0  0  0  0  0  0  0  0  0  0  0
  -24.1962  -15.9414  144.2650 C   0  0  0  0  0  0  0  0  0  0  0  0
  -24.3870  -14.5486  144.1162 C   0  0  0  0  0  0  0  0  0  0  0  0
  -25.0807  -14.0227  145.1254 C   0  0  0  0  0  0  0  0  0  0  0  0
  -25.2701  -14.6138  146.4112 C   0  0  0  0  0  0  0  0  0  0  0  0
  -24.9078  -15.9472  146.4920 C   0  0  0  0  0  0  0  0  0  0  0  0
  -24.6505  -18.0594  146.9786 C   0  0  0  0  0  0  0  0  0  0  0  0
  -25.0506  -16.9173  147.5357 C   0  0  0  0  0  0  0  0  0  0  0  0
  -25.3687  -12.4773  145.0896 C   0  0  0  0  0  0  0  0  0  0  0  0
  -25.1526  -11.6593  145.7587 Br  0  0  0  0  0  0  0  0  0  0  0  0
  -26.1944  -12.4134  143.9451 F   0  0  0  0  0  0  0  0  0  0  0  0
  -25.5876  -16.6712  148.8569 C   0  0  0  0  0  0  0  0  0  0  0  0
  -26.8593  -17.1456  149.1738 C   0  0  0  0  0  0  0  0  0  0  0  0
  -28.0064  -16.7991  148.4785 C   0  0  0  0  0  0  0  0  0  0  0  0
  -27.9942  -16.3570  147.1490 C   0  0  0  0  0  0  0  0  0  0  0  0
  -29.1435  -15.6277  146.6112 C   0  0  0  0  0  0  0  0  0  0  0  0
  -29.7418  -14.6131  147.5866 C   0  0  0  0  0  0  0  0  0  0  0  0
  -30.3277  -13.4244  147.1861 C   0  0  0  0  0  0  0  0  0  0  0  0
  -29.6929  -12.3039  147.6553 C   0  0  0  0  0  0  0  0  0  0  0  0
  -29.0695  -12.4405  148.5582 F   0  0  0  0  0  0  0  0  0  0  0  0
  -28.9643  -11.6406  146.6528 F   0  0  0  0  0  0  0  0  0  0  0  0
  -30.6979  -11.3393  147.9204 F   0  0  0  0  0  0  0  0  0  0  0  0
  1  2  2  0
  2  3  1  0
  3  4  1  0
  4  5  1  0
  5  6  1  0
  2  7  1  0
  6  7  1  0
  1  8  1  0
  7  9  1  0
  8  9  2  0
  5 10  1  0
 10 11  1  0
 10 12  1  0
  9 13  1  0
 13 14  2  3
 14 15  1  0
 15 16  2  3
 16 17  1  0
 17 18  2  3
 18 19  1  0
 19 20  1  0
 20 21  1  0
 20 22  1  0
 20 23  1  0
M  END

$$$$
No_1581-/dssg/home/sw_qyf/PocketFlow/Model-Generation-Results/5HT2A_7WC7_rec_A_10.pdb/2024-01-01-03-54-21/
     RDKit          3D

 35 35  0  0  0  0  0  0  0  0999 V2000
  -23.1746  -16.6014  144.8668 C   0  0  0  0  0  0  0  0  0  0  0  0
  -23.7011  -17.0158  145.9774 C   0  0  0  0  0  0  0  0  0  0  0  0
  -23.7336  -18.2775  146.3737 C   0  0  0  0  0  0  0  0  0  0  0  0
  -23.2769  -15.1496  144.5841 C   0  0  0  0  0  0  0  0  0  0  0  0
  -24.0283  -14.2099  145.3704 C   0  0  0  0  0  0  0  0  0  0  0  0
  -24.0856  -12.8276  145.0210 C   0  0  0  0  0  0  0  0  0  0  0  0
  -24.6348  -14.6565  146.6294 C   0  0  0  0  0  0  0  0  0  0  0  0
  -24.4985  -16.0604  146.9501 C   0  0  0  0  0  0  0  0  0  0  0  0
  -25.0394  -12.1642  145.0372 O   0  0  0  0  0  0  0  0  0  0  0  0
  -25.6342  -11.3440  144.3471 C   0  0  0  0  0  0  0  0  0  0  0  0
  -27.0675  -11.2227  144.6338 C   0  0  0  0  0  0  0  0  0  0  0  0
  -27.9319  -10.2612  143.9922 C   0  0  0  0  0  0  0  0  0  0  0  0
  -28.9537  -10.6256  143.3396 C   0  0  0  0  0  0  0  0  0  0  0  0
  -29.5154   -9.6864  142.3384 C   0  0  0  0  0  0  0  0  0  0  0  0
  -29.2982   -9.0919  141.4973 C   0  0  0  0  0  0  0  0  0  0  0  0
  -28.1471   -9.0706  140.8149 C   0  0  0  0  0  0  0  0  0  0  0  0
  -30.1387   -7.8447  141.0832 C   0  0  0  0  0  0  0  0  0  0  0  0
  -24.1873  -18.8425  147.3567 O   0  0  0  0  0  0  0  0  0  0  0  0
  -22.6523  -19.0294  146.0065 O   0  0  0  0  0  0  0  0  0  0  0  0
  -31.0005   -7.4659  141.8356 O   0  0  0  0  0  0  0  0  0  0  0  0
  -30.1079   -7.4721  139.8713 O   0  0  0  0  0  0  0  0  0  0  0  0
  -28.1117  -10.1068  139.7238 C   0  0  0  0  0  0  0  0  0  0  0  0
  -27.7191  -12.1211  145.5277 C   0  0  0  0  0  0  0  0  0  0  0  0
  -28.8417  -11.7581  146.2397 C   0  0  0  0  0  0  0  0  0  0  0  0
  -29.3901  -12.6633  147.2164 C   0  0  0  0  0  0  0  0  0  0  0  0
  -30.4362  -12.2326  148.1422 C   0  0  0  0  0  0  0  0  0  0  0  0
  -30.9347  -13.1047  149.1123 C   0  0  0  0  0  0  0  0  0  0  0  0
  -31.9021  -12.7579  150.0312 C   0  0  0  0  0  0  0  0  0  0  0  0
  -31.7528  -12.9980  151.2984 C   0  0  0  0  0  0  0  0  0  0  0  0
  -33.0437  -12.0987  149.4405 C   0  0  0  0  0  0  0  0  0  0  0  0
  -27.2556  -11.2728  140.0092 C   0  0  0  0  0  0  0  0  0  0  0  0
  -27.2843  -12.3272  139.0330 C   0  0  0  0  0  0  0  0  0  0  0  0
  -26.7494  -13.4523  139.4274 F   0  0  0  0  0  0  0  0  0  0  0  0
  -26.7490  -11.9873  137.8178 F   0  0  0  0  0  0  0  0  0  0  0  0
  -22.8988  -12.2843  144.7634 O   0  0  0  0  0  0  0  0  0  0  0  0
  2  3  1  0
  5  6  1  0
  6  9  1  0
  9 10  1  0
 10 11  1  0
 11 12  1  0
 12 13  1  0
 13 14  1  0
 14 15  2  3
 15 16  1  0
 15 17  1  0
  3 18  1  0
  3 19  2  0
 17 20  1  0
 17 21  2  0
 16 22  1  0
 11 23  1  0
 23 24  2  3
 24 25  1  0
 25 26  2  3
 26 27  1  0
 27 28  1  0
 28 29  1  0
 28 30  1  0
 22 31  1  0
 31 32  1  0
 32 33  1  0
 32 34  1  0
  6 35  2  0
  1  2  2  0
  2  8  1  0
  8  7  2  0
  7  5  1  0
  5  4  2  0
  4  1  1  0
M  END

$$$$
No_1582-/dssg/home/sw_qyf/PocketFlow/Model-Generation-Results/5HT2A_7WC7_rec_A_10.pdb/2024-01-01-03-54-21/
     RDKit          3D

 14 16  0  0  0  0  0  0  0  0999 V2000
  -24.1553  -17.8465  145.7021 C   0  0  0  0  0  0  0  0  0  0  0  0
  -23.9795  -18.4462  146.7426 C   0  0  0  0  0  0  0  0  0  0  0  0
  -25.1196  -16.8106  145.6408 C   0  0  0  0  0  0  0  0  0  0  0  0
  -25.2440  -15.8776  144.5240 C   0  0  0  0  0  0  0  0  0  0  0  0
  -25.1544  -14.5048  144.8371 C   0  0  0  0  0  0  0  0  0  0  0  0
  -26.0606  -13.9589  145.6946 C   0  0  0  0  0  0  0  0  0  0  0  0
  -25.9496  -12.5787  145.9488 C   0  0  0  0  0  0  0  0  0  0  0  0
  -24.8584  -11.9158  145.4079 C   0  0  0  0  0  0  0  0  0  0  0  0
  -23.7846  -12.5647  144.8390 C   0  0  0  0  0  0  0  0  0  0  0  0
  -23.9976  -13.9328  144.4629 C   0  0  0  0  0  0  0  0  0  0  0  0
  -24.5227  -18.0366  148.0388 C   0  0  0  0  0  0  0  0  0  0  0  0
  -25.4299  -16.9734  148.0745 C   0  0  0  0  0  0  0  0  0  0  0  0
  -25.6256  -16.2302  146.8992 C   0  0  0  0  0  0  0  0  0  0  0  0
  -26.1917  -14.8428  147.0002 C   0  0  0  0  0  0  0  0  0  0  0  0
  3  4  1  0
  4  5  1  0
  6 14  1  0
 13 14  1  0
  1  2  2  0
  2 11  1  0
 11 12  2  0
 12 13  1  0
 13  3  2  0
  3  1  1  0
  5  6  2  0
  6  7  1  0
  7  8  2  0
  8  9  1  0
  9 10  2  0
 10  5  1  0
M  END

$$$$
No_1583-/dssg/home/sw_qyf/PocketFlow/Model-Generation-Results/5HT2A_7WC7_rec_A_10.pdb/2024-01-01-03-54-21/
     RDKit          3D

 35 37  0  0  0  0  0  0  0  0999 V2000
  -23.1746  -16.6014  144.8668 C   0  0  0  0  0  0  0  0  0  0  0  0
  -23.8963  -15.5346  144.7885 C   0  0  0  0  0  0  0  0  0  0  0  0
  -24.5755  -15.0383  145.9043 C   0  0  0  0  0  0  0  0  0  0  0  0
  -24.8345  -15.9108  146.9141 C   0  0  0  0  0  0  0  0  0  0  0  0
  -24.1096  -17.0949  147.0955 C   0  0  0  0  0  0  0  0  0  0  0  0
  -23.3699  -17.5065  145.9551 C   0  0  0  0  0  0  0  0  0  0  0  0
  -25.3104  -13.7011  145.8755 C   0  0  0  0  0  0  0  0  0  0  0  0
  -26.5999  -13.5095  145.8475 C   0  0  0  0  0  0  0  0  0  0  0  0
  -27.1351  -12.5784  145.5317 C   0  0  0  0  0  0  0  0  0  0  0  0
  -28.6348  -12.2197  145.4355 C   0  0  0  0  0  0  0  0  0  0  0  0
  -29.4291  -13.1142  146.2207 C   0  0  0  0  0  0  0  0  0  0  0  0
  -28.8116  -14.2516  146.7535 C   0  0  0  0  0  0  0  0  0  0  0  0
  -27.4527  -14.4533  146.6278 C   0  0  0  0  0  0  0  0  0  0  0  0
  -29.1612  -10.9707  144.9012 C   0  0  0  0  0  0  0  0  0  0  0  0
  -30.3862  -10.4300  145.1656 C   0  0  0  0  0  0  0  0  0  0  0  0
  -30.7297   -9.3109  144.4901 N   0  0  0  0  0  0  0  0  0  0  0  0
  -30.2289   -8.7949  143.4023 C   0  0  0  0  0  0  0  0  0  0  0  0
  -28.9760   -9.3368  143.0202 C   0  0  0  0  0  0  0  0  0  0  0  0
  -28.4246  -10.4310  143.7194 C   0  0  0  0  0  0  0  0  0  0  0  0
  -30.7219   -7.6942  142.8484 N   0  0  0  0  0  0  0  0  0  0  0  0
  -24.3512  -12.7366  145.9040 O   0  0  0  0  0  0  0  0  0  0  0  0
  -24.2046  -17.8884  148.3193 C   0  0  0  0  0  0  0  0  0  0  0  0
  -23.3878  -17.3285  149.4930 C   0  0  0  0  0  0  0  0  0  0  0  0
  -23.8321  -17.2482  150.6886 O   0  0  0  0  0  0  0  0  0  0  0  0
  -23.7980  -14.6672  143.7742 O   0  0  0  0  0  0  0  0  0  0  0  0
  -29.6019  -15.1238  147.3939 F   0  0  0  0  0  0  0  0  0  0  0  0
  -22.3956  -16.5433  149.2637 O   0  0  0  0  0  0  0  0  0  0  0  0
  -30.5393   -7.5110  141.4603 C   0  0  0  0  0  0  0  0  0  0  0  0
  -29.8772   -7.1901  140.6645 C   0  0  0  0  0  0  0  0  0  0  0  0
  -29.6587   -7.7347  139.3153 C   0  0  0  0  0  0  0  0  0  0  0  0
  -28.3331   -7.8650  138.7697 C   0  0  0  0  0  0  0  0  0  0  0  0
  -28.2522   -8.5614  137.6049 C   0  0  0  0  0  0  0  0  0  0  0  0
  -26.8256  -11.1864  143.0749 Br  0  0  0  0  0  0  0  0  0  0  0  0
  -28.3894   -9.8320  137.5009 O   0  0  0  0  0  0  0  0  0  0  0  0
  -28.5201   -7.7999  136.4973 O   0  0  0  0  0  0  0  0  0  0  0  0
  3  7  1  0
  7  8  1  0
 10 14  1  0
 17 20  1  0
  7 21  2  0
  5 22  1  0
 22 23  1  0
 23 24  1  0
  2 25  1  0
 12 26  1  0
 23 27  2  0
 20 28  1  0
 28 29  1  0
 29 30  1  0
 30 31  2  3
 31 32  1  0
 19 33  1  0
 32 34  1  0
 32 35  2  0
  1  2  2  0
  2  3  1  0
  3  4  2  0
  4  5  1  0
  5  6  2  0
  6  1  1  0
  8  9  2  0
  9 10  1  0
 10 11  2  0
 11 12  1  0
 12 13  2  0
 13  8  1  0
 14 15  2  0
 15 16  1  0
 16 17  2  0
 17 18  1  0
 18 19  2  0
 19 14  1  0
M  END

$$$$
No_1584-/dssg/home/sw_qyf/PocketFlow/Model-Generation-Results/5HT2A_7WC7_rec_A_10.pdb/2024-01-01-03-54-21/
     RDKit          3D

 35 37  0  0  0  0  0  0  0  0999 V2000
  -24.1553  -17.8465  145.7021 C   0  0  0  0  0  0  0  0  0  0  0  0
  -24.2856  -16.6364  145.3494 C   0  0  0  0  0  0  0  0  0  0  0  0
  -24.7211  -15.5955  146.2115 C   0  0  0  0  0  0  0  0  0  0  0  0
  -25.1322  -16.0374  147.5372 C   0  0  0  0  0  0  0  0  0  0  0  0
  -24.5141  -18.2630  147.0046 C   0  0  0  0  0  0  0  0  0  0  0  0
  -24.9573  -17.2963  147.9768 C   0  0  0  0  0  0  0  0  0  0  0  0
  -24.8747  -14.1906  145.7995 C   0  0  0  0  0  0  0  0  0  0  0  0
  -24.1209  -13.7374  144.8053 C   0  0  0  0  0  0  0  0  0  0  0  0
  -24.0893  -12.3099  144.6069 C   0  0  0  0  0  0  0  0  0  0  0  0
  -25.0323  -11.4988  145.3915 C   0  0  0  0  0  0  0  0  0  0  0  0
  -25.8646  -12.0538  146.3474 C   0  0  0  0  0  0  0  0  0  0  0  0
  -25.7181  -13.4288  146.6301 C   0  0  0  0  0  0  0  0  0  0  0  0
  -23.9542  -16.2400  144.0935 N   0  0  0  0  0  0  0  0  0  0  0  0
  -23.8291  -14.7688  143.9081 C   0  0  0  0  0  0  0  0  0  0  0  0
  -25.2174  -17.7489  149.2339 O   0  0  0  0  0  0  0  0  0  0  0  0
  -24.5127  -17.1859  150.3130 C   0  0  0  0  0  0  0  0  0  0  0  0
  -23.7594  -18.8104  144.8956 O   0  0  0  0  0  0  0  0  0  0  0  0
  -26.6320  -11.2543  147.0218 F   0  0  0  0  0  0  0  0  0  0  0  0
  -23.0810  -17.0437  150.2405 C   0  0  0  0  0  0  0  0  0  0  0  0
  -22.3799  -16.7533  151.3118 O   0  0  0  0  0  0  0  0  0  0  0  0
  -22.5175  -17.2328  149.1442 O   0  0  0  0  0  0  0  0  0  0  0  0
  -23.6966  -20.1177  145.3981 C   0  0  0  0  0  0  0  0  0  0  0  0
  -22.7852  -20.2614  146.2243 C   0  0  0  0  0  0  0  0  0  0  0  0
  -24.8993  -20.6089  145.9549 O   0  0  0  0  0  0  0  0  0  0  0  0
  -25.0604  -10.1976  145.0695 O   0  0  0  0  0  0  0  0  0  0  0  0
  -26.3666   -9.8045  144.9736 C   0  0  0  0  0  0  0  0  0  0  0  0
  -26.7496   -9.0142  143.7722 C   0  0  0  0  0  0  0  0  0  0  0  0
  -28.1601   -8.8026  143.5842 C   0  0  0  0  0  0  0  0  0  0  0  0
  -28.6120   -7.9335  142.6451 C   0  0  0  0  0  0  0  0  0  0  0  0
  -29.0544   -8.2558  141.4117 C   0  0  0  0  0  0  0  0  0  0  0  0
  -29.0986   -9.3447  140.8599 C   0  0  0  0  0  0  0  0  0  0  0  0
  -27.9892   -9.9449  140.5945 C   0  0  0  0  0  0  0  0  0  0  0  0
  -27.4193  -10.8090  140.0822 C   0  0  0  0  0  0  0  0  0  0  0  0
  -27.3116  -11.6372  139.4583 C   0  0  0  0  0  0  0  0  0  0  0  0
  -28.5891  -12.3804  139.0257 C   0  0  0  0  0  0  0  0  0  0  0  0
  6 15  1  0
 15 16  1  0
  1 17  1  0
 11 18  1  0
 16 19  1  0
 19 20  1  0
 19 21  2  0
 17 22  1  0
 22 23  1  0
 22 24  1  0
 10 25  1  0
 25 26  1  0
 26 27  1  0
 27 28  2  3
 28 29  1  0
 29 30  1  0
 30 31  2  3
 31 32  1  0
 32 33  2  3
 33 34  1  0
 34 35  1  0
  3  7  1  0
  8 14  1  0
 14 13  2  0
 13  2  1  0
  1  2  2  0
  2  3  1  0
  3  4  2  0
  4  6  1  0
  6  5  2  0
  5  1  1  0
  7  8  2  0
  8  9  1  0
  9 10  2  0
 10 11  1  0
 11 12  2  0
 12  7  1  0
M  END

$$$$
No_1585-/dssg/home/sw_qyf/PocketFlow/Model-Generation-Results/5HT2A_7WC7_rec_A_10.pdb/2024-01-01-03-54-21/
     RDKit          3D

 29 30  0  0  0  0  0  0  0  0999 V2000
  -24.1553  -17.8465  145.7021 C   0  0  0  0  0  0  0  0  0  0  0  0
  -23.9795  -18.4462  146.7426 C   0  0  0  0  0  0  0  0  0  0  0  0
  -25.1593  -16.8262  145.6925 C   0  0  0  0  0  0  0  0  0  0  0  0
  -26.3426  -16.9003  146.3448 C   0  0  0  0  0  0  0  0  0  0  0  0
  -24.9078  -18.3640  147.8289 C   0  0  0  0  0  0  0  0  0  0  0  0
  -26.0312  -17.5122  147.7122 C   0  0  0  0  0  0  0  0  0  0  0  0
  -27.4996  -16.1150  146.1993 C   0  0  0  0  0  0  0  0  0  0  0  0
  -27.2984  -14.8027  146.7384 C   0  0  0  0  0  0  0  0  0  0  0  0
  -28.3155  -13.8330  146.6948 C   0  0  0  0  0  0  0  0  0  0  0  0
  -28.1397  -12.4649  146.4960 C   0  0  0  0  0  0  0  0  0  0  0  0
  -29.3041  -11.6769  146.1735 C   0  0  0  0  0  0  0  0  0  0  0  0
  -29.1987  -10.4849  145.4540 C   0  0  0  0  0  0  0  0  0  0  0  0
  -30.3482  -10.0314  144.7039 C   0  0  0  0  0  0  0  0  0  0  0  0
  -30.0730   -9.0706  143.6728 C   0  0  0  0  0  0  0  0  0  0  0  0
  -28.8972   -9.0534  143.0187 C   0  0  0  0  0  0  0  0  0  0  0  0
  -27.7443   -9.7251  143.7282 C   0  0  0  0  0  0  0  0  0  0  0  0
  -27.9614  -10.5165  144.7665 C   0  0  0  0  0  0  0  0  0  0  0  0
  -31.2392   -8.4790  142.9740 C   0  0  0  0  0  0  0  0  0  0  0  0
  -32.3232   -8.6240  143.3085 O   0  0  0  0  0  0  0  0  0  0  0  0
  -30.9344   -7.9213  141.7716 O   0  0  0  0  0  0  0  0  0  0  0  0
  -25.1326  -15.7273  144.6333 C   0  0  0  0  0  0  0  0  0  0  0  0
  -23.7671  -15.0695  144.4735 C   0  0  0  0  0  0  0  0  0  0  0  0
  -23.8897  -13.4974  144.6792 C   0  0  0  0  0  0  0  0  0  0  0  0
  -22.7310  -12.8653  144.5876 N   0  0  0  0  0  0  0  0  0  0  0  0
  -22.7337  -11.6289  145.3794 C   0  0  0  0  0  0  0  0  0  0  0  0
  -30.4675  -12.0499  146.7343 O   0  0  0  0  0  0  0  0  0  0  0  0
  -21.8069  -13.1396  143.6702 C   0  0  0  0  0  0  0  0  0  0  0  0
  -28.6722  -16.7737  146.8956 C   0  0  0  0  0  0  0  0  0  0  0  0
  -22.9069  -19.2796  146.9510 O   0  0  0  0  0  0  0  0  0  0  0  0
  1  2  1  0
  1  3  1  0
  2  5  1  0
  4  6  1  0
  5  6  1  0
  4  7  1  0
  7  8  1  0
  8  9  1  0
  9 10  2  3
 10 11  1  0
 11 12  1  0
 14 18  1  0
 18 19  1  0
 18 20  2  0
  3 21  1  0
 21 22  1  0
 22 23  1  0
 23 24  1  0
 24 25  1  0
 11 26  1  0
 24 27  1  0
  7 28  1  0
  2 29  2  0
  3  4  1  0
 12 13  2  0
 13 14  1  0
 14 15  2  0
 15 16  1  0
 16 17  2  0
 17 12  1  0
M  END

$$$$
No_1586-/dssg/home/sw_qyf/PocketFlow/Model-Generation-Results/5HT2A_7WC7_rec_A_10.pdb/2024-01-01-03-54-21/
     RDKit          3D

 24 25  0  0  0  0  0  0  0  0999 V2000
  -23.1746  -16.6014  144.8668 C   0  0  0  0  0  0  0  0  0  0  0  0
  -23.8963  -15.5346  144.7885 C   0  0  0  0  0  0  0  0  0  0  0  0
  -24.5755  -15.0383  145.9043 C   0  0  0  0  0  0  0  0  0  0  0  0
  -25.0618  -13.6819  146.0347 C   0  0  0  0  0  0  0  0  0  0  0  0
  -24.0242  -12.8249  145.9593 C   0  0  0  0  0  0  0  0  0  0  0  0
  -23.5540  -17.4786  146.0177 C   0  0  0  0  0  0  0  0  0  0  0  0
  -24.1966  -17.0989  147.1375 C   0  0  0  0  0  0  0  0  0  0  0  0
  -24.7054  -15.8596  147.1718 C   0  0  0  0  0  0  0  0  0  0  0  0
  -26.3752  -13.2418  146.0613 C   0  0  0  0  0  0  0  0  0  0  0  0
  -27.4657  -14.0371  146.2561 C   0  0  0  0  0  0  0  0  0  0  0  0
  -28.6931  -13.3885  146.4420 C   0  0  0  0  0  0  0  0  0  0  0  0
  -28.8495  -12.0254  146.0718 C   0  0  0  0  0  0  0  0  0  0  0  0
  -27.7962  -11.3029  145.6090 C   0  0  0  0  0  0  0  0  0  0  0  0
  -26.4769  -11.8616  145.6744 C   0  0  0  0  0  0  0  0  0  0  0  0
  -30.5977  -11.2563  146.0403 Br  0  0  0  0  0  0  0  0  0  0  0  0
  -24.2195  -17.9366  148.3236 C   0  0  0  0  0  0  0  0  0  0  0  0
  -25.4584  -17.7682  149.0634 C   0  0  0  0  0  0  0  0  0  0  0  0
  -25.3418  -16.6994  149.8910 O   0  0  0  0  0  0  0  0  0  0  0  0
  -23.8955  -14.7534  143.7796 O   0  0  0  0  0  0  0  0  0  0  0  0
  -25.5493  -11.0763  145.4226 F   0  0  0  0  0  0  0  0  0  0  0  0
  -24.3168  -11.4792  145.4808 C   0  0  0  0  0  0  0  0  0  0  0  0
  -23.9362  -11.3730  144.0636 F   0  0  0  0  0  0  0  0  0  0  0  0
  -23.4550  -10.6348  145.9187 F   0  0  0  0  0  0  0  0  0  0  0  0
  -30.1067  -14.3133  146.8885 Cl  0  0  0  0  0  0  0  0  0  0  0  0
  1  2  1  0
  2  3  1  0
  3  4  1  0
  4  5  1  0
  6  7  1  0
  3  8  1  0
  7  8  1  0
  4  9  1  0
 12 15  1  0
  7 16  1  0
 16 17  1  0
 17 18  1  0
  2 19  2  0
 14 20  1  0
  5 21  1  0
 21 22  1  0
 21 23  1  0
 11 24  1  0
  1  6  1  0
  9 10  2  0
 10 11  1  0
 11 12  2  0
 12 13  1  0
 13 14  2  0
 14  9  1  0
M  END

$$$$
No_1587-/dssg/home/sw_qyf/PocketFlow/Model-Generation-Results/5HT2A_7WC7_rec_A_10.pdb/2024-01-01-03-54-21/
     RDKit          3D

 18 19  0  0  0  0  0  0  0  0999 V2000
  -24.1553  -17.8465  145.7021 C   0  0  0  0  0  0  0  0  0  0  0  0
  -24.2855  -16.6364  145.3494 C   0  0  0  0  0  0  0  0  0  0  0  0
  -24.7211  -15.5955  146.2116 C   0  0  0  0  0  0  0  0  0  0  0  0
  -25.1321  -16.0374  147.5372 C   0  0  0  0  0  0  0  0  0  0  0  0
  -24.5163  -18.2968  146.9928 C   0  0  0  0  0  0  0  0  0  0  0  0
  -24.9533  -17.3074  147.9886 C   0  0  0  0  0  0  0  0  0  0  0  0
  -24.8651  -14.1840  145.8143 C   0  0  0  0  0  0  0  0  0  0  0  0
  -25.4674  -13.2486  146.5302 C   0  0  0  0  0  0  0  0  0  0  0  0
  -25.5113  -11.9044  146.1977 C   0  0  0  0  0  0  0  0  0  0  0  0
  -24.9289  -11.4393  145.0318 C   0  0  0  0  0  0  0  0  0  0  0  0
  -24.2278  -13.8017  144.5615 C   0  0  0  0  0  0  0  0  0  0  0  0
  -24.1947  -12.3885  144.3003 N   0  0  0  0  0  0  0  0  0  0  0  0
  -23.6186  -14.4033  143.7836 O   0  0  0  0  0  0  0  0  0  0  0  0
  -25.2763  -17.6964  149.2766 N   0  0  0  0  0  0  0  0  0  0  0  0
  -24.4753  -17.2765  150.3543 C   0  0  0  0  0  0  0  0  0  0  0  0
  -23.1366  -16.7722  150.2563 C   0  0  0  0  0  0  0  0  0  0  0  0
  -22.3363  -16.6666  151.3112 O   0  0  0  0  0  0  0  0  0  0  0  0
  -22.6843  -16.4202  149.1319 O   0  0  0  0  0  0  0  0  0  0  0  0
  3  7  1  0
  8  9  1  0
  7 11  1  0
 10 12  1  0
 11 12  1  0
 11 13  2  0
  6 14  1  0
 14 15  1  0
 15 16  1  0
 16 17  1  0
 16 18  2  0
  7  8  1  0
  9 10  1  0
  1  2  2  0
  2  3  1  0
  3  4  2  0
  4  6  1  0
  6  5  2  0
  5  1  1  0
M  END

$$$$
No_1588-/dssg/home/sw_qyf/PocketFlow/Model-Generation-Results/5HT2A_7WC7_rec_A_10.pdb/2024-01-01-03-54-21/
     RDKit          3D

 35 37  0  0  0  0  0  0  0  0999 V2000
  -23.1746  -16.6014  144.8668 C   0  0  0  0  0  0  0  0  0  0  0  0
  -23.7011  -17.0158  145.9774 C   0  0  0  0  0  0  0  0  0  0  0  0
  -24.2134  -16.0722  146.8877 C   0  0  0  0  0  0  0  0  0  0  0  0
  -24.5407  -14.7704  146.3552 C   0  0  0  0  0  0  0  0  0  0  0  0
  -25.3479  -14.5259  145.5808 C   0  0  0  0  0  0  0  0  0  0  0  0
  -26.5443  -14.2552  145.7903 C   0  0  0  0  0  0  0  0  0  0  0  0
  -27.1941  -14.3241  147.0223 C   0  0  0  0  0  0  0  0  0  0  0  0
  -23.8614  -15.5956  144.0480 C   0  0  0  0  0  0  0  0  0  0  0  0
  -24.6726  -14.6371  144.4905 C   0  0  0  0  0  0  0  0  0  0  0  0
  -28.6002  -13.9636  147.3032 C   0  0  0  0  0  0  0  0  0  0  0  0
  -29.3848  -14.6009  148.1817 C   0  0  0  0  0  0  0  0  0  0  0  0
  -29.0272  -15.8310  148.7031 C   0  0  0  0  0  0  0  0  0  0  0  0
  -27.7058  -16.3278  148.4104 C   0  0  0  0  0  0  0  0  0  0  0  0
  -26.8689  -15.6397  147.5139 C   0  0  0  0  0  0  0  0  0  0  0  0
  -25.2465  -14.0462  143.3385 O   0  0  0  0  0  0  0  0  0  0  0  0
  -29.0586  -12.6591  146.7349 C   0  0  0  0  0  0  0  0  0  0  0  0
  -29.0022  -12.2691  145.3818 C   0  0  0  0  0  0  0  0  0  0  0  0
  -28.6801  -10.8557  145.1245 C   0  0  0  0  0  0  0  0  0  0  0  0
  -28.5542  -10.3753  143.8422 C   0  0  0  0  0  0  0  0  0  0  0  0
  -29.3084   -9.2804  143.4395 C   0  0  0  0  0  0  0  0  0  0  0  0
  -29.0207   -8.4992  142.3845 C   0  0  0  0  0  0  0  0  0  0  0  0
  -29.6815   -7.2217  142.1560 C   0  0  0  0  0  0  0  0  0  0  0  0
  -29.2513   -6.3807  141.1230 C   0  0  0  0  0  0  0  0  0  0  0  0
  -23.2280  -18.2411  146.6872 C   0  0  0  0  0  0  0  0  0  0  0  0
  -29.0439   -6.9964  139.8397 C   0  0  0  0  0  0  0  0  0  0  0  0
  -29.3243   -8.2680  139.6339 C   0  0  0  0  0  0  0  0  0  0  0  0
  -28.8987   -9.0997  140.9291 C   0  0  0  0  0  0  0  0  0  0  0  0
  -29.6697  -11.8131  147.6227 O   0  0  0  0  0  0  0  0  0  0  0  0
  -23.2387  -18.4238  147.8208 O   0  0  0  0  0  0  0  0  0  0  0  0
  -23.1704  -19.3558  145.8798 O   0  0  0  0  0  0  0  0  0  0  0  0
  -28.5285  -10.4750  140.7840 C   0  0  0  0  0  0  0  0  0  0  0  0
  -29.1803  -11.4298  140.2312 C   0  0  0  0  0  0  0  0  0  0  0  0
  -28.4703  -12.6739  140.0162 C   0  0  0  0  0  0  0  0  0  0  0  0
  -27.2090  -12.7860  140.6667 C   0  0  0  0  0  0  0  0  0  0  0  0
  -27.1090  -10.7987  141.3183 C   0  0  0  0  0  0  0  0  0  0  0  0
  1  2  1  0
  2  3  1  0
  3  4  1  0
  4  5  1  0
  5  6  2  3
  6  7  1  0
  1  8  2  0
  5  9  1  0
  8  9  1  0
  9 15  1  0
 10 16  1  0
 16 17  1  0
 17 18  1  0
 18 19  1  0
 19 20  1  0
  2 24  1  0
 16 28  2  0
 24 29  2  0
 24 30  1  0
 27 31  1  0
 31 32  1  0
 32 33  2  3
 33 34  1  0
 31 35  1  0
 20 21  1  0
  7 10  1  0
 10 11  2  0
 11 12  1  0
 12 13  2  0
 13 14  1  0
 14  7  2  0
 21 22  2  0
 22 23  1  0
 23 25  2  0
 25 26  1  0
 26 27  2  0
 27 21  1  0
M  END

$$$$
No_1589-/dssg/home/sw_qyf/PocketFlow/Model-Generation-Results/5HT2A_7WC7_rec_A_10.pdb/2024-01-01-03-54-21/
     RDKit          3D

  8  7  0  0  0  0  0  0  0  0999 V2000
  -23.1746  -16.6014  144.8668 C   0  0  0  0  0  0  0  0  0  0  0  0
  -23.7011  -17.0158  145.9774 C   0  0  0  0  0  0  0  0  0  0  0  0
  -23.7336  -18.2775  146.3737 C   0  0  0  0  0  0  0  0  0  0  0  0
  -23.1993  -15.1956  144.5415 C   0  0  0  0  0  0  0  0  0  0  0  0
  -22.7030  -14.5098  143.5079 C   0  0  0  0  0  0  0  0  0  0  0  0
  -24.2069  -18.7266  147.6702 C   0  0  0  0  0  0  0  0  0  0  0  0
  -24.8765  -17.6806  148.4466 C   0  0  0  0  0  0  0  0  0  0  0  0
  -24.8966  -16.3487  147.9990 C   0  0  0  0  0  0  0  0  0  0  0  0
  1  2  1  0
  2  3  3  0
  1  4  2  3
  4  5  1  0
  3  6  1  0
  6  7  2  3
  7  8  1  0
M  END

$$$$
No_1590-/dssg/home/sw_qyf/PocketFlow/Model-Generation-Results/5HT2A_7WC7_rec_A_10.pdb/2024-01-01-03-54-21/
     RDKit          3D

 24 27  0  0  0  0  0  0  0  0999 V2000
  -24.1553  -17.8465  145.7021 C   0  0  0  0  0  0  0  0  0  0  0  0
  -24.2856  -16.6364  145.3494 C   0  0  0  0  0  0  0  0  0  0  0  0
  -25.0033  -15.6772  146.0737 C   0  0  0  0  0  0  0  0  0  0  0  0
  -24.8869  -14.2981  145.8377 C   0  0  0  0  0  0  0  0  0  0  0  0
  -25.3793  -13.2111  146.5918 C   0  0  0  0  0  0  0  0  0  0  0  0
  -24.8689  -11.8895  146.2480 C   0  0  0  0  0  0  0  0  0  0  0  0
  -24.9523  -18.3643  146.7279 C   0  0  0  0  0  0  0  0  0  0  0  0
  -25.7247  -17.5253  147.4867 C   0  0  0  0  0  0  0  0  0  0  0  0
  -25.7641  -16.1397  147.2401 C   0  0  0  0  0  0  0  0  0  0  0  0
  -24.1463  -13.8601  144.6429 C   0  0  0  0  0  0  0  0  0  0  0  0
  -23.7056  -14.7459  143.7612 N   0  0  0  0  0  0  0  0  0  0  0  0
  -23.5519  -16.0759  144.1659 C   0  0  0  0  0  0  0  0  0  0  0  0
  -24.3077  -11.5661  145.1017 C   0  0  0  0  0  0  0  0  0  0  0  0
  -23.9091  -12.5039  144.3592 C   0  0  0  0  0  0  0  0  0  0  0  0
  -23.5517  -18.7895  144.9483 O   0  0  0  0  0  0  0  0  0  0  0  0
  -25.4813  -10.8841  147.0721 F   0  0  0  0  0  0  0  0  0  0  0  0
  -26.4634  -15.3661  148.0008 O   0  0  0  0  0  0  0  0  0  0  0  0
  -27.8762  -15.8445  148.1612 C   0  0  0  0  0  0  0  0  0  0  0  0
  -28.8896  -14.9062  147.8960 C   0  0  0  0  0  0  0  0  0  0  0  0
  -29.8355  -14.4657  148.8167 C   0  0  0  0  0  0  0  0  0  0  0  0
  -30.7777  -13.4427  148.4410 C   0  0  0  0  0  0  0  0  0  0  0  0
  -30.4892  -12.6982  147.2898 C   0  0  0  0  0  0  0  0  0  0  0  0
  -29.2413  -12.7467  146.8987 C   0  0  0  0  0  0  0  0  0  0  0  0
  -28.4299  -13.8692  146.9877 C   0  0  0  0  0  0  0  0  0  0  0  0
  3  4  1  0
 10 11  1  0
  2 12  1  0
 11 12  1  0
  1 15  1  0
  6 16  1  0
  9 17  1  0
 17 18  1  0
 18 19  1  0
  4  5  2  0
  5  6  1  0
  6 13  2  0
 13 14  1  0
 14 10  2  0
 10  4  1  0
  1  2  2  0
  2  3  1  0
  3  9  2  0
  9  8  1  0
  8  7  2  0
  7  1  1  0
 19 20  2  0
 20 21  1  0
 21 22  2  0
 22 23  1  0
 23 24  2  0
 24 19  1  0
M  END

$$$$
No_1591-/dssg/home/sw_qyf/PocketFlow/Model-Generation-Results/5HT2A_7WC7_rec_A_10.pdb/2024-01-01-03-54-21/
     RDKit          3D

 35 39  0  0  0  0  0  0  0  0999 V2000
  -24.1553  -17.8465  145.7021 C   0  0  0  0  0  0  0  0  0  0  0  0
  -24.2856  -16.6364  145.3494 C   0  0  0  0  0  0  0  0  0  0  0  0
  -25.0033  -15.6772  146.0737 C   0  0  0  0  0  0  0  0  0  0  0  0
  -25.6964  -16.1810  147.2049 C   0  0  0  0  0  0  0  0  0  0  0  0
  -24.8143  -18.3454  146.8324 C   0  0  0  0  0  0  0  0  0  0  0  0
  -25.5292  -17.4614  147.6373 C   0  0  0  0  0  0  0  0  0  0  0  0
  -23.7231  -15.8489  144.2501 N   0  0  0  0  0  0  0  0  0  0  0  0
  -24.2092  -14.5828  144.3252 C   0  0  0  0  0  0  0  0  0  0  0  0
  -24.9928  -14.4883  145.4585 N   0  0  0  0  0  0  0  0  0  0  0  0
  -25.6289  -13.2419  145.9888 C   0  0  0  0  0  0  0  0  0  0  0  0
  -26.2018  -12.4577  145.0419 C   0  0  0  0  0  0  0  0  0  0  0  0
  -26.4533  -11.4108  145.2471 C   0  0  0  0  0  0  0  0  0  0  0  0
  -27.0775  -10.4219  144.3658 C   0  0  0  0  0  0  0  0  0  0  0  0
  -27.6686  -10.8800  143.2403 C   0  0  0  0  0  0  0  0  0  0  0  0
  -27.4641  -12.2807  143.0443 C   0  0  0  0  0  0  0  0  0  0  0  0
  -26.8156  -13.1116  143.9255 C   0  0  0  0  0  0  0  0  0  0  0  0
  -28.4435  -10.0483  142.3755 C   0  0  0  0  0  0  0  0  0  0  0  0
  -28.2812  -10.0392  141.0243 C   0  0  0  0  0  0  0  0  0  0  0  0
  -28.8745   -9.0377  140.2346 C   0  0  0  0  0  0  0  0  0  0  0  0
  -29.9153   -8.1864  140.7746 C   0  0  0  0  0  0  0  0  0  0  0  0
  -30.2081   -8.3370  142.1663 C   0  0  0  0  0  0  0  0  0  0  0  0
  -29.5185   -9.2983  142.9464 C   0  0  0  0  0  0  0  0  0  0  0  0
  -28.5485   -8.8641  138.8443 C   0  0  0  0  0  0  0  0  0  0  0  0
  -28.6285   -7.5550  138.2965 C   0  0  0  0  0  0  0  0  0  0  0  0
  -31.2678   -7.5208  142.8488 C   0  0  0  0  0  0  0  0  0  0  0  0
  -28.1437   -7.5435  136.9917 N   0  0  0  0  0  0  0  0  0  0  0  0
  -32.2392   -8.1086  143.3189 O   0  0  0  0  0  0  0  0  0  0  0  0
  -25.0133  -12.8725  147.0664 O   0  0  0  0  0  0  0  0  0  0  0  0
  -31.0228   -6.2662  143.0292 O   0  0  0  0  0  0  0  0  0  0  0  0
  -28.1103   -9.9381  138.1881 C   0  0  0  0  0  0  0  0  0  0  0  0
  -27.8132  -11.1188  138.8404 C   0  0  0  0  0  0  0  0  0  0  0  0
  -27.8987  -11.2098  140.3132 C   0  0  0  0  0  0  0  0  0  0  0  0
  -27.2791  -12.3176  138.1822 C   0  0  0  0  0  0  0  0  0  0  0  0
  -26.1894  -12.7663  138.5498 O   0  0  0  0  0  0  0  0  0  0  0  0
  -27.6527  -12.3329  136.9923 O   0  0  0  0  0  0  0  0  0  0  0  0
  2  7  1  0
  7  8  1  0
  3  9  1  0
  8  9  1  0
  9 10  1  0
 10 11  1  0
 14 17  1  0
 23 24  1  0
 21 25  1  0
 24 26  1  0
 25 27  1  0
 10 28  2  0
 25 29  2  0
 31 33  1  0
 33 34  1  0
 33 35  2  0
 17 18  2  0
 19 20  2  0
 20 21  1  0
 21 22  2  0
 22 17  1  0
 11 12  2  0
 12 13  1  0
 13 14  2  0
 14 15  1  0
 15 16  2  0
 16 11  1  0
  1  2  2  0
  2  3  1  0
  3  4  2  0
  4  6  1  0
  6  5  2  0
  5  1  1  0
 18 19  1  0
 19 23  1  0
 23 30  2  0
 30 31  1  0
 31 32  2  0
 32 18  1  0
M  END

$$$$
No_1592-/dssg/home/sw_qyf/PocketFlow/Model-Generation-Results/5HT2A_7WC7_rec_A_10.pdb/2024-01-01-03-54-21/
     RDKit          3D

 13 14  0  0  0  0  0  0  0  0999 V2000
  -24.1553  -17.8465  145.7021 C   0  0  0  0  0  0  0  0  0  0  0  0
  -24.2856  -16.6364  145.3494 C   0  0  0  0  0  0  0  0  0  0  0  0
  -24.7211  -15.5955  146.2115 C   0  0  0  0  0  0  0  0  0  0  0  0
  -24.8539  -14.2010  145.8739 C   0  0  0  0  0  0  0  0  0  0  0  0
  -24.1440  -13.8321  144.7074 C   0  0  0  0  0  0  0  0  0  0  0  0
  -23.4275  -14.8130  143.9942 C   0  0  0  0  0  0  0  0  0  0  0  0
  -23.5366  -16.0900  144.3641 N   0  0  0  0  0  0  0  0  0  0  0  0
  -25.0287  -18.4322  146.6889 C   0  0  0  0  0  0  0  0  0  0  0  0
  -25.6349  -17.5048  147.5882 C   0  0  0  0  0  0  0  0  0  0  0  0
  -25.7351  -16.1243  147.2914 C   0  0  0  0  0  0  0  0  0  0  0  0
  -23.8920  -12.5055  144.5178 O   0  0  0  0  0  0  0  0  0  0  0  0
  -22.8207  -12.0519  145.3846 C   0  0  0  0  0  0  0  0  0  0  0  0
  -25.2941  -13.3653  146.7322 F   0  0  0  0  0  0  0  0  0  0  0  0
  3  4  1  0
  4  5  1  0
  5  6  1  0
  2  7  1  0
  6  7  1  0
  5 11  1  0
 11 12  1  0
  4 13  1  0
  1  2  2  0
  2  3  1  0
  3 10  2  0
 10  9  1  0
  9  8  2  0
  8  1  1  0
M  END

$$$$
No_1593-/dssg/home/sw_qyf/PocketFlow/Model-Generation-Results/5HT2A_7WC7_rec_A_10.pdb/2024-01-01-03-54-21/
     RDKit          3D

 12 13  0  0  0  0  0  0  0  0999 V2000
  -23.8998  -17.8495  145.5131 N   0  0  0  0  0  0  0  0  0  0  0  0
  -24.2949  -16.6890  145.5199 C   0  0  0  0  0  0  0  0  0  0  0  0
  -24.1189  -15.7572  144.5004 C   0  0  0  0  0  0  0  0  0  0  0  0
  -24.2084  -14.3566  144.8833 C   0  0  0  0  0  0  0  0  0  0  0  0
  -23.4920  -13.3717  144.1640 C   0  0  0  0  0  0  0  0  0  0  0  0
  -24.2049  -18.7542  146.5384 C   0  0  0  0  0  0  0  0  0  0  0  0
  -24.7414  -18.2148  147.5806 N   0  0  0  0  0  0  0  0  0  0  0  0
  -24.9167  -16.4821  146.8964 C   0  0  0  0  0  0  0  0  0  0  0  0
  -23.3815  -12.0911  144.7788 C   0  0  0  0  0  0  0  0  0  0  0  0
  -24.2584  -11.7335  145.9081 C   0  0  0  0  0  0  0  0  0  0  0  0
  -25.0743  -12.7053  146.5011 C   0  0  0  0  0  0  0  0  0  0  0  0
  -25.0031  -13.9724  146.0474 C   0  0  0  0  0  0  0  0  0  0  0  0
  1  2  1  0
  2  3  1  0
  3  4  1  0
  1  6  2  0
  6  7  1  0
  2  8  1  0
  7  8  2  0
  4  5  2  0
  5  9  1  0
  9 10  2  0
 10 11  1  0
 11 12  2  0
 12  4  1  0
M  END

$$$$
No_1594-/dssg/home/sw_qyf/PocketFlow/Model-Generation-Results/5HT2A_7WC7_rec_A_10.pdb/2024-01-01-03-54-21/
     RDKit          3D

  6  6  0  0  0  0  0  0  0  0999 V2000
  -24.1553  -17.8465  145.7021 C   0  0  0  0  0  0  0  0  0  0  0  0
  -24.2856  -16.6364  145.3494 C   0  0  0  0  0  0  0  0  0  0  0  0
  -24.5733  -15.7651  145.9979 C   0  0  0  0  0  0  0  0  0  0  0  0
  -25.0273  -15.9886  147.3700 C   0  0  0  0  0  0  0  0  0  0  0  0
  -24.4993  -18.2276  147.0208 C   0  0  0  0  0  0  0  0  0  0  0  0
  -24.9010  -17.2232  147.9329 C   0  0  0  0  0  0  0  0  0  0  0  0
  1  2  2  0
  2  3  1  0
  3  4  2  0
  4  6  1  0
  6  5  2  0
  5  1  1  0
M  END

$$$$
No_1595-/dssg/home/sw_qyf/PocketFlow/Model-Generation-Results/5HT2A_7WC7_rec_A_10.pdb/2024-01-01-03-54-21/
     RDKit          3D

 35 38  0  0  0  0  0  0  0  0999 V2000
  -24.1553  -17.8465  145.7021 C   0  0  0  0  0  0  0  0  0  0  0  0
  -24.2856  -16.6364  145.3494 C   0  0  0  0  0  0  0  0  0  0  0  0
  -23.7824  -15.9602  144.3554 C   0  0  0  0  0  0  0  0  0  0  0  0
  -23.9871  -14.5276  144.1537 C   0  0  0  0  0  0  0  0  0  0  0  0
  -24.7876  -13.8357  145.1351 C   0  0  0  0  0  0  0  0  0  0  0  0
  -25.3945  -14.5459  146.1755 C   0  0  0  0  0  0  0  0  0  0  0  0
  -25.0741  -15.8908  146.3327 C   0  0  0  0  0  0  0  0  0  0  0  0
  -23.4600  -18.3671  146.6957 C   0  0  0  0  0  0  0  0  0  0  0  0
  -23.4812  -17.4613  147.9491 C   0  0  0  0  0  0  0  0  0  0  0  0
  -24.3747  -16.2552  147.8342 C   0  0  0  0  0  0  0  0  0  0  0  0
  -25.1093  -12.4192  144.8955 C   0  0  0  0  0  0  0  0  0  0  0  0
  -25.1642  -11.6356  144.0260 F   0  0  0  0  0  0  0  0  0  0  0  0
  -26.1339  -12.0284  145.9998 N   0  0  0  0  0  0  0  0  0  0  0  0
  -27.3167  -11.4542  145.7216 C   0  0  0  0  0  0  0  0  0  0  0  0
  -27.4993  -10.5660  144.7524 C   0  0  0  0  0  0  0  0  0  0  0  0
  -28.8978  -10.1564  144.5128 C   0  0  0  0  0  0  0  0  0  0  0  0
  -29.2995   -9.2893  143.4855 C   0  0  0  0  0  0  0  0  0  0  0  0
  -29.9568   -9.2862  142.7159 C   0  0  0  0  0  0  0  0  0  0  0  0
  -30.2267   -8.2175  141.6768 C   0  0  0  0  0  0  0  0  0  0  0  0
  -30.3569   -8.2929  140.4400 C   0  0  0  0  0  0  0  0  0  0  0  0
  -28.4622  -11.7502  146.5116 C   0  0  0  0  0  0  0  0  0  0  0  0
  -29.6961  -11.4227  146.4144 C   0  0  0  0  0  0  0  0  0  0  0  0
  -29.9227  -10.6124  145.3708 C   0  0  0  0  0  0  0  0  0  0  0  0
  -29.3001   -7.7808  139.5560 C   0  0  0  0  0  0  0  0  0  0  0  0
  -28.7690   -8.4880  138.4990 C   0  0  0  0  0  0  0  0  0  0  0  0
  -28.1812   -9.7445  138.8239 C   0  0  0  0  0  0  0  0  0  0  0  0
  -28.3648  -10.9931  138.3546 C   0  0  0  0  0  0  0  0  0  0  0  0
  -27.5355  -12.0924  138.7917 C   0  0  0  0  0  0  0  0  0  0  0  0
  -26.4881  -11.8808  139.7451 C   0  0  0  0  0  0  0  0  0  0  0  0
  -26.3079  -10.6282  140.2424 C   0  0  0  0  0  0  0  0  0  0  0  0
  -27.0598   -9.5544  139.8850 C   0  0  0  0  0  0  0  0  0  0  0  0
  -30.7282  -10.3272  142.3423 O   0  0  0  0  0  0  0  0  0  0  0  0
  -30.6531  -11.8482  147.2354 O   0  0  0  0  0  0  0  0  0  0  0  0
  -30.2224  -12.4118  148.5193 C   0  0  0  0  0  0  0  0  0  0  0  0
  -29.7385   -8.7767  137.4139 C   0  0  0  0  0  0  0  0  0  0  0  0
  5 11  1  0
 11 12  1  0
 11 13  1  0
 13 14  1  0
 17 18  1  0
 18 19  1  0
 19 20  2  3
 20 24  1  0
 24 25  1  0
 25 26  1  0
 18 32  1  0
 22 33  1  0
 33 34  1  0
 25 35  1  0
 17 16  1  0
 26 27  2  0
 27 28  1  0
 28 29  2  0
 29 30  1  0
 30 31  2  0
 31 26  1  0
  2  3  1  0
  3  4  2  0
  4  5  1  0
  5  6  2  0
  6  7  1  0
 14 15  2  0
 15 16  1  0
 16 23  2  0
 23 22  1  0
 22 21  2  0
 21 14  1  0
  1  2  2  0
  2  7  1  0
  7 10  2  0
 10  9  1  0
  9  8  2  0
  8  1  1  0
M  END

$$$$
No_1596-/dssg/home/sw_qyf/PocketFlow/Model-Generation-Results/5HT2A_7WC7_rec_A_10.pdb/2024-01-01-03-54-21/
     RDKit          3D

 35 38  0  0  0  0  0  0  0  0999 V2000
  -23.1746  -16.6014  144.8668 C   0  0  0  0  0  0  0  0  0  0  0  0
  -24.0189  -16.0564  145.8445 C   0  0  0  0  0  0  0  0  0  0  0  0
  -24.4850  -14.7380  145.6359 C   0  0  0  0  0  0  0  0  0  0  0  0
  -25.2717  -14.0560  146.5949 C   0  0  0  0  0  0  0  0  0  0  0  0
  -25.8717  -14.9514  147.6177 C   0  0  0  0  0  0  0  0  0  0  0  0
  -24.5053  -16.8755  146.9172 C   0  0  0  0  0  0  0  0  0  0  0  0
  -25.4372  -16.2243  147.8316 C   0  0  0  0  0  0  0  0  0  0  0  0
  -25.7042  -12.6845  146.4671 C   0  0  0  0  0  0  0  0  0  0  0  0
  -26.2770  -12.3098  145.1885 C   0  0  0  0  0  0  0  0  0  0  0  0
  -26.6509  -11.0165  145.1478 C   0  0  0  0  0  0  0  0  0  0  0  0
  -27.3874  -10.5359  144.0103 C   0  0  0  0  0  0  0  0  0  0  0  0
  -28.3277   -9.4253  144.0804 C   0  0  0  0  0  0  0  0  0  0  0  0
  -29.4887   -9.4169  143.2962 C   0  0  0  0  0  0  0  0  0  0  0  0
  -30.6696   -9.0284  143.8358 C   0  0  0  0  0  0  0  0  0  0  0  0
  -31.5021   -8.2299  142.9196 C   0  0  0  0  0  0  0  0  0  0  0  0
  -31.1270   -8.2229  141.6648 O   0  0  0  0  0  0  0  0  0  0  0  0
  -23.9775  -13.9656  144.5629 C   0  0  0  0  0  0  0  0  0  0  0  0
  -24.0745  -18.2139  147.0688 C   0  0  0  0  0  0  0  0  0  0  0  0
  -23.6142  -18.9875  146.1419 N   0  0  0  0  0  0  0  0  0  0  0  0
  -29.4299   -9.9559  141.9713 C   0  0  0  0  0  0  0  0  0  0  0  0
  -30.0109   -8.9273  141.1027 C   0  0  0  0  0  0  0  0  0  0  0  0
  -23.1653  -18.2671  144.9554 C   0  0  0  0  0  0  0  0  0  0  0  0
  -28.9620  -11.0906  141.4871 C   0  0  0  0  0  0  0  0  0  0  0  0
  -27.7257  -11.0344  140.6969 C   0  0  0  0  0  0  0  0  0  0  0  0
  -27.3460  -12.2082  139.9612 C   0  0  0  0  0  0  0  0  0  0  0  0
  -27.3546  -13.2359  140.4409 F   0  0  0  0  0  0  0  0  0  0  0  0
  -26.0423  -11.9885  139.3893 F   0  0  0  0  0  0  0  0  0  0  0  0
  -28.1545  -12.2322  138.8029 F   0  0  0  0  0  0  0  0  0  0  0  0
  -23.0282  -14.0282  144.2016 O   0  0  0  0  0  0  0  0  0  0  0  0
  -24.7344  -12.9078  144.2565 O   0  0  0  0  0  0  0  0  0  0  0  0
  -27.3115  -13.2313  144.5883 C   0  0  0  0  0  0  0  0  0  0  0  0
  -31.5360  -10.1256  144.2984 O   0  0  0  0  0  0  0  0  0  0  0  0
  -25.8791  -16.9020  148.8700 F   0  0  0  0  0  0  0  0  0  0  0  0
  -31.0194  -10.5974  145.4873 C   0  0  0  0  0  0  0  0  0  0  0  0
  -30.2505  -10.4968  146.3059 C   0  0  0  0  0  0  0  0  0  0  0  0
  1  2  1  0
  4  8  1  0
  8  9  1  0
  9 10  1  0
 10 11  2  3
 11 12  1  0
 12 13  1  0
 13 14  1  0
 14 15  1  0
 15 16  1  0
  3 17  1  0
  6 18  1  0
 18 19  1  0
 13 20  1  0
 16 21  1  0
 20 21  1  0
  1 22  1  0
 19 22  1  0
 20 23  1  0
 23 24  1  0
 24 25  1  0
 25 26  1  0
 25 27  1  0
 25 28  1  0
 17 29  2  0
  9 30  1  0
 17 30  1  0
  9 31  1  0
 14 32  1  0
  7 33  1  0
 32 34  1  0
 34 35  3  0
  2  3  2  0
  3  4  1  0
  4  5  2  0
  5  7  1  0
  7  6  2  0
  6  2  1  0
M  END

$$$$
No_1597-/dssg/home/sw_qyf/PocketFlow/Model-Generation-Results/5HT2A_7WC7_rec_A_10.pdb/2024-01-01-03-54-21/
     RDKit          3D

 30 32  0  0  0  0  0  0  0  0999 V2000
  -24.1553  -17.8465  145.7021 C   0  0  0  0  0  0  0  0  0  0  0  0
  -24.6364  -17.2931  146.7091 C   0  0  0  0  0  0  0  0  0  0  0  0
  -24.0780  -17.2921  147.9389 C   0  0  0  0  0  0  0  0  0  0  0  0
  -24.6869  -16.7004  149.1440 C   0  0  0  0  0  0  0  0  0  0  0  0
  -26.0385  -16.2385  148.9552 C   0  0  0  0  0  0  0  0  0  0  0  0
  -26.6430  -16.2999  147.7413 C   0  0  0  0  0  0  0  0  0  0  0  0
  -27.9940  -15.9043  147.4947 C   0  0  0  0  0  0  0  0  0  0  0  0
  -26.0067  -16.8798  146.6574 C   0  0  0  0  0  0  0  0  0  0  0  0
  -28.3899  -14.5166  147.5469 C   0  0  0  0  0  0  0  0  0  0  0  0
  -29.7343  -14.0714  147.5697 C   0  0  0  0  0  0  0  0  0  0  0  0
  -23.9131  -19.0721  145.6005 F   0  0  0  0  0  0  0  0  0  0  0  0
  -30.0572  -12.7598  147.9149 C   0  0  0  0  0  0  0  0  0  0  0  0
  -31.3605  -12.2912  147.9562 C   0  0  0  0  0  0  0  0  0  0  0  0
  -24.7774  -17.4242  144.4977 F   0  0  0  0  0  0  0  0  0  0  0  0
  -32.2503  -13.0228  148.8063 C   0  0  0  0  0  0  0  0  0  0  0  0
  -32.3020  -12.6425  150.1989 C   0  0  0  0  0  0  0  0  0  0  0  0
  -32.3961  -13.6331  151.1605 C   0  0  0  0  0  0  0  0  0  0  0  0
  -33.0219  -13.4251  152.3624 C   0  0  0  0  0  0  0  0  0  0  0  0
  -33.1003  -12.0344  152.8631 C   0  0  0  0  0  0  0  0  0  0  0  0
  -32.8253  -10.9590  151.9708 C   0  0  0  0  0  0  0  0  0  0  0  0
  -32.5821  -11.2625  150.6415 C   0  0  0  0  0  0  0  0  0  0  0  0
  -22.7935  -17.6535  148.1439 O   0  0  0  0  0  0  0  0  0  0  0  0
  -22.8025  -17.2633  145.4597 F   0  0  0  0  0  0  0  0  0  0  0  0
  -28.9490  -11.7765  147.7105 C   0  0  0  0  0  0  0  0  0  0  0  0
  -28.1456  -11.9790  146.6173 C   0  0  0  0  0  0  0  0  0  0  0  0
  -27.4272  -11.0359  145.9082 C   0  0  0  0  0  0  0  0  0  0  0  0
  -26.4957  -11.3013  144.8929 C   0  0  0  0  0  0  0  0  0  0  0  0
  -27.5131  -13.5580  146.8231 C   0  0  0  0  0  0  0  0  0  0  0  0
  -26.1503  -10.3282  144.1458 O   0  0  0  0  0  0  0  0  0  0  0  0
  -25.6848  -12.2866  145.0012 O   0  0  0  0  0  0  0  0  0  0  0  0
  1  2  1  0
  6  7  1  0
  1 11  1  0
 12 13  1  0
  1 14  1  0
 13 15  1  0
 15 16  1  0
  3 22  1  0
  1 23  1  0
 26 27  1  0
 27 29  1  0
 27 30  2  0
 26 25  1  0
  7  9  1  0
  9 10  2  0
 10 12  1  0
 12 24  2  0
 24 25  1  0
 25 28  2  0
 28  9  1  0
  2  3  2  0
  3  4  1  0
  4  5  2  0
  5  6  1  0
  6  8  2  0
  8  2  1  0
 16 17  2  0
 17 18  1  0
 18 19  2  0
 19 20  1  0
 20 21  2  0
 21 16  1  0
M  END

$$$$
No_1598-/dssg/home/sw_qyf/PocketFlow/Model-Generation-Results/5HT2A_7WC7_rec_A_10.pdb/2024-01-01-03-54-21/
     RDKit          3D

 23 26  0  0  0  0  0  0  0  0999 V2000
  -24.1553  -17.8465  145.7021 C   0  0  0  0  0  0  0  0  0  0  0  0
  -24.2855  -16.6364  145.3494 C   0  0  0  0  0  0  0  0  0  0  0  0
  -25.0033  -15.6772  146.0737 C   0  0  0  0  0  0  0  0  0  0  0  0
  -25.7223  -16.0755  147.0214 C   0  0  0  0  0  0  0  0  0  0  0  0
  -24.8891  -18.3427  146.7818 C   0  0  0  0  0  0  0  0  0  0  0  0
  -25.6059  -17.4168  147.5658 C   0  0  0  0  0  0  0  0  0  0  0  0
  -23.5635  -16.0962  144.2194 N   0  0  0  0  0  0  0  0  0  0  0  0
  -25.1009  -14.2011  145.7945 C   0  0  0  0  0  0  0  0  0  0  0  0
  -24.4660  -13.6688  144.7365 C   0  0  0  0  0  0  0  0  0  0  0  0
  -24.3539  -12.3031  144.4395 C   0  0  0  0  0  0  0  0  0  0  0  0
  -25.1186  -11.5553  145.2068 C   0  0  0  0  0  0  0  0  0  0  0  0
  -25.8911  -12.0148  146.3844 C   0  0  0  0  0  0  0  0  0  0  0  0
  -25.8088  -13.3267  146.6511 C   0  0  0  0  0  0  0  0  0  0  0  0
  -23.5565  -14.6621  144.0390 C   0  0  0  0  0  0  0  0  0  0  0  0
  -23.5037  -18.7730  144.9804 O   0  0  0  0  0  0  0  0  0  0  0  0
  -22.5695  -14.2044  143.3842 O   0  0  0  0  0  0  0  0  0  0  0  0
  -25.2129  -10.1901  144.8818 O   0  0  0  0  0  0  0  0  0  0  0  0
  -26.4678   -9.8510  144.2121 C   0  0  0  0  0  0  0  0  0  0  0  0
  -27.3792   -9.2115  145.0972 C   0  0  0  0  0  0  0  0  0  0  0  0
  -28.6406   -9.0036  144.5107 C   0  0  0  0  0  0  0  0  0  0  0  0
  -29.0169   -9.3734  143.2198 C   0  0  0  0  0  0  0  0  0  0  0  0
  -28.0239  -10.1101  142.4859 C   0  0  0  0  0  0  0  0  0  0  0  0
  -26.8368  -10.3974  143.1120 C   0  0  0  0  0  0  0  0  0  0  0  0
  2  7  1  0
  3  8  1  0
  7 14  1  0
  9 14  1  0
  1 15  1  0
 14 16  2  0
 11 17  1  0
 17 18  1  0
 18 19  2  0
 19 20  1  0
 20 21  2  0
 21 22  1  0
 22 23  2  0
 23 18  1  0
  1  2  2  0
  2  3  1  0
  3  4  2  0
  4  6  1  0
  6  5  2  0
  5  1  1  0
  8 13  2  0
 13 12  1  0
 12 11  2  0
 11 10  1  0
 10  9  2  0
  9  8  1  0
M  END

$$$$
No_1599-/dssg/home/sw_qyf/PocketFlow/Model-Generation-Results/5HT2A_7WC7_rec_A_10.pdb/2024-01-01-03-54-21/
     RDKit          3D

 27 30  0  0  0  0  0  0  0  0999 V2000
  -24.1553  -17.8465  145.7021 C   0  0  0  0  0  0  0  0  0  0  0  0
  -24.2856  -16.6364  145.3494 C   0  0  0  0  0  0  0  0  0  0  0  0
  -25.0033  -15.6772  146.0737 C   0  0  0  0  0  0  0  0  0  0  0  0
  -25.1197  -14.2835  145.7299 C   0  0  0  0  0  0  0  0  0  0  0  0
  -24.2707  -13.8793  144.6500 C   0  0  0  0  0  0  0  0  0  0  0  0
  -24.8686  -18.3355  146.8179 C   0  0  0  0  0  0  0  0  0  0  0  0
  -23.4213  -14.7686  144.0334 C   0  0  0  0  0  0  0  0  0  0  0  0
  -23.3932  -16.0844  144.3175 C   0  0  0  0  0  0  0  0  0  0  0  0
  -25.6441  -17.4724  147.5881 C   0  0  0  0  0  0  0  0  0  0  0  0
  -25.7767  -16.1272  147.2748 C   0  0  0  0  0  0  0  0  0  0  0  0
  -25.9337  -13.3425  146.4506 C   0  0  0  0  0  0  0  0  0  0  0  0
  -26.4510  -12.1809  145.7227 C   0  0  0  0  0  0  0  0  0  0  0  0
  -27.8457  -12.0199  145.6572 C   0  0  0  0  0  0  0  0  0  0  0  0
  -28.3600  -10.9350  144.9345 C   0  0  0  0  0  0  0  0  0  0  0  0
  -27.5103   -9.9865  144.3259 C   0  0  0  0  0  0  0  0  0  0  0  0
  -26.0768  -10.2307  144.5912 C   0  0  0  0  0  0  0  0  0  0  0  0
  -25.5850  -11.2595  145.2259 C   0  0  0  0  0  0  0  0  0  0  0  0
  -29.8190  -10.7269  144.8485 C   0  0  0  0  0  0  0  0  0  0  0  0
  -30.3781  -10.4299  143.8052 O   0  0  0  0  0  0  0  0  0  0  0  0
  -30.4569  -11.0572  146.0559 O   0  0  0  0  0  0  0  0  0  0  0  0
  -30.1108   -9.2923  143.1255 C   0  0  0  0  0  0  0  0  0  0  0  0
  -29.4210   -9.3837  141.9768 C   0  0  0  0  0  0  0  0  0  0  0  0
  -29.3997   -8.2509  141.0958 C   0  0  0  0  0  0  0  0  0  0  0  0
  -29.0501   -8.2872  139.7546 C   0  0  0  0  0  0  0  0  0  0  0  0
  -28.2215   -9.3497  139.3608 C   0  0  0  0  0  0  0  0  0  0  0  0
  -27.9637  -10.4525  140.2612 C   0  0  0  0  0  0  0  0  0  0  0  0
  -28.6127  -10.4821  141.5050 C   0  0  0  0  0  0  0  0  0  0  0  0
  4 11  1  0
 11 12  1  0
 14 18  1  0
 18 19  1  0
 18 20  2  0
 19 21  1  0
 21 22  1  0
 12 13  2  0
 13 14  1  0
 14 15  2  0
 15 16  1  0
 16 17  2  0
 17 12  1  0
  1  2  2  0
  3 10  2  0
 10  9  1  0
  9  6  2  0
  6  1  1  0
 22 23  2  0
 23 24  1  0
 24 25  2  0
 25 26  1  0
 26 27  2  0
 27 22  1  0
  2  3  1  0
  3  4  1  0
  4  5  2  0
  5  7  1  0
  7  8  2  0
  8  2  1  0
M  END

$$$$
No_1600-/dssg/home/sw_qyf/PocketFlow/Model-Generation-Results/5HT2A_7WC7_rec_A_10.pdb/2024-01-01-03-54-21/
     RDKit          3D

 21 23  0  0  0  0  0  0  0  0999 V2000
  -23.1746  -16.6014  144.8668 C   0  0  0  0  0  0  0  0  0  0  0  0
  -23.8963  -15.5346  144.7885 C   0  0  0  0  0  0  0  0  0  0  0  0
  -25.0304  -15.2549  144.5358 C   0  0  0  0  0  0  0  0  0  0  0  0
  -25.6045  -13.9524  144.2294 C   0  0  0  0  0  0  0  0  0  0  0  0
  -24.8624  -12.8904  144.6738 C   0  0  0  0  0  0  0  0  0  0  0  0
  -23.5278  -13.1645  145.1476 C   0  0  0  0  0  0  0  0  0  0  0  0
  -23.0148  -14.3796  145.1899 C   0  0  0  0  0  0  0  0  0  0  0  0
  -23.7422  -17.6667  145.8444 C   0  0  0  0  0  0  0  0  0  0  0  0
  -23.7968  -18.9192  145.7006 C   0  0  0  0  0  0  0  0  0  0  0  0
  -24.6266  -19.6273  146.6960 C   0  0  0  0  0  0  0  0  0  0  0  0
  -22.7257  -11.8774  145.4331 C   0  0  0  0  0  0  0  0  0  0  0  0
  -25.1358  -18.7875  147.5994 N   0  0  0  0  0  0  0  0  0  0  0  0
  -24.6200  -17.4847  147.2059 C   0  0  0  0  0  0  0  0  0  0  0  0
  -27.0179  -13.7644  143.8441 C   0  0  0  0  0  0  0  0  0  0  0  0
  -27.2566  -12.3957  143.3655 C   0  0  0  0  0  0  0  0  0  0  0  0
  -27.8441  -11.5322  144.2713 C   0  0  0  0  0  0  0  0  0  0  0  0
  -28.3061  -11.6786  145.6178 C   0  0  0  0  0  0  0  0  0  0  0  0
  -29.5299  -11.0443  146.0578 C   0  0  0  0  0  0  0  0  0  0  0  0
  -30.1031   -9.9989  145.2680 C   0  0  0  0  0  0  0  0  0  0  0  0
  -29.6570   -9.7383  144.0170 C   0  0  0  0  0  0  0  0  0  0  0  0
  -28.6468  -10.5990  143.4761 C   0  0  0  0  0  0  0  0  0  0  0  0
  1  2  1  0
  1  8  1  0
  8  9  1  0
  9 10  2  0
  6 11  1  0
 10 12  1  0
  8 13  1  0
 12 13  2  0
  4 14  1  0
 14 15  1  0
 15 16  1  0
  2  3  2  0
  3  4  1  0
  4  5  2  0
  5  6  1  0
  6  7  2  0
  7  2  1  0
 16 17  2  0
 17 18  1  0
 18 19  2  0
 19 20  1  0
 20 21  2  0
 21 16  1  0
M  END

$$$$
No_1601-/dssg/home/sw_qyf/PocketFlow/Model-Generation-Results/5HT2A_7WC7_rec_A_10.pdb/2024-01-01-03-54-21/
     RDKit          3D

 22 23  0  0  0  0  0  0  0  0999 V2000
  -23.8042  -18.1535  145.4053 O   0  0  0  0  0  0  0  0  0  0  0  0
  -24.1154  -17.4458  146.3749 C   0  0  0  0  0  0  0  0  0  0  0  0
  -24.0359  -17.8147  147.6916 C   0  0  0  0  0  0  0  0  0  0  0  0
  -24.7788  -16.1362  146.1131 C   0  0  0  0  0  0  0  0  0  0  0  0
  -25.9545  -15.8092  146.7177 C   0  0  0  0  0  0  0  0  0  0  0  0
  -23.9893  -17.0778  148.6155 C   0  0  0  0  0  0  0  0  0  0  0  0
  -26.0626  -15.6453  148.1873 C   0  0  0  0  0  0  0  0  0  0  0  0
  -25.2996  -16.3343  149.1243 C   0  0  0  0  0  0  0  0  0  0  0  0
  -26.6209  -14.6686  145.9626 C   0  0  0  0  0  0  0  0  0  0  0  0
  -27.7908  -14.1900  146.3955 C   0  0  0  0  0  0  0  0  0  0  0  0
  -28.2993  -12.9228  146.0231 C   0  0  0  0  0  0  0  0  0  0  0  0
  -27.8287  -12.2483  144.8791 C   0  0  0  0  0  0  0  0  0  0  0  0
  -26.7217  -12.9329  144.2813 C   0  0  0  0  0  0  0  0  0  0  0  0
  -26.0811  -13.9938  144.8392 C   0  0  0  0  0  0  0  0  0  0  0  0
  -29.6333  -12.2908  146.4825 C   0  0  0  0  0  0  0  0  0  0  0  0
  -30.0592  -11.2247  146.0093 O   0  0  0  0  0  0  0  0  0  0  0  0
  -30.2572  -12.9654  147.4179 O   0  0  0  0  0  0  0  0  0  0  0  0
  -22.9278  -16.9883  149.6286 C   0  0  0  0  0  0  0  0  0  0  0  0
  -21.8521  -16.9076  149.3351 O   0  0  0  0  0  0  0  0  0  0  0  0
  -23.2308  -16.9350  151.0217 N   0  0  0  0  0  0  0  0  0  0  0  0
  -24.7356  -14.6493  143.9724 Cl  0  0  0  0  0  0  0  0  0  0  0  0
  -28.3340  -11.2584  144.3206 F   0  0  0  0  0  0  0  0  0  0  0  0
  1  2  1  0
  2  3  2  0
  2  4  1  0
  4  5  1  0
  3  6  1  0
  5  7  1  0
  6  8  1  0
  7  8  1  0
  5  9  1  0
 11 15  1  0
 15 16  1  0
 15 17  2  0
  6 18  1  0
 18 19  2  0
 18 20  1  0
 14 21  1  0
 12 22  1  0
  9 10  2  0
 10 11  1  0
 11 12  2  0
 12 13  1  0
 13 14  2  0
 14  9  1  0
M  END

$$$$
No_1602-/dssg/home/sw_qyf/PocketFlow/Model-Generation-Results/5HT2A_7WC7_rec_A_10.pdb/2024-01-01-03-54-21/
     RDKit          3D

 33 35  0  0  0  0  0  0  0  0999 V2000
  -24.1553  -17.8465  145.7021 C   0  0  0  0  0  0  0  0  0  0  0  0
  -24.2856  -16.6364  145.3494 C   0  0  0  0  0  0  0  0  0  0  0  0
  -23.7824  -15.9602  144.3554 C   0  0  0  0  0  0  0  0  0  0  0  0
  -23.9871  -14.5276  144.1537 C   0  0  0  0  0  0  0  0  0  0  0  0
  -24.7876  -13.8357  145.1351 C   0  0  0  0  0  0  0  0  0  0  0  0
  -25.3945  -14.5459  146.1755 C   0  0  0  0  0  0  0  0  0  0  0  0
  -25.0741  -15.8909  146.3327 C   0  0  0  0  0  0  0  0  0  0  0  0
  -23.2608  -18.6718  145.7735 C   0  0  0  0  0  0  0  0  0  0  0  0
  -23.2488  -19.9810  146.2906 C   0  0  0  0  0  0  0  0  0  0  0  0
  -25.3966  -18.5967  146.1615 C   0  0  0  0  0  0  0  0  0  0  0  0
  -25.3869  -19.9725  146.5160 C   0  0  0  0  0  0  0  0  0  0  0  0
  -24.2464  -20.5586  146.5534 C   0  0  0  0  0  0  0  0  0  0  0  0
  -25.0035  -12.3875  144.9615 C   0  0  0  0  0  0  0  0  0  0  0  0
  -24.3451  -11.5905  145.9712 C   0  0  0  0  0  0  0  0  0  0  0  0
  -26.3757  -12.0910  144.8427 N   0  0  0  0  0  0  0  0  0  0  0  0
  -26.8472  -11.0041  144.1389 C   0  0  0  0  0  0  0  0  0  0  0  0
  -28.2806  -10.7560  144.0910 C   0  0  0  0  0  0  0  0  0  0  0  0
  -29.2001  -11.3960  144.8870 C   0  0  0  0  0  0  0  0  0  0  0  0
  -29.2246  -11.4586  145.9977 C   0  0  0  0  0  0  0  0  0  0  0  0
  -30.1985  -12.1216  146.9733 C   0  0  0  0  0  0  0  0  0  0  0  0
  -29.5590  -12.9298  148.0558 C   0  0  0  0  0  0  0  0  0  0  0  0
  -28.5931   -9.9722  142.8946 C   0  0  0  0  0  0  0  0  0  0  0  0
  -28.5582  -10.3644  141.5819 C   0  0  0  0  0  0  0  0  0  0  0  0
  -28.7596   -9.4713  140.5926 C   0  0  0  0  0  0  0  0  0  0  0  0
  -28.3902   -9.6848  139.2117 C   0  0  0  0  0  0  0  0  0  0  0  0
  -28.3139   -8.5033  138.3721 C   0  0  0  0  0  0  0  0  0  0  0  0
  -28.9228   -7.3741  138.9927 N   0  0  0  0  0  0  0  0  0  0  0  0
  -29.1491   -8.0278  140.6733 C   0  0  0  0  0  0  0  0  0  0  0  0
  -29.6666   -7.2557  141.6468 C   0  0  0  0  0  0  0  0  0  0  0  0
  -28.9309   -6.2396  142.3282 C   0  0  0  0  0  0  0  0  0  0  0  0
  -30.9584   -7.6836  142.1688 C   0  0  0  0  0  0  0  0  0  0  0  0
  -27.8166   -8.2686  137.3661 N   0  0  0  0  0  0  0  0  0  0  0  0
  -31.0342   -8.5777  143.3485 C   0  0  0  0  0  0  0  0  0  0  0  0
  1  2  1  0
  5 13  1  0
 13 14  1  0
 13 15  1  0
 15 16  1  0
 16 17  1  0
 17 18  1  0
 18 19  2  3
 19 20  1  0
 20 21  2  0
 17 22  1  0
 22 23  2  3
 23 24  1  0
 24 25  1  0
 25 26  2  0
 26 27  1  0
 24 28  1  0
 27 28  1  0
 28 29  1  0
 29 30  1  0
 29 31  1  0
 26 32  1  0
 31 33  1  0
  2  3  2  0
  3  4  1  0
  4  5  2  0
  5  6  1  0
  6  7  2  0
  7  2  1  0
  1  8  2  0
  8  9  1  0
  9 12  2  0
 12 11  1  0
 11 10  2  0
 10  1  1  0
M  END

$$$$
No_1603-/dssg/home/sw_qyf/PocketFlow/Model-Generation-Results/5HT2A_7WC7_rec_A_10.pdb/2024-01-01-03-54-21/
     RDKit          3D

 13 14  0  0  0  0  0  0  0  0999 V2000
  -24.1553  -17.8465  145.7021 C   0  0  0  0  0  0  0  0  0  0  0  0
  -24.2856  -16.6364  145.3494 C   0  0  0  0  0  0  0  0  0  0  0  0
  -24.5733  -15.7651  145.9979 C   0  0  0  0  0  0  0  0  0  0  0  0
  -25.0272  -15.9886  147.3700 C   0  0  0  0  0  0  0  0  0  0  0  0
  -24.4993  -18.2276  147.0208 C   0  0  0  0  0  0  0  0  0  0  0  0
  -24.9009  -17.2232  147.9329 C   0  0  0  0  0  0  0  0  0  0  0  0
  -24.7156  -14.2654  145.5569 C   0  0  0  0  0  0  0  0  0  0  0  0
  -25.6315  -13.4122  146.0508 C   0  0  0  0  0  0  0  0  0  0  0  0
  -25.6351  -12.0503  145.7253 C   0  0  0  0  0  0  0  0  0  0  0  0
  -24.5015  -11.4741  145.1145 C   0  0  0  0  0  0  0  0  0  0  0  0
  -23.4380  -12.3653  144.6949 C   0  0  0  0  0  0  0  0  0  0  0  0
  -23.5370  -13.7548  145.0383 C   0  0  0  0  0  0  0  0  0  0  0  0
  -26.5952  -11.1984  146.2116 O   0  0  0  0  0  0  0  0  0  0  0  0
  3  7  1  0
  9 13  1  0
  1  2  2  0
  2  3  1  0
  3  4  2  0
  4  6  1  0
  6  5  2  0
  5  1  1  0
  7  8  2  0
  8  9  1  0
  9 10  2  0
 10 11  1  0
 11 12  2  0
 12  7  1  0
M  END

$$$$
No_1604-/dssg/home/sw_qyf/PocketFlow/Model-Generation-Results/5HT2A_7WC7_rec_A_10.pdb/2024-01-01-03-54-21/
     RDKit          3D

 18 18  0  0  0  0  0  0  0  0999 V2000
  -24.1553  -17.8465  145.7021 C   0  0  0  0  0  0  0  0  0  0  0  0
  -24.6364  -17.2931  146.7091 C   0  0  0  0  0  0  0  0  0  0  0  0
  -24.0780  -17.2921  147.9389 C   0  0  0  0  0  0  0  0  0  0  0  0
  -24.6869  -16.7004  149.1440 C   0  0  0  0  0  0  0  0  0  0  0  0
  -26.0385  -16.2385  148.9552 C   0  0  0  0  0  0  0  0  0  0  0  0
  -26.6430  -16.2999  147.7413 C   0  0  0  0  0  0  0  0  0  0  0  0
  -27.9940  -15.9043  147.4947 C   0  0  0  0  0  0  0  0  0  0  0  0
  -26.0067  -16.8798  146.6573 C   0  0  0  0  0  0  0  0  0  0  0  0
  -29.1039  -16.1819  148.1625 C   0  0  0  0  0  0  0  0  0  0  0  0
  -28.2357  -14.9525  146.4601 C   0  0  0  0  0  0  0  0  0  0  0  0
  -23.4514  -18.9567  145.6188 N   0  0  0  0  0  0  0  0  0  0  0  0
  -23.8293  -16.9341  144.4977 C   0  0  0  0  0  0  0  0  0  0  0  0
  -28.1547  -13.6155  146.7169 C   0  0  0  0  0  0  0  0  0  0  0  0
  -27.5234  -12.5831  146.0509 C   0  0  0  0  0  0  0  0  0  0  0  0
  -26.1365  -12.5030  145.9564 C   0  0  0  0  0  0  0  0  0  0  0  0
  -25.2115  -13.3997  146.4882 C   0  0  0  0  0  0  0  0  0  0  0  0
  -23.8115  -13.1826  146.4079 C   0  0  0  0  0  0  0  0  0  0  0  0
  -23.3302  -12.3668  145.3903 C   0  0  0  0  0  0  0  0  0  0  0  0
  1  2  1  0
  6  7  1  0
  7  9  1  0
  7 10  1  0
  1 11  1  0
  1 12  1  0
 10 13  2  3
 13 14  1  0
 14 15  2  3
 15 16  1  0
 16 17  2  3
 17 18  1  0
  2  3  2  0
  3  4  1  0
  4  5  2  0
  5  6  1  0
  6  8  2  0
  8  2  1  0
M  END

$$$$
No_1605-/dssg/home/sw_qyf/PocketFlow/Model-Generation-Results/5HT2A_7WC7_rec_A_10.pdb/2024-01-01-03-54-21/
     RDKit          3D

 29 30  0  0  0  0  0  0  0  0999 V2000
  -24.1553  -17.8465  145.7021 C   0  0  0  0  0  0  0  0  0  0  0  0
  -24.6364  -17.2931  146.7091 C   0  0  0  0  0  0  0  0  0  0  0  0
  -24.0780  -17.2921  147.9389 C   0  0  0  0  0  0  0  0  0  0  0  0
  -24.6761  -16.7363  149.1478 C   0  0  0  0  0  0  0  0  0  0  0  0
  -25.9986  -16.2638  148.9932 C   0  0  0  0  0  0  0  0  0  0  0  0
  -26.6270  -16.3412  147.7728 C   0  0  0  0  0  0  0  0  0  0  0  0
  -25.9735  -16.9165  146.6819 C   0  0  0  0  0  0  0  0  0  0  0  0
  -23.7938  -16.8806  144.5756 C   0  0  0  0  0  0  0  0  0  0  0  0
  -24.2575  -15.7230  144.8824 O   0  0  0  0  0  0  0  0  0  0  0  0
  -23.7495  -14.5245  144.7247 C   0  0  0  0  0  0  0  0  0  0  0  0
  -24.5701  -13.3746  145.0770 C   0  0  0  0  0  0  0  0  0  0  0  0
  -23.8561  -12.2631  145.6164 C   0  0  0  0  0  0  0  0  0  0  0  0
  -28.0502  -15.8566  147.7190 C   0  0  0  0  0  0  0  0  0  0  0  0
  -29.0970  -16.2544  148.1872 C   0  0  0  0  0  0  0  0  0  0  0  0
  -28.1640  -14.5561  146.9452 C   0  0  0  0  0  0  0  0  0  0  0  0
  -29.3178  -13.8345  146.9837 C   0  0  0  0  0  0  0  0  0  0  0  0
  -30.3983  -14.2134  147.8681 C   0  0  0  0  0  0  0  0  0  0  0  0
  -30.2346  -15.4480  148.4914 C   0  0  0  0  0  0  0  0  0  0  0  0
  -29.3961  -12.5304  146.2402 C   0  0  0  0  0  0  0  0  0  0  0  0
  -28.8552  -11.6581  146.8952 F   0  0  0  0  0  0  0  0  0  0  0  0
  -30.7702  -12.2278  146.0835 F   0  0  0  0  0  0  0  0  0  0  0  0
  -28.8224  -12.5898  145.0805 F   0  0  0  0  0  0  0  0  0  0  0  0
  -24.4960  -11.6039  146.5495 N   0  0  0  0  0  0  0  0  0  0  0  0
  -23.7884  -19.1089  145.5529 O   0  0  0  0  0  0  0  0  0  0  0  0
  -22.6957  -14.2544  144.0778 O   0  0  0  0  0  0  0  0  0  0  0  0
  -25.1425  -12.3425  147.5766 C   0  0  0  0  0  0  0  0  0  0  0  0
  -22.7973  -17.6876  148.1500 O   0  0  0  0  0  0  0  0  0  0  0  0
  -24.1262  -16.7456  150.3066 F   0  0  0  0  0  0  0  0  0  0  0  0
  -22.8238  -11.8279  145.0653 O   0  0  0  0  0  0  0  0  0  0  0  0
  1  2  1  0
  1  8  1  0
  8  9  1  0
  9 10  1  0
 10 11  1  0
 11 12  1  0
  6 13  1  0
 16 19  1  0
 19 20  1  0
 19 21  1  0
 19 22  1  0
 12 23  1  0
  1 24  2  0
 10 25  2  0
 23 26  1  0
  3 27  1  0
  4 28  1  0
 12 29  2  0
  2  3  2  0
  3  4  1  0
  4  5  2  0
  5  6  1  0
  6  7  2  0
  7  2  1  0
 13 14  2  0
 14 18  1  0
 18 17  2  0
 17 16  1  0
 16 15  2  0
 15 13  1  0
M  END

$$$$
No_1606-/dssg/home/sw_qyf/PocketFlow/Model-Generation-Results/5HT2A_7WC7_rec_A_10.pdb/2024-01-01-03-54-21/
     RDKit          3D

 33 35  0  0  0  0  0  0  0  0999 V2000
  -24.1553  -17.8465  145.7021 C   0  0  0  0  0  0  0  0  0  0  0  0
  -24.2855  -16.6364  145.3494 C   0  0  0  0  0  0  0  0  0  0  0  0
  -24.7211  -15.5955  146.2116 C   0  0  0  0  0  0  0  0  0  0  0  0
  -25.1321  -16.0374  147.5372 C   0  0  0  0  0  0  0  0  0  0  0  0
  -24.5141  -18.2630  147.0046 C   0  0  0  0  0  0  0  0  0  0  0  0
  -24.9573  -17.2963  147.9769 C   0  0  0  0  0  0  0  0  0  0  0  0
  -24.8746  -14.1906  145.7995 C   0  0  0  0  0  0  0  0  0  0  0  0
  -25.6087  -13.2864  146.3280 C   0  0  0  0  0  0  0  0  0  0  0  0
  -25.6033  -11.9300  145.9406 C   0  0  0  0  0  0  0  0  0  0  0  0
  -23.9710  -13.7633  144.7509 C   0  0  0  0  0  0  0  0  0  0  0  0
  -23.6512  -12.3152  144.6109 C   0  0  0  0  0  0  0  0  0  0  0  0
  -24.5611  -11.4640  145.1577 C   0  0  0  0  0  0  0  0  0  0  0  0
  -23.7983  -16.3993  144.1081 N   0  0  0  0  0  0  0  0  0  0  0  0
  -25.2877  -17.6898  149.3841 C   0  0  0  0  0  0  0  0  0  0  0  0
  -26.2712  -18.3258  149.6120 F   0  0  0  0  0  0  0  0  0  0  0  0
  -25.2462  -16.4930  150.1716 F   0  0  0  0  0  0  0  0  0  0  0  0
  -24.1016  -18.2423  149.9192 F   0  0  0  0  0  0  0  0  0  0  0  0
  -26.4119  -10.9708  146.5527 O   0  0  0  0  0  0  0  0  0  0  0  0
  -23.6307  -18.9735  145.1265 N   0  0  0  0  0  0  0  0  0  0  0  0
  -27.2194  -10.4220  145.6477 C   0  0  0  0  0  0  0  0  0  0  0  0
  -28.4394  -11.1394  145.3263 C   0  0  0  0  0  0  0  0  0  0  0  0
  -29.3426  -10.5378  144.5016 C   0  0  0  0  0  0  0  0  0  0  0  0
  -29.1021   -9.5254  143.6393 C   0  0  0  0  0  0  0  0  0  0  0  0
  -30.1116   -8.9594  142.8740 C   0  0  0  0  0  0  0  0  0  0  0  0
  -31.4197   -9.1893  143.0747 C   0  0  0  0  0  0  0  0  0  0  0  0
  -29.7998   -7.9973  141.7327 C   0  0  0  0  0  0  0  0  0  0  0  0
  -29.4751   -6.7287  141.9653 C   0  0  0  0  0  0  0  0  0  0  0  0
  -29.4797   -6.1201  143.3473 C   0  0  0  0  0  0  0  0  0  0  0  0
  -29.0557   -4.7961  143.5205 C   0  0  0  0  0  0  0  0  0  0  0  0
  -28.9307   -3.9313  142.3520 C   0  0  0  0  0  0  0  0  0  0  0  0
  -29.0995   -4.4976  141.0668 C   0  0  0  0  0  0  0  0  0  0  0  0
  -29.3696   -5.8206  140.9102 C   0  0  0  0  0  0  0  0  0  0  0  0
  -32.0349   -8.6547  144.1117 O   0  0  0  0  0  0  0  0  0  0  0  0
  3  7  1  0
  2 13  1  0
  6 14  1  0
 14 15  1  0
 14 16  1  0
 14 17  1  0
  9 18  1  0
  1 19  1  0
 18 20  1  0
 20 21  1  0
 21 22  2  3
 22 23  1  0
 23 24  1  0
 24 25  2  0
 24 26  1  0
 26 27  1  0
 25 33  2  0
 27 28  2  0
 28 29  1  0
 29 30  2  0
 30 31  1  0
 31 32  2  0
 32 27  1  0
  1  2  2  0
  2  3  1  0
  3  4  2  0
  4  6  1  0
  6  5  2  0
  5  1  1  0
  7  8  2  0
  8  9  1  0
  9 12  2  0
 12 11  1  0
 11 10  2  0
 10  7  1  0
M  END

$$$$
No_1607-/dssg/home/sw_qyf/PocketFlow/Model-Generation-Results/5HT2A_7WC7_rec_A_10.pdb/2024-01-01-03-54-21/
     RDKit          3D

 35 36  0  0  0  0  0  0  0  0999 V2000
  -24.1553  -17.8465  145.7021 C   0  0  0  0  0  0  0  0  0  0  0  0
  -24.2856  -16.6364  145.3494 C   0  0  0  0  0  0  0  0  0  0  0  0
  -25.0033  -15.6772  146.0737 C   0  0  0  0  0  0  0  0  0  0  0  0
  -24.8869  -14.2981  145.8377 C   0  0  0  0  0  0  0  0  0  0  0  0
  -25.3793  -13.2111  146.5918 C   0  0  0  0  0  0  0  0  0  0  0  0
  -25.7578  -12.0421  145.8210 C   0  0  0  0  0  0  0  0  0  0  0  0
  -27.1462  -11.8456  145.4924 C   0  0  0  0  0  0  0  0  0  0  0  0
  -27.5771  -10.8695  144.6563 C   0  0  0  0  0  0  0  0  0  0  0  0
  -28.9214  -10.6753  144.3270 C   0  0  0  0  0  0  0  0  0  0  0  0
  -29.3986   -9.8009  143.3652 C   0  0  0  0  0  0  0  0  0  0  0  0
  -29.1132  -10.0497  142.0747 C   0  0  0  0  0  0  0  0  0  0  0  0
  -29.3492   -9.0104  141.0962 C   0  0  0  0  0  0  0  0  0  0  0  0
  -29.0421   -9.0562  139.7340 C   0  0  0  0  0  0  0  0  0  0  0  0
  -28.0111   -9.8932  139.3267 C   0  0  0  0  0  0  0  0  0  0  0  0
  -27.6867  -11.0271  140.1412 C   0  0  0  0  0  0  0  0  0  0  0  0
  -28.1980  -11.0546  141.5433 C   0  0  0  0  0  0  0  0  0  0  0  0
  -25.0161  -18.3754  146.6945 C   0  0  0  0  0  0  0  0  0  0  0  0
  -25.7833  -17.5390  147.4602 C   0  0  0  0  0  0  0  0  0  0  0  0
  -25.7323  -16.1493  147.2703 C   0  0  0  0  0  0  0  0  0  0  0  0
  -23.5669  -13.8858  145.1657 C   0  0  0  0  0  0  0  0  0  0  0  0
  -23.6230  -14.0518  143.7296 C   0  0  0  0  0  0  0  0  0  0  0  0
  -30.3126   -8.7576  143.6874 C   0  0  0  0  0  0  0  0  0  0  0  0
  -31.6259   -8.8697  143.8912 C   0  0  0  0  0  0  0  0  0  0  0  0
  -29.2560   -7.9010  138.8618 C   0  0  0  0  0  0  0  0  0  0  0  0
  -26.8604  -12.1341  139.7013 C   0  0  0  0  0  0  0  0  0  0  0  0
  -26.2035  -12.0591  138.6886 O   0  0  0  0  0  0  0  0  0  0  0  0
  -27.0621  -13.2942  140.4128 O   0  0  0  0  0  0  0  0  0  0  0  0
  -24.6112  -14.3965  143.2079 O   0  0  0  0  0  0  0  0  0  0  0  0
  -22.5053  -13.8643  143.1826 O   0  0  0  0  0  0  0  0  0  0  0  0
  -32.4288   -8.3432  142.9384 O   0  0  0  0  0  0  0  0  0  0  0  0
  -28.0885  -12.8610  145.7932 C   0  0  0  0  0  0  0  0  0  0  0  0
  -29.1890  -12.4829  146.6071 C   0  0  0  0  0  0  0  0  0  0  0  0
  -29.1525  -12.8055  148.0238 C   0  0  0  0  0  0  0  0  0  0  0  0
  -30.1827  -13.7689  148.3926 C   0  0  0  0  0  0  0  0  0  0  0  0
  -30.3525  -14.1261  149.4395 C   0  0  0  0  0  0  0  0  0  0  0  0
  3  4  1  0
  4  5  1  0
  5  6  1  0
  6  7  1  0
  7  8  1  0
  8  9  2  3
  9 10  1  0
  4 20  1  0
 20 21  1  0
 10 22  1  0
 22 23  1  0
 13 24  1  0
 15 25  1  0
 25 26  1  0
 25 27  2  0
 21 28  2  0
 21 29  1  0
 23 30  1  0
  7 31  1  0
 31 32  1  0
 32 33  1  0
 33 34  1  0
 34 35  2  0
 10 11  1  0
 11 12  2  0
 12 13  1  0
 13 14  2  0
 14 15  1  0
 15 16  2  0
 16 11  1  0
  1  2  2  0
  2  3  1  0
  3 19  2  0
 19 18  1  0
 18 17  2  0
 17  1  1  0
M  END

$$$$
No_1608-/dssg/home/sw_qyf/PocketFlow/Model-Generation-Results/5HT2A_7WC7_rec_A_10.pdb/2024-01-01-03-54-21/
     RDKit          3D

 35 36  0  0  0  0  0  0  0  0999 V2000
  -23.1746  -16.6014  144.8668 C   0  0  0  0  0  0  0  0  0  0  0  0
  -23.7011  -17.0158  145.9774 C   0  0  0  0  0  0  0  0  0  0  0  0
  -24.2134  -16.0722  146.8877 C   0  0  0  0  0  0  0  0  0  0  0  0
  -23.3742  -15.2706  144.3922 C   0  0  0  0  0  0  0  0  0  0  0  0
  -24.0638  -14.3065  145.2723 C   0  0  0  0  0  0  0  0  0  0  0  0
  -24.2650  -12.9175  144.8725 C   0  0  0  0  0  0  0  0  0  0  0  0
  -24.4346  -14.7166  146.5554 C   0  0  0  0  0  0  0  0  0  0  0  0
  -23.2274  -12.1400  145.5682 C   0  0  0  0  0  0  0  0  0  0  0  0
  -23.5378  -18.4288  146.4755 C   0  0  0  0  0  0  0  0  0  0  0  0
  -24.2408  -19.2719  146.1657 O   0  0  0  0  0  0  0  0  0  0  0  0
  -22.4831  -18.6444  147.2728 O   0  0  0  0  0  0  0  0  0  0  0  0
  -25.6114  -12.4472  145.1999 C   0  0  0  0  0  0  0  0  0  0  0  0
  -25.8086  -11.1289  145.1795 C   0  0  0  0  0  0  0  0  0  0  0  0
  -27.1413  -10.6553  145.6311 C   0  0  0  0  0  0  0  0  0  0  0  0
  -27.9160  -10.0375  144.7435 C   0  0  0  0  0  0  0  0  0  0  0  0
  -29.3296  -10.2230  144.7887 C   0  0  0  0  0  0  0  0  0  0  0  0
  -29.7419  -11.0491  145.8347 C   0  0  0  0  0  0  0  0  0  0  0  0
  -28.9152  -11.6882  146.7849 C   0  0  0  0  0  0  0  0  0  0  0  0
  -27.6609  -11.6665  146.5129 C   0  0  0  0  0  0  0  0  0  0  0  0
  -30.0726   -9.5287  143.8199 C   0  0  0  0  0  0  0  0  0  0  0  0
  -30.1930   -9.8405  142.5638 C   0  0  0  0  0  0  0  0  0  0  0  0
  -30.7583   -8.8586  141.6950 C   0  0  0  0  0  0  0  0  0  0  0  0
  -30.0711   -7.6989  141.7169 C   0  0  0  0  0  0  0  0  0  0  0  0
  -29.4012   -7.1031  140.7027 C   0  0  0  0  0  0  0  0  0  0  0  0
  -29.1080   -7.8741  139.5167 C   0  0  0  0  0  0  0  0  0  0  0  0
  -27.9249   -8.4594  139.3167 C   0  0  0  0  0  0  0  0  0  0  0  0
  -27.7291   -9.2492  138.1580 C   0  0  0  0  0  0  0  0  0  0  0  0
  -28.6327   -9.0540  137.0439 C   0  0  0  0  0  0  0  0  0  0  0  0
  -28.4780   -9.9010  135.9659 C   0  0  0  0  0  0  0  0  0  0  0  0
  -28.1694  -11.2385  136.2147 C   0  0  0  0  0  0  0  0  0  0  0  0
  -28.3166  -12.1518  135.0659 C   0  0  0  0  0  0  0  0  0  0  0  0
  -29.5880  -12.6267  147.7873 C   0  0  0  0  0  0  0  0  0  0  0  0
  -29.5026  -14.0298  147.6220 C   0  0  0  0  0  0  0  0  0  0  0  0
  -29.5496  -14.6609  146.3948 C   0  0  0  0  0  0  0  0  0  0  0  0
  -29.3038  -14.8379  148.8226 C   0  0  0  0  0  0  0  0  0  0  0  0
  5  6  1  0
  6  8  1  0
  2  9  1  0
  9 10  2  0
  9 11  1  0
  6 12  1  0
 12 13  2  3
 13 14  1  0
 16 20  1  0
 20 21  1  0
 21 22  2  3
 22 23  1  0
 23 24  2  3
 24 25  1  0
 25 26  2  3
 26 27  1  0
 27 28  2  3
 28 29  1  0
 29 30  1  0
 30 31  1  0
 18 32  1  0
 32 33  1  0
 33 34  1  0
 33 35  1  0
 14 15  2  0
 15 16  1  0
 16 17  2  0
 17 18  1  0
 18 19  2  0
 19 14  1  0
  1  2  2  0
  2  3  1  0
  3  7  2  0
  7  5  1  0
  5  4  2  0
  4  1  1  0
M  END

$$$$
No_1609-/dssg/home/sw_qyf/PocketFlow/Model-Generation-Results/5HT2A_7WC7_rec_A_10.pdb/2024-01-01-03-54-21/
     RDKit          3D

 16 17  0  0  0  0  0  0  0  0999 V2000
  -24.1553  -17.8465  145.7021 C   0  0  0  0  0  0  0  0  0  0  0  0
  -23.9795  -18.4462  146.7426 C   0  0  0  0  0  0  0  0  0  0  0  0
  -25.1196  -16.8106  145.6409 C   0  0  0  0  0  0  0  0  0  0  0  0
  -25.9236  -16.5070  146.7422 C   0  0  0  0  0  0  0  0  0  0  0  0
  -25.6627  -17.1841  147.9274 C   0  0  0  0  0  0  0  0  0  0  0  0
  -24.6813  -18.1540  148.0079 C   0  0  0  0  0  0  0  0  0  0  0  0
  -26.9716  -15.4553  146.6645 C   0  0  0  0  0  0  0  0  0  0  0  0
  -28.1968  -15.6101  147.2311 C   0  0  0  0  0  0  0  0  0  0  0  0
  -29.1472  -14.6334  147.1500 C   0  0  0  0  0  0  0  0  0  0  0  0
  -28.8848  -13.4033  146.5891 C   0  0  0  0  0  0  0  0  0  0  0  0
  -27.5906  -13.1204  146.0276 C   0  0  0  0  0  0  0  0  0  0  0  0
  -26.6425  -14.1328  146.0885 C   0  0  0  0  0  0  0  0  0  0  0  0
  -29.9127  -12.2648  146.6126 C   0  0  0  0  0  0  0  0  0  0  0  0
  -30.6530  -12.0925  147.5821 O   0  0  0  0  0  0  0  0  0  0  0  0
  -29.9247  -11.5017  145.5759 O   0  0  0  0  0  0  0  0  0  0  0  0
  -25.2593  -15.8855  144.1927 Cl  0  0  0  0  0  0  0  0  0  0  0  0
  4  7  1  0
 10 13  1  0
 13 14  1  0
 13 15  2  0
  3 16  1  0
  1  2  2  0
  2  6  1  0
  6  5  2  0
  5  4  1  0
  4  3  2  0
  3  1  1  0
  7  8  2  0
  8  9  1  0
  9 10  2  0
 10 11  1  0
 11 12  2  0
 12  7  1  0
M  END

$$$$
No_1610-/dssg/home/sw_qyf/PocketFlow/Model-Generation-Results/5HT2A_7WC7_rec_A_10.pdb/2024-01-01-03-54-21/
     RDKit          3D

 27 30  0  0  0  0  0  0  0  0999 V2000
  -24.1553  -17.8465  145.7021 C   0  0  0  0  0  0  0  0  0  0  0  0
  -24.2856  -16.6364  145.3494 C   0  0  0  0  0  0  0  0  0  0  0  0
  -25.0033  -15.6772  146.0737 C   0  0  0  0  0  0  0  0  0  0  0  0
  -25.6964  -16.1810  147.2049 C   0  0  0  0  0  0  0  0  0  0  0  0
  -24.8143  -18.3454  146.8324 C   0  0  0  0  0  0  0  0  0  0  0  0
  -25.5292  -17.4614  147.6373 C   0  0  0  0  0  0  0  0  0  0  0  0
  -23.6890  -15.8550  144.1437 C   0  0  0  0  0  0  0  0  0  0  0  0
  -22.6149  -15.0728  144.6378 C   0  0  0  0  0  0  0  0  0  0  0  0
  -23.1730  -13.6248  144.8105 C   0  0  0  0  0  0  0  0  0  0  0  0
  -22.3954  -12.5514  144.4768 C   0  0  0  0  0  0  0  0  0  0  0  0
  -24.4132  -13.3795  145.5430 C   0  0  0  0  0  0  0  0  0  0  0  0
  -24.8225  -12.0388  145.6815 C   0  0  0  0  0  0  0  0  0  0  0  0
  -25.1494  -14.5193  146.0531 C   0  0  0  0  0  0  0  0  0  0  0  0
  -25.9497  -11.7612  146.5831 C   0  0  0  0  0  0  0  0  0  0  0  0
  -27.1189  -11.9622  145.9480 C   0  0  0  0  0  0  0  0  0  0  0  0
  -27.5874  -11.3360  144.8382 C   0  0  0  0  0  0  0  0  0  0  0  0
  -28.9086  -10.7080  144.7309 C   0  0  0  0  0  0  0  0  0  0  0  0
  -29.2231   -9.9422  143.8197 C   0  0  0  0  0  0  0  0  0  0  0  0
  -30.4371   -9.1711  143.7747 C   0  0  0  0  0  0  0  0  0  0  0  0
  -30.8034   -8.3611  142.7581 C   0  0  0  0  0  0  0  0  0  0  0  0
  -29.9203   -8.1854  141.6811 C   0  0  0  0  0  0  0  0  0  0  0  0
  -30.1418   -7.3212  140.5883 C   0  0  0  0  0  0  0  0  0  0  0  0
  -29.1399   -7.4970  139.4943 C   0  0  0  0  0  0  0  0  0  0  0  0
  -28.3303   -8.6786  139.3931 C   0  0  0  0  0  0  0  0  0  0  0  0
  -28.2152   -9.5095  140.5474 C   0  0  0  0  0  0  0  0  0  0  0  0
  -29.1023   -9.3069  141.6555 C   0  0  0  0  0  0  0  0  0  0  0  0
  -28.6635  -10.1436  142.7408 C   0  0  0  0  0  0  0  0  0  0  0  0
  2  7  1  0
  7  8  1  0
  8  9  1  0
  9 10  2  0
  9 11  1  0
 11 12  1  0
  3 13  1  0
 11 13  1  0
 12 14  2  3
 14 15  1  0
 15 16  2  3
 16 17  1  0
 17 18  1  0
 18 19  2  0
 19 20  1  0
 20 21  2  0
 26 27  2  0
 27 18  1  0
  1  2  2  0
  2  3  1  0
  3  4  2  0
  4  6  1  0
  6  5  2  0
  5  1  1  0
 21 22  1  0
 22 23  2  0
 23 24  1  0
 24 25  2  0
 25 26  1  0
 26 21  1  0
M  END

$$$$
No_1611-/dssg/home/sw_qyf/PocketFlow/Model-Generation-Results/5HT2A_7WC7_rec_A_10.pdb/2024-01-01-03-54-21/
     RDKit          3D

 21 23  0  0  0  0  0  0  0  0999 V2000
  -23.1746  -16.6014  144.8668 C   0  0  0  0  0  0  0  0  0  0  0  0
  -23.8963  -15.5346  144.7885 C   0  0  0  0  0  0  0  0  0  0  0  0
  -23.4976  -14.2961  145.1226 C   0  0  0  0  0  0  0  0  0  0  0  0
  -24.3175  -13.3088  145.7775 C   0  0  0  0  0  0  0  0  0  0  0  0
  -25.6586  -13.6027  146.0240 C   0  0  0  0  0  0  0  0  0  0  0  0
  -26.0737  -14.9390  145.9541 C   0  0  0  0  0  0  0  0  0  0  0  0
  -25.1974  -15.8784  145.3395 C   0  0  0  0  0  0  0  0  0  0  0  0
  -27.3923  -15.3498  146.3618 C   0  0  0  0  0  0  0  0  0  0  0  0
  -27.6826  -16.7333  146.7029 C   0  0  0  0  0  0  0  0  0  0  0  0
  -28.4714  -14.4498  146.5245 C   0  0  0  0  0  0  0  0  0  0  0  0
  -28.4082  -13.1192  146.1477 C   0  0  0  0  0  0  0  0  0  0  0  0
  -27.0997  -12.4818  145.9098 C   0  0  0  0  0  0  0  0  0  0  0  0
  -29.4286  -12.1059  146.2558 C   0  0  0  0  0  0  0  0  0  0  0  0
  -29.5085  -11.1141  145.3599 N   0  0  0  0  0  0  0  0  0  0  0  0
  -28.6085  -11.0110  144.3993 C   0  0  0  0  0  0  0  0  0  0  0  0
  -28.6931   -9.9670  143.4346 C   0  0  0  0  0  0  0  0  0  0  0  0
  -28.3399  -10.0666  142.1314 C   0  0  0  0  0  0  0  0  0  0  0  0
  -28.8701   -9.2279  141.1209 C   0  0  0  0  0  0  0  0  0  0  0  0
  -29.5352   -8.0093  141.5202 C   0  0  0  0  0  0  0  0  0  0  0  0
  -29.7815   -7.8683  142.9287 C   0  0  0  0  0  0  0  0  0  0  0  0
  -29.4218   -8.8523  143.8468 C   0  0  0  0  0  0  0  0  0  0  0  0
  1  2  2  0
  2  3  1  0
  3  4  1  0
  4  5  1  0
  2  7  1  0
  6  7  1  0
  8  9  1  0
 11 13  1  0
 13 14  2  3
 14 15  1  0
 15 16  1  0
 16 17  2  0
 17 18  1  0
 18 19  2  0
 19 20  1  0
 20 21  2  0
 21 16  1  0
  5  6  2  0
  6  8  1  0
  8 10  2  0
 10 11  1  0
 11 12  2  0
 12  5  1  0
M  END

$$$$
No_1612-/dssg/home/sw_qyf/PocketFlow/Model-Generation-Results/5HT2A_7WC7_rec_A_10.pdb/2024-01-01-03-54-21/
     RDKit          3D

 35 37  0  0  0  0  0  0  0  0999 V2000
  -23.1746  -16.6014  144.8668 C   0  0  0  0  0  0  0  0  0  0  0  0
  -23.8963  -15.5346  144.7885 C   0  0  0  0  0  0  0  0  0  0  0  0
  -25.0304  -15.2549  144.5358 C   0  0  0  0  0  0  0  0  0  0  0  0
  -25.6045  -13.9524  144.2294 C   0  0  0  0  0  0  0  0  0  0  0  0
  -24.8624  -12.8904  144.6738 C   0  0  0  0  0  0  0  0  0  0  0  0
  -23.5278  -13.1645  145.1476 C   0  0  0  0  0  0  0  0  0  0  0  0
  -23.0570  -14.3847  145.1774 N   0  0  0  0  0  0  0  0  0  0  0  0
  -22.7388  -12.1864  145.5080 F   0  0  0  0  0  0  0  0  0  0  0  0
  -23.6763  -17.7081  145.8630 C   0  0  0  0  0  0  0  0  0  0  0  0
  -23.6633  -17.2335  147.1299 C   0  0  0  0  0  0  0  0  0  0  0  0
  -24.8032  -16.5015  147.7345 C   0  0  0  0  0  0  0  0  0  0  0  0
  -25.0090  -16.4953  149.1534 C   0  0  0  0  0  0  0  0  0  0  0  0
  -24.1878  -17.2540  150.0028 C   0  0  0  0  0  0  0  0  0  0  0  0
  -23.0624  -17.8191  149.5025 C   0  0  0  0  0  0  0  0  0  0  0  0
  -22.8365  -17.9454  148.1711 C   0  0  0  0  0  0  0  0  0  0  0  0
  -26.9891  -13.6823  143.8547 C   0  0  0  0  0  0  0  0  0  0  0  0
  -27.0042  -13.1078  142.5222 C   0  0  0  0  0  0  0  0  0  0  0  0
  -27.5025  -11.7847  142.4581 C   0  0  0  0  0  0  0  0  0  0  0  0
  -27.8885  -11.2740  141.1721 C   0  0  0  0  0  0  0  0  0  0  0  0
  -28.6227  -10.0515  141.0444 C   0  0  0  0  0  0  0  0  0  0  0  0
  -29.1222   -9.3700  142.2157 C   0  0  0  0  0  0  0  0  0  0  0  0
  -28.7921   -9.9785  143.4928 C   0  0  0  0  0  0  0  0  0  0  0  0
  -28.0412  -11.1553  143.6016 C   0  0  0  0  0  0  0  0  0  0  0  0
  -29.7670   -8.1079  142.1219 C   0  0  0  0  0  0  0  0  0  0  0  0
  -30.7105   -7.8609  141.8211 N   0  0  0  0  0  0  0  0  0  0  0  0
  -29.0034   -6.9193  142.5278 N   0  0  0  0  0  0  0  0  0  0  0  0
  -29.3957   -5.7166  142.6105 C   0  0  0  0  0  0  0  0  0  0  0  0
  -31.6326   -8.8784  141.4479 C   0  0  0  0  0  0  0  0  0  0  0  0
  -27.5110  -11.8891  139.9566 C   0  0  0  0  0  0  0  0  0  0  0  0
  -28.2524  -11.8909  138.7731 C   0  0  0  0  0  0  0  0  0  0  0  0
  -24.0291  -18.8561  145.5128 O   0  0  0  0  0  0  0  0  0  0  0  0
  -27.4701  -12.0571  137.5170 C   0  0  0  0  0  0  0  0  0  0  0  0
  -28.5372   -4.6962  141.9605 C   0  0  0  0  0  0  0  0  0  0  0  0
  -28.6327   -3.4174  142.5773 C   0  0  0  0  0  0  0  0  0  0  0  0
  -29.1337   -3.2816  143.9036 C   0  0  0  0  0  0  0  0  0  0  0  0
  1  2  1  0
  6  8  1  0
  1  9  1  0
  9 10  1  0
  4 16  1  0
 16 17  1  0
 17 18  1  0
 21 24  1  0
 24 25  1  0
 24 26  2  3
 26 27  1  0
 25 28  1  0
 19 29  1  0
 29 30  2  3
  9 31  2  0
 30 32  1  0
 27 33  1  0
 33 34  2  3
 34 35  1  0
 18 19  2  0
 19 20  1  0
 20 21  2  0
 21 22  1  0
 22 23  2  0
 23 18  1  0
  2  3  2  0
  3  4  1  0
  4  5  2  0
  5  6  1  0
  6  7  2  0
  7  2  1  0
 10 11  2  0
 11 12  1  0
 12 13  2  0
 13 14  1  0
 14 15  2  0
 15 10  1  0
M  END

$$$$
No_1613-/dssg/home/sw_qyf/PocketFlow/Model-Generation-Results/5HT2A_7WC7_rec_A_10.pdb/2024-01-01-03-54-21/
     RDKit          3D

 12 11  0  0  0  0  0  0  0  0999 V2000
  -23.8042  -18.1535  145.4053 O   0  0  0  0  0  0  0  0  0  0  0  0
  -24.1154  -17.4458  146.3749 C   0  0  0  0  0  0  0  0  0  0  0  0
  -24.0359  -17.8147  147.6916 C   0  0  0  0  0  0  0  0  0  0  0  0
  -24.1836  -16.7782  148.7423 C   0  0  0  0  0  0  0  0  0  0  0  0
  -24.0489  -17.2064  150.1116 C   0  0  0  0  0  0  0  0  0  0  0  0
  -24.8207  -16.1920  146.1187 C   0  0  0  0  0  0  0  0  0  0  0  0
  -24.9830  -15.2983  146.6240 C   0  0  0  0  0  0  0  0  0  0  0  0
  -25.5023  -14.0304  145.9751 C   0  0  0  0  0  0  0  0  0  0  0  0
  -25.7144  -14.3048  144.6927 C   0  0  0  0  0  0  0  0  0  0  0  0
  -26.4116  -13.2708  143.8792 C   0  0  0  0  0  0  0  0  0  0  0  0
  -26.8320  -12.1066  144.4590 C   0  0  0  0  0  0  0  0  0  0  0  0
  -26.4105  -11.8355  145.8206 C   0  0  0  0  0  0  0  0  0  0  0  0
  1  2  1  0
  2  3  1  0
  3  4  1  0
  4  5  1  0
  2  6  1  0
  6  7  1  0
  7  8  2  3
  8  9  1  0
  9 10  2  3
 10 11  1  0
 11 12  2  0
M  END

$$$$
No_1614-/dssg/home/sw_qyf/PocketFlow/Model-Generation-Results/5HT2A_7WC7_rec_A_10.pdb/2024-01-01-03-54-21/
     RDKit          3D

 16 18  0  0  0  0  0  0  0  0999 V2000
  -24.1553  -17.8465  145.7021 C   0  0  0  0  0  0  0  0  0  0  0  0
  -24.2856  -16.6364  145.3494 C   0  0  0  0  0  0  0  0  0  0  0  0
  -25.0033  -15.6772  146.0737 C   0  0  0  0  0  0  0  0  0  0  0  0
  -25.1197  -14.2835  145.7299 C   0  0  0  0  0  0  0  0  0  0  0  0
  -24.2707  -13.8793  144.6500 C   0  0  0  0  0  0  0  0  0  0  0  0
  -24.8686  -18.3355  146.8179 C   0  0  0  0  0  0  0  0  0  0  0  0
  -23.4213  -14.7686  144.0334 C   0  0  0  0  0  0  0  0  0  0  0  0
  -23.3932  -16.0844  144.3175 C   0  0  0  0  0  0  0  0  0  0  0  0
  -25.6450  -17.4591  147.5909 C   0  0  0  0  0  0  0  0  0  0  0  0
  -25.7561  -16.1038  147.2695 C   0  0  0  0  0  0  0  0  0  0  0  0
  -25.9217  -13.3274  146.4582 C   0  0  0  0  0  0  0  0  0  0  0  0
  -25.4621  -11.9507  146.5110 C   0  0  0  0  0  0  0  0  0  0  0  0
  -24.5211  -11.5007  145.6453 C   0  0  0  0  0  0  0  0  0  0  0  0
  -23.8149  -12.4647  144.7784 C   0  0  0  0  0  0  0  0  0  0  0  0
  -23.3100  -18.7862  145.2702 O   0  0  0  0  0  0  0  0  0  0  0  0
  -26.2585  -11.0666  147.1349 O   0  0  0  0  0  0  0  0  0  0  0  0
  1 15  1  0
 12 16  1  0
  5 14  2  0
 14 13  1  0
 13 12  2  0
 12 11  1  0
 11  4  2  0
  1  2  2  0
  3 10  2  0
 10  9  1  0
  9  6  2  0
  6  1  1  0
  2  3  1  0
  3  4  1  0
  4  5  1  0
  5  7  1  0
  7  8  2  0
  8  2  1  0
M  END

$$$$
No_1615-/dssg/home/sw_qyf/PocketFlow/Model-Generation-Results/5HT2A_7WC7_rec_A_10.pdb/2024-01-01-03-54-21/
     RDKit          3D

 19 20  0  0  0  0  0  0  0  0999 V2000
  -23.1746  -16.6014  144.8668 C   0  0  0  0  0  0  0  0  0  0  0  0
  -23.7011  -17.0158  145.9774 C   0  0  0  0  0  0  0  0  0  0  0  0
  -23.7336  -18.2775  146.3737 C   0  0  0  0  0  0  0  0  0  0  0  0
  -24.1960  -18.6445  147.6858 C   0  0  0  0  0  0  0  0  0  0  0  0
  -24.7100  -17.6145  148.5486 C   0  0  0  0  0  0  0  0  0  0  0  0
  -24.7929  -16.2635  148.0870 C   0  0  0  0  0  0  0  0  0  0  0  0
  -24.2508  -15.9434  146.8891 C   0  0  0  0  0  0  0  0  0  0  0  0
  -23.7752  -16.1123  144.2284 O   0  0  0  0  0  0  0  0  0  0  0  0
  -24.3238  -14.5318  146.4516 C   0  0  0  0  0  0  0  0  0  0  0  0
  -25.5051  -13.9552  146.0122 C   0  0  0  0  0  0  0  0  0  0  0  0
  -25.5114  -12.5651  145.9235 C   0  0  0  0  0  0  0  0  0  0  0  0
  -26.7111  -11.8265  145.6286 C   0  0  0  0  0  0  0  0  0  0  0  0
  -26.6495  -10.8395  144.6682 C   0  0  0  0  0  0  0  0  0  0  0  0
  -27.7969  -10.1220  144.2621 C   0  0  0  0  0  0  0  0  0  0  0  0
  -29.0953  -10.5870  144.7956 C   0  0  0  0  0  0  0  0  0  0  0  0
  -29.0475  -11.6045  145.8685 C   0  0  0  0  0  0  0  0  0  0  0  0
  -27.9001  -12.1864  146.2102 C   0  0  0  0  0  0  0  0  0  0  0  0
  -30.3341   -9.9206  144.4480 C   0  0  0  0  0  0  0  0  0  0  0  0
  -30.6044   -9.8667  143.2690 O   0  0  0  0  0  0  0  0  0  0  0  0
  1  2  1  0
  1  8  1  0
  7  9  1  0
  9 10  1  0
 10 11  2  3
 11 12  1  0
 15 18  1  0
 18 19  1  0
 12 13  2  0
 13 14  1  0
 14 15  2  0
 15 16  1  0
 16 17  2  0
 17 12  1  0
  2  3  2  0
  3  4  1  0
  4  5  2  0
  5  6  1  0
  6  7  2  0
  7  2  1  0
M  END

$$$$
No_1616-/dssg/home/sw_qyf/PocketFlow/Model-Generation-Results/5HT2A_7WC7_rec_A_10.pdb/2024-01-01-03-54-21/
     RDKit          3D

 35 38  0  0  0  0  0  0  0  0999 V2000
  -24.1553  -17.8465  145.7021 C   0  0  0  0  0  0  0  0  0  0  0  0
  -24.2856  -16.6364  145.3494 C   0  0  0  0  0  0  0  0  0  0  0  0
  -25.0033  -15.6772  146.0737 C   0  0  0  0  0  0  0  0  0  0  0  0
  -25.6964  -16.1810  147.2049 C   0  0  0  0  0  0  0  0  0  0  0  0
  -24.8143  -18.3454  146.8324 C   0  0  0  0  0  0  0  0  0  0  0  0
  -25.5292  -17.4614  147.6373 C   0  0  0  0  0  0  0  0  0  0  0  0
  -23.4093  -15.9127  143.7873 Br  0  0  0  0  0  0  0  0  0  0  0  0
  -25.1804  -14.2235  145.6879 C   0  0  0  0  0  0  0  0  0  0  0  0
  -24.2069  -13.3956  146.1242 C   0  0  0  0  0  0  0  0  0  0  0  0
  -24.2743  -11.9822  145.7515 C   0  0  0  0  0  0  0  0  0  0  0  0
  -25.5337  -11.4838  145.2834 C   0  0  0  0  0  0  0  0  0  0  0  0
  -26.4473  -12.2326  145.2933 C   0  0  0  0  0  0  0  0  0  0  0  0
  -26.3832  -13.6891  145.4440 C   0  0  0  0  0  0  0  0  0  0  0  0
  -27.8602  -11.7232  144.7983 C   0  0  0  0  0  0  0  0  0  0  0  0
  -28.3099  -10.5241  144.8368 C   0  0  0  0  0  0  0  0  0  0  0  0
  -29.6163  -10.1116  144.4248 C   0  0  0  0  0  0  0  0  0  0  0  0
  -29.8356   -9.0446  143.5800 C   0  0  0  0  0  0  0  0  0  0  0  0
  -28.8488   -8.5841  142.8108 C   0  0  0  0  0  0  0  0  0  0  0  0
  -31.2076   -8.5356  143.3816 C   0  0  0  0  0  0  0  0  0  0  0  0
  -31.3894   -7.4421  142.9704 O   0  0  0  0  0  0  0  0  0  0  0  0
  -32.2002   -9.2685  143.7603 O   0  0  0  0  0  0  0  0  0  0  0  0
  -27.3992  -14.5211  145.2487 O   0  0  0  0  0  0  0  0  0  0  0  0
  -28.8562   -7.3635  142.8251 F   0  0  0  0  0  0  0  0  0  0  0  0
  -28.7724   -9.1148  141.5545 F   0  0  0  0  0  0  0  0  0  0  0  0
  -27.4605   -8.8983  143.4853 C   0  0  0  0  0  0  0  0  0  0  0  0
  -27.2113  -10.0558  144.1127 C   0  0  0  0  0  0  0  0  0  0  0  0
  -25.8710  -10.4730  144.4014 C   0  0  0  0  0  0  0  0  0  0  0  0
  -23.5029  -18.7600  144.9436 F   0  0  0  0  0  0  0  0  0  0  0  0
  -27.9900  -15.1102  146.3745 C   0  0  0  0  0  0  0  0  0  0  0  0
  -28.8109  -14.2843  147.1605 C   0  0  0  0  0  0  0  0  0  0  0  0
  -29.6081  -14.8062  148.1776 C   0  0  0  0  0  0  0  0  0  0  0  0
  -30.5505  -13.9577  148.8237 C   0  0  0  0  0  0  0  0  0  0  0  0
  -31.5265  -14.4218  149.7481 C   0  0  0  0  0  0  0  0  0  0  0  0
  -32.4286  -13.4841  150.3397 C   0  0  0  0  0  0  0  0  0  0  0  0
  -32.4771  -12.2203  149.8305 C   0  0  0  0  0  0  0  0  0  0  0  0
  2  7  1  0
  3  8  1  0
 15 16  1  0
 16 17  1  0
 17 18  1  0
 17 19  1  0
 19 20  2  0
 19 21  1  0
 13 22  1  0
 18 23  1  0
 18 24  1  0
 18 25  1  0
 25 26  1  0
  1 28  1  0
 22 29  1  0
 29 30  2  3
 30 31  1  0
 31 32  2  3
 32 33  1  0
 33 34  2  3
 34 35  1  0
  1  2  2  0
  2  3  1  0
  3  4  2  0
  4  6  1  0
  6  5  2  0
  5  1  1  0
  8  9  2  0
  9 10  1  0
 10 11  2  0
 12 13  2  0
 13  8  1  0
 11 12  1  0
 12 14  1  0
 14 15  2  0
 15 26  1  0
 26 27  2  0
 27 11  1  0
M  END

$$$$
No_1617-/dssg/home/sw_qyf/PocketFlow/Model-Generation-Results/5HT2A_7WC7_rec_A_10.pdb/2024-01-01-03-54-21/
     RDKit          3D

 22 23  0  0  0  0  0  0  0  0999 V2000
  -24.1553  -17.8465  145.7021 C   0  0  0  0  0  0  0  0  0  0  0  0
  -24.6364  -17.2931  146.7091 C   0  0  0  0  0  0  0  0  0  0  0  0
  -25.8608  -16.5592  146.5934 C   0  0  0  0  0  0  0  0  0  0  0  0
  -26.9933  -16.9082  147.1889 C   0  0  0  0  0  0  0  0  0  0  0  0
  -28.2114  -16.1477  146.9896 C   0  0  0  0  0  0  0  0  0  0  0  0
  -28.1869  -14.8900  146.3591 C   0  0  0  0  0  0  0  0  0  0  0  0
  -26.9306  -14.4696  145.8021 C   0  0  0  0  0  0  0  0  0  0  0  0
  -25.7608  -15.2964  145.9443 C   0  0  0  0  0  0  0  0  0  0  0  0
  -26.8153  -13.1560  145.1435 C   0  0  0  0  0  0  0  0  0  0  0  0
  -26.8521  -13.1519  143.8358 C   0  0  0  0  0  0  0  0  0  0  0  0
  -27.3519  -12.0367  143.0841 C   0  0  0  0  0  0  0  0  0  0  0  0
  -27.7839  -10.8894  143.7846 C   0  0  0  0  0  0  0  0  0  0  0  0
  -27.7499  -11.0016  145.2455 C   0  0  0  0  0  0  0  0  0  0  0  0
  -27.3181  -12.0631  145.9135 C   0  0  0  0  0  0  0  0  0  0  0  0
  -28.2390   -9.6868  143.1662 C   0  0  0  0  0  0  0  0  0  0  0  0
  -28.8216   -9.7336  141.9202 C   0  0  0  0  0  0  0  0  0  0  0  0
  -29.2689   -8.5544  141.3933 C   0  0  0  0  0  0  0  0  0  0  0  0
  -29.6927   -8.3785  140.0237 C   0  0  0  0  0  0  0  0  0  0  0  0
  -30.3598   -7.2765  139.6360 C   0  0  0  0  0  0  0  0  0  0  0  0
  -23.9974  -17.4586  148.0461 C   0  0  0  0  0  0  0  0  0  0  0  0
  -24.5184  -17.1519  149.1879 N   0  0  0  0  0  0  0  0  0  0  0  0
  -23.8294  -17.3138  150.3475 C   0  0  0  0  0  0  0  0  0  0  0  0
  1  2  1  0
  2  3  1  0
  7  9  1  0
 12 15  1  0
 15 16  1  0
 16 17  2  3
 17 18  1  0
 18 19  2  0
  2 20  1  0
 20 21  1  0
 21 22  1  0
  3  4  2  0
  4  5  1  0
  5  6  2  0
  6  7  1  0
  7  8  2  0
  8  3  1  0
  9 10  2  0
 10 11  1  0
 11 12  2  0
 12 13  1  0
 13 14  2  0
 14  9  1  0
M  END

$$$$
No_1618-/dssg/home/sw_qyf/PocketFlow/Model-Generation-Results/5HT2A_7WC7_rec_A_10.pdb/2024-01-01-03-54-21/
     RDKit          3D

 11 11  0  0  0  0  0  0  0  0999 V2000
  -23.1746  -16.6014  144.8668 C   0  0  0  0  0  0  0  0  0  0  0  0
  -24.0189  -16.0564  145.8445 C   0  0  0  0  0  0  0  0  0  0  0  0
  -24.4850  -14.7380  145.6359 C   0  0  0  0  0  0  0  0  0  0  0  0
  -25.2717  -14.0560  146.5949 C   0  0  0  0  0  0  0  0  0  0  0  0
  -25.5669  -12.6700  146.4456 C   0  0  0  0  0  0  0  0  0  0  0  0
  -25.1774  -11.9727  145.2644 C   0  0  0  0  0  0  0  0  0  0  0  0
  -24.2583  -12.6444  144.4323 C   0  0  0  0  0  0  0  0  0  0  0  0
  -23.9746  -14.0153  144.6649 C   0  0  0  0  0  0  0  0  0  0  0  0
  -24.4407  -16.8601  146.9515 C   0  0  0  0  0  0  0  0  0  0  0  0
  -25.1111  -16.6229  147.9710 C   0  0  0  0  0  0  0  0  0  0  0  0
  -25.2345  -17.3426  149.1612 C   0  0  0  0  0  0  0  0  0  0  0  0
  1  2  1  0
  2  3  1  0
  2  9  1  0
  9 10  2  3
 10 11  1  0
  3  4  2  0
  4  5  1  0
  5  6  2  0
  6  7  1  0
  7  8  2  0
  8  3  1  0
M  END

$$$$
No_1619-/dssg/home/sw_qyf/PocketFlow/Model-Generation-Results/5HT2A_7WC7_rec_A_10.pdb/2024-01-01-03-54-21/
     RDKit          3D

 30 32  0  0  0  0  0  0  0  0999 V2000
  -24.1553  -17.8465  145.7021 C   0  0  0  0  0  0  0  0  0  0  0  0
  -23.9795  -18.4462  146.7426 C   0  0  0  0  0  0  0  0  0  0  0  0
  -24.3577  -16.4380  145.7329 C   0  0  0  0  0  0  0  0  0  0  0  0
  -24.4745  -15.6012  144.5587 C   0  0  0  0  0  0  0  0  0  0  0  0
  -24.5845  -14.1656  144.8311 C   0  0  0  0  0  0  0  0  0  0  0  0
  -25.4952  -13.5661  145.3467 C   0  0  0  0  0  0  0  0  0  0  0  0
  -25.2937  -12.1750  145.6659 C   0  0  0  0  0  0  0  0  0  0  0  0
  -23.9582  -17.8783  148.0929 C   0  0  0  0  0  0  0  0  0  0  0  0
  -24.1916  -16.4547  148.1676 C   0  0  0  0  0  0  0  0  0  0  0  0
  -24.3810  -15.7412  147.0691 C   0  0  0  0  0  0  0  0  0  0  0  0
  -26.0406  -11.3726  145.1596 C   0  0  0  0  0  0  0  0  0  0  0  0
  -27.1557  -11.6395  144.4383 C   0  0  0  0  0  0  0  0  0  0  0  0
  -27.5930  -10.8616  143.6158 C   0  0  0  0  0  0  0  0  0  0  0  0
  -28.5021   -9.8714  143.8559 C   0  0  0  0  0  0  0  0  0  0  0  0
  -29.1698   -8.9935  142.9756 C   0  0  0  0  0  0  0  0  0  0  0  0
  -30.0678   -7.9787  143.3133 C   0  0  0  0  0  0  0  0  0  0  0  0
  -31.2614   -8.4942  144.0655 C   0  0  0  0  0  0  0  0  0  0  0  0
  -27.7821  -11.3771  142.1989 C   0  0  0  0  0  0  0  0  0  0  0  0
  -27.2306  -12.5227  141.7862 C   0  0  0  0  0  0  0  0  0  0  0  0
  -27.4366  -13.0805  140.5172 C   0  0  0  0  0  0  0  0  0  0  0  0
  -28.1237  -12.1679  139.6687 C   0  0  0  0  0  0  0  0  0  0  0  0
  -27.3036  -11.0160  139.2814 C   0  0  0  0  0  0  0  0  0  0  0  0
  -27.6111   -9.8421  140.1797 C   0  0  0  0  0  0  0  0  0  0  0  0
  -27.4601  -10.0765  141.6958 C   0  0  0  0  0  0  0  0  0  0  0  0
  -23.3878  -13.4730  144.2144 C   0  0  0  0  0  0  0  0  0  0  0  0
  -22.8564  -12.4571  144.9115 O   0  0  0  0  0  0  0  0  0  0  0  0
  -28.7268   -9.0739  141.5643 C   0  0  0  0  0  0  0  0  0  0  0  0
  -27.7422   -8.6295  139.3724 C   0  0  0  0  0  0  0  0  0  0  0  0
  -27.4579   -8.7191  138.0269 C   0  0  0  0  0  0  0  0  0  0  0  0
  -28.2879   -7.7225  137.1986 C   0  0  0  0  0  0  0  0  0  0  0  0
  3  4  1  0
  4  5  1  0
  5  6  1  0
  6  7  1  0
  7 11  1  0
 11 12  1  0
 12 13  1  0
 15 16  1  0
 16 17  1  0
 18 19  1  0
 19 20  1  0
 20 21  1  0
 21 22  1  0
 22 23  1  0
 23 24  1  0
  5 25  1  0
 25 26  2  0
 23 28  1  0
 28 29  1  0
 29 30  2  0
 13 14  2  0
 14 15  1  0
 15 27  2  0
 27 24  1  0
 24 18  2  0
 18 13  1  0
  1  2  2  0
  2  8  1  0
  8  9  2  0
  9 10  1  0
 10  3  2  0
  3  1  1  0
M  END

$$$$
No_1620-/dssg/home/sw_qyf/PocketFlow/Model-Generation-Results/5HT2A_7WC7_rec_A_10.pdb/2024-01-01-03-54-21/
     RDKit          3D

 35 37  0  0  0  0  0  0  0  0999 V2000
  -23.1746  -16.6014  144.8668 C   0  0  0  0  0  0  0  0  0  0  0  0
  -23.8963  -15.5346  144.7885 C   0  0  0  0  0  0  0  0  0  0  0  0
  -23.4976  -14.2961  145.1226 C   0  0  0  0  0  0  0  0  0  0  0  0
  -24.3175  -13.3088  145.7775 C   0  0  0  0  0  0  0  0  0  0  0  0
  -25.6586  -13.6027  146.0239 C   0  0  0  0  0  0  0  0  0  0  0  0
  -26.5243  -12.6257  146.4591 C   0  0  0  0  0  0  0  0  0  0  0  0
  -27.9162  -12.8649  146.3754 C   0  0  0  0  0  0  0  0  0  0  0  0
  -28.9106  -11.8295  146.3227 C   0  0  0  0  0  0  0  0  0  0  0  0
  -30.2483  -12.1397  146.4930 C   0  0  0  0  0  0  0  0  0  0  0  0
  -30.5068  -13.4305  146.9443 C   0  0  0  0  0  0  0  0  0  0  0  0
  -29.5694  -14.4314  147.0226 C   0  0  0  0  0  0  0  0  0  0  0  0
  -28.2864  -14.1303  146.8322 C   0  0  0  0  0  0  0  0  0  0  0  0
  -23.7113  -17.9158  144.8381 C   0  0  0  0  0  0  0  0  0  0  0  0
  -23.9892  -18.4161  146.2064 C   0  0  0  0  0  0  0  0  0  0  0  0
  -25.2631  -18.7102  146.5708 C   0  0  0  0  0  0  0  0  0  0  0  0
  -25.2435  -15.6775  145.6544 C   0  0  0  0  0  0  0  0  0  0  0  0
  -26.1724  -14.7406  145.8538 C   0  0  0  0  0  0  0  0  0  0  0  0
  -27.4512  -15.1359  146.2976 C   0  0  0  0  0  0  0  0  0  0  0  0
  -24.0425  -11.8210  145.3290 C   0  0  0  0  0  0  0  0  0  0  0  0
  -27.8399  -16.3507  146.3070 O   0  0  0  0  0  0  0  0  0  0  0  0
  -23.3549  -17.3654  147.2148 C   0  0  0  0  0  0  0  0  0  0  0  0
  -23.4841  -17.8845  148.6946 C   0  0  0  0  0  0  0  0  0  0  0  0
  -24.7237  -17.2840  149.3211 C   0  0  0  0  0  0  0  0  0  0  0  0
  -25.0625  -16.1368  149.2505 O   0  0  0  0  0  0  0  0  0  0  0  0
  -25.2489  -18.0111  150.3006 O   0  0  0  0  0  0  0  0  0  0  0  0
  -23.1010  -19.7115  146.3264 C   0  0  0  0  0  0  0  0  0  0  0  0
  -31.1227  -11.1126  146.5439 O   0  0  0  0  0  0  0  0  0  0  0  0
  -22.7707  -11.4838  145.2188 O   0  0  0  0  0  0  0  0  0  0  0  0
  -24.9208  -11.0558  144.9906 O   0  0  0  0  0  0  0  0  0  0  0  0
  -22.8251  -20.2472  145.2418 O   0  0  0  0  0  0  0  0  0  0  0  0
  -28.5424  -10.6214  145.9005 O   0  0  0  0  0  0  0  0  0  0  0  0
  -28.6312  -10.3068  144.4958 C   0  0  0  0  0  0  0  0  0  0  0  0
  -29.8146  -10.2277  143.8667 C   0  0  0  0  0  0  0  0  0  0  0  0
  -29.7425   -9.5548  142.7094 C   0  0  0  0  0  0  0  0  0  0  0  0
  -29.1264  -10.1199  141.5707 C   0  0  0  0  0  0  0  0  0  0  0  0
  1  2  2  3
  2  3  1  0
  3  4  1  0
  4  5  1  0
  5  6  1  0
  6  7  1  0
  1 13  1  0
 13 14  1  0
 14 15  1  0
  2 16  1  0
  5 17  1  0
 16 17  1  0
 12 18  1  0
 17 18  1  0
  4 19  1  0
 18 20  2  0
 14 21  1  0
 21 22  1  0
 22 23  1  0
 23 24  2  0
 23 25  1  0
 14 26  1  0
  9 27  1  0
 19 28  1  0
 19 29  2  0
 26 30  1  0
  8 31  1  0
 31 32  1  0
 32 33  2  3
 33 34  1  0
 34 35  2  0
  7  8  2  0
  8  9  1  0
  9 10  2  0
 10 11  1  0
 11 12  2  0
 12  7  1  0
M  END

$$$$
No_1621-/dssg/home/sw_qyf/PocketFlow/Model-Generation-Results/5HT2A_7WC7_rec_A_10.pdb/2024-01-01-03-54-21/
     RDKit          3D

 25 26  0  0  0  0  0  0  0  0999 V2000
  -24.1553  -17.8465  145.7021 C   0  0  0  0  0  0  0  0  0  0  0  0
  -24.2856  -16.6364  145.3494 C   0  0  0  0  0  0  0  0  0  0  0  0
  -24.7211  -15.5955  146.2115 C   0  0  0  0  0  0  0  0  0  0  0  0
  -25.1322  -16.0374  147.5372 C   0  0  0  0  0  0  0  0  0  0  0  0
  -24.5163  -18.2968  146.9928 C   0  0  0  0  0  0  0  0  0  0  0  0
  -24.9534  -17.3074  147.9886 C   0  0  0  0  0  0  0  0  0  0  0  0
  -24.8711  -14.1852  145.8109 C   0  0  0  0  0  0  0  0  0  0  0  0
  -25.5241  -13.2608  146.5330 C   0  0  0  0  0  0  0  0  0  0  0  0
  -25.4755  -11.9231  146.2011 C   0  0  0  0  0  0  0  0  0  0  0  0
  -24.1557  -13.7534  144.6751 C   0  0  0  0  0  0  0  0  0  0  0  0
  -23.8778  -12.3081  144.4961 C   0  0  0  0  0  0  0  0  0  0  0  0
  -24.6252  -11.4059  145.2495 C   0  0  0  0  0  0  0  0  0  0  0  0
  -23.7058  -16.2925  144.1821 O   0  0  0  0  0  0  0  0  0  0  0  0
  -25.2796  -17.6940  149.3822 C   0  0  0  0  0  0  0  0  0  0  0  0
  -24.0101  -17.4479  150.6927 Br  0  0  0  0  0  0  0  0  0  0  0  0
  -23.7421  -18.8423  144.9147 O   0  0  0  0  0  0  0  0  0  0  0  0
  -26.4970  -17.0412  149.8400 N   0  0  0  0  0  0  0  0  0  0  0  0
  -26.5682  -10.7588  147.0305 Cl  0  0  0  0  0  0  0  0  0  0  0  0
  -27.5837  -17.5179  149.3218 C   0  0  0  0  0  0  0  0  0  0  0  0
  -28.5652  -17.0113  149.7076 O   0  0  0  0  0  0  0  0  0  0  0  0
  -27.7086  -17.7208  148.0012 O   0  0  0  0  0  0  0  0  0  0  0  0
  -28.4938  -16.8224  147.1892 C   0  0  0  0  0  0  0  0  0  0  0  0
  -28.0251  -16.5853  145.8685 C   0  0  0  0  0  0  0  0  0  0  0  0
  -29.3700  -15.9384  147.7415 C   0  0  0  0  0  0  0  0  0  0  0  0
  -30.0546  -14.8918  147.1254 C   0  0  0  0  0  0  0  0  0  0  0  0
  3  7  1  0
  2 13  1  0
  6 14  1  0
 14 15  1  0
  1 16  1  0
 14 17  1  0
  9 18  1  0
 17 19  1  0
 19 20  2  0
 19 21  1  0
 21 22  1  0
 22 23  1  0
 22 24  1  0
 24 25  1  0
  1  2  2  0
  2  3  1  0
  3  4  2  0
  4  6  1  0
  6  5  2  0
  5  1  1  0
  7  8  2  0
  8  9  1  0
  9 12  2  0
 12 11  1  0
 11 10  2  0
 10  7  1  0
M  END

$$$$
No_1622-/dssg/home/sw_qyf/PocketFlow/Model-Generation-Results/5HT2A_7WC7_rec_A_10.pdb/2024-01-01-03-54-21/
     RDKit          3D

 14 14  0  0  0  0  0  0  0  0999 V2000
  -23.1746  -16.6014  144.8668 C   0  0  0  0  0  0  0  0  0  0  0  0
  -23.8963  -15.5346  144.7885 C   0  0  0  0  0  0  0  0  0  0  0  0
  -25.0303  -15.2549  144.5358 C   0  0  0  0  0  0  0  0  0  0  0  0
  -26.0482  -16.0541  145.3273 C   0  0  0  0  0  0  0  0  0  0  0  0
  -24.1314  -17.6118  145.6547 C   0  0  0  0  0  0  0  0  0  0  0  0
  -25.4664  -17.2664  145.8096 C   0  0  0  0  0  0  0  0  0  0  0  0
  -25.5852  -13.9177  144.0643 C   0  0  0  0  0  0  0  0  0  0  0  0
  -25.9164  -14.0333  142.8736 O   0  0  0  0  0  0  0  0  0  0  0  0
  -23.5870  -18.8808  146.0899 C   0  0  0  0  0  0  0  0  0  0  0  0
  -22.7929  -18.7982  147.0414 O   0  0  0  0  0  0  0  0  0  0  0  0
  -24.0215  -19.9390  145.6631 O   0  0  0  0  0  0  0  0  0  0  0  0
  -25.9573  -12.8756  144.8005 N   0  0  0  0  0  0  0  0  0  0  0  0
  -25.4649  -12.5701  146.1132 C   0  0  0  0  0  0  0  0  0  0  0  0
  -26.0099  -11.2949  146.6177 C   0  0  0  0  0  0  0  0  0  0  0  0
  3  7  1  0
  7  8  1  0
  5  9  1  0
  9 10  1  0
  9 11  2  0
  7 12  1  0
 12 13  1  0
 13 14  2  0
  1  2  2  0
  2  3  1  0
  3  4  2  0
  4  6  1  0
  6  5  2  0
  5  1  1  0
M  END

$$$$
No_1623-/dssg/home/sw_qyf/PocketFlow/Model-Generation-Results/5HT2A_7WC7_rec_A_10.pdb/2024-01-01-03-54-21/
     RDKit          3D

 14 14  0  0  0  0  0  0  0  0999 V2000
  -23.1746  -16.6014  144.8668 C   0  0  0  0  0  0  0  0  0  0  0  0
  -24.0189  -16.0564  145.8445 C   0  0  0  0  0  0  0  0  0  0  0  0
  -24.4850  -14.7380  145.6359 C   0  0  0  0  0  0  0  0  0  0  0  0
  -24.0208  -14.0081  144.6269 C   0  0  0  0  0  0  0  0  0  0  0  0
  -23.3686  -12.7461  145.1561 C   0  0  0  0  0  0  0  0  0  0  0  0
  -24.3490  -16.8813  146.9924 C   0  0  0  0  0  0  0  0  0  0  0  0
  -23.4627  -17.6777  147.5515 C   0  0  0  0  0  0  0  0  0  0  0  0
  -24.0363  -12.0468  146.1662 C   0  0  0  0  0  0  0  0  0  0  0  0
  -25.4181  -12.1333  146.3286 C   0  0  0  0  0  0  0  0  0  0  0  0
  -26.1682  -13.3056  146.5955 C   0  0  0  0  0  0  0  0  0  0  0  0
  -25.8688  -14.5006  145.9181 C   0  0  0  0  0  0  0  0  0  0  0  0
  -23.7825  -18.1892  148.8597 C   0  0  0  0  0  0  0  0  0  0  0  0
  -25.0012  -17.6054  149.4628 C   0  0  0  0  0  0  0  0  0  0  0  0
  -25.8727  -16.7928  148.8878 C   0  0  0  0  0  0  0  0  0  0  0  0
  1  2  1  0
  2  3  1  0
  3  4  1  0
  4  5  1  0
  2  6  1  0
  6  7  2  3
  5  8  1  0
  8  9  1  0
  9 10  1  0
  3 11  1  0
 10 11  1  0
  7 12  1  0
 12 13  2  3
 13 14  1  0
M  END

$$$$
No_1624-/dssg/home/sw_qyf/PocketFlow/Model-Generation-Results/5HT2A_7WC7_rec_A_10.pdb/2024-01-01-03-54-21/
     RDKit          3D

 35 38  0  0  0  0  0  0  0  0999 V2000
  -24.1553  -17.8465  145.7021 C   0  0  0  0  0  0  0  0  0  0  0  0
  -24.2856  -16.6364  145.3494 C   0  0  0  0  0  0  0  0  0  0  0  0
  -25.0033  -15.6772  146.0737 C   0  0  0  0  0  0  0  0  0  0  0  0
  -25.1197  -14.2835  145.7299 C   0  0  0  0  0  0  0  0  0  0  0  0
  -24.2707  -13.8793  144.6500 C   0  0  0  0  0  0  0  0  0  0  0  0
  -24.8686  -18.3355  146.8179 C   0  0  0  0  0  0  0  0  0  0  0  0
  -25.6154  -17.5363  147.5807 C   0  0  0  0  0  0  0  0  0  0  0  0
  -25.7525  -16.1597  147.2668 C   0  0  0  0  0  0  0  0  0  0  0  0
  -23.2441  -14.6989  144.1797 C   0  0  0  0  0  0  0  0  0  0  0  0
  -23.3399  -16.0565  144.3742 C   0  0  0  0  0  0  0  0  0  0  0  0
  -24.9041  -13.3433  146.9322 C   0  0  0  0  0  0  0  0  0  0  0  0
  -25.4951  -12.0057  146.6702 C   0  0  0  0  0  0  0  0  0  0  0  0
  -26.6116  -11.9649  145.7407 C   0  0  0  0  0  0  0  0  0  0  0  0
  -27.7502  -12.5362  146.0267 C   0  0  0  0  0  0  0  0  0  0  0  0
  -28.9894  -11.8995  145.6689 C   0  0  0  0  0  0  0  0  0  0  0  0
  -28.9626  -10.9084  144.6429 C   0  0  0  0  0  0  0  0  0  0  0  0
  -27.6992  -10.4791  144.1999 C   0  0  0  0  0  0  0  0  0  0  0  0
  -26.4997  -10.9484  144.8716 C   0  0  0  0  0  0  0  0  0  0  0  0
  -30.1707  -10.2883  144.1725 C   0  0  0  0  0  0  0  0  0  0  0  0
  -30.3272   -8.8412  144.6798 C   0  0  0  0  0  0  0  0  0  0  0  0
  -30.7085   -7.9277  143.5429 C   0  0  0  0  0  0  0  0  0  0  0  0
  -31.3090   -8.5412  142.4150 C   0  0  0  0  0  0  0  0  0  0  0  0
  -31.0494   -8.0903  141.2645 O   0  0  0  0  0  0  0  0  0  0  0  0
  -32.1535   -9.4872  142.4995 O   0  0  0  0  0  0  0  0  0  0  0  0
  -22.2159  -14.1159  143.6070 O   0  0  0  0  0  0  0  0  0  0  0  0
  -23.5225  -18.7893  145.0061 O   0  0  0  0  0  0  0  0  0  0  0  0
  -29.8756   -8.4292  140.5979 C   0  0  0  0  0  0  0  0  0  0  0  0
  -29.5195   -7.7067  139.4169 C   0  0  0  0  0  0  0  0  0  0  0  0
  -28.4053   -8.1400  138.7035 C   0  0  0  0  0  0  0  0  0  0  0  0
  -27.6542   -9.2843  139.2154 C   0  0  0  0  0  0  0  0  0  0  0  0
  -28.0359   -9.8898  140.4721 C   0  0  0  0  0  0  0  0  0  0  0  0
  -29.1425   -9.4604  141.1222 C   0  0  0  0  0  0  0  0  0  0  0  0
  -27.9700   -7.6147  137.6109 O   0  0  0  0  0  0  0  0  0  0  0  0
  -27.2728  -11.0824  140.9397 C   0  0  0  0  0  0  0  0  0  0  0  0
  -27.9342  -11.8081  141.7049 O   0  0  0  0  0  0  0  0  0  0  0  0
  4 11  1  0
 11 12  1  0
 12 13  1  0
 16 19  1  0
 19 20  1  0
 20 21  1  0
 21 22  1  0
 22 23  1  0
 22 24  2  0
  9 25  1  0
  1 26  1  0
 23 27  1  0
 29 33  1  0
 31 34  1  0
 34 35  1  0
 13 14  2  0
 14 15  1  0
 15 16  2  0
 16 17  1  0
 17 18  2  0
 18 13  1  0
  1  2  2  0
  3  8  2  0
  8  7  1  0
  7  6  2  0
  6  1  1  0
  2  3  1  0
  3  4  1  0
  4  5  2  0
  5  9  1  0
  9 10  2  0
 10  2  1  0
 27 28  2  0
 28 29  1  0
 29 30  2  0
 30 31  1  0
 31 32  2  0
 32 27  1  0
M  END

$$$$
No_1625-/dssg/home/sw_qyf/PocketFlow/Model-Generation-Results/5HT2A_7WC7_rec_A_10.pdb/2024-01-01-03-54-21/
     RDKit          3D

 16 17  0  0  0  0  0  0  0  0999 V2000
  -23.1746  -16.6014  144.8668 C   0  0  0  0  0  0  0  0  0  0  0  0
  -23.8963  -15.5346  144.7885 C   0  0  0  0  0  0  0  0  0  0  0  0
  -24.5755  -15.0383  145.9043 C   0  0  0  0  0  0  0  0  0  0  0  0
  -24.8345  -15.9108  146.9141 C   0  0  0  0  0  0  0  0  0  0  0  0
  -24.1096  -17.0949  147.0955 C   0  0  0  0  0  0  0  0  0  0  0  0
  -23.4822  -17.6194  145.9250 C   0  0  0  0  0  0  0  0  0  0  0  0
  -25.0597  -13.6272  145.9954 C   0  0  0  0  0  0  0  0  0  0  0  0
  -24.0887  -12.5978  146.0851 C   0  0  0  0  0  0  0  0  0  0  0  0
  -26.3901  -13.2771  145.9543 C   0  0  0  0  0  0  0  0  0  0  0  0
  -26.8707  -11.9627  146.0335 C   0  0  0  0  0  0  0  0  0  0  0  0
  -25.8265  -10.9408  145.9208 C   0  0  0  0  0  0  0  0  0  0  0  0
  -24.4999  -11.2535  146.0373 C   0  0  0  0  0  0  0  0  0  0  0  0
  -28.2641  -11.5975  145.9266 C   0  0  0  0  0  0  0  0  0  0  0  0
  -29.0690  -12.0092  147.0476 C   0  0  0  0  0  0  0  0  0  0  0  0
  -30.4480  -11.6722  147.0790 C   0  0  0  0  0  0  0  0  0  0  0  0
  -30.6918  -10.7165  146.1259 N   0  0  0  0  0  0  0  0  0  0  0  0
  1  2  1  0
  2  3  1  0
  3  4  1  0
  4  5  1  0
  1  6  1  0
  5  6  1  0
  3  7  1  0
 10 13  1  0
 13 14  2  3
 14 15  1  0
 15 16  1  0
  7  8  2  0
  8 12  1  0
 12 11  2  0
 11 10  1  0
 10  9  2  0
  9  7  1  0
M  END

$$$$
No_1626-/dssg/home/sw_qyf/PocketFlow/Model-Generation-Results/5HT2A_7WC7_rec_A_10.pdb/2024-01-01-03-54-21/
     RDKit          3D

 35 36  0  0  0  0  0  0  0  0999 V2000
  -24.1553  -17.8465  145.7021 C   0  0  0  0  0  0  0  0  0  0  0  0
  -23.9795  -18.4462  146.7426 C   0  0  0  0  0  0  0  0  0  0  0  0
  -25.1196  -16.8106  145.6409 C   0  0  0  0  0  0  0  0  0  0  0  0
  -25.9236  -16.5070  146.7422 C   0  0  0  0  0  0  0  0  0  0  0  0
  -25.6627  -17.1841  147.9274 C   0  0  0  0  0  0  0  0  0  0  0  0
  -24.6813  -18.1540  148.0079 C   0  0  0  0  0  0  0  0  0  0  0  0
  -26.9716  -15.4553  146.6645 C   0  0  0  0  0  0  0  0  0  0  0  0
  -28.1968  -15.6101  147.2311 C   0  0  0  0  0  0  0  0  0  0  0  0
  -29.1733  -14.6256  147.1740 C   0  0  0  0  0  0  0  0  0  0  0  0
  -28.9088  -13.3960  146.5951 C   0  0  0  0  0  0  0  0  0  0  0  0
  -27.6037  -13.1378  146.0240 C   0  0  0  0  0  0  0  0  0  0  0  0
  -26.6539  -14.1411  146.0868 C   0  0  0  0  0  0  0  0  0  0  0  0
  -27.3262  -11.8258  145.4330 C   0  0  0  0  0  0  0  0  0  0  0  0
  -27.1475  -11.7988  144.1187 C   0  0  0  0  0  0  0  0  0  0  0  0
  -28.3628  -11.4311  143.3710 C   0  0  0  0  0  0  0  0  0  0  0  0
  -29.2344  -10.5115  144.0296 C   0  0  0  0  0  0  0  0  0  0  0  0
  -30.0011   -9.6019  143.3352 C   0  0  0  0  0  0  0  0  0  0  0  0
  -29.7181   -9.3080  142.0601 C   0  0  0  0  0  0  0  0  0  0  0  0
  -28.9270   -8.6741  141.7712 C   0  0  0  0  0  0  0  0  0  0  0  0
  -28.7727   -8.1137  140.2819 C   0  0  0  0  0  0  0  0  0  0  0  0
  -29.6337   -7.1620  139.9478 C   0  0  0  0  0  0  0  0  0  0  0  0
  -27.9620   -8.7597  139.3064 C   0  0  0  0  0  0  0  0  0  0  0  0
  -28.0735   -8.3259  138.0405 C   0  0  0  0  0  0  0  0  0  0  0  0
  -31.1473   -8.9756  144.0388 C   0  0  0  0  0  0  0  0  0  0  0  0
  -27.1246   -9.8622  139.6882 C   0  0  0  0  0  0  0  0  0  0  0  0
  -27.3335  -11.1746  139.8977 N   0  0  0  0  0  0  0  0  0  0  0  0
  -28.3850  -11.7731  140.3549 C   0  0  0  0  0  0  0  0  0  0  0  0
  -26.4256  -12.1158  139.1839 C   0  0  0  0  0  0  0  0  0  0  0  0
  -30.0816  -12.1496  146.5836 Cl  0  0  0  0  0  0  0  0  0  0  0  0
  -25.2378  -16.0682  144.5022 O   0  0  0  0  0  0  0  0  0  0  0  0
  -24.1917  -15.0491  144.3287 C   0  0  0  0  0  0  0  0  0  0  0  0
  -24.6466  -13.7110  143.9485 C   0  0  0  0  0  0  0  0  0  0  0  0
  -24.6007  -12.9023  144.9342 O   0  0  0  0  0  0  0  0  0  0  0  0
  -23.2278  -12.4229  145.0853 C   0  0  0  0  0  0  0  0  0  0  0  0
  -32.1240   -8.6757  143.3365 O   0  0  0  0  0  0  0  0  0  0  0  0
  4  7  1  0
 11 13  1  0
 13 14  1  0
 14 15  1  0
 15 16  2  3
 16 17  1  0
 17 18  1  0
 18 19  2  3
 19 20  1  0
 20 21  2  0
 20 22  1  0
 22 23  1  0
 17 24  1  0
 22 25  1  0
 25 26  1  0
 26 27  1  0
 26 28  1  0
 10 29  1  0
  3 30  1  0
 30 31  1  0
 31 32  2  3
 32 33  1  0
 33 34  1  0
 24 35  1  0
  1  2  2  0
  2  6  1  0
  6  5  2  0
  5  4  1  0
  4  3  2  0
  3  1  1  0
  7  8  2  0
  8  9  1  0
  9 10  2  0
 10 11  1  0
 11 12  2  0
 12  7  1  0
M  END

$$$$
No_1627-/dssg/home/sw_qyf/PocketFlow/Model-Generation-Results/5HT2A_7WC7_rec_A_10.pdb/2024-01-01-03-54-21/
     RDKit          3D

 35 36  0  0  0  0  0  0  0  0999 V2000
  -24.1553  -17.8465  145.7021 C   0  0  0  0  0  0  0  0  0  0  0  0
  -24.2856  -16.6364  145.3494 C   0  0  0  0  0  0  0  0  0  0  0  0
  -25.0033  -15.6772  146.0737 C   0  0  0  0  0  0  0  0  0  0  0  0
  -25.7224  -16.0756  147.0213 C   0  0  0  0  0  0  0  0  0  0  0  0
  -25.4436  -17.2546  147.7755 C   0  0  0  0  0  0  0  0  0  0  0  0
  -24.6852  -18.2947  147.0247 C   0  0  0  0  0  0  0  0  0  0  0  0
  -25.0417  -14.2681  145.5619 C   0  0  0  0  0  0  0  0  0  0  0  0
  -25.0327  -13.3767  146.5544 C   0  0  0  0  0  0  0  0  0  0  0  0
  -25.1357  -11.9012  146.2667 C   0  0  0  0  0  0  0  0  0  0  0  0
  -25.9838  -13.9664  144.4918 C   0  0  0  0  0  0  0  0  0  0  0  0
  -26.4264  -11.6106  145.4251 C   0  0  0  0  0  0  0  0  0  0  0  0
  -26.7973  -10.2630  145.2064 C   0  0  0  0  0  0  0  0  0  0  0  0
  -26.0534  -14.6067  143.2795 C   0  0  0  0  0  0  0  0  0  0  0  0
  -26.3956  -12.4305  144.2498 C   0  0  0  0  0  0  0  0  0  0  0  0
  -23.5821  -16.2746  144.1965 N   0  0  0  0  0  0  0  0  0  0  0  0
  -28.0548  -10.1085  144.4457 C   0  0  0  0  0  0  0  0  0  0  0  0
  -29.1322  -10.8243  144.8939 C   0  0  0  0  0  0  0  0  0  0  0  0
  -29.0151  -11.7086  145.7427 O   0  0  0  0  0  0  0  0  0  0  0  0
  -30.3017  -10.4580  144.5464 O   0  0  0  0  0  0  0  0  0  0  0  0
  -25.6829  -13.8416  142.1492 C   0  0  0  0  0  0  0  0  0  0  0  0
  -26.8195  -13.7274  141.1487 C   0  0  0  0  0  0  0  0  0  0  0  0
  -26.6806  -12.7404  140.1490 C   0  0  0  0  0  0  0  0  0  0  0  0
  -27.8238  -12.0042  139.6729 C   0  0  0  0  0  0  0  0  0  0  0  0
  -27.6224  -10.6348  139.7228 C   0  0  0  0  0  0  0  0  0  0  0  0
  -28.7713   -9.7154  139.9156 C   0  0  0  0  0  0  0  0  0  0  0  0
  -29.2654   -9.5660  141.2555 C   0  0  0  0  0  0  0  0  0  0  0  0
  -30.3095   -8.7137  141.5996 C   0  0  0  0  0  0  0  0  0  0  0  0
  -30.1498   -7.7087  141.8483 C   0  0  0  0  0  0  0  0  0  0  0  0
  -28.8855   -7.0687  141.9529 C   0  0  0  0  0  0  0  0  0  0  0  0
  -28.9297   -5.7129  142.6461 C   0  0  0  0  0  0  0  0  0  0  0  0
  -28.9831   -8.7086  138.9595 C   0  0  0  0  0  0  0  0  0  0  0  0
  -28.3810   -8.6803  137.6781 C   0  0  0  0  0  0  0  0  0  0  0  0
  -25.4702  -17.3627  149.2422 C   0  0  0  0  0  0  0  0  0  0  0  0
  -26.6143  -17.6077  149.7611 O   0  0  0  0  0  0  0  0  0  0  0  0
  -24.3859  -17.4910  150.0180 O   0  0  0  0  0  0  0  0  0  0  0  0
  1  2  1  0
  2  3  1  0
  3  4  1  0
  4  5  1  0
  1  6  1  0
  5  6  1  0
  3  7  1  0
 11 12  1  0
 10 13  1  0
  2 15  1  0
 12 16  1  0
 16 17  1  0
 17 18  2  0
 17 19  1  0
 13 20  1  0
 20 21  1  0
 21 22  1  0
 22 23  2  3
 23 24  1  0
 24 25  1  0
 25 26  2  3
 26 27  1  0
 27 28  2  3
 28 29  1  0
 29 30  2  0
 25 31  1  0
 31 32  1  0
  5 33  1  0
 33 34  2  0
 33 35  1  0
  7  8  2  0
  8  9  1  0
  9 11  2  0
 11 14  1  0
 14 10  2  0
 10  7  1  0
M  END

$$$$
No_1628-/dssg/home/sw_qyf/PocketFlow/Model-Generation-Results/5HT2A_7WC7_rec_A_10.pdb/2024-01-01-03-54-21/
     RDKit          3D

 20 21  0  0  0  0  0  0  0  0999 V2000
  -24.1553  -17.8465  145.7021 C   0  0  0  0  0  0  0  0  0  0  0  0
  -24.2856  -16.6364  145.3494 C   0  0  0  0  0  0  0  0  0  0  0  0
  -25.0033  -15.6772  146.0737 C   0  0  0  0  0  0  0  0  0  0  0  0
  -26.0408  -15.2581  145.8303 C   0  0  0  0  0  0  0  0  0  0  0  0
  -27.2143  -15.7737  146.1843 C   0  0  0  0  0  0  0  0  0  0  0  0
  -28.4089  -15.0626  146.5283 C   0  0  0  0  0  0  0  0  0  0  0  0
  -28.4796  -13.6872  146.2765 C   0  0  0  0  0  0  0  0  0  0  0  0
  -27.2648  -12.9989  145.8451 C   0  0  0  0  0  0  0  0  0  0  0  0
  -27.2303  -11.6019  145.6176 C   0  0  0  0  0  0  0  0  0  0  0  0
  -26.0783  -13.6141  146.0759 C   0  0  0  0  0  0  0  0  0  0  0  0
  -28.2332  -10.9224  144.9012 C   0  0  0  0  0  0  0  0  0  0  0  0
  -27.9048   -9.9733  143.8853 C   0  0  0  0  0  0  0  0  0  0  0  0
  -28.8868   -9.4421  143.0781 C   0  0  0  0  0  0  0  0  0  0  0  0
  -30.1607   -9.1634  143.5802 C   0  0  0  0  0  0  0  0  0  0  0  0
  -31.1334   -8.6111  142.7312 C   0  0  0  0  0  0  0  0  0  0  0  0
  -32.3423   -8.4494  143.1694 N   0  0  0  0  0  0  0  0  0  0  0  0
  -30.8221   -8.0774  141.6477 O   0  0  0  0  0  0  0  0  0  0  0  0
  -23.8345  -18.1192  147.0818 C   0  0  0  0  0  0  0  0  0  0  0  0
  -24.0050  -17.1135  148.0419 C   0  0  0  0  0  0  0  0  0  0  0  0
  -24.6535  -15.8735  147.5490 C   0  0  0  0  0  0  0  0  0  0  0  0
  3  4  1  0
  8  9  1  0
  9 11  1  0
 11 12  2  3
 12 13  1  0
 13 14  2  3
 14 15  1  0
 15 16  1  0
 15 17  2  0
  4  5  2  0
  5  6  1  0
  6  7  2  0
  7  8  1  0
  8 10  2  0
 10  4  1  0
  1  2  2  0
  2  3  1  0
  3 20  2  0
 20 19  1  0
 19 18  2  0
 18  1  1  0
M  END

$$$$
No_1629-/dssg/home/sw_qyf/PocketFlow/Model-Generation-Results/5HT2A_7WC7_rec_A_10.pdb/2024-01-01-03-54-21/
     RDKit          3D

 35 37  0  0  0  0  0  0  0  0999 V2000
  -23.1746  -16.6014  144.8668 C   0  0  0  0  0  0  0  0  0  0  0  0
  -23.8963  -15.5346  144.7885 C   0  0  0  0  0  0  0  0  0  0  0  0
  -23.6398  -14.5115  145.3281 C   0  0  0  0  0  0  0  0  0  0  0  0
  -23.4462  -13.2703  144.4419 C   0  0  0  0  0  0  0  0  0  0  0  0
  -23.0324  -17.0252  146.2523 C   0  0  0  0  0  0  0  0  0  0  0  0
  -23.9446  -16.4769  147.2641 C   0  0  0  0  0  0  0  0  0  0  0  0
  -24.3655  -15.1315  147.4103 C   0  0  0  0  0  0  0  0  0  0  0  0
  -24.4347  -14.1974  146.5161 C   0  0  0  0  0  0  0  0  0  0  0  0
  -23.8954  -12.1709  144.7979 O   0  0  0  0  0  0  0  0  0  0  0  0
  -24.0173  -17.4127  148.5127 C   0  0  0  0  0  0  0  0  0  0  0  0
  -24.9936  -17.1425  149.2227 F   0  0  0  0  0  0  0  0  0  0  0  0
  -22.8967  -17.0083  149.2641 F   0  0  0  0  0  0  0  0  0  0  0  0
  -23.8852  -18.6338  148.1358 F   0  0  0  0  0  0  0  0  0  0  0  0
  -22.2173  -13.2885  143.9227 O   0  0  0  0  0  0  0  0  0  0  0  0
  -24.8920  -12.0970  145.8372 C   0  0  0  0  0  0  0  0  0  0  0  0
  -25.0332  -12.9757  146.8531 C   0  0  0  0  0  0  0  0  0  0  0  0
  -25.8983  -10.8999  145.6240 C   0  0  0  0  0  0  0  0  0  0  0  0
  -26.2922  -10.4722  144.3753 C   0  0  0  0  0  0  0  0  0  0  0  0
  -27.5046   -9.7053  144.3584 C   0  0  0  0  0  0  0  0  0  0  0  0
  -28.4575  -10.0187  143.3966 C   0  0  0  0  0  0  0  0  0  0  0  0
  -29.1008   -9.0111  142.7141 C   0  0  0  0  0  0  0  0  0  0  0  0
  -29.9953   -8.2310  143.3449 C   0  0  0  0  0  0  0  0  0  0  0  0
  -28.8140   -8.8751  141.3167 C   0  0  0  0  0  0  0  0  0  0  0  0
  -29.4051   -7.7408  140.6620 C   0  0  0  0  0  0  0  0  0  0  0  0
  -30.5965   -7.1035  142.6973 C   0  0  0  0  0  0  0  0  0  0  0  0
  -30.3017   -6.8965  141.4007 N   0  0  0  0  0  0  0  0  0  0  0  0
  -29.0740   -7.4239  139.0891 Cl  0  0  0  0  0  0  0  0  0  0  0  0
  -27.9159  -11.0491  142.5602 O   0  0  0  0  0  0  0  0  0  0  0  0
  -27.8926  -12.3106  143.0517 C   0  0  0  0  0  0  0  0  0  0  0  0
  -26.6056  -12.9733  142.6577 C   0  0  0  0  0  0  0  0  0  0  0  0
  -26.3865  -13.3531  141.5215 O   0  0  0  0  0  0  0  0  0  0  0  0
  -27.3270  -13.1533  140.5620 C   0  0  0  0  0  0  0  0  0  0  0  0
  -26.8547  -12.2406  139.5385 C   0  0  0  0  0  0  0  0  0  0  0  0
  -27.2538  -11.2292  139.4529 O   0  0  0  0  0  0  0  0  0  0  0  0
  -25.9013  -12.6500  138.7444 O   0  0  0  0  0  0  0  0  0  0  0  0
  1  2  1  0
  2  3  1  0
  3  4  1  0
  1  5  1  0
  5  6  1  0
  6  7  2  0
  3  8  1  0
  7  8  1  0
  4  9  1  0
  6 10  1  0
 10 11  1  0
 10 12  1  0
 10 13  1  0
  4 14  2  0
  9 15  1  0
  8 16  1  0
 15 16  2  0
 15 17  1  0
 17 18  1  0
 18 19  1  0
 19 20  1  0
 20 21  1  0
 24 27  1  0
 20 28  1  0
 28 29  1  0
 29 30  1  0
 30 31  1  0
 31 32  1  0
 32 33  1  0
 33 34  2  0
 33 35  1  0
 21 22  2  0
 22 25  1  0
 25 26  2  0
 26 24  1  0
 24 23  2  0
 23 21  1  0
M  END

$$$$
No_1630-/dssg/home/sw_qyf/PocketFlow/Model-Generation-Results/5HT2A_7WC7_rec_A_10.pdb/2024-01-01-03-54-21/
     RDKit          3D

 23 25  0  0  0  0  0  0  0  0999 V2000
  -23.1746  -16.6014  144.8668 C   0  0  0  0  0  0  0  0  0  0  0  0
  -24.0189  -16.0564  145.8445 C   0  0  0  0  0  0  0  0  0  0  0  0
  -24.4145  -16.8299  146.9062 C   0  0  0  0  0  0  0  0  0  0  0  0
  -23.9612  -18.1384  147.0126 C   0  0  0  0  0  0  0  0  0  0  0  0
  -23.1429  -18.6221  146.0418 C   0  0  0  0  0  0  0  0  0  0  0  0
  -22.8095  -17.8231  145.0610 N   0  0  0  0  0  0  0  0  0  0  0  0
  -24.5671  -14.6439  145.6745 C   0  0  0  0  0  0  0  0  0  0  0  0
  -25.6755  -14.2339  146.3521 C   0  0  0  0  0  0  0  0  0  0  0  0
  -26.0799  -12.8631  146.3387 C   0  0  0  0  0  0  0  0  0  0  0  0
  -25.4367  -11.9562  145.4880 C   0  0  0  0  0  0  0  0  0  0  0  0
  -24.2830  -12.3664  144.8520 C   0  0  0  0  0  0  0  0  0  0  0  0
  -23.8054  -13.7044  144.9030 C   0  0  0  0  0  0  0  0  0  0  0  0
  -25.8927  -10.6524  145.4478 N   0  0  0  0  0  0  0  0  0  0  0  0
  -26.9389  -10.3033  144.5344 C   0  0  0  0  0  0  0  0  0  0  0  0
  -27.0350   -9.2391  143.8981 C   0  0  0  0  0  0  0  0  0  0  0  0
  -28.2063   -8.8027  143.2281 C   0  0  0  0  0  0  0  0  0  0  0  0
  -29.3308   -9.5906  143.3044 C   0  0  0  0  0  0  0  0  0  0  0  0
  -30.5476   -9.2470  142.6781 C   0  0  0  0  0  0  0  0  0  0  0  0
  -28.0421  -11.1281  144.4660 N   0  0  0  0  0  0  0  0  0  0  0  0
  -29.1969  -10.8078  143.9161 C   0  0  0  0  0  0  0  0  0  0  0  0
  -30.6114   -9.1582  141.6010 O   0  0  0  0  0  0  0  0  0  0  0  0
  -31.6725   -9.0136  143.4445 O   0  0  0  0  0  0  0  0  0  0  0  0
  -22.7452  -14.0107  144.2288 O   0  0  0  0  0  0  0  0  0  0  0  0
  2  7  1  0
 10 13  1  0
 13 14  1  0
 17 18  1  0
 18 21  2  0
 18 22  1  0
 12 23  1  0
 14 15  2  0
 15 16  1  0
 16 17  2  0
 17 20  1  0
 20 19  2  0
 19 14  1  0
  1  2  2  0
  2  3  1  0
  3  4  2  0
  4  5  1  0
  5  6  2  0
  6  1  1  0
  7  8  2  0
  8  9  1  0
  9 10  2  0
 10 11  1  0
 11 12  2  0
 12  7  1  0
M  END

$$$$
No_1631-/dssg/home/sw_qyf/PocketFlow/Model-Generation-Results/5HT2A_7WC7_rec_A_10.pdb/2024-01-01-03-54-21/
     RDKit          3D

 21 22  0  0  0  0  0  0  0  0999 V2000
  -24.1553  -17.8465  145.7021 C   0  0  0  0  0  0  0  0  0  0  0  0
  -24.6364  -17.2931  146.7091 C   0  0  0  0  0  0  0  0  0  0  0  0
  -25.8608  -16.5592  146.5934 C   0  0  0  0  0  0  0  0  0  0  0  0
  -25.9533  -15.5604  145.6681 C   0  0  0  0  0  0  0  0  0  0  0  0
  -27.0179  -14.6632  145.5500 C   0  0  0  0  0  0  0  0  0  0  0  0
  -24.0512  -16.8635  144.5478 C   0  0  0  0  0  0  0  0  0  0  0  0
  -25.0352  -15.8697  144.5502 C   0  0  0  0  0  0  0  0  0  0  0  0
  -26.8557  -13.4925  144.7845 C   0  0  0  0  0  0  0  0  0  0  0  0
  -26.7071  -12.2839  145.4011 C   0  0  0  0  0  0  0  0  0  0  0  0
  -27.1996  -11.1685  145.3091 C   0  0  0  0  0  0  0  0  0  0  0  0
  -28.3669  -10.8614  144.5810 C   0  0  0  0  0  0  0  0  0  0  0  0
  -29.5058  -10.3845  145.0704 C   0  0  0  0  0  0  0  0  0  0  0  0
  -30.4743   -9.9571  144.2029 N   0  0  0  0  0  0  0  0  0  0  0  0
  -30.1410   -9.7541  142.9405 C   0  0  0  0  0  0  0  0  0  0  0  0
  -28.9667  -10.1832  142.3526 C   0  0  0  0  0  0  0  0  0  0  0  0
  -27.9886  -10.7002  143.2542 C   0  0  0  0  0  0  0  0  0  0  0  0
  -31.1550   -9.2575  142.1008 N   0  0  0  0  0  0  0  0  0  0  0  0
  -28.6893  -10.0845  140.9540 C   0  0  0  0  0  0  0  0  0  0  0  0
  -28.6160   -8.7761  140.3759 C   0  0  0  0  0  0  0  0  0  0  0  0
  -28.4795   -8.6386  139.0226 C   0  0  0  0  0  0  0  0  0  0  0  0
  -28.6105   -7.3290  138.4178 C   0  0  0  0  0  0  0  0  0  0  0  0
  1  2  1  0
  2  3  1  0
  3  4  1  0
  4  5  2  3
  1  6  1  0
  4  7  1  0
  6  7  1  0
  5  8  1  0
  8  9  2  3
  9 10  1  0
 14 17  1  0
 15 18  1  0
 18 19  2  3
 19 20  1  0
 20 21  1  0
 10 11  1  0
 11 12  2  0
 12 13  1  0
 13 14  2  0
 14 15  1  0
 15 16  2  0
 16 11  1  0
M  END

$$$$
No_1632-/dssg/home/sw_qyf/PocketFlow/Model-Generation-Results/5HT2A_7WC7_rec_A_10.pdb/2024-01-01-03-54-21/
     RDKit          3D

 15 16  0  0  0  0  0  0  0  0999 V2000
  -24.1553  -17.8465  145.7021 C   0  0  0  0  0  0  0  0  0  0  0  0
  -24.2856  -16.6364  145.3494 C   0  0  0  0  0  0  0  0  0  0  0  0
  -25.0033  -15.6772  146.0737 C   0  0  0  0  0  0  0  0  0  0  0  0
  -25.6964  -16.1810  147.2049 C   0  0  0  0  0  0  0  0  0  0  0  0
  -24.8143  -18.3454  146.8324 C   0  0  0  0  0  0  0  0  0  0  0  0
  -25.5291  -17.4614  147.6373 C   0  0  0  0  0  0  0  0  0  0  0  0
  -23.5869  -16.0353  144.1321 C   0  0  0  0  0  0  0  0  0  0  0  0
  -24.2962  -15.2931  143.4872 F   0  0  0  0  0  0  0  0  0  0  0  0
  -22.4625  -16.3939  143.8438 F   0  0  0  0  0  0  0  0  0  0  0  0
  -25.1315  -14.2190  145.7950 C   0  0  0  0  0  0  0  0  0  0  0  0
  -24.0415  -13.4817  146.0297 C   0  0  0  0  0  0  0  0  0  0  0  0
  -24.0307  -12.0237  145.6341 C   0  0  0  0  0  0  0  0  0  0  0  0
  -25.2938  -11.4408  145.3186 C   0  0  0  0  0  0  0  0  0  0  0  0
  -26.4344  -12.2941  145.2883 C   0  0  0  0  0  0  0  0  0  0  0  0
  -26.3216  -13.6740  145.5331 C   0  0  0  0  0  0  0  0  0  0  0  0
  2  7  1  0
  7  8  1  0
  7  9  1  0
  3 10  1  0
  1  2  2  0
  2  3  1  0
  3  4  2  0
  4  6  1  0
  6  5  2  0
  5  1  1  0
 10 11  2  0
 11 12  1  0
 12 13  2  0
 13 14  1  0
 14 15  2  0
 15 10  1  0
M  END

$$$$
No_1633-/dssg/home/sw_qyf/PocketFlow/Model-Generation-Results/5HT2A_7WC7_rec_A_10.pdb/2024-01-01-03-54-21/
     RDKit          3D

 15 15  0  0  0  0  0  0  0  0999 V2000
  -23.1746  -16.6014  144.8668 C   0  0  0  0  0  0  0  0  0  0  0  0
  -23.8963  -15.5346  144.7885 C   0  0  0  0  0  0  0  0  0  0  0  0
  -25.0304  -15.2549  144.5358 C   0  0  0  0  0  0  0  0  0  0  0  0
  -25.8853  -14.7934  145.2672 C   0  0  0  0  0  0  0  0  0  0  0  0
  -27.3492  -14.8162  145.2842 C   0  0  0  0  0  0  0  0  0  0  0  0
  -28.1066  -14.1519  146.2791 C   0  0  0  0  0  0  0  0  0  0  0  0
  -29.2349  -14.5841  146.8920 C   0  0  0  0  0  0  0  0  0  0  0  0
  -29.9899  -13.7663  147.7540 C   0  0  0  0  0  0  0  0  0  0  0  0
  -29.6368  -12.3877  147.9125 C   0  0  0  0  0  0  0  0  0  0  0  0
  -28.4786  -11.8879  147.2697 C   0  0  0  0  0  0  0  0  0  0  0  0
  -27.7168  -12.7339  146.4454 C   0  0  0  0  0  0  0  0  0  0  0  0
  -23.8247  -17.7086  145.5999 C   0  0  0  0  0  0  0  0  0  0  0  0
  -24.0794  -17.4109  146.9881 C   0  0  0  0  0  0  0  0  0  0  0  0
  -25.3536  -17.6114  147.5522 C   0  0  0  0  0  0  0  0  0  0  0  0
  -25.9298  -16.3904  148.1445 C   0  0  0  0  0  0  0  0  0  0  0  0
  1  2  1  0
  2  3  2  3
  3  4  1  0
  4  5  1  0
  5  6  1  0
  1 12  1  0
 12 13  2  3
 13 14  1  0
 14 15  1  0
  6  7  2  0
  7  8  1  0
  8  9  2  0
  9 10  1  0
 10 11  2  0
 11  6  1  0
M  END

$$$$
No_1634-/dssg/home/sw_qyf/PocketFlow/Model-Generation-Results/5HT2A_7WC7_rec_A_10.pdb/2024-01-01-03-54-21/
     RDKit          3D

 19 20  0  0  0  0  0  0  0  0999 V2000
  -23.8042  -18.1535  145.4053 O   0  0  0  0  0  0  0  0  0  0  0  0
  -24.3135  -17.1214  145.8338 C   0  0  0  0  0  0  0  0  0  0  0  0
  -24.4856  -15.9950  145.0258 C   0  0  0  0  0  0  0  0  0  0  0  0
  -25.3951  -14.9381  145.2879 C   0  0  0  0  0  0  0  0  0  0  0  0
  -25.2282  -13.6469  144.8697 C   0  0  0  0  0  0  0  0  0  0  0  0
  -26.0715  -12.5735  145.2551 C   0  0  0  0  0  0  0  0  0  0  0  0
  -27.3377  -12.9360  145.7230 C   0  0  0  0  0  0  0  0  0  0  0  0
  -27.5746  -14.2314  146.1697 C   0  0  0  0  0  0  0  0  0  0  0  0
  -26.6460  -15.2565  145.9245 C   0  0  0  0  0  0  0  0  0  0  0  0
  -28.8866  -14.5353  146.8148 C   0  0  0  0  0  0  0  0  0  0  0  0
  -29.9203  -13.5888  146.8743 C   0  0  0  0  0  0  0  0  0  0  0  0
  -29.5931  -12.2706  146.4828 C   0  0  0  0  0  0  0  0  0  0  0  0
  -28.3619  -11.8963  145.8909 C   0  0  0  0  0  0  0  0  0  0  0  0
  -30.5774  -11.2929  146.6526 O   0  0  0  0  0  0  0  0  0  0  0  0
  -24.8327  -17.1039  147.0473 O   0  0  0  0  0  0  0  0  0  0  0  0
  -23.9086  -16.0115  143.7943 O   0  0  0  0  0  0  0  0  0  0  0  0
  -25.6806  -11.1956  145.0178 C   0  0  0  0  0  0  0  0  0  0  0  0
  -26.3974  -10.2417  144.7993 O   0  0  0  0  0  0  0  0  0  0  0  0
  -24.4283  -10.8960  145.5644 O   0  0  0  0  0  0  0  0  0  0  0  0
  1  2  1  0
  2  3  1  0
  3  4  1  0
 12 14  1  0
  2 15  2  0
  3 16  2  0
  6 17  1  0
 17 18  2  0
 17 19  1  0
  8 10  1  0
 10 11  2  0
 11 12  1  0
 12 13  2  0
 13  7  1  0
  4  5  2  0
  5  6  1  0
  6  7  2  0
  7  8  1  0
  8  9  2  0
  9  4  1  0
M  END

$$$$
No_1635-/dssg/home/sw_qyf/PocketFlow/Model-Generation-Results/5HT2A_7WC7_rec_A_10.pdb/2024-01-01-03-54-21/
     RDKit          3D

  9  9  0  0  0  0  0  0  0  0999 V2000
  -24.1553  -17.8465  145.7021 C   0  0  0  0  0  0  0  0  0  0  0  0
  -24.2856  -16.6364  145.3494 C   0  0  0  0  0  0  0  0  0  0  0  0
  -24.7211  -15.5955  146.2115 C   0  0  0  0  0  0  0  0  0  0  0  0
  -24.8539  -14.2010  145.8739 C   0  0  0  0  0  0  0  0  0  0  0  0
  -24.1440  -13.8321  144.7074 C   0  0  0  0  0  0  0  0  0  0  0  0
  -23.4275  -14.8130  143.9942 C   0  0  0  0  0  0  0  0  0  0  0  0
  -23.5366  -16.0900  144.3641 N   0  0  0  0  0  0  0  0  0  0  0  0
  -23.4871  -18.3821  146.7583 C   0  0  0  0  0  0  0  0  0  0  0  0
  -23.5314  -19.6731  146.8881 N   0  0  0  0  0  0  0  0  0  0  0  0
  1  2  2  3
  2  3  1  0
  3  4  1  0
  4  5  1  0
  5  6  1  0
  2  7  1  0
  6  7  1  0
  1  8  1  0
  8  9  2  0
M  END

$$$$
No_1636-/dssg/home/sw_qyf/PocketFlow/Model-Generation-Results/5HT2A_7WC7_rec_A_10.pdb/2024-01-01-03-54-21/
     RDKit          3D

 17 18  0  0  0  0  0  0  0  0999 V2000
  -24.1553  -17.8465  145.7021 C   0  0  0  0  0  0  0  0  0  0  0  0
  -23.9795  -18.4462  146.7426 C   0  0  0  0  0  0  0  0  0  0  0  0
  -25.1196  -16.8106  145.6409 C   0  0  0  0  0  0  0  0  0  0  0  0
  -25.9236  -16.5070  146.7422 C   0  0  0  0  0  0  0  0  0  0  0  0
  -25.6627  -17.1841  147.9274 C   0  0  0  0  0  0  0  0  0  0  0  0
  -24.6813  -18.1540  148.0079 C   0  0  0  0  0  0  0  0  0  0  0  0
  -27.0233  -15.6125  146.4379 C   0  0  0  0  0  0  0  0  0  0  0  0
  -27.0269  -14.4201  146.6855 C   0  0  0  0  0  0  0  0  0  0  0  0
  -28.1287  -13.4706  146.5564 C   0  0  0  0  0  0  0  0  0  0  0  0
  -27.9963  -12.1909  146.0493 C   0  0  0  0  0  0  0  0  0  0  0  0
  -26.6974  -11.6582  145.8178 C   0  0  0  0  0  0  0  0  0  0  0  0
  -26.4722  -10.4164  145.2109 C   0  0  0  0  0  0  0  0  0  0  0  0
  -25.5053  -12.5167  146.0753 C   0  0  0  0  0  0  0  0  0  0  0  0
  -24.1740  -12.0173  145.9397 C   0  0  0  0  0  0  0  0  0  0  0  0
  -25.7261  -13.8418  146.2941 C   0  0  0  0  0  0  0  0  0  0  0  0
  -23.7307  -11.8741  144.5322 C   0  0  0  0  0  0  0  0  0  0  0  0
  -22.3270  -11.8712  144.6683 N   0  0  0  0  0  0  0  0  0  0  0  0
  4  7  1  0
 11 12  1  0
 13 14  1  0
 14 16  1  0
 16 17  1  0
  7  8  1  0
  1  2  2  0
  2  6  1  0
  6  5  2  0
  5  4  1  0
  4  3  2  0
  3  1  1  0
  8  9  2  0
  9 10  1  0
 10 11  2  0
 11 13  1  0
 13 15  2  0
 15  8  1  0
M  END

$$$$
No_1637-/dssg/home/sw_qyf/PocketFlow/Model-Generation-Results/5HT2A_7WC7_rec_A_10.pdb/2024-01-01-03-54-21/
     RDKit          3D

 24 26  0  0  0  0  0  0  0  0999 V2000
  -24.0934  -18.1020  145.4883 Cl  0  0  0  0  0  0  0  0  0  0  0  0
  -24.1957  -16.5069  145.7546 C   0  0  0  0  0  0  0  0  0  0  0  0
  -24.0968  -15.6360  144.6517 C   0  0  0  0  0  0  0  0  0  0  0  0
  -24.0212  -14.2354  144.8988 C   0  0  0  0  0  0  0  0  0  0  0  0
  -23.3841  -13.3615  143.9891 C   0  0  0  0  0  0  0  0  0  0  0  0
  -24.2578  -15.9424  147.0972 C   0  0  0  0  0  0  0  0  0  0  0  0
  -24.4899  -16.8780  148.2135 C   0  0  0  0  0  0  0  0  0  0  0  0
  -23.5032  -17.0630  149.1024 C   0  0  0  0  0  0  0  0  0  0  0  0
  -22.3876  -12.6398  144.9036 C   0  0  0  0  0  0  0  0  0  0  0  0
  -23.1808  -11.7513  145.8881 C   0  0  0  0  0  0  0  0  0  0  0  0
  -24.1028  -12.5594  146.7968 C   0  0  0  0  0  0  0  0  0  0  0  0
  -24.7108  -13.6746  146.1283 C   0  0  0  0  0  0  0  0  0  0  0  0
  -23.8242  -17.1005  150.5713 C   0  0  0  0  0  0  0  0  0  0  0  0
  -25.1730  -17.4563  150.9129 C   0  0  0  0  0  0  0  0  0  0  0  0
  -26.1693  -17.2280  149.9154 C   0  0  0  0  0  0  0  0  0  0  0  0
  -25.7931  -16.8902  148.6269 C   0  0  0  0  0  0  0  0  0  0  0  0
  -26.9572  -16.6716  147.9363 N   0  0  0  0  0  0  0  0  0  0  0  0
  -27.0529  -16.3244  146.6723 C   0  0  0  0  0  0  0  0  0  0  0  0
  -26.2641  -16.6813  146.0707 F   0  0  0  0  0  0  0  0  0  0  0  0
  -28.5684  -16.4543  146.3088 C   0  0  0  0  0  0  0  0  0  0  0  0
  -29.4239  -15.8309  147.3331 C   0  0  0  0  0  0  0  0  0  0  0  0
  -28.2306  -16.4487  148.6836 C   0  0  0  0  0  0  0  0  0  0  0  0
  -24.3692  -16.0080  143.5179 O   0  0  0  0  0  0  0  0  0  0  0  0
  -21.4873  -11.9924  144.2401 O   0  0  0  0  0  0  0  0  0  0  0  0
  1  2  1  0
  2  3  1  0
  3  4  1  0
  2  6  1  0
  6  7  1  0
 16 17  1  0
 17 18  1  0
 18 19  1  0
 18 20  1  0
 20 21  1  0
 17 22  1  0
 21 22  1  0
  3 23  2  0
  9 24  1  0
  4  5  2  0
  5  9  1  0
  9 10  2  0
 10 11  1  0
 11 12  2  0
 12  4  1  0
  7  8  2  0
  8 13  1  0
 13 14  2  0
 14 15  1  0
 15 16  2  0
 16  7  1  0
M  END

$$$$
No_1638-/dssg/home/sw_qyf/PocketFlow/Model-Generation-Results/5HT2A_7WC7_rec_A_10.pdb/2024-01-01-03-54-21/
     RDKit          3D

 13 13  0  0  0  0  0  0  0  0999 V2000
  -23.1746  -16.6014  144.8668 C   0  0  0  0  0  0  0  0  0  0  0  0
  -24.0189  -16.0564  145.8445 C   0  0  0  0  0  0  0  0  0  0  0  0
  -24.4850  -14.7380  145.6359 C   0  0  0  0  0  0  0  0  0  0  0  0
  -24.0208  -14.0081  144.6269 C   0  0  0  0  0  0  0  0  0  0  0  0
  -24.4092  -12.5999  144.5318 C   0  0  0  0  0  0  0  0  0  0  0  0
  -25.2165  -12.1839  145.5008 C   0  0  0  0  0  0  0  0  0  0  0  0
  -25.7821  -12.8568  146.5220 C   0  0  0  0  0  0  0  0  0  0  0  0
  -25.3613  -14.2280  146.6461 C   0  0  0  0  0  0  0  0  0  0  0  0
  -24.4140  -16.8566  146.9528 C   0  0  0  0  0  0  0  0  0  0  0  0
  -25.0721  -16.6691  147.9127 C   0  0  0  0  0  0  0  0  0  0  0  0
  -25.2750  -17.5741  149.0232 C   0  0  0  0  0  0  0  0  0  0  0  0
  -25.8994  -17.0630  150.2780 C   0  0  0  0  0  0  0  0  0  0  0  0
  -25.7714  -10.4786  145.3174 Cl  0  0  0  0  0  0  0  0  0  0  0  0
  1  2  1  0
  2  3  1  0
  2  9  1  0
  9 10  2  3
 10 11  1  0
 11 12  2  0
  6 13  1  0
  3  4  2  0
  4  5  1  0
  5  6  2  0
  6  7  1  0
  7  8  2  0
  8  3  1  0
M  END

$$$$
No_1639-/dssg/home/sw_qyf/PocketFlow/Model-Generation-Results/5HT2A_7WC7_rec_A_10.pdb/2024-01-01-03-54-21/
     RDKit          3D

 35 36  0  0  0  0  0  0  0  0999 V2000
  -23.1746  -16.6014  144.8668 C   0  0  0  0  0  0  0  0  0  0  0  0
  -23.7011  -17.0158  145.9774 C   0  0  0  0  0  0  0  0  0  0  0  0
  -23.7336  -18.2775  146.3737 C   0  0  0  0  0  0  0  0  0  0  0  0
  -24.1960  -18.6445  147.6858 C   0  0  0  0  0  0  0  0  0  0  0  0
  -24.7100  -17.6145  148.5486 C   0  0  0  0  0  0  0  0  0  0  0  0
  -24.7929  -16.2635  148.0870 C   0  0  0  0  0  0  0  0  0  0  0  0
  -24.2508  -15.9434  146.8891 C   0  0  0  0  0  0  0  0  0  0  0  0
  -22.4415  -15.6338  144.7979 F   0  0  0  0  0  0  0  0  0  0  0  0
  -24.3596  -16.3378  143.9919 F   0  0  0  0  0  0  0  0  0  0  0  0
  -24.2958  -14.5070  146.5097 C   0  0  0  0  0  0  0  0  0  0  0  0
  -24.1114  -13.9383  145.3428 C   0  0  0  0  0  0  0  0  0  0  0  0
  -24.4600  -12.5225  145.1573 C   0  0  0  0  0  0  0  0  0  0  0  0
  -25.3770  -11.9088  146.0381 C   0  0  0  0  0  0  0  0  0  0  0  0
  -25.7373  -10.5608  145.8252 C   0  0  0  0  0  0  0  0  0  0  0  0
  -26.5818  -10.3641  144.7232 C   0  0  0  0  0  0  0  0  0  0  0  0
  -27.2905  -11.2067  144.2153 C   0  0  0  0  0  0  0  0  0  0  0  0
  -28.5079  -10.8316  144.1343 C   0  0  0  0  0  0  0  0  0  0  0  0
  -29.3970  -10.8505  145.3057 C   0  0  0  0  0  0  0  0  0  0  0  0
  -30.6146  -10.1032  145.3536 C   0  0  0  0  0  0  0  0  0  0  0  0
  -30.9705   -9.2853  144.2724 C   0  0  0  0  0  0  0  0  0  0  0  0
  -30.1755   -9.1613  143.1762 C   0  0  0  0  0  0  0  0  0  0  0  0
  -28.9906   -9.8712  143.0970 C   0  0  0  0  0  0  0  0  0  0  0  0
  -30.5774   -8.3188  142.0746 C   0  0  0  0  0  0  0  0  0  0  0  0
  -31.4919   -7.6563  141.8347 C   0  0  0  0  0  0  0  0  0  0  0  0
  -29.7221   -8.6859  140.7924 C   0  0  0  0  0  0  0  0  0  0  0  0
  -29.6890   -7.6738  139.7885 C   0  0  0  0  0  0  0  0  0  0  0  0
  -28.4043   -7.2773  139.2273 C   0  0  0  0  0  0  0  0  0  0  0  0
  -28.0661   -8.3125  138.1758 C   0  0  0  0  0  0  0  0  0  0  0  0
  -29.0485  -11.7597  146.3988 C   0  0  0  0  0  0  0  0  0  0  0  0
  -29.1195  -11.2960  147.5419 F   0  0  0  0  0  0  0  0  0  0  0  0
  -27.8998  -12.3936  146.1419 F   0  0  0  0  0  0  0  0  0  0  0  0
  -30.1841  -12.5766  146.4748 F   0  0  0  0  0  0  0  0  0  0  0  0
  -29.0304   -9.3230  138.0671 C   0  0  0  0  0  0  0  0  0  0  0  0
  -28.2638  -10.3613  137.1718 C   0  0  0  0  0  0  0  0  0  0  0  0
  -28.9050  -10.7659  136.0098 C   0  0  0  0  0  0  0  0  0  0  0  0
  1  2  1  0
  1  8  1  0
  1  9  1  0
  7 10  1  0
 10 11  2  3
 11 12  1  0
 12 13  2  3
 13 14  1  0
 14 15  1  0
 15 16  1  0
 16 17  1  0
 21 23  1  0
 23 24  2  0
 23 25  1  0
 25 26  1  0
 26 27  1  0
 27 28  1  0
 18 29  1  0
 29 30  1  0
 29 31  1  0
 29 32  1  0
 28 33  1  0
 33 34  1  0
 34 35  1  0
 17 18  2  0
 18 19  1  0
 19 20  2  0
 20 21  1  0
 21 22  2  0
 22 17  1  0
  2  3  2  0
  3  4  1  0
  4  5  2  0
  5  6  1  0
  6  7  2  0
  7  2  1  0
M  END

$$$$
No_1640-/dssg/home/sw_qyf/PocketFlow/Model-Generation-Results/5HT2A_7WC7_rec_A_10.pdb/2024-01-01-03-54-21/
     RDKit          3D

 12 12  0  0  0  0  0  0  0  0999 V2000
  -23.1746  -16.6014  144.8668 C   0  0  0  0  0  0  0  0  0  0  0  0
  -23.7011  -17.0158  145.9774 C   0  0  0  0  0  0  0  0  0  0  0  0
  -24.2134  -16.0722  146.8877 C   0  0  0  0  0  0  0  0  0  0  0  0
  -23.3742  -15.2706  144.3922 C   0  0  0  0  0  0  0  0  0  0  0  0
  -24.0638  -14.3065  145.2723 C   0  0  0  0  0  0  0  0  0  0  0  0
  -24.4769  -14.7246  146.5384 C   0  0  0  0  0  0  0  0  0  0  0  0
  -24.2143  -12.8848  144.8927 C   0  0  0  0  0  0  0  0  0  0  0  0
  -23.0915  -12.3552  144.7723 O   0  0  0  0  0  0  0  0  0  0  0  0
  -25.2567  -12.3663  144.7634 O   0  0  0  0  0  0  0  0  0  0  0  0
  -23.5329  -18.4194  146.4764 C   0  0  0  0  0  0  0  0  0  0  0  0
  -24.3250  -18.9356  147.2782 O   0  0  0  0  0  0  0  0  0  0  0  0
  -22.5506  -19.0959  146.1145 O   0  0  0  0  0  0  0  0  0  0  0  0
  5  7  1  0
  7  8  1  0
  7  9  2  0
  2 10  1  0
 10 11  2  0
 10 12  1  0
  1  2  2  0
  2  3  1  0
  3  6  2  0
  6  5  1  0
  5  4  2  0
  4  1  1  0
M  END

$$$$
No_1641-/dssg/home/sw_qyf/PocketFlow/Model-Generation-Results/5HT2A_7WC7_rec_A_10.pdb/2024-01-01-03-54-21/
     RDKit          3D

 24 24  0  0  0  0  0  0  0  0999 V2000
  -23.1746  -16.6014  144.8668 C   0  0  0  0  0  0  0  0  0  0  0  0
  -23.8963  -15.5346  144.7885 C   0  0  0  0  0  0  0  0  0  0  0  0
  -23.4976  -14.2961  145.1226 C   0  0  0  0  0  0  0  0  0  0  0  0
  -23.9189  -13.0599  144.7480 C   0  0  0  0  0  0  0  0  0  0  0  0
  -22.9866  -12.0510  145.4019 C   0  0  0  0  0  0  0  0  0  0  0  0
  -23.6302  -17.7206  145.4141 C   0  0  0  0  0  0  0  0  0  0  0  0
  -24.7685  -17.6527  146.3627 C   0  0  0  0  0  0  0  0  0  0  0  0
  -24.7664  -18.3293  147.5411 C   0  0  0  0  0  0  0  0  0  0  0  0
  -24.0905  -17.4188  148.6248 C   0  0  0  0  0  0  0  0  0  0  0  0
  -24.7584  -16.7407  149.3857 C   0  0  0  0  0  0  0  0  0  0  0  0
  -24.9288  -12.7974  144.1891 O   0  0  0  0  0  0  0  0  0  0  0  0
  -25.9969  -17.0160  145.9053 C   0  0  0  0  0  0  0  0  0  0  0  0
  -26.2277  -15.6993  145.4640 C   0  0  0  0  0  0  0  0  0  0  0  0
  -27.5623  -15.1072  145.4939 C   0  0  0  0  0  0  0  0  0  0  0  0
  -25.1988  -14.9997  144.7831 C   0  0  0  0  0  0  0  0  0  0  0  0
  -28.2537  -15.3551  146.7433 C   0  0  0  0  0  0  0  0  0  0  0  0
  -29.2850  -14.5293  147.1854 C   0  0  0  0  0  0  0  0  0  0  0  0
  -29.5031  -13.2315  146.7912 C   0  0  0  0  0  0  0  0  0  0  0  0
  -29.0827  -12.7523  145.7446 C   0  0  0  0  0  0  0  0  0  0  0  0
  -29.4812  -11.2861  145.5339 C   0  0  0  0  0  0  0  0  0  0  0  0
  -30.3528  -10.8871  146.3836 F   0  0  0  0  0  0  0  0  0  0  0  0
  -28.3951  -10.3638  145.5222 F   0  0  0  0  0  0  0  0  0  0  0  0
  -29.9097  -11.1322  144.1921 F   0  0  0  0  0  0  0  0  0  0  0  0
  -25.6813  -14.4958  143.6679 O   0  0  0  0  0  0  0  0  0  0  0  0
  1  2  2  0
  2  3  1  0
  3  4  1  0
  4  5  1  0
  1  6  1  0
  6  7  1  0
  7  8  1  0
  8  9  1  0
  9 10  1  0
  4 11  2  0
  7 12  1  0
 12 13  2  0
 13 14  1  0
  2 15  1  0
 13 15  1  0
 14 16  1  0
 16 17  2  3
 17 18  1  0
 18 19  2  3
 19 20  1  0
 20 21  1  0
 20 22  1  0
 20 23  1  0
 15 24  1  0
M  END

$$$$
No_1642-/dssg/home/sw_qyf/PocketFlow/Model-Generation-Results/5HT2A_7WC7_rec_A_10.pdb/2024-01-01-03-54-21/
     RDKit          3D

  9  9  0  0  0  0  0  0  0  0999 V2000
  -23.8931  -18.2534  145.3804 F   0  0  0  0  0  0  0  0  0  0  0  0
  -24.1483  -17.4442  146.3400 C   0  0  0  0  0  0  0  0  0  0  0  0
  -24.4181  -16.0969  145.9075 C   0  0  0  0  0  0  0  0  0  0  0  0
  -24.0584  -15.7140  144.5778 C   0  0  0  0  0  0  0  0  0  0  0  0
  -24.2439  -14.3804  144.1721 C   0  0  0  0  0  0  0  0  0  0  0  0
  -24.7946  -13.4524  145.1420 C   0  0  0  0  0  0  0  0  0  0  0  0
  -25.1847  -13.8637  146.4137 C   0  0  0  0  0  0  0  0  0  0  0  0
  -24.9343  -15.1748  146.8594 C   0  0  0  0  0  0  0  0  0  0  0  0
  -25.2531  -17.8792  147.0802 F   0  0  0  0  0  0  0  0  0  0  0  0
  1  2  1  0
  2  9  1  0
  2  3  1  0
  3  4  2  0
  4  5  1  0
  5  6  2  0
  6  7  1  0
  7  8  2  0
  8  3  1  0
M  END

$$$$
No_1643-/dssg/home/sw_qyf/PocketFlow/Model-Generation-Results/5HT2A_7WC7_rec_A_10.pdb/2024-01-01-03-54-21/
     RDKit          3D

 32 34  0  0  0  0  0  0  0  0999 V2000
  -24.1553  -17.8465  145.7021 C   0  0  0  0  0  0  0  0  0  0  0  0
  -23.9795  -18.4462  146.7426 C   0  0  0  0  0  0  0  0  0  0  0  0
  -25.1196  -16.8106  145.6408 C   0  0  0  0  0  0  0  0  0  0  0  0
  -25.9237  -16.5070  146.7422 C   0  0  0  0  0  0  0  0  0  0  0  0
  -25.6173  -17.2153  147.9099 C   0  0  0  0  0  0  0  0  0  0  0  0
  -24.6179  -18.1473  147.9619 C   0  0  0  0  0  0  0  0  0  0  0  0
  -26.9749  -15.4806  146.6971 C   0  0  0  0  0  0  0  0  0  0  0  0
  -28.1738  -15.7947  146.3281 C   0  0  0  0  0  0  0  0  0  0  0  0
  -29.1439  -14.7837  146.4138 C   0  0  0  0  0  0  0  0  0  0  0  0
  -28.8847  -13.4229  146.7624 C   0  0  0  0  0  0  0  0  0  0  0  0
  -27.4586  -13.0656  146.8634 C   0  0  0  0  0  0  0  0  0  0  0  0
  -26.5543  -14.0881  146.9275 C   0  0  0  0  0  0  0  0  0  0  0  0
  -29.8823  -12.3574  146.6804 C   0  0  0  0  0  0  0  0  0  0  0  0
  -30.7637  -12.5234  145.9538 F   0  0  0  0  0  0  0  0  0  0  0  0
  -30.3731  -12.1201  148.0131 F   0  0  0  0  0  0  0  0  0  0  0  0
  -29.2743  -11.1640  146.3065 F   0  0  0  0  0  0  0  0  0  0  0  0
  -26.2957  -16.8561  149.0635 O   0  0  0  0  0  0  0  0  0  0  0  0
  -23.5427  -18.0703  144.5041 O   0  0  0  0  0  0  0  0  0  0  0  0
  -25.2401  -13.7436  147.1003 O   0  0  0  0  0  0  0  0  0  0  0  0
  -24.6904  -12.5864  146.6768 C   0  0  0  0  0  0  0  0  0  0  0  0
  -24.0537  -12.6335  145.3758 C   0  0  0  0  0  0  0  0  0  0  0  0
  -24.2795  -13.4200  144.5242 O   0  0  0  0  0  0  0  0  0  0  0  0
  -22.9971  -11.8533  145.1778 O   0  0  0  0  0  0  0  0  0  0  0  0
  -26.5766  -17.9246  149.9318 C   0  0  0  0  0  0  0  0  0  0  0  0
  -25.5843  -18.0204  150.9977 C   0  0  0  0  0  0  0  0  0  0  0  0
  -25.4293  -17.1114  151.5465 O   0  0  0  0  0  0  0  0  0  0  0  0
  -27.8834  -17.4097  150.7309 C   0  0  0  0  0  0  0  0  0  0  0  0
  -28.8877  -17.0429  149.9303 C   0  0  0  0  0  0  0  0  0  0  0  0
  -30.1247  -16.6618  150.5366 C   0  0  0  0  0  0  0  0  0  0  0  0
  -30.4072  -16.8565  151.8286 C   0  0  0  0  0  0  0  0  0  0  0  0
  -29.4215  -17.6061  152.5810 C   0  0  0  0  0  0  0  0  0  0  0  0
  -28.1768  -17.9257  152.0494 C   0  0  0  0  0  0  0  0  0  0  0  0
  4  7  1  0
 10 13  1  0
 13 14  1  0
 13 15  1  0
 13 16  1  0
  5 17  1  0
  1 18  1  0
 12 19  1  0
 19 20  1  0
 20 21  1  0
 21 22  1  0
 21 23  2  0
 17 24  1  0
 24 25  1  0
 25 26  1  0
 24 27  1  0
  1  2  2  0
  2  6  1  0
  6  5  2  0
  5  4  1  0
  4  3  2  0
  3  1  1  0
  7  8  2  0
  8  9  1  0
  9 10  2  0
 10 11  1  0
 11 12  2  0
 12  7  1  0
 27 28  2  0
 28 29  1  0
 29 30  2  0
 30 31  1  0
 31 32  2  0
 32 27  1  0
M  END

$$$$
No_1644-/dssg/home/sw_qyf/PocketFlow/Model-Generation-Results/5HT2A_7WC7_rec_A_10.pdb/2024-01-01-03-54-21/
     RDKit          3D

 35 37  0  0  0  0  0  0  0  0999 V2000
  -23.1746  -16.6014  144.8668 C   0  0  0  0  0  0  0  0  0  0  0  0
  -23.8963  -15.5346  144.7885 C   0  0  0  0  0  0  0  0  0  0  0  0
  -23.6398  -14.5115  145.3281 C   0  0  0  0  0  0  0  0  0  0  0  0
  -24.3866  -13.2477  145.3906 C   0  0  0  0  0  0  0  0  0  0  0  0
  -23.7391  -12.0982  145.9891 C   0  0  0  0  0  0  0  0  0  0  0  0
  -23.6016  -17.7406  145.3758 C   0  0  0  0  0  0  0  0  0  0  0  0
  -23.8422  -17.7457  146.8500 C   0  0  0  0  0  0  0  0  0  0  0  0
  -25.1443  -17.6704  147.4162 C   0  0  0  0  0  0  0  0  0  0  0  0
  -26.1336  -16.9141  146.7823 C   0  0  0  0  0  0  0  0  0  0  0  0
  -26.6836  -15.6901  147.4268 C   0  0  0  0  0  0  0  0  0  0  0  0
  -27.0303  -14.5737  146.7616 C   0  0  0  0  0  0  0  0  0  0  0  0
  -26.3996  -13.8386  146.3884 C   0  0  0  0  0  0  0  0  0  0  0  0
  -25.3250  -13.1249  145.4787 C   0  0  0  0  0  0  0  0  0  0  0  0
  -28.4467  -14.6038  146.3106 C   0  0  0  0  0  0  0  0  0  0  0  0
  -29.4003  -14.1975  147.3620 C   0  0  0  0  0  0  0  0  0  0  0  0
  -29.9402  -12.9009  147.3326 C   0  0  0  0  0  0  0  0  0  0  0  0
  -29.4972  -11.8802  146.4948 C   0  0  0  0  0  0  0  0  0  0  0  0
  -30.3420  -10.8686  146.1590 N   0  0  0  0  0  0  0  0  0  0  0  0
  -29.9510  -10.0520  145.1188 C   0  0  0  0  0  0  0  0  0  0  0  0
  -28.8475  -10.4102  144.3646 C   0  0  0  0  0  0  0  0  0  0  0  0
  -27.8753  -11.3868  144.8641 C   0  0  0  0  0  0  0  0  0  0  0  0
  -28.3383  -12.1685  145.8083 C   0  0  0  0  0  0  0  0  0  0  0  0
  -30.7736   -9.1416  144.7491 O   0  0  0  0  0  0  0  0  0  0  0  0
  -28.4736   -9.4872  143.2630 C   0  0  0  0  0  0  0  0  0  0  0  0
  -28.3569  -10.3575  142.0385 C   0  0  0  0  0  0  0  0  0  0  0  0
  -28.2347   -9.7353  140.8133 C   0  0  0  0  0  0  0  0  0  0  0  0
  -27.7107  -10.3285  139.7307 C   0  0  0  0  0  0  0  0  0  0  0  0
  -27.4938  -11.7437  139.7524 C   0  0  0  0  0  0  0  0  0  0  0  0
  -27.8825  -12.4477  140.9847 C   0  0  0  0  0  0  0  0  0  0  0  0
  -28.1741  -11.7359  142.1089 C   0  0  0  0  0  0  0  0  0  0  0  0
  -27.1402  -12.4238  138.6598 N   0  0  0  0  0  0  0  0  0  0  0  0
  -30.9795  -12.6644  148.1750 O   0  0  0  0  0  0  0  0  0  0  0  0
  -22.7925  -17.6361  147.6464 O   0  0  0  0  0  0  0  0  0  0  0  0
  -25.0733  -15.5665  143.8799 C   0  0  0  0  0  0  0  0  0  0  0  0
  -26.7739  -12.5869  147.1961 O   0  0  0  0  0  0  0  0  0  0  0  0
  1  2  1  0
  2  3  2  3
  3  4  1  0
  4  5  2  0
  1  6  1  0
  6  7  1  0
  7  8  1  0
  8  9  1  0
  9 10  2  3
 10 11  1  0
 11 12  2  3
  4 13  1  0
 12 13  1  0
 11 14  1  0
 14 15  1  0
 15 16  1  0
 16 17  1  0
 17 18  1  0
 18 19  1  0
 19 20  1  0
 17 22  1  0
 21 22  1  0
 19 23  2  0
 20 24  1  0
 24 25  1  0
 28 31  1  0
 16 32  2  0
  7 33  1  0
  2 34  1  0
 12 35  1  0
 21 20  1  0
 25 26  2  0
 26 27  1  0
 27 28  2  0
 28 29  1  0
 29 30  2  0
 30 25  1  0
M  END

$$$$
No_1645-/dssg/home/sw_qyf/PocketFlow/Model-Generation-Results/5HT2A_7WC7_rec_A_10.pdb/2024-01-01-03-54-21/
     RDKit          3D

 35 37  0  0  0  0  0  0  0  0999 V2000
  -23.1746  -16.6014  144.8668 C   0  0  0  0  0  0  0  0  0  0  0  0
  -23.7011  -17.0158  145.9774 C   0  0  0  0  0  0  0  0  0  0  0  0
  -24.2134  -16.0722  146.8877 C   0  0  0  0  0  0  0  0  0  0  0  0
  -23.3742  -15.2706  144.3922 C   0  0  0  0  0  0  0  0  0  0  0  0
  -24.0638  -14.3065  145.2723 C   0  0  0  0  0  0  0  0  0  0  0  0
  -24.4769  -14.7246  146.5384 C   0  0  0  0  0  0  0  0  0  0  0  0
  -24.2073  -12.8864  144.8852 C   0  0  0  0  0  0  0  0  0  0  0  0
  -23.0517  -12.1946  145.1237 N   0  0  0  0  0  0  0  0  0  0  0  0
  -23.5414  -18.4408  146.4333 C   0  0  0  0  0  0  0  0  0  0  0  0
  -24.3891  -18.9566  147.1934 O   0  0  0  0  0  0  0  0  0  0  0  0
  -22.5388  -19.0890  146.1176 O   0  0  0  0  0  0  0  0  0  0  0  0
  -25.3135  -12.2517  145.6414 C   0  0  0  0  0  0  0  0  0  0  0  0
  -25.6896  -12.2637  146.7085 C   0  0  0  0  0  0  0  0  0  0  0  0
  -25.9011  -13.5297  147.5279 C   0  0  0  0  0  0  0  0  0  0  0  0
  -25.0992  -14.5318  147.3993 C   0  0  0  0  0  0  0  0  0  0  0  0
  -25.8446  -11.1084  144.7294 C   0  0  0  0  0  0  0  0  0  0  0  0
  -25.1671  -10.3114  144.2404 F   0  0  0  0  0  0  0  0  0  0  0  0
  -26.8098  -10.3430  145.5445 F   0  0  0  0  0  0  0  0  0  0  0  0
  -26.6935  -11.6966  143.8053 F   0  0  0  0  0  0  0  0  0  0  0  0
  -21.7529  -12.5975  144.6965 C   0  0  0  0  0  0  0  0  0  0  0  0
  -21.0999  -11.3736  144.0928 C   0  0  0  0  0  0  0  0  0  0  0  0
  -22.2063  -13.2809  143.5104 F   0  0  0  0  0  0  0  0  0  0  0  0
  -21.4520  -11.1143  142.9822 O   0  0  0  0  0  0  0  0  0  0  0  0
  -25.2603  -15.4575  148.5820 O   0  0  0  0  0  0  0  0  0  0  0  0
  -25.4383  -16.8064  148.4797 C   0  0  0  0  0  0  0  0  0  0  0  0
  -23.7103  -16.5987  147.9617 O   0  0  0  0  0  0  0  0  0  0  0  0
  -25.3590  -17.1818  150.0237 C   0  0  0  0  0  0  0  0  0  0  0  0
  -24.3729  -16.7365  150.8471 C   0  0  0  0  0  0  0  0  0  0  0  0
  -26.7908  -17.1564  150.6034 C   0  0  0  0  0  0  0  0  0  0  0  0
  -27.7808  -17.7114  149.7996 C   0  0  0  0  0  0  0  0  0  0  0  0
  -29.0707  -17.5011  150.2688 C   0  0  0  0  0  0  0  0  0  0  0  0
  -29.4790  -17.9593  151.4823 C   0  0  0  0  0  0  0  0  0  0  0  0
  -30.5178  -17.3583  152.2419 C   0  0  0  0  0  0  0  0  0  0  0  0
  -31.3149  -16.3713  151.5340 C   0  0  0  0  0  0  0  0  0  0  0  0
  -30.8581  -15.9475  150.2373 C   0  0  0  0  0  0  0  0  0  0  0  0
  5  7  1  0
  7  8  1  0
  2  9  1  0
  9 10  2  0
  9 11  1  0
  7 12  1  0
 12 13  2  0
 13 14  1  0
  6 15  1  0
 14 15  2  0
 12 16  1  0
 16 17  1  0
 16 18  1  0
 16 19  1  0
  8 20  1  0
 20 21  1  0
 20 22  1  0
 21 23  1  0
 15 24  1  0
 24 25  1  0
  3 26  1  0
 25 26  1  0
 25 27  1  0
 27 28  1  0
 27 29  1  0
 29 30  1  0
 30 31  2  3
 31 32  1  0
 32 33  2  3
 33 34  1  0
 34 35  2  0
  1  2  2  0
  2  3  1  0
  3  6  2  0
  6  5  1  0
  5  4  2  0
  4  1  1  0
M  END

$$$$
No_1646-/dssg/home/sw_qyf/PocketFlow/Model-Generation-Results/5HT2A_7WC7_rec_A_10.pdb/2024-01-01-03-54-21/
     RDKit          3D

  9 10  0  0  0  0  0  0  0  0999 V2000
  -24.1553  -17.8465  145.7021 C   0  0  0  0  0  0  0  0  0  0  0  0
  -23.9795  -18.4462  146.7426 C   0  0  0  0  0  0  0  0  0  0  0  0
  -23.2486  -17.2339  144.9771 C   0  0  0  0  0  0  0  0  0  0  0  0
  -24.9812  -19.0362  147.5824 C   0  0  0  0  0  0  0  0  0  0  0  0
  -23.7155  -15.8671  144.4834 C   0  0  0  0  0  0  0  0  0  0  0  0
  -24.9738  -15.3159  144.9588 C   0  0  0  0  0  0  0  0  0  0  0  0
  -25.8391  -16.0730  145.7125 C   0  0  0  0  0  0  0  0  0  0  0  0
  -25.3962  -17.3158  146.2011 C   0  0  0  0  0  0  0  0  0  0  0  0
  -26.0655  -18.0706  147.2955 C   0  0  0  0  0  0  0  0  0  0  0  0
  1  2  1  0
  2  4  1  0
  4  9  1  0
  8  9  1  0
  1  3  2  0
  3  5  1  0
  5  6  2  0
  6  7  1  0
  7  8  2  0
  8  1  1  0
M  END

$$$$
No_1647-/dssg/home/sw_qyf/PocketFlow/Model-Generation-Results/5HT2A_7WC7_rec_A_10.pdb/2024-01-01-03-54-21/
     RDKit          3D

 17 19  0  0  0  0  0  0  0  0999 V2000
  -24.1553  -17.8465  145.7021 C   0  0  0  0  0  0  0  0  0  0  0  0
  -24.2856  -16.6364  145.3494 C   0  0  0  0  0  0  0  0  0  0  0  0
  -25.0033  -15.6772  146.0737 C   0  0  0  0  0  0  0  0  0  0  0  0
  -24.8869  -14.2981  145.8377 C   0  0  0  0  0  0  0  0  0  0  0  0
  -24.0229  -13.8996  144.7516 C   0  0  0  0  0  0  0  0  0  0  0  0
  -24.9285  -18.3589  146.7591 C   0  0  0  0  0  0  0  0  0  0  0  0
  -23.2387  -14.8170  144.0919 C   0  0  0  0  0  0  0  0  0  0  0  0
  -23.3448  -16.1149  144.3263 C   0  0  0  0  0  0  0  0  0  0  0  0
  -25.6758  -17.4654  147.5535 C   0  0  0  0  0  0  0  0  0  0  0  0
  -25.7289  -16.1202  147.2873 C   0  0  0  0  0  0  0  0  0  0  0  0
  -25.5924  -13.2569  146.5964 C   0  0  0  0  0  0  0  0  0  0  0  0
  -25.0963  -11.8784  146.4472 C   0  0  0  0  0  0  0  0  0  0  0  0
  -24.6250  -11.5478  145.1692 C   0  0  0  0  0  0  0  0  0  0  0  0
  -23.6751  -12.4724  144.5944 C   0  0  0  0  0  0  0  0  0  0  0  0
  -23.5915  -18.8074  144.9751 O   0  0  0  0  0  0  0  0  0  0  0  0
  -25.7337  -10.9373  147.1924 O   0  0  0  0  0  0  0  0  0  0  0  0
  -23.6664  -20.1472  145.5627 C   0  0  0  0  0  0  0  0  0  0  0  0
  4 11  1  0
 11 12  1  0
 12 13  1  0
  5 14  1  0
 13 14  1  0
  1 15  1  0
 12 16  1  0
 15 17  1  0
  1  2  2  0
  3 10  2  0
 10  9  1  0
  9  6  2  0
  6  1  1  0
  2  3  1  0
  3  4  1  0
  4  5  2  0
  5  7  1  0
  7  8  2  0
  8  2  1  0
M  END

$$$$
No_1648-/dssg/home/sw_qyf/PocketFlow/Model-Generation-Results/5HT2A_7WC7_rec_A_10.pdb/2024-01-01-03-54-21/
     RDKit          3D

 28 30  0  0  0  0  0  0  0  0999 V2000
  -23.1746  -16.6014  144.8668 C   0  0  0  0  0  0  0  0  0  0  0  0
  -23.7011  -17.0158  145.9774 C   0  0  0  0  0  0  0  0  0  0  0  0
  -24.7096  -16.6222  146.3577 C   0  0  0  0  0  0  0  0  0  0  0  0
  -25.4819  -15.5594  145.8226 C   0  0  0  0  0  0  0  0  0  0  0  0
  -26.6929  -14.9922  146.4004 C   0  0  0  0  0  0  0  0  0  0  0  0
  -27.2819  -13.8194  145.9771 C   0  0  0  0  0  0  0  0  0  0  0  0
  -26.5833  -13.1498  144.8922 C   0  0  0  0  0  0  0  0  0  0  0  0
  -25.4012  -13.6253  144.4087 C   0  0  0  0  0  0  0  0  0  0  0  0
  -24.8016  -14.7830  144.8728 C   0  0  0  0  0  0  0  0  0  0  0  0
  -23.6465  -15.3549  144.2997 C   0  0  0  0  0  0  0  0  0  0  0  0
  -27.2755  -11.8972  144.3882 C   0  0  0  0  0  0  0  0  0  0  0  0
  -26.9990  -10.6815  145.0825 C   0  0  0  0  0  0  0  0  0  0  0  0
  -27.5637   -9.4432  144.5444 C   0  0  0  0  0  0  0  0  0  0  0  0
  -28.4605   -9.4616  143.5026 C   0  0  0  0  0  0  0  0  0  0  0  0
  -29.2743   -8.4192  143.1665 C   0  0  0  0  0  0  0  0  0  0  0  0
  -30.0578   -8.3784  141.9972 C   0  0  0  0  0  0  0  0  0  0  0  0
  -29.5096   -8.2643  140.9921 C   0  0  0  0  0  0  0  0  0  0  0  0
  -30.1048   -7.9024  139.7076 C   0  0  0  0  0  0  0  0  0  0  0  0
  -28.0771  -11.8681  143.2465 C   0  0  0  0  0  0  0  0  0  0  0  0
  -28.7729  -10.6692  142.8166 C   0  0  0  0  0  0  0  0  0  0  0  0
  -31.4955   -8.4991  142.1771 C   0  0  0  0  0  0  0  0  0  0  0  0
  -32.1311   -8.7086  141.0914 F   0  0  0  0  0  0  0  0  0  0  0  0
  -32.1369   -8.4968  143.2204 F   0  0  0  0  0  0  0  0  0  0  0  0
  -31.9820   -7.4127  142.3284 O   0  0  0  0  0  0  0  0  0  0  0  0
  -23.0581  -18.3093  146.5583 C   0  0  0  0  0  0  0  0  0  0  0  0
  -28.5645  -13.3085  146.4741 C   0  0  0  0  0  0  0  0  0  0  0  0
  -28.8217  -12.0074  146.9310 C   0  0  0  0  0  0  0  0  0  0  0  0
  -30.0509  -11.6771  147.5792 C   0  0  0  0  0  0  0  0  0  0  0  0
  7 11  1  0
 14 15  1  0
 15 16  1  0
 16 17  2  3
 17 18  1  0
 16 21  1  0
 21 22  1  0
 21 23  1  0
 21 24  1  0
  2 25  1  0
  6 26  1  0
 26 27  2  3
 27 28  1  0
  1  2  2  0
  2  3  1  0
  3  4  2  0
  9 10  2  0
 10  1  1  0
 11 12  2  0
 12 13  1  0
 13 14  2  0
 14 20  1  0
 20 19  2  0
 19 11  1  0
  4  5  1  0
  5  6  2  0
  6  7  1  0
  7  8  2  0
  8  9  1  0
  9  4  1  0
M  END

$$$$
No_1649-/dssg/home/sw_qyf/PocketFlow/Model-Generation-Results/5HT2A_7WC7_rec_A_10.pdb/2024-01-01-03-54-21/
     RDKit          3D

 33 37  0  0  0  0  0  0  0  0999 V2000
  -24.1553  -17.8465  145.7021 C   0  0  0  0  0  0  0  0  0  0  0  0
  -23.9795  -18.4462  146.7426 C   0  0  0  0  0  0  0  0  0  0  0  0
  -25.1196  -16.8106  145.6408 C   0  0  0  0  0  0  0  0  0  0  0  0
  -25.9237  -16.5070  146.7422 C   0  0  0  0  0  0  0  0  0  0  0  0
  -26.9588  -15.5563  146.6457 C   0  0  0  0  0  0  0  0  0  0  0  0
  -28.0525  -15.5152  147.4931 C   0  0  0  0  0  0  0  0  0  0  0  0
  -29.0416  -14.5505  147.3669 C   0  0  0  0  0  0  0  0  0  0  0  0
  -28.8082  -13.4759  146.5131 C   0  0  0  0  0  0  0  0  0  0  0  0
  -27.6872  -13.4084  145.6898 C   0  0  0  0  0  0  0  0  0  0  0  0
  -26.7145  -14.4692  145.7448 C   0  0  0  0  0  0  0  0  0  0  0  0
  -24.6538  -18.2046  147.9623 C   0  0  0  0  0  0  0  0  0  0  0  0
  -25.6709  -17.2178  147.9458 C   0  0  0  0  0  0  0  0  0  0  0  0
  -27.4099  -12.3356  144.7259 C   0  0  0  0  0  0  0  0  0  0  0  0
  -27.3820  -12.5937  143.4493 C   0  0  0  0  0  0  0  0  0  0  0  0
  -27.6402  -11.7260  142.3892 C   0  0  0  0  0  0  0  0  0  0  0  0
  -28.1724  -10.4491  142.7394 C   0  0  0  0  0  0  0  0  0  0  0  0
  -28.0893  -10.0820  144.1891 C   0  0  0  0  0  0  0  0  0  0  0  0
  -27.9031  -11.0708  145.1422 C   0  0  0  0  0  0  0  0  0  0  0  0
  -28.5401   -9.4755  141.8222 C   0  0  0  0  0  0  0  0  0  0  0  0
  -28.3795   -9.5429  140.4942 C   0  0  0  0  0  0  0  0  0  0  0  0
  -28.7872   -8.5269  139.5973 C   0  0  0  0  0  0  0  0  0  0  0  0
  -29.5509   -7.4607  140.0951 C   0  0  0  0  0  0  0  0  0  0  0  0
  -29.8616   -7.4023  141.4811 C   0  0  0  0  0  0  0  0  0  0  0  0
  -29.3460   -8.4093  142.3739 C   0  0  0  0  0  0  0  0  0  0  0  0
  -28.4961   -8.5290  138.1998 C   0  0  0  0  0  0  0  0  0  0  0  0
  -29.7051  -12.4626  146.4814 O   0  0  0  0  0  0  0  0  0  0  0  0
  -30.1524  -12.0146  147.8247 C   0  0  0  0  0  0  0  0  0  0  0  0
  -31.5661  -11.6411  147.8410 C   0  0  0  0  0  0  0  0  0  0  0  0
  -32.2439  -11.9469  149.1064 C   0  0  0  0  0  0  0  0  0  0  0  0
  -33.5838  -11.5755  149.1401 C   0  0  0  0  0  0  0  0  0  0  0  0
  -28.3775   -9.0833  137.1786 N   0  0  0  0  0  0  0  0  0  0  0  0
  -25.1046  -15.9027  144.4464 C   0  0  0  0  0  0  0  0  0  0  0  0
  -25.2224  -14.5742  144.8594 C   0  0  0  0  0  0  0  0  0  0  0  0
  4  5  1  0
  9 13  1  0
 16 19  1  0
 21 25  1  0
  8 26  1  0
 26 27  1  0
 27 28  1  0
 28 29  1  0
 29 30  1  0
 25 31  3  0
  3 32  1  0
 10 33  1  0
 32 33  1  0
  5  6  2  0
  6  7  1  0
  7  8  2  0
  8  9  1  0
  9 10  2  0
 10  5  1  0
 19 20  2  0
 20 21  1  0
 21 22  2  0
 22 23  1  0
 23 24  2  0
 24 19  1  0
  1  2  2  0
  2 11  1  0
 11 12  2  0
 12  4  1  0
  4  3  2  0
  3  1  1  0
 13 14  2  0
 14 15  1  0
 15 16  2  0
 16 17  1  0
 17 18  2  0
 18 13  1  0
M  END

$$$$
No_1650-/dssg/home/sw_qyf/PocketFlow/Model-Generation-Results/5HT2A_7WC7_rec_A_10.pdb/2024-01-01-03-54-21/
     RDKit          3D

 33 34  0  0  0  0  0  0  0  0999 V2000
  -23.1746  -16.6014  144.8668 C   0  0  0  0  0  0  0  0  0  0  0  0
  -24.0189  -16.0564  145.8445 C   0  0  0  0  0  0  0  0  0  0  0  0
  -24.4850  -14.7380  145.6359 C   0  0  0  0  0  0  0  0  0  0  0  0
  -25.2717  -14.0560  146.5949 C   0  0  0  0  0  0  0  0  0  0  0  0
  -25.5669  -12.6700  146.4456 C   0  0  0  0  0  0  0  0  0  0  0  0
  -25.0654  -11.9691  145.3358 C   0  0  0  0  0  0  0  0  0  0  0  0
  -24.1129  -12.6235  144.5148 C   0  0  0  0  0  0  0  0  0  0  0  0
  -23.9103  -14.0235  144.7033 C   0  0  0  0  0  0  0  0  0  0  0  0
  -24.4773  -16.8779  146.9183 C   0  0  0  0  0  0  0  0  0  0  0  0
  -24.0222  -18.0624  147.1808 C   0  0  0  0  0  0  0  0  0  0  0  0
  -23.2737  -18.6931  146.1925 C   0  0  0  0  0  0  0  0  0  0  0  0
  -22.8333  -18.0699  145.1100 N   0  0  0  0  0  0  0  0  0  0  0  0
  -26.1000  -11.2226  144.5700 C   0  0  0  0  0  0  0  0  0  0  0  0
  -25.8389  -10.0232  144.4464 O   0  0  0  0  0  0  0  0  0  0  0  0
  -27.1217  -11.8239  143.9934 N   0  0  0  0  0  0  0  0  0  0  0  0
  -27.5454  -13.1429  144.2131 C   0  0  0  0  0  0  0  0  0  0  0  0
  -27.9728  -11.1393  143.0304 C   0  0  0  0  0  0  0  0  0  0  0  0
  -29.0646  -10.4257  143.5339 C   0  0  0  0  0  0  0  0  0  0  0  0
  -29.9836   -9.7865  142.7234 C   0  0  0  0  0  0  0  0  0  0  0  0
  -31.0742   -8.9777  143.2092 C   0  0  0  0  0  0  0  0  0  0  0  0
  -31.3794   -8.9119  144.4859 O   0  0  0  0  0  0  0  0  0  0  0  0
  -31.5759   -8.0146  142.4301 N   0  0  0  0  0  0  0  0  0  0  0  0
  -29.8308   -9.9350  141.4497 O   0  0  0  0  0  0  0  0  0  0  0  0
  -29.0025   -9.0137  140.9315 C   0  0  0  0  0  0  0  0  0  0  0  0
  -28.6087   -9.2279  139.7152 C   0  0  0  0  0  0  0  0  0  0  0  0
  -27.8061  -10.2472  139.2418 C   0  0  0  0  0  0  0  0  0  0  0  0
  -27.0689  -11.0503  140.2205 C   0  0  0  0  0  0  0  0  0  0  0  0
  -26.9547  -12.4121  139.7663 C   0  0  0  0  0  0  0  0  0  0  0  0
  -28.8525   -8.1367  138.7233 C   0  0  0  0  0  0  0  0  0  0  0  0
  -28.5364   -8.3461  137.4434 N   0  0  0  0  0  0  0  0  0  0  0  0
  -26.5773  -12.6378  138.5755 O   0  0  0  0  0  0  0  0  0  0  0  0
  -29.0265   -6.9092  139.1375 O   0  0  0  0  0  0  0  0  0  0  0  0
  -27.1022  -13.3752  140.6138 O   0  0  0  0  0  0  0  0  0  0  0  0
  2  3  1  0
  6 13  1  0
 13 14  2  0
 13 15  1  0
 15 16  1  0
 15 17  1  0
 17 18  2  3
 18 19  1  0
 19 20  1  0
 20 21  2  0
 20 22  1  0
 19 23  1  0
 23 24  1  0
 24 25  2  3
 25 26  1  0
 26 27  1  0
 27 28  1  0
 25 29  1  0
 29 30  1  0
 28 31  1  0
 29 32  2  0
 28 33  2  0
  1  2  2  0
  2  9  1  0
  9 10  2  0
 10 11  1  0
 11 12  2  0
 12  1  1  0
  3  4  2  0
  4  5  1  0
  5  6  2  0
  6  7  1  0
  7  8  2  0
  8  3  1  0
M  END

$$$$
No_1651-/dssg/home/sw_qyf/PocketFlow/Model-Generation-Results/5HT2A_7WC7_rec_A_10.pdb/2024-01-01-03-54-21/
     RDKit          3D

 35 37  0  0  0  0  0  0  0  0999 V2000
  -23.1746  -16.6014  144.8668 C   0  0  0  0  0  0  0  0  0  0  0  0
  -23.7011  -17.0158  145.9774 C   0  0  0  0  0  0  0  0  0  0  0  0
  -24.2134  -16.0722  146.8877 C   0  0  0  0  0  0  0  0  0  0  0  0
  -25.2064  -15.3422  146.4171 C   0  0  0  0  0  0  0  0  0  0  0  0
  -24.7890  -14.4834  145.3416 C   0  0  0  0  0  0  0  0  0  0  0  0
  -23.8927  -15.2280  144.3874 C   0  0  0  0  0  0  0  0  0  0  0  0
  -25.1890  -13.1385  145.1828 C   0  0  0  0  0  0  0  0  0  0  0  0
  -26.2784  -12.9595  144.4688 C   0  0  0  0  0  0  0  0  0  0  0  0
  -26.9936  -11.7232  144.5555 C   0  0  0  0  0  0  0  0  0  0  0  0
  -28.2885  -11.5275  144.3129 C   0  0  0  0  0  0  0  0  0  0  0  0
  -28.8356  -10.2734  143.8045 C   0  0  0  0  0  0  0  0  0  0  0  0
  -30.1920  -10.0279  143.5534 C   0  0  0  0  0  0  0  0  0  0  0  0
  -30.4999   -8.8729  142.6784 C   0  0  0  0  0  0  0  0  0  0  0  0
  -30.3763   -8.8274  141.6838 C   0  0  0  0  0  0  0  0  0  0  0  0
  -30.2782   -7.5818  140.8231 C   0  0  0  0  0  0  0  0  0  0  0  0
  -24.0076  -12.1782  144.7923 C   0  0  0  0  0  0  0  0  0  0  0  0
  -23.4059  -18.3900  146.4769 C   0  0  0  0  0  0  0  0  0  0  0  0
  -29.6257   -7.6648  139.5543 C   0  0  0  0  0  0  0  0  0  0  0  0
  -28.4918   -8.5214  139.3892 C   0  0  0  0  0  0  0  0  0  0  0  0
  -27.8703   -8.6041  138.1679 C   0  0  0  0  0  0  0  0  0  0  0  0
  -24.1798  -19.1111  146.6375 O   0  0  0  0  0  0  0  0  0  0  0  0
  -22.9075  -12.3434  145.5495 O   0  0  0  0  0  0  0  0  0  0  0  0
  -22.1020  -18.7587  146.4186 O   0  0  0  0  0  0  0  0  0  0  0  0
  -28.0920   -9.4308  140.4739 C   0  0  0  0  0  0  0  0  0  0  0  0
  -27.1246  -10.3797  140.2557 C   0  0  0  0  0  0  0  0  0  0  0  0
  -31.4538   -7.8930  143.4675 C   0  0  0  0  0  0  0  0  0  0  0  0
  -27.6625  -11.7166  139.9477 C   0  0  0  0  0  0  0  0  0  0  0  0
  -28.5649  -12.3444  140.8259 C   0  0  0  0  0  0  0  0  0  0  0  0
  -27.2178  -12.3872  138.7631 C   0  0  0  0  0  0  0  0  0  0  0  0
  -29.2433   -9.8384  141.1008 C   0  0  0  0  0  0  0  0  0  0  0  0
  -29.3832  -11.2342  141.3020 C   0  0  0  0  0  0  0  0  0  0  0  0
  -26.8073  -13.7976  143.6354 O   0  0  0  0  0  0  0  0  0  0  0  0
  -28.5466   -7.8363  137.1289 C   0  0  0  0  0  0  0  0  0  0  0  0
  -25.8997  -12.6982  138.7350 O   0  0  0  0  0  0  0  0  0  0  0  0
  -27.9193  -12.3128  137.7745 O   0  0  0  0  0  0  0  0  0  0  0  0
  1  2  1  0
  2  3  1  0
  3  4  1  0
  4  5  1  0
  1  6  1  0
  5  6  1  0
  5  7  1  0
  7  8  1  0
  8  9  1  0
  9 10  1  0
 10 11  2  3
 11 12  1  0
 12 13  1  0
 13 14  1  0
  7 16  1  0
  2 17  1  0
 17 21  2  0
 16 22  1  0
 17 23  1  0
 13 26  1  0
 27 29  1  0
  8 32  2  0
 20 33  1  0
 29 34  1  0
 29 35  2  0
 20 19  1  0
 24 25  2  0
 25 27  1  0
 27 28  2  0
 28 31  1  0
 31 30  2  0
 14 15  2  0
 15 18  1  0
 18 19  2  0
 19 24  1  0
 24 30  1  0
 30 14  1  0
M  END

$$$$
No_1652-/dssg/home/sw_qyf/PocketFlow/Model-Generation-Results/5HT2A_7WC7_rec_A_10.pdb/2024-01-01-03-54-21/
     RDKit          3D

 14 15  0  0  0  0  0  0  0  0999 V2000
  -23.1746  -16.6014  144.8668 C   0  0  0  0  0  0  0  0  0  0  0  0
  -23.8963  -15.5346  144.7885 C   0  0  0  0  0  0  0  0  0  0  0  0
  -24.5755  -15.0383  145.9043 C   0  0  0  0  0  0  0  0  0  0  0  0
  -25.3266  -13.7882  145.9354 C   0  0  0  0  0  0  0  0  0  0  0  0
  -23.3054  -17.4825  145.9484 C   0  0  0  0  0  0  0  0  0  0  0  0
  -23.9716  -17.0786  147.1155 C   0  0  0  0  0  0  0  0  0  0  0  0
  -24.6279  -15.8542  147.1153 C   0  0  0  0  0  0  0  0  0  0  0  0
  -24.6661  -12.6410  146.3186 C   0  0  0  0  0  0  0  0  0  0  0  0
  -25.3587  -11.3879  146.2957 C   0  0  0  0  0  0  0  0  0  0  0  0
  -26.6718  -11.3137  145.7362 C   0  0  0  0  0  0  0  0  0  0  0  0
  -27.3032  -12.4576  145.3963 C   0  0  0  0  0  0  0  0  0  0  0  0
  -26.6368  -13.7261  145.4618 C   0  0  0  0  0  0  0  0  0  0  0  0
  -23.9592  -17.8640  148.3845 C   0  0  0  0  0  0  0  0  0  0  0  0
  -24.3633  -17.0991  149.6882 C   0  0  0  0  0  0  0  0  0  0  0  0
  3  4  1  0
  6 13  1  0
 13 14  1  0
  4  8  2  0
  8  9  1  0
  9 10  2  0
 10 11  1  0
 11 12  2  0
 12  4  1  0
  1  2  2  0
  2  3  1  0
  3  7  2  0
  7  6  1  0
  6  5  2  0
  5  1  1  0
M  END

$$$$
No_1653-/dssg/home/sw_qyf/PocketFlow/Model-Generation-Results/5HT2A_7WC7_rec_A_10.pdb/2024-01-01-03-54-21/
     RDKit          3D

 35 39  0  0  0  0  0  0  0  0999 V2000
  -23.1746  -16.6014  144.8668 C   0  0  0  0  0  0  0  0  0  0  0  0
  -23.8963  -15.5346  144.7885 C   0  0  0  0  0  0  0  0  0  0  0  0
  -25.0304  -15.2549  144.5358 C   0  0  0  0  0  0  0  0  0  0  0  0
  -25.6045  -13.9524  144.2294 C   0  0  0  0  0  0  0  0  0  0  0  0
  -26.9716  -13.7632  143.8495 C   0  0  0  0  0  0  0  0  0  0  0  0
  -24.0440  -17.7385  145.0423 C   0  0  0  0  0  0  0  0  0  0  0  0
  -25.3719  -17.5333  145.2947 C   0  0  0  0  0  0  0  0  0  0  0  0
  -25.9112  -16.2733  145.0481 C   0  0  0  0  0  0  0  0  0  0  0  0
  -27.4622  -12.5454  143.4380 C   0  0  0  0  0  0  0  0  0  0  0  0
  -27.8685  -12.3540  142.1570 C   0  0  0  0  0  0  0  0  0  0  0  0
  -28.4121  -11.0885  141.6961 C   0  0  0  0  0  0  0  0  0  0  0  0
  -28.6724  -10.8243  140.3498 C   0  0  0  0  0  0  0  0  0  0  0  0
  -28.9253   -9.4919  139.9846 C   0  0  0  0  0  0  0  0  0  0  0  0
  -29.2758   -8.4908  140.9670 C   0  0  0  0  0  0  0  0  0  0  0  0
  -29.1622   -8.7807  142.3361 C   0  0  0  0  0  0  0  0  0  0  0  0
  -28.6754  -10.0821  142.7603 C   0  0  0  0  0  0  0  0  0  0  0  0
  -29.5960   -6.9005  140.4919 Cl  0  0  0  0  0  0  0  0  0  0  0  0
  -27.4904  -13.2131  141.1069 C   0  0  0  0  0  0  0  0  0  0  0  0
  -23.3662  -19.2959  145.3957 Cl  0  0  0  0  0  0  0  0  0  0  0  0
  -27.4857  -12.7570  139.7677 C   0  0  0  0  0  0  0  0  0  0  0  0
  -28.3018  -11.6540  139.4059 C   0  0  0  0  0  0  0  0  0  0  0  0
  -27.8393  -11.5987  144.5441 C   0  0  0  0  0  0  0  0  0  0  0  0
  -28.4528  -10.2861  144.1712 C   0  0  0  0  0  0  0  0  0  0  0  0
  -27.7200  -11.8890  145.9648 C   0  0  0  0  0  0  0  0  0  0  0  0
  -26.6381  -12.0156  146.5627 O   0  0  0  0  0  0  0  0  0  0  0  0
  -28.8310  -12.4871  146.5851 N   0  0  0  0  0  0  0  0  0  0  0  0
  -30.1644  -12.1525  146.3318 C   0  0  0  0  0  0  0  0  0  0  0  0
  -30.8974  -12.2914  147.6870 C   0  0  0  0  0  0  0  0  0  0  0  0
  -30.5058  -13.1902  148.4823 O   0  0  0  0  0  0  0  0  0  0  0  0
  -30.4263  -14.4507  148.1795 C   0  0  0  0  0  0  0  0  0  0  0  0
  -29.1118  -14.7936  147.4347 C   0  0  0  0  0  0  0  0  0  0  0  0
  -28.7370  -16.1628  147.3189 C   0  0  0  0  0  0  0  0  0  0  0  0
  -28.5061  -13.8751  146.5338 C   0  0  0  0  0  0  0  0  0  0  0  0
  -30.8152  -11.0188  148.4276 O   0  0  0  0  0  0  0  0  0  0  0  0
  -28.3603  -16.7881  148.6212 C   0  0  0  0  0  0  0  0  0  0  0  0
  1  2  1  0
  2  3  2  0
  3  4  1  0
  4  5  2  3
  1  6  1  0
  6  7  1  0
  3  8  1  0
  7  8  1  0
  5  9  1  0
  9 10  2  0
 10 11  1  0
 11 12  2  0
 12 13  1  0
 13 14  1  0
 14 15  2  0
 11 16  1  0
 15 16  1  0
 14 17  1  0
 10 18  1  0
  6 19  1  0
 18 20  2  0
 12 21  1  0
 20 21  1  0
  9 22  1  0
 16 23  1  0
 22 23  1  0
 22 24  1  0
 24 25  1  0
 24 26  1  0
 26 27  1  0
 27 28  1  0
 28 29  1  0
 29 30  1  0
 30 31  1  0
 31 32  1  0
 26 33  1  0
 31 33  1  0
 28 34  1  0
 32 35  1  0
M  END

$$$$
No_1654-/dssg/home/sw_qyf/PocketFlow/Model-Generation-Results/5HT2A_7WC7_rec_A_10.pdb/2024-01-01-03-54-21/
     RDKit          3D

 18 18  0  0  0  0  0  0  0  0999 V2000
  -23.1746  -16.6014  144.8668 C   0  0  0  0  0  0  0  0  0  0  0  0
  -24.0189  -16.0564  145.8445 C   0  0  0  0  0  0  0  0  0  0  0  0
  -24.4850  -14.7380  145.6359 C   0  0  0  0  0  0  0  0  0  0  0  0
  -25.2717  -14.0560  146.5949 C   0  0  0  0  0  0  0  0  0  0  0  0
  -26.3551  -13.4282  146.0390 C   0  0  0  0  0  0  0  0  0  0  0  0
  -26.1863  -12.4524  145.0885 C   0  0  0  0  0  0  0  0  0  0  0  0
  -27.3138  -11.7513  144.6233 C   0  0  0  0  0  0  0  0  0  0  0  0
  -28.4331  -11.4309  145.4864 C   0  0  0  0  0  0  0  0  0  0  0  0
  -28.7379  -12.4436  146.5087 C   0  0  0  0  0  0  0  0  0  0  0  0
  -27.5761  -13.2791  146.9415 C   0  0  0  0  0  0  0  0  0  0  0  0
  -29.5891  -10.6198  145.0469 C   0  0  0  0  0  0  0  0  0  0  0  0
  -30.4369  -10.2979  145.9605 O   0  0  0  0  0  0  0  0  0  0  0  0
  -29.4313   -9.8804  144.0419 O   0  0  0  0  0  0  0  0  0  0  0  0
  -24.3786  -16.7987  146.9689 C   0  0  0  0  0  0  0  0  0  0  0  0
  -25.0366  -16.5235  147.9882 C   0  0  0  0  0  0  0  0  0  0  0  0
  -25.5371  -17.3890  148.7236 C   0  0  0  0  0  0  0  0  0  0  0  0
  -26.2577  -16.9528  150.0143 C   0  0  0  0  0  0  0  0  0  0  0  0
  -24.0506  -14.0656  144.4731 C   0  0  0  0  0  0  0  0  0  0  0  0
  1  2  1  0
  2  3  1  0
  3  4  1  0
  4  5  1  0
  8 11  1  0
 11 12  1  0
 11 13  2  0
  2 14  1  0
 14 15  1  0
 15 16  2  3
 16 17  1  0
  3 18  1  0
  5  6  2  0
  6  7  1  0
  7  8  2  0
  8  9  1  0
  9 10  2  0
 10  5  1  0
M  END

$$$$
No_1655-/dssg/home/sw_qyf/PocketFlow/Model-Generation-Results/5HT2A_7WC7_rec_A_10.pdb/2024-01-01-03-54-21/
     RDKit          3D

 25 27  0  0  0  0  0  0  0  0999 V2000
  -24.1553  -17.8465  145.7021 C   0  0  0  0  0  0  0  0  0  0  0  0
  -24.2856  -16.6364  145.3494 C   0  0  0  0  0  0  0  0  0  0  0  0
  -24.7211  -15.5955  146.2115 C   0  0  0  0  0  0  0  0  0  0  0  0
  -25.1322  -16.0374  147.5372 C   0  0  0  0  0  0  0  0  0  0  0  0
  -24.5141  -18.2630  147.0046 C   0  0  0  0  0  0  0  0  0  0  0  0
  -24.9573  -17.2963  147.9768 C   0  0  0  0  0  0  0  0  0  0  0  0
  -24.8269  -14.2288  145.6001 C   0  0  0  0  0  0  0  0  0  0  0  0
  -25.5537  -13.2817  146.2561 C   0  0  0  0  0  0  0  0  0  0  0  0
  -25.6263  -11.9858  145.7345 C   0  0  0  0  0  0  0  0  0  0  0  0
  -24.1056  -13.9197  144.5299 C   0  0  0  0  0  0  0  0  0  0  0  0
  -23.6264  -14.7822  143.7730 F   0  0  0  0  0  0  0  0  0  0  0  0
  -23.7173  -12.5081  144.3307 C   0  0  0  0  0  0  0  0  0  0  0  0
  -24.6247  -11.5424  144.9117 C   0  0  0  0  0  0  0  0  0  0  0  0
  -25.2709  -17.6889  149.3705 C   0  0  0  0  0  0  0  0  0  0  0  0
  -24.4575  -17.3451  150.4060 N   0  0  0  0  0  0  0  0  0  0  0  0
  -23.1392  -17.1297  150.2225 C   0  0  0  0  0  0  0  0  0  0  0  0
  -22.5330  -17.2328  149.2234 F   0  0  0  0  0  0  0  0  0  0  0  0
  -22.3841  -16.8071  151.3581 O   0  0  0  0  0  0  0  0  0  0  0  0
  -26.3607  -10.9763  146.3798 O   0  0  0  0  0  0  0  0  0  0  0  0
  -27.6537  -11.0513  146.0331 C   0  0  0  0  0  0  0  0  0  0  0  0
  -28.8302  -11.4478  146.4648 C   0  0  0  0  0  0  0  0  0  0  0  0
  -30.0354  -11.1577  145.9183 C   0  0  0  0  0  0  0  0  0  0  0  0
  -29.9989  -10.3100  144.7946 C   0  0  0  0  0  0  0  0  0  0  0  0
  -28.8700   -9.8258  144.2355 C   0  0  0  0  0  0  0  0  0  0  0  0
  -27.6500  -10.1598  144.7446 C   0  0  0  0  0  0  0  0  0  0  0  0
  3  7  1  0
 10 11  1  0
  6 14  1  0
 14 15  1  0
 15 16  1  0
 16 17  1  0
 16 18  1  0
  9 19  1  0
 19 20  1  0
  7  8  2  0
  8  9  1  0
  9 13  2  0
 13 12  1  0
 12 10  2  0
 10  7  1  0
  1  2  2  0
  2  3  1  0
  3  4  2  0
  4  6  1  0
  6  5  2  0
  5  1  1  0
 20 21  2  0
 21 22  1  0
 22 23  2  0
 23 24  1  0
 24 25  2  0
 25 20  1  0
M  END

$$$$
No_1656-/dssg/home/sw_qyf/PocketFlow/Model-Generation-Results/5HT2A_7WC7_rec_A_10.pdb/2024-01-01-03-54-21/
     RDKit          3D

 21 22  0  0  0  0  0  0  0  0999 V2000
  -23.1746  -16.6014  144.8668 C   0  0  0  0  0  0  0  0  0  0  0  0
  -24.0189  -16.0564  145.8445 C   0  0  0  0  0  0  0  0  0  0  0  0
  -24.4145  -16.8299  146.9062 C   0  0  0  0  0  0  0  0  0  0  0  0
  -23.8925  -17.9780  147.0944 C   0  0  0  0  0  0  0  0  0  0  0  0
  -23.0516  -18.5662  146.1819 C   0  0  0  0  0  0  0  0  0  0  0  0
  -22.7171  -17.7851  145.1421 N   0  0  0  0  0  0  0  0  0  0  0  0
  -24.6214  -14.6627  145.5820 C   0  0  0  0  0  0  0  0  0  0  0  0
  -23.7791  -13.6254  145.6492 C   0  0  0  0  0  0  0  0  0  0  0  0
  -24.2431  -12.2309  145.5117 C   0  0  0  0  0  0  0  0  0  0  0  0
  -25.6154  -11.9490  145.4991 C   0  0  0  0  0  0  0  0  0  0  0  0
  -26.5098  -13.0434  145.5925 C   0  0  0  0  0  0  0  0  0  0  0  0
  -26.0511  -14.3984  145.6465 C   0  0  0  0  0  0  0  0  0  0  0  0
  -27.9842  -12.7195  145.7104 C   0  0  0  0  0  0  0  0  0  0  0  0
  -28.5348  -11.7066  144.9102 C   0  0  0  0  0  0  0  0  0  0  0  0
  -29.2335  -10.7972  145.0487 C   0  0  0  0  0  0  0  0  0  0  0  0
  -29.8260   -9.8351  144.1387 C   0  0  0  0  0  0  0  0  0  0  0  0
  -29.4062  -10.0824  142.8120 C   0  0  0  0  0  0  0  0  0  0  0  0
  -29.9134   -9.3549  141.7362 C   0  0  0  0  0  0  0  0  0  0  0  0
  -29.1125   -8.7957  140.7041 C   0  0  0  0  0  0  0  0  0  0  0  0
  -28.2295   -9.6138  140.0420 C   0  0  0  0  0  0  0  0  0  0  0  0
  -27.5355   -9.1801  138.9164 C   0  0  0  0  0  0  0  0  0  0  0  0
  2  7  1  0
 11 13  1  0
 13 14  2  3
 14 15  1  0
 15 16  2  3
 16 17  1  0
 17 18  1  0
 18 19  1  0
 19 20  1  0
 20 21  2  0
  1  2  2  0
  2  3  1  0
  3  4  2  0
  4  5  1  0
  5  6  2  0
  6  1  1  0
  7  8  2  0
  8  9  1  0
  9 10  2  0
 10 11  1  0
 11 12  2  0
 12  7  1  0
M  END

$$$$
No_1657-/dssg/home/sw_qyf/PocketFlow/Model-Generation-Results/5HT2A_7WC7_rec_A_10.pdb/2024-01-01-03-54-21/
     RDKit          3D

 32 34  0  0  0  0  0  0  0  0999 V2000
  -24.1553  -17.8465  145.7021 C   0  0  0  0  0  0  0  0  0  0  0  0
  -24.6364  -17.2931  146.7091 C   0  0  0  0  0  0  0  0  0  0  0  0
  -24.0780  -17.2921  147.9389 C   0  0  0  0  0  0  0  0  0  0  0  0
  -24.6869  -16.7004  149.1440 C   0  0  0  0  0  0  0  0  0  0  0  0
  -26.0385  -16.2385  148.9552 C   0  0  0  0  0  0  0  0  0  0  0  0
  -26.6430  -16.2999  147.7413 C   0  0  0  0  0  0  0  0  0  0  0  0
  -25.9652  -16.9120  146.6641 C   0  0  0  0  0  0  0  0  0  0  0  0
  -23.7856  -16.8939  144.5670 C   0  0  0  0  0  0  0  0  0  0  0  0
  -23.6065  -15.4814  145.1541 C   0  0  0  0  0  0  0  0  0  0  0  0
  -24.5587  -14.7175  145.7039 C   0  0  0  0  0  0  0  0  0  0  0  0
  -24.2546  -13.2905  145.8278 C   0  0  0  0  0  0  0  0  0  0  0  0
  -25.1896  -12.4765  146.6276 C   0  0  0  0  0  0  0  0  0  0  0  0
  -26.1637  -11.8267  145.9612 C   0  0  0  0  0  0  0  0  0  0  0  0
  -27.5155  -11.9749  146.1536 C   0  0  0  0  0  0  0  0  0  0  0  0
  -28.4966  -11.1846  145.4799 C   0  0  0  0  0  0  0  0  0  0  0  0
  -28.1166  -10.2519  144.4791 C   0  0  0  0  0  0  0  0  0  0  0  0
  -29.0545   -9.4402  143.8085 C   0  0  0  0  0  0  0  0  0  0  0  0
  -30.3972   -9.5297  144.1900 C   0  0  0  0  0  0  0  0  0  0  0  0
  -30.6684  -10.3651  145.3774 C   0  0  0  0  0  0  0  0  0  0  0  0
  -29.7962  -11.1271  145.9985 C   0  0  0  0  0  0  0  0  0  0  0  0
  -31.4195   -8.7309  143.5955 C   0  0  0  0  0  0  0  0  0  0  0  0
  -31.4794   -7.6076  143.5048 O   0  0  0  0  0  0  0  0  0  0  0  0
  -32.4339   -9.4908  143.0977 O   0  0  0  0  0  0  0  0  0  0  0  0
  -22.8808  -12.9440  146.1419 C   0  0  0  0  0  0  0  0  0  0  0  0
  -23.7652  -19.1721  145.5697 C   0  0  0  0  0  0  0  0  0  0  0  0
  -22.6596  -11.7949  145.0621 C   0  0  0  0  0  0  0  0  0  0  0  0
  -28.0292  -15.8056  147.6418 C   0  0  0  0  0  0  0  0  0  0  0  0
  -28.7453  -15.6770  146.6584 C   0  0  0  0  0  0  0  0  0  0  0  0
  -30.0847  -15.0244  146.6551 C   0  0  0  0  0  0  0  0  0  0  0  0
  -30.4026  -14.3563  147.9416 C   0  0  0  0  0  0  0  0  0  0  0  0
  -29.7203  -14.6373  149.0933 C   0  0  0  0  0  0  0  0  0  0  0  0
  -28.5679  -15.2309  148.9820 C   0  0  0  0  0  0  0  0  0  0  0  0
  1  2  1  0
  1  8  1  0
  8  9  1  0
  9 10  1  0
 10 11  2  3
 11 12  1  0
 12 13  1  0
 13 14  2  3
 14 15  1  0
 18 21  1  0
 21 22  2  0
 21 23  1  0
 11 24  1  0
  1 25  1  0
 24 26  1  0
  6 27  1  0
 15 16  2  0
 16 17  1  0
 17 18  2  0
 18 19  1  0
 19 20  2  0
 20 15  1  0
  2  3  2  0
  3  4  1  0
  4  5  2  0
  5  6  1  0
  6  7  2  0
  7  2  1  0
 27 28  2  0
 28 29  1  0
 29 30  2  0
 30 31  1  0
 31 32  2  0
 32 27  1  0
M  END

$$$$
No_1658-/dssg/home/sw_qyf/PocketFlow/Model-Generation-Results/5HT2A_7WC7_rec_A_10.pdb/2024-01-01-03-54-21/
     RDKit          3D

 26 30  0  0  0  0  0  0  0  0999 V2000
  -24.1553  -17.8465  145.7021 C   0  0  0  0  0  0  0  0  0  0  0  0
  -23.9795  -18.4462  146.7426 C   0  0  0  0  0  0  0  0  0  0  0  0
  -25.1196  -16.8106  145.6409 C   0  0  0  0  0  0  0  0  0  0  0  0
  -25.2440  -15.8776  144.5240 C   0  0  0  0  0  0  0  0  0  0  0  0
  -26.0733  -14.7284  144.7061 C   0  0  0  0  0  0  0  0  0  0  0  0
  -26.0749  -13.6607  143.7626 C   0  0  0  0  0  0  0  0  0  0  0  0
  -24.5491  -18.0521  147.9995 C   0  0  0  0  0  0  0  0  0  0  0  0
  -25.4112  -16.9742  148.0640 C   0  0  0  0  0  0  0  0  0  0  0  0
  -25.6107  -16.2038  146.8886 C   0  0  0  0  0  0  0  0  0  0  0  0
  -27.0144  -12.6487  143.8916 C   0  0  0  0  0  0  0  0  0  0  0  0
  -27.3261  -11.8039  142.8272 C   0  0  0  0  0  0  0  0  0  0  0  0
  -28.2278  -10.7101  143.0369 C   0  0  0  0  0  0  0  0  0  0  0  0
  -28.8445  -10.6029  144.3681 C   0  0  0  0  0  0  0  0  0  0  0  0
  -28.4267  -11.4366  145.4237 C   0  0  0  0  0  0  0  0  0  0  0  0
  -27.5433  -12.4544  145.2089 C   0  0  0  0  0  0  0  0  0  0  0  0
  -28.6895   -9.8702  141.9924 C   0  0  0  0  0  0  0  0  0  0  0  0
  -28.4887  -10.1490  140.6950 C   0  0  0  0  0  0  0  0  0  0  0  0
  -28.5088   -9.0360  139.8563 C   0  0  0  0  0  0  0  0  0  0  0  0
  -28.0683   -9.1102  138.4689 C   0  0  0  0  0  0  0  0  0  0  0  0
  -28.2037   -7.8747  137.7523 C   0  0  0  0  0  0  0  0  0  0  0  0
  -29.6508   -8.8676  142.2327 C   0  0  0  0  0  0  0  0  0  0  0  0
  -29.9760   -7.8567  141.3817 C   0  0  0  0  0  0  0  0  0  0  0  0
  -29.4461   -7.9649  140.0869 C   0  0  0  0  0  0  0  0  0  0  0  0
  -26.4368  -15.0653  146.8211 C   0  0  0  0  0  0  0  0  0  0  0  0
  -26.6219  -14.1859  145.9382 C   0  0  0  0  0  0  0  0  0  0  0  0
  -27.4277  -13.1803  146.0998 C   0  0  0  0  0  0  0  0  0  0  0  0
  3  4  1  0
  4  5  1  0
 12 16  1  0
 18 19  1  0
 19 20  2  0
  9 24  1  0
 24 25  1  0
  5  6  2  0
  6 10  1  0
 15 26  1  0
 26 25  2  0
 25  5  1  0
 16 17  2  0
 17 18  1  0
 18 23  2  0
 23 22  1  0
 22 21  2  0
 21 16  1  0
  1  2  2  0
  2  7  1  0
  7  8  2  0
  8  9  1  0
  9  3  2  0
  3  1  1  0
 10 11  2  0
 11 12  1  0
 12 13  2  0
 13 14  1  0
 14 15  2  0
 15 10  1  0
M  END

$$$$
No_1659-/dssg/home/sw_qyf/PocketFlow/Model-Generation-Results/5HT2A_7WC7_rec_A_10.pdb/2024-01-01-03-54-21/
     RDKit          3D

 29 32  0  0  0  0  0  0  0  0999 V2000
  -24.1553  -17.8465  145.7021 C   0  0  0  0  0  0  0  0  0  0  0  0
  -23.9795  -18.4462  146.7426 C   0  0  0  0  0  0  0  0  0  0  0  0
  -25.1196  -16.8106  145.6408 C   0  0  0  0  0  0  0  0  0  0  0  0
  -25.9237  -16.5070  146.7422 C   0  0  0  0  0  0  0  0  0  0  0  0
  -26.9588  -15.5563  146.6457 C   0  0  0  0  0  0  0  0  0  0  0  0
  -28.0525  -15.5152  147.4931 C   0  0  0  0  0  0  0  0  0  0  0  0
  -24.6778  -18.1822  147.9447 C   0  0  0  0  0  0  0  0  0  0  0  0
  -25.6764  -17.1706  147.9456 C   0  0  0  0  0  0  0  0  0  0  0  0
  -29.0391  -14.5145  147.4097 C   0  0  0  0  0  0  0  0  0  0  0  0
  -30.1714  -14.4346  148.2509 C   0  0  0  0  0  0  0  0  0  0  0  0
  -31.0343  -13.3396  148.1776 C   0  0  0  0  0  0  0  0  0  0  0  0
  -30.4954  -12.2079  147.4845 C   0  0  0  0  0  0  0  0  0  0  0  0
  -29.2697  -12.1616  146.8574 C   0  0  0  0  0  0  0  0  0  0  0  0
  -28.4906  -13.3343  146.8839 C   0  0  0  0  0  0  0  0  0  0  0  0
  -27.1086  -14.4223  145.8512 C   0  0  0  0  0  0  0  0  0  0  0  0
  -27.6542  -13.4878  145.8173 N   0  0  0  0  0  0  0  0  0  0  0  0
  -28.9392  -11.0679  146.1579 O   0  0  0  0  0  0  0  0  0  0  0  0
  -29.1283  -10.9002  144.8059 C   0  0  0  0  0  0  0  0  0  0  0  0
  -28.0917  -10.5355  143.9808 C   0  0  0  0  0  0  0  0  0  0  0  0
  -28.3039  -10.1527  142.6928 C   0  0  0  0  0  0  0  0  0  0  0  0
  -29.2416   -9.1235  142.3151 C   0  0  0  0  0  0  0  0  0  0  0  0
  -29.3034   -8.6843  140.9839 C   0  0  0  0  0  0  0  0  0  0  0  0
  -28.5100   -9.2355  139.9628 C   0  0  0  0  0  0  0  0  0  0  0  0
  -27.5343  -10.2547  140.3928 C   0  0  0  0  0  0  0  0  0  0  0  0
  -27.4627  -10.6288  141.7378 C   0  0  0  0  0  0  0  0  0  0  0  0
  -28.4803   -8.7546  138.6145 C   0  0  0  0  0  0  0  0  0  0  0  0
  -29.0164   -7.8006  138.3750 O   0  0  0  0  0  0  0  0  0  0  0  0
  -27.5156   -9.0984  137.8868 O   0  0  0  0  0  0  0  0  0  0  0  0
  -26.0053  -14.4260  144.8578 O   0  0  0  0  0  0  0  0  0  0  0  0
  4  5  1  0
  6  9  1  0
  5 15  1  0
 14 16  1  0
 15 16  1  0
 13 17  1  0
 17 18  1  0
 18 19  1  0
 23 26  1  0
 26 27  2  0
 26 28  1  0
 15 29  2  0
 19 20  1  0
  5  6  1  0
  9 10  2  0
 10 11  1  0
 11 12  2  0
 12 13  1  0
 13 14  2  0
 14  9  1  0
 20 21  2  0
 21 22  1  0
 22 23  2  0
 23 24  1  0
 24 25  2  0
 25 20  1  0
  1  2  2  0
  2  7  1  0
  7  8  2  0
  8  4  1  0
  4  3  2  0
  3  1  1  0
M  END

$$$$
No_1660-/dssg/home/sw_qyf/PocketFlow/Model-Generation-Results/5HT2A_7WC7_rec_A_10.pdb/2024-01-01-03-54-21/
     RDKit          3D

 12 13  0  0  0  0  0  0  0  0999 V2000
  -24.1553  -17.8465  145.7021 C   0  0  0  0  0  0  0  0  0  0  0  0
  -24.2856  -16.6364  145.3494 C   0  0  0  0  0  0  0  0  0  0  0  0
  -25.0033  -15.6772  146.0737 C   0  0  0  0  0  0  0  0  0  0  0  0
  -25.1197  -14.2835  145.7299 C   0  0  0  0  0  0  0  0  0  0  0  0
  -25.8358  -13.3153  146.4318 C   0  0  0  0  0  0  0  0  0  0  0  0
  -24.7888  -18.3277  146.8665 C   0  0  0  0  0  0  0  0  0  0  0  0
  -25.2563  -17.2949  147.6610 C   0  0  0  0  0  0  0  0  0  0  0  0
  -25.4380  -15.9907  147.3415 C   0  0  0  0  0  0  0  0  0  0  0  0
  -25.7939  -11.9619  146.0919 C   0  0  0  0  0  0  0  0  0  0  0  0
  -25.0089  -11.4971  145.0343 C   0  0  0  0  0  0  0  0  0  0  0  0
  -24.3115  -13.7583  144.5633 C   0  0  0  0  0  0  0  0  0  0  0  0
  -24.2212  -12.4046  144.3799 N   0  0  0  0  0  0  0  0  0  0  0  0
  3  4  1  0
  1  2  2  0
  2  3  1  0
  3  8  2  0
  8  7  1  0
  7  6  2  0
  6  1  1  0
  4  5  2  0
  5  9  1  0
  9 10  2  0
 10 12  1  0
 12 11  2  0
 11  4  1  0
M  END

$$$$
No_1661-/dssg/home/sw_qyf/PocketFlow/Model-Generation-Results/5HT2A_7WC7_rec_A_10.pdb/2024-01-01-03-54-21/
     RDKit          3D

 31 34  0  0  0  0  0  0  0  0999 V2000
  -24.1553  -17.8465  145.7021 C   0  0  0  0  0  0  0  0  0  0  0  0
  -23.9795  -18.4462  146.7426 C   0  0  0  0  0  0  0  0  0  0  0  0
  -24.2723  -16.4220  145.8037 C   0  0  0  0  0  0  0  0  0  0  0  0
  -24.0151  -15.5895  144.6874 C   0  0  0  0  0  0  0  0  0  0  0  0
  -24.7969  -14.3928  144.4905 C   0  0  0  0  0  0  0  0  0  0  0  0
  -25.3248  -13.8257  145.5785 C   0  0  0  0  0  0  0  0  0  0  0  0
  -25.2416  -12.8697  145.8985 C   0  0  0  0  0  0  0  0  0  0  0  0
  -24.0771  -12.0261  145.9486 C   0  0  0  0  0  0  0  0  0  0  0  0
  -23.8967  -17.5476  147.9839 C   0  0  0  0  0  0  0  0  0  0  0  0
  -24.7250  -16.6197  148.2233 C   0  0  0  0  0  0  0  0  0  0  0  0
  -24.7335  -15.6198  146.9110 C   0  0  0  0  0  0  0  0  0  0  0  0
  -25.5767  -14.4216  146.7144 C   0  0  0  0  0  0  0  0  0  0  0  0
  -26.4476  -11.9889  146.1414 C   0  0  0  0  0  0  0  0  0  0  0  0
  -27.6990  -12.2390  145.9163 C   0  0  0  0  0  0  0  0  0  0  0  0
  -28.7310  -11.3378  145.6157 C   0  0  0  0  0  0  0  0  0  0  0  0
  -30.0824  -11.3506  146.0681 C   0  0  0  0  0  0  0  0  0  0  0  0
  -28.4686  -10.5514  144.3777 C   0  0  0  0  0  0  0  0  0  0  0  0
  -29.4135   -9.7173  143.7641 C   0  0  0  0  0  0  0  0  0  0  0  0
  -30.1703   -8.9774  144.3742 C   0  0  0  0  0  0  0  0  0  0  0  0
  -31.0933   -8.1492  143.5494 C   0  0  0  0  0  0  0  0  0  0  0  0
  -29.4498   -9.6535  142.3486 C   0  0  0  0  0  0  0  0  0  0  0  0
  -28.5051  -10.4848  141.5545 C   0  0  0  0  0  0  0  0  0  0  0  0
  -30.3458   -8.7817  141.7558 C   0  0  0  0  0  0  0  0  0  0  0  0
  -30.7686   -7.9373  142.2231 N   0  0  0  0  0  0  0  0  0  0  0  0
  -28.5893  -11.8156  141.5481 C   0  0  0  0  0  0  0  0  0  0  0  0
  -27.6934  -12.5877  140.7482 C   0  0  0  0  0  0  0  0  0  0  0  0
  -26.9346  -12.0334  139.7014 C   0  0  0  0  0  0  0  0  0  0  0  0
  -26.9317  -10.5747  139.6299 C   0  0  0  0  0  0  0  0  0  0  0  0
  -27.7743   -9.8177  140.5264 C   0  0  0  0  0  0  0  0  0  0  0  0
  -30.1117  -12.3243  147.3002 C   0  0  0  0  0  0  0  0  0  0  0  0
  -29.4659  -13.4817  147.3573 C   0  0  0  0  0  0  0  0  0  0  0  0
  1  2  1  0
  1  3  1  0
  3  4  1  0
  4  5  1  0
  5  6  1  0
  6  7  1  0
  7  8  1  0
  2  9  1  0
  9 10  1  0
  3 11  1  0
 10 11  1  0
  6 12  1  0
 11 12  1  0
  7 13  1  0
 13 14  3  0
 14 15  1  0
 15 16  2  3
 15 17  1  0
 17 18  1  0
 21 22  1  0
 16 30  1  0
 30 31  2  0
 18 19  2  0
 19 20  1  0
 20 24  2  0
 24 23  1  0
 23 21  2  0
 21 18  1  0
 22 25  2  0
 25 26  1  0
 26 27  2  0
 27 28  1  0
 28 29  2  0
 29 22  1  0
M  END

$$$$
No_1662-/dssg/home/sw_qyf/PocketFlow/Model-Generation-Results/5HT2A_7WC7_rec_A_10.pdb/2024-01-01-03-54-21/
     RDKit          3D

 20 22  0  0  0  0  0  0  0  0999 V2000
  -24.1553  -17.8465  145.7021 C   0  0  0  0  0  0  0  0  0  0  0  0
  -24.6364  -17.2931  146.7091 C   0  0  0  0  0  0  0  0  0  0  0  0
  -25.8608  -16.5592  146.5934 C   0  0  0  0  0  0  0  0  0  0  0  0
  -25.9533  -15.5604  145.6681 C   0  0  0  0  0  0  0  0  0  0  0  0
  -24.8399  -15.4389  144.8356 C   0  0  0  0  0  0  0  0  0  0  0  0
  -23.9398  -16.6015  144.7183 C   0  0  0  0  0  0  0  0  0  0  0  0
  -26.7447  -14.4091  145.9890 C   0  0  0  0  0  0  0  0  0  0  0  0
  -26.2989  -13.1111  145.6354 C   0  0  0  0  0  0  0  0  0  0  0  0
  -27.2180  -12.0317  145.6872 C   0  0  0  0  0  0  0  0  0  0  0  0
  -28.3117  -12.1550  145.3522 C   0  0  0  0  0  0  0  0  0  0  0  0
  -29.2656  -10.9430  145.3516 C   0  0  0  0  0  0  0  0  0  0  0  0
  -29.0171   -9.9291  144.3886 C   0  0  0  0  0  0  0  0  0  0  0  0
  -28.8735  -10.2567  143.1515 C   0  0  0  0  0  0  0  0  0  0  0  0
  -28.0757  -11.0869  142.5412 C   0  0  0  0  0  0  0  0  0  0  0  0
  -28.0525  -11.4342  141.1684 C   0  0  0  0  0  0  0  0  0  0  0  0
  -27.6566  -12.6322  140.6168 C   0  0  0  0  0  0  0  0  0  0  0  0
  -26.9424  -13.4939  141.4877 C   0  0  0  0  0  0  0  0  0  0  0  0
  -26.9034  -13.2714  142.8974 C   0  0  0  0  0  0  0  0  0  0  0  0
  -27.4948  -12.0619  143.4260 C   0  0  0  0  0  0  0  0  0  0  0  0
  -27.9146  -12.1204  144.6437 N   0  0  0  0  0  0  0  0  0  0  0  0
  4  7  1  0
  7  8  2  3
  8  9  1  0
  9 10  2  3
 10 11  1  0
 11 12  1  0
 12 13  1  0
 10 20  1  0
 19 20  1  0
 13 14  1  0
  1  2  2  0
  2  3  1  0
  3  4  2  0
  4  5  1  0
  5  6  2  0
  6  1  1  0
 14 15  2  0
 15 16  1  0
 16 17  2  0
 17 18  1  0
 18 19  2  0
 19 14  1  0
M  END

$$$$
No_1663-/dssg/home/sw_qyf/PocketFlow/Model-Generation-Results/5HT2A_7WC7_rec_A_10.pdb/2024-01-01-03-54-21/
     RDKit          3D

 35 38  0  0  0  0  0  0  0  0999 V2000
  -23.1746  -16.6014  144.8668 C   0  0  0  0  0  0  0  0  0  0  0  0
  -23.8963  -15.5346  144.7885 C   0  0  0  0  0  0  0  0  0  0  0  0
  -24.5755  -15.0383  145.9043 C   0  0  0  0  0  0  0  0  0  0  0  0
  -25.0618  -13.6819  146.0347 C   0  0  0  0  0  0  0  0  0  0  0  0
  -25.4099  -13.0255  144.9749 C   0  0  0  0  0  0  0  0  0  0  0  0
  -25.2396  -13.6946  143.7675 C   0  0  0  0  0  0  0  0  0  0  0  0
  -24.5079  -14.9162  143.6723 C   0  0  0  0  0  0  0  0  0  0  0  0
  -26.0172  -11.7372  145.0288 C   0  0  0  0  0  0  0  0  0  0  0  0
  -26.5467  -11.1166  145.9084 C   0  0  0  0  0  0  0  0  0  0  0  0
  -22.4784  -16.8219  144.0098 F   0  0  0  0  0  0  0  0  0  0  0  0
  -23.4964  -17.6626  145.8347 C   0  0  0  0  0  0  0  0  0  0  0  0
  -23.4096  -17.3707  146.9775 O   0  0  0  0  0  0  0  0  0  0  0  0
  -27.2629   -9.8913  145.8095 C   0  0  0  0  0  0  0  0  0  0  0  0
  -27.5509   -9.5154  144.4271 C   0  0  0  0  0  0  0  0  0  0  0  0
  -27.1114  -10.2552  143.4166 C   0  0  0  0  0  0  0  0  0  0  0  0
  -26.3963  -11.2720  143.6505 C   0  0  0  0  0  0  0  0  0  0  0  0
  -24.4977  -17.2972  147.9888 C   0  0  0  0  0  0  0  0  0  0  0  0
  -24.0761  -17.1392  149.3273 C   0  0  0  0  0  0  0  0  0  0  0  0
  -25.0060  -17.1973  150.3892 C   0  0  0  0  0  0  0  0  0  0  0  0
  -26.3933  -17.4692  150.0853 C   0  0  0  0  0  0  0  0  0  0  0  0
  -26.7771  -17.3337  148.7638 C   0  0  0  0  0  0  0  0  0  0  0  0
  -25.7978  -17.3746  147.6974 C   0  0  0  0  0  0  0  0  0  0  0  0
  -22.6072  -17.1528  149.7060 C   0  0  0  0  0  0  0  0  0  0  0  0
  -22.1749  -15.9586  149.5624 O   0  0  0  0  0  0  0  0  0  0  0  0
  -28.2107  -17.2861  148.4474 C   0  0  0  0  0  0  0  0  0  0  0  0
  -28.6634  -15.9368  148.2040 N   0  0  0  0  0  0  0  0  0  0  0  0
  -29.1946  -14.9224  147.9148 C   0  0  0  0  0  0  0  0  0  0  0  0
  -30.2099  -14.3619  148.5017 N   0  0  0  0  0  0  0  0  0  0  0  0
  -30.5752  -13.1038  148.0839 C   0  0  0  0  0  0  0  0  0  0  0  0
  -28.4773  -14.1566  146.9939 C   0  0  0  0  0  0  0  0  0  0  0  0
  -31.5801  -12.3098  148.7455 N   0  0  0  0  0  0  0  0  0  0  0  0
  -29.7165  -12.3396  147.2426 C   0  0  0  0  0  0  0  0  0  0  0  0
  -30.0168  -11.0259  146.8656 N   0  0  0  0  0  0  0  0  0  0  0  0
  -28.6800  -12.9444  146.5633 C   0  0  0  0  0  0  0  0  0  0  0  0
  -32.0528  -12.6076  150.0001 C   0  0  0  0  0  0  0  0  0  0  0  0
  1  2  1  0
  5  8  1  0
  1 10  1  0
  1 11  1  0
 11 12  1  0
 12 17  1  0
 18 23  1  0
 23 24  1  0
 21 25  1  0
 25 26  1  0
 26 27  1  0
 29 31  1  0
 32 33  1  0
 31 35  1  0
 17 18  2  0
 18 19  1  0
 19 20  2  0
 20 21  1  0
 21 22  2  0
 22 17  1  0
  2  3  2  0
  3  4  1  0
  4  5  2  0
  5  6  1  0
  6  7  2  0
  7  2  1  0
  8  9  2  0
  9 13  1  0
 13 14  2  0
 14 15  1  0
 15 16  2  0
 16  8  1  0
 27 28  2  0
 28 29  1  0
 29 32  2  0
 32 34  1  0
 34 30  2  0
 30 27  1  0
M  END

$$$$
No_1664-/dssg/home/sw_qyf/PocketFlow/Model-Generation-Results/5HT2A_7WC7_rec_A_10.pdb/2024-01-01-03-54-21/
     RDKit          3D

 29 31  0  0  0  0  0  0  0  0999 V2000
  -23.1746  -16.6014  144.8668 C   0  0  0  0  0  0  0  0  0  0  0  0
  -23.8963  -15.5346  144.7885 C   0  0  0  0  0  0  0  0  0  0  0  0
  -23.4976  -14.2961  145.1226 C   0  0  0  0  0  0  0  0  0  0  0  0
  -24.3175  -13.3088  145.7775 C   0  0  0  0  0  0  0  0  0  0  0  0
  -23.7843  -12.0647  146.2451 C   0  0  0  0  0  0  0  0  0  0  0  0
  -23.7450  -17.8171  145.1307 C   0  0  0  0  0  0  0  0  0  0  0  0
  -24.0862  -18.1153  146.5103 C   0  0  0  0  0  0  0  0  0  0  0  0
  -23.1906  -18.1411  147.2966 O   0  0  0  0  0  0  0  0  0  0  0  0
  -25.7109  -13.3550  145.3776 C   0  0  0  0  0  0  0  0  0  0  0  0
  -26.2625  -14.6785  145.2505 C   0  0  0  0  0  0  0  0  0  0  0  0
  -25.3453  -15.6937  144.8260 C   0  0  0  0  0  0  0  0  0  0  0  0
  -25.3014  -18.3051  146.8232 O   0  0  0  0  0  0  0  0  0  0  0  0
  -26.6474  -12.2956  145.8303 C   0  0  0  0  0  0  0  0  0  0  0  0
  -26.6045  -11.1066  145.0112 C   0  0  0  0  0  0  0  0  0  0  0  0
  -27.8042  -10.4314  144.5322 C   0  0  0  0  0  0  0  0  0  0  0  0
  -28.3645  -10.8523  143.5351 C   0  0  0  0  0  0  0  0  0  0  0  0
  -28.5949   -9.9694  142.4673 C   0  0  0  0  0  0  0  0  0  0  0  0
  -28.2239  -10.2148  141.1386 C   0  0  0  0  0  0  0  0  0  0  0  0
  -28.3000   -9.2842  140.1322 C   0  0  0  0  0  0  0  0  0  0  0  0
  -27.7260   -9.4600  138.8111 C   0  0  0  0  0  0  0  0  0  0  0  0
  -29.0857   -8.0184  140.3826 C   0  0  0  0  0  0  0  0  0  0  0  0
  -29.6247   -7.8033  141.7125 C   0  0  0  0  0  0  0  0  0  0  0  0
  -29.4304   -8.7636  142.7457 C   0  0  0  0  0  0  0  0  0  0  0  0
  -27.6114  -12.4113  146.6351 O   0  0  0  0  0  0  0  0  0  0  0  0
  -27.5025  -11.4488  140.8376 C   0  0  0  0  0  0  0  0  0  0  0  0
  -27.2985  -12.2467  141.7148 O   0  0  0  0  0  0  0  0  0  0  0  0
  -27.1522  -11.7078  139.6109 N   0  0  0  0  0  0  0  0  0  0  0  0
  -27.2618  -10.7880  138.5855 C   0  0  0  0  0  0  0  0  0  0  0  0
  -29.3106   -7.0641  139.3831 C   0  0  0  0  0  0  0  0  0  0  0  0
  4  5  1  0
  1  6  1  0
  6  7  1  0
  7  8  2  0
  7 12  1  0
  9 13  1  0
 13 14  1  0
 14 15  1  0
 15 16  1  0
 16 17  1  0
 19 20  1  0
 13 24  2  0
 18 25  1  0
 25 26  1  0
 25 27  1  0
 20 28  1  0
 27 28  1  0
 21 29  1  0
  1  2  1  0
 17 18  2  0
 18 19  1  0
 19 21  2  0
 21 22  1  0
 22 23  2  0
 23 17  1  0
  2  3  2  0
  3  4  1  0
  4  9  2  0
  9 10  1  0
 10 11  2  0
 11  2  1  0
M  END

$$$$
No_1665-/dssg/home/sw_qyf/PocketFlow/Model-Generation-Results/5HT2A_7WC7_rec_A_10.pdb/2024-01-01-03-54-21/
     RDKit          3D

 26 29  0  0  0  0  0  0  0  0999 V2000
  -24.1553  -17.8465  145.7021 C   0  0  0  0  0  0  0  0  0  0  0  0
  -23.9795  -18.4462  146.7426 C   0  0  0  0  0  0  0  0  0  0  0  0
  -25.1196  -16.8105  145.6408 C   0  0  0  0  0  0  0  0  0  0  0  0
  -25.9237  -16.5070  146.7422 C   0  0  0  0  0  0  0  0  0  0  0  0
  -25.6627  -17.1841  147.9274 C   0  0  0  0  0  0  0  0  0  0  0  0
  -24.6813  -18.1540  148.0079 C   0  0  0  0  0  0  0  0  0  0  0  0
  -26.9780  -15.4746  146.6756 C   0  0  0  0  0  0  0  0  0  0  0  0
  -28.1877  -15.6045  147.2706 C   0  0  0  0  0  0  0  0  0  0  0  0
  -29.1360  -14.6197  147.1906 C   0  0  0  0  0  0  0  0  0  0  0  0
  -28.8853  -13.4031  146.6249 C   0  0  0  0  0  0  0  0  0  0  0  0
  -27.6213  -13.1352  146.0281 C   0  0  0  0  0  0  0  0  0  0  0  0
  -26.6684  -14.1456  146.0673 C   0  0  0  0  0  0  0  0  0  0  0  0
  -29.9205  -12.2662  146.6333 C   0  0  0  0  0  0  0  0  0  0  0  0
  -30.4133  -11.8538  147.8178 N   0  0  0  0  0  0  0  0  0  0  0  0
  -30.0070  -11.5536  145.6311 O   0  0  0  0  0  0  0  0  0  0  0  0
  -25.2202  -16.0560  144.5069 O   0  0  0  0  0  0  0  0  0  0  0  0
  -24.4713  -14.7911  144.5084 C   0  0  0  0  0  0  0  0  0  0  0  0
  -25.0486  -13.7605  144.6502 C   0  0  0  0  0  0  0  0  0  0  0  0
  -25.8070  -13.3469  145.7944 C   0  0  0  0  0  0  0  0  0  0  0  0
  -24.0493  -12.5597  144.4232 O   0  0  0  0  0  0  0  0  0  0  0  0
  -22.9575  -12.7430  145.2810 C   0  0  0  0  0  0  0  0  0  0  0  0
  -23.3153  -14.8641  143.4729 C   0  0  0  0  0  0  0  0  0  0  0  0
  -22.3221  -13.7824  144.0239 C   0  0  0  0  0  0  0  0  0  0  0  0
  -22.3253  -11.3586  145.3266 C   0  0  0  0  0  0  0  0  0  0  0  0
  -26.3705  -16.8903  149.0502 O   0  0  0  0  0  0  0  0  0  0  0  0
  -22.6170  -16.0124  143.9462 O   0  0  0  0  0  0  0  0  0  0  0  0
  4  7  1  0
 10 13  1  0
 13 14  1  0
 13 15  2  0
  3 16  1  0
 16 17  1  0
 17 18  2  0
 12 19  1  0
 18 19  1  0
 18 20  1  0
 20 21  1  0
 17 22  1  0
 21 23  1  0
 22 23  1  0
 21 24  1  0
  5 25  1  0
 22 26  1  0
  1  2  2  0
  2  6  1  0
  6  5  2  0
  5  4  1  0
  4  3  2  0
  3  1  1  0
  7  8  2  0
  8  9  1  0
  9 10  2  0
 10 11  1  0
 11 12  2  0
 12  7  1  0
M  END

$$$$
No_1666-/dssg/home/sw_qyf/PocketFlow/Model-Generation-Results/5HT2A_7WC7_rec_A_10.pdb/2024-01-01-03-54-21/
     RDKit          3D

 14 13  0  0  0  0  0  0  0  0999 V2000
  -23.1746  -16.6014  144.8668 C   0  0  0  0  0  0  0  0  0  0  0  0
  -23.8963  -15.5346  144.7885 C   0  0  0  0  0  0  0  0  0  0  0  0
  -23.4976  -14.2961  145.1226 C   0  0  0  0  0  0  0  0  0  0  0  0
  -23.9189  -13.0599  144.7480 C   0  0  0  0  0  0  0  0  0  0  0  0
  -25.1117  -12.5952  145.3025 C   0  0  0  0  0  0  0  0  0  0  0  0
  -25.9319  -11.8280  144.5241 C   0  0  0  0  0  0  0  0  0  0  0  0
  -26.5549  -10.6433  145.2605 C   0  0  0  0  0  0  0  0  0  0  0  0
  -27.4745   -9.8406  144.4778 C   0  0  0  0  0  0  0  0  0  0  0  0
  -28.0973  -10.4022  143.3102 C   0  0  0  0  0  0  0  0  0  0  0  0
  -29.2252   -9.7707  142.8258 C   0  0  0  0  0  0  0  0  0  0  0  0
  -30.2392   -9.3288  143.5944 C   0  0  0  0  0  0  0  0  0  0  0  0
  -31.2796   -8.5459  143.0082 C   0  0  0  0  0  0  0  0  0  0  0  0
  -31.1003   -8.0877  141.8487 O   0  0  0  0  0  0  0  0  0  0  0  0
  -29.2945   -9.6101  141.3999 C   0  0  0  0  0  0  0  0  0  0  0  0
  1  2  2  0
  2  3  1  0
  3  4  1  0
  4  5  1  0
  5  6  1  0
  6  7  1  0
  7  8  1  0
  8  9  1  0
  9 10  2  3
 10 11  1  0
 11 12  1  0
 12 13  2  0
 10 14  1  0
M  END

$$$$
No_1667-/dssg/home/sw_qyf/PocketFlow/Model-Generation-Results/5HT2A_7WC7_rec_A_10.pdb/2024-01-01-03-54-21/
     RDKit          3D

 13 14  0  0  0  0  0  0  0  0999 V2000
  -23.8931  -18.2534  145.3804 F   0  0  0  0  0  0  0  0  0  0  0  0
  -24.1483  -17.4442  146.3400 C   0  0  0  0  0  0  0  0  0  0  0  0
  -24.4181  -16.0969  145.9075 C   0  0  0  0  0  0  0  0  0  0  0  0
  -24.9769  -15.0988  146.6991 C   0  0  0  0  0  0  0  0  0  0  0  0
  -25.1931  -13.7850  146.2729 C   0  0  0  0  0  0  0  0  0  0  0  0
  -25.7727  -12.8154  147.1015 C   0  0  0  0  0  0  0  0  0  0  0  0
  -23.0834  -17.3948  147.4327 C   0  0  0  0  0  0  0  0  0  0  0  0
  -25.8498  -11.5241  146.4453 C   0  0  0  0  0  0  0  0  0  0  0  0
  -25.3875  -11.3301  145.1448 C   0  0  0  0  0  0  0  0  0  0  0  0
  -24.7155  -13.3079  145.0071 C   0  0  0  0  0  0  0  0  0  0  0  0
  -23.9316  -14.2933  144.2801 N   0  0  0  0  0  0  0  0  0  0  0  0
  -23.8602  -15.5995  144.6901 C   0  0  0  0  0  0  0  0  0  0  0  0
  -24.6707  -12.2635  144.5089 C   0  0  0  0  0  0  0  0  0  0  0  0
  1  2  1  0
  2  3  2  3
  3  4  1  0
  4  5  1  0
  2  7  1  0
 10 11  1  0
  3 12  1  0
 11 12  1  0
  5  6  2  0
  6  8  1  0
  8  9  2  0
  9 13  1  0
 13 10  2  0
 10  5  1  0
M  END

$$$$
No_1668-/dssg/home/sw_qyf/PocketFlow/Model-Generation-Results/5HT2A_7WC7_rec_A_10.pdb/2024-01-01-03-54-21/
     RDKit          3D

 18 19  0  0  0  0  0  0  0  0999 V2000
  -23.1746  -16.6014  144.8668 C   0  0  0  0  0  0  0  0  0  0  0  0
  -23.8963  -15.5346  144.7885 C   0  0  0  0  0  0  0  0  0  0  0  0
  -23.6398  -14.5115  145.3281 C   0  0  0  0  0  0  0  0  0  0  0  0
  -24.3241  -13.3648  145.1281 C   0  0  0  0  0  0  0  0  0  0  0  0
  -25.5072  -13.2953  144.4354 C   0  0  0  0  0  0  0  0  0  0  0  0
  -25.9151  -14.5889  143.8605 C   0  0  0  0  0  0  0  0  0  0  0  0
  -25.1243  -15.6356  144.0574 C   0  0  0  0  0  0  0  0  0  0  0  0
  -23.5120  -17.6384  144.2201 F   0  0  0  0  0  0  0  0  0  0  0  0
  -26.4395  -12.1464  144.3330 C   0  0  0  0  0  0  0  0  0  0  0  0
  -27.4569  -12.0325  143.4327 C   0  0  0  0  0  0  0  0  0  0  0  0
  -28.3606  -11.0051  143.3590 C   0  0  0  0  0  0  0  0  0  0  0  0
  -28.1781   -9.9428  142.5832 C   0  0  0  0  0  0  0  0  0  0  0  0
  -29.2619   -8.8597  142.5684 C   0  0  0  0  0  0  0  0  0  0  0  0
  -29.1195   -7.7225  141.7937 C   0  0  0  0  0  0  0  0  0  0  0  0
  -29.0505   -8.0105  140.3650 C   0  0  0  0  0  0  0  0  0  0  0  0
  -28.4917   -9.1104  139.8484 C   0  0  0  0  0  0  0  0  0  0  0  0
  -27.9270   -9.9949  140.7646 C   0  0  0  0  0  0  0  0  0  0  0  0
  -28.0979   -9.2832  138.5358 C   0  0  0  0  0  0  0  0  0  0  0  0
  1  2  1  0
  1  8  1  0
  5  9  1  0
  9 10  1  0
 10 11  1  0
 16 18  1  0
 11 12  1  0
 12 13  2  0
 13 14  1  0
 14 15  2  0
 15 16  1  0
 16 17  2  0
 17 12  1  0
  2  3  2  0
  3  4  1  0
  4  5  2  0
  5  6  1  0
  6  7  2  0
  7  2  1  0
M  END

$$$$
No_1669-/dssg/home/sw_qyf/PocketFlow/Model-Generation-Results/5HT2A_7WC7_rec_A_10.pdb/2024-01-01-03-54-21/
     RDKit          3D

 20 21  0  0  0  0  0  0  0  0999 V2000
  -24.1553  -17.8465  145.7021 C   0  0  0  0  0  0  0  0  0  0  0  0
  -24.6364  -17.2931  146.7091 C   0  0  0  0  0  0  0  0  0  0  0  0
  -25.8131  -16.4503  146.6208 C   0  0  0  0  0  0  0  0  0  0  0  0
  -26.1145  -15.7676  145.5430 C   0  0  0  0  0  0  0  0  0  0  0  0
  -27.2812  -14.9559  145.4705 C   0  0  0  0  0  0  0  0  0  0  0  0
  -28.1431  -14.9450  146.5668 C   0  0  0  0  0  0  0  0  0  0  0  0
  -27.9491  -15.7364  147.6743 C   0  0  0  0  0  0  0  0  0  0  0  0
  -26.7503  -16.4648  147.7761 C   0  0  0  0  0  0  0  0  0  0  0  0
  -23.1938  -18.8349  145.8188 C   0  0  0  0  0  0  0  0  0  0  0  0
  -29.5830  -13.9519  146.5249 Cl  0  0  0  0  0  0  0  0  0  0  0  0
  -23.3500  -16.5496  147.4220 C   0  0  0  0  0  0  0  0  0  0  0  0
  -23.1550  -19.7244  145.1032 O   0  0  0  0  0  0  0  0  0  0  0  0
  -22.3747  -18.8523  146.8846 O   0  0  0  0  0  0  0  0  0  0  0  0
  -22.5584  -17.6718  147.9981 C   0  0  0  0  0  0  0  0  0  0  0  0
  -26.4783  -17.1517  148.9347 N   0  0  0  0  0  0  0  0  0  0  0  0
  -27.5504  -14.3210  144.3649 F   0  0  0  0  0  0  0  0  0  0  0  0
  -21.7822  -17.2049  148.6021 O   0  0  0  0  0  0  0  0  0  0  0  0
  -25.2749  -16.9759  149.6324 C   0  0  0  0  0  0  0  0  0  0  0  0
  -25.1855  -17.6935  150.9186 C   0  0  0  0  0  0  0  0  0  0  0  0
  -26.0898  -18.3991  151.2715 O   0  0  0  0  0  0  0  0  0  0  0  0
  1  2  2  0
  2  3  1  0
  1  9  1  0
  6 10  1  0
  2 11  1  0
  9 12  2  0
  9 13  1  0
 11 14  1  0
 13 14  1  0
  8 15  1  0
  5 16  1  0
 14 17  1  0
 15 18  1  0
 18 19  2  0
 19 20  2  0
  3  4  2  0
  4  5  1  0
  5  6  2  0
  6  7  1  0
  7  8  2  0
  8  3  1  0
M  END

$$$$
No_1670-/dssg/home/sw_qyf/PocketFlow/Model-Generation-Results/5HT2A_7WC7_rec_A_10.pdb/2024-01-01-03-54-21/
     RDKit          3D

 18 19  0  0  0  0  0  0  0  0999 V2000
  -23.1746  -16.6014  144.8668 C   0  0  0  0  0  0  0  0  0  0  0  0
  -24.0189  -16.0564  145.8445 C   0  0  0  0  0  0  0  0  0  0  0  0
  -24.4145  -16.8299  146.9062 C   0  0  0  0  0  0  0  0  0  0  0  0
  -23.9612  -18.1384  147.0126 C   0  0  0  0  0  0  0  0  0  0  0  0
  -23.1429  -18.6221  146.0418 C   0  0  0  0  0  0  0  0  0  0  0  0
  -22.7895  -17.8385  145.0283 C   0  0  0  0  0  0  0  0  0  0  0  0
  -24.5678  -14.6342  145.6907 C   0  0  0  0  0  0  0  0  0  0  0  0
  -25.7906  -14.3897  146.3298 C   0  0  0  0  0  0  0  0  0  0  0  0
  -26.7267  -15.0791  146.8186 C   0  0  0  0  0  0  0  0  0  0  0  0
  -27.9989  -14.5636  147.1958 C   0  0  0  0  0  0  0  0  0  0  0  0
  -28.2247  -13.1687  147.0262 C   0  0  0  0  0  0  0  0  0  0  0  0
  -27.2472  -12.3780  146.3374 C   0  0  0  0  0  0  0  0  0  0  0  0
  -26.0586  -12.8830  145.9592 C   0  0  0  0  0  0  0  0  0  0  0  0
  -23.8111  -13.6965  145.0148 C   0  0  0  0  0  0  0  0  0  0  0  0
  -29.5632  -12.6991  147.4573 C   0  0  0  0  0  0  0  0  0  0  0  0
  -30.3571  -13.2773  148.1826 O   0  0  0  0  0  0  0  0  0  0  0  0
  -29.9720  -11.5083  146.9028 O   0  0  0  0  0  0  0  0  0  0  0  0
  -22.8768  -13.2662  145.3046 O   0  0  0  0  0  0  0  0  0  0  0  0
  2  7  1  0
  7  8  1  0
  7 14  1  0
 11 15  1  0
 15 16  1  0
 15 17  2  0
 14 18  1  0
  1  2  2  0
  2  3  1  0
  3  4  2  0
  4  5  1  0
  5  6  2  0
  6  1  1  0
  8  9  2  0
  9 10  1  0
 10 11  2  0
 11 12  1  0
 12 13  2  0
 13  8  1  0
M  END

$$$$
No_1671-/dssg/home/sw_qyf/PocketFlow/Model-Generation-Results/5HT2A_7WC7_rec_A_10.pdb/2024-01-01-03-54-21/
     RDKit          3D

 35 38  0  0  0  0  0  0  0  0999 V2000
  -23.1746  -16.6014  144.8668 C   0  0  0  0  0  0  0  0  0  0  0  0
  -23.7011  -17.0158  145.9774 C   0  0  0  0  0  0  0  0  0  0  0  0
  -24.2134  -16.0722  146.8877 C   0  0  0  0  0  0  0  0  0  0  0  0
  -23.3742  -15.2706  144.3922 C   0  0  0  0  0  0  0  0  0  0  0  0
  -24.0445  -14.2973  145.2608 C   0  0  0  0  0  0  0  0  0  0  0  0
  -24.4773  -14.7066  146.5258 C   0  0  0  0  0  0  0  0  0  0  0  0
  -24.1826  -12.9655  144.8997 N   0  0  0  0  0  0  0  0  0  0  0  0
  -24.2919  -11.9787  145.8061 C   0  0  0  0  0  0  0  0  0  0  0  0
  -25.2998  -11.0787  145.5415 C   0  0  0  0  0  0  0  0  0  0  0  0
  -26.6200  -11.5018  146.1973 C   0  0  0  0  0  0  0  0  0  0  0  0
  -27.8283  -11.2814  145.4566 C   0  0  0  0  0  0  0  0  0  0  0  0
  -29.0202  -11.7839  145.9109 C   0  0  0  0  0  0  0  0  0  0  0  0
  -30.2307  -11.2059  145.3030 C   0  0  0  0  0  0  0  0  0  0  0  0
  -29.8293  -10.0501  144.4546 C   0  0  0  0  0  0  0  0  0  0  0  0
  -28.7009   -9.5995  144.0606 C   0  0  0  0  0  0  0  0  0  0  0  0
  -27.6459  -10.1894  144.6133 C   0  0  0  0  0  0  0  0  0  0  0  0
  -23.5566  -18.4287  146.4331 C   0  0  0  0  0  0  0  0  0  0  0  0
  -22.6292  -18.8869  146.8294 O   0  0  0  0  0  0  0  0  0  0  0  0
  -24.6414  -19.2076  146.0779 O   0  0  0  0  0  0  0  0  0  0  0  0
  -29.1877  -12.8136  146.8424 C   0  0  0  0  0  0  0  0  0  0  0  0
  -29.9522  -12.7776  147.9449 N   0  0  0  0  0  0  0  0  0  0  0  0
  -30.2769  -13.8753  148.6387 C   0  0  0  0  0  0  0  0  0  0  0  0
  -29.5070  -14.9899  148.1870 C   0  0  0  0  0  0  0  0  0  0  0  0
  -28.8038  -14.2196  146.6922 C   0  0  0  0  0  0  0  0  0  0  0  0
  -31.0044  -13.8946  149.7260 N   0  0  0  0  0  0  0  0  0  0  0  0
  -31.0627   -9.4655  143.9154 O   0  0  0  0  0  0  0  0  0  0  0  0
  -31.9950  -12.9991  149.9882 C   0  0  0  0  0  0  0  0  0  0  0  0
  -32.6325  -13.0813  151.2359 C   0  0  0  0  0  0  0  0  0  0  0  0
  -31.0822  -14.9263  150.6838 C   0  0  0  0  0  0  0  0  0  0  0  0
  -32.1783  -14.4632  151.6253 C   0  0  0  0  0  0  0  0  0  0  0  0
  -30.9924   -8.4898  143.0624 C   0  0  0  0  0  0  0  0  0  0  0  0
  -31.1756   -8.6557  141.7428 C   0  0  0  0  0  0  0  0  0  0  0  0
  -29.9392   -8.3012  140.9970 C   0  0  0  0  0  0  0  0  0  0  0  0
  -29.6416   -6.8962  140.9812 C   0  0  0  0  0  0  0  0  0  0  0  0
  -29.3267   -6.3879  142.3979 C   0  0  0  0  0  0  0  0  0  0  0  0
  5  7  1  0
  7  8  1  0
  8  9  1  0
  9 10  1  0
 10 11  1  0
  2 17  1  0
 17 18  2  0
 17 19  1  0
 12 20  1  0
 20 21  1  0
 21 22  1  0
 22 23  2  0
 20 24  1  0
 23 24  1  0
 22 25  1  0
 14 26  1  0
 25 27  1  0
 27 28  2  0
 25 29  1  0
 28 30  1  0
 29 30  2  0
 26 31  1  0
 31 32  1  0
 32 33  1  0
 33 34  1  0
 34 35  1  0
 11 12  1  0
 12 13  2  0
 13 14  1  0
 14 15  2  0
 15 16  1  0
 16 11  2  0
  1  2  2  0
  2  3  1  0
  3  6  2  0
  6  5  1  0
  5  4  2  0
  4  1  1  0
M  END

$$$$
No_1672-/dssg/home/sw_qyf/PocketFlow/Model-Generation-Results/5HT2A_7WC7_rec_A_10.pdb/2024-01-01-03-54-21/
     RDKit          3D

 19 20  0  0  0  0  0  0  0  0999 V2000
  -23.8042  -18.1535  145.4053 O   0  0  0  0  0  0  0  0  0  0  0  0
  -24.3135  -17.1214  145.8338 C   0  0  0  0  0  0  0  0  0  0  0  0
  -24.4856  -15.9950  145.0258 C   0  0  0  0  0  0  0  0  0  0  0  0
  -24.6198  -14.7385  145.5987 C   0  0  0  0  0  0  0  0  0  0  0  0
  -24.2722  -13.4846  144.9662 C   0  0  0  0  0  0  0  0  0  0  0  0
  -24.8083  -17.0308  147.2505 C   0  0  0  0  0  0  0  0  0  0  0  0
  -25.1251  -15.7996  147.8157 C   0  0  0  0  0  0  0  0  0  0  0  0
  -25.0391  -14.6124  147.0867 C   0  0  0  0  0  0  0  0  0  0  0  0
  -23.8632  -13.6002  143.7938 O   0  0  0  0  0  0  0  0  0  0  0  0
  -24.3487  -12.2547  145.5200 N   0  0  0  0  0  0  0  0  0  0  0  0
  -24.1080  -11.0501  144.7883 C   0  0  0  0  0  0  0  0  0  0  0  0
  -24.7984  -18.2053  147.8842 O   0  0  0  0  0  0  0  0  0  0  0  0
  -23.1125  -19.0436  146.1792 C   0  0  0  0  0  0  0  0  0  0  0  0
  -22.5997  -20.0045  145.6123 O   0  0  0  0  0  0  0  0  0  0  0  0
  -22.7148  -18.7300  147.3951 O   0  0  0  0  0  0  0  0  0  0  0  0
  -24.7765  -12.0626  146.9121 C   0  0  0  0  0  0  0  0  0  0  0  0
  -25.4640  -13.1011  147.2474 C   0  0  0  0  0  0  0  0  0  0  0  0
  -24.1300  -16.0943  143.8701 O   0  0  0  0  0  0  0  0  0  0  0  0
  -25.1580  -17.8313  148.9823 C   0  0  0  0  0  0  0  0  0  0  0  0
  1  2  1  0
  2  3  1  0
  3  4  1  0
  2  6  1  0
  6  7  1  0
  4  8  1  0
  5  9  1  0
  5 10  1  0
 10 11  1  0
  6 12  1  0
  1 13  1  0
 13 14  2  0
 13 15  1  0
 10 16  1  0
  8 17  1  0
 16 17  1  0
  3 18  2  0
 12 19  1  0
  5  4  1  0
  7  8  1  0
M  END

$$$$
No_1673-/dssg/home/sw_qyf/PocketFlow/Model-Generation-Results/5HT2A_7WC7_rec_A_10.pdb/2024-01-01-03-54-21/
     RDKit          3D

 35 36  0  0  0  0  0  0  0  0999 V2000
  -24.1553  -17.8465  145.7021 C   0  0  0  0  0  0  0  0  0  0  0  0
  -24.2856  -16.6364  145.3494 C   0  0  0  0  0  0  0  0  0  0  0  0
  -24.5733  -15.7651  145.9979 C   0  0  0  0  0  0  0  0  0  0  0  0
  -24.7088  -14.2765  145.5906 C   0  0  0  0  0  0  0  0  0  0  0  0
  -24.0081  -14.0223  144.3771 C   0  0  0  0  0  0  0  0  0  0  0  0
  -24.5461  -18.2167  147.0077 C   0  0  0  0  0  0  0  0  0  0  0  0
  -24.9798  -17.2136  147.8740 C   0  0  0  0  0  0  0  0  0  0  0  0
  -24.9933  -15.8410  147.4193 C   0  0  0  0  0  0  0  0  0  0  0  0
  -26.0955  -13.7125  145.6818 C   0  0  0  0  0  0  0  0  0  0  0  0
  -26.4243  -12.6226  145.1182 C   0  0  0  0  0  0  0  0  0  0  0  0
  -27.1817  -11.6504  145.9156 C   0  0  0  0  0  0  0  0  0  0  0  0
  -27.4433  -10.3828  145.3229 C   0  0  0  0  0  0  0  0  0  0  0  0
  -27.4419  -10.1422  143.9510 C   0  0  0  0  0  0  0  0  0  0  0  0
  -26.8794  -11.2760  143.2452 C   0  0  0  0  0  0  0  0  0  0  0  0
  -26.4437  -12.4328  143.7801 C   0  0  0  0  0  0  0  0  0  0  0  0
  -25.2504  -17.5352  149.3449 C   0  0  0  0  0  0  0  0  0  0  0  0
  -26.4919  -17.5505  149.8537 N   0  0  0  0  0  0  0  0  0  0  0  0
  -24.1845  -17.7081  150.2308 N   0  0  0  0  0  0  0  0  0  0  0  0
  -27.5720  -17.3092  149.1925 C   0  0  0  0  0  0  0  0  0  0  0  0
  -28.8286  -17.3781  149.9509 C   0  0  0  0  0  0  0  0  0  0  0  0
  -27.6915  -17.2155  147.9109 O   0  0  0  0  0  0  0  0  0  0  0  0
  -29.8928  -16.7229  149.3906 N   0  0  0  0  0  0  0  0  0  0  0  0
  -29.5941  -15.6011  148.5969 C   0  0  0  0  0  0  0  0  0  0  0  0
  -30.3007  -14.3581  148.7158 C   0  0  0  0  0  0  0  0  0  0  0  0
  -30.0099  -13.3039  147.8112 C   0  0  0  0  0  0  0  0  0  0  0  0
  -30.6465  -12.0577  147.8870 C   0  0  0  0  0  0  0  0  0  0  0  0
  -30.1393  -11.1370  147.0085 F   0  0  0  0  0  0  0  0  0  0  0  0
  -30.3869  -11.4108  149.1696 F   0  0  0  0  0  0  0  0  0  0  0  0
  -31.9524  -12.0969  147.9136 F   0  0  0  0  0  0  0  0  0  0  0  0
  -27.9789   -9.0357  143.3841 C   0  0  0  0  0  0  0  0  0  0  0  0
  -28.7891   -9.0493  142.1872 C   0  0  0  0  0  0  0  0  0  0  0  0
  -29.2976   -7.9096  141.5610 C   0  0  0  0  0  0  0  0  0  0  0  0
  -29.3573   -6.7112  142.3468 C   0  0  0  0  0  0  0  0  0  0  0  0
  -30.3373   -5.7260  142.1007 C   0  0  0  0  0  0  0  0  0  0  0  0
  -30.0356   -4.6192  143.0226 C   0  0  0  0  0  0  0  0  0  0  0  0
  3  4  1  0
  4  5  2  0
  4  9  1  0
  9 10  1  0
  7 16  1  0
 16 17  2  3
 16 18  1  0
 17 19  1  0
 19 20  1  0
 19 21  2  0
 20 22  1  0
 22 23  1  0
 23 24  1  0
 24 25  2  3
 25 26  1  0
 26 27  1  0
 26 28  1  0
 26 29  1  0
 13 30  1  0
 30 31  2  3
 31 32  1  0
 32 33  1  0
 33 34  2  3
 34 35  1  0
  1  2  2  0
  2  3  1  0
  3  8  2  0
  8  7  1  0
  7  6  2  0
  6  1  1  0
 10 11  2  0
 11 12  1  0
 12 13  2  0
 13 14  1  0
 14 15  2  0
 15 10  1  0
M  END

$$$$
No_1674-/dssg/home/sw_qyf/PocketFlow/Model-Generation-Results/5HT2A_7WC7_rec_A_10.pdb/2024-01-01-03-54-21/
     RDKit          3D

 27 28  0  0  0  0  0  0  0  0999 V2000
  -24.1553  -17.8465  145.7021 C   0  0  0  0  0  0  0  0  0  0  0  0
  -24.2856  -16.6364  145.3494 C   0  0  0  0  0  0  0  0  0  0  0  0
  -23.7824  -15.9602  144.3553 C   0  0  0  0  0  0  0  0  0  0  0  0
  -23.9871  -14.5276  144.1537 C   0  0  0  0  0  0  0  0  0  0  0  0
  -24.7876  -13.8357  145.1352 C   0  0  0  0  0  0  0  0  0  0  0  0
  -25.3945  -14.5459  146.1755 C   0  0  0  0  0  0  0  0  0  0  0  0
  -25.0741  -15.8908  146.3327 C   0  0  0  0  0  0  0  0  0  0  0  0
  -24.9824  -18.2038  146.4482 F   0  0  0  0  0  0  0  0  0  0  0  0
  -22.9038  -18.1229  146.3386 F   0  0  0  0  0  0  0  0  0  0  0  0
  -23.7835  -18.8148  144.8132 F   0  0  0  0  0  0  0  0  0  0  0  0
  -25.0342  -12.3995  144.9524 C   0  0  0  0  0  0  0  0  0  0  0  0
  -26.0450  -12.0584  144.3988 O   0  0  0  0  0  0  0  0  0  0  0  0
  -26.6368  -10.7824  144.7278 C   0  0  0  0  0  0  0  0  0  0  0  0
  -26.8159   -9.9366  143.6917 C   0  0  0  0  0  0  0  0  0  0  0  0
  -28.1435   -9.2394  143.6533 C   0  0  0  0  0  0  0  0  0  0  0  0
  -29.2976  -10.1183  143.8515 C   0  0  0  0  0  0  0  0  0  0  0  0
  -29.2495  -10.2902  145.2888 F   0  0  0  0  0  0  0  0  0  0  0  0
  -29.0912  -11.3857  143.2307 O   0  0  0  0  0  0  0  0  0  0  0  0
  -30.5094   -9.4645  143.4391 C   0  0  0  0  0  0  0  0  0  0  0  0
  -31.2107   -8.9571  144.2606 O   0  0  0  0  0  0  0  0  0  0  0  0
  -30.6927   -9.2724  142.1628 N   0  0  0  0  0  0  0  0  0  0  0  0
  -29.7137   -9.4502  141.1433 C   0  0  0  0  0  0  0  0  0  0  0  0
  -29.3517   -8.3731  140.3100 C   0  0  0  0  0  0  0  0  0  0  0  0
  -28.4922   -8.4511  139.2548 C   0  0  0  0  0  0  0  0  0  0  0  0
  -27.8840   -9.6388  138.8798 C   0  0  0  0  0  0  0  0  0  0  0  0
  -27.8627  -10.6461  139.9297 C   0  0  0  0  0  0  0  0  0  0  0  0
  -28.9025  -10.5810  140.9649 C   0  0  0  0  0  0  0  0  0  0  0  0
  1  2  1  0
  1  8  1  0
  1  9  1  0
  1 10  1  0
  5 11  1  0
 11 12  1  0
 12 13  1  0
 13 14  1  0
 14 15  1  0
 15 16  1  0
 16 17  1  0
 16 18  1  0
 16 19  1  0
 19 20  2  0
 19 21  1  0
 21 22  1  0
  2  3  2  0
  3  4  1  0
  4  5  2  0
  5  6  1  0
  6  7  2  0
  7  2  1  0
 22 23  2  0
 23 24  1  0
 24 25  2  0
 25 26  1  0
 26 27  2  0
 27 22  1  0
M  END

$$$$
No_1675-/dssg/home/sw_qyf/PocketFlow/Model-Generation-Results/5HT2A_7WC7_rec_A_10.pdb/2024-01-01-03-54-21/
     RDKit          3D

 23 25  0  0  0  0  0  0  0  0999 V2000
  -23.1746  -16.6014  144.8668 C   0  0  0  0  0  0  0  0  0  0  0  0
  -24.0189  -16.0564  145.8445 C   0  0  0  0  0  0  0  0  0  0  0  0
  -24.4850  -14.7380  145.6359 C   0  0  0  0  0  0  0  0  0  0  0  0
  -25.3334  -14.0797  146.6105 C   0  0  0  0  0  0  0  0  0  0  0  0
  -25.7120  -12.7595  146.4431 C   0  0  0  0  0  0  0  0  0  0  0  0
  -25.3190  -11.9841  145.3047 C   0  0  0  0  0  0  0  0  0  0  0  0
  -24.3451  -12.6067  144.4930 C   0  0  0  0  0  0  0  0  0  0  0  0
  -23.9468  -13.9401  144.7201 C   0  0  0  0  0  0  0  0  0  0  0  0
  -24.4836  -16.8193  146.9469 C   0  0  0  0  0  0  0  0  0  0  0  0
  -24.0177  -18.0902  147.1454 C   0  0  0  0  0  0  0  0  0  0  0  0
  -23.3950  -18.7491  146.1530 C   0  0  0  0  0  0  0  0  0  0  0  0
  -23.0958  -20.0370  146.3922 N   0  0  0  0  0  0  0  0  0  0  0  0
  -22.9676  -18.0496  145.0370 C   0  0  0  0  0  0  0  0  0  0  0  0
  -25.7415  -10.6376  145.1151 C   0  0  0  0  0  0  0  0  0  0  0  0
  -27.0708  -10.5468  144.4393 C   0  0  0  0  0  0  0  0  0  0  0  0
  -28.1230  -11.1035  145.0908 C   0  0  0  0  0  0  0  0  0  0  0  0
  -29.3853  -10.7474  144.6149 C   0  0  0  0  0  0  0  0  0  0  0  0
  -29.6622   -9.7583  143.7105 C   0  0  0  0  0  0  0  0  0  0  0  0
  -28.4905   -9.2697  143.0461 C   0  0  0  0  0  0  0  0  0  0  0  0
  -27.2267   -9.5848  143.5409 C   0  0  0  0  0  0  0  0  0  0  0  0
  -30.8507   -9.5403  143.2817 F   0  0  0  0  0  0  0  0  0  0  0  0
  -28.7528   -8.0505  141.8721 Cl  0  0  0  0  0  0  0  0  0  0  0  0
  -23.0186  -14.3684  143.8729 O   0  0  0  0  0  0  0  0  0  0  0  0
 11 12  1  0
  6 14  1  0
 14 15  1  0
 18 21  1  0
 19 22  1  0
  8 23  1  0
  3  2  1  0
 15 16  2  0
 16 17  1  0
 17 18  2  0
 18 19  1  0
 19 20  2  0
 20 15  1  0
  1  2  2  0
  2  9  1  0
  9 10  2  0
 10 11  1  0
 11 13  2  0
 13  1  1  0
  3  4  2  0
  4  5  1  0
  5  6  2  0
  6  7  1  0
  7  8  2  0
  8  3  1  0
M  END

$$$$
No_1676-/dssg/home/sw_qyf/PocketFlow/Model-Generation-Results/5HT2A_7WC7_rec_A_10.pdb/2024-01-01-03-54-21/
     RDKit          3D

 22 24  0  0  0  0  0  0  0  0999 V2000
  -24.1553  -17.8465  145.7021 C   0  0  0  0  0  0  0  0  0  0  0  0
  -23.9795  -18.4462  146.7426 C   0  0  0  0  0  0  0  0  0  0  0  0
  -24.3577  -16.4380  145.7329 C   0  0  0  0  0  0  0  0  0  0  0  0
  -24.6120  -15.7738  146.9649 C   0  0  0  0  0  0  0  0  0  0  0  0
  -24.1170  -17.8639  148.0590 C   0  0  0  0  0  0  0  0  0  0  0  0
  -24.3602  -16.5130  148.2032 C   0  0  0  0  0  0  0  0  0  0  0  0
  -24.5424  -15.6038  144.5505 C   0  0  0  0  0  0  0  0  0  0  0  0
  -23.6016  -14.5112  144.5119 C   0  0  0  0  0  0  0  0  0  0  0  0
  -24.0454  -13.2182  144.7228 C   0  0  0  0  0  0  0  0  0  0  0  0
  -22.9651  -12.1898  144.8442 C   0  0  0  0  0  0  0  0  0  0  0  0
  -23.2057  -11.2403  145.7302 N   0  0  0  0  0  0  0  0  0  0  0  0
  -21.8842  -12.1692  144.1889 O   0  0  0  0  0  0  0  0  0  0  0  0
  -25.3540  -12.8471  144.6667 C   0  0  0  0  0  0  0  0  0  0  0  0
  -25.7777  -11.8089  145.5910 C   0  0  0  0  0  0  0  0  0  0  0  0
  -24.6502  -10.8368  145.9849 C   0  0  0  0  0  0  0  0  0  0  0  0
  -27.1250  -11.4547  145.8470 C   0  0  0  0  0  0  0  0  0  0  0  0
  -27.7974  -12.3043  146.7153 C   0  0  0  0  0  0  0  0  0  0  0  0
  -29.1723  -12.1001  147.0173 C   0  0  0  0  0  0  0  0  0  0  0  0
  -29.8447  -11.0615  146.2973 C   0  0  0  0  0  0  0  0  0  0  0  0
  -29.1791  -10.3665  145.2753 C   0  0  0  0  0  0  0  0  0  0  0  0
  -27.7769  -10.5909  145.0887 C   0  0  0  0  0  0  0  0  0  0  0  0
  -30.0409  -12.9567  148.2275 Cl  0  0  0  0  0  0  0  0  0  0  0  0
  3  7  1  0
  7  8  1  0
  8  9  2  3
  9 10  1  0
 10 11  1  0
 10 12  2  0
  9 13  1  0
 13 14  1  0
 11 15  1  0
 14 15  1  0
 14 16  1  0
 18 22  1  0
  1  2  2  0
  2  5  1  0
  5  6  2  0
  6  4  1  0
  4  3  2  0
  3  1  1  0
 16 17  2  0
 17 18  1  0
 18 19  2  0
 19 20  1  0
 20 21  2  0
 21 16  1  0
M  END

$$$$
No_1677-/dssg/home/sw_qyf/PocketFlow/Model-Generation-Results/5HT2A_7WC7_rec_A_10.pdb/2024-01-01-03-54-21/
     RDKit          3D

 29 33  0  0  0  0  0  0  0  0999 V2000
  -24.1553  -17.8465  145.7021 C   0  0  0  0  0  0  0  0  0  0  0  0
  -23.9795  -18.4462  146.7426 C   0  0  0  0  0  0  0  0  0  0  0  0
  -25.1593  -16.8262  145.6925 C   0  0  0  0  0  0  0  0  0  0  0  0
  -25.3302  -15.8818  144.5925 C   0  0  0  0  0  0  0  0  0  0  0  0
  -24.4570  -18.1009  148.0274 C   0  0  0  0  0  0  0  0  0  0  0  0
  -25.3496  -17.0286  148.1023 C   0  0  0  0  0  0  0  0  0  0  0  0
  -25.5669  -16.2449  146.9641 C   0  0  0  0  0  0  0  0  0  0  0  0
  -24.1866  -15.0522  144.1641 C   0  0  0  0  0  0  0  0  0  0  0  0
  -24.5102  -13.5375  144.1629 C   0  0  0  0  0  0  0  0  0  0  0  0
  -24.4431  -13.0791  145.6133 C   0  0  0  0  0  0  0  0  0  0  0  0
  -25.2981  -11.9192  145.9232 C   0  0  0  0  0  0  0  0  0  0  0  0
  -26.0232  -11.2781  144.9596 C   0  0  0  0  0  0  0  0  0  0  0  0
  -27.3897  -11.1100  145.0463 C   0  0  0  0  0  0  0  0  0  0  0  0
  -28.0762  -10.2408  144.1151 C   0  0  0  0  0  0  0  0  0  0  0  0
  -27.5933   -9.7838  143.1075 C   0  0  0  0  0  0  0  0  0  0  0  0
  -29.5642  -10.0134  144.4407 C   0  0  0  0  0  0  0  0  0  0  0  0
  -30.0557  -10.5290  145.5080 O   0  0  0  0  0  0  0  0  0  0  0  0
  -30.2959   -9.3720  143.5730 N   0  0  0  0  0  0  0  0  0  0  0  0
  -29.8106   -8.8248  142.4366 C   0  0  0  0  0  0  0  0  0  0  0  0
  -28.4761   -9.1004  142.0889 C   0  0  0  0  0  0  0  0  0  0  0  0
  -30.6826   -8.2813  141.5812 O   0  0  0  0  0  0  0  0  0  0  0  0
  -26.5091  -15.1699  147.0730 C   0  0  0  0  0  0  0  0  0  0  0  0
  -28.0644  -11.9438  146.0323 C   0  0  0  0  0  0  0  0  0  0  0  0
  -29.4039  -11.4566  146.4075 C   0  0  0  0  0  0  0  0  0  0  0  0
  -30.1775  -12.0306  147.5027 C   0  0  0  0  0  0  0  0  0  0  0  0
  -29.7672  -13.3044  148.0603 C   0  0  0  0  0  0  0  0  0  0  0  0
  -28.9120  -14.1698  147.3519 C   0  0  0  0  0  0  0  0  0  0  0  0
  -27.9126  -13.4846  146.5030 C   0  0  0  0  0  0  0  0  0  0  0  0
  -27.4303  -14.2990  146.9393 C   0  0  0  0  0  0  0  0  0  0  0  0
  3  4  1  0
  4  8  1  0
  8  9  1  0
  9 10  1  0
 10 11  2  3
 11 12  1  0
 12 13  1  0
 13 14  1  0
 14 16  1  0
 16 17  1  0
 16 18  1  0
 18 19  1  0
 15 20  1  0
 19 20  1  0
 19 21  2  0
  7 22  1  0
 13 23  1  0
 17 24  1  0
 23 24  1  0
 24 25  1  0
 25 26  1  0
 26 27  1  0
 23 28  1  0
 27 28  1  0
 22 29  2  3
 28 29  1  0
 14 15  1  0
  1  2  2  0
  2  5  1  0
  5  6  2  0
  6  7  1  0
  7  3  2  0
  3  1  1  0
M  END

$$$$
No_1678-/dssg/home/sw_qyf/PocketFlow/Model-Generation-Results/5HT2A_7WC7_rec_A_10.pdb/2024-01-01-03-54-21/
     RDKit          3D

 18 19  0  0  0  0  0  0  0  0999 V2000
  -24.1553  -17.8465  145.7021 C   0  0  0  0  0  0  0  0  0  0  0  0
  -23.9795  -18.4462  146.7426 C   0  0  0  0  0  0  0  0  0  0  0  0
  -24.2723  -16.4220  145.8037 C   0  0  0  0  0  0  0  0  0  0  0  0
  -24.9934  -15.8373  146.8363 C   0  0  0  0  0  0  0  0  0  0  0  0
  -25.2878  -14.4778  146.8072 C   0  0  0  0  0  0  0  0  0  0  0  0
  -24.4015  -18.0073  148.0208 C   0  0  0  0  0  0  0  0  0  0  0  0
  -24.7473  -16.6561  148.1531 C   0  0  0  0  0  0  0  0  0  0  0  0
  -24.7987  -13.5630  146.0008 C   0  0  0  0  0  0  0  0  0  0  0  0
  -25.0157  -12.1856  146.0044 C   0  0  0  0  0  0  0  0  0  0  0  0
  -24.7566  -11.3187  144.9274 C   0  0  0  0  0  0  0  0  0  0  0  0
  -24.3241  -15.5881  144.5399 C   0  0  0  0  0  0  0  0  0  0  0  0
  -24.3191  -14.1068  144.7419 C   0  0  0  0  0  0  0  0  0  0  0  0
  -26.5288  -11.8107  146.4258 C   0  0  0  0  0  0  0  0  0  0  0  0
  -27.5122  -12.0590  145.3761 C   0  0  0  0  0  0  0  0  0  0  0  0
  -28.8831  -12.1668  145.7667 C   0  0  0  0  0  0  0  0  0  0  0  0
  -29.7475  -11.0479  145.4851 C   0  0  0  0  0  0  0  0  0  0  0  0
  -30.3751  -10.4682  146.6117 O   0  0  0  0  0  0  0  0  0  0  0  0
  -30.0394  -10.5156  144.3935 O   0  0  0  0  0  0  0  0  0  0  0  0
  1  2  1  0
  1  3  1  0
  2  6  1  0
  4  7  1  0
  6  7  1  0
  8  9  1  0
  9 10  1  0
  9 13  1  0
 13 14  1  0
 14 15  1  0
 15 16  1  0
 16 17  1  0
 16 18  2  0
  3  4  2  0
  4  5  1  0
  5  8  2  0
  8 12  1  0
 12 11  2  0
 11  3  1  0
M  END

$$$$
No_1679-/dssg/home/sw_qyf/PocketFlow/Model-Generation-Results/5HT2A_7WC7_rec_A_10.pdb/2024-01-01-03-54-21/
     RDKit          3D

 10 10  0  0  0  0  0  0  0  0999 V2000
  -24.1553  -17.8465  145.7021 C   0  0  0  0  0  0  0  0  0  0  0  0
  -24.6364  -17.2931  146.7091 C   0  0  0  0  0  0  0  0  0  0  0  0
  -25.8608  -16.5592  146.5934 C   0  0  0  0  0  0  0  0  0  0  0  0
  -26.9933  -16.9082  147.1889 C   0  0  0  0  0  0  0  0  0  0  0  0
  -28.2350  -16.1839  146.8943 C   0  0  0  0  0  0  0  0  0  0  0  0
  -28.0449  -14.7940  146.7879 C   0  0  0  0  0  0  0  0  0  0  0  0
  -26.8229  -14.2199  146.3088 C   0  0  0  0  0  0  0  0  0  0  0  0
  -25.6264  -15.0992  146.4648 C   0  0  0  0  0  0  0  0  0  0  0  0
  -26.6103  -12.8282  146.0829 C   0  0  0  0  0  0  0  0  0  0  0  0
  -25.4099  -12.3012  145.6271 C   0  0  0  0  0  0  0  0  0  0  0  0
  1  2  1  0
  2  3  1  0
  7  9  1  0
  9 10  1  0
  3  4  2  0
  4  5  1  0
  5  6  2  0
  6  7  1  0
  7  8  2  0
  8  3  1  0
M  END

$$$$
No_1680-/dssg/home/sw_qyf/PocketFlow/Model-Generation-Results/5HT2A_7WC7_rec_A_10.pdb/2024-01-01-03-54-21/
     RDKit          3D

 33 37  0  0  0  0  0  0  0  0999 V2000
  -24.1553  -17.8465  145.7021 C   0  0  0  0  0  0  0  0  0  0  0  0
  -24.2855  -16.6364  145.3494 C   0  0  0  0  0  0  0  0  0  0  0  0
  -24.7210  -15.5955  146.2116 C   0  0  0  0  0  0  0  0  0  0  0  0
  -24.8538  -14.2010  145.8739 C   0  0  0  0  0  0  0  0  0  0  0  0
  -24.1440  -13.8321  144.7073 C   0  0  0  0  0  0  0  0  0  0  0  0
  -23.4275  -14.8130  143.9942 C   0  0  0  0  0  0  0  0  0  0  0  0
  -23.5366  -16.0900  144.3641 N   0  0  0  0  0  0  0  0  0  0  0  0
  -25.0287  -18.4322  146.6889 C   0  0  0  0  0  0  0  0  0  0  0  0
  -25.6349  -17.5047  147.5882 C   0  0  0  0  0  0  0  0  0  0  0  0
  -25.7350  -16.1243  147.2914 C   0  0  0  0  0  0  0  0  0  0  0  0
  -23.8920  -12.5055  144.5178 O   0  0  0  0  0  0  0  0  0  0  0  0
  -23.6669  -11.7599  145.8280 C   0  0  0  0  0  0  0  0  0  0  0  0
  -24.6945  -12.0888  146.8155 C   0  0  0  0  0  0  0  0  0  0  0  0
  -24.8943  -13.4935  147.0467 C   0  0  0  0  0  0  0  0  0  0  0  0
  -25.9429  -11.4683  146.5026 O   0  0  0  0  0  0  0  0  0  0  0  0
  -26.2292  -11.0444  145.3467 C   0  0  0  0  0  0  0  0  0  0  0  0
  -27.5478  -11.4592  144.7675 C   0  0  0  0  0  0  0  0  0  0  0  0
  -28.1837  -10.3676  144.4623 C   0  0  0  0  0  0  0  0  0  0  0  0
  -29.0917  -10.4008  143.3187 C   0  0  0  0  0  0  0  0  0  0  0  0
  -30.1951   -9.4489  143.2194 C   0  0  0  0  0  0  0  0  0  0  0  0
  -30.2022   -8.4195  142.2937 C   0  0  0  0  0  0  0  0  0  0  0  0
  -29.3716   -8.4752  141.2034 C   0  0  0  0  0  0  0  0  0  0  0  0
  -29.3655   -7.4387  140.1969 C   0  0  0  0  0  0  0  0  0  0  0  0
  -28.6779   -7.6526  138.9836 C   0  0  0  0  0  0  0  0  0  0  0  0
  -27.9617   -8.8697  138.8092 C   0  0  0  0  0  0  0  0  0  0  0  0
  -27.9317   -9.8115  139.8748 C   0  0  0  0  0  0  0  0  0  0  0  0
  -28.6874   -9.5932  141.0645 C   0  0  0  0  0  0  0  0  0  0  0  0
  -28.1594  -10.0194  142.0340 C   0  0  0  0  0  0  0  0  0  0  0  0
  -31.7218   -7.9224  142.0652 C   0  0  0  0  0  0  0  0  0  0  0  0
  -27.1596  -11.0336  139.5894 C   0  0  0  0  0  0  0  0  0  0  0  0
  -26.0744  -11.1672  139.9989 O   0  0  0  0  0  0  0  0  0  0  0  0
  -27.9456  -12.1483  139.3042 N   0  0  0  0  0  0  0  0  0  0  0  0
  -31.0233   -9.5748  144.2983 O   0  0  0  0  0  0  0  0  0  0  0  0
  3  4  1  0
  4  5  1  0
  5  6  1  0
  2  7  1  0
  6  7  1  0
  5 11  1  0
 11 12  1  0
 12 13  1  0
  4 14  1  0
 13 14  1  0
 13 15  1  0
 15 16  1  0
 16 17  1  0
 17 18  1  0
 18 19  1  0
 21 29  1  0
 26 30  1  0
 30 31  2  0
 30 32  1  0
 20 33  1  0
 22 23  1  0
 23 24  2  0
 24 25  1  0
 25 26  2  0
 26 27  1  0
  1  2  2  0
  2  3  1  0
  3 10  2  0
 10  9  1  0
  9  8  2  0
  8  1  1  0
 19 20  2  0
 20 21  1  0
 21 22  2  0
 22 27  1  0
 27 28  2  0
 28 19  1  0
M  END

$$$$
No_1681-/dssg/home/sw_qyf/PocketFlow/Model-Generation-Results/5HT2A_7WC7_rec_A_10.pdb/2024-01-01-03-54-21/
     RDKit          3D

 35 37  0  0  0  0  0  0  0  0999 V2000
  -23.1746  -16.6014  144.8668 C   0  0  0  0  0  0  0  0  0  0  0  0
  -23.8963  -15.5346  144.7885 C   0  0  0  0  0  0  0  0  0  0  0  0
  -23.4976  -14.2961  145.1226 C   0  0  0  0  0  0  0  0  0  0  0  0
  -24.3175  -13.3088  145.7775 C   0  0  0  0  0  0  0  0  0  0  0  0
  -25.6586  -13.6027  146.0239 C   0  0  0  0  0  0  0  0  0  0  0  0
  -26.0737  -14.9390  145.9541 C   0  0  0  0  0  0  0  0  0  0  0  0
  -25.1974  -15.8784  145.3395 C   0  0  0  0  0  0  0  0  0  0  0  0
  -27.3923  -15.3498  146.3618 C   0  0  0  0  0  0  0  0  0  0  0  0
  -27.8767  -15.5226  147.5252 C   0  0  0  0  0  0  0  0  0  0  0  0
  -29.1981  -15.6199  147.9655 C   0  0  0  0  0  0  0  0  0  0  0  0
  -30.1473  -15.2869  146.8810 C   0  0  0  0  0  0  0  0  0  0  0  0
  -23.8171  -17.9663  144.6438 C   0  0  0  0  0  0  0  0  0  0  0  0
  -23.8701  -11.9970  146.0106 N   0  0  0  0  0  0  0  0  0  0  0  0
  -30.3357  -13.9631  146.7093 C   0  0  0  0  0  0  0  0  0  0  0  0
  -29.3021  -13.1509  146.0863 C   0  0  0  0  0  0  0  0  0  0  0  0
  -29.2439  -11.7222  146.5005 C   0  0  0  0  0  0  0  0  0  0  0  0
  -28.6745  -10.8247  145.5877 C   0  0  0  0  0  0  0  0  0  0  0  0
  -29.3205  -10.5174  144.4169 C   0  0  0  0  0  0  0  0  0  0  0  0
  -28.6044   -9.9104  143.3217 C   0  0  0  0  0  0  0  0  0  0  0  0
  -27.4707   -9.9397  143.2189 C   0  0  0  0  0  0  0  0  0  0  0  0
  -26.5699  -10.2947  144.4648 C   0  0  0  0  0  0  0  0  0  0  0  0
  -27.2267  -10.8800  145.4457 C   0  0  0  0  0  0  0  0  0  0  0  0
  -29.3064   -9.6517  142.0359 C   0  0  0  0  0  0  0  0  0  0  0  0
  -28.7553   -9.5191  140.9071 C   0  0  0  0  0  0  0  0  0  0  0  0
  -29.1405   -8.5824  139.9908 C   0  0  0  0  0  0  0  0  0  0  0  0
  -30.2733   -7.7059  140.2643 C   0  0  0  0  0  0  0  0  0  0  0  0
  -30.9252   -8.0057  141.5041 C   0  0  0  0  0  0  0  0  0  0  0  0
  -30.5582   -8.8389  142.4158 C   0  0  0  0  0  0  0  0  0  0  0  0
  -28.4254   -8.3402  138.7014 C   0  0  0  0  0  0  0  0  0  0  0  0
  -27.5995   -9.0337  138.3734 O   0  0  0  0  0  0  0  0  0  0  0  0
  -28.8073   -7.3471  137.9940 O   0  0  0  0  0  0  0  0  0  0  0  0
  -23.8229  -18.7599  145.9050 C   0  0  0  0  0  0  0  0  0  0  0  0
  -24.4797  -18.4310  146.7265 O   0  0  0  0  0  0  0  0  0  0  0  0
  -22.7944  -19.5832  146.1138 O   0  0  0  0  0  0  0  0  0  0  0  0
  -29.6050  -16.0770  149.1794 N   0  0  0  0  0  0  0  0  0  0  0  0
  1  2  2  3
  2  3  1  0
  3  4  1  0
  4  5  1  0
  5  6  1  0
  2  7  1  0
  6  7  1  0
  6  8  1  0
  8  9  1  0
  9 10  2  3
 10 11  1  0
  1 12  1  0
  4 13  1  0
 11 14  1  0
 14 15  1  0
 15 16  1  0
 19 23  1  0
 25 29  1  0
 29 30  1  0
 29 31  2  0
 12 32  1  0
 32 33  2  0
 32 34  1  0
 10 35  1  0
 16 17  1  0
 17 18  2  0
 18 19  1  0
 19 20  2  0
 20 21  1  0
 21 22  2  0
 22 17  1  0
 23 24  2  0
 24 25  1  0
 25 26  2  0
 26 27  1  0
 27 28  2  0
 28 23  1  0
M  END

$$$$
No_1682-/dssg/home/sw_qyf/PocketFlow/Model-Generation-Results/5HT2A_7WC7_rec_A_10.pdb/2024-01-01-03-54-21/
     RDKit          3D

 17 17  0  0  0  0  0  0  0  0999 V2000
  -24.1553  -17.8465  145.7021 C   0  0  0  0  0  0  0  0  0  0  0  0
  -24.2856  -16.6364  145.3494 C   0  0  0  0  0  0  0  0  0  0  0  0
  -24.5733  -15.7651  145.9979 C   0  0  0  0  0  0  0  0  0  0  0  0
  -24.7790  -14.3201  145.5846 C   0  0  0  0  0  0  0  0  0  0  0  0
  -25.3736  -13.2401  146.2095 C   0  0  0  0  0  0  0  0  0  0  0  0
  -25.0036  -11.9161  145.9969 C   0  0  0  0  0  0  0  0  0  0  0  0
  -23.3010  -18.6841  145.7133 C   0  0  0  0  0  0  0  0  0  0  0  0
  -24.1314  -11.6704  145.0117 C   0  0  0  0  0  0  0  0  0  0  0  0
  -23.3187  -12.6472  144.4590 C   0  0  0  0  0  0  0  0  0  0  0  0
  -23.6764  -14.0373  144.8031 C   0  0  0  0  0  0  0  0  0  0  0  0
  -23.3259  -19.9593  146.3974 C   0  0  0  0  0  0  0  0  0  0  0  0
  -26.0559  -10.6724  146.6205 Cl  0  0  0  0  0  0  0  0  0  0  0  0
  -25.0158  -15.9703  147.4318 C   0  0  0  0  0  0  0  0  0  0  0  0
  -26.2897  -16.4692  147.7043 C   0  0  0  0  0  0  0  0  0  0  0  0
  -27.3339  -16.5267  147.2249 C   0  0  0  0  0  0  0  0  0  0  0  0
  -27.6454  -16.1950  145.8374 C   0  0  0  0  0  0  0  0  0  0  0  0
  -23.8332  -16.4820  144.0727 O   0  0  0  0  0  0  0  0  0  0  0  0
  1  2  1  0
  2  3  1  0
  3  4  1  0
  1  7  2  3
  7 11  1  0
  6 12  1  0
  3 13  1  0
 13 14  2  3
 14 15  1  0
 15 16  1  0
  2 17  2  0
  4  5  2  0
  5  6  1  0
  6  8  2  0
  8  9  1  0
  9 10  2  0
 10  4  1  0
M  END

$$$$
No_1683-/dssg/home/sw_qyf/PocketFlow/Model-Generation-Results/5HT2A_7WC7_rec_A_10.pdb/2024-01-01-03-54-21/
     RDKit          3D

 20 21  0  0  0  0  0  0  0  0999 V2000
  -24.1553  -17.8465  145.7021 C   0  0  0  0  0  0  0  0  0  0  0  0
  -24.6364  -17.2931  146.7091 C   0  0  0  0  0  0  0  0  0  0  0  0
  -24.0780  -17.2921  147.9389 C   0  0  0  0  0  0  0  0  0  0  0  0
  -24.6869  -16.7004  149.1440 C   0  0  0  0  0  0  0  0  0  0  0  0
  -26.0385  -16.2385  148.9552 C   0  0  0  0  0  0  0  0  0  0  0  0
  -26.6430  -16.2999  147.7413 C   0  0  0  0  0  0  0  0  0  0  0  0
  -25.9652  -16.9120  146.6641 C   0  0  0  0  0  0  0  0  0  0  0  0
  -23.5791  -19.0112  145.5610 N   0  0  0  0  0  0  0  0  0  0  0  0
  -23.9298  -17.0216  144.6019 O   0  0  0  0  0  0  0  0  0  0  0  0
  -28.0652  -15.8696  147.6788 C   0  0  0  0  0  0  0  0  0  0  0  0
  -28.2814  -14.6972  147.0979 C   0  0  0  0  0  0  0  0  0  0  0  0
  -29.4110  -13.8522  147.1734 C   0  0  0  0  0  0  0  0  0  0  0  0
  -29.4638  -12.5781  146.6224 C   0  0  0  0  0  0  0  0  0  0  0  0
  -28.3689  -12.0768  145.8450 C   0  0  0  0  0  0  0  0  0  0  0  0
  -28.2990  -10.8178  145.2639 C   0  0  0  0  0  0  0  0  0  0  0  0
  -27.1461  -10.4322  144.5492 C   0  0  0  0  0  0  0  0  0  0  0  0
  -27.1911  -13.9492  146.3712 C   0  0  0  0  0  0  0  0  0  0  0  0
  -27.2851  -12.7265  145.8173 C   0  0  0  0  0  0  0  0  0  0  0  0
  -27.2185   -9.2448  143.8205 C   0  0  0  0  0  0  0  0  0  0  0  0
  -25.9459  -11.1363  144.7202 C   0  0  0  0  0  0  0  0  0  0  0  0
  1  2  1  0
  1  8  1  0
  1  9  2  0
  6 10  1  0
 14 15  1  0
 15 16  1  0
 16 19  1  0
 16 20  1  0
 10 11  1  0
  2  3  2  0
  3  4  1  0
  4  5  2  0
  5  6  1  0
  6  7  2  0
  7  2  1  0
 11 12  2  0
 12 13  1  0
 13 14  2  0
 14 18  1  0
 18 17  2  0
 17 11  1  0
M  END

$$$$
No_1684-/dssg/home/sw_qyf/PocketFlow/Model-Generation-Results/5HT2A_7WC7_rec_A_10.pdb/2024-01-01-03-54-21/
     RDKit          3D

 35 38  0  0  0  0  0  0  0  0999 V2000
  -24.1553  -17.8465  145.7021 C   0  0  0  0  0  0  0  0  0  0  0  0
  -23.9795  -18.4462  146.7426 C   0  0  0  0  0  0  0  0  0  0  0  0
  -25.1593  -16.8262  145.6925 C   0  0  0  0  0  0  0  0  0  0  0  0
  -24.9465  -15.5960  144.9952 C   0  0  0  0  0  0  0  0  0  0  0  0
  -24.7630  -14.4365  145.6428 C   0  0  0  0  0  0  0  0  0  0  0  0
  -25.2475  -13.3016  145.1758 C   0  0  0  0  0  0  0  0  0  0  0  0
  -26.1903  -13.3585  144.2417 C   0  0  0  0  0  0  0  0  0  0  0  0
  -25.7444  -13.5512  142.9469 C   0  0  0  0  0  0  0  0  0  0  0  0
  -26.8484  -13.5351  141.9718 C   0  0  0  0  0  0  0  0  0  0  0  0
  -22.5546  -18.5573  147.2023 C   0  0  0  0  0  0  0  0  0  0  0  0
  -27.5046  -12.2499  141.7820 C   0  0  0  0  0  0  0  0  0  0  0  0
  -27.9734  -11.8527  140.4611 C   0  0  0  0  0  0  0  0  0  0  0  0
  -27.6100  -12.4433  139.2418 C   0  0  0  0  0  0  0  0  0  0  0  0
  -27.7823  -11.6358  138.0377 C   0  0  0  0  0  0  0  0  0  0  0  0
  -28.1309  -10.3235  138.1117 C   0  0  0  0  0  0  0  0  0  0  0  0
  -28.2426   -9.5752  139.3968 C   0  0  0  0  0  0  0  0  0  0  0  0
  -28.0372  -10.3333  140.6226 C   0  0  0  0  0  0  0  0  0  0  0  0
  -28.5322   -8.1560  139.4050 C   0  0  0  0  0  0  0  0  0  0  0  0
  -28.5739   -7.4348  138.3569 N   0  0  0  0  0  0  0  0  0  0  0  0
  -28.8627   -7.6730  140.6270 F   0  0  0  0  0  0  0  0  0  0  0  0
  -25.7168  -12.3437  146.4075 C   0  0  0  0  0  0  0  0  0  0  0  0
  -26.9943  -11.6771  146.0830 C   0  0  0  0  0  0  0  0  0  0  0  0
  -27.0795  -11.9836  144.5480 C   0  0  0  0  0  0  0  0  0  0  0  0
  -27.7345  -11.4284  143.0441 C   0  0  0  0  0  0  0  0  0  0  0  0
  -26.3696  -17.0236  146.3856 C   0  0  0  0  0  0  0  0  0  0  0  0
  -27.2956  -16.2021  146.2185 O   0  0  0  0  0  0  0  0  0  0  0  0
  -28.2817  -15.9591  147.2173 C   0  0  0  0  0  0  0  0  0  0  0  0
  -29.2603  -14.9509  146.9134 C   0  0  0  0  0  0  0  0  0  0  0  0
  -29.9453  -14.2923  148.0306 C   0  0  0  0  0  0  0  0  0  0  0  0
  -30.1433  -15.1111  149.1971 C   0  0  0  0  0  0  0  0  0  0  0  0
  -29.2465  -16.2250  149.4075 C   0  0  0  0  0  0  0  0  0  0  0  0
  -28.2970  -16.5723  148.4727 C   0  0  0  0  0  0  0  0  0  0  0  0
  -30.7971  -13.1606  147.8289 C   0  0  0  0  0  0  0  0  0  0  0  0
  -29.8684  -11.9561  147.5674 C   0  0  0  0  0  0  0  0  0  0  0  0
  -30.4668  -10.9456  146.8912 O   0  0  0  0  0  0  0  0  0  0  0  0
  1  2  1  0
  1  3  1  0
  3  4  1  0
  4  5  1  0
  5  6  1  0
  6  7  1  0
  2 10  1  0
 16 18  1  0
 18 19  1  0
 18 20  1  0
  6 21  1  0
 21 22  1  0
 22 23  1  0
  3 25  1  0
 25 26  1  0
 26 27  1  0
 29 33  1  0
 33 34  1  0
 34 35  1  0
 11 12  1  0
 12 13  2  0
 13 14  1  0
 14 15  2  0
 15 16  1  0
 16 17  2  0
 17 12  1  0
 27 28  2  0
 28 29  1  0
 29 30  2  0
 30 31  1  0
 31 32  2  0
 32 27  1  0
  7  8  2  0
  8  9  1  0
  9 11  2  0
 11 24  1  0
 24 23  2  0
 23  7  1  0
M  END

$$$$
No_1685-/dssg/home/sw_qyf/PocketFlow/Model-Generation-Results/5HT2A_7WC7_rec_A_10.pdb/2024-01-01-03-54-21/
     RDKit          3D

 35 36  0  0  0  0  0  0  0  0999 V2000
  -23.1746  -16.6014  144.8668 C   0  0  0  0  0  0  0  0  0  0  0  0
  -24.0189  -16.0564  145.8445 C   0  0  0  0  0  0  0  0  0  0  0  0
  -24.4850  -14.7380  145.6359 C   0  0  0  0  0  0  0  0  0  0  0  0
  -24.0208  -14.0081  144.6269 C   0  0  0  0  0  0  0  0  0  0  0  0
  -23.3686  -12.7461  145.1561 C   0  0  0  0  0  0  0  0  0  0  0  0
  -24.3490  -16.8813  146.9924 C   0  0  0  0  0  0  0  0  0  0  0  0
  -25.1515  -16.3067  147.9386 C   0  0  0  0  0  0  0  0  0  0  0  0
  -25.9786  -15.1615  147.6743 C   0  0  0  0  0  0  0  0  0  0  0  0
  -25.4755  -14.2594  146.7141 C   0  0  0  0  0  0  0  0  0  0  0  0
  -23.8437  -18.1986  147.1464 C   0  0  0  0  0  0  0  0  0  0  0  0
  -24.1509  -11.7767  145.4675 F   0  0  0  0  0  0  0  0  0  0  0  0
  -22.5398  -12.9562  146.2255 F   0  0  0  0  0  0  0  0  0  0  0  0
  -23.2399  -18.6855  148.0095 O   0  0  0  0  0  0  0  0  0  0  0  0
  -24.3887  -19.1221  146.2643 O   0  0  0  0  0  0  0  0  0  0  0  0
  -22.4025  -12.3360  144.2674 F   0  0  0  0  0  0  0  0  0  0  0  0
  -25.5424  -17.0099  149.0390 O   0  0  0  0  0  0  0  0  0  0  0  0
  -24.7670  -16.9557  150.1716 C   0  0  0  0  0  0  0  0  0  0  0  0
  -26.0439  -13.0162  146.5385 N   0  0  0  0  0  0  0  0  0  0  0  0
  -26.7092  -12.3861  145.6708 C   0  0  0  0  0  0  0  0  0  0  0  0
  -28.0291  -12.8878  145.5799 C   0  0  0  0  0  0  0  0  0  0  0  0
  -28.9899  -11.9611  146.3162 C   0  0  0  0  0  0  0  0  0  0  0  0
  -29.4499  -10.7211  145.8009 C   0  0  0  0  0  0  0  0  0  0  0  0
  -29.1105  -10.4425  144.4950 C   0  0  0  0  0  0  0  0  0  0  0  0
  -27.9458  -10.5249  143.9688 C   0  0  0  0  0  0  0  0  0  0  0  0
  -27.7000   -9.9158  142.7518 C   0  0  0  0  0  0  0  0  0  0  0  0
  -29.5089  -12.4874  147.6053 C   0  0  0  0  0  0  0  0  0  0  0  0
  -28.6998   -9.4462  141.8762 C   0  0  0  0  0  0  0  0  0  0  0  0
  -30.0170   -9.2873  142.5667 C   0  0  0  0  0  0  0  0  0  0  0  0
  -30.1963   -9.7758  143.7524 C   0  0  0  0  0  0  0  0  0  0  0  0
  -29.3640  -13.7632  148.0565 C   0  0  0  0  0  0  0  0  0  0  0  0
  -28.4509   -8.9297  140.5845 C   0  0  0  0  0  0  0  0  0  0  0  0
  -27.8046   -9.7428  139.6287 C   0  0  0  0  0  0  0  0  0  0  0  0
  -27.3533  -11.0636  139.8835 C   0  0  0  0  0  0  0  0  0  0  0  0
  -27.1024  -11.9654  138.8385 C   0  0  0  0  0  0  0  0  0  0  0  0
  -31.1143   -8.7101  141.8237 C   0  0  0  0  0  0  0  0  0  0  0  0
  1  2  1  0
  3  4  1  0
  4  5  1  0
  6 10  1  0
  5 11  1  0
  5 12  1  0
 10 13  2  0
 10 14  1  0
  5 15  1  0
  7 16  1  0
 16 17  1  0
  9 18  1  0
 18 19  1  0
 19 20  1  0
 20 21  1  0
 21 22  1  0
 22 23  1  0
 21 26  1  0
 26 30  1  0
 27 31  1  0
 31 32  2  3
 32 33  1  0
 33 34  1  0
 28 35  1  0
 23 24  2  0
 24 25  1  0
 25 27  2  0
 27 28  1  0
 28 29  2  0
 29 23  1  0
  2  3  2  0
  3  9  1  0
  9  8  2  0
  8  7  1  0
  7  6  2  0
  6  2  1  0
M  END

$$$$
No_1686-/dssg/home/sw_qyf/PocketFlow/Model-Generation-Results/5HT2A_7WC7_rec_A_10.pdb/2024-01-01-03-54-21/
     RDKit          3D

 22 23  0  0  0  0  0  0  0  0999 V2000
  -24.1553  -17.8465  145.7021 C   0  0  0  0  0  0  0  0  0  0  0  0
  -23.9795  -18.4462  146.7426 C   0  0  0  0  0  0  0  0  0  0  0  0
  -25.1593  -16.8262  145.6925 C   0  0  0  0  0  0  0  0  0  0  0  0
  -24.9465  -15.5961  144.9952 C   0  0  0  0  0  0  0  0  0  0  0  0
  -25.8339  -14.4742  145.0599 C   0  0  0  0  0  0  0  0  0  0  0  0
  -25.6289  -13.3152  144.3271 C   0  0  0  0  0  0  0  0  0  0  0  0
  -22.7379  -19.1734  146.8426 C   0  0  0  0  0  0  0  0  0  0  0  0
  -26.6549  -12.3626  144.4190 C   0  0  0  0  0  0  0  0  0  0  0  0
  -26.9813  -11.5835  143.3398 C   0  0  0  0  0  0  0  0  0  0  0  0
  -27.9781  -10.5596  143.5925 C   0  0  0  0  0  0  0  0  0  0  0  0
  -28.0887   -9.4215  142.8605 C   0  0  0  0  0  0  0  0  0  0  0  0
  -29.1959   -8.4790  143.1549 C   0  0  0  0  0  0  0  0  0  0  0  0
  -29.3407   -7.2865  142.3866 C   0  0  0  0  0  0  0  0  0  0  0  0
  -29.6036   -6.1026  142.9324 C   0  0  0  0  0  0  0  0  0  0  0  0
  -29.7671   -7.5827  141.0145 C   0  0  0  0  0  0  0  0  0  0  0  0
  -30.9542   -8.4564  140.4821 Cl  0  0  0  0  0  0  0  0  0  0  0  0
  -23.7103  -15.4311  144.2904 C   0  0  0  0  0  0  0  0  0  0  0  0
  -23.2511  -14.2566  144.1128 O   0  0  0  0  0  0  0  0  0  0  0  0
  -24.2532  -13.1446  144.0823 C   0  0  0  0  0  0  0  0  0  0  0  0
  -26.5358  -11.2611  145.4858 C   0  0  0  0  0  0  0  0  0  0  0  0
  -27.3246  -10.1778  145.1764 N   0  0  0  0  0  0  0  0  0  0  0  0
  -25.9973  -11.2839  146.6084 O   0  0  0  0  0  0  0  0  0  0  0  0
  1  2  1  0
  1  3  1  0
  3  4  2  3
  4  5  1  0
  5  6  2  0
  2  7  1  0
  6  8  1  0
  8  9  1  0
  9 10  1  0
 10 11  2  3
 11 12  1  0
 12 13  1  0
 13 14  1  0
 13 15  1  0
 15 16  1  0
  4 17  1  0
 17 18  1  0
  6 19  1  0
 18 19  1  0
  8 20  1  0
 10 21  1  0
 20 21  1  0
 20 22  2  0
M  END

$$$$
No_1687-/dssg/home/sw_qyf/PocketFlow/Model-Generation-Results/5HT2A_7WC7_rec_A_10.pdb/2024-01-01-03-54-21/
     RDKit          3D

 35 38  0  0  0  0  0  0  0  0999 V2000
  -23.8042  -18.1535  145.4053 O   0  0  0  0  0  0  0  0  0  0  0  0
  -24.1154  -17.4458  146.3749 C   0  0  0  0  0  0  0  0  0  0  0  0
  -24.0695  -17.8072  147.7158 C   0  0  0  0  0  0  0  0  0  0  0  0
  -24.7395  -16.2033  146.1194 N   0  0  0  0  0  0  0  0  0  0  0  0
  -24.9519  -15.6381  144.9169 C   0  0  0  0  0  0  0  0  0  0  0  0
  -26.0413  -14.6822  144.8556 C   0  0  0  0  0  0  0  0  0  0  0  0
  -26.9382  -14.6151  145.7377 C   0  0  0  0  0  0  0  0  0  0  0  0
  -27.9720  -13.6295  145.6817 C   0  0  0  0  0  0  0  0  0  0  0  0
  -27.8118  -12.5378  144.7741 C   0  0  0  0  0  0  0  0  0  0  0  0
  -26.8786  -12.6865  143.7365 C   0  0  0  0  0  0  0  0  0  0  0  0
  -25.9291  -13.6916  143.8190 C   0  0  0  0  0  0  0  0  0  0  0  0
  -23.1079  -17.1268  148.4790 C   0  0  0  0  0  0  0  0  0  0  0  0
  -28.8410  -11.4722  144.6898 C   0  0  0  0  0  0  0  0  0  0  0  0
  -28.4056  -10.2265  144.8240 C   0  0  0  0  0  0  0  0  0  0  0  0
  -26.9832   -9.9018  144.5246 C   0  0  0  0  0  0  0  0  0  0  0  0
  -24.2429  -15.9431  144.0057 O   0  0  0  0  0  0  0  0  0  0  0  0
  -23.4412  -17.0823  149.9903 C   0  0  0  0  0  0  0  0  0  0  0  0
  -22.3879  -16.7605  150.8604 C   0  0  0  0  0  0  0  0  0  0  0  0
  -21.4214  -15.9903  150.4489 O   0  0  0  0  0  0  0  0  0  0  0  0
  -29.0098  -13.5290  146.7716 C   0  0  0  0  0  0  0  0  0  0  0  0
  -29.2708  -12.3827  147.4924 C   0  0  0  0  0  0  0  0  0  0  0  0
  -30.2650  -12.3794  148.5537 C   0  0  0  0  0  0  0  0  0  0  0  0
  -30.8815  -13.6027  148.8660 C   0  0  0  0  0  0  0  0  0  0  0  0
  -30.4151  -14.7587  148.1349 C   0  0  0  0  0  0  0  0  0  0  0  0
  -29.5424  -14.6994  147.1859 C   0  0  0  0  0  0  0  0  0  0  0  0
  -31.8117  -13.4264  150.0023 C   0  0  0  0  0  0  0  0  0  0  0  0
  -31.8769  -14.3927  150.9743 C   0  0  0  0  0  0  0  0  0  0  0  0
  -32.8089  -14.3688  151.9935 C   0  0  0  0  0  0  0  0  0  0  0  0
  -32.3980  -12.2584  150.3866 C   0  0  0  0  0  0  0  0  0  0  0  0
  -33.2700  -12.0682  151.4630 C   0  0  0  0  0  0  0  0  0  0  0  0
  -33.3901  -13.1426  152.3521 C   0  0  0  0  0  0  0  0  0  0  0  0
  -26.0560  -10.7364  144.7226 N   0  0  0  0  0  0  0  0  0  0  0  0
  -25.8126  -11.7521  143.9854 C   0  0  0  0  0  0  0  0  0  0  0  0
  -26.7017   -8.1931  144.3524 Cl  0  0  0  0  0  0  0  0  0  0  0  0
  -29.2673  -15.8353  146.6065 O   0  0  0  0  0  0  0  0  0  0  0  0
  1  2  2  0
  2  3  1  0
  2  4  1  0
  4  5  1  0
  5  6  1  0
  3 12  1  0
  9 13  1  0
 13 14  2  0
 14 15  1  0
  5 16  2  0
 12 17  1  0
 17 18  1  0
 18 19  1  0
  8 20  1  0
 23 26  1  0
 15 32  1  0
 10 33  1  0
 32 33  1  0
 15 34  1  0
 25 35  1  0
 26 27  2  0
 27 28  1  0
 28 31  2  0
 31 30  1  0
 30 29  2  0
 29 26  1  0
  6  7  2  0
  7  8  1  0
  8  9  2  0
  9 10  1  0
 10 11  2  0
 11  6  1  0
 20 21  2  0
 21 22  1  0
 22 23  2  0
 23 24  1  0
 24 25  2  0
 25 20  1  0
M  END

$$$$
No_1688-/dssg/home/sw_qyf/PocketFlow/Model-Generation-Results/5HT2A_7WC7_rec_A_10.pdb/2024-01-01-03-54-21/
     RDKit          3D

 35 37  0  0  0  0  0  0  0  0999 V2000
  -24.1553  -17.8465  145.7021 C   0  0  0  0  0  0  0  0  0  0  0  0
  -23.9795  -18.4462  146.7426 C   0  0  0  0  0  0  0  0  0  0  0  0
  -25.1593  -16.8262  145.6925 C   0  0  0  0  0  0  0  0  0  0  0  0
  -24.9465  -15.5961  144.9952 C   0  0  0  0  0  0  0  0  0  0  0  0
  -24.6254  -14.6487  145.2265 C   0  0  0  0  0  0  0  0  0  0  0  0
  -24.2364  -13.5063  144.2854 C   0  0  0  0  0  0  0  0  0  0  0  0
  -24.0245  -13.7748  143.1704 O   0  0  0  0  0  0  0  0  0  0  0  0
  -24.6626  -18.2182  147.9603 C   0  0  0  0  0  0  0  0  0  0  0  0
  -25.5646  -17.1464  148.0381 C   0  0  0  0  0  0  0  0  0  0  0  0
  -25.8030  -16.4036  146.9020 C   0  0  0  0  0  0  0  0  0  0  0  0
  -24.3078  -12.2148  144.6664 O   0  0  0  0  0  0  0  0  0  0  0  0
  -24.6858  -14.0075  146.7436 C   0  0  0  0  0  0  0  0  0  0  0  0
  -26.2403  -16.9426  149.3770 C   0  0  0  0  0  0  0  0  0  0  0  0
  -25.5802  -17.4580  150.5370 C   0  0  0  0  0  0  0  0  0  0  0  0
  -24.4200  -17.1319  150.8573 O   0  0  0  0  0  0  0  0  0  0  0  0
  -26.3417  -18.3314  151.2533 N   0  0  0  0  0  0  0  0  0  0  0  0
  -24.3861  -12.5133  146.7764 C   0  0  0  0  0  0  0  0  0  0  0  0
  -24.2286  -11.7731  145.8314 C   0  0  0  0  0  0  0  0  0  0  0  0
  -23.6256  -18.1122  144.5842 O   0  0  0  0  0  0  0  0  0  0  0  0
  -27.5561  -18.7633  151.1322 C   0  0  0  0  0  0  0  0  0  0  0  0
  -28.1670  -19.0863  152.4927 C   0  0  0  0  0  0  0  0  0  0  0  0
  -28.9634  -18.1402  153.0890 C   0  0  0  0  0  0  0  0  0  0  0  0
  -29.4672  -17.1003  152.3559 C   0  0  0  0  0  0  0  0  0  0  0  0
  -29.9223  -17.2013  151.1203 C   0  0  0  0  0  0  0  0  0  0  0  0
  -30.7240  -16.0532  150.6090 C   0  0  0  0  0  0  0  0  0  0  0  0
  -30.4235  -15.3949  149.3956 C   0  0  0  0  0  0  0  0  0  0  0  0
  -31.0106  -14.1763  149.0724 C   0  0  0  0  0  0  0  0  0  0  0  0
  -31.9972  -13.5958  149.8590 C   0  0  0  0  0  0  0  0  0  0  0  0
  -32.2968  -14.2850  151.1041 C   0  0  0  0  0  0  0  0  0  0  0  0
  -31.6615  -15.4251  151.5175 C   0  0  0  0  0  0  0  0  0  0  0  0
  -30.5739  -13.5793  147.8273 C   0  0  0  0  0  0  0  0  0  0  0  0
  -30.4995  -12.3016  147.7954 O   0  0  0  0  0  0  0  0  0  0  0  0
  -30.3370  -14.1993  146.8128 O   0  0  0  0  0  0  0  0  0  0  0  0
  -33.4564  -13.5458  152.1516 Cl  0  0  0  0  0  0  0  0  0  0  0  0
  -27.7572  -20.2870  153.0548 C   0  0  0  0  0  0  0  0  0  0  0  0
  4  5  1  0
  5  6  1  0
  6  7  2  0
  6 11  1  0
  5 12  1  0
  9 13  1  0
 13 14  1  0
 14 15  1  0
 14 16  2  3
 12 17  1  0
 11 18  1  0
 17 18  2  0
  1 19  1  0
 16 20  1  0
 20 21  1  0
 21 22  1  0
 22 23  1  0
 23 24  2  3
 24 25  1  0
 27 31  1  0
 31 32  1  0
 31 33  2  0
 29 34  1  0
 21 35  1  0
  4  3  1  0
 25 26  2  0
 26 27  1  0
 27 28  2  0
 28 29  1  0
 29 30  2  0
 30 25  1  0
  1  2  2  0
  2  8  1  0
  8  9  2  0
  9 10  1  0
 10  3  2  0
  3  1  1  0
M  END

$$$$
No_1689-/dssg/home/sw_qyf/PocketFlow/Model-Generation-Results/5HT2A_7WC7_rec_A_10.pdb/2024-01-01-03-54-21/
     RDKit          3D

 25 26  0  0  0  0  0  0  0  0999 V2000
  -23.1746  -16.6014  144.8668 C   0  0  0  0  0  0  0  0  0  0  0  0
  -24.0189  -16.0564  145.8445 C   0  0  0  0  0  0  0  0  0  0  0  0
  -24.4145  -16.8299  146.9062 C   0  0  0  0  0  0  0  0  0  0  0  0
  -25.2730  -16.2838  147.9150 C   0  0  0  0  0  0  0  0  0  0  0  0
  -25.7919  -14.9951  147.6737 C   0  0  0  0  0  0  0  0  0  0  0  0
  -24.5377  -14.6789  145.6474 C   0  0  0  0  0  0  0  0  0  0  0  0
  -25.2166  -14.2119  146.5158 C   0  0  0  0  0  0  0  0  0  0  0  0
  -24.0132  -13.9012  144.5702 C   0  0  0  0  0  0  0  0  0  0  0  0
  -22.8337  -13.7238  144.3867 O   0  0  0  0  0  0  0  0  0  0  0  0
  -23.9885  -18.2209  147.0728 C   0  0  0  0  0  0  0  0  0  0  0  0
  -23.2577  -18.6419  147.9648 O   0  0  0  0  0  0  0  0  0  0  0  0
  -24.5526  -19.0743  146.2879 O   0  0  0  0  0  0  0  0  0  0  0  0
  -24.9048  -13.1139  144.0685 O   0  0  0  0  0  0  0  0  0  0  0  0
  -25.7597  -17.0308  149.0869 C   0  0  0  0  0  0  0  0  0  0  0  0
  -25.0722  -17.2036  150.1125 O   0  0  0  0  0  0  0  0  0  0  0  0
  -27.1073  -17.0177  149.2653 N   0  0  0  0  0  0  0  0  0  0  0  0
  -28.0474  -16.7130  148.3506 C   0  0  0  0  0  0  0  0  0  0  0  0
  -27.9805  -16.8692  147.0126 C   0  0  0  0  0  0  0  0  0  0  0  0
  -28.9209  -16.3643  146.1387 C   0  0  0  0  0  0  0  0  0  0  0  0
  -29.7554  -15.3616  146.7267 C   0  0  0  0  0  0  0  0  0  0  0  0
  -29.7599  -15.0210  148.0807 C   0  0  0  0  0  0  0  0  0  0  0  0
  -29.0458  -15.8356  148.9461 C   0  0  0  0  0  0  0  0  0  0  0  0
  -30.7880  -14.0892  148.6799 C   0  0  0  0  0  0  0  0  0  0  0  0
  -30.6689  -12.6787  148.3476 C   0  0  0  0  0  0  0  0  0  0  0  0
  -31.6407  -11.9087  148.8952 N   0  0  0  0  0  0  0  0  0  0  0  0
  1  2  1  0
  6  8  1  0
  8  9  1  0
  3 10  1  0
 10 11  1  0
 10 12  2  0
  8 13  2  0
  4 14  1  0
 14 15  2  0
 14 16  1  0
 16 17  1  0
 21 23  1  0
 23 24  2  3
 24 25  1  0
 17 18  2  0
 18 19  1  0
 19 20  2  0
 20 21  1  0
 21 22  2  0
 22 17  1  0
  2  3  2  0
  3  4  1  0
  4  5  2  0
  5  7  1  0
  7  6  2  0
  6  2  1  0
M  END

$$$$
No_1690-/dssg/home/sw_qyf/PocketFlow/Model-Generation-Results/5HT2A_7WC7_rec_A_10.pdb/2024-01-01-03-54-21/
     RDKit          3D

 16 17  0  0  0  0  0  0  0  0999 V2000
  -23.1746  -16.6014  144.8668 C   0  0  0  0  0  0  0  0  0  0  0  0
  -23.7011  -17.0158  145.9774 C   0  0  0  0  0  0  0  0  0  0  0  0
  -23.7336  -18.2775  146.3737 C   0  0  0  0  0  0  0  0  0  0  0  0
  -23.8112  -15.3695  144.2738 C   0  0  0  0  0  0  0  0  0  0  0  0
  -25.0651  -14.9546  144.8732 C   0  0  0  0  0  0  0  0  0  0  0  0
  -25.5700  -15.5547  145.9784 C   0  0  0  0  0  0  0  0  0  0  0  0
  -24.9766  -16.7060  146.5213 C   0  0  0  0  0  0  0  0  0  0  0  0
  -24.4013  -18.4562  147.5713 N   0  0  0  0  0  0  0  0  0  0  0  0
  -25.1822  -17.3804  147.5824 C   0  0  0  0  0  0  0  0  0  0  0  0
  -24.9413  -16.5543  148.9516 C   0  0  0  0  0  0  0  0  0  0  0  0
  -25.6562  -13.7043  144.3004 C   0  0  0  0  0  0  0  0  0  0  0  0
  -25.6151  -12.7059  144.6002 N   0  0  0  0  0  0  0  0  0  0  0  0
  -24.6798  -12.2597  145.5002 C   0  0  0  0  0  0  0  0  0  0  0  0
  -26.5156  -14.1676  143.3241 O   0  0  0  0  0  0  0  0  0  0  0  0
  -25.0175  -11.6967  146.8240 C   0  0  0  0  0  0  0  0  0  0  0  0
  -23.3902  -12.2285  145.2202 O   0  0  0  0  0  0  0  0  0  0  0  0
  2  3  1  0
  3  8  2  0
  7  9  1  0
  8  9  1  0
  9 10  1  0
  5 11  1  0
 11 12  1  0
 12 13  1  0
 11 14  2  0
 13 15  1  0
 13 16  2  0
  1  2  2  0
  2  7  1  0
  7  6  2  0
  6  5  1  0
  5  4  2  0
  4  1  1  0
M  END

$$$$
No_1691-/dssg/home/sw_qyf/PocketFlow/Model-Generation-Results/5HT2A_7WC7_rec_A_10.pdb/2024-01-01-03-54-21/
     RDKit          3D

 21 21  0  0  0  0  0  0  0  0999 V2000
  -23.1746  -16.6014  144.8668 C   0  0  0  0  0  0  0  0  0  0  0  0
  -23.7011  -17.0158  145.9774 C   0  0  0  0  0  0  0  0  0  0  0  0
  -24.2134  -16.0722  146.8877 C   0  0  0  0  0  0  0  0  0  0  0  0
  -24.5407  -14.7704  146.3552 C   0  0  0  0  0  0  0  0  0  0  0  0
  -24.1477  -14.4045  145.0969 C   0  0  0  0  0  0  0  0  0  0  0  0
  -23.4211  -15.3299  144.3881 C   0  0  0  0  0  0  0  0  0  0  0  0
  -23.4918  -18.3987  146.5512 C   0  0  0  0  0  0  0  0  0  0  0  0
  -23.9624  -18.7600  147.6133 O   0  0  0  0  0  0  0  0  0  0  0  0
  -22.9682  -19.2805  145.8259 O   0  0  0  0  0  0  0  0  0  0  0  0
  -24.3211  -13.0085  144.6659 C   0  0  0  0  0  0  0  0  0  0  0  0
  -23.3250  -12.2003  145.3866 C   0  0  0  0  0  0  0  0  0  0  0  0
  -25.6049  -12.5855  145.0411 O   0  0  0  0  0  0  0  0  0  0  0  0
  -25.7896  -11.3458  145.3009 C   0  0  0  0  0  0  0  0  0  0  0  0
  -27.1175  -11.0689  146.0748 C   0  0  0  0  0  0  0  0  0  0  0  0
  -28.2315  -11.0108  145.1482 C   0  0  0  0  0  0  0  0  0  0  0  0
  -29.5179  -11.0362  145.6799 C   0  0  0  0  0  0  0  0  0  0  0  0
  -29.7214  -11.5226  146.8491 O   0  0  0  0  0  0  0  0  0  0  0  0
  -30.4378  -10.2414  145.2142 O   0  0  0  0  0  0  0  0  0  0  0  0
  -28.2359  -12.0196  143.9402 C   0  0  0  0  0  0  0  0  0  0  0  0
  -27.0445  -12.7467  143.8474 C   0  0  0  0  0  0  0  0  0  0  0  0
  -26.7612  -13.8412  143.0016 C   0  0  0  0  0  0  0  0  0  0  0  0
  2  7  1  0
  7  8  2  0
  7  9  1  0
  5 10  1  0
 10 11  1  0
 10 12  1  0
 12 13  1  0
 13 14  1  0
 14 15  1  0
 15 16  2  3
 16 17  1  0
 16 18  1  0
 15 19  1  0
 19 20  1  0
 20 21  2  0
  1  2  2  0
  2  3  1  0
  3  4  2  0
  4  5  1  0
  5  6  2  0
  6  1  1  0
M  END

$$$$
No_1692-/dssg/home/sw_qyf/PocketFlow/Model-Generation-Results/5HT2A_7WC7_rec_A_10.pdb/2024-01-01-03-54-21/
     RDKit          3D

 12 13  0  0  0  0  0  0  0  0999 V2000
  -23.1746  -16.6014  144.8668 C   0  0  0  0  0  0  0  0  0  0  0  0
  -23.7011  -17.0158  145.9774 C   0  0  0  0  0  0  0  0  0  0  0  0
  -23.7336  -18.2775  146.3737 C   0  0  0  0  0  0  0  0  0  0  0  0
  -24.1960  -18.6445  147.6858 C   0  0  0  0  0  0  0  0  0  0  0  0
  -24.7100  -17.6145  148.5486 C   0  0  0  0  0  0  0  0  0  0  0  0
  -24.7929  -16.2635  148.0870 C   0  0  0  0  0  0  0  0  0  0  0  0
  -24.2508  -15.9434  146.8891 C   0  0  0  0  0  0  0  0  0  0  0  0
  -22.9131  -15.3694  144.6484 O   0  0  0  0  0  0  0  0  0  0  0  0
  -23.8154  -14.4512  145.0167 C   0  0  0  0  0  0  0  0  0  0  0  0
  -24.2690  -14.5467  146.4234 C   0  0  0  0  0  0  0  0  0  0  0  0
  -23.1264  -13.0068  144.9059 C   0  0  0  0  0  0  0  0  0  0  0  0
  -23.2513  -12.0318  145.9894 C   0  0  0  0  0  0  0  0  0  0  0  0
  1  2  1  0
  1  8  1  0
  8  9  1  0
  7 10  1  0
  9 10  1  0
  9 11  1  0
 11 12  1  0
  2  3  2  0
  3  4  1  0
  4  5  2  0
  5  6  1  0
  6  7  2  0
  7  2  1  0
M  END

$$$$
No_1693-/dssg/home/sw_qyf/PocketFlow/Model-Generation-Results/5HT2A_7WC7_rec_A_10.pdb/2024-01-01-03-54-21/
     RDKit          3D

 35 39  0  0  0  0  0  0  0  0999 V2000
  -23.1746  -16.6014  144.8668 C   0  0  0  0  0  0  0  0  0  0  0  0
  -23.7011  -17.0158  145.9774 C   0  0  0  0  0  0  0  0  0  0  0  0
  -24.2134  -16.0722  146.8877 C   0  0  0  0  0  0  0  0  0  0  0  0
  -23.3742  -15.2706  144.3922 C   0  0  0  0  0  0  0  0  0  0  0  0
  -24.0638  -14.3065  145.2723 C   0  0  0  0  0  0  0  0  0  0  0  0
  -24.4769  -14.7246  146.5384 C   0  0  0  0  0  0  0  0  0  0  0  0
  -24.2073  -12.8864  144.8852 C   0  0  0  0  0  0  0  0  0  0  0  0
  -23.1488  -12.0825  145.5253 C   0  0  0  0  0  0  0  0  0  0  0  0
  -23.5606  -18.4458  146.4427 C   0  0  0  0  0  0  0  0  0  0  0  0
  -22.6032  -18.8296  146.9293 O   0  0  0  0  0  0  0  0  0  0  0  0
  -24.7526  -19.0466  146.6343 O   0  0  0  0  0  0  0  0  0  0  0  0
  -25.5500  -12.3657  145.2746 C   0  0  0  0  0  0  0  0  0  0  0  0
  -26.0800  -11.3670  144.4063 C   0  0  0  0  0  0  0  0  0  0  0  0
  -27.4528  -11.4081  144.1172 C   0  0  0  0  0  0  0  0  0  0  0  0
  -28.2729  -11.6509  145.2906 C   0  0  0  0  0  0  0  0  0  0  0  0
  -29.7097  -11.6319  145.1839 C   0  0  0  0  0  0  0  0  0  0  0  0
  -30.3219  -11.8278  146.5257 C   0  0  0  0  0  0  0  0  0  0  0  0
  -29.5492  -12.3994  147.6138 C   0  0  0  0  0  0  0  0  0  0  0  0
  -28.2069  -12.6509  147.5089 C   0  0  0  0  0  0  0  0  0  0  0  0
  -27.5317  -12.2641  146.3984 C   0  0  0  0  0  0  0  0  0  0  0  0
  -26.2041  -12.5121  146.3627 C   0  0  0  0  0  0  0  0  0  0  0  0
  -27.9085  -10.1266  143.3891 C   0  0  0  0  0  0  0  0  0  0  0  0
  -28.5323   -9.0856  144.0639 C   0  0  0  0  0  0  0  0  0  0  0  0
  -29.0216   -7.9803  143.4019 C   0  0  0  0  0  0  0  0  0  0  0  0
  -29.5172   -8.0692  142.0405 C   0  0  0  0  0  0  0  0  0  0  0  0
  -28.8576   -9.1894  141.3135 C   0  0  0  0  0  0  0  0  0  0  0  0
  -28.2469  -10.2678  142.0033 C   0  0  0  0  0  0  0  0  0  0  0  0
  -27.9265  -11.3764  141.1778 C   0  0  0  0  0  0  0  0  0  0  0  0
  -28.3100  -12.6859  141.4458 C   0  0  0  0  0  0  0  0  0  0  0  0
  -27.1889  -11.1938  139.9833 C   0  0  0  0  0  0  0  0  0  0  0  0
  -26.8058  -12.2567  139.1857 C   0  0  0  0  0  0  0  0  0  0  0  0
  -27.7035  -13.8181  140.8388 C   0  0  0  0  0  0  0  0  0  0  0  0
  -26.9437  -13.5482  139.7314 C   0  0  0  0  0  0  0  0  0  0  0  0
  -29.9692   -7.0329  141.4160 N   0  0  0  0  0  0  0  0  0  0  0  0
  -30.2716  -12.5940  148.7909 O   0  0  0  0  0  0  0  0  0  0  0  0
  5  7  1  0
  7  8  1  0
  2  9  1  0
  9 10  2  0
  9 11  1  0
  7 12  1  0
 14 22  1  0
 27 28  1  0
 25 34  1  0
 18 35  1  0
 15 16  1  0
 16 17  2  0
 17 18  1  0
 18 19  2  0
 19 20  1  0
  1  2  2  0
  2  3  1  0
  3  6  2  0
  6  5  1  0
  5  4  2  0
  4  1  1  0
 22 23  2  0
 23 24  1  0
 24 25  2  0
 25 26  1  0
 26 27  2  0
 27 22  1  0
 28 29  2  0
 29 32  1  0
 32 33  2  0
 33 31  1  0
 31 30  2  0
 30 28  1  0
 12 13  2  0
 13 14  1  0
 14 15  2  0
 15 20  1  0
 20 21  2  0
 21 12  1  0
M  END

$$$$
No_1694-/dssg/home/sw_qyf/PocketFlow/Model-Generation-Results/5HT2A_7WC7_rec_A_10.pdb/2024-01-01-03-54-21/
     RDKit          3D

 13 14  0  0  0  0  0  0  0  0999 V2000
  -24.1553  -17.8465  145.7021 C   0  0  0  0  0  0  0  0  0  0  0  0
  -24.2856  -16.6364  145.3494 C   0  0  0  0  0  0  0  0  0  0  0  0
  -25.0033  -15.6772  146.0737 C   0  0  0  0  0  0  0  0  0  0  0  0
  -24.8869  -14.2981  145.8377 C   0  0  0  0  0  0  0  0  0  0  0  0
  -25.3793  -13.2111  146.5918 C   0  0  0  0  0  0  0  0  0  0  0  0
  -24.9049  -18.3625  146.7784 C   0  0  0  0  0  0  0  0  0  0  0  0
  -25.6976  -17.5210  147.5111 C   0  0  0  0  0  0  0  0  0  0  0  0
  -25.7254  -16.1261  147.2550 C   0  0  0  0  0  0  0  0  0  0  0  0
  -24.2322  -13.8725  144.5906 C   0  0  0  0  0  0  0  0  0  0  0  0
  -25.1086  -11.8652  146.3231 C   0  0  0  0  0  0  0  0  0  0  0  0
  -23.9528  -14.6396  143.7030 O   0  0  0  0  0  0  0  0  0  0  0  0
  -24.5622  -11.5471  145.0733 C   0  0  0  0  0  0  0  0  0  0  0  0
  -23.9447  -12.3977  144.5095 C   0  0  0  0  0  0  0  0  0  0  0  0
  3  4  1  0
  9 11  1  0
  1  2  2  0
  2  3  1  0
  3  8  2  0
  8  7  1  0
  7  6  2  0
  6  1  1  0
  4  5  2  0
  5 10  1  0
 10 12  2  0
 12 13  1  0
 13  9  2  0
  9  4  1  0
M  END

$$$$
No_1695-/dssg/home/sw_qyf/PocketFlow/Model-Generation-Results/5HT2A_7WC7_rec_A_10.pdb/2024-01-01-03-54-21/
     RDKit          3D

 33 36  0  0  0  0  0  0  0  0999 V2000
  -24.1553  -17.8465  145.7021 C   0  0  0  0  0  0  0  0  0  0  0  0
  -24.2856  -16.6364  145.3494 C   0  0  0  0  0  0  0  0  0  0  0  0
  -25.0033  -15.6772  146.0737 C   0  0  0  0  0  0  0  0  0  0  0  0
  -25.6964  -16.1810  147.2049 C   0  0  0  0  0  0  0  0  0  0  0  0
  -24.8143  -18.3454  146.8324 C   0  0  0  0  0  0  0  0  0  0  0  0
  -25.5292  -17.4614  147.6373 C   0  0  0  0  0  0  0  0  0  0  0  0
  -23.6541  -16.0768  144.2055 N   0  0  0  0  0  0  0  0  0  0  0  0
  -25.1820  -14.2638  145.6423 C   0  0  0  0  0  0  0  0  0  0  0  0
  -25.4260  -13.4101  146.1129 C   0  0  0  0  0  0  0  0  0  0  0  0
  -25.5141  -11.9733  145.6976 C   0  0  0  0  0  0  0  0  0  0  0  0
  -26.3065  -11.3242  145.1955 C   0  0  0  0  0  0  0  0  0  0  0  0
  -27.6998  -11.6381  145.1622 C   0  0  0  0  0  0  0  0  0  0  0  0
  -28.6865  -10.7073  144.5514 C   0  0  0  0  0  0  0  0  0  0  0  0
  -28.1781   -9.6332  143.8254 C   0  0  0  0  0  0  0  0  0  0  0  0
  -29.1215   -8.7370  143.3079 C   0  0  0  0  0  0  0  0  0  0  0  0
  -28.7363   -7.6776  142.4444 C   0  0  0  0  0  0  0  0  0  0  0  0
  -29.8322   -6.9930  141.6776 C   0  0  0  0  0  0  0  0  0  0  0  0
  -30.0191   -7.8289  140.5714 C   0  0  0  0  0  0  0  0  0  0  0  0
  -24.9177  -14.2672  144.1664 C   0  0  0  0  0  0  0  0  0  0  0  0
  -24.6336  -14.9762  143.4072 N   0  0  0  0  0  0  0  0  0  0  0  0
  -28.8866   -7.7166  139.6762 C   0  0  0  0  0  0  0  0  0  0  0  0
  -28.2468   -8.9925  139.2880 C   0  0  0  0  0  0  0  0  0  0  0  0
  -27.5987   -9.6532  140.2889 C   0  0  0  0  0  0  0  0  0  0  0  0
  -26.9262  -10.8951  140.0149 C   0  0  0  0  0  0  0  0  0  0  0  0
  -27.7493  -11.8695  139.1919 C   0  0  0  0  0  0  0  0  0  0  0  0
  -27.7136  -11.4693  137.8055 C   0  0  0  0  0  0  0  0  0  0  0  0
  -25.9920  -10.0676  144.4338 C   0  0  0  0  0  0  0  0  0  0  0  0
  -26.8563   -9.3187  143.8747 C   0  0  0  0  0  0  0  0  0  0  0  0
  -28.6502  -10.5317  137.2980 C   0  0  0  0  0  0  0  0  0  0  0  0
  -28.8199  -10.3489  135.9421 C   0  0  0  0  0  0  0  0  0  0  0  0
  -28.6804   -9.2776  138.1272 C   0  0  0  0  0  0  0  0  0  0  0  0
  -30.5209   -8.9583  143.5361 C   0  0  0  0  0  0  0  0  0  0  0  0
  -31.3404   -9.3670  142.7188 O   0  0  0  0  0  0  0  0  0  0  0  0
  2  7  1  0
  3  8  1  0
  9 10  1  0
 14 15  1  0
 15 16  1  0
 16 17  1  0
 17 18  1  0
  8 19  1  0
  7 20  1  0
 19 20  1  0
 18 21  1  0
 21 22  1  0
 22 23  2  0
 23 24  1  0
 24 25  1  0
 25 26  1  0
 26 29  1  0
 29 30  1  0
 22 31  1  0
 29 31  1  0
 15 32  1  0
 32 33  2  0
 10 11  1  0
  9  8  1  0
  1  2  2  0
  2  3  1  0
  3  4  2  0
  4  6  1  0
  6  5  2  0
  5  1  1  0
 11 12  2  0
 12 13  1  0
 13 14  2  0
 14 28  1  0
 28 27  2  0
 27 11  1  0
M  END

$$$$
No_1696-/dssg/home/sw_qyf/PocketFlow/Model-Generation-Results/5HT2A_7WC7_rec_A_10.pdb/2024-01-01-03-54-21/
     RDKit          3D

 33 38  0  0  0  0  0  0  0  0999 V2000
  -24.1553  -17.8465  145.7021 C   0  0  0  0  0  0  0  0  0  0  0  0
  -23.9795  -18.4462  146.7426 C   0  0  0  0  0  0  0  0  0  0  0  0
  -25.1593  -16.8262  145.6925 C   0  0  0  0  0  0  0  0  0  0  0  0
  -26.3426  -16.9003  146.3448 C   0  0  0  0  0  0  0  0  0  0  0  0
  -24.9078  -18.3640  147.8289 C   0  0  0  0  0  0  0  0  0  0  0  0
  -26.0312  -17.5122  147.7122 C   0  0  0  0  0  0  0  0  0  0  0  0
  -27.4996  -16.1150  146.1993 C   0  0  0  0  0  0  0  0  0  0  0  0
  -27.2983  -14.8027  146.7383 C   0  0  0  0  0  0  0  0  0  0  0  0
  -26.0971  -14.1165  146.6405 C   0  0  0  0  0  0  0  0  0  0  0  0
  -24.9336  -14.6345  146.3827 C   0  0  0  0  0  0  0  0  0  0  0  0
  -23.8530  -13.5528  146.3745 C   0  0  0  0  0  0  0  0  0  0  0  0
  -24.3445  -15.6005  145.9380 N   0  0  0  0  0  0  0  0  0  0  0  0
  -24.0991  -12.3362  145.5842 C   0  0  0  0  0  0  0  0  0  0  0  0
  -25.3947  -11.6676  145.7764 C   0  0  0  0  0  0  0  0  0  0  0  0
  -26.4055  -12.4684  146.2648 C   0  0  0  0  0  0  0  0  0  0  0  0
  -27.8132  -12.1105  146.3307 C   0  0  0  0  0  0  0  0  0  0  0  0
  -28.6013  -12.7718  147.1321 F   0  0  0  0  0  0  0  0  0  0  0  0
  -28.3973  -11.6600  145.1080 C   0  0  0  0  0  0  0  0  0  0  0  0
  -29.4838  -10.8002  145.2078 C   0  0  0  0  0  0  0  0  0  0  0  0
  -29.9072  -10.0124  144.1017 C   0  0  0  0  0  0  0  0  0  0  0  0
  -29.3303  -10.2346  142.8629 C   0  0  0  0  0  0  0  0  0  0  0  0
  -29.7509   -9.5306  141.7232 C   0  0  0  0  0  0  0  0  0  0  0  0
  -30.7411   -8.5471  141.9697 C   0  0  0  0  0  0  0  0  0  0  0  0
  -31.4156   -8.4383  143.2253 C   0  0  0  0  0  0  0  0  0  0  0  0
  -30.9428   -9.1121  144.3147 C   0  0  0  0  0  0  0  0  0  0  0  0
  -29.0743   -9.6587  140.4721 C   0  0  0  0  0  0  0  0  0  0  0  0
  -28.2553  -10.8069  140.2500 C   0  0  0  0  0  0  0  0  0  0  0  0
  -27.6058  -10.9952  139.0342 C   0  0  0  0  0  0  0  0  0  0  0  0
  -26.7942  -12.1770  138.9387 C   0  0  0  0  0  0  0  0  0  0  0  0
  -26.5132  -12.8953  140.1571 C   0  0  0  0  0  0  0  0  0  0  0  0
  -27.2161  -12.7548  141.3124 C   0  0  0  0  0  0  0  0  0  0  0  0
  -28.0177  -11.6309  141.4114 C   0  0  0  0  0  0  0  0  0  0  0  0
  -28.4779  -11.2531  142.6741 N   0  0  0  0  0  0  0  0  0  0  0  0
  4  7  1  0
  7  8  1  0
  3 12  1  0
 10 12  1  0
 15 16  1  0
 16 17  1  0
 16 18  1  0
 18 19  1  0
 19 20  1  0
  8  9  1  0
 22 26  1  0
 26 27  2  0
 32 33  2  0
 33 21  1  0
 27 28  1  0
 28 29  2  0
 29 30  1  0
 30 31  2  0
 31 32  1  0
 32 27  1  0
 20 21  2  0
 21 22  1  0
 22 23  2  0
 23 24  1  0
 24 25  2  0
 25 20  1  0
  1  2  2  0
  2  5  1  0
  5  6  2  0
  6  4  1  0
  4  3  2  0
  3  1  1  0
  9 10  2  0
 10 11  1  0
 11 13  2  0
 13 14  1  0
 14 15  2  0
 15  9  1  0
M  END

$$$$
No_1697-/dssg/home/sw_qyf/PocketFlow/Model-Generation-Results/5HT2A_7WC7_rec_A_10.pdb/2024-01-01-03-54-21/
     RDKit          3D

 32 36  0  0  0  0  0  0  0  0999 V2000
  -24.1553  -17.8465  145.7021 C   0  0  0  0  0  0  0  0  0  0  0  0
  -24.2855  -16.6364  145.3494 C   0  0  0  0  0  0  0  0  0  0  0  0
  -24.7211  -15.5955  146.2116 C   0  0  0  0  0  0  0  0  0  0  0  0
  -24.8538  -14.2010  145.8739 C   0  0  0  0  0  0  0  0  0  0  0  0
  -24.1440  -13.8321  144.7074 C   0  0  0  0  0  0  0  0  0  0  0  0
  -23.4275  -14.8130  143.9942 C   0  0  0  0  0  0  0  0  0  0  0  0
  -23.5366  -16.0900  144.3641 N   0  0  0  0  0  0  0  0  0  0  0  0
  -25.0287  -18.4322  146.6889 C   0  0  0  0  0  0  0  0  0  0  0  0
  -25.6349  -17.5047  147.5882 C   0  0  0  0  0  0  0  0  0  0  0  0
  -25.7350  -16.1243  147.2914 C   0  0  0  0  0  0  0  0  0  0  0  0
  -23.8920  -12.5055  144.5178 O   0  0  0  0  0  0  0  0  0  0  0  0
  -24.5347  -11.6437  145.4202 C   0  0  0  0  0  0  0  0  0  0  0  0
  -26.0317  -11.7880  145.4502 C   0  0  0  0  0  0  0  0  0  0  0  0
  -26.4669  -12.9171  146.0918 C   0  0  0  0  0  0  0  0  0  0  0  0
  -25.7120  -13.5611  146.8994 O   0  0  0  0  0  0  0  0  0  0  0  0
  -26.6128  -11.3989  144.2176 N   0  0  0  0  0  0  0  0  0  0  0  0
  -27.9491  -11.0079  144.1460 C   0  0  0  0  0  0  0  0  0  0  0  0
  -28.3667  -10.1445  143.4337 C   0  0  0  0  0  0  0  0  0  0  0  0
  -29.4906   -9.6163  143.1194 C   0  0  0  0  0  0  0  0  0  0  0  0
  -29.8091   -8.9691  141.9972 C   0  0  0  0  0  0  0  0  0  0  0  0
  -30.6197   -7.7567  142.0297 C   0  0  0  0  0  0  0  0  0  0  0  0
  -31.5833   -7.7416  143.0040 N   0  0  0  0  0  0  0  0  0  0  0  0
  -31.4636   -8.4947  144.1116 C   0  0  0  0  0  0  0  0  0  0  0  0
  -30.4713   -9.4303  144.2334 N   0  0  0  0  0  0  0  0  0  0  0  0
  -29.0756   -9.2629  140.8505 C   0  0  0  0  0  0  0  0  0  0  0  0
  -29.0016   -8.3880  139.7781 C   0  0  0  0  0  0  0  0  0  0  0  0
  -28.3260   -8.6514  138.6088 C   0  0  0  0  0  0  0  0  0  0  0  0
  -27.6615   -9.8084  138.6586 N   0  0  0  0  0  0  0  0  0  0  0  0
  -27.5995  -10.7033  139.6497 C   0  0  0  0  0  0  0  0  0  0  0  0
  -28.3340  -10.4549  140.8420 C   0  0  0  0  0  0  0  0  0  0  0  0
  -26.8806  -11.8354  139.4576 N   0  0  0  0  0  0  0  0  0  0  0  0
  -28.3583   -8.0631  137.5230 O   0  0  0  0  0  0  0  0  0  0  0  0
  3  4  1  0
  4  5  1  0
  5  6  1  0
  2  7  1  0
  6  7  1  0
  5 11  1  0
 11 12  1  0
 12 13  1  0
 13 14  1  0
  4 15  1  0
 14 15  1  0
 13 16  1  0
 16 17  1  0
 17 18  2  3
 18 19  1  0
 20 25  1  0
 26 27  1  0
 27 28  1  0
 28 29  1  0
 25 30  1  0
 29 31  1  0
 27 32  2  0
 26 25  1  0
 30 29  1  0
  1  2  2  0
  2  3  1  0
  3 10  2  0
 10  9  1  0
  9  8  2  0
  8  1  1  0
 19 20  1  0
 20 21  2  0
 21 22  1  0
 22 23  2  0
 23 24  1  0
 24 19  2  0
M  END

$$$$
No_1698-/dssg/home/sw_qyf/PocketFlow/Model-Generation-Results/5HT2A_7WC7_rec_A_10.pdb/2024-01-01-03-54-21/
     RDKit          3D

 23 24  0  0  0  0  0  0  0  0999 V2000
  -23.1746  -16.6014  144.8668 C   0  0  0  0  0  0  0  0  0  0  0  0
  -23.7011  -17.0158  145.9774 C   0  0  0  0  0  0  0  0  0  0  0  0
  -24.2593  -16.1244  146.9100 C   0  0  0  0  0  0  0  0  0  0  0  0
  -24.7835  -16.4779  148.2293 C   0  0  0  0  0  0  0  0  0  0  0  0
  -23.4600  -15.2504  144.4004 C   0  0  0  0  0  0  0  0  0  0  0  0
  -24.1281  -14.2978  145.2913 C   0  0  0  0  0  0  0  0  0  0  0  0
  -24.3356  -12.9630  144.9302 C   0  0  0  0  0  0  0  0  0  0  0  0
  -24.5117  -14.7419  146.5910 C   0  0  0  0  0  0  0  0  0  0  0  0
  -25.6057  -12.4094  145.3273 C   0  0  0  0  0  0  0  0  0  0  0  0
  -25.8626  -12.2688  146.3855 C   0  0  0  0  0  0  0  0  0  0  0  0
  -27.1070  -11.3222  146.5992 C   0  0  0  0  0  0  0  0  0  0  0  0
  -27.6425  -10.9777  145.4160 C   0  0  0  0  0  0  0  0  0  0  0  0
  -26.4916  -11.6164  144.4333 C   0  0  0  0  0  0  0  0  0  0  0  0
  -26.1655  -16.8119  148.4378 C   0  0  0  0  0  0  0  0  0  0  0  0
  -27.1651  -16.4056  147.5691 C   0  0  0  0  0  0  0  0  0  0  0  0
  -28.4743  -16.2267  148.0632 C   0  0  0  0  0  0  0  0  0  0  0  0
  -29.4817  -15.6275  147.2498 C   0  0  0  0  0  0  0  0  0  0  0  0
  -29.3738  -14.2063  147.1302 C   0  0  0  0  0  0  0  0  0  0  0  0
  -29.6620  -13.3470  146.4691 C   0  0  0  0  0  0  0  0  0  0  0  0
  -30.0852  -12.0824  146.7437 C   0  0  0  0  0  0  0  0  0  0  0  0
  -30.4881  -11.1258  145.9505 N   0  0  0  0  0  0  0  0  0  0  0  0
  -23.4670  -18.4288  146.4320 C   0  0  0  0  0  0  0  0  0  0  0  0
  -30.1459  -11.6135  148.0506 O   0  0  0  0  0  0  0  0  0  0  0  0
  3  4  1  0
  6  7  1  0
  7  9  1  0
  9 10  2  0
 10 11  1  0
 11 12  2  0
  9 13  1  0
 12 13  1  0
  4 14  2  3
 14 15  1  0
 15 16  2  3
 16 17  1  0
 17 18  1  0
 18 19  2  3
 19 20  1  0
 20 21  1  0
  2 22  1  0
 20 23  2  0
  1  2  2  0
  2  3  1  0
  3  8  2  0
  8  6  1  0
  6  5  2  0
  5  1  1  0
M  END

$$$$
No_1699-/dssg/home/sw_qyf/PocketFlow/Model-Generation-Results/5HT2A_7WC7_rec_A_10.pdb/2024-01-01-03-54-21/
     RDKit          3D

 24 26  0  0  0  0  0  0  0  0999 V2000
  -23.1746  -16.6014  144.8668 C   0  0  0  0  0  0  0  0  0  0  0  0
  -24.0189  -16.0564  145.8445 C   0  0  0  0  0  0  0  0  0  0  0  0
  -24.4145  -16.8299  146.9062 C   0  0  0  0  0  0  0  0  0  0  0  0
  -23.9612  -18.1384  147.0126 C   0  0  0  0  0  0  0  0  0  0  0  0
  -23.1429  -18.6221  146.0418 C   0  0  0  0  0  0  0  0  0  0  0  0
  -22.8095  -17.8231  145.0610 N   0  0  0  0  0  0  0  0  0  0  0  0
  -24.5671  -14.6439  145.6745 C   0  0  0  0  0  0  0  0  0  0  0  0
  -25.6755  -14.2339  146.3521 C   0  0  0  0  0  0  0  0  0  0  0  0
  -26.0800  -12.8632  146.3387 C   0  0  0  0  0  0  0  0  0  0  0  0
  -25.4367  -11.9562  145.4880 C   0  0  0  0  0  0  0  0  0  0  0  0
  -24.2830  -12.3664  144.8520 C   0  0  0  0  0  0  0  0  0  0  0  0
  -23.8054  -13.7044  144.9030 C   0  0  0  0  0  0  0  0  0  0  0  0
  -25.8565  -10.6551  145.4864 O   0  0  0  0  0  0  0  0  0  0  0  0
  -27.2029  -10.4948  145.2034 C   0  0  0  0  0  0  0  0  0  0  0  0
  -27.4436   -9.6998  144.0406 C   0  0  0  0  0  0  0  0  0  0  0  0
  -28.7430   -9.3965  143.6531 C   0  0  0  0  0  0  0  0  0  0  0  0
  -29.0159   -8.8289  142.4367 C   0  0  0  0  0  0  0  0  0  0  0  0
  -28.7732   -9.5577  141.2156 C   0  0  0  0  0  0  0  0  0  0  0  0
  -28.5502   -8.8476  140.0828 C   0  0  0  0  0  0  0  0  0  0  0  0
  -29.0891   -7.5776  139.8354 C   0  0  0  0  0  0  0  0  0  0  0  0
  -29.5771   -6.9047  141.0278 C   0  0  0  0  0  0  0  0  0  0  0  0
  -29.5056   -7.5499  142.2632 C   0  0  0  0  0  0  0  0  0  0  0  0
  -29.8835   -9.8462  144.4653 C   0  0  0  0  0  0  0  0  0  0  0  0
  -30.9451   -9.3276  144.3761 F   0  0  0  0  0  0  0  0  0  0  0  0
  2  7  1  0
 10 13  1  0
 13 14  1  0
 14 15  1  0
 15 16  1  0
 16 17  1  0
 16 23  1  0
 23 24  1  0
 17 18  2  0
 18 19  1  0
 19 20  2  0
 20 21  1  0
 21 22  2  0
 22 17  1  0
  1  2  2  0
  2  3  1  0
  3  4  2  0
  4  5  1  0
  5  6  2  0
  6  1  1  0
  7  8  2  0
  8  9  1  0
  9 10  2  0
 10 11  1  0
 11 12  2  0
 12  7  1  0
M  END

$$$$
No_1700-/dssg/home/sw_qyf/PocketFlow/Model-Generation-Results/5HT2A_7WC7_rec_A_10.pdb/2024-01-01-03-54-21/
     RDKit          3D

 35 37  0  0  0  0  0  0  0  0999 V2000
  -24.1553  -17.8465  145.7021 C   0  0  0  0  0  0  0  0  0  0  0  0
  -24.6364  -17.2931  146.7091 C   0  0  0  0  0  0  0  0  0  0  0  0
  -24.0780  -17.2921  147.9389 C   0  0  0  0  0  0  0  0  0  0  0  0
  -24.6761  -16.7363  149.1478 C   0  0  0  0  0  0  0  0  0  0  0  0
  -25.9985  -16.2638  148.9932 C   0  0  0  0  0  0  0  0  0  0  0  0
  -26.6270  -16.3412  147.7728 C   0  0  0  0  0  0  0  0  0  0  0  0
  -25.9734  -16.9166  146.6819 C   0  0  0  0  0  0  0  0  0  0  0  0
  -23.9215  -19.0867  145.6257 F   0  0  0  0  0  0  0  0  0  0  0  0
  -22.8176  -17.2703  145.3093 F   0  0  0  0  0  0  0  0  0  0  0  0
  -24.7840  -17.3648  144.5533 F   0  0  0  0  0  0  0  0  0  0  0  0
  -28.0518  -15.8685  147.7513 C   0  0  0  0  0  0  0  0  0  0  0  0
  -29.1144  -16.3894  148.3770 C   0  0  0  0  0  0  0  0  0  0  0  0
  -28.2734  -14.6391  146.9773 C   0  0  0  0  0  0  0  0  0  0  0  0
  -27.3112  -13.8786  146.2808 C   0  0  0  0  0  0  0  0  0  0  0  0
  -27.6192  -12.7015  145.7104 C   0  0  0  0  0  0  0  0  0  0  0  0
  -26.6725  -11.8677  144.9831 C   0  0  0  0  0  0  0  0  0  0  0  0
  -27.0221  -10.5584  144.5106 C   0  0  0  0  0  0  0  0  0  0  0  0
  -28.3998  -10.2699  144.2847 C   0  0  0  0  0  0  0  0  0  0  0  0
  -28.7966   -9.1723  143.5710 C   0  0  0  0  0  0  0  0  0  0  0  0
  -28.7149   -9.1419  142.3692 C   0  0  0  0  0  0  0  0  0  0  0  0
  -29.2561   -8.0507  141.5398 C   0  0  0  0  0  0  0  0  0  0  0  0
  -29.4892   -8.0655  140.1338 C   0  0  0  0  0  0  0  0  0  0  0  0
  -28.5321   -8.5675  139.4345 C   0  0  0  0  0  0  0  0  0  0  0  0
  -28.5936   -8.5357  137.9954 C   0  0  0  0  0  0  0  0  0  0  0  0
  -29.3283  -11.2663  144.8168 C   0  0  0  0  0  0  0  0  0  0  0  0
  -28.9207  -12.3670  145.5280 C   0  0  0  0  0  0  0  0  0  0  0  0
  -25.1911  -12.1116  145.2091 C   0  0  0  0  0  0  0  0  0  0  0  0
  -24.6064  -13.1885  144.5467 C   0  0  0  0  0  0  0  0  0  0  0  0
  -23.1547  -13.3563  144.6647 C   0  0  0  0  0  0  0  0  0  0  0  0
  -22.5048  -12.1251  145.0180 C   0  0  0  0  0  0  0  0  0  0  0  0
  -23.2166  -11.0651  145.5422 C   0  0  0  0  0  0  0  0  0  0  0  0
  -24.4429  -11.0739  145.5694 C   0  0  0  0  0  0  0  0  0  0  0  0
  -30.0649   -7.1205  142.4200 C   0  0  0  0  0  0  0  0  0  0  0  0
  -28.4244   -9.7737  137.2779 C   0  0  0  0  0  0  0  0  0  0  0  0
  -28.9782   -9.8249  135.9825 C   0  0  0  0  0  0  0  0  0  0  0  0
  1  2  1  0
  1  8  1  0
  1  9  1  0
  1 10  1  0
  6 11  1  0
 11 12  2  0
 11 13  1  0
 13 14  1  0
 14 15  2  3
 15 16  1  0
 16 17  1  0
 17 18  1  0
 18 19  1  0
 19 20  1  0
 20 21  2  3
 21 22  1  0
 22 23  2  3
 23 24  1  0
 18 25  1  0
 15 26  1  0
 25 26  3  0
 16 27  1  0
 21 33  1  0
 24 34  2  3
 34 35  1  0
  2  3  2  0
  3  4  1  0
  4  5  2  0
  5  6  1  0
  6  7  2  0
  7  2  1  0
 27 28  2  0
 28 29  1  0
 29 30  2  0
 30 31  1  0
 31 32  2  0
 32 27  1  0
M  END

$$$$
No_1701-/dssg/home/sw_qyf/PocketFlow/Model-Generation-Results/5HT2A_7WC7_rec_A_10.pdb/2024-01-01-03-54-21/
     RDKit          3D

 12 13  0  0  0  0  0  0  0  0999 V2000
  -24.1553  -17.8465  145.7021 C   0  0  0  0  0  0  0  0  0  0  0  0
  -23.9795  -18.4462  146.7426 C   0  0  0  0  0  0  0  0  0  0  0  0
  -23.2486  -17.2339  144.9771 C   0  0  0  0  0  0  0  0  0  0  0  0
  -24.9812  -19.0362  147.5824 C   0  0  0  0  0  0  0  0  0  0  0  0
  -23.7155  -15.8671  144.4834 C   0  0  0  0  0  0  0  0  0  0  0  0
  -24.9738  -15.3159  144.9588 C   0  0  0  0  0  0  0  0  0  0  0  0
  -25.8391  -16.0730  145.7125 C   0  0  0  0  0  0  0  0  0  0  0  0
  -25.3962  -17.3158  146.2011 C   0  0  0  0  0  0  0  0  0  0  0  0
  -26.0745  -18.0845  147.2818 C   0  0  0  0  0  0  0  0  0  0  0  0
  -25.3918  -14.0460  144.3179 C   0  0  0  0  0  0  0  0  0  0  0  0
  -26.0553  -14.0939  143.3624 O   0  0  0  0  0  0  0  0  0  0  0  0
  -25.1000  -12.9112  144.9871 O   0  0  0  0  0  0  0  0  0  0  0  0
  1  2  1  0
  2  4  1  0
  4  9  1  0
  8  9  1  0
  6 10  1  0
 10 11  1  0
 10 12  2  0
  1  3  2  0
  3  5  1  0
  5  6  2  0
  6  7  1  0
  7  8  2  0
  8  1  1  0
M  END

$$$$
No_1702-/dssg/home/sw_qyf/PocketFlow/Model-Generation-Results/5HT2A_7WC7_rec_A_10.pdb/2024-01-01-03-54-21/
     RDKit          3D

 35 36  0  0  0  0  0  0  0  0999 V2000
  -24.1553  -17.8465  145.7021 C   0  0  0  0  0  0  0  0  0  0  0  0
  -23.9795  -18.4462  146.7426 C   0  0  0  0  0  0  0  0  0  0  0  0
  -25.1196  -16.8106  145.6409 C   0  0  0  0  0  0  0  0  0  0  0  0
  -25.2440  -15.8776  144.5240 C   0  0  0  0  0  0  0  0  0  0  0  0
  -26.0733  -14.7284  144.7061 C   0  0  0  0  0  0  0  0  0  0  0  0
  -27.0964  -14.7050  145.6625 C   0  0  0  0  0  0  0  0  0  0  0  0
  -27.1085  -15.7327  146.6117 C   0  0  0  0  0  0  0  0  0  0  0  0
  -26.1368  -16.7554  146.5717 C   0  0  0  0  0  0  0  0  0  0  0  0
  -24.8362  -18.3075  147.8893 C   0  0  0  0  0  0  0  0  0  0  0  0
  -25.9348  -17.4136  147.8448 C   0  0  0  0  0  0  0  0  0  0  0  0
  -26.0679  -13.7317  143.5958 C   0  0  0  0  0  0  0  0  0  0  0  0
  -25.2903  -13.4726  143.0146 O   0  0  0  0  0  0  0  0  0  0  0  0
  -27.3478  -13.1956  143.3652 O   0  0  0  0  0  0  0  0  0  0  0  0
  -26.7586  -17.3258  148.8593 O   0  0  0  0  0  0  0  0  0  0  0  0
  -27.3465  -11.9328  142.7712 C   0  0  0  0  0  0  0  0  0  0  0  0
  -27.8283  -10.8825  143.5373 C   0  0  0  0  0  0  0  0  0  0  0  0
  -27.7715  -10.8963  144.9281 C   0  0  0  0  0  0  0  0  0  0  0  0
  -28.5780   -9.7519  142.9423 C   0  0  0  0  0  0  0  0  0  0  0  0
  -29.8599   -9.9614  142.5278 C   0  0  0  0  0  0  0  0  0  0  0  0
  -30.5915   -8.7636  142.0640 C   0  0  0  0  0  0  0  0  0  0  0  0
  -29.8761   -7.8925  141.2183 C   0  0  0  0  0  0  0  0  0  0  0  0
  -30.0005   -7.8894  139.8061 C   0  0  0  0  0  0  0  0  0  0  0  0
  -28.7287   -7.9212  139.0445 C   0  0  0  0  0  0  0  0  0  0  0  0
  -28.4084   -9.1442  138.3509 C   0  0  0  0  0  0  0  0  0  0  0  0
  -27.7245  -10.1984  139.0980 C   0  0  0  0  0  0  0  0  0  0  0  0
  -26.9283   -9.8857  140.2155 C   0  0  0  0  0  0  0  0  0  0  0  0
  -27.9503  -11.5475  138.6534 C   0  0  0  0  0  0  0  0  0  0  0  0
  -31.2787   -8.0196  143.2753 C   0  0  0  0  0  0  0  0  0  0  0  0
  -32.0127   -8.6649  144.0800 O   0  0  0  0  0  0  0  0  0  0  0  0
  -26.8992  -11.6257  145.6988 C   0  0  0  0  0  0  0  0  0  0  0  0
  -26.7808  -11.4197  147.1857 C   0  0  0  0  0  0  0  0  0  0  0  0
  -28.6555  -12.0301  138.0401 O   0  0  0  0  0  0  0  0  0  0  0  0
  -27.0675  -12.3795  139.4909 N   0  0  0  0  0  0  0  0  0  0  0  0
  -27.0303  -13.7092  139.2861 N   0  0  0  0  0  0  0  0  0  0  0  0
  -30.7423   -6.8553  143.5494 O   0  0  0  0  0  0  0  0  0  0  0  0
  1  3  1  0
  2  9  1  0
  8 10  1  0
  9 10  1  0
  5 11  1  0
 11 12  2  0
 11 13  1  0
 10 14  2  0
 13 15  1  0
 15 16  1  0
 16 17  1  0
 16 18  1  0
 18 19  1  0
 19 20  1  0
 20 21  1  0
 21 22  1  0
 22 23  1  0
 23 24  1  0
 24 25  1  0
 25 26  2  0
 25 27  1  0
 20 28  1  0
 28 29  1  0
 17 30  2  3
 30 31  1  0
 27 32  2  0
 27 33  1  0
 33 34  1  0
 28 35  2  0
  1  2  1  0
  3  4  2  0
  4  5  1  0
  5  6  2  0
  6  7  1  0
  7  8  2  0
  8  3  1  0
M  END

$$$$
No_1703-/dssg/home/sw_qyf/PocketFlow/Model-Generation-Results/5HT2A_7WC7_rec_A_10.pdb/2024-01-01-03-54-21/
     RDKit          3D

 10 10  0  0  0  0  0  0  0  0999 V2000
  -23.8931  -18.2534  145.3804 F   0  0  0  0  0  0  0  0  0  0  0  0
  -24.3394  -17.2619  146.1054 C   0  0  0  0  0  0  0  0  0  0  0  0
  -24.5544  -17.4430  147.4759 C   0  0  0  0  0  0  0  0  0  0  0  0
  -24.2286  -15.9062  145.6387 C   0  0  0  0  0  0  0  0  0  0  0  0
  -24.6711  -14.7845  146.3328 C   0  0  0  0  0  0  0  0  0  0  0  0
  -25.0215  -16.2656  148.2500 C   0  0  0  0  0  0  0  0  0  0  0  0
  -25.0669  -14.9930  147.7376 C   0  0  0  0  0  0  0  0  0  0  0  0
  -24.7201  -13.4320  145.9665 C   0  0  0  0  0  0  0  0  0  0  0  0
  -23.7967  -13.0059  144.9880 C   0  0  0  0  0  0  0  0  0  0  0  0
  -23.8374  -11.6348  144.7729 N   0  0  0  0  0  0  0  0  0  0  0  0
  1  2  1  0
  5  8  1  0
  8  9  2  3
  9 10  1  0
  2  3  2  0
  3  6  1  0
  6  7  2  0
  7  5  1  0
  5  4  2  0
  4  2  1  0
M  END

$$$$
No_1704-/dssg/home/sw_qyf/PocketFlow/Model-Generation-Results/5HT2A_7WC7_rec_A_10.pdb/2024-01-01-03-54-21/
     RDKit          3D

 35 39  0  0  0  0  0  0  0  0999 V2000
  -24.1553  -17.8465  145.7021 C   0  0  0  0  0  0  0  0  0  0  0  0
  -24.6364  -17.2931  146.7091 C   0  0  0  0  0  0  0  0  0  0  0  0
  -24.0780  -17.2921  147.9389 C   0  0  0  0  0  0  0  0  0  0  0  0
  -24.6761  -16.7363  149.1478 C   0  0  0  0  0  0  0  0  0  0  0  0
  -25.9986  -16.2638  148.9932 C   0  0  0  0  0  0  0  0  0  0  0  0
  -26.6271  -16.3412  147.7728 C   0  0  0  0  0  0  0  0  0  0  0  0
  -25.9735  -16.9165  146.6819 C   0  0  0  0  0  0  0  0  0  0  0  0
  -23.7938  -16.8806  144.5756 C   0  0  0  0  0  0  0  0  0  0  0  0
  -24.1383  -15.5368  145.0393 C   0  0  0  0  0  0  0  0  0  0  0  0
  -25.3132  -14.9782  144.9854 C   0  0  0  0  0  0  0  0  0  0  0  0
  -25.4326  -13.5770  145.1763 C   0  0  0  0  0  0  0  0  0  0  0  0
  -24.2486  -12.8516  145.5406 C   0  0  0  0  0  0  0  0  0  0  0  0
  -23.0074  -13.3738  145.2460 C   0  0  0  0  0  0  0  0  0  0  0  0
  -23.0039  -14.5811  145.0409 C   0  0  0  0  0  0  0  0  0  0  0  0
  -28.0197  -15.7999  147.7184 C   0  0  0  0  0  0  0  0  0  0  0  0
  -29.0163  -16.1843  148.4409 C   0  0  0  0  0  0  0  0  0  0  0  0
  -30.1895  -15.4731  148.3272 N   0  0  0  0  0  0  0  0  0  0  0  0
  -29.9576  -14.5275  147.3605 C   0  0  0  0  0  0  0  0  0  0  0  0
  -28.6152  -14.7247  147.0049 C   0  0  0  0  0  0  0  0  0  0  0  0
  -22.7986  -18.3793  146.0054 F   0  0  0  0  0  0  0  0  0  0  0  0
  -24.6924  -19.0509  145.2878 O   0  0  0  0  0  0  0  0  0  0  0  0
  -28.9947  -17.2273  149.4401 N   0  0  0  0  0  0  0  0  0  0  0  0
  -26.7476  -12.8586  145.2751 C   0  0  0  0  0  0  0  0  0  0  0  0
  -26.7550  -11.6271  146.0137 C   0  0  0  0  0  0  0  0  0  0  0  0
  -27.9674  -10.8883  145.8252 C   0  0  0  0  0  0  0  0  0  0  0  0
  -28.6228  -10.8277  144.6771 C   0  0  0  0  0  0  0  0  0  0  0  0
  -28.1817  -11.5897  143.5946 C   0  0  0  0  0  0  0  0  0  0  0  0
  -28.7445  -11.4431  142.3212 C   0  0  0  0  0  0  0  0  0  0  0  0
  -29.5291  -10.2685  142.0356 C   0  0  0  0  0  0  0  0  0  0  0  0
  -29.9539   -9.4963  143.1635 C   0  0  0  0  0  0  0  0  0  0  0  0
  -29.4427   -9.7463  144.4722 C   0  0  0  0  0  0  0  0  0  0  0  0
  -30.9586   -8.3963  143.1380 C   0  0  0  0  0  0  0  0  0  0  0  0
  -32.1041   -8.7638  142.9330 O   0  0  0  0  0  0  0  0  0  0  0  0
  -27.1712  -12.6623  143.8056 C   0  0  0  0  0  0  0  0  0  0  0  0
  -30.5197   -7.1267  142.7780 O   0  0  0  0  0  0  0  0  0  0  0  0
  1  2  1  0
  1  8  1  0
  8  9  1  0
  6 15  1  0
 15 16  2  0
 16 17  1  0
 17 18  2  0
 15 19  1  0
 18 19  1  0
  1 20  1  0
  1 21  1  0
 16 22  1  0
 11 23  1  0
 30 32  1  0
 32 33  1  0
 32 35  2  0
 27 28  1  0
 28 29  2  0
 29 30  1  0
 30 31  2  0
 31 26  1  0
  2  3  2  0
  3  4  1  0
  4  5  2  0
  5  6  1  0
  6  7  2  0
  7  2  1  0
 23 24  2  0
 24 25  1  0
 25 26  2  0
 26 27  1  0
 27 34  2  0
 34 23  1  0
  9 10  2  0
 10 11  1  0
 11 12  2  0
 12 13  1  0
 13 14  2  0
 14  9  1  0
M  END

$$$$
No_1705-/dssg/home/sw_qyf/PocketFlow/Model-Generation-Results/5HT2A_7WC7_rec_A_10.pdb/2024-01-01-03-54-21/
     RDKit          3D

 35 38  0  0  0  0  0  0  0  0999 V2000
  -23.1746  -16.6014  144.8668 C   0  0  0  0  0  0  0  0  0  0  0  0
  -23.8963  -15.5346  144.7885 C   0  0  0  0  0  0  0  0  0  0  0  0
  -24.5755  -15.0383  145.9043 C   0  0  0  0  0  0  0  0  0  0  0  0
  -25.0618  -13.6819  146.0347 C   0  0  0  0  0  0  0  0  0  0  0  0
  -24.0242  -12.8249  145.9593 C   0  0  0  0  0  0  0  0  0  0  0  0
  -23.4085  -17.5675  145.8907 C   0  0  0  0  0  0  0  0  0  0  0  0
  -24.1896  -17.1707  147.0047 C   0  0  0  0  0  0  0  0  0  0  0  0
  -24.7247  -15.8941  147.1004 C   0  0  0  0  0  0  0  0  0  0  0  0
  -26.3494  -13.2630  146.1682 C   0  0  0  0  0  0  0  0  0  0  0  0
  -26.6974  -12.1338  145.8430 C   0  0  0  0  0  0  0  0  0  0  0  0
  -25.7324  -11.0594  145.6345 C   0  0  0  0  0  0  0  0  0  0  0  0
  -24.3992  -11.4834  145.6544 C   0  0  0  0  0  0  0  0  0  0  0  0
  -28.1412  -11.6432  145.9444 C   0  0  0  0  0  0  0  0  0  0  0  0
  -28.7728  -10.7432  145.0838 C   0  0  0  0  0  0  0  0  0  0  0  0
  -28.1824  -10.3089  143.8910 C   0  0  0  0  0  0  0  0  0  0  0  0
  -28.9140   -9.4413  143.0753 C   0  0  0  0  0  0  0  0  0  0  0  0
  -29.8691   -8.5985  143.4731 C   0  0  0  0  0  0  0  0  0  0  0  0
  -30.6062   -7.7533  142.6239 C   0  0  0  0  0  0  0  0  0  0  0  0
  -30.2080   -7.6694  141.2807 C   0  0  0  0  0  0  0  0  0  0  0  0
  -29.1565   -8.4969  140.8225 C   0  0  0  0  0  0  0  0  0  0  0  0
  -28.7502   -8.5041  139.4813 C   0  0  0  0  0  0  0  0  0  0  0  0
  -28.5195   -9.3290  141.6723 C   0  0  0  0  0  0  0  0  0  0  0  0
  -27.8924   -9.4249  138.9058 C   0  0  0  0  0  0  0  0  0  0  0  0
  -27.1935  -10.2593  139.8603 C   0  0  0  0  0  0  0  0  0  0  0  0
  -26.3874  -11.3476  139.3866 C   0  0  0  0  0  0  0  0  0  0  0  0
  -27.6171  -10.2777  141.2087 C   0  0  0  0  0  0  0  0  0  0  0  0
  -26.8730  -12.5759  139.7454 O   0  0  0  0  0  0  0  0  0  0  0  0
  -28.9352  -12.2341  147.0462 C   0  0  0  0  0  0  0  0  0  0  0  0
  -29.9696  -13.2324  146.8047 C   0  0  0  0  0  0  0  0  0  0  0  0
  -29.7746  -14.4582  147.6935 C   0  0  0  0  0  0  0  0  0  0  0  0
  -29.0615  -15.6101  147.1721 C   0  0  0  0  0  0  0  0  0  0  0  0
  -28.7444  -16.6056  148.0721 C   0  0  0  0  0  0  0  0  0  0  0  0
  -27.6463  -17.4717  147.8035 C   0  0  0  0  0  0  0  0  0  0  0  0
  -27.1733  -17.5112  146.4950 C   0  0  0  0  0  0  0  0  0  0  0  0
  -27.5535  -16.5596  145.5376 C   0  0  0  0  0  0  0  0  0  0  0  0
  3  4  1  0
 10 13  1  0
 13 14  2  3
 14 15  1  0
 15 16  1  0
 24 25  1  0
 25 27  1  0
 13 28  1  0
 28 29  1  0
 29 30  1  0
 30 31  2  3
 31 32  1  0
 32 33  2  3
 33 34  1  0
 34 35  2  0
 16 17  2  0
 17 18  1  0
 18 19  2  0
 19 20  1  0
 22 16  1  0
  4  5  2  0
  5 12  1  0
 12 11  2  0
 11 10  1  0
 10  9  2  0
  9  4  1  0
  1  2  2  0
  2  3  1  0
  3  8  2  0
  8  7  1  0
  7  6  2  0
  6  1  1  0
 20 21  2  0
 21 23  1  0
 23 24  2  0
 24 26  1  0
 26 22  2  0
 22 20  1  0
M  END

$$$$
No_1706-/dssg/home/sw_qyf/PocketFlow/Model-Generation-Results/5HT2A_7WC7_rec_A_10.pdb/2024-01-01-03-54-21/
     RDKit          3D

 29 33  0  0  0  0  0  0  0  0999 V2000
  -24.1553  -17.8465  145.7021 C   0  0  0  0  0  0  0  0  0  0  0  0
  -24.2855  -16.6364  145.3494 C   0  0  0  0  0  0  0  0  0  0  0  0
  -25.0033  -15.6772  146.0737 C   0  0  0  0  0  0  0  0  0  0  0  0
  -25.7223  -16.0755  147.0215 C   0  0  0  0  0  0  0  0  0  0  0  0
  -24.8890  -18.3427  146.7819 C   0  0  0  0  0  0  0  0  0  0  0  0
  -25.6059  -17.4168  147.5659 C   0  0  0  0  0  0  0  0  0  0  0  0
  -23.6542  -15.8979  144.2425 N   0  0  0  0  0  0  0  0  0  0  0  0
  -24.9364  -14.2988  145.2876 C   0  0  0  0  0  0  0  0  0  0  0  0
  -25.5349  -13.1161  145.8685 C   0  0  0  0  0  0  0  0  0  0  0  0
  -24.0088  -14.4642  144.2861 C   0  0  0  0  0  0  0  0  0  0  0  0
  -24.6031  -12.0855  146.2595 C   0  0  0  0  0  0  0  0  0  0  0  0
  -26.9139  -13.0075  145.9843 C   0  0  0  0  0  0  0  0  0  0  0  0
  -27.6382  -12.4173  144.9693 C   0  0  0  0  0  0  0  0  0  0  0  0
  -28.8186  -11.6317  145.3812 C   0  0  0  0  0  0  0  0  0  0  0  0
  -29.4622  -10.6230  144.5704 C   0  0  0  0  0  0  0  0  0  0  0  0
  -29.2046  -10.4911  143.2771 C   0  0  0  0  0  0  0  0  0  0  0  0
  -29.8228   -9.5416  142.4811 C   0  0  0  0  0  0  0  0  0  0  0  0
  -31.0871   -9.0809  142.8183 C   0  0  0  0  0  0  0  0  0  0  0  0
  -31.2403   -7.8818  142.9013 N   0  0  0  0  0  0  0  0  0  0  0  0
  -29.3132   -9.1793  141.1856 C   0  0  0  0  0  0  0  0  0  0  0  0
  -28.3584   -9.8247  140.4765 C   0  0  0  0  0  0  0  0  0  0  0  0
  -27.9467   -9.4833  139.2428 C   0  0  0  0  0  0  0  0  0  0  0  0
  -29.8239   -7.8883  140.7379 C   0  0  0  0  0  0  0  0  0  0  0  0
  -27.1023  -10.3181  138.5583 C   0  0  0  0  0  0  0  0  0  0  0  0
  -26.7257  -11.5669  139.2383 C   0  0  0  0  0  0  0  0  0  0  0  0
  -27.3156  -11.9688  140.4423 C   0  0  0  0  0  0  0  0  0  0  0  0
  -28.1450  -11.1286  141.0793 C   0  0  0  0  0  0  0  0  0  0  0  0
  -28.1612  -11.2732  142.5631 C   0  0  0  0  0  0  0  0  0  0  0  0
  -30.6857   -7.0677  141.7240 C   0  0  0  0  0  0  0  0  0  0  0  0
  2  7  1  0
  3  8  1  0
  8  9  1  0
  7 10  1  0
  8 10  1  0
  9 11  1  0
  9 12  1  0
 12 13  1  0
 13 14  2  3
 14 15  1  0
 15 16  2  3
 16 17  1  0
 20 21  1  0
 16 28  1  0
 27 28  1  0
  1  2  2  0
  2  3  1  0
  3  4  2  0
  4  6  1  0
  6  5  2  0
  5  1  1  0
 21 22  2  0
 22 24  1  0
 24 25  2  0
 25 26  1  0
 26 27  2  0
 27 21  1  0
 17 18  2  0
 18 19  1  0
 19 29  2  0
 29 23  1  0
 23 20  2  0
 20 17  1  0
M  END

$$$$
No_1707-/dssg/home/sw_qyf/PocketFlow/Model-Generation-Results/5HT2A_7WC7_rec_A_10.pdb/2024-01-01-03-54-21/
     RDKit          3D

 18 18  0  0  0  0  0  0  0  0999 V2000
  -23.1746  -16.6014  144.8668 C   0  0  0  0  0  0  0  0  0  0  0  0
  -24.0189  -16.0564  145.8445 C   0  0  0  0  0  0  0  0  0  0  0  0
  -25.3176  -15.9168  145.6822 C   0  0  0  0  0  0  0  0  0  0  0  0
  -26.0560  -14.7966  146.3742 C   0  0  0  0  0  0  0  0  0  0  0  0
  -27.4508  -14.7083  146.4606 C   0  0  0  0  0  0  0  0  0  0  0  0
  -28.1493  -15.9518  146.7783 C   0  0  0  0  0  0  0  0  0  0  0  0
  -27.5711  -17.1208  146.2129 C   0  0  0  0  0  0  0  0  0  0  0  0
  -26.1397  -17.1148  146.0307 C   0  0  0  0  0  0  0  0  0  0  0  0
  -25.3474  -13.4447  146.2645 C   0  0  0  0  0  0  0  0  0  0  0  0
  -24.9016  -12.8244  145.0914 C   0  0  0  0  0  0  0  0  0  0  0  0
  -23.6407  -12.1298  145.2482 C   0  0  0  0  0  0  0  0  0  0  0  0
  -23.1030  -11.4394  144.4152 O   0  0  0  0  0  0  0  0  0  0  0  0
  -23.0081  -12.2646  146.4549 O   0  0  0  0  0  0  0  0  0  0  0  0
  -28.1765  -13.4797  146.6122 C   0  0  0  0  0  0  0  0  0  0  0  0
  -29.4137  -13.3567  147.2697 C   0  0  0  0  0  0  0  0  0  0  0  0
  -30.0348  -12.0688  147.3402 C   0  0  0  0  0  0  0  0  0  0  0  0
  -31.1171  -11.9299  148.0842 O   0  0  0  0  0  0  0  0  0  0  0  0
  -29.6595  -11.1114  146.5621 O   0  0  0  0  0  0  0  0  0  0  0  0
  1  2  1  0
  2  3  1  0
  4  9  1  0
  9 10  1  0
 10 11  1  0
 11 12  2  0
 11 13  1  0
  5 14  1  0
 14 15  2  3
 15 16  1  0
 16 17  1  0
 16 18  2  0
  3  4  2  0
  4  5  1  0
  5  6  2  0
  6  7  1  0
  7  8  2  0
  8  3  1  0
M  END

$$$$
No_1708-/dssg/home/sw_qyf/PocketFlow/Model-Generation-Results/5HT2A_7WC7_rec_A_10.pdb/2024-01-01-03-54-21/
     RDKit          3D

 26 29  0  0  0  0  0  0  0  0999 V2000
  -23.8998  -17.8495  145.5131 N   0  0  0  0  0  0  0  0  0  0  0  0
  -24.2949  -16.6890  145.5199 C   0  0  0  0  0  0  0  0  0  0  0  0
  -25.0185  -16.1392  146.5537 C   0  0  0  0  0  0  0  0  0  0  0  0
  -25.1941  -16.8484  147.6260 C   0  0  0  0  0  0  0  0  0  0  0  0
  -25.9777  -16.3563  148.7634 C   0  0  0  0  0  0  0  0  0  0  0  0
  -23.9839  -18.6748  146.5644 C   0  0  0  0  0  0  0  0  0  0  0  0
  -24.6623  -18.1601  147.6696 N   0  0  0  0  0  0  0  0  0  0  0  0
  -24.0096  -15.8085  144.2427 C   0  0  0  0  0  0  0  0  0  0  0  0
  -24.8364  -14.6173  144.1578 C   0  0  0  0  0  0  0  0  0  0  0  0
  -25.9611  -14.4418  144.8537 C   0  0  0  0  0  0  0  0  0  0  0  0
  -26.2720  -15.0730  145.8248 C   0  0  0  0  0  0  0  0  0  0  0  0
  -26.8230  -13.3198  144.4810 C   0  0  0  0  0  0  0  0  0  0  0  0
  -27.4481  -12.4993  145.4823 C   0  0  0  0  0  0  0  0  0  0  0  0
  -28.2769  -11.3827  145.1807 C   0  0  0  0  0  0  0  0  0  0  0  0
  -28.3677  -10.9020  143.8640 C   0  0  0  0  0  0  0  0  0  0  0  0
  -27.7328  -11.7249  142.8797 C   0  0  0  0  0  0  0  0  0  0  0  0
  -26.9598  -12.8051  143.1708 C   0  0  0  0  0  0  0  0  0  0  0  0
  -29.1864   -9.7592  143.5615 C   0  0  0  0  0  0  0  0  0  0  0  0
  -30.2197   -9.4114  144.2089 N   0  0  0  0  0  0  0  0  0  0  0  0
  -30.9987   -8.3928  143.8199 C   0  0  0  0  0  0  0  0  0  0  0  0
  -30.9800   -8.1032  142.4118 C   0  0  0  0  0  0  0  0  0  0  0  0
  -29.8184   -8.4051  141.7061 C   0  0  0  0  0  0  0  0  0  0  0  0
  -28.9709   -9.4523  142.1857 C   0  0  0  0  0  0  0  0  0  0  0  0
  -29.4822   -7.7375  140.4803 C   0  0  0  0  0  0  0  0  0  0  0  0
  -28.7420   -8.2387  139.4738 C   0  0  0  0  0  0  0  0  0  0  0  0
  -28.6041   -7.6398  138.2005 C   0  0  0  0  0  0  0  0  0  0  0  0
  1  2  1  0
  3  4  1  0
  4  5  2  0
  1  6  1  0
  4  7  1  0
  6  7  1  0
 10 12  1  0
 15 18  1  0
 18 19  1  0
 19 20  1  0
 20 21  1  0
 21 22  1  0
 18 23  1  0
 22 23  1  0
 22 24  1  0
 24 25  2  3
 25 26  1  0
 12 13  2  0
 13 14  1  0
 14 15  2  0
 15 16  1  0
 16 17  2  0
 17 12  1  0
  2  3  2  0
  3 11  1  0
 11 10  2  0
 10  9  1  0
  9  8  2  0
  8  2  1  0
M  END

$$$$
No_1709-/dssg/home/sw_qyf/PocketFlow/Model-Generation-Results/5HT2A_7WC7_rec_A_10.pdb/2024-01-01-03-54-21/
     RDKit          3D

 35 38  0  0  0  0  0  0  0  0999 V2000
  -24.1553  -17.8465  145.7021 C   0  0  0  0  0  0  0  0  0  0  0  0
  -24.2856  -16.6364  145.3494 C   0  0  0  0  0  0  0  0  0  0  0  0
  -24.1962  -15.9414  144.2650 C   0  0  0  0  0  0  0  0  0  0  0  0
  -24.3870  -14.5486  144.1162 C   0  0  0  0  0  0  0  0  0  0  0  0
  -24.7524  -13.8439  145.3544 C   0  0  0  0  0  0  0  0  0  0  0  0
  -24.8215  -12.3993  145.3596 C   0  0  0  0  0  0  0  0  0  0  0  0
  -24.2456  -18.3779  147.0229 C   0  0  0  0  0  0  0  0  0  0  0  0
  -25.8967  -11.8548  146.0223 C   0  0  0  0  0  0  0  0  0  0  0  0
  -27.1270  -11.8587  145.2607 C   0  0  0  0  0  0  0  0  0  0  0  0
  -28.2953  -12.0533  146.0840 C   0  0  0  0  0  0  0  0  0  0  0  0
  -28.4808  -13.0870  146.9973 C   0  0  0  0  0  0  0  0  0  0  0  0
  -29.6372  -13.7354  147.0006 C   0  0  0  0  0  0  0  0  0  0  0  0
  -24.5857  -17.4575  148.0683 C   0  0  0  0  0  0  0  0  0  0  0  0
  -24.7272  -16.0304  147.7579 C   0  0  0  0  0  0  0  0  0  0  0  0
  -24.6744  -15.7389  146.4372 C   0  0  0  0  0  0  0  0  0  0  0  0
  -24.8989  -14.3431  146.0792 N   0  0  0  0  0  0  0  0  0  0  0  0
  -29.4775  -11.1864  145.9201 C   0  0  0  0  0  0  0  0  0  0  0  0
  -30.4772  -11.1777  146.7801 O   0  0  0  0  0  0  0  0  0  0  0  0
  -29.5643  -10.3757  144.8923 N   0  0  0  0  0  0  0  0  0  0  0  0
  -30.6749   -9.5440  144.5813 C   0  0  0  0  0  0  0  0  0  0  0  0
  -30.8233   -9.2042  143.1770 C   0  0  0  0  0  0  0  0  0  0  0  0
  -29.7999   -9.5879  142.3999 C   0  0  0  0  0  0  0  0  0  0  0  0
  -29.5158   -8.8845  141.2074 C   0  0  0  0  0  0  0  0  0  0  0  0
  -30.2987   -7.7396  141.0093 C   0  0  0  0  0  0  0  0  0  0  0  0
  -29.9064   -6.9897  139.9480 N   0  0  0  0  0  0  0  0  0  0  0  0
  -29.5997  -14.8546  147.4581 C   0  0  0  0  0  0  0  0  0  0  0  0
  -28.6130   -9.2929  140.2165 C   0  0  0  0  0  0  0  0  0  0  0  0
  -27.8002  -10.4706  140.4419 C   0  0  0  0  0  0  0  0  0  0  0  0
  -26.8750  -10.8829  139.4682 C   0  0  0  0  0  0  0  0  0  0  0  0
  -28.3983   -8.3391  139.1900 C   0  0  0  0  0  0  0  0  0  0  0  0
  -29.0807   -7.2506  139.1279 N   0  0  0  0  0  0  0  0  0  0  0  0
  -28.0838  -11.3212  141.5845 C   0  0  0  0  0  0  0  0  0  0  0  0
  -27.4181  -12.4581  141.7739 N   0  0  0  0  0  0  0  0  0  0  0  0
  -29.1071  -10.7649  142.5343 C   0  0  0  0  0  0  0  0  0  0  0  0
  -28.4327  -15.7697  147.5722 C   0  0  0  0  0  0  0  0  0  0  0  0
  5  6  1  0
  6  8  1  0
  8  9  1  0
  9 10  1  0
 10 11  1  0
 11 12  1  0
 10 17  1  0
 17 18  1  0
 17 19  1  0
 19 20  1  0
 20 21  1  0
 21 22  1  0
 12 26  2  3
 32 33  1  0
 26 35  1  0
 29 28  1  0
 23 24  2  0
 24 25  1  0
 25 31  2  0
 31 30  1  0
 30 27  2  0
 22 23  1  0
 23 27  1  0
 27 28  1  0
 28 32  2  0
 32 34  1  0
 34 22  2  0
  2  3  1  0
  3  4  2  0
  4  5  1  0
  5 16  2  0
 16 15  1  0
  1  2  2  0
  2 15  1  0
 15 14  2  0
 14 13  1  0
 13  7  2  0
  7  1  1  0
M  END

$$$$
No_1710-/dssg/home/sw_qyf/PocketFlow/Model-Generation-Results/5HT2A_7WC7_rec_A_10.pdb/2024-01-01-03-54-21/
     RDKit          3D

 35 40  0  0  0  0  0  0  0  0999 V2000
  -24.1553  -17.8465  145.7021 C   0  0  0  0  0  0  0  0  0  0  0  0
  -23.9795  -18.4462  146.7426 C   0  0  0  0  0  0  0  0  0  0  0  0
  -25.1593  -16.8262  145.6925 C   0  0  0  0  0  0  0  0  0  0  0  0
  -25.3302  -15.8818  144.5925 C   0  0  0  0  0  0  0  0  0  0  0  0
  -24.4570  -18.1009  148.0274 C   0  0  0  0  0  0  0  0  0  0  0  0
  -25.3496  -17.0286  148.1023 C   0  0  0  0  0  0  0  0  0  0  0  0
  -25.5669  -16.2449  146.9641 C   0  0  0  0  0  0  0  0  0  0  0  0
  -26.3838  -14.9379  144.6390 C   0  0  0  0  0  0  0  0  0  0  0  0
  -27.1307  -14.7148  145.8296 C   0  0  0  0  0  0  0  0  0  0  0  0
  -28.1598  -13.7602  145.9194 C   0  0  0  0  0  0  0  0  0  0  0  0
  -28.1419  -12.5728  145.1371 C   0  0  0  0  0  0  0  0  0  0  0  0
  -29.0543  -11.4805  145.3326 C   0  0  0  0  0  0  0  0  0  0  0  0
  -29.0411  -10.3703  144.4715 C   0  0  0  0  0  0  0  0  0  0  0  0
  -28.2283  -10.2868  143.4230 C   0  0  0  0  0  0  0  0  0  0  0  0
  -26.7092  -15.3802  147.0763 C   0  0  0  0  0  0  0  0  0  0  0  0
  -27.2322  -11.3079  143.3053 C   0  0  0  0  0  0  0  0  0  0  0  0
  -27.1689  -12.4167  144.1153 C   0  0  0  0  0  0  0  0  0  0  0  0
  -30.0666  -11.4525  146.3252 N   0  0  0  0  0  0  0  0  0  0  0  0
  -29.8188  -11.9974  147.6299 C   0  0  0  0  0  0  0  0  0  0  0  0
  -31.0083  -12.3886  148.3665 C   0  0  0  0  0  0  0  0  0  0  0  0
  -31.0312  -13.7105  148.9315 C   0  0  0  0  0  0  0  0  0  0  0  0
  -29.8789  -14.4141  148.5550 C   0  0  0  0  0  0  0  0  0  0  0  0
  -29.1146  -13.4768  147.7736 N   0  0  0  0  0  0  0  0  0  0  0  0
  -27.8896  -13.5830  147.3036 C   0  0  0  0  0  0  0  0  0  0  0  0
  -30.0434   -9.4272  144.6820 O   0  0  0  0  0  0  0  0  0  0  0  0
  -30.8150   -8.9137  143.5733 C   0  0  0  0  0  0  0  0  0  0  0  0
  -30.1535   -8.4662  142.4294 C   0  0  0  0  0  0  0  0  0  0  0  0
  -30.0210   -7.0900  142.3185 C   0  0  0  0  0  0  0  0  0  0  0  0
  -29.3829   -6.3981  141.2713 C   0  0  0  0  0  0  0  0  0  0  0  0
  -29.4352   -7.2638  140.1703 C   0  0  0  0  0  0  0  0  0  0  0  0
  -30.0005   -9.0378  141.1503 C   0  0  0  0  0  0  0  0  0  0  0  0
  -29.5514   -8.5313  140.1557 C   0  0  0  0  0  0  0  0  0  0  0  0
  -32.0277   -8.9226  143.7145 O   0  0  0  0  0  0  0  0  0  0  0  0
  -23.7367  -18.2029  144.5546 O   0  0  0  0  0  0  0  0  0  0  0  0
  -25.9845  -16.6357  149.6885 Cl  0  0  0  0  0  0  0  0  0  0  0  0
  9 10  1  0
 12 18  1  0
 18 19  1  0
 19 20  1  0
 20 21  2  0
 21 22  1  0
 19 23  1  0
 22 23  1  0
 10 24  1  0
 23 24  1  0
 13 25  1  0
 25 26  1  0
 26 27  1  0
 26 33  2  0
  1 34  1  0
  6 35  1  0
 10 11  1  0
 11 12  2  0
 12 13  1  0
 13 14  2  0
 14 16  1  0
 16 17  2  0
 17 11  1  0
 27 28  2  0
 28 29  1  0
 29 30  2  0
 30 32  1  0
 32 31  2  0
 31 27  1  0
  1  2  2  0
  2  5  1  0
  5  6  2  0
  6  7  1  0
  3  1  1  0
  3  4  2  0
  4  8  1  0
  8  9  2  0
  9 15  1  0
 15  7  2  0
  7  3  1  0
M  END

$$$$
No_1711-/dssg/home/sw_qyf/PocketFlow/Model-Generation-Results/5HT2A_7WC7_rec_A_10.pdb/2024-01-01-03-54-21/
     RDKit          3D

 35 37  0  0  0  0  0  0  0  0999 V2000
  -23.1746  -16.6014  144.8668 C   0  0  0  0  0  0  0  0  0  0  0  0
  -23.8963  -15.5346  144.7885 C   0  0  0  0  0  0  0  0  0  0  0  0
  -23.6398  -14.5115  145.3281 C   0  0  0  0  0  0  0  0  0  0  0  0
  -24.3240  -13.3648  145.1281 C   0  0  0  0  0  0  0  0  0  0  0  0
  -25.5072  -13.2953  144.4353 C   0  0  0  0  0  0  0  0  0  0  0  0
  -25.9151  -14.5889  143.8605 C   0  0  0  0  0  0  0  0  0  0  0  0
  -25.1243  -15.6356  144.0574 C   0  0  0  0  0  0  0  0  0  0  0  0
  -22.4970  -16.8404  145.8394 O   0  0  0  0  0  0  0  0  0  0  0  0
  -26.4518  -12.1531  144.3167 C   0  0  0  0  0  0  0  0  0  0  0  0
  -27.6249  -12.1427  145.1540 C   0  0  0  0  0  0  0  0  0  0  0  0
  -28.6890  -11.2588  144.9669 C   0  0  0  0  0  0  0  0  0  0  0  0
  -29.7932  -11.2238  145.9723 C   0  0  0  0  0  0  0  0  0  0  0  0
  -29.7905  -12.1339  147.0376 C   0  0  0  0  0  0  0  0  0  0  0  0
  -28.7342  -13.1092  147.1400 C   0  0  0  0  0  0  0  0  0  0  0  0
  -27.6610  -13.0999  146.2435 C   0  0  0  0  0  0  0  0  0  0  0  0
  -28.8901  -10.7217  143.7364 C   0  0  0  0  0  0  0  0  0  0  0  0
  -29.1715   -9.3042  143.6559 C   0  0  0  0  0  0  0  0  0  0  0  0
  -29.4237   -8.6036  142.4842 C   0  0  0  0  0  0  0  0  0  0  0  0
  -29.7492   -7.1850  142.4790 C   0  0  0  0  0  0  0  0  0  0  0  0
  -28.4193   -8.7900  141.4170 C   0  0  0  0  0  0  0  0  0  0  0  0
  -28.7582   -8.3662  140.0845 C   0  0  0  0  0  0  0  0  0  0  0  0
  -28.1284   -8.7384  138.9125 C   0  0  0  0  0  0  0  0  0  0  0  0
  -28.5664   -8.1238  137.7261 C   0  0  0  0  0  0  0  0  0  0  0  0
  -30.7769  -12.1016  147.9999 N   0  0  0  0  0  0  0  0  0  0  0  0
  -30.6300   -6.8845  143.5630 C   0  0  0  0  0  0  0  0  0  0  0  0
  -23.2966  -17.5648  143.9026 O   0  0  0  0  0  0  0  0  0  0  0  0
  -31.2162  -13.0976  148.7826 C   0  0  0  0  0  0  0  0  0  0  0  0
  -32.2328  -12.7698  149.7453 C   0  0  0  0  0  0  0  0  0  0  0  0
  -32.3183  -13.3932  150.9589 C   0  0  0  0  0  0  0  0  0  0  0  0
  -31.7438  -14.5071  151.0737 C   0  0  0  0  0  0  0  0  0  0  0  0
  -30.6986  -14.9996  150.1296 C   0  0  0  0  0  0  0  0  0  0  0  0
  -30.4645  -14.1834  149.0573 C   0  0  0  0  0  0  0  0  0  0  0  0
  -32.9914  -11.4909  149.5080 C   0  0  0  0  0  0  0  0  0  0  0  0
  -33.0912  -10.5253  150.5770 C   0  0  0  0  0  0  0  0  0  0  0  0
  -30.0482  -16.3173  150.3427 C   0  0  0  0  0  0  0  0  0  0  0  0
  1  2  1  0
  1  8  1  0
  5  9  1  0
  9 10  1  0
 11 16  1  0
 16 17  2  3
 17 18  1  0
 18 19  1  0
 18 20  1  0
 20 21  1  0
 21 22  2  3
 22 23  1  0
 13 24  1  0
 19 25  1  0
  1 26  2  0
 24 27  1  0
 28 33  1  0
 33 34  1  0
 31 35  1  0
  2  3  2  0
  3  4  1  0
  4  5  2  0
  5  6  1  0
  6  7  2  0
  7  2  1  0
 27 28  2  0
 28 29  1  0
 29 30  2  0
 30 31  1  0
 31 32  2  0
 32 27  1  0
 10 11  2  0
 11 12  1  0
 12 13  2  0
 13 14  1  0
 14 15  2  0
 15 10  1  0
M  END

$$$$
No_1712-/dssg/home/sw_qyf/PocketFlow/Model-Generation-Results/5HT2A_7WC7_rec_A_10.pdb/2024-01-01-03-54-21/
     RDKit          3D

 35 38  0  0  0  0  0  0  0  0999 V2000
  -24.1553  -17.8465  145.7021 C   0  0  0  0  0  0  0  0  0  0  0  0
  -24.2856  -16.6364  145.3494 C   0  0  0  0  0  0  0  0  0  0  0  0
  -24.5733  -15.7651  145.9979 C   0  0  0  0  0  0  0  0  0  0  0  0
  -24.7790  -14.3201  145.5846 C   0  0  0  0  0  0  0  0  0  0  0  0
  -23.9937  -13.9985  144.4527 C   0  0  0  0  0  0  0  0  0  0  0  0
  -24.4910  -18.2238  147.0073 C   0  0  0  0  0  0  0  0  0  0  0  0
  -24.9508  -17.2552  147.8929 C   0  0  0  0  0  0  0  0  0  0  0  0
  -24.9922  -15.8662  147.4411 C   0  0  0  0  0  0  0  0  0  0  0  0
  -25.5475  -13.3562  146.2915 C   0  0  0  0  0  0  0  0  0  0  0  0
  -25.5849  -12.0094  145.9108 C   0  0  0  0  0  0  0  0  0  0  0  0
  -26.8144  -11.3168  145.9425 C   0  0  0  0  0  0  0  0  0  0  0  0
  -28.0024  -12.0278  145.9604 C   0  0  0  0  0  0  0  0  0  0  0  0
  -28.0917  -13.2120  146.8213 C   0  0  0  0  0  0  0  0  0  0  0  0
  -26.8922  -14.1013  146.5246 C   0  0  0  0  0  0  0  0  0  0  0  0
  -29.1631  -13.6952  147.4917 C   0  0  0  0  0  0  0  0  0  0  0  0
  -29.5036  -15.0015  147.7912 C   0  0  0  0  0  0  0  0  0  0  0  0
  -30.0616  -12.6669  148.0421 C   0  0  0  0  0  0  0  0  0  0  0  0
  -31.1388  -12.9877  148.9113 C   0  0  0  0  0  0  0  0  0  0  0  0
  -28.6717  -16.0345  147.2933 C   0  0  0  0  0  0  0  0  0  0  0  0
  -27.3082  -15.5063  146.7541 C   0  0  0  0  0  0  0  0  0  0  0  0
  -32.1471  -12.1070  149.2261 C   0  0  0  0  0  0  0  0  0  0  0  0
  -33.2774  -12.4905  149.9897 C   0  0  0  0  0  0  0  0  0  0  0  0
  -33.0792  -12.2737  151.2887 C   0  0  0  0  0  0  0  0  0  0  0  0
  -32.9233  -11.0570  151.8513 N   0  0  0  0  0  0  0  0  0  0  0  0
  -23.7976  -16.3918  143.9015 C   0  0  0  0  0  0  0  0  0  0  0  0
  -23.6587  -15.0295  143.6505 N   0  0  0  0  0  0  0  0  0  0  0  0
  -24.4841  -11.4528  145.6816 F   0  0  0  0  0  0  0  0  0  0  0  0
  -25.2356  -17.5423  149.3402 C   0  0  0  0  0  0  0  0  0  0  0  0
  -25.4733  -16.7257  150.0255 O   0  0  0  0  0  0  0  0  0  0  0  0
  -24.8225  -18.6135  149.8400 O   0  0  0  0  0  0  0  0  0  0  0  0
  -33.2000  -13.2764  152.1882 O   0  0  0  0  0  0  0  0  0  0  0  0
  -29.1595  -11.5081  145.3261 C   0  0  0  0  0  0  0  0  0  0  0  0
  -29.0548  -10.2143  144.5990 C   0  0  0  0  0  0  0  0  0  0  0  0
  -28.0071  -10.0115  143.7550 C   0  0  0  0  0  0  0  0  0  0  0  0
  -30.2623   -9.4199  144.4516 C   0  0  0  0  0  0  0  0  0  0  0  0
  4  9  1  0
  9 10  1  0
 10 11  1  0
 11 12  1  0
 12 13  1  0
  9 14  1  0
 15 17  1  0
 17 18  2  3
 18 21  1  0
 21 22  1  0
 22 23  1  0
 23 24  1  0
 10 27  1  0
  7 28  1  0
 28 29  2  0
 28 30  1  0
 23 31  2  0
 12 32  1  0
 32 33  1  0
 33 34  1  0
 33 35  1  0
  1  2  2  0
  3  8  2  0
  8  7  1  0
  7  6  2  0
  6  1  1  0
 13 14  2  0
 14 20  1  0
 20 19  2  0
 19 16  1  0
 16 15  2  0
 15 13  1  0
  2  3  1  0
  3  4  1  0
  4  5  2  0
  5 26  1  0
 26 25  2  0
 25  2  1  0
M  END

$$$$
No_1713-/dssg/home/sw_qyf/PocketFlow/Model-Generation-Results/5HT2A_7WC7_rec_A_10.pdb/2024-01-01-03-54-21/
     RDKit          3D

 34 36  0  0  0  0  0  0  0  0999 V2000
  -23.1746  -16.6014  144.8668 C   0  0  0  0  0  0  0  0  0  0  0  0
  -23.8963  -15.5346  144.7885 C   0  0  0  0  0  0  0  0  0  0  0  0
  -25.0304  -15.2549  144.5358 C   0  0  0  0  0  0  0  0  0  0  0  0
  -25.6045  -13.9524  144.2294 C   0  0  0  0  0  0  0  0  0  0  0  0
  -24.8624  -12.8904  144.6738 C   0  0  0  0  0  0  0  0  0  0  0  0
  -23.5278  -13.1645  145.1476 C   0  0  0  0  0  0  0  0  0  0  0  0
  -23.0148  -14.3796  145.1899 C   0  0  0  0  0  0  0  0  0  0  0  0
  -24.0086  -17.8602  145.1449 C   0  0  0  0  0  0  0  0  0  0  0  0
  -23.9633  -18.2172  146.6148 C   0  0  0  0  0  0  0  0  0  0  0  0
  -25.0900  -17.9492  147.4127 C   0  0  0  0  0  0  0  0  0  0  0  0
  -24.7379  -17.3128  148.7506 C   0  0  0  0  0  0  0  0  0  0  0  0
  -23.4456  -17.4890  149.2184 C   0  0  0  0  0  0  0  0  0  0  0  0
  -23.2743  -16.7841  150.5308 C   0  0  0  0  0  0  0  0  0  0  0  0
  -22.7217  -11.8850  145.4640 C   0  0  0  0  0  0  0  0  0  0  0  0
  -27.0326  -13.7482  143.8335 C   0  0  0  0  0  0  0  0  0  0  0  0
  -27.0335  -13.2206  142.4460 C   0  0  0  0  0  0  0  0  0  0  0  0
  -27.5142  -11.8844  142.2542 C   0  0  0  0  0  0  0  0  0  0  0  0
  -28.1080  -11.0986  143.2543 C   0  0  0  0  0  0  0  0  0  0  0  0
  -28.8119   -9.8924  142.9294 C   0  0  0  0  0  0  0  0  0  0  0  0
  -28.8449   -9.4633  141.6216 C   0  0  0  0  0  0  0  0  0  0  0  0
  -28.1797  -10.2335  140.6544 C   0  0  0  0  0  0  0  0  0  0  0  0
  -27.5871  -11.4392  140.9268 C   0  0  0  0  0  0  0  0  0  0  0  0
  -29.4740   -8.1508  141.3432 C   0  0  0  0  0  0  0  0  0  0  0  0
  -29.4578   -7.5633  140.1064 C   0  0  0  0  0  0  0  0  0  0  0  0
  -30.2147   -7.4748  142.4049 C   0  0  0  0  0  0  0  0  0  0  0  0
  -31.4488   -7.9227  142.8158 C   0  0  0  0  0  0  0  0  0  0  0  0
  -31.4510   -8.9435  143.0925 F   0  0  0  0  0  0  0  0  0  0  0  0
  -31.8402   -7.1420  143.9653 F   0  0  0  0  0  0  0  0  0  0  0  0
  -28.7664   -8.0770  139.0164 C   0  0  0  0  0  0  0  0  0  0  0  0
  -28.0945   -9.4749  139.3077 C   0  0  0  0  0  0  0  0  0  0  0  0
  -27.0658  -12.0701  139.9602 F   0  0  0  0  0  0  0  0  0  0  0  0
  -22.0134  -16.7449  151.0094 O   0  0  0  0  0  0  0  0  0  0  0  0
  -28.5345   -7.6513  137.7767 C   0  0  0  0  0  0  0  0  0  0  0  0
  -29.0062   -8.2320  136.7515 O   0  0  0  0  0  0  0  0  0  0  0  0
  1  2  1  0
  1  8  1  0
  8  9  1  0
  9 10  1  0
 10 11  1  0
 11 12  1  0
 12 13  1  0
  6 14  1  0
  4 15  1  0
 15 16  1  0
 23 25  1  0
 25 26  2  3
 26 27  1  0
 26 28  1  0
 22 31  1  0
 13 32  1  0
 29 33  1  0
 33 34  1  0
 16 17  1  0
 17 18  2  0
 18 19  1  0
 19 20  2  0
 21 22  2  0
 22 17  1  0
  2  3  2  0
  3  4  1  0
  4  5  2  0
  5  6  1  0
  6  7  2  0
  7  2  1  0
 20 21  1  0
 21 30  1  0
 30 29  2  0
 29 24  1  0
 24 23  2  0
 23 20  1  0
M  END

$$$$
No_1714-/dssg/home/sw_qyf/PocketFlow/Model-Generation-Results/5HT2A_7WC7_rec_A_10.pdb/2024-01-01-03-54-21/
     RDKit          3D

 32 35  0  0  0  0  0  0  0  0999 V2000
  -23.1746  -16.6014  144.8668 C   0  0  0  0  0  0  0  0  0  0  0  0
  -24.0189  -16.0564  145.8445 C   0  0  0  0  0  0  0  0  0  0  0  0
  -24.4145  -16.8299  146.9062 C   0  0  0  0  0  0  0  0  0  0  0  0
  -25.2273  -16.2787  147.9854 C   0  0  0  0  0  0  0  0  0  0  0  0
  -25.7358  -15.0095  147.7773 C   0  0  0  0  0  0  0  0  0  0  0  0
  -25.3901  -14.2337  146.6672 C   0  0  0  0  0  0  0  0  0  0  0  0
  -24.5390  -14.7030  145.7350 C   0  0  0  0  0  0  0  0  0  0  0  0
  -24.1426  -13.8633  144.6266 C   0  0  0  0  0  0  0  0  0  0  0  0
  -23.7633  -12.7149  144.9213 O   0  0  0  0  0  0  0  0  0  0  0  0
  -23.9303  -18.2159  147.0958 C   0  0  0  0  0  0  0  0  0  0  0  0
  -23.5601  -19.0412  146.1572 O   0  0  0  0  0  0  0  0  0  0  0  0
  -25.8684  -12.8217  146.6365 C   0  0  0  0  0  0  0  0  0  0  0  0
  -25.1285  -12.0024  145.8186 C   0  0  0  0  0  0  0  0  0  0  0  0
  -25.8400  -11.1889  144.7028 C   0  0  0  0  0  0  0  0  0  0  0  0
  -25.5626   -9.9926  144.7057 O   0  0  0  0  0  0  0  0  0  0  0  0
  -26.8477  -11.7295  144.1631 N   0  0  0  0  0  0  0  0  0  0  0  0
  -27.7571  -11.0247  143.2925 C   0  0  0  0  0  0  0  0  0  0  0  0
  -27.7140  -11.0582  141.9827 C   0  0  0  0  0  0  0  0  0  0  0  0
  -28.4166  -10.2005  141.1872 C   0  0  0  0  0  0  0  0  0  0  0  0
  -29.2933   -9.2606  141.7955 C   0  0  0  0  0  0  0  0  0  0  0  0
  -30.0482   -8.2804  141.1045 C   0  0  0  0  0  0  0  0  0  0  0  0
  -28.6190  -10.0038  143.9555 C   0  0  0  0  0  0  0  0  0  0  0  0
  -29.3170   -9.1454  143.2444 C   0  0  0  0  0  0  0  0  0  0  0  0
  -29.4512   -7.7325  139.9004 C   0  0  0  0  0  0  0  0  0  0  0  0
  -29.4665   -8.5291  138.6960 C   0  0  0  0  0  0  0  0  0  0  0  0
  -28.2303   -8.5144  137.9542 C   0  0  0  0  0  0  0  0  0  0  0  0
  -24.1263  -18.7442  148.2805 O   0  0  0  0  0  0  0  0  0  0  0  0
  -31.3539   -7.9584  141.5063 C   0  0  0  0  0  0  0  0  0  0  0  0
  -31.8458   -8.7560  142.6813 C   0  0  0  0  0  0  0  0  0  0  0  0
  -30.8228   -8.8803  143.7564 C   0  0  0  0  0  0  0  0  0  0  0  0
  -31.0609   -8.8722  144.9885 O   0  0  0  0  0  0  0  0  0  0  0  0
  -28.2069   -9.2589  136.9332 N   0  0  0  0  0  0  0  0  0  0  0  0
  1  2  1  0
  7  8  1  0
  8  9  1  0
  3 10  1  0
 10 11  2  0
  6 12  1  0
  9 13  1  0
 12 13  1  0
 13 14  1  0
 14 15  2  0
 14 16  1  0
 16 17  1  0
 20 21  1  0
 21 24  1  0
 24 25  1  0
 25 26  2  3
 10 27  1  0
 21 28  1  0
 28 29  1  0
 23 30  1  0
 29 30  1  0
 30 31  2  0
 26 32  1  0
  2  3  2  0
  3  4  1  0
  4  5  2  0
  5  6  1  0
  6  7  2  0
  7  2  1  0
 17 18  2  0
 18 19  1  0
 19 20  2  0
 20 23  1  0
 23 22  2  0
 22 17  1  0
M  END

$$$$
No_1715-/dssg/home/sw_qyf/PocketFlow/Model-Generation-Results/5HT2A_7WC7_rec_A_10.pdb/2024-01-01-03-54-21/
     RDKit          3D

 16 17  0  0  0  0  0  0  0  0999 V2000
  -23.1746  -16.6014  144.8668 C   0  0  0  0  0  0  0  0  0  0  0  0
  -23.7011  -17.0158  145.9774 C   0  0  0  0  0  0  0  0  0  0  0  0
  -24.7095  -16.6222  146.3578 C   0  0  0  0  0  0  0  0  0  0  0  0
  -25.2589  -16.9410  147.8028 C   0  0  0  0  0  0  0  0  0  0  0  0
  -24.3234  -17.5558  148.6398 C   0  0  0  0  0  0  0  0  0  0  0  0
  -23.7919  -15.5148  144.2100 C   0  0  0  0  0  0  0  0  0  0  0  0
  -24.8841  -14.8583  144.7774 C   0  0  0  0  0  0  0  0  0  0  0  0
  -25.3598  -15.3902  145.9611 C   0  0  0  0  0  0  0  0  0  0  0  0
  -24.6208  -17.5912  150.0871 C   0  0  0  0  0  0  0  0  0  0  0  0
  -25.5291  -13.7209  144.1082 C   0  0  0  0  0  0  0  0  0  0  0  0
  -25.7118  -14.0444  142.8414 F   0  0  0  0  0  0  0  0  0  0  0  0
  -26.7998  -13.4870  144.6702 F   0  0  0  0  0  0  0  0  0  0  0  0
  -24.8512  -12.5892  144.2562 F   0  0  0  0  0  0  0  0  0  0  0  0
  -25.8709  -15.7892  148.5342 C   0  0  0  0  0  0  0  0  0  0  0  0
  -23.1384  -18.0981  146.6809 N   0  0  0  0  0  0  0  0  0  0  0  0
  -23.2266  -18.2784  148.0078 C   0  0  0  0  0  0  0  0  0  0  0  0
  5  9  1  0
  7 10  1  0
 10 11  1  0
 10 12  1  0
 10 13  1  0
  4 14  1  0
  1  2  2  0
  3  8  2  0
  8  7  1  0
  7  6  2  0
  6  1  1  0
  2  3  1  0
  3  4  1  0
  4  5  2  0
  5 16  1  0
 16 15  2  0
 15  2  1  0
M  END

$$$$
No_1716-/dssg/home/sw_qyf/PocketFlow/Model-Generation-Results/5HT2A_7WC7_rec_A_10.pdb/2024-01-01-03-54-21/
     RDKit          3D

  6  6  0  0  0  0  0  0  0  0999 V2000
  -23.1746  -16.6014  144.8668 C   0  0  0  0  0  0  0  0  0  0  0  0
  -23.7011  -17.0158  145.9774 C   0  0  0  0  0  0  0  0  0  0  0  0
  -24.7095  -16.6222  146.3578 C   0  0  0  0  0  0  0  0  0  0  0  0
  -25.4819  -15.5594  145.8227 C   0  0  0  0  0  0  0  0  0  0  0  0
  -24.9840  -15.0029  144.6879 C   0  0  0  0  0  0  0  0  0  0  0  0
  -23.7823  -15.5257  144.1978 C   0  0  0  0  0  0  0  0  0  0  0  0
  1  2  2  0
  2  3  1  0
  3  4  2  0
  4  5  1  0
  5  6  2  0
  6  1  1  0
M  END

$$$$
No_1717-/dssg/home/sw_qyf/PocketFlow/Model-Generation-Results/5HT2A_7WC7_rec_A_10.pdb/2024-01-01-03-54-21/
     RDKit          3D

  7  6  0  0  0  0  0  0  0  0999 V2000
  -23.1746  -16.6014  144.8668 C   0  0  0  0  0  0  0  0  0  0  0  0
  -23.7011  -17.0158  145.9774 C   0  0  0  0  0  0  0  0  0  0  0  0
  -24.2593  -16.1244  146.9100 C   0  0  0  0  0  0  0  0  0  0  0  0
  -24.5135  -14.7390  146.5020 C   0  0  0  0  0  0  0  0  0  0  0  0
  -24.0813  -14.3812  145.2164 C   0  0  0  0  0  0  0  0  0  0  0  0
  -23.3915  -15.2667  144.4690 C   0  0  0  0  0  0  0  0  0  0  0  0
  -22.9165  -14.7895  143.3458 F   0  0  0  0  0  0  0  0  0  0  0  0
  1  2  2  0
  2  3  1  0
  3  4  2  3
  4  5  1  0
  5  6  2  3
  6  7  1  0
M  END

$$$$
No_1718-/dssg/home/sw_qyf/PocketFlow/Model-Generation-Results/5HT2A_7WC7_rec_A_10.pdb/2024-01-01-03-54-21/
     RDKit          3D

  9  9  0  0  0  0  0  0  0  0999 V2000
  -23.1746  -16.6014  144.8668 C   0  0  0  0  0  0  0  0  0  0  0  0
  -24.0189  -16.0564  145.8445 C   0  0  0  0  0  0  0  0  0  0  0  0
  -24.4850  -14.7380  145.6359 C   0  0  0  0  0  0  0  0  0  0  0  0
  -24.0208  -14.0081  144.6269 C   0  0  0  0  0  0  0  0  0  0  0  0
  -23.3686  -12.7461  145.1561 C   0  0  0  0  0  0  0  0  0  0  0  0
  -24.3490  -16.8813  146.9924 C   0  0  0  0  0  0  0  0  0  0  0  0
  -25.1516  -16.3067  147.9386 C   0  0  0  0  0  0  0  0  0  0  0  0
  -25.8329  -15.0410  147.7482 C   0  0  0  0  0  0  0  0  0  0  0  0
  -25.3880  -14.2077  146.7364 C   0  0  0  0  0  0  0  0  0  0  0  0
  1  2  1  0
  3  4  1  0
  4  5  1  0
  2  3  2  0
  3  9  1  0
  9  8  2  0
  8  7  1  0
  7  6  2  0
  6  2  1  0
M  END

$$$$
No_1719-/dssg/home/sw_qyf/PocketFlow/Model-Generation-Results/5HT2A_7WC7_rec_A_10.pdb/2024-01-01-03-54-21/
     RDKit          3D

 28 30  0  0  0  0  0  0  0  0999 V2000
  -23.1746  -16.6014  144.8668 C   0  0  0  0  0  0  0  0  0  0  0  0
  -23.7011  -17.0158  145.9774 C   0  0  0  0  0  0  0  0  0  0  0  0
  -23.7336  -18.2775  146.3737 C   0  0  0  0  0  0  0  0  0  0  0  0
  -23.2770  -15.1496  144.5841 C   0  0  0  0  0  0  0  0  0  0  0  0
  -24.0862  -14.2431  145.3742 C   0  0  0  0  0  0  0  0  0  0  0  0
  -25.1685  -14.0363  145.1755 C   0  0  0  0  0  0  0  0  0  0  0  0
  -26.1796  -14.6295  144.6314 C   0  0  0  0  0  0  0  0  0  0  0  0
  -24.2638  -18.5980  147.7077 C   0  0  0  0  0  0  0  0  0  0  0  0
  -27.4825  -14.0059  144.3727 C   0  0  0  0  0  0  0  0  0  0  0  0
  -27.6151  -12.6780  144.8791 C   0  0  0  0  0  0  0  0  0  0  0  0
  -28.8932  -12.0273  144.6984 C   0  0  0  0  0  0  0  0  0  0  0  0
  -25.6469  -12.4806  145.5653 C   0  0  0  0  0  0  0  0  0  0  0  0
  -26.7333  -11.9571  145.4674 N   0  0  0  0  0  0  0  0  0  0  0  0
  -28.9968  -10.8862  145.7475 C   0  0  0  0  0  0  0  0  0  0  0  0
  -24.6995  -17.4907  148.5258 C   0  0  0  0  0  0  0  0  0  0  0  0
  -24.7318  -16.1632  148.0434 C   0  0  0  0  0  0  0  0  0  0  0  0
  -24.1674  -15.8652  146.8587 C   0  0  0  0  0  0  0  0  0  0  0  0
  -29.3670  -11.0003  146.7870 C   0  0  0  0  0  0  0  0  0  0  0  0
  -24.1452  -14.6582  146.4659 N   0  0  0  0  0  0  0  0  0  0  0  0
  -29.6135  -12.2701  147.4825 C   0  0  0  0  0  0  0  0  0  0  0  0
  -30.5805  -12.3450  148.4955 N   0  0  0  0  0  0  0  0  0  0  0  0
  -31.3066  -13.4808  148.6533 C   0  0  0  0  0  0  0  0  0  0  0  0
  -32.0039  -13.4829  149.9086 C   0  0  0  0  0  0  0  0  0  0  0  0
  -32.6657  -12.3616  150.3231 C   0  0  0  0  0  0  0  0  0  0  0  0
  -32.7959  -12.0002  151.6826 C   0  0  0  0  0  0  0  0  0  0  0  0
  -33.1364  -10.6867  152.1222 C   0  0  0  0  0  0  0  0  0  0  0  0
  -33.3685   -9.8108  150.9933 C   0  0  0  0  0  0  0  0  0  0  0  0
  -33.3652  -10.1653  149.6823 C   0  0  0  0  0  0  0  0  0  0  0  0
  1  2  1  0
  1  4  1  0
  4  5  1  0
 10 11  1  0
 11 14  1  0
 14 18  2  3
  5 19  1  0
 17 19  1  0
 18 20  1  0
 20 21  1  0
 21 22  1  0
 22 23  1  0
 23 24  2  3
 24 25  1  0
 25 26  2  3
 26 27  1  0
 27 28  2  0
  5  6  1  0
  2  3  2  0
  3  8  1  0
  8 15  2  0
 15 16  1  0
 16 17  2  0
 17  2  1  0
  6  7  2  0
  7  9  1  0
  9 10  2  0
 10 13  1  0
 13 12  2  0
 12  6  1  0
M  END

$$$$
No_1720-/dssg/home/sw_qyf/PocketFlow/Model-Generation-Results/5HT2A_7WC7_rec_A_10.pdb/2024-01-01-03-54-21/
     RDKit          3D

 27 29  0  0  0  0  0  0  0  0999 V2000
  -24.1553  -17.8465  145.7021 C   0  0  0  0  0  0  0  0  0  0  0  0
  -23.9795  -18.4462  146.7426 C   0  0  0  0  0  0  0  0  0  0  0  0
  -25.1196  -16.8106  145.6409 C   0  0  0  0  0  0  0  0  0  0  0  0
  -25.2440  -15.8776  144.5240 C   0  0  0  0  0  0  0  0  0  0  0  0
  -25.1544  -14.5048  144.8371 C   0  0  0  0  0  0  0  0  0  0  0  0
  -26.0606  -13.9589  145.6947 C   0  0  0  0  0  0  0  0  0  0  0  0
  -26.4814  -14.7823  146.7434 C   0  0  0  0  0  0  0  0  0  0  0  0
  -25.9725  -16.1859  146.7578 C   0  0  0  0  0  0  0  0  0  0  0  0
  -26.4454  -12.5513  145.7085 C   0  0  0  0  0  0  0  0  0  0  0  0
  -26.8782  -11.9223  144.6198 C   0  0  0  0  0  0  0  0  0  0  0  0
  -27.4739  -10.6576  144.6331 C   0  0  0  0  0  0  0  0  0  0  0  0
  -27.8276  -10.0342  143.5717 C   0  0  0  0  0  0  0  0  0  0  0  0
  -27.9920  -10.7705  142.3283 C   0  0  0  0  0  0  0  0  0  0  0  0
  -28.5353  -10.2041  141.1535 C   0  0  0  0  0  0  0  0  0  0  0  0
  -28.0749  -10.5954  139.9170 C   0  0  0  0  0  0  0  0  0  0  0  0
  -27.6536   -9.6718  138.9452 C   0  0  0  0  0  0  0  0  0  0  0  0
  -28.3546   -8.3601  139.0612 C   0  0  0  0  0  0  0  0  0  0  0  0
  -29.0242   -7.9747  140.3002 C   0  0  0  0  0  0  0  0  0  0  0  0
  -29.0323   -8.8800  141.3387 C   0  0  0  0  0  0  0  0  0  0  0  0
  -29.5474   -6.7955  140.4347 O   0  0  0  0  0  0  0  0  0  0  0  0
  -29.5559   -8.4117  142.6462 C   0  0  0  0  0  0  0  0  0  0  0  0
  -29.9536   -9.0867  141.9762 Br  0  0  0  0  0  0  0  0  0  0  0  0
  -29.7618   -7.5718  139.6871 C   0  0  0  0  0  0  0  0  0  0  0  0
  -28.7594   -9.1252  143.9188 C   0  0  0  0  0  0  0  0  0  0  0  0
  -30.2744   -7.8973  138.3236 C   0  0  0  0  0  0  0  0  0  0  0  0
  -31.0600   -7.2699  140.1844 F   0  0  0  0  0  0  0  0  0  0  0  0
  -28.5800   -7.5561  137.9214 C   0  0  0  0  0  0  0  0  0  0  0  0
  1  2  2  0
  1  3  1  0
  3  4  1  0
  4  5  1  0
  5  6  1  0
  6  7  1  0
  3  8  1  0
  7  8  1  0
  6  9  1  0
  9 10  1  0
 10 11  1  0
 11 12  2  3
 12 13  1  0
 13 14  1  0
 14 15  1  0
 15 16  2  3
 16 17  1  0
 17 18  2  0
 14 19  1  0
 18 20  1  0
 19 21  1  0
 19 22  1  0
 18 23  1  0
 12 24  1  0
 21 24  1  0
 23 25  1  0
 23 26  1  0
 17 27  1  0
 25 27  1  0
M  END

$$$$
No_1721-/dssg/home/sw_qyf/PocketFlow/Model-Generation-Results/5HT2A_7WC7_rec_A_10.pdb/2024-01-01-03-54-21/
     RDKit          3D

 16 16  0  0  0  0  0  0  0  0999 V2000
  -24.1553  -17.8465  145.7021 C   0  0  0  0  0  0  0  0  0  0  0  0
  -23.9795  -18.4462  146.7426 C   0  0  0  0  0  0  0  0  0  0  0  0
  -25.1593  -16.8262  145.6925 C   0  0  0  0  0  0  0  0  0  0  0  0
  -25.1480  -15.9148  146.4998 C   0  0  0  0  0  0  0  0  0  0  0  0
  -25.0151  -14.7285  146.4300 C   0  0  0  0  0  0  0  0  0  0  0  0
  -24.8604  -13.9398  145.5118 C   0  0  0  0  0  0  0  0  0  0  0  0
  -24.3452  -12.5320  145.6068 C   0  0  0  0  0  0  0  0  0  0  0  0
  -24.0889  -17.7776  148.0226 C   0  0  0  0  0  0  0  0  0  0  0  0
  -24.6549  -16.4824  148.0220 C   0  0  0  0  0  0  0  0  0  0  0  0
  -23.9340  -11.7945  144.4704 C   0  0  0  0  0  0  0  0  0  0  0  0
  -24.9190  -14.4023  144.1791 C   0  0  0  0  0  0  0  0  0  0  0  0
  -25.7980  -15.3064  144.1801 F   0  0  0  0  0  0  0  0  0  0  0  0
  -25.7175  -16.5460  144.6503 F   0  0  0  0  0  0  0  0  0  0  0  0
  -24.5342  -11.9469  146.9499 C   0  0  0  0  0  0  0  0  0  0  0  0
  -23.8096  -14.8992  143.6868 F   0  0  0  0  0  0  0  0  0  0  0  0
  -25.4060  -13.5699  143.2089 F   0  0  0  0  0  0  0  0  0  0  0  0
  4  5  1  0
  5  6  2  3
  6  7  1  0
  7 10  1  0
  6 11  1  0
 11 12  1  0
  3 13  1  0
  7 14  1  0
 11 15  1  0
 11 16  1  0
  1  2  2  0
  2  8  1  0
  8  9  2  0
  9  4  1  0
  4  3  2  0
  3  1  1  0
M  END

$$$$
No_1722-/dssg/home/sw_qyf/PocketFlow/Model-Generation-Results/5HT2A_7WC7_rec_A_10.pdb/2024-01-01-03-54-21/
     RDKit          3D

 35 36  0  0  0  0  0  0  0  0999 V2000
  -23.1746  -16.6014  144.8668 C   0  0  0  0  0  0  0  0  0  0  0  0
  -23.7011  -17.0158  145.9774 C   0  0  0  0  0  0  0  0  0  0  0  0
  -24.2134  -16.0722  146.8877 C   0  0  0  0  0  0  0  0  0  0  0  0
  -24.7882  -16.3410  148.2078 C   0  0  0  0  0  0  0  0  0  0  0  0
  -23.5800  -15.2232  144.4665 C   0  0  0  0  0  0  0  0  0  0  0  0
  -24.2035  -14.2633  145.2990 C   0  0  0  0  0  0  0  0  0  0  0  0
  -24.5441  -14.6899  146.5406 C   0  0  0  0  0  0  0  0  0  0  0  0
  -23.5296  -18.4166  146.4575 C   0  0  0  0  0  0  0  0  0  0  0  0
  -24.3584  -12.8867  144.8608 C   0  0  0  0  0  0  0  0  0  0  0  0
  -24.5102  -11.9728  146.0042 C   0  0  0  0  0  0  0  0  0  0  0  0
  -25.6110  -11.0423  145.7107 C   0  0  0  0  0  0  0  0  0  0  0  0
  -26.1476  -10.8931  144.4658 C   0  0  0  0  0  0  0  0  0  0  0  0
  -27.2811   -9.9709  144.4219 C   0  0  0  0  0  0  0  0  0  0  0  0
  -27.9775   -9.7762  143.2211 C   0  0  0  0  0  0  0  0  0  0  0  0
  -29.3449  -10.1844  143.4217 C   0  0  0  0  0  0  0  0  0  0  0  0
  -30.2441   -9.7641  142.3512 C   0  0  0  0  0  0  0  0  0  0  0  0
  -30.2760   -8.3222  142.1743 C   0  0  0  0  0  0  0  0  0  0  0  0
  -30.8407   -7.5568  143.1458 C   0  0  0  0  0  0  0  0  0  0  0  0
  -29.8817   -7.8012  140.8936 C   0  0  0  0  0  0  0  0  0  0  0  0
  -28.9038   -6.8323  140.8535 C   0  0  0  0  0  0  0  0  0  0  0  0
  -22.5383  -18.9345  146.7478 O   0  0  0  0  0  0  0  0  0  0  0  0
  -24.7254  -19.1397  146.5219 N   0  0  0  0  0  0  0  0  0  0  0  0
  -26.3766  -16.7355  148.6036 Br  0  0  0  0  0  0  0  0  0  0  0  0
  -28.7450   -6.2125  139.5236 C   0  0  0  0  0  0  0  0  0  0  0  0
  -29.4293  -11.6351  143.9359 C   0  0  0  0  0  0  0  0  0  0  0  0
  -28.5254   -7.0964  138.6229 N   0  0  0  0  0  0  0  0  0  0  0  0
  -29.1229   -8.3411  138.5515 C   0  0  0  0  0  0  0  0  0  0  0  0
  -29.6524   -8.6809  139.8628 N   0  0  0  0  0  0  0  0  0  0  0  0
  -29.1106   -9.0170  137.6004 F   0  0  0  0  0  0  0  0  0  0  0  0
  -29.5910  -11.5316  145.4440 C   0  0  0  0  0  0  0  0  0  0  0  0
  -29.2897  -12.4758  146.2131 C   0  0  0  0  0  0  0  0  0  0  0  0
  -29.6035  -12.5597  147.6649 C   0  0  0  0  0  0  0  0  0  0  0  0
  -30.9612  -12.3361  148.0748 C   0  0  0  0  0  0  0  0  0  0  0  0
  -31.3651  -12.9377  149.3654 C   0  0  0  0  0  0  0  0  0  0  0  0
  -32.2319  -12.3001  150.2172 C   0  0  0  0  0  0  0  0  0  0  0  0
  3  4  1  0
  2  8  1  0
  6  9  1  0
  9 10  1  0
 10 11  1  0
 11 12  1  0
 12 13  1  0
 13 14  1  0
 14 15  1  0
 15 16  1  0
 16 17  1  0
 17 18  1  0
 17 19  1  0
  8 21  2  0
  8 22  1  0
  4 23  1  0
 15 25  1  0
 27 29  1  0
 25 30  1  0
 30 31  2  3
 31 32  1  0
 32 33  1  0
 33 34  1  0
 34 35  2  0
 19 20  2  0
 20 24  1  0
 24 26  2  0
 26 27  1  0
 27 28  2  0
 28 19  1  0
  1  2  2  0
  2  3  1  0
  3  7  2  0
  7  6  1  0
  6  5  2  0
  5  1  1  0
M  END

$$$$
No_1723-/dssg/home/sw_qyf/PocketFlow/Model-Generation-Results/5HT2A_7WC7_rec_A_10.pdb/2024-01-01-03-54-21/
     RDKit          3D

 13 13  0  0  0  0  0  0  0  0999 V2000
  -23.8042  -18.1535  145.4053 O   0  0  0  0  0  0  0  0  0  0  0  0
  -24.3135  -17.1214  145.8338 C   0  0  0  0  0  0  0  0  0  0  0  0
  -24.4856  -15.9950  145.0258 C   0  0  0  0  0  0  0  0  0  0  0  0
  -23.4378  -15.5571  144.3793 C   0  0  0  0  0  0  0  0  0  0  0  0
  -23.4620  -14.1564  143.8200 C   0  0  0  0  0  0  0  0  0  0  0  0
  -24.6531  -13.4779  144.3021 C   0  0  0  0  0  0  0  0  0  0  0  0
  -25.3335  -13.9050  145.1349 C   0  0  0  0  0  0  0  0  0  0  0  0
  -25.4021  -15.2608  145.6434 C   0  0  0  0  0  0  0  0  0  0  0  0
  -24.9899  -17.3633  147.1292 C   0  0  0  0  0  0  0  0  0  0  0  0
  -24.4448  -17.1413  148.1069 C   0  0  0  0  0  0  0  0  0  0  0  0
  -25.0413  -17.3454  149.5146 C   0  0  0  0  0  0  0  0  0  0  0  0
  -26.4287  -17.3243  149.5496 C   0  0  0  0  0  0  0  0  0  0  0  0
  -27.0896  -17.1889  148.3360 C   0  0  0  0  0  0  0  0  0  0  0  0
  1  2  1  0
  2  3  1  0
  2  9  1  0
  9 10  2  3
 10 11  1  0
 11 12  2  3
 12 13  1  0
  3  4  2  0
  4  5  1  0
  5  6  2  0
  6  7  1  0
  7  8  2  0
  8  3  1  0
M  END

$$$$
No_1724-/dssg/home/sw_qyf/PocketFlow/Model-Generation-Results/5HT2A_7WC7_rec_A_10.pdb/2024-01-01-03-54-21/
     RDKit          3D

 35 37  0  0  0  0  0  0  0  0999 V2000
  -24.1553  -17.8465  145.7021 C   0  0  0  0  0  0  0  0  0  0  0  0
  -24.2855  -16.6364  145.3494 C   0  0  0  0  0  0  0  0  0  0  0  0
  -24.7211  -15.5955  146.2116 C   0  0  0  0  0  0  0  0  0  0  0  0
  -24.8538  -14.2010  145.8739 C   0  0  0  0  0  0  0  0  0  0  0  0
  -24.1440  -13.8321  144.7074 C   0  0  0  0  0  0  0  0  0  0  0  0
  -24.0661  -12.5356  144.4304 N   0  0  0  0  0  0  0  0  0  0  0  0
  -24.6157  -18.2704  146.9610 C   0  0  0  0  0  0  0  0  0  0  0  0
  -25.1305  -17.4023  147.9249 C   0  0  0  0  0  0  0  0  0  0  0  0
  -25.2112  -15.9965  147.5628 C   0  0  0  0  0  0  0  0  0  0  0  0
  -26.2247  -13.5646  145.9577 C   0  0  0  0  0  0  0  0  0  0  0  0
  -26.2074  -12.1421  146.0162 C   0  0  0  0  0  0  0  0  0  0  0  0
  -25.2963  -11.6703  144.7676 C   0  0  0  0  0  0  0  0  0  0  0  0
  -27.4549  -11.4943  145.9146 O   0  0  0  0  0  0  0  0  0  0  0  0
  -28.5088  -12.0384  146.2857 C   0  0  0  0  0  0  0  0  0  0  0  0
  -28.5192  -12.9742  147.3052 C   0  0  0  0  0  0  0  0  0  0  0  0
  -29.7363  -11.4708  145.8715 C   0  0  0  0  0  0  0  0  0  0  0  0
  -30.8078  -11.5976  146.6064 O   0  0  0  0  0  0  0  0  0  0  0  0
  -29.7789  -10.6523  144.8861 O   0  0  0  0  0  0  0  0  0  0  0  0
  -23.4257  -14.4849  144.0112 O   0  0  0  0  0  0  0  0  0  0  0  0
  -29.3699  -14.0774  147.1318 C   0  0  0  0  0  0  0  0  0  0  0  0
  -29.1041  -15.3704  147.7014 C   0  0  0  0  0  0  0  0  0  0  0  0
  -29.4189  -15.5565  149.0324 C   0  0  0  0  0  0  0  0  0  0  0  0
  -30.2519  -14.7677  149.7454 C   0  0  0  0  0  0  0  0  0  0  0  0
  -30.9782  -15.2764  150.8874 C   0  0  0  0  0  0  0  0  0  0  0  0
  -30.5395  -16.5029  151.3691 C   0  0  0  0  0  0  0  0  0  0  0  0
  -29.5899  -17.2820  150.7597 C   0  0  0  0  0  0  0  0  0  0  0  0
  -29.1315  -16.8867  149.5328 C   0  0  0  0  0  0  0  0  0  0  0  0
  -29.0257  -10.8024  143.7864 C   0  0  0  0  0  0  0  0  0  0  0  0
  -29.5901  -10.0998  142.6308 C   0  0  0  0  0  0  0  0  0  0  0  0
  -28.8994  -10.2750  141.4231 C   0  0  0  0  0  0  0  0  0  0  0  0
  -28.0672  -11.4255  141.2663 C   0  0  0  0  0  0  0  0  0  0  0  0
  -27.4719  -11.6843  140.0477 C   0  0  0  0  0  0  0  0  0  0  0  0
  -26.7048  -12.8905  139.8218 C   0  0  0  0  0  0  0  0  0  0  0  0
  -26.5234  -13.7232  140.9621 C   0  0  0  0  0  0  0  0  0  0  0  0
  -27.0480  -13.3554  142.2663 C   0  0  0  0  0  0  0  0  0  0  0  0
  3  4  1  0
  4  5  1  0
  5  6  1  0
  4 10  1  0
 10 11  1  0
  6 12  1  0
 11 12  1  0
 11 13  1  0
 13 14  1  0
 14 15  2  3
 14 16  1  0
 16 17  2  0
 16 18  1  0
  5 19  2  0
 15 20  1  0
 20 21  2  3
 21 22  1  0
 18 28  1  0
 28 29  1  0
 29 30  1  0
 30 31  2  3
 31 32  1  0
 32 33  2  3
 33 34  1  0
 34 35  2  0
 22 23  2  0
 23 24  1  0
 24 25  2  0
 25 26  1  0
 26 27  2  0
 27 22  1  0
  1  2  2  0
  2  3  1  0
  3  9  2  0
  9  8  1  0
  8  7  2  0
  7  1  1  0
M  END

$$$$
No_1725-/dssg/home/sw_qyf/PocketFlow/Model-Generation-Results/5HT2A_7WC7_rec_A_10.pdb/2024-01-01-03-54-21/
     RDKit          3D

 35 38  0  0  0  0  0  0  0  0999 V2000
  -24.1553  -17.8465  145.7021 C   0  0  0  0  0  0  0  0  0  0  0  0
  -24.6364  -17.2931  146.7091 C   0  0  0  0  0  0  0  0  0  0  0  0
  -25.8608  -16.5592  146.5934 C   0  0  0  0  0  0  0  0  0  0  0  0
  -26.9933  -16.9082  147.1889 C   0  0  0  0  0  0  0  0  0  0  0  0
  -28.0267  -15.9443  147.2666 C   0  0  0  0  0  0  0  0  0  0  0  0
  -28.0238  -14.7118  146.6112 C   0  0  0  0  0  0  0  0  0  0  0  0
  -26.8081  -14.3378  146.0044 C   0  0  0  0  0  0  0  0  0  0  0  0
  -25.6656  -15.2658  146.0523 C   0  0  0  0  0  0  0  0  0  0  0  0
  -26.6190  -13.0156  145.4159 C   0  0  0  0  0  0  0  0  0  0  0  0
  -27.5270  -12.2244  144.9542 C   0  0  0  0  0  0  0  0  0  0  0  0
  -27.6511  -11.2280  144.3748 C   0  0  0  0  0  0  0  0  0  0  0  0
  -28.8407  -10.5236  143.8687 C   0  0  0  0  0  0  0  0  0  0  0  0
  -28.9856   -9.7625  142.8060 C   0  0  0  0  0  0  0  0  0  0  0  0
  -29.8445   -8.6807  142.7521 C   0  0  0  0  0  0  0  0  0  0  0  0
  -29.9177   -7.7472  141.6767 C   0  0  0  0  0  0  0  0  0  0  0  0
  -30.4647   -6.4890  141.7351 C   0  0  0  0  0  0  0  0  0  0  0  0
  -29.0551   -8.0800  140.5648 C   0  0  0  0  0  0  0  0  0  0  0  0
  -28.9832   -9.0696  140.2572 C   0  0  0  0  0  0  0  0  0  0  0  0
  -28.5613  -10.0955  141.4375 C   0  0  0  0  0  0  0  0  0  0  0  0
  -24.0096  -17.5007  148.0573 C   0  0  0  0  0  0  0  0  0  0  0  0
  -24.5439  -17.2622  149.2841 C   0  0  0  0  0  0  0  0  0  0  0  0
  -23.8407  -17.3693  150.5182 C   0  0  0  0  0  0  0  0  0  0  0  0
  -29.7021   -9.8679  145.2927 Cl  0  0  0  0  0  0  0  0  0  0  0  0
  -22.3998  -17.1466  150.4216 C   0  0  0  0  0  0  0  0  0  0  0  0
  -21.8805  -17.0252  149.2218 N   0  0  0  0  0  0  0  0  0  0  0  0
  -22.6855  -17.1582  148.1000 C   0  0  0  0  0  0  0  0  0  0  0  0
  -25.3045  -12.3931  145.5375 C   0  0  0  0  0  0  0  0  0  0  0  0
  -24.7804  -11.5818  144.6293 C   0  0  0  0  0  0  0  0  0  0  0  0
  -25.4669  -10.3584  144.2098 C   0  0  0  0  0  0  0  0  0  0  0  0
  -26.6451  -10.2159  143.9910 C   0  0  0  0  0  0  0  0  0  0  0  0
  -28.0847   -9.3290  139.0519 C   0  0  0  0  0  0  0  0  0  0  0  0
  -28.2366   -8.4904  138.0769 N   0  0  0  0  0  0  0  0  0  0  0  0
  -27.2661  -10.2840  138.9460 O   0  0  0  0  0  0  0  0  0  0  0  0
  -23.7941  -18.4641  144.8998 O   0  0  0  0  0  0  0  0  0  0  0  0
  -29.3433  -13.6877  146.7450 Cl  0  0  0  0  0  0  0  0  0  0  0  0
  1  2  1  0
  2  3  1  0
  7  9  1  0
  9 10  2  0
 10 11  1  0
 11 12  2  3
 12 13  1  0
  2 20  1  0
 12 23  1  0
  9 27  1  0
 27 28  2  0
 28 29  1  0
 11 30  1  0
 29 30  2  0
 18 31  1  0
 31 32  1  0
 31 33  2  0
  1 34  2  0
  6 35  1  0
 16 15  1  0
 20 21  2  0
 21 22  1  0
 22 24  2  0
 24 25  1  0
 25 26  2  0
 26 20  1  0
  3  4  2  0
  4  5  1  0
  5  6  2  0
  6  7  1  0
  7  8  2  0
  8  3  1  0
 13 14  2  0
 14 15  1  0
 15 17  2  0
 17 18  1  0
 18 19  2  0
 19 13  1  0
M  END

$$$$
No_1726-/dssg/home/sw_qyf/PocketFlow/Model-Generation-Results/5HT2A_7WC7_rec_A_10.pdb/2024-01-01-03-54-21/
     RDKit          3D

 16 15  0  0  0  0  0  0  0  0999 V2000
  -24.1553  -17.8465  145.7021 C   0  0  0  0  0  0  0  0  0  0  0  0
  -23.9795  -18.4462  146.7426 C   0  0  0  0  0  0  0  0  0  0  0  0
  -25.1593  -16.8262  145.6925 C   0  0  0  0  0  0  0  0  0  0  0  0
  -24.9465  -15.5961  144.9952 C   0  0  0  0  0  0  0  0  0  0  0  0
  -23.7545  -15.2259  144.5478 C   0  0  0  0  0  0  0  0  0  0  0  0
  -23.5397  -13.8065  144.1508 C   0  0  0  0  0  0  0  0  0  0  0  0
  -23.3389  -12.9110  145.4153 C   0  0  0  0  0  0  0  0  0  0  0  0
  -24.4422  -12.8679  146.3295 C   0  0  0  0  0  0  0  0  0  0  0  0
  -24.9754  -11.6714  146.7569 C   0  0  0  0  0  0  0  0  0  0  0  0
  -23.2996  -17.6545  147.9030 C   0  0  0  0  0  0  0  0  0  0  0  0
  -24.1092  -17.4665  149.1218 C   0  0  0  0  0  0  0  0  0  0  0  0
  -25.4319  -17.0615  149.0578 C   0  0  0  0  0  0  0  0  0  0  0  0
  -26.3325  -17.5610  150.0238 C   0  0  0  0  0  0  0  0  0  0  0  0
  -27.6995  -17.4915  149.9674 C   0  0  0  0  0  0  0  0  0  0  0  0
  -28.2459  -16.8278  148.8561 C   0  0  0  0  0  0  0  0  0  0  0  0
  -27.4505  -16.2923  147.8156 C   0  0  0  0  0  0  0  0  0  0  0  0
  1  2  1  0
  1  3  1  0
  3  4  1  0
  4  5  1  0
  5  6  2  3
  6  7  1  0
  7  8  1  0
  8  9  1  0
  2 10  1  0
 10 11  1  0
 11 12  2  3
 12 13  1  0
 13 14  2  3
 14 15  1  0
 15 16  2  0
M  END

$$$$
No_1727-/dssg/home/sw_qyf/PocketFlow/Model-Generation-Results/5HT2A_7WC7_rec_A_10.pdb/2024-01-01-03-54-21/
     RDKit          3D

 14 15  0  0  0  0  0  0  0  0999 V2000
  -24.1553  -17.8465  145.7021 C   0  0  0  0  0  0  0  0  0  0  0  0
  -24.6364  -17.2931  146.7091 C   0  0  0  0  0  0  0  0  0  0  0  0
  -24.5709  -15.9334  146.8074 C   0  0  0  0  0  0  0  0  0  0  0  0
  -25.1646  -15.0760  147.8701 C   0  0  0  0  0  0  0  0  0  0  0  0
  -23.7830  -16.9307  144.7331 N   0  0  0  0  0  0  0  0  0  0  0  0
  -24.1129  -15.4441  145.4793 C   0  0  0  0  0  0  0  0  0  0  0  0
  -23.9683  -14.2508  144.9016 C   0  0  0  0  0  0  0  0  0  0  0  0
  -22.8370  -13.9480  144.0080 C   0  0  0  0  0  0  0  0  0  0  0  0
  -25.0310  -13.3052  145.0534 C   0  0  0  0  0  0  0  0  0  0  0  0
  -24.5895  -12.0473  145.7228 C   0  0  0  0  0  0  0  0  0  0  0  0
  -25.8629  -11.3996  146.2007 C   0  0  0  0  0  0  0  0  0  0  0  0
  -27.0649  -11.5381  145.2887 C   0  0  0  0  0  0  0  0  0  0  0  0
  -27.1721  -12.7830  144.7015 C   0  0  0  0  0  0  0  0  0  0  0  0
  -26.1996  -13.6496  144.5374 C   0  0  0  0  0  0  0  0  0  0  0  0
  1  2  1  0
  2  3  1  0
  3  4  1  0
  1  5  2  0
  3  6  1  0
  5  6  1  0
  6  7  1  0
  7  8  1  0
  7  9  1  0
  9 10  2  0
 10 11  1  0
 11 12  2  0
 12 13  1  0
 13 14  2  0
 14  9  1  0
M  END

$$$$
No_1728-/dssg/home/sw_qyf/PocketFlow/Model-Generation-Results/5HT2A_7WC7_rec_A_10.pdb/2024-01-01-03-54-21/
     RDKit          3D

 24 26  0  0  0  0  0  0  0  0999 V2000
  -23.1746  -16.6014  144.8668 C   0  0  0  0  0  0  0  0  0  0  0  0
  -23.7011  -17.0158  145.9774 C   0  0  0  0  0  0  0  0  0  0  0  0
  -23.7336  -18.2775  146.3737 C   0  0  0  0  0  0  0  0  0  0  0  0
  -23.2769  -15.1496  144.5841 C   0  0  0  0  0  0  0  0  0  0  0  0
  -24.6038  -14.4663  144.6805 C   0  0  0  0  0  0  0  0  0  0  0  0
  -25.2888  -14.8728  145.9559 C   0  0  0  0  0  0  0  0  0  0  0  0
  -25.1233  -16.3334  146.3505 C   0  0  0  0  0  0  0  0  0  0  0  0
  -25.4794  -14.6814  143.4918 C   0  0  0  0  0  0  0  0  0  0  0  0
  -26.0985  -16.9643  147.0577 C   0  0  0  0  0  0  0  0  0  0  0  0
  -27.4193  -16.4725  146.7904 C   0  0  0  0  0  0  0  0  0  0  0  0
  -27.6518  -15.0502  147.0718 C   0  0  0  0  0  0  0  0  0  0  0  0
  -28.9768  -14.4220  147.2328 C   0  0  0  0  0  0  0  0  0  0  0  0
  -29.1910  -13.0886  147.2503 C   0  0  0  0  0  0  0  0  0  0  0  0
  -28.1613  -12.2056  146.7874 C   0  0  0  0  0  0  0  0  0  0  0  0
  -26.8675  -12.8110  146.4862 C   0  0  0  0  0  0  0  0  0  0  0  0
  -26.6906  -14.1463  146.5285 C   0  0  0  0  0  0  0  0  0  0  0  0
  -30.4646  -12.4773  147.7214 C   0  0  0  0  0  0  0  0  0  0  0  0
  -30.7470  -11.2798  147.3276 O   0  0  0  0  0  0  0  0  0  0  0  0
  -31.1071  -13.0063  148.6728 O   0  0  0  0  0  0  0  0  0  0  0  0
  -22.8147  -18.7321  146.8989 O   0  0  0  0  0  0  0  0  0  0  0  0
  -24.7267  -19.1726  146.2661 O   0  0  0  0  0  0  0  0  0  0  0  0
  -25.7603  -11.8513  146.0959 C   0  0  0  0  0  0  0  0  0  0  0  0
  -26.1094  -10.6983  145.6836 O   0  0  0  0  0  0  0  0  0  0  0  0
  -24.5260  -12.1059  146.3695 O   0  0  0  0  0  0  0  0  0  0  0  0
  2  3  1  0
  5  8  1  0
  7  9  1  0
  9 10  1  0
 10 11  1  0
  6 16  1  0
 13 17  1  0
 17 18  2  0
 17 19  1  0
  3 20  2  0
  3 21  1  0
 15 22  1  0
 22 23  2  0
 22 24  1  0
 11 12  2  0
 12 13  1  0
 13 14  2  0
 14 15  1  0
 15 16  2  0
 16 11  1  0
  1  2  2  0
  2  7  1  0
  7  6  2  0
  6  5  1  0
  5  4  2  0
  4  1  1  0
M  END

$$$$
No_1729-/dssg/home/sw_qyf/PocketFlow/Model-Generation-Results/5HT2A_7WC7_rec_A_10.pdb/2024-01-01-03-54-21/
     RDKit          3D

  9  9  0  0  0  0  0  0  0  0999 V2000
  -24.1553  -17.8465  145.7021 C   0  0  0  0  0  0  0  0  0  0  0  0
  -23.9795  -18.4462  146.7426 C   0  0  0  0  0  0  0  0  0  0  0  0
  -24.2723  -16.4220  145.8037 C   0  0  0  0  0  0  0  0  0  0  0  0
  -24.9934  -15.8373  146.8363 C   0  0  0  0  0  0  0  0  0  0  0  0
  -24.4240  -17.9698  148.0343 C   0  0  0  0  0  0  0  0  0  0  0  0
  -24.7712  -16.6380  148.1358 C   0  0  0  0  0  0  0  0  0  0  0  0
  -24.3835  -15.5397  144.5826 C   0  0  0  0  0  0  0  0  0  0  0  0
  -25.3640  -14.5040  144.5451 C   0  0  0  0  0  0  0  0  0  0  0  0
  -26.4201  -14.4511  145.3144 C   0  0  0  0  0  0  0  0  0  0  0  0
  3  7  1  0
  7  8  1  0
  8  9  2  0
  1  2  2  0
  2  5  1  0
  5  6  2  0
  6  4  1  0
  4  3  2  0
  3  1  1  0
M  END

$$$$
No_1730-/dssg/home/sw_qyf/PocketFlow/Model-Generation-Results/5HT2A_7WC7_rec_A_10.pdb/2024-01-01-03-54-21/
     RDKit          3D

 23 24  0  0  0  0  0  0  0  0999 V2000
  -23.1746  -16.6014  144.8668 C   0  0  0  0  0  0  0  0  0  0  0  0
  -23.8963  -15.5346  144.7885 C   0  0  0  0  0  0  0  0  0  0  0  0
  -23.6398  -14.5115  145.3281 C   0  0  0  0  0  0  0  0  0  0  0  0
  -24.3240  -13.3648  145.1280 C   0  0  0  0  0  0  0  0  0  0  0  0
  -25.5072  -13.2953  144.4353 C   0  0  0  0  0  0  0  0  0  0  0  0
  -25.9151  -14.5889  143.8604 C   0  0  0  0  0  0  0  0  0  0  0  0
  -25.1243  -15.6356  144.0574 C   0  0  0  0  0  0  0  0  0  0  0  0
  -23.5861  -17.5125  145.7551 O   0  0  0  0  0  0  0  0  0  0  0  0
  -23.8284  -18.7479  145.7215 C   0  0  0  0  0  0  0  0  0  0  0  0
  -23.9039  -11.9681  145.7313 C   0  0  0  0  0  0  0  0  0  0  0  0
  -24.6479  -19.1310  146.9086 C   0  0  0  0  0  0  0  0  0  0  0  0
  -25.3141  -18.0127  147.2626 O   0  0  0  0  0  0  0  0  0  0  0  0
  -24.5478  -10.8895  145.3541 N   0  0  0  0  0  0  0  0  0  0  0  0
  -25.7358  -10.9600  144.8057 C   0  0  0  0  0  0  0  0  0  0  0  0
  -26.2166  -12.1405  144.2350 C   0  0  0  0  0  0  0  0  0  0  0  0
  -26.3580   -9.7946  144.6968 F   0  0  0  0  0  0  0  0  0  0  0  0
  -27.3486  -12.0841  143.5451 O   0  0  0  0  0  0  0  0  0  0  0  0
  -27.6347  -11.1362  142.6797 C   0  0  0  0  0  0  0  0  0  0  0  0
  -27.8054  -11.6584  141.3709 C   0  0  0  0  0  0  0  0  0  0  0  0
  -27.9591  -10.7220  140.2982 C   0  0  0  0  0  0  0  0  0  0  0  0
  -27.4227  -10.9945  139.0215 C   0  0  0  0  0  0  0  0  0  0  0  0
  -27.1770  -12.4073  138.8641 C   0  0  0  0  0  0  0  0  0  0  0  0
  -26.9501  -13.1617  139.9847 C   0  0  0  0  0  0  0  0  0  0  0  0
  1  2  1  0
  1  8  1  0
  8  9  1  0
  9 11  1  0
 11 12  1  0
 14 16  1  0
 15 17  1  0
 17 18  1  0
 18 19  2  3
 19 20  1  0
 20 21  1  0
 21 22  2  3
 22 23  1  0
  2  3  2  0
  3  4  1  0
  5  6  1  0
  6  7  2  0
  7  2  1  0
  4  5  2  0
  5 15  1  0
 15 14  2  0
 14 13  1  0
 13 10  2  0
 10  4  1  0
M  END

$$$$
No_1731-/dssg/home/sw_qyf/PocketFlow/Model-Generation-Results/5HT2A_7WC7_rec_A_10.pdb/2024-01-01-03-54-21/
     RDKit          3D

 17 18  0  0  0  0  0  0  0  0999 V2000
  -24.1553  -17.8465  145.7021 C   0  0  0  0  0  0  0  0  0  0  0  0
  -24.6364  -17.2931  146.7091 C   0  0  0  0  0  0  0  0  0  0  0  0
  -25.8608  -16.5592  146.5934 C   0  0  0  0  0  0  0  0  0  0  0  0
  -26.9933  -16.9082  147.1889 C   0  0  0  0  0  0  0  0  0  0  0  0
  -28.2114  -16.1477  146.9896 C   0  0  0  0  0  0  0  0  0  0  0  0
  -28.1869  -14.8900  146.3591 C   0  0  0  0  0  0  0  0  0  0  0  0
  -26.9306  -14.4696  145.8021 C   0  0  0  0  0  0  0  0  0  0  0  0
  -25.7608  -15.2964  145.9443 C   0  0  0  0  0  0  0  0  0  0  0  0
  -26.8039  -13.1572  145.1459 C   0  0  0  0  0  0  0  0  0  0  0  0
  -26.4101  -12.1029  145.8761 C   0  0  0  0  0  0  0  0  0  0  0  0
  -26.3488  -10.8663  145.2211 N   0  0  0  0  0  0  0  0  0  0  0  0
  -27.1794  -10.6873  144.1250 C   0  0  0  0  0  0  0  0  0  0  0  0
  -27.6522  -11.8191  143.4888 C   0  0  0  0  0  0  0  0  0  0  0  0
  -27.5001  -13.0479  143.9484 C   0  0  0  0  0  0  0  0  0  0  0  0
  -23.9999  -17.4586  148.0585 C   0  0  0  0  0  0  0  0  0  0  0  0
  -24.6350  -17.7443  149.0014 F   0  0  0  0  0  0  0  0  0  0  0  0
  -23.3722  -16.1938  148.4625 F   0  0  0  0  0  0  0  0  0  0  0  0
  1  2  1  0
  2  3  1  0
  7  9  1  0
  2 15  1  0
 15 16  1  0
 15 17  1  0
  3  4  2  0
  4  5  1  0
  5  6  2  0
  6  7  1  0
  7  8  2  0
  8  3  1  0
  9 10  2  0
 10 11  1  0
 11 12  2  0
 12 13  1  0
 13 14  2  0
 14  9  1  0
M  END

$$$$
No_1732-/dssg/home/sw_qyf/PocketFlow/Model-Generation-Results/5HT2A_7WC7_rec_A_10.pdb/2024-01-01-03-54-21/
     RDKit          3D

 28 29  0  0  0  0  0  0  0  0999 V2000
  -24.1553  -17.8465  145.7021 C   0  0  0  0  0  0  0  0  0  0  0  0
  -24.2856  -16.6364  145.3494 C   0  0  0  0  0  0  0  0  0  0  0  0
  -25.0033  -15.6772  146.0737 C   0  0  0  0  0  0  0  0  0  0  0  0
  -25.6964  -16.1810  147.2049 C   0  0  0  0  0  0  0  0  0  0  0  0
  -24.8143  -18.3454  146.8324 C   0  0  0  0  0  0  0  0  0  0  0  0
  -25.5291  -17.4614  147.6373 C   0  0  0  0  0  0  0  0  0  0  0  0
  -23.6446  -16.0678  144.2141 N   0  0  0  0  0  0  0  0  0  0  0  0
  -25.1743  -14.2616  145.6419 C   0  0  0  0  0  0  0  0  0  0  0  0
  -25.3119  -13.3836  146.2478 C   0  0  0  0  0  0  0  0  0  0  0  0
  -25.4460  -11.9485  145.8596 C   0  0  0  0  0  0  0  0  0  0  0  0
  -26.5704  -11.3388  145.6639 C   0  0  0  0  0  0  0  0  0  0  0  0
  -26.7061  -10.2750  144.7019 C   0  0  0  0  0  0  0  0  0  0  0  0
  -27.6249  -10.3178  143.7758 C   0  0  0  0  0  0  0  0  0  0  0  0
  -28.9948   -9.9085  144.1367 C   0  0  0  0  0  0  0  0  0  0  0  0
  -29.5522  -10.4874  145.2619 C   0  0  0  0  0  0  0  0  0  0  0  0
  -29.0112  -11.3916  146.2805 C   0  0  0  0  0  0  0  0  0  0  0  0
  -27.7438  -11.8207  146.4513 C   0  0  0  0  0  0  0  0  0  0  0  0
  -29.7957   -9.1784  143.2230 C   0  0  0  0  0  0  0  0  0  0  0  0
  -29.7334   -7.8894  143.1855 C   0  0  0  0  0  0  0  0  0  0  0  0
  -30.3704   -7.0608  142.1546 C   0  0  0  0  0  0  0  0  0  0  0  0
  -30.2269   -7.7368  140.9910 C   0  0  0  0  0  0  0  0  0  0  0  0
  -29.1580   -8.2803  140.6275 C   0  0  0  0  0  0  0  0  0  0  0  0
  -28.7470   -8.5109  139.2567 C   0  0  0  0  0  0  0  0  0  0  0  0
  -27.7332   -9.3833  138.8852 C   0  0  0  0  0  0  0  0  0  0  0  0
  -27.2182  -10.2315  139.9724 C   0  0  0  0  0  0  0  0  0  0  0  0
  -27.5481  -11.5548  139.8341 C   0  0  0  0  0  0  0  0  0  0  0  0
  -28.3607  -12.2149  139.3454 C   0  0  0  0  0  0  0  0  0  0  0  0
  -29.9625  -11.9352  147.1018 F   0  0  0  0  0  0  0  0  0  0  0  0
  2  7  1  0
  3  8  1  0
  8  9  2  3
  9 10  1  0
 10 11  1  0
 11 12  2  0
 12 13  1  0
 13 14  1  0
 14 15  2  0
 15 16  1  0
 11 17  1  0
 16 17  1  0
 14 18  1  0
 18 19  1  0
 19 20  2  3
 20 21  1  0
 21 22  2  3
 22 23  1  0
 23 24  2  3
 24 25  1  0
 25 26  1  0
 26 27  2  0
 16 28  1  0
  1  2  2  0
  2  3  1  0
  3  4  2  0
  4  6  1  0
  6  5  2  0
  5  1  1  0
M  END

$$$$
No_1733-/dssg/home/sw_qyf/PocketFlow/Model-Generation-Results/5HT2A_7WC7_rec_A_10.pdb/2024-01-01-03-54-21/
     RDKit          3D

 35 37  0  0  0  0  0  0  0  0999 V2000
  -23.1746  -16.6014  144.8668 C   0  0  0  0  0  0  0  0  0  0  0  0
  -24.0189  -16.0564  145.8445 C   0  0  0  0  0  0  0  0  0  0  0  0
  -24.4145  -16.8299  146.9062 C   0  0  0  0  0  0  0  0  0  0  0  0
  -23.9612  -18.1384  147.0126 C   0  0  0  0  0  0  0  0  0  0  0  0
  -23.1429  -18.6221  146.0418 C   0  0  0  0  0  0  0  0  0  0  0  0
  -22.8746  -15.7983  143.9097 F   0  0  0  0  0  0  0  0  0  0  0  0
  -22.7709  -17.8556  144.9962 C   0  0  0  0  0  0  0  0  0  0  0  0
  -24.5130  -14.6164  145.7899 C   0  0  0  0  0  0  0  0  0  0  0  0
  -23.7501  -13.5732  145.9930 C   0  0  0  0  0  0  0  0  0  0  0  0
  -25.9555  -14.4489  145.7108 C   0  0  0  0  0  0  0  0  0  0  0  0
  -26.5086  -13.1331  145.5887 C   0  0  0  0  0  0  0  0  0  0  0  0
  -27.8934  -12.9023  145.4985 C   0  0  0  0  0  0  0  0  0  0  0  0
  -28.7631  -13.2355  146.5463 C   0  0  0  0  0  0  0  0  0  0  0  0
  -24.2376  -12.2220  145.9062 C   0  0  0  0  0  0  0  0  0  0  0  0
  -25.6461  -12.0260  145.8000 C   0  0  0  0  0  0  0  0  0  0  0  0
  -30.0737  -12.5844  146.6261 C   0  0  0  0  0  0  0  0  0  0  0  0
  -30.6655  -12.5916  147.9344 C   0  0  0  0  0  0  0  0  0  0  0  0
  -31.2326  -11.6421  148.4542 O   0  0  0  0  0  0  0  0  0  0  0  0
  -30.2394  -13.4433  148.8353 O   0  0  0  0  0  0  0  0  0  0  0  0
  -26.0943  -10.7704  145.8205 O   0  0  0  0  0  0  0  0  0  0  0  0
  -26.7467  -15.4486  145.6202 O   0  0  0  0  0  0  0  0  0  0  0  0
  -29.9556  -11.2458  146.1774 N   0  0  0  0  0  0  0  0  0  0  0  0
  -29.6540  -10.7429  145.0204 C   0  0  0  0  0  0  0  0  0  0  0  0
  -29.9085   -9.3599  144.7708 C   0  0  0  0  0  0  0  0  0  0  0  0
  -29.7681   -8.8679  143.3863 C   0  0  0  0  0  0  0  0  0  0  0  0
  -29.1100   -9.5971  142.4905 C   0  0  0  0  0  0  0  0  0  0  0  0
  -29.1114   -9.2986  141.1400 C   0  0  0  0  0  0  0  0  0  0  0  0
  -29.6320   -8.0114  140.7681 C   0  0  0  0  0  0  0  0  0  0  0  0
  -30.2129   -7.2414  141.8211 C   0  0  0  0  0  0  0  0  0  0  0  0
  -30.2664   -7.6208  143.1331 C   0  0  0  0  0  0  0  0  0  0  0  0
  -29.5600   -7.5758  139.5990 F   0  0  0  0  0  0  0  0  0  0  0  0
  -28.4585  -10.1274  140.1561 C   0  0  0  0  0  0  0  0  0  0  0  0
  -27.7255   -9.7403  139.1178 C   0  0  0  0  0  0  0  0  0  0  0  0
  -28.5181  -11.5690  140.3891 C   0  0  0  0  0  0  0  0  0  0  0  0
  -27.3317  -12.3300  140.2568 C   0  0  0  0  0  0  0  0  0  0  0  0
  1  6  1  0
  2  8  1  0
 11 12  1  0
 12 13  2  3
 13 16  1  0
 16 17  1  0
 17 18  2  0
 17 19  1  0
 15 20  1  0
 10 21  1  0
 16 22  1  0
 22 23  1  0
 23 24  1  0
 24 25  1  0
 28 31  1  0
 27 32  1  0
 32 33  1  0
 32 34  1  0
 34 35  1  0
 25 26  2  0
 26 27  1  0
 27 28  2  0
 28 29  1  0
 29 30  2  0
 30 25  1  0
  1  2  2  0
  2  3  1  0
  3  4  2  0
  4  5  1  0
  5  7  2  0
  7  1  1  0
  8  9  2  0
  9 14  1  0
 14 15  2  0
 15 11  1  0
 11 10  2  0
 10  8  1  0
M  END

$$$$
No_1734-/dssg/home/sw_qyf/PocketFlow/Model-Generation-Results/5HT2A_7WC7_rec_A_10.pdb/2024-01-01-03-54-21/
     RDKit          3D

 11 12  0  0  0  0  0  0  0  0999 V2000
  -24.1553  -17.8465  145.7021 C   0  0  0  0  0  0  0  0  0  0  0  0
  -24.2856  -16.6364  145.3494 C   0  0  0  0  0  0  0  0  0  0  0  0
  -24.7838  -15.7223  145.8474 C   0  0  0  0  0  0  0  0  0  0  0  0
  -25.6062  -15.9757  147.0425 C   0  0  0  0  0  0  0  0  0  0  0  0
  -24.8560  -18.2319  146.8940 C   0  0  0  0  0  0  0  0  0  0  0  0
  -25.5370  -17.2345  147.6143 C   0  0  0  0  0  0  0  0  0  0  0  0
  -24.9394  -14.2217  145.4239 C   0  0  0  0  0  0  0  0  0  0  0  0
  -24.6885  -13.6360  144.6070 C   0  0  0  0  0  0  0  0  0  0  0  0
  -24.7235  -12.2393  144.5206 N   0  0  0  0  0  0  0  0  0  0  0  0
  -25.3261  -11.8446  145.7192 C   0  0  0  0  0  0  0  0  0  0  0  0
  -25.4733  -13.0717  146.4156 C   0  0  0  0  0  0  0  0  0  0  0  0
  3  7  1  0
  7  8  2  0
  8  9  1  0
  9 10  2  0
  7 11  1  0
 10 11  1  0
  1  2  2  0
  2  3  1  0
  3  4  2  0
  4  6  1  0
  6  5  2  0
  5  1  1  0
M  END

$$$$
No_1735-/dssg/home/sw_qyf/PocketFlow/Model-Generation-Results/5HT2A_7WC7_rec_A_10.pdb/2024-01-01-03-54-21/
     RDKit          3D

 35 37  0  0  0  0  0  0  0  0999 V2000
  -23.1746  -16.6014  144.8668 C   0  0  0  0  0  0  0  0  0  0  0  0
  -23.8963  -15.5346  144.7885 C   0  0  0  0  0  0  0  0  0  0  0  0
  -25.0304  -15.2549  144.5358 C   0  0  0  0  0  0  0  0  0  0  0  0
  -25.6045  -13.9524  144.2294 C   0  0  0  0  0  0  0  0  0  0  0  0
  -26.9716  -13.7632  143.8495 C   0  0  0  0  0  0  0  0  0  0  0  0
  -27.2940  -12.4851  143.3751 C   0  0  0  0  0  0  0  0  0  0  0  0
  -27.9155  -12.3161  142.1844 C   0  0  0  0  0  0  0  0  0  0  0  0
  -27.4171  -11.3548  141.2761 C   0  0  0  0  0  0  0  0  0  0  0  0
  -27.4322  -11.5613  139.8949 C   0  0  0  0  0  0  0  0  0  0  0  0
  -27.5090  -10.5118  138.9657 C   0  0  0  0  0  0  0  0  0  0  0  0
  -28.7071   -9.6526  139.1341 C   0  0  0  0  0  0  0  0  0  0  0  0
  -28.6868   -8.8323  140.4057 C   0  0  0  0  0  0  0  0  0  0  0  0
  -29.0105   -9.5850  141.6486 C   0  0  0  0  0  0  0  0  0  0  0  0
  -29.6225   -8.8728  142.7224 C   0  0  0  0  0  0  0  0  0  0  0  0
  -30.1532   -7.6127  142.4471 C   0  0  0  0  0  0  0  0  0  0  0  0
  -29.8382   -6.9376  141.2933 C   0  0  0  0  0  0  0  0  0  0  0  0
  -29.6904   -7.6291  140.2570 C   0  0  0  0  0  0  0  0  0  0  0  0
  -29.8214   -9.5745  143.9937 C   0  0  0  0  0  0  0  0  0  0  0  0
  -30.8767   -9.6020  144.6060 O   0  0  0  0  0  0  0  0  0  0  0  0
  -28.7889  -10.4235  144.4667 O   0  0  0  0  0  0  0  0  0  0  0  0
  -24.0663  -17.7418  145.1443 C   0  0  0  0  0  0  0  0  0  0  0  0
  -25.2535  -17.5525  145.8309 C   0  0  0  0  0  0  0  0  0  0  0  0
  -25.9043  -16.2680  145.3194 C   0  0  0  0  0  0  0  0  0  0  0  0
  -28.3678  -12.6338  139.5983 O   0  0  0  0  0  0  0  0  0  0  0  0
  -27.3339  -16.0575  145.6327 C   0  0  0  0  0  0  0  0  0  0  0  0
  -27.9308  -16.7320  146.6982 C   0  0  0  0  0  0  0  0  0  0  0  0
  -27.8171  -15.9180  148.0335 C   0  0  0  0  0  0  0  0  0  0  0  0
  -23.5067  -19.0078  145.2728 O   0  0  0  0  0  0  0  0  0  0  0  0
  -28.3832  -10.5199  145.6453 C   0  0  0  0  0  0  0  0  0  0  0  0
  -27.0744  -10.9952  145.8613 C   0  0  0  0  0  0  0  0  0  0  0  0
  -26.4779  -10.9839  147.0601 C   0  0  0  0  0  0  0  0  0  0  0  0
  -26.2682  -10.8700  144.6828 C   0  0  0  0  0  0  0  0  0  0  0  0
  -26.7654  -11.5575  144.1839 C   0  0  0  0  0  0  0  0  0  0  0  0
  -25.7710  -11.1840  143.3842 O   0  0  0  0  0  0  0  0  0  0  0  0
  -24.6072  -11.3010  143.4349 C   0  0  0  0  0  0  0  0  0  0  0  0
  3  4  1  0
  4  5  1  0
  5  6  1  0
  6  7  1  0
  7  8  1  0
  8  9  1  0
  9 10  1  0
 10 11  1  0
 11 12  1  0
 14 18  1  0
 18 19  2  0
 18 20  1  0
  9 24  1  0
 23 25  1  0
 25 26  1  0
 26 27  1  0
 21 28  1  0
 20 29  1  0
 29 30  2  3
 30 31  1  0
 30 32  1  0
  6 33  1  0
 32 33  1  0
 33 34  1  0
 34 35  1  0
 12 13  1  0
 13 14  2  0
 14 15  1  0
 15 16  2  0
 16 17  1  0
 17 12  2  0
  1  2  2  0
  2  3  1  0
  3 23  2  0
 23 22  1  0
 22 21  2  0
 21  1  1  0
M  END

$$$$
No_1736-/dssg/home/sw_qyf/PocketFlow/Model-Generation-Results/5HT2A_7WC7_rec_A_10.pdb/2024-01-01-03-54-21/
     RDKit          3D

 15 16  0  0  0  0  0  0  0  0999 V2000
  -23.1746  -16.6014  144.8668 C   0  0  0  0  0  0  0  0  0  0  0  0
  -23.8963  -15.5346  144.7885 C   0  0  0  0  0  0  0  0  0  0  0  0
  -23.6398  -14.5115  145.3281 C   0  0  0  0  0  0  0  0  0  0  0  0
  -24.3866  -13.2477  145.3906 C   0  0  0  0  0  0  0  0  0  0  0  0
  -23.7391  -12.0982  145.9891 C   0  0  0  0  0  0  0  0  0  0  0  0
  -25.7153  -13.1102  144.9365 C   0  0  0  0  0  0  0  0  0  0  0  0
  -26.3103  -13.6742  144.1428 C   0  0  0  0  0  0  0  0  0  0  0  0
  -27.6804  -13.3806  143.7851 C   0  0  0  0  0  0  0  0  0  0  0  0
  -28.0111  -12.2154  144.5079 C   0  0  0  0  0  0  0  0  0  0  0  0
  -27.4432  -11.5759  145.5104 C   0  0  0  0  0  0  0  0  0  0  0  0
  -26.0866  -12.0128  145.7553 C   0  0  0  0  0  0  0  0  0  0  0  0
  -23.5886  -17.8101  145.6053 C   0  0  0  0  0  0  0  0  0  0  0  0
  -23.8348  -17.4402  147.3162 Br  0  0  0  0  0  0  0  0  0  0  0  0
  -24.9799  -11.3929  146.2684 N   0  0  0  0  0  0  0  0  0  0  0  0
  -23.7896  -19.0113  145.1488 O   0  0  0  0  0  0  0  0  0  0  0  0
  1  2  1  0
  2  3  2  3
  3  4  1  0
  4  5  1  0
  4  6  1  0
  1 12  1  0
 12 13  1  0
  5 14  1  0
 11 14  1  0
 12 15  2  0
  6  7  2  0
  7  8  1  0
  8  9  2  0
  9 10  1  0
 10 11  2  0
 11  6  1  0
M  END

$$$$
No_1737-/dssg/home/sw_qyf/PocketFlow/Model-Generation-Results/5HT2A_7WC7_rec_A_10.pdb/2024-01-01-03-54-21/
     RDKit          3D

 33 38  0  0  0  0  0  0  0  0999 V2000
  -23.1746  -16.6014  144.8668 C   0  0  0  0  0  0  0  0  0  0  0  0
  -23.7011  -17.0158  145.9774 C   0  0  0  0  0  0  0  0  0  0  0  0
  -24.7096  -16.6222  146.3577 C   0  0  0  0  0  0  0  0  0  0  0  0
  -25.4819  -15.5594  145.8226 C   0  0  0  0  0  0  0  0  0  0  0  0
  -26.6929  -14.9922  146.4004 C   0  0  0  0  0  0  0  0  0  0  0  0
  -27.3515  -15.8466  147.3094 C   0  0  0  0  0  0  0  0  0  0  0  0
  -26.7294  -16.9055  147.9209 C   0  0  0  0  0  0  0  0  0  0  0  0
  -25.5297  -17.3683  147.4967 C   0  0  0  0  0  0  0  0  0  0  0  0
  -23.6130  -15.3483  144.2985 C   0  0  0  0  0  0  0  0  0  0  0  0
  -24.8736  -14.8765  144.7746 C   0  0  0  0  0  0  0  0  0  0  0  0
  -27.2915  -13.8490  145.8519 C   0  0  0  0  0  0  0  0  0  0  0  0
  -26.7178  -12.9746  144.9434 C   0  0  0  0  0  0  0  0  0  0  0  0
  -25.4174  -13.5808  144.3068 C   0  0  0  0  0  0  0  0  0  0  0  0
  -27.2676  -11.8661  144.3391 C   0  0  0  0  0  0  0  0  0  0  0  0
  -28.0867  -11.1326  145.2159 C   0  0  0  0  0  0  0  0  0  0  0  0
  -28.9567  -10.0562  144.6284 C   0  0  0  0  0  0  0  0  0  0  0  0
  -28.5870   -9.5765  143.4074 C   0  0  0  0  0  0  0  0  0  0  0  0
  -27.7632  -10.4335  142.5770 C   0  0  0  0  0  0  0  0  0  0  0  0
  -27.1503  -11.5160  143.0553 C   0  0  0  0  0  0  0  0  0  0  0  0
  -29.4106   -8.5783  142.7021 C   0  0  0  0  0  0  0  0  0  0  0  0
  -29.3652   -8.1952  141.5052 C   0  0  0  0  0  0  0  0  0  0  0  0
  -28.9353   -6.9503  141.0876 C   0  0  0  0  0  0  0  0  0  0  0  0
  -29.2128   -5.8363  142.0779 C   0  0  0  0  0  0  0  0  0  0  0  0
  -28.7131   -4.5792  141.9304 C   0  0  0  0  0  0  0  0  0  0  0  0
  -28.7962   -3.9167  140.7777 C   0  0  0  0  0  0  0  0  0  0  0  0
  -30.4001   -7.7984  143.5450 C   0  0  0  0  0  0  0  0  0  0  0  0
  -31.0494   -6.8585  142.9628 C   0  0  0  0  0  0  0  0  0  0  0  0
  -30.2389   -5.8498  142.6248 C   0  0  0  0  0  0  0  0  0  0  0  0
  -23.0104  -18.1127  146.4992 F   0  0  0  0  0  0  0  0  0  0  0  0
  -28.2040   -2.6872  140.8233 N   0  0  0  0  0  0  0  0  0  0  0  0
  -28.6878  -15.4007  147.8366 C   0  0  0  0  0  0  0  0  0  0  0  0
  -29.3487  -14.3626  147.5814 C   0  0  0  0  0  0  0  0  0  0  0  0
  -28.5645  -13.4610  146.4947 C   0  0  0  0  0  0  0  0  0  0  0  0
 12 14  1  0
 17 20  1  0
 20 21  1  0
 21 22  2  0
 22 23  1  0
 23 24  1  0
 24 25  1  0
 20 26  1  0
 26 27  2  0
 23 28  1  0
 27 28  1  0
  2 29  1  0
 25 30  1  0
 11 12  1  0
 12 13  2  0
 13 10  1  0
  4  5  2  0
  6  7  2  0
  7  8  1  0
  8  3  2  0
 14 15  2  0
 15 16  1  0
 16 17  2  0
 17 18  1  0
 18 19  2  0
 19 14  1  0
  5  6  1  0
  6 31  1  0
 31 32  2  0
 32 33  1  0
 33 11  2  0
 11  5  1  0
  1  2  2  0
  2  3  1  0
  3  4  1  0
  4 10  1  0
 10  9  2  0
  9  1  1  0
M  END

$$$$
No_1738-/dssg/home/sw_qyf/PocketFlow/Model-Generation-Results/5HT2A_7WC7_rec_A_10.pdb/2024-01-01-03-54-21/
     RDKit          3D

  8  8  0  0  0  0  0  0  0  0999 V2000
  -23.1746  -16.6014  144.8668 C   0  0  0  0  0  0  0  0  0  0  0  0
  -24.0189  -16.0564  145.8445 C   0  0  0  0  0  0  0  0  0  0  0  0
  -25.3176  -15.9168  145.6822 C   0  0  0  0  0  0  0  0  0  0  0  0
  -26.1693  -16.6799  146.4632 C   0  0  0  0  0  0  0  0  0  0  0  0
  -27.6295  -16.5109  146.3614 C   0  0  0  0  0  0  0  0  0  0  0  0
  -28.0110  -15.3282  145.7069 C   0  0  0  0  0  0  0  0  0  0  0  0
  -27.0921  -14.4405  145.1851 C   0  0  0  0  0  0  0  0  0  0  0  0
  -25.7066  -14.7589  145.1469 C   0  0  0  0  0  0  0  0  0  0  0  0
  1  2  1  0
  2  3  1  0
  3  4  2  0
  4  5  1  0
  5  6  2  0
  6  7  1  0
  7  8  2  0
  8  3  1  0
M  END

$$$$
No_1739-/dssg/home/sw_qyf/PocketFlow/Model-Generation-Results/5HT2A_7WC7_rec_A_10.pdb/2024-01-01-03-54-21/
     RDKit          3D

 27 30  0  0  0  0  0  0  0  0999 V2000
  -23.1746  -16.6014  144.8668 C   0  0  0  0  0  0  0  0  0  0  0  0
  -23.7011  -17.0158  145.9774 C   0  0  0  0  0  0  0  0  0  0  0  0
  -23.7336  -18.2775  146.3737 C   0  0  0  0  0  0  0  0  0  0  0  0
  -23.2769  -15.1496  144.5841 C   0  0  0  0  0  0  0  0  0  0  0  0
  -24.0283  -14.2099  145.3704 C   0  0  0  0  0  0  0  0  0  0  0  0
  -24.6472  -14.7123  146.5451 C   0  0  0  0  0  0  0  0  0  0  0  0
  -24.4752  -16.0939  146.8994 C   0  0  0  0  0  0  0  0  0  0  0  0
  -24.0004  -12.7754  145.0807 C   0  0  0  0  0  0  0  0  0  0  0  0
  -22.7585  -12.1744  145.1070 C   0  0  0  0  0  0  0  0  0  0  0  0
  -25.2251  -12.1260  144.9913 C   0  0  0  0  0  0  0  0  0  0  0  0
  -25.3437  -10.9593  145.7867 C   0  0  0  0  0  0  0  0  0  0  0  0
  -26.5188  -10.2177  145.5012 C   0  0  0  0  0  0  0  0  0  0  0  0
  -27.3556  -10.4442  144.3248 C   0  0  0  0  0  0  0  0  0  0  0  0
  -27.1240  -11.6649  143.6758 C   0  0  0  0  0  0  0  0  0  0  0  0
  -26.0337  -12.4646  143.9882 C   0  0  0  0  0  0  0  0  0  0  0  0
  -28.5205   -9.6349  144.0715 C   0  0  0  0  0  0  0  0  0  0  0  0
  -28.6333   -9.0977  142.8747 C   0  0  0  0  0  0  0  0  0  0  0  0
  -29.8237   -8.2961  142.5574 C   0  0  0  0  0  0  0  0  0  0  0  0
  -29.9593   -7.6048  141.2968 C   0  0  0  0  0  0  0  0  0  0  0  0
  -29.1684   -8.0931  140.2111 C   0  0  0  0  0  0  0  0  0  0  0  0
  -29.1244   -7.4085  138.9746 C   0  0  0  0  0  0  0  0  0  0  0  0
  -28.2860   -8.2016  138.0334 C   0  0  0  0  0  0  0  0  0  0  0  0
  -27.5671   -9.3030  138.4382 C   0  0  0  0  0  0  0  0  0  0  0  0
  -28.2580   -9.2392  140.2263 C   0  0  0  0  0  0  0  0  0  0  0  0
  -22.8343  -18.9545  146.5796 O   0  0  0  0  0  0  0  0  0  0  0  0
  -24.9387  -19.0258  146.1957 O   0  0  0  0  0  0  0  0  0  0  0  0
  -27.9316   -9.8799  141.2669 N   0  0  0  0  0  0  0  0  0  0  0  0
  2  3  1  0
  5  8  1  0
  8  9  1  0
  8 10  1  0
 13 16  1  0
 20 21  1  0
 21 22  2  0
 22 23  1  0
 23 24  1  0
  3 25  2  0
  3 26  1  0
 16 17  1  0
 17 18  2  0
 18 19  1  0
 19 20  2  0
 20 24  1  0
 24 27  2  0
 27 17  1  0
  1  2  2  0
  2  7  1  0
  7  6  2  0
  6  5  1  0
  5  4  2  0
  4  1  1  0
 10 11  2  0
 11 12  1  0
 12 13  2  0
 13 14  1  0
 14 15  2  0
 15 10  1  0
M  END

$$$$
No_1740-/dssg/home/sw_qyf/PocketFlow/Model-Generation-Results/5HT2A_7WC7_rec_A_10.pdb/2024-01-01-03-54-21/
     RDKit          3D

 33 37  0  0  0  0  0  0  0  0999 V2000
  -24.1553  -17.8465  145.7021 C   0  0  0  0  0  0  0  0  0  0  0  0
  -24.2856  -16.6364  145.3494 C   0  0  0  0  0  0  0  0  0  0  0  0
  -25.0033  -15.6772  146.0737 C   0  0  0  0  0  0  0  0  0  0  0  0
  -25.1197  -14.2835  145.7299 C   0  0  0  0  0  0  0  0  0  0  0  0
  -25.8358  -13.3153  146.4318 C   0  0  0  0  0  0  0  0  0  0  0  0
  -24.7887  -18.3277  146.8665 C   0  0  0  0  0  0  0  0  0  0  0  0
  -25.5121  -17.4898  147.6545 C   0  0  0  0  0  0  0  0  0  0  0  0
  -25.6629  -16.1113  147.2981 C   0  0  0  0  0  0  0  0  0  0  0  0
  -25.7422  -11.9664  146.1289 C   0  0  0  0  0  0  0  0  0  0  0  0
  -24.9343  -11.5107  145.0792 C   0  0  0  0  0  0  0  0  0  0  0  0
  -24.2380  -13.7675  144.6412 C   0  0  0  0  0  0  0  0  0  0  0  0
  -23.4496  -14.5397  143.9258 N   0  0  0  0  0  0  0  0  0  0  0  0
  -24.1163  -12.3473  144.4485 C   0  0  0  0  0  0  0  0  0  0  0  0
  -23.5104  -16.0469  144.2557 N   0  0  0  0  0  0  0  0  0  0  0  0
  -23.5300  -18.7692  144.9537 O   0  0  0  0  0  0  0  0  0  0  0  0
  -26.5871  -11.0815  146.8119 O   0  0  0  0  0  0  0  0  0  0  0  0
  -27.8468  -10.9588  146.1490 C   0  0  0  0  0  0  0  0  0  0  0  0
  -27.9387  -10.3488  144.9257 C   0  0  0  0  0  0  0  0  0  0  0  0
  -29.1931  -10.0752  144.3269 C   0  0  0  0  0  0  0  0  0  0  0  0
  -29.3817   -9.6077  143.0284 C   0  0  0  0  0  0  0  0  0  0  0  0
  -30.3719   -8.8114  142.6579 C   0  0  0  0  0  0  0  0  0  0  0  0
  -30.4375   -8.2113  141.3571 C   0  0  0  0  0  0  0  0  0  0  0  0
  -29.4220   -8.4883  140.4866 C   0  0  0  0  0  0  0  0  0  0  0  0
  -29.3112   -7.8871  139.1827 C   0  0  0  0  0  0  0  0  0  0  0  0
  -28.3198   -8.2676  138.2996 C   0  0  0  0  0  0  0  0  0  0  0  0
  -27.4033   -9.2685  138.8118 C   0  0  0  0  0  0  0  0  0  0  0  0
  -27.5400   -9.8417  140.1307 C   0  0  0  0  0  0  0  0  0  0  0  0
  -28.5892   -9.3924  140.9563 C   0  0  0  0  0  0  0  0  0  0  0  0
  -28.4291   -9.9473  142.1049 C   0  0  0  0  0  0  0  0  0  0  0  0
  -31.5252   -8.3742  143.6500 C   0  0  0  0  0  0  0  0  0  0  0  0
  -28.1052   -7.6546  137.2444 O   0  0  0  0  0  0  0  0  0  0  0  0
  -32.3712   -9.0177  143.9546 O   0  0  0  0  0  0  0  0  0  0  0  0
  -31.3017   -7.1052  144.1454 O   0  0  0  0  0  0  0  0  0  0  0  0
  3  4  1  0
 11 12  1  0
  2 14  1  0
 12 14  1  0
  1 15  1  0
  9 16  1  0
 16 17  1  0
 17 18  2  3
 18 19  1  0
 21 30  1  0
 25 31  1  0
 30 32  1  0
 30 33  2  0
 19 20  1  0
 23 24  1  0
 24 25  2  0
 25 26  1  0
 26 27  2  0
 27 28  1  0
  1  2  2  0
  2  3  1  0
  3  8  2  0
  8  7  1  0
  7  6  2  0
  6  1  1  0
  4  5  2  0
  5  9  1  0
  9 10  2  0
 10 13  1  0
 13 11  2  0
 11  4  1  0
 20 21  2  0
 21 22  1  0
 22 23  2  0
 23 28  1  0
 28 29  2  0
 29 20  1  0
M  END

$$$$
No_1741-/dssg/home/sw_qyf/PocketFlow/Model-Generation-Results/5HT2A_7WC7_rec_A_10.pdb/2024-01-01-03-54-21/
     RDKit          3D

 24 24  0  0  0  0  0  0  0  0999 V2000
  -23.1746  -16.6014  144.8668 C   0  0  0  0  0  0  0  0  0  0  0  0
  -23.8963  -15.5346  144.7885 C   0  0  0  0  0  0  0  0  0  0  0  0
  -23.6398  -14.5115  145.3281 C   0  0  0  0  0  0  0  0  0  0  0  0
  -24.6397  -13.8424  146.2286 C   0  0  0  0  0  0  0  0  0  0  0  0
  -25.6315  -14.4099  146.7658 C   0  0  0  0  0  0  0  0  0  0  0  0
  -23.6740  -17.9135  144.5400 C   0  0  0  0  0  0  0  0  0  0  0  0
  -26.5693  -13.8617  147.5473 C   0  0  0  0  0  0  0  0  0  0  0  0
  -26.8956  -12.4666  147.1290 C   0  0  0  0  0  0  0  0  0  0  0  0
  -25.9683  -11.7694  146.3748 C   0  0  0  0  0  0  0  0  0  0  0  0
  -24.8885  -12.4599  145.8029 C   0  0  0  0  0  0  0  0  0  0  0  0
  -24.1316  -11.5880  145.0589 N   0  0  0  0  0  0  0  0  0  0  0  0
  -23.1396  -18.9733  145.2697 C   0  0  0  0  0  0  0  0  0  0  0  0
  -23.6547  -18.8732  146.7077 C   0  0  0  0  0  0  0  0  0  0  0  0
  -24.8618  -18.2511  146.9917 C   0  0  0  0  0  0  0  0  0  0  0  0
  -25.0168  -17.7318  148.1675 O   0  0  0  0  0  0  0  0  0  0  0  0
  -23.8616  -17.3089  148.7871 C   0  0  0  0  0  0  0  0  0  0  0  0
  -23.8853  -17.4052  150.2546 C   0  0  0  0  0  0  0  0  0  0  0  0
  -23.6616  -16.1457  150.8638 C   0  0  0  0  0  0  0  0  0  0  0  0
  -25.0410  -15.5946  144.0833 O   0  0  0  0  0  0  0  0  0  0  0  0
  -22.1561  -15.6289  150.5041 Cl  0  0  0  0  0  0  0  0  0  0  0  0
  -25.8571  -18.3472  146.2276 O   0  0  0  0  0  0  0  0  0  0  0  0
  -26.2415  -10.5009  146.1848 F   0  0  0  0  0  0  0  0  0  0  0  0
  -25.1038  -17.8490  150.7572 O   0  0  0  0  0  0  0  0  0  0  0  0
  -22.9006  -20.1507  144.9435 O   0  0  0  0  0  0  0  0  0  0  0  0
  1  2  1  0
  2  3  1  0
  3  4  1  0
  1  6  2  3
 10 11  1  0
  6 12  1  0
 12 13  1  0
 13 14  1  0
 14 15  1  0
 15 16  1  0
 16 17  1  0
 17 18  1  0
  2 19  2  0
 18 20  1  0
 14 21  2  0
  9 22  1  0
 17 23  1  0
 12 24  2  0
  4  5  2  0
  5  7  1  0
  7  8  2  0
  8  9  1  0
  9 10  2  0
 10  4  1  0
M  END

$$$$
No_1742-/dssg/home/sw_qyf/PocketFlow/Model-Generation-Results/5HT2A_7WC7_rec_A_10.pdb/2024-01-01-03-54-21/
     RDKit          3D

 24 25  0  0  0  0  0  0  0  0999 V2000
  -24.1553  -17.8465  145.7021 C   0  0  0  0  0  0  0  0  0  0  0  0
  -23.9795  -18.4462  146.7426 C   0  0  0  0  0  0  0  0  0  0  0  0
  -24.3577  -16.4380  145.7329 C   0  0  0  0  0  0  0  0  0  0  0  0
  -24.6120  -15.7738  146.9649 C   0  0  0  0  0  0  0  0  0  0  0  0
  -24.4666  -16.5590  148.1483 C   0  0  0  0  0  0  0  0  0  0  0  0
  -24.1608  -17.8621  148.1048 C   0  0  0  0  0  0  0  0  0  0  0  0
  -24.4858  -15.5973  144.5498 C   0  0  0  0  0  0  0  0  0  0  0  0
  -23.7172  -14.3506  144.5557 C   0  0  0  0  0  0  0  0  0  0  0  0
  -24.4569  -13.1896  145.0410 C   0  0  0  0  0  0  0  0  0  0  0  0
  -25.7132  -12.9797  144.9410 C   0  0  0  0  0  0  0  0  0  0  0  0
  -26.5219  -13.4006  144.2138 C   0  0  0  0  0  0  0  0  0  0  0  0
  -27.4326  -12.7400  143.6073 C   0  0  0  0  0  0  0  0  0  0  0  0
  -27.9493  -11.5436  144.1882 C   0  0  0  0  0  0  0  0  0  0  0  0
  -27.1462  -11.0846  145.3058 C   0  0  0  0  0  0  0  0  0  0  0  0
  -25.9691  -11.6954  145.6446 C   0  0  0  0  0  0  0  0  0  0  0  0
  -29.1155  -10.7928  143.7636 C   0  0  0  0  0  0  0  0  0  0  0  0
  -29.7024  -11.3908  142.8309 F   0  0  0  0  0  0  0  0  0  0  0  0
  -29.9541  -10.6512  144.8508 F   0  0  0  0  0  0  0  0  0  0  0  0
  -28.6945   -9.5509  143.3934 F   0  0  0  0  0  0  0  0  0  0  0  0
  -23.4246  -12.2160  145.7603 C   0  0  0  0  0  0  0  0  0  0  0  0
  -22.6040  -14.3239  143.9845 O   0  0  0  0  0  0  0  0  0  0  0  0
  -23.6900  -19.7793  146.7215 O   0  0  0  0  0  0  0  0  0  0  0  0
  -23.5066  -20.2060  145.3795 C   0  0  0  0  0  0  0  0  0  0  0  0
  -22.5297  -11.6205  145.1053 O   0  0  0  0  0  0  0  0  0  0  0  0
  3  7  1  0
  7  8  1  0
  8  9  1  0
  9 10  1  0
 13 16  1  0
 16 17  1  0
 16 18  1  0
 16 19  1  0
  9 20  1  0
  8 21  2  0
  2 22  1  0
 22 23  1  0
 20 24  1  0
  1  2  2  0
  2  6  1  0
  6  5  2  0
  5  4  1  0
  4  3  2  0
  3  1  1  0
 10 11  2  0
 11 12  1  0
 12 13  2  0
 13 14  1  0
 14 15  2  0
 15 10  1  0
M  END

$$$$
No_1743-/dssg/home/sw_qyf/PocketFlow/Model-Generation-Results/5HT2A_7WC7_rec_A_10.pdb/2024-01-01-03-54-21/
     RDKit          3D

 33 33  0  0  0  0  0  0  0  0999 V2000
  -24.1553  -17.8465  145.7021 C   0  0  0  0  0  0  0  0  0  0  0  0
  -23.9795  -18.4462  146.7426 C   0  0  0  0  0  0  0  0  0  0  0  0
  -25.1593  -16.8262  145.6925 C   0  0  0  0  0  0  0  0  0  0  0  0
  -24.9465  -15.5961  144.9952 C   0  0  0  0  0  0  0  0  0  0  0  0
  -25.8223  -14.4752  145.0170 C   0  0  0  0  0  0  0  0  0  0  0  0
  -25.6126  -13.2995  144.3173 C   0  0  0  0  0  0  0  0  0  0  0  0
  -23.5452  -17.7120  147.8187 C   0  0  0  0  0  0  0  0  0  0  0  0
  -24.5304  -16.7414  148.3978 C   0  0  0  0  0  0  0  0  0  0  0  0
  -25.2243  -16.0058  147.2896 C   0  0  0  0  0  0  0  0  0  0  0  0
  -26.2703  -12.2887  144.8266 C   0  0  0  0  0  0  0  0  0  0  0  0
  -25.8195  -10.9906  144.6338 C   0  0  0  0  0  0  0  0  0  0  0  0
  -26.9164  -12.4252  146.1020 C   0  0  0  0  0  0  0  0  0  0  0  0
  -27.9103  -12.9588  145.9672 C   0  0  0  0  0  0  0  0  0  0  0  0
  -28.9569  -12.5378  147.1200 C   0  0  0  0  0  0  0  0  0  0  0  0
  -30.2834  -12.6067  146.8891 C   0  0  0  0  0  0  0  0  0  0  0  0
  -30.8492  -13.0399  148.0134 C   0  0  0  0  0  0  0  0  0  0  0  0
  -31.3383  -12.0315  148.9267 C   0  0  0  0  0  0  0  0  0  0  0  0
  -32.2895  -12.4260  150.0085 C   0  0  0  0  0  0  0  0  0  0  0  0
  -33.3014  -11.5934  150.3388 C   0  0  0  0  0  0  0  0  0  0  0  0
  -33.0447  -10.3382  150.3260 O   0  0  0  0  0  0  0  0  0  0  0  0
  -23.8366  -15.5447  144.0759 C   0  0  0  0  0  0  0  0  0  0  0  0
  -23.4856  -14.4658  143.6193 O   0  0  0  0  0  0  0  0  0  0  0  0
  -23.0862  -16.5305  143.9918 O   0  0  0  0  0  0  0  0  0  0  0  0
  -26.0435  -10.0980  144.1152 O   0  0  0  0  0  0  0  0  0  0  0  0
  -24.8951  -16.6446  149.6885 C   0  0  0  0  0  0  0  0  0  0  0  0
  -24.0158  -17.2694  150.6630 C   0  0  0  0  0  0  0  0  0  0  0  0
  -22.8210  -17.4722  150.3251 O   0  0  0  0  0  0  0  0  0  0  0  0
  -34.4389  -11.9773  150.4993 O   0  0  0  0  0  0  0  0  0  0  0  0
  -31.4226  -12.7897  151.2211 N   0  0  0  0  0  0  0  0  0  0  0  0
  -27.0538  -14.6871  145.8081 C   0  0  0  0  0  0  0  0  0  0  0  0
  -27.6769  -15.5927  146.4028 O   0  0  0  0  0  0  0  0  0  0  0  0
  -28.5978  -12.9668  144.7483 O   0  0  0  0  0  0  0  0  0  0  0  0
  -27.3677  -14.8167  144.6741 Cl  0  0  0  0  0  0  0  0  0  0  0  0
  1  2  1  0
  1  3  1  0
  3  4  1  0
  4  5  2  3
  5  6  1  0
  2  7  1  0
  7  8  1  0
  3  9  1  0
  8  9  1  0
  6 10  2  3
 10 11  1  0
 10 12  1  0
 12 13  2  3
 13 14  1  0
 14 15  1  0
 15 16  1  0
 16 17  1  0
 17 18  1  0
 18 19  1  0
 19 20  1  0
  4 21  1  0
 21 22  1  0
 21 23  2  0
 11 24  2  0
  8 25  1  0
 25 26  1  0
 26 27  1  0
 19 28  2  0
 18 29  1  0
  5 30  1  0
 30 31  2  0
 13 32  1  0
 30 33  1  0
M  END

$$$$
No_1744-/dssg/home/sw_qyf/PocketFlow/Model-Generation-Results/5HT2A_7WC7_rec_A_10.pdb/2024-01-01-03-54-21/
     RDKit          3D

 35 36  0  0  0  0  0  0  0  0999 V2000
  -23.1746  -16.6014  144.8668 C   0  0  0  0  0  0  0  0  0  0  0  0
  -23.7011  -17.0158  145.9774 C   0  0  0  0  0  0  0  0  0  0  0  0
  -24.2134  -16.0722  146.8877 C   0  0  0  0  0  0  0  0  0  0  0  0
  -23.3742  -15.2706  144.3922 C   0  0  0  0  0  0  0  0  0  0  0  0
  -24.0638  -14.3065  145.2723 C   0  0  0  0  0  0  0  0  0  0  0  0
  -24.4769  -14.7246  146.5384 C   0  0  0  0  0  0  0  0  0  0  0  0
  -24.2143  -12.8848  144.8927 C   0  0  0  0  0  0  0  0  0  0  0  0
  -24.1907  -11.9898  146.0313 C   0  0  0  0  0  0  0  0  0  0  0  0
  -23.5524  -18.4422  146.4385 C   0  0  0  0  0  0  0  0  0  0  0  0
  -22.5381  -18.6720  147.1019 F   0  0  0  0  0  0  0  0  0  0  0  0
  -23.5496  -19.2816  145.4238 F   0  0  0  0  0  0  0  0  0  0  0  0
  -24.6578  -18.7735  147.1908 F   0  0  0  0  0  0  0  0  0  0  0  0
  -25.3653  -12.3110  146.9480 C   0  0  0  0  0  0  0  0  0  0  0  0
  -25.2256  -13.7840  147.3188 C   0  0  0  0  0  0  0  0  0  0  0  0
  -25.4262  -12.8172  144.0794 O   0  0  0  0  0  0  0  0  0  0  0  0
  -25.8733  -13.8801  143.4071 C   0  0  0  0  0  0  0  0  0  0  0  0
  -26.1006  -14.9516  143.9856 O   0  0  0  0  0  0  0  0  0  0  0  0
  -26.1260  -13.6934  142.2196 O   0  0  0  0  0  0  0  0  0  0  0  0
  -27.3069  -13.1625  141.7486 C   0  0  0  0  0  0  0  0  0  0  0  0
  -27.3101  -12.8002  140.3365 C   0  0  0  0  0  0  0  0  0  0  0  0
  -28.4134  -11.9609  139.8970 C   0  0  0  0  0  0  0  0  0  0  0  0
  -28.8002  -11.0241  140.9482 C   0  0  0  0  0  0  0  0  0  0  0  0
  -28.1310  -10.0802  141.3445 C   0  0  0  0  0  0  0  0  0  0  0  0
  -28.6324   -8.9892  142.2558 C   0  0  0  0  0  0  0  0  0  0  0  0
  -29.5498   -8.2496  141.8472 C   0  0  0  0  0  0  0  0  0  0  0  0
  -30.1501   -7.2585  142.8577 C   0  0  0  0  0  0  0  0  0  0  0  0
  -30.0389   -8.1339  140.5468 C   0  0  0  0  0  0  0  0  0  0  0  0
  -29.2895   -7.6345  139.4522 C   0  0  0  0  0  0  0  0  0  0  0  0
  -29.3955   -8.2604  138.1750 C   0  0  0  0  0  0  0  0  0  0  0  0
  -28.1879   -8.3098  137.3975 C   0  0  0  0  0  0  0  0  0  0  0  0
  -29.6279   -6.2102  143.1616 F   0  0  0  0  0  0  0  0  0  0  0  0
  -31.5022   -6.8694  142.4409 F   0  0  0  0  0  0  0  0  0  0  0  0
  -30.3759   -7.9797  144.0434 F   0  0  0  0  0  0  0  0  0  0  0  0
  -27.5400   -9.2124  137.7407 O   0  0  0  0  0  0  0  0  0  0  0  0
  -26.0454  -12.1783  140.0625 O   0  0  0  0  0  0  0  0  0  0  0  0
  5  7  1  0
  7  8  1  0
  2  9  1  0
  9 10  1  0
  9 11  1  0
  9 12  1  0
  8 13  1  0
  6 14  1  0
 13 14  1  0
  7 15  1  0
 15 16  1  0
 16 17  2  0
 16 18  1  0
 18 19  1  0
 19 20  1  0
 20 21  2  3
 21 22  1  0
 22 23  2  3
 23 24  1  0
 24 25  2  3
 25 26  1  0
 25 27  1  0
 27 28  2  3
 28 29  1  0
 29 30  1  0
 26 31  1  0
 26 32  1  0
 26 33  1  0
 30 34  1  0
 20 35  1  0
  1  2  2  0
  2  3  1  0
  3  6  2  0
  6  5  1  0
  5  4  2  0
  4  1  1  0
M  END

$$$$
No_1745-/dssg/home/sw_qyf/PocketFlow/Model-Generation-Results/5HT2A_7WC7_rec_A_10.pdb/2024-01-01-03-54-21/
     RDKit          3D

 21 22  0  0  0  0  0  0  0  0999 V2000
  -24.1553  -17.8465  145.7021 C   0  0  0  0  0  0  0  0  0  0  0  0
  -24.6364  -17.2931  146.7091 C   0  0  0  0  0  0  0  0  0  0  0  0
  -24.5709  -15.9334  146.8074 C   0  0  0  0  0  0  0  0  0  0  0  0
  -24.2378  -15.1233  145.7159 C   0  0  0  0  0  0  0  0  0  0  0  0
  -23.7252  -15.7878  144.6028 C   0  0  0  0  0  0  0  0  0  0  0  0
  -23.7316  -17.0968  144.6427 N   0  0  0  0  0  0  0  0  0  0  0  0
  -24.0429  -19.2100  145.5626 N   0  0  0  0  0  0  0  0  0  0  0  0
  -24.2583  -13.6039  145.8467 C   0  0  0  0  0  0  0  0  0  0  0  0
  -25.2729  -12.9781  146.5119 C   0  0  0  0  0  0  0  0  0  0  0  0
  -23.2917  -12.8540  145.1159 C   0  0  0  0  0  0  0  0  0  0  0  0
  -25.4362  -11.5978  146.4840 C   0  0  0  0  0  0  0  0  0  0  0  0
  -23.4547  -11.3617  145.1454 C   0  0  0  0  0  0  0  0  0  0  0  0
  -24.5782  -10.8032  145.7816 C   0  0  0  0  0  0  0  0  0  0  0  0
  -24.9532  -18.0223  147.8476 N   0  0  0  0  0  0  0  0  0  0  0  0
  -25.2682  -17.3390  149.1295 C   0  0  0  0  0  0  0  0  0  0  0  0
  -24.1947  -17.4753  150.0844 C   0  0  0  0  0  0  0  0  0  0  0  0
  -23.3406  -16.8803  150.2661 O   0  0  0  0  0  0  0  0  0  0  0  0
  -24.7233  -18.2486  151.2179 O   0  0  0  0  0  0  0  0  0  0  0  0
  -22.3274  -13.3670  144.4219 O   0  0  0  0  0  0  0  0  0  0  0  0
  -21.7276  -12.5199  143.4731 C   0  0  0  0  0  0  0  0  0  0  0  0
  -26.3537  -16.8142  149.1926 O   0  0  0  0  0  0  0  0  0  0  0  0
  1  7  1  0
  4  8  1  0
  2 14  1  0
 14 15  1  0
 15 16  1  0
 16 17  2  0
 16 18  1  0
 10 19  1  0
 19 20  1  0
 15 21  2  0
  8  9  2  0
  9 11  1  0
 11 13  2  0
 13 12  1  0
 12 10  2  0
 10  8  1  0
  1  2  2  0
  2  3  1  0
  3  4  2  0
  4  5  1  0
  5  6  2  0
  6  1  1  0
M  END

$$$$
No_1746-/dssg/home/sw_qyf/PocketFlow/Model-Generation-Results/5HT2A_7WC7_rec_A_10.pdb/2024-01-01-03-54-21/
     RDKit          3D

 12 13  0  0  0  0  0  0  0  0999 V2000
  -23.1746  -16.6014  144.8668 C   0  0  0  0  0  0  0  0  0  0  0  0
  -24.0189  -16.0564  145.8445 C   0  0  0  0  0  0  0  0  0  0  0  0
  -24.4850  -14.7380  145.6359 C   0  0  0  0  0  0  0  0  0  0  0  0
  -25.2717  -14.0560  146.5949 C   0  0  0  0  0  0  0  0  0  0  0  0
  -25.6617  -12.7328  146.4162 C   0  0  0  0  0  0  0  0  0  0  0  0
  -25.2756  -11.9986  145.2553 C   0  0  0  0  0  0  0  0  0  0  0  0
  -24.3335  -12.6494  144.4294 C   0  0  0  0  0  0  0  0  0  0  0  0
  -23.8839  -13.9831  144.6056 C   0  0  0  0  0  0  0  0  0  0  0  0
  -24.4895  -16.8196  146.9335 C   0  0  0  0  0  0  0  0  0  0  0  0
  -24.0317  -18.0542  147.1803 C   0  0  0  0  0  0  0  0  0  0  0  0
  -23.2810  -18.6718  146.1993 C   0  0  0  0  0  0  0  0  0  0  0  0
  -22.8973  -17.9871  145.1061 N   0  0  0  0  0  0  0  0  0  0  0  0
  2  3  1  0
  1  2  2  0
  2  9  1  0
  9 10  2  0
 10 11  1  0
 11 12  2  0
 12  1  1  0
  3  4  2  0
  4  5  1  0
  5  6  2  0
  6  7  1  0
  7  8  2  0
  8  3  1  0
M  END

$$$$
No_1747-/dssg/home/sw_qyf/PocketFlow/Model-Generation-Results/5HT2A_7WC7_rec_A_10.pdb/2024-01-01-03-54-21/
     RDKit          3D

 15 14  0  0  0  0  0  0  0  0999 V2000
  -23.3109  -16.7473  145.0363 P   0  0  0  0  0  0  0  0  0  0  0  0
  -23.6763  -15.9386  144.4057 O   0  0  0  0  0  0  0  0  0  0  0  0
  -23.4560  -18.1597  144.3740 O   0  0  0  0  0  0  0  0  0  0  0  0
  -24.5287  -17.0048  146.2171 O   0  0  0  0  0  0  0  0  0  0  0  0
  -24.6544  -16.1846  147.2747 C   0  0  0  0  0  0  0  0  0  0  0  0
  -26.0429  -16.0669  147.8580 C   0  0  0  0  0  0  0  0  0  0  0  0
  -26.1341  -16.8265  148.9184 F   0  0  0  0  0  0  0  0  0  0  0  0
  -26.2170  -14.7208  148.1502 F   0  0  0  0  0  0  0  0  0  0  0  0
  -27.0530  -16.4905  146.8380 C   0  0  0  0  0  0  0  0  0  0  0  0
  -28.1645  -15.5342  146.5838 C   0  0  0  0  0  0  0  0  0  0  0  0
  -28.3327  -14.5535  147.5954 C   0  0  0  0  0  0  0  0  0  0  0  0
  -29.6017  -13.7294  147.6279 C   0  0  0  0  0  0  0  0  0  0  0  0
  -30.6796  -14.2202  147.8992 C   0  0  0  0  0  0  0  0  0  0  0  0
  -29.4195  -12.3032  147.2582 C   0  0  0  0  0  0  0  0  0  0  0  0
  -28.3735  -11.7623  146.8953 O   0  0  0  0  0  0  0  0  0  0  0  0
  1  2  1  0
  1  3  2  0
  1  4  1  0
  4  5  1  0
  5  6  1  0
  6  7  1  0
  6  8  1  0
  6  9  1  0
  9 10  1  0
 10 11  1  0
 11 12  1  0
 12 13  1  0
 12 14  1  0
 14 15  1  0
M  END

$$$$
No_1748-/dssg/home/sw_qyf/PocketFlow/Model-Generation-Results/5HT2A_7WC7_rec_A_10.pdb/2024-01-01-03-54-21/
     RDKit          3D

 15 16  0  0  0  0  0  0  0  0999 V2000
  -24.1553  -17.8465  145.7021 C   0  0  0  0  0  0  0  0  0  0  0  0
  -23.9795  -18.4462  146.7426 C   0  0  0  0  0  0  0  0  0  0  0  0
  -25.1593  -16.8262  145.6925 C   0  0  0  0  0  0  0  0  0  0  0  0
  -25.9346  -16.5763  146.8154 C   0  0  0  0  0  0  0  0  0  0  0  0
  -25.6041  -17.2802  147.9650 C   0  0  0  0  0  0  0  0  0  0  0  0
  -24.6016  -18.1919  147.9827 C   0  0  0  0  0  0  0  0  0  0  0  0
  -27.0252  -15.5531  146.7776 C   0  0  0  0  0  0  0  0  0  0  0  0
  -28.3001  -15.8884  147.1424 C   0  0  0  0  0  0  0  0  0  0  0  0
  -29.2842  -14.8995  147.1634 C   0  0  0  0  0  0  0  0  0  0  0  0
  -29.0096  -13.5427  146.9159 C   0  0  0  0  0  0  0  0  0  0  0  0
  -27.6809  -13.1751  146.4755 C   0  0  0  0  0  0  0  0  0  0  0  0
  -26.6892  -14.1517  146.5142 C   0  0  0  0  0  0  0  0  0  0  0  0
  -29.9868  -12.5495  146.9772 N   0  0  0  0  0  0  0  0  0  0  0  0
  -29.8932  -11.3729  146.2430 C   0  0  0  0  0  0  0  0  0  0  0  0
  -28.6235  -11.0195  145.7323 N   0  0  0  0  0  0  0  0  0  0  0  0
  4  7  1  0
 10 13  1  0
 13 14  2  3
 14 15  1  0
  1  2  2  0
  2  6  1  0
  6  5  2  0
  5  4  1  0
  4  3  2  0
  3  1  1  0
  7  8  2  0
  8  9  1  0
  9 10  2  0
 10 11  1  0
 11 12  2  0
 12  7  1  0
M  END

$$$$
No_1749-/dssg/home/sw_qyf/PocketFlow/Model-Generation-Results/5HT2A_7WC7_rec_A_10.pdb/2024-01-01-03-54-21/
     RDKit          3D

 32 34  0  0  0  0  0  0  0  0999 V2000
  -24.1553  -17.8465  145.7021 C   0  0  0  0  0  0  0  0  0  0  0  0
  -23.9795  -18.4462  146.7426 C   0  0  0  0  0  0  0  0  0  0  0  0
  -24.3577  -16.4380  145.7329 C   0  0  0  0  0  0  0  0  0  0  0  0
  -24.6120  -15.7738  146.9649 C   0  0  0  0  0  0  0  0  0  0  0  0
  -24.4666  -16.5590  148.1483 C   0  0  0  0  0  0  0  0  0  0  0  0
  -24.1608  -17.8621  148.1048 C   0  0  0  0  0  0  0  0  0  0  0  0
  -24.4858  -15.5973  144.5498 C   0  0  0  0  0  0  0  0  0  0  0  0
  -23.7172  -14.3506  144.5557 C   0  0  0  0  0  0  0  0  0  0  0  0
  -24.4569  -13.1896  145.0410 C   0  0  0  0  0  0  0  0  0  0  0  0
  -23.5593  -12.1094  145.4152 C   0  0  0  0  0  0  0  0  0  0  0  0
  -25.7950  -13.0930  144.9925 C   0  0  0  0  0  0  0  0  0  0  0  0
  -26.4471  -11.8758  145.2851 C   0  0  0  0  0  0  0  0  0  0  0  0
  -27.7993  -11.7911  145.4716 C   0  0  0  0  0  0  0  0  0  0  0  0
  -28.6399  -10.9240  144.7827 C   0  0  0  0  0  0  0  0  0  0  0  0
  -28.1588  -10.1030  143.8407 C   0  0  0  0  0  0  0  0  0  0  0  0
  -28.9435   -9.2675  143.0932 C   0  0  0  0  0  0  0  0  0  0  0  0
  -28.4543   -8.6323  141.9415 C   0  0  0  0  0  0  0  0  0  0  0  0
  -29.2861   -7.5800  141.3436 C   0  0  0  0  0  0  0  0  0  0  0  0
  -28.9400   -6.9480  140.1947 C   0  0  0  0  0  0  0  0  0  0  0  0
  -30.5435   -7.2937  142.0524 C   0  0  0  0  0  0  0  0  0  0  0  0
  -31.0350   -7.9579  143.1834 C   0  0  0  0  0  0  0  0  0  0  0  0
  -30.2039   -8.9245  143.7672 C   0  0  0  0  0  0  0  0  0  0  0  0
  -29.3125   -5.7288  140.1101 F   0  0  0  0  0  0  0  0  0  0  0  0
  -27.6888   -7.0435  139.9195 F   0  0  0  0  0  0  0  0  0  0  0  0
  -29.7502   -7.4225  139.1207 F   0  0  0  0  0  0  0  0  0  0  0  0
  -28.2862  -12.5461  146.6450 C   0  0  0  0  0  0  0  0  0  0  0  0
  -29.6988  -12.4318  146.9893 C   0  0  0  0  0  0  0  0  0  0  0  0
  -30.4630  -11.4156  146.3402 C   0  0  0  0  0  0  0  0  0  0  0  0
  -29.9476  -10.7130  145.3031 C   0  0  0  0  0  0  0  0  0  0  0  0
  -30.1894  -13.1940  148.1589 C   0  0  0  0  0  0  0  0  0  0  0  0
  -29.7814  -14.3225  148.3787 O   0  0  0  0  0  0  0  0  0  0  0  0
  -31.0998  -12.6616  148.9571 O   0  0  0  0  0  0  0  0  0  0  0  0
  3  7  1  0
  7  8  1  0
  8  9  1  0
  9 10  2  0
  9 11  1  0
 11 12  2  3
 12 13  1  0
 14 15  1  0
 18 19  1  0
 19 23  1  0
 19 24  1  0
 19 25  1  0
 27 30  1  0
 30 31  2  0
 30 32  1  0
 15 16  1  0
  1  2  2  0
  2  6  1  0
  6  5  2  0
  5  4  1  0
  4  3  2  0
  3  1  1  0
 16 17  2  0
 17 18  1  0
 18 20  2  0
 20 21  1  0
 21 22  2  0
 22 16  1  0
 13 14  2  0
 14 29  1  0
 29 28  2  0
 28 27  1  0
 27 26  2  0
 26 13  1  0
M  END

$$$$
No_1750-/dssg/home/sw_qyf/PocketFlow/Model-Generation-Results/5HT2A_7WC7_rec_A_10.pdb/2024-01-01-03-54-21/
     RDKit          3D

 35 38  0  0  0  0  0  0  0  0999 V2000
  -24.1553  -17.8465  145.7021 C   0  0  0  0  0  0  0  0  0  0  0  0
  -24.2856  -16.6364  145.3494 C   0  0  0  0  0  0  0  0  0  0  0  0
  -25.0033  -15.6772  146.0737 C   0  0  0  0  0  0  0  0  0  0  0  0
  -25.1197  -14.2835  145.7299 C   0  0  0  0  0  0  0  0  0  0  0  0
  -24.2707  -13.8793  144.6500 C   0  0  0  0  0  0  0  0  0  0  0  0
  -24.8686  -18.3355  146.8179 C   0  0  0  0  0  0  0  0  0  0  0  0
  -25.6154  -17.5363  147.5807 C   0  0  0  0  0  0  0  0  0  0  0  0
  -25.7525  -16.1597  147.2668 C   0  0  0  0  0  0  0  0  0  0  0  0
  -24.1658  -12.4897  144.4296 C   0  0  0  0  0  0  0  0  0  0  0  0
  -25.1827  -11.6554  145.1165 C   0  0  0  0  0  0  0  0  0  0  0  0
  -25.9962  -12.0879  146.1488 C   0  0  0  0  0  0  0  0  0  0  0  0
  -25.9077  -13.4179  146.4818 C   0  0  0  0  0  0  0  0  0  0  0  0
  -23.6566  -16.1923  144.2852 F   0  0  0  0  0  0  0  0  0  0  0  0
  -23.4809  -18.7473  144.9654 O   0  0  0  0  0  0  0  0  0  0  0  0
  -25.1006  -10.3140  144.7869 O   0  0  0  0  0  0  0  0  0  0  0  0
  -26.3624   -9.8927  144.2081 C   0  0  0  0  0  0  0  0  0  0  0  0
  -27.0877  -10.7000  143.4579 C   0  0  0  0  0  0  0  0  0  0  0  0
  -28.2053  -10.1833  142.7397 C   0  0  0  0  0  0  0  0  0  0  0  0
  -28.7626   -8.9490  143.1279 C   0  0  0  0  0  0  0  0  0  0  0  0
  -29.8641   -8.4296  142.4589 C   0  0  0  0  0  0  0  0  0  0  0  0
  -31.1761   -8.3444  142.9826 C   0  0  0  0  0  0  0  0  0  0  0  0
  -31.2027   -8.4978  144.2450 O   0  0  0  0  0  0  0  0  0  0  0  0
  -29.6023   -7.9119  141.0879 C   0  0  0  0  0  0  0  0  0  0  0  0
  -28.9221   -8.5902  140.2011 C   0  0  0  0  0  0  0  0  0  0  0  0
  -28.7051   -8.0895  138.9512 C   0  0  0  0  0  0  0  0  0  0  0  0
  -32.0674   -8.2472  142.2602 O   0  0  0  0  0  0  0  0  0  0  0  0
  -27.9474   -8.9208  138.0182 C   0  0  0  0  0  0  0  0  0  0  0  0
  -27.6491  -10.1915  138.4203 C   0  0  0  0  0  0  0  0  0  0  0  0
  -27.8359  -10.6974  139.6599 C   0  0  0  0  0  0  0  0  0  0  0  0
  -28.5072   -9.9115  140.5871 C   0  0  0  0  0  0  0  0  0  0  0  0
  -28.2850  -10.5718  141.4841 C   0  0  0  0  0  0  0  0  0  0  0  0
  -28.7093  -12.0918  141.4785 C   0  0  0  0  0  0  0  0  0  0  0  0
  -28.2544  -12.4630  140.1254 C   0  0  0  0  0  0  0  0  0  0  0  0
  -29.2428  -12.6209  139.2183 C   0  0  0  0  0  0  0  0  0  0  0  0
  -26.2878  -10.9500  139.7870 O   0  0  0  0  0  0  0  0  0  0  0  0
  3  4  1  0
  2 13  1  0
  1 14  1  0
 10 15  1  0
 15 16  1  0
 16 17  1  0
 17 18  2  3
 18 19  1  0
 19 20  1  0
 20 21  1  0
 21 22  1  0
 20 23  1  0
 23 24  1  0
 21 26  2  0
 18 31  1  0
 30 31  1  0
 31 32  1  0
 32 33  1  0
 33 34  1  0
 29 35  1  0
  1  2  2  0
  2  3  1  0
  3  8  2  0
  8  7  1  0
  7  6  2  0
  6  1  1  0
  4  5  2  0
  5  9  1  0
  9 10  2  0
 10 11  1  0
 11 12  2  0
 12  4  1  0
 24 25  2  0
 25 27  1  0
 27 28  2  0
 28 29  1  0
 29 30  2  0
 30 24  1  0
M  END

$$$$
No_1751-/dssg/home/sw_qyf/PocketFlow/Model-Generation-Results/5HT2A_7WC7_rec_A_10.pdb/2024-01-01-03-54-21/
     RDKit          3D

 18 19  0  0  0  0  0  0  0  0999 V2000
  -24.1553  -17.8465  145.7021 C   0  0  0  0  0  0  0  0  0  0  0  0
  -23.9795  -18.4462  146.7426 C   0  0  0  0  0  0  0  0  0  0  0  0
  -25.1593  -16.8262  145.6925 C   0  0  0  0  0  0  0  0  0  0  0  0
  -24.9465  -15.5961  144.9952 C   0  0  0  0  0  0  0  0  0  0  0  0
  -25.8224  -14.4752  145.0170 C   0  0  0  0  0  0  0  0  0  0  0  0
  -25.3149  -13.2314  145.2660 C   0  0  0  0  0  0  0  0  0  0  0  0
  -23.8858  -13.0138  145.0457 C   0  0  0  0  0  0  0  0  0  0  0  0
  -23.0956  -13.9769  144.3876 C   0  0  0  0  0  0  0  0  0  0  0  0
  -23.5120  -15.3205  144.6891 C   0  0  0  0  0  0  0  0  0  0  0  0
  -24.7756  -18.2590  147.8377 C   0  0  0  0  0  0  0  0  0  0  0  0
  -25.6738  -17.2029  147.9684 C   0  0  0  0  0  0  0  0  0  0  0  0
  -25.8541  -16.3979  146.8784 C   0  0  0  0  0  0  0  0  0  0  0  0
  -26.1340  -12.0776  145.7792 C   0  0  0  0  0  0  0  0  0  0  0  0
  -27.3809  -12.3404  146.6591 Cl  0  0  0  0  0  0  0  0  0  0  0  0
  -25.7623  -10.8614  145.5400 O   0  0  0  0  0  0  0  0  0  0  0  0
  -26.4510  -16.9469  149.5421 Cl  0  0  0  0  0  0  0  0  0  0  0  0
  -22.0706  -13.6512  143.7673 O   0  0  0  0  0  0  0  0  0  0  0  0
  -23.5461  -18.1005  144.6417 O   0  0  0  0  0  0  0  0  0  0  0  0
  3  4  1  0
  6 13  1  0
 13 14  1  0
 13 15  2  0
 11 16  1  0
  8 17  1  0
  1 18  1  0
  1  2  2  0
  2 10  1  0
 10 11  2  0
 11 12  1  0
 12  3  2  0
  3  1  1  0
  4  5  2  0
  5  6  1  0
  6  7  2  0
  7  8  1  0
  8  9  2  0
  9  4  1  0
M  END

$$$$
No_1752-/dssg/home/sw_qyf/PocketFlow/Model-Generation-Results/5HT2A_7WC7_rec_A_10.pdb/2024-01-01-03-54-21/
     RDKit          3D

 20 21  0  0  0  0  0  0  0  0999 V2000
  -23.1746  -16.6014  144.8668 C   0  0  0  0  0  0  0  0  0  0  0  0
  -23.7011  -17.0158  145.9774 C   0  0  0  0  0  0  0  0  0  0  0  0
  -24.2134  -16.0722  146.8877 C   0  0  0  0  0  0  0  0  0  0  0  0
  -24.5407  -14.7704  146.3552 C   0  0  0  0  0  0  0  0  0  0  0  0
  -24.1477  -14.4045  145.0969 C   0  0  0  0  0  0  0  0  0  0  0  0
  -23.4211  -15.3299  144.3881 C   0  0  0  0  0  0  0  0  0  0  0  0
  -23.4890  -18.3920  146.5737 C   0  0  0  0  0  0  0  0  0  0  0  0
  -23.9803  -18.7647  147.6230 O   0  0  0  0  0  0  0  0  0  0  0  0
  -22.9325  -19.2659  145.8466 O   0  0  0  0  0  0  0  0  0  0  0  0
  -24.3234  -13.0076  144.6622 C   0  0  0  0  0  0  0  0  0  0  0  0
  -25.4514  -12.3111  145.2250 C   0  0  0  0  0  0  0  0  0  0  0  0
  -25.9314  -12.5605  146.4040 C   0  0  0  0  0  0  0  0  0  0  0  0
  -25.6826  -13.9414  147.0135 C   0  0  0  0  0  0  0  0  0  0  0  0
  -24.8994  -10.7518  145.3049 C   0  0  0  0  0  0  0  0  0  0  0  0
  -25.8024  -10.0264  144.3120 C   0  0  0  0  0  0  0  0  0  0  0  0
  -27.1646   -9.9913  144.7431 C   0  0  0  0  0  0  0  0  0  0  0  0
  -28.0961   -9.5188  143.7643 C   0  0  0  0  0  0  0  0  0  0  0  0
  -27.9590   -8.8293  142.8669 C   0  0  0  0  0  0  0  0  0  0  0  0
  -29.5489  -10.1016  144.0197 C   0  0  0  0  0  0  0  0  0  0  0  0
  -29.6535  -10.8947  145.0012 O   0  0  0  0  0  0  0  0  0  0  0  0
  2  7  1  0
  7  8  2  0
  7  9  1  0
 11 14  1  0
 14 15  1  0
 15 16  1  0
 16 17  1  0
 17 18  1  0
 17 19  1  0
 19 20  1  0
  1  2  2  0
  2  3  1  0
  3  4  2  0
  5  6  2  0
  6  1  1  0
  4  5  1  0
  5 10  1  0
 10 11  2  0
 11 12  1  0
 12 13  2  0
 13  4  1  0
M  END

$$$$
No_1753-/dssg/home/sw_qyf/PocketFlow/Model-Generation-Results/5HT2A_7WC7_rec_A_10.pdb/2024-01-01-03-54-21/
     RDKit          3D

 27 28  0  0  0  0  0  0  0  0999 V2000
  -24.1553  -17.8465  145.7021 C   0  0  0  0  0  0  0  0  0  0  0  0
  -23.9795  -18.4462  146.7426 C   0  0  0  0  0  0  0  0  0  0  0  0
  -23.2486  -17.2339  144.9771 C   0  0  0  0  0  0  0  0  0  0  0  0
  -24.9522  -18.9532  147.5333 N   0  0  0  0  0  0  0  0  0  0  0  0
  -23.6972  -16.1839  144.0673 C   0  0  0  0  0  0  0  0  0  0  0  0
  -24.8671  -15.3831  144.5636 C   0  0  0  0  0  0  0  0  0  0  0  0
  -25.0192  -14.0483  144.0895 C   0  0  0  0  0  0  0  0  0  0  0  0
  -25.5729  -13.1961  145.0300 C   0  0  0  0  0  0  0  0  0  0  0  0
  -26.9378  -13.3371  145.2326 C   0  0  0  0  0  0  0  0  0  0  0  0
  -27.6995  -12.3419  145.9716 C   0  0  0  0  0  0  0  0  0  0  0  0
  -27.2255  -11.0319  145.8761 C   0  0  0  0  0  0  0  0  0  0  0  0
  -25.8790  -10.7985  145.5069 C   0  0  0  0  0  0  0  0  0  0  0  0
  -25.1269  -11.8437  144.9795 C   0  0  0  0  0  0  0  0  0  0  0  0
  -29.0615  -12.5446  146.3975 C   0  0  0  0  0  0  0  0  0  0  0  0
  -29.4399  -12.4293  147.5040 N   0  0  0  0  0  0  0  0  0  0  0  0
  -30.6660  -12.6396  148.1799 C   0  0  0  0  0  0  0  0  0  0  0  0
  -31.0054  -11.8549  149.3415 C   0  0  0  0  0  0  0  0  0  0  0  0
  -22.7751  -18.8413  147.1407 O   0  0  0  0  0  0  0  0  0  0  0  0
  -30.9417  -13.8925  148.2252 O   0  0  0  0  0  0  0  0  0  0  0  0
  -32.2302  -11.4683  149.5364 C   0  0  0  0  0  0  0  0  0  0  0  0
  -33.1435  -12.2953  150.2816 C   0  0  0  0  0  0  0  0  0  0  0  0
  -34.3178  -11.8154  150.4989 C   0  0  0  0  0  0  0  0  0  0  0  0
  -23.8306  -11.5704  144.7307 O   0  0  0  0  0  0  0  0  0  0  0  0
  -29.9727  -12.8530  145.5836 O   0  0  0  0  0  0  0  0  0  0  0  0
  -34.6293  -10.5800  149.8685 C   0  0  0  0  0  0  0  0  0  0  0  0
  -33.8229   -9.7074  149.3329 C   0  0  0  0  0  0  0  0  0  0  0  0
  -32.4840  -10.1914  149.2567 C   0  0  0  0  0  0  0  0  0  0  0  0
  1  2  1  0
  1  3  3  0
  2  4  1  0
  3  5  1  0
  5  6  1  0
  6  7  1  0
  7  8  1  0
 10 14  1  0
 14 15  1  0
 15 16  1  0
 16 17  1  0
  2 18  2  0
 16 19  2  0
 17 20  1  0
 13 23  1  0
 14 24  2  0
  8  9  2  0
  9 10  1  0
 10 11  2  0
 11 12  1  0
 12 13  2  0
 13  8  1  0
 20 21  2  0
 21 22  1  0
 22 25  2  0
 25 26  1  0
 26 27  2  0
 27 20  1  0
M  END

$$$$
No_1754-/dssg/home/sw_qyf/PocketFlow/Model-Generation-Results/5HT2A_7WC7_rec_A_10.pdb/2024-01-01-03-54-21/
     RDKit          3D

 11 11  0  0  0  0  0  0  0  0999 V2000
  -23.1746  -16.6014  144.8668 C   0  0  0  0  0  0  0  0  0  0  0  0
  -24.0189  -16.0564  145.8445 C   0  0  0  0  0  0  0  0  0  0  0  0
  -24.4850  -14.7380  145.6359 C   0  0  0  0  0  0  0  0  0  0  0  0
  -25.2717  -14.0560  146.5949 C   0  0  0  0  0  0  0  0  0  0  0  0
  -25.5669  -12.6700  146.4456 C   0  0  0  0  0  0  0  0  0  0  0  0
  -25.1774  -11.9727  145.2644 C   0  0  0  0  0  0  0  0  0  0  0  0
  -24.2583  -12.6444  144.4323 C   0  0  0  0  0  0  0  0  0  0  0  0
  -23.9746  -14.0153  144.6649 C   0  0  0  0  0  0  0  0  0  0  0  0
  -24.4407  -16.8601  146.9515 C   0  0  0  0  0  0  0  0  0  0  0  0
  -25.1111  -16.6229  147.9710 C   0  0  0  0  0  0  0  0  0  0  0  0
  -25.2104  -17.3713  149.1832 C   0  0  0  0  0  0  0  0  0  0  0  0
  1  2  1  0
  2  3  1  0
  2  9  1  0
  9 10  2  3
 10 11  1  0
  3  4  2  0
  4  5  1  0
  5  6  2  0
  6  7  1  0
  7  8  2  0
  8  3  1  0
M  END

$$$$
No_1755-/dssg/home/sw_qyf/PocketFlow/Model-Generation-Results/5HT2A_7WC7_rec_A_10.pdb/2024-01-01-03-54-21/
     RDKit          3D

 35 37  0  0  0  0  0  0  0  0999 V2000
  -24.1553  -17.8465  145.7021 C   0  0  0  0  0  0  0  0  0  0  0  0
  -24.2855  -16.6364  145.3494 C   0  0  0  0  0  0  0  0  0  0  0  0
  -25.0033  -15.6772  146.0737 C   0  0  0  0  0  0  0  0  0  0  0  0
  -24.8869  -14.2981  145.8377 C   0  0  0  0  0  0  0  0  0  0  0  0
  -25.3794  -13.2111  146.5917 C   0  0  0  0  0  0  0  0  0  0  0  0
  -24.8689  -11.8895  146.2480 C   0  0  0  0  0  0  0  0  0  0  0  0
  -23.0476  -18.5889  145.6450 C   0  0  0  0  0  0  0  0  0  0  0  0
  -24.0693  -11.7077  145.1795 C   0  0  0  0  0  0  0  0  0  0  0  0
  -23.3896  -12.7602  144.5654 C   0  0  0  0  0  0  0  0  0  0  0  0
  -23.8735  -14.1035  144.9199 C   0  0  0  0  0  0  0  0  0  0  0  0
  -25.8877  -16.1402  147.0803 C   0  0  0  0  0  0  0  0  0  0  0  0
  -23.1758  -19.9196  146.2584 C   0  0  0  0  0  0  0  0  0  0  0  0
  -25.6942  -17.3467  147.7048 C   0  0  0  0  0  0  0  0  0  0  0  0
  -24.8379  -18.2793  146.9690 C   0  0  0  0  0  0  0  0  0  0  0  0
  -23.2775  -15.0157  144.2078 O   0  0  0  0  0  0  0  0  0  0  0  0
  -23.4838  -16.3044  144.4593 C   0  0  0  0  0  0  0  0  0  0  0  0
  -25.6675  -10.8200  146.7919 N   0  0  0  0  0  0  0  0  0  0  0  0
  -24.2268  -20.0772  146.8744 O   0  0  0  0  0  0  0  0  0  0  0  0
  -25.6371  -19.2331  147.0406 O   0  0  0  0  0  0  0  0  0  0  0  0
  -24.9961  -21.2605  146.5615 C   0  0  0  0  0  0  0  0  0  0  0  0
  -25.7630  -19.2246  148.1050 C   0  0  0  0  0  0  0  0  0  0  0  0
  -24.6575  -19.6999  149.3852 Br  0  0  0  0  0  0  0  0  0  0  0  0
  -25.7573  -16.7041  149.0841 O   0  0  0  0  0  0  0  0  0  0  0  0
  -25.5371  -17.4884  150.1653 C   0  0  0  0  0  0  0  0  0  0  0  0
  -25.0956  -16.6398  151.4246 C   0  0  0  0  0  0  0  0  0  0  0  0
  -26.7362  -18.0882  150.6923 O   0  0  0  0  0  0  0  0  0  0  0  0
  -27.1759  -17.8393  151.9515 C   0  0  0  0  0  0  0  0  0  0  0  0
  -28.5295  -18.4861  152.1630 C   0  0  0  0  0  0  0  0  0  0  0  0
  -29.1436  -17.9954  153.3441 C   0  0  0  0  0  0  0  0  0  0  0  0
  -28.4152  -17.6683  154.4512 C   0  0  0  0  0  0  0  0  0  0  0  0
  -29.2367  -17.1040  155.5069 C   0  0  0  0  0  0  0  0  0  0  0  0
  -29.6372  -18.1681  156.4005 C   0  0  0  0  0  0  0  0  0  0  0  0
  -30.9308  -18.0253  156.9464 C   0  0  0  0  0  0  0  0  0  0  0  0
  -31.2092  -17.0699  157.7074 C   0  0  0  0  0  0  0  0  0  0  0  0
  -32.4889  -16.9073  158.3230 C   0  0  0  0  0  0  0  0  0  0  0  0
  3  4  1  0
  7 12  1  0
 10 15  1  0
  2 16  1  0
 15 16  1  0
  6 17  1  0
 12 18  1  0
 14 19  1  0
 18 20  1  0
 19 21  1  0
 21 22  1  0
 13 23  1  0
 23 24  1  0
 24 25  1  0
 24 26  1  0
 26 27  1  0
 27 28  1  0
 28 29  1  0
 29 30  1  0
 30 31  2  3
 31 32  1  0
 32 33  1  0
 33 34  2  3
 34 35  1  0
  7  1  1  0
  4  5  2  0
  5  6  1  0
  6  8  2  0
  8  9  1  0
  9 10  2  0
 10  4  1  0
  1  2  2  0
  2  3  1  0
  3 11  2  0
 11 13  1  0
 13 14  2  0
 14  1  1  0
M  END

$$$$
No_1756-/dssg/home/sw_qyf/PocketFlow/Model-Generation-Results/5HT2A_7WC7_rec_A_10.pdb/2024-01-01-03-54-21/
     RDKit          3D

  6  6  0  0  0  0  0  0  0  0999 V2000
  -24.1553  -17.8465  145.7021 C   0  0  0  0  0  0  0  0  0  0  0  0
  -24.2855  -16.6364  145.3494 C   0  0  0  0  0  0  0  0  0  0  0  0
  -24.5733  -15.7651  145.9979 C   0  0  0  0  0  0  0  0  0  0  0  0
  -25.0273  -15.9886  147.3700 C   0  0  0  0  0  0  0  0  0  0  0  0
  -24.4993  -18.2276  147.0208 C   0  0  0  0  0  0  0  0  0  0  0  0
  -24.9010  -17.2233  147.9329 C   0  0  0  0  0  0  0  0  0  0  0  0
  1  2  2  0
  2  3  1  0
  3  4  2  0
  4  6  1  0
  6  5  2  0
  5  1  1  0
M  END

$$$$
No_1757-/dssg/home/sw_qyf/PocketFlow/Model-Generation-Results/5HT2A_7WC7_rec_A_10.pdb/2024-01-01-03-54-21/
     RDKit          3D

 10 10  0  0  0  0  0  0  0  0999 V2000
  -24.1553  -17.8465  145.7021 C   0  0  0  0  0  0  0  0  0  0  0  0
  -24.2856  -16.6364  145.3494 C   0  0  0  0  0  0  0  0  0  0  0  0
  -25.0033  -15.6772  146.0737 C   0  0  0  0  0  0  0  0  0  0  0  0
  -25.6964  -16.1810  147.2049 C   0  0  0  0  0  0  0  0  0  0  0  0
  -24.8143  -18.3454  146.8324 C   0  0  0  0  0  0  0  0  0  0  0  0
  -25.5292  -17.4614  147.6373 C   0  0  0  0  0  0  0  0  0  0  0  0
  -23.6646  -16.1054  144.2503 F   0  0  0  0  0  0  0  0  0  0  0  0
  -25.1731  -14.2504  145.6720 C   0  0  0  0  0  0  0  0  0  0  0  0
  -25.2217  -13.7464  144.4965 C   0  0  0  0  0  0  0  0  0  0  0  0
  -25.1081  -14.6373  143.3800 C   0  0  0  0  0  0  0  0  0  0  0  0
  2  7  1  0
  3  8  1  0
  8  9  2  3
  9 10  1  0
  1  2  2  0
  2  3  1  0
  3  4  2  0
  4  6  1  0
  6  5  2  0
  5  1  1  0
M  END

$$$$
No_1758-/dssg/home/sw_qyf/PocketFlow/Model-Generation-Results/5HT2A_7WC7_rec_A_10.pdb/2024-01-01-03-54-21/
     RDKit          3D

 16 17  0  0  0  0  0  0  0  0999 V2000
  -24.1553  -17.8465  145.7021 C   0  0  0  0  0  0  0  0  0  0  0  0
  -24.6364  -17.2931  146.7091 C   0  0  0  0  0  0  0  0  0  0  0  0
  -24.5709  -15.9334  146.8074 C   0  0  0  0  0  0  0  0  0  0  0  0
  -24.2378  -15.1233  145.7159 C   0  0  0  0  0  0  0  0  0  0  0  0
  -23.7252  -15.7878  144.6028 C   0  0  0  0  0  0  0  0  0  0  0  0
  -23.7316  -17.0968  144.6427 N   0  0  0  0  0  0  0  0  0  0  0  0
  -24.0429  -19.2100  145.5626 N   0  0  0  0  0  0  0  0  0  0  0  0
  -24.2583  -13.6039  145.8467 C   0  0  0  0  0  0  0  0  0  0  0  0
  -25.2729  -12.9781  146.5119 C   0  0  0  0  0  0  0  0  0  0  0  0
  -23.2917  -12.8540  145.1159 C   0  0  0  0  0  0  0  0  0  0  0  0
  -25.4362  -11.5978  146.4841 C   0  0  0  0  0  0  0  0  0  0  0  0
  -23.4547  -11.3617  145.1454 C   0  0  0  0  0  0  0  0  0  0  0  0
  -24.5782  -10.8032  145.7817 C   0  0  0  0  0  0  0  0  0  0  0  0
  -24.9725  -17.9703  147.8233 F   0  0  0  0  0  0  0  0  0  0  0  0
  -22.4873  -13.2098  144.1902 O   0  0  0  0  0  0  0  0  0  0  0  0
  -24.3662  -19.9674  146.7420 C   0  0  0  0  0  0  0  0  0  0  0  0
  1  7  1  0
  4  8  1  0
  2 14  1  0
 10 15  1  0
  7 16  1  0
  8  9  2  0
  9 11  1  0
 11 13  2  0
 13 12  1  0
 12 10  2  0
 10  8  1  0
  1  2  2  0
  2  3  1  0
  3  4  2  0
  4  5  1  0
  5  6  2  0
  6  1  1  0
M  END

$$$$
No_1759-/dssg/home/sw_qyf/PocketFlow/Model-Generation-Results/5HT2A_7WC7_rec_A_10.pdb/2024-01-01-03-54-21/
     RDKit          3D

 35 39  0  0  0  0  0  0  0  0999 V2000
  -24.1553  -17.8465  145.7021 C   0  0  0  0  0  0  0  0  0  0  0  0
  -24.2856  -16.6364  145.3494 C   0  0  0  0  0  0  0  0  0  0  0  0
  -25.0033  -15.6772  146.0737 C   0  0  0  0  0  0  0  0  0  0  0  0
  -25.6964  -16.1810  147.2049 C   0  0  0  0  0  0  0  0  0  0  0  0
  -24.8143  -18.3454  146.8324 C   0  0  0  0  0  0  0  0  0  0  0  0
  -25.5291  -17.4614  147.6374 C   0  0  0  0  0  0  0  0  0  0  0  0
  -23.5978  -16.0422  144.1195 C   0  0  0  0  0  0  0  0  0  0  0  0
  -22.9888  -15.0078  144.3022 O   0  0  0  0  0  0  0  0  0  0  0  0
  -25.1556  -14.2383  145.7518 C   0  0  0  0  0  0  0  0  0  0  0  0
  -24.3131  -13.7115  145.2411 C   0  0  0  0  0  0  0  0  0  0  0  0
  -22.6187  -14.0421  143.9559 C   0  0  0  0  0  0  0  0  0  0  0  0
  -23.3502  -13.0795  144.3633 C   0  0  0  0  0  0  0  0  0  0  0  0
  -24.1251  -12.8115  145.7751 N   0  0  0  0  0  0  0  0  0  0  0  0
  -25.0192  -12.0034  146.4418 C   0  0  0  0  0  0  0  0  0  0  0  0
  -26.3910  -12.2959  146.1443 C   0  0  0  0  0  0  0  0  0  0  0  0
  -26.4462  -13.7069  146.0464 C   0  0  0  0  0  0  0  0  0  0  0  0
  -22.7319  -12.6039  146.4778 C   0  0  0  0  0  0  0  0  0  0  0  0
  -27.5168  -11.4567  146.1844 C   0  0  0  0  0  0  0  0  0  0  0  0
  -28.7983  -11.8941  146.4245 C   0  0  0  0  0  0  0  0  0  0  0  0
  -29.9733  -11.0217  146.3214 C   0  0  0  0  0  0  0  0  0  0  0  0
  -29.9236  -10.1781  145.1865 C   0  0  0  0  0  0  0  0  0  0  0  0
  -28.6615   -9.9072  144.5370 C   0  0  0  0  0  0  0  0  0  0  0  0
  -27.4259  -10.6480  144.9886 C   0  0  0  0  0  0  0  0  0  0  0  0
  -28.5120   -9.2366  143.3896 N   0  0  0  0  0  0  0  0  0  0  0  0
  -29.4283   -9.0660  142.4724 C   0  0  0  0  0  0  0  0  0  0  0  0
  -30.5626   -9.6901  142.2937 C   0  0  0  0  0  0  0  0  0  0  0  0
  -29.1449   -8.1303  141.3493 C   0  0  0  0  0  0  0  0  0  0  0  0
  -28.4665   -8.3492  140.1342 C   0  0  0  0  0  0  0  0  0  0  0  0
  -28.6530   -7.5095  139.0223 C   0  0  0  0  0  0  0  0  0  0  0  0
  -28.1450   -7.9936  137.8089 C   0  0  0  0  0  0  0  0  0  0  0  0
  -27.9353   -9.7164  139.8323 C   0  0  0  0  0  0  0  0  0  0  0  0
  -27.6840  -10.2844  138.8438 C   0  0  0  0  0  0  0  0  0  0  0  0
  -27.7779   -9.3068  137.6363 C   0  0  0  0  0  0  0  0  0  0  0  0
  -31.7243   -9.0651  142.0904 O   0  0  0  0  0  0  0  0  0  0  0  0
  -27.2567  -11.5954  138.6232 C   0  0  0  0  0  0  0  0  0  0  0  0
  2  7  1  0
  7  8  1  0
  3  9  1  0
  8 11  1  0
 10 12  1  0
 11 12  2  3
 10 13  1  0
 13 14  1  0
 14 15  1  0
  9 16  1  0
 15 16  1  0
 13 17  1  0
 15 18  1  0
 22 24  1  0
 24 25  1  0
 25 26  2  3
 25 27  1  0
 26 34  1  0
 32 35  1  0
 27 28  1  0
 10  9  1  0
 18 19  2  0
 19 20  1  0
 20 21  2  0
 21 22  1  0
 22 23  2  0
 23 18  1  0
 28 29  2  0
 29 30  1  0
 30 33  2  0
 33 32  1  0
 32 31  2  0
 31 28  1  0
  1  2  2  0
  2  3  1  0
  3  4  2  0
  4  6  1  0
  6  5  2  0
  5  1  1  0
M  END

$$$$
No_1760-/dssg/home/sw_qyf/PocketFlow/Model-Generation-Results/5HT2A_7WC7_rec_A_10.pdb/2024-01-01-03-54-21/
     RDKit          3D

 26 28  0  0  0  0  0  0  0  0999 V2000
  -24.1553  -17.8465  145.7021 C   0  0  0  0  0  0  0  0  0  0  0  0
  -24.2856  -16.6364  145.3494 C   0  0  0  0  0  0  0  0  0  0  0  0
  -25.0033  -15.6772  146.0737 C   0  0  0  0  0  0  0  0  0  0  0  0
  -25.1197  -14.2835  145.7299 C   0  0  0  0  0  0  0  0  0  0  0  0
  -25.8358  -13.3153  146.4318 C   0  0  0  0  0  0  0  0  0  0  0  0
  -24.7888  -18.3277  146.8665 C   0  0  0  0  0  0  0  0  0  0  0  0
  -25.5122  -17.4898  147.6544 C   0  0  0  0  0  0  0  0  0  0  0  0
  -25.6629  -16.1113  147.2980 C   0  0  0  0  0  0  0  0  0  0  0  0
  -25.7516  -11.9698  146.1143 C   0  0  0  0  0  0  0  0  0  0  0  0
  -24.9390  -11.5123  145.0695 C   0  0  0  0  0  0  0  0  0  0  0  0
  -23.9804  -13.6058  144.9846 C   0  0  0  0  0  0  0  0  0  0  0  0
  -23.9534  -12.2997  144.6436 C   0  0  0  0  0  0  0  0  0  0  0  0
  -23.7106  -16.1837  144.2163 O   0  0  0  0  0  0  0  0  0  0  0  0
  -26.7223  -11.0904  146.6746 O   0  0  0  0  0  0  0  0  0  0  0  0
  -27.9652  -11.5637  146.5198 C   0  0  0  0  0  0  0  0  0  0  0  0
  -28.8188  -10.9961  145.4927 C   0  0  0  0  0  0  0  0  0  0  0  0
  -30.1084  -10.4069  145.8956 C   0  0  0  0  0  0  0  0  0  0  0  0
  -28.4752  -10.8882  144.1583 C   0  0  0  0  0  0  0  0  0  0  0  0
  -27.3371  -11.5284  143.6264 C   0  0  0  0  0  0  0  0  0  0  0  0
  -29.2985  -10.0782  143.2762 C   0  0  0  0  0  0  0  0  0  0  0  0
  -29.1010  -10.1706  141.9732 C   0  0  0  0  0  0  0  0  0  0  0  0
  -28.1265  -11.0310  141.3930 C   0  0  0  0  0  0  0  0  0  0  0  0
  -27.9473  -11.2615  140.0166 C   0  0  0  0  0  0  0  0  0  0  0  0
  -27.0501  -12.3059  139.5765 C   0  0  0  0  0  0  0  0  0  0  0  0
  -27.2762  -11.7589  142.2682 C   0  0  0  0  0  0  0  0  0  0  0  0
  -26.9343  -12.2747  138.1604 N   0  0  0  0  0  0  0  0  0  0  0  0
  3  4  1  0
  2 13  1  0
  9 14  1  0
 14 15  1  0
 15 16  1  0
 16 17  2  0
 16 18  1  0
 22 23  1  0
 23 24  2  3
 24 26  1  0
  1  2  2  0
  2  3  1  0
  3  8  2  0
  8  7  1  0
  7  6  2  0
  6  1  1  0
  4  5  2  0
  5  9  1  0
  9 10  2  0
 10 12  1  0
 12 11  2  0
 11  4  1  0
 18 19  2  0
 19 25  1  0
 25 22  2  0
 22 21  1  0
 21 20  2  0
 20 18  1  0
M  END

$$$$
No_1761-/dssg/home/sw_qyf/PocketFlow/Model-Generation-Results/5HT2A_7WC7_rec_A_10.pdb/2024-01-01-03-54-21/
     RDKit          3D

 35 37  0  0  0  0  0  0  0  0999 V2000
  -23.8042  -18.1535  145.4053 O   0  0  0  0  0  0  0  0  0  0  0  0
  -24.3135  -17.1214  145.8338 C   0  0  0  0  0  0  0  0  0  0  0  0
  -24.5126  -15.9597  145.0191 C   0  0  0  0  0  0  0  0  0  0  0  0
  -25.6059  -15.1419  145.0124 C   0  0  0  0  0  0  0  0  0  0  0  0
  -26.4994  -15.2464  146.1474 C   0  0  0  0  0  0  0  0  0  0  0  0
  -27.5614  -14.3750  146.4024 C   0  0  0  0  0  0  0  0  0  0  0  0
  -27.4548  -13.1737  145.7713 C   0  0  0  0  0  0  0  0  0  0  0  0
  -26.6369  -12.9792  144.6065 C   0  0  0  0  0  0  0  0  0  0  0  0
  -26.6787  -11.7340  143.8873 C   0  0  0  0  0  0  0  0  0  0  0  0
  -25.7389  -13.9039  144.3232 C   0  0  0  0  0  0  0  0  0  0  0  0
  -27.3847  -11.6120  142.7602 N   0  0  0  0  0  0  0  0  0  0  0  0
  -24.8563  -17.1111  147.1098 N   0  0  0  0  0  0  0  0  0  0  0  0
  -24.5452  -18.1208  148.0324 C   0  0  0  0  0  0  0  0  0  0  0  0
  -28.6938  -11.1579  142.6830 C   0  0  0  0  0  0  0  0  0  0  0  0
  -29.2030  -10.3513  143.7470 C   0  0  0  0  0  0  0  0  0  0  0  0
  -30.0840   -9.2847  143.5623 C   0  0  0  0  0  0  0  0  0  0  0  0
  -30.4055   -9.0993  142.2649 C   0  0  0  0  0  0  0  0  0  0  0  0
  -31.5515   -8.3320  142.1968 F   0  0  0  0  0  0  0  0  0  0  0  0
  -30.5828  -10.2195  141.5465 F   0  0  0  0  0  0  0  0  0  0  0  0
  -29.4954   -8.4041  141.5240 F   0  0  0  0  0  0  0  0  0  0  0  0
  -23.8841  -17.3998  149.2821 C   0  0  0  0  0  0  0  0  0  0  0  0
  -24.6665  -17.1980  150.4240 C   0  0  0  0  0  0  0  0  0  0  0  0
  -23.5463  -15.7325  144.1237 O   0  0  0  0  0  0  0  0  0  0  0  0
  -28.5222  -14.5950  147.4749 C   0  0  0  0  0  0  0  0  0  0  0  0
  -28.7482  -15.9286  147.9182 C   0  0  0  0  0  0  0  0  0  0  0  0
  -28.0885  -17.0640  147.4263 C   0  0  0  0  0  0  0  0  0  0  0  0
  -26.9527  -16.7492  146.5052 C   0  0  0  0  0  0  0  0  0  0  0  0
  -26.5483  -17.6514  145.9357 O   0  0  0  0  0  0  0  0  0  0  0  0
  -26.0555  -17.4785  150.3614 C   0  0  0  0  0  0  0  0  0  0  0  0
  -29.3880  -13.5124  147.9197 C   0  0  0  0  0  0  0  0  0  0  0  0
  -29.3003  -12.2023  147.5687 C   0  0  0  0  0  0  0  0  0  0  0  0
  -28.4644  -11.8423  146.4191 C   0  0  0  0  0  0  0  0  0  0  0  0
  -24.6512  -15.8237  147.7845 C   0  0  0  0  0  0  0  0  0  0  0  0
  -22.7620  -16.9771  149.0635 O   0  0  0  0  0  0  0  0  0  0  0  0
  -31.3294   -9.4795  144.4279 O   0  0  0  0  0  0  0  0  0  0  0  0
  1  2  2  0
  2  3  1  0
  3  4  1  0
  4  5  1  0
  7  8  1  0
  8  9  1  0
  4 10  1  0
  8 10  1  0
  9 11  1  0
  2 12  1  0
 12 13  1  0
 11 14  1  0
 14 15  1  0
 15 16  1  0
 16 17  1  0
 17 18  1  0
 17 19  1  0
 17 20  1  0
 13 21  1  0
 21 22  1  0
  3 23  2  0
 27 28  1  0
 22 29  1  0
 12 33  1  0
 21 34  1  0
 16 35  1  0
  5  6  1  0
 24 25  1  0
 25 26  2  0
 26 27  1  0
 27  5  2  0
  6  7  2  0
  7 32  1  0
 32 31  2  0
 31 30  1  0
 30 24  2  0
 24  6  1  0
M  END

$$$$
No_1762-/dssg/home/sw_qyf/PocketFlow/Model-Generation-Results/5HT2A_7WC7_rec_A_10.pdb/2024-01-01-03-54-21/
     RDKit          3D

 11 10  0  0  0  0  0  0  0  0999 V2000
  -24.1553  -17.8465  145.7021 C   0  0  0  0  0  0  0  0  0  0  0  0
  -23.9795  -18.4462  146.7426 C   0  0  0  0  0  0  0  0  0  0  0  0
  -25.1196  -16.8106  145.6409 C   0  0  0  0  0  0  0  0  0  0  0  0
  -25.9236  -16.5070  146.7422 C   0  0  0  0  0  0  0  0  0  0  0  0
  -26.9537  -15.5312  146.7010 C   0  0  0  0  0  0  0  0  0  0  0  0
  -26.9449  -14.6598  146.0448 C   0  0  0  0  0  0  0  0  0  0  0  0
  -27.9199  -13.5744  145.8949 C   0  0  0  0  0  0  0  0  0  0  0  0
  -29.0833  -13.7307  146.7190 C   0  0  0  0  0  0  0  0  0  0  0  0
  -29.1766  -14.8696  147.5237 C   0  0  0  0  0  0  0  0  0  0  0  0
  -28.1293  -15.8202  147.5984 C   0  0  0  0  0  0  0  0  0  0  0  0
  -28.1554  -16.9206  148.3675 N   0  0  0  0  0  0  0  0  0  0  0  0
  1  2  2  0
  1  3  1  0
  3  4  2  3
  4  5  1  0
  5  6  2  3
  6  7  1  0
  7  8  2  3
  8  9  1  0
  9 10  1  0
 10 11  1  0
M  END

$$$$
No_1763-/dssg/home/sw_qyf/PocketFlow/Model-Generation-Results/5HT2A_7WC7_rec_A_10.pdb/2024-01-01-03-54-21/
     RDKit          3D

 27 28  0  0  0  0  0  0  0  0999 V2000
  -23.1746  -16.6014  144.8668 C   0  0  0  0  0  0  0  0  0  0  0  0
  -23.8963  -15.5346  144.7885 C   0  0  0  0  0  0  0  0  0  0  0  0
  -23.4976  -14.2961  145.1226 C   0  0  0  0  0  0  0  0  0  0  0  0
  -23.9189  -13.0599  144.7480 C   0  0  0  0  0  0  0  0  0  0  0  0
  -24.2391  -12.1464  145.9050 C   0  0  0  0  0  0  0  0  0  0  0  0
  -25.3079  -11.1941  145.5538 C   0  0  0  0  0  0  0  0  0  0  0  0
  -26.5792  -11.7884  145.0618 C   0  0  0  0  0  0  0  0  0  0  0  0
  -27.2897  -12.5693  145.9274 C   0  0  0  0  0  0  0  0  0  0  0  0
  -28.6643  -12.2017  146.2787 C   0  0  0  0  0  0  0  0  0  0  0  0
  -29.2917  -11.0872  145.8124 C   0  0  0  0  0  0  0  0  0  0  0  0
  -30.6885  -10.9639  145.7272 C   0  0  0  0  0  0  0  0  0  0  0  0
  -29.3586  -13.0312  147.3055 C   0  0  0  0  0  0  0  0  0  0  0  0
  -29.2292  -14.3931  147.3468 C   0  0  0  0  0  0  0  0  0  0  0  0
  -27.9408  -14.8865  147.2440 C   0  0  0  0  0  0  0  0  0  0  0  0
  -26.9749  -14.0200  146.3757 C   0  0  0  0  0  0  0  0  0  0  0  0
  -31.0287   -9.6953  145.0754 C   0  0  0  0  0  0  0  0  0  0  0  0
  -30.4344   -9.3697  143.7931 C   0  0  0  0  0  0  0  0  0  0  0  0
  -30.9501   -9.8636  142.7829 C   0  0  0  0  0  0  0  0  0  0  0  0
  -30.0703   -9.5115  141.6318 C   0  0  0  0  0  0  0  0  0  0  0  0
  -28.9516  -10.1731  141.2794 C   0  0  0  0  0  0  0  0  0  0  0  0
  -28.5936  -11.3526  142.0034 C   0  0  0  0  0  0  0  0  0  0  0  0
  -27.5999  -12.1849  141.4292 C   0  0  0  0  0  0  0  0  0  0  0  0
  -27.1248  -11.9810  140.1656 C   0  0  0  0  0  0  0  0  0  0  0  0
  -26.5361  -12.9828  139.3312 C   0  0  0  0  0  0  0  0  0  0  0  0
  -28.2322   -9.9060  140.1013 C   0  0  0  0  0  0  0  0  0  0  0  0
  -27.4174  -10.7684  139.4686 C   0  0  0  0  0  0  0  0  0  0  0  0
  -25.8675  -12.5956  138.2826 N   0  0  0  0  0  0  0  0  0  0  0  0
  1  2  2  0
  2  3  1  0
  3  4  1  0
  4  5  1  0
  5  6  1  0
  6  7  1  0
  7  8  1  0
  9 10  1  0
 10 11  2  3
 11 16  1  0
 16 17  1  0
 17 18  2  3
 18 19  1  0
 24 27  1  0
 24 23  1  0
 19 20  1  0
 20 21  2  0
 21 22  1  0
 22 23  2  0
 23 26  1  0
 26 25  2  0
 25 20  1  0
  8  9  2  0
  9 12  1  0
 12 13  2  0
 13 14  1  0
 14 15  2  0
 15  8  1  0
M  END

$$$$
No_1764-/dssg/home/sw_qyf/PocketFlow/Model-Generation-Results/5HT2A_7WC7_rec_A_10.pdb/2024-01-01-03-54-21/
     RDKit          3D

 18 20  0  0  0  0  0  0  0  0999 V2000
  -23.1746  -16.6014  144.8668 C   0  0  0  0  0  0  0  0  0  0  0  0
  -23.7011  -17.0158  145.9774 C   0  0  0  0  0  0  0  0  0  0  0  0
  -24.2134  -16.0722  146.8877 C   0  0  0  0  0  0  0  0  0  0  0  0
  -24.7882  -16.3410  148.2078 C   0  0  0  0  0  0  0  0  0  0  0  0
  -23.4231  -15.2781  144.3679 C   0  0  0  0  0  0  0  0  0  0  0  0
  -24.0726  -14.2968  145.2170 C   0  0  0  0  0  0  0  0  0  0  0  0
  -24.2425  -12.9518  144.8262 C   0  0  0  0  0  0  0  0  0  0  0  0
  -24.4659  -14.7142  146.4566 C   0  0  0  0  0  0  0  0  0  0  0  0
  -23.1680  -12.0564  145.4906 C   0  0  0  0  0  0  0  0  0  0  0  0
  -26.2044  -16.6318  148.3487 C   0  0  0  0  0  0  0  0  0  0  0  0
  -27.1262  -15.8652  147.7229 C   0  0  0  0  0  0  0  0  0  0  0  0
  -28.5074  -16.0678  147.9963 C   0  0  0  0  0  0  0  0  0  0  0  0
  -29.5065  -15.2779  147.3739 C   0  0  0  0  0  0  0  0  0  0  0  0
  -29.0463  -14.1313  146.6842 C   0  0  0  0  0  0  0  0  0  0  0  0
  -27.6981  -13.8849  146.4105 C   0  0  0  0  0  0  0  0  0  0  0  0
  -26.7282  -14.7173  147.0523 C   0  0  0  0  0  0  0  0  0  0  0  0
  -23.4874  -18.4034  146.5083 C   0  0  0  0  0  0  0  0  0  0  0  0
  -25.9282  -14.4104  146.5456 O   0  0  0  0  0  0  0  0  0  0  0  0
  1  2  1  0
  2  3  1  0
  3  4  2  0
  1  5  1  0
  5  6  1  0
  6  7  1  0
  3  8  1  0
  6  8  1  0
  7  9  1  0
  4 10  1  0
  2 17  1  0
  8 18  1  0
 16 18  1  0
 10 11  1  0
 11 12  2  0
 12 13  1  0
 13 14  2  0
 14 15  1  0
 15 16  2  0
 16 11  1  0
M  END

$$$$
No_1765-/dssg/home/sw_qyf/PocketFlow/Model-Generation-Results/5HT2A_7WC7_rec_A_10.pdb/2024-01-01-03-54-21/
     RDKit          3D

 30 31  0  0  0  0  0  0  0  0999 V2000
  -23.1746  -16.6014  144.8668 C   0  0  0  0  0  0  0  0  0  0  0  0
  -23.8963  -15.5346  144.7885 C   0  0  0  0  0  0  0  0  0  0  0  0
  -23.6398  -14.5115  145.3281 C   0  0  0  0  0  0  0  0  0  0  0  0
  -24.3240  -13.3648  145.1281 C   0  0  0  0  0  0  0  0  0  0  0  0
  -25.5072  -13.2953  144.4353 C   0  0  0  0  0  0  0  0  0  0  0  0
  -25.9151  -14.5889  143.8605 C   0  0  0  0  0  0  0  0  0  0  0  0
  -25.1243  -15.6356  144.0574 C   0  0  0  0  0  0  0  0  0  0  0  0
  -23.5175  -17.6172  145.7856 N   0  0  0  0  0  0  0  0  0  0  0  0
  -23.5476  -17.2436  147.0473 C   0  0  0  0  0  0  0  0  0  0  0  0
  -24.8166  -17.6661  147.7629 C   0  0  0  0  0  0  0  0  0  0  0  0
  -25.5679  -16.5045  148.3087 C   0  0  0  0  0  0  0  0  0  0  0  0
  -27.0324  -16.6392  148.2423 C   0  0  0  0  0  0  0  0  0  0  0  0
  -27.6838  -15.5292  147.5353 C   0  0  0  0  0  0  0  0  0  0  0  0
  -29.0386  -15.3878  147.5374 C   0  0  0  0  0  0  0  0  0  0  0  0
  -29.6920  -14.1019  147.6436 C   0  0  0  0  0  0  0  0  0  0  0  0
  -29.1036  -12.9877  147.0758 C   0  0  0  0  0  0  0  0  0  0  0  0
  -29.7809  -11.7334  146.9895 C   0  0  0  0  0  0  0  0  0  0  0  0
  -27.7847  -13.1648  146.4991 C   0  0  0  0  0  0  0  0  0  0  0  0
  -26.9953  -14.3475  146.9771 C   0  0  0  0  0  0  0  0  0  0  0  0
  -30.6859  -11.4733  147.7463 O   0  0  0  0  0  0  0  0  0  0  0  0
  -29.6818  -10.9726  145.8286 O   0  0  0  0  0  0  0  0  0  0  0  0
  -28.6583  -11.1284  144.9975 C   0  0  0  0  0  0  0  0  0  0  0  0
  -28.4959  -10.1689  143.9445 C   0  0  0  0  0  0  0  0  0  0  0  0
  -29.2074  -10.2112  142.9841 C   0  0  0  0  0  0  0  0  0  0  0  0
  -29.0153   -9.3436  141.7880 C   0  0  0  0  0  0  0  0  0  0  0  0
  -28.6051   -9.8391  140.6342 C   0  0  0  0  0  0  0  0  0  0  0  0
  -28.4086   -8.9527  139.4800 C   0  0  0  0  0  0  0  0  0  0  0  0
  -27.9383   -9.3398  138.2253 C   0  0  0  0  0  0  0  0  0  0  0  0
  -27.8933  -10.7803  138.0947 C   0  0  0  0  0  0  0  0  0  0  0  0
  -27.9826  -11.6642  139.2019 C   0  0  0  0  0  0  0  0  0  0  0  0
  1  2  1  0
  1  8  1  0
  8  9  1  0
  9 10  1  0
 10 11  1  0
 11 12  1  0
 12 13  1  0
 16 17  1  0
 17 20  2  0
 17 21  1  0
 21 22  1  0
 22 23  1  0
 23 24  1  0
 24 25  2  3
 25 26  1  0
 26 27  2  3
 27 28  1  0
 28 29  2  3
 29 30  1  0
 13 14  2  0
 14 15  1  0
 15 16  2  0
 16 18  1  0
 18 19  2  0
 19 13  1  0
  2  3  2  0
  3  4  1  0
  4  5  2  0
  5  6  1  0
  6  7  2  0
  7  2  1  0
M  END

$$$$
No_1766-/dssg/home/sw_qyf/PocketFlow/Model-Generation-Results/5HT2A_7WC7_rec_A_10.pdb/2024-01-01-03-54-21/
     RDKit          3D

 35 38  0  0  0  0  0  0  0  0999 V2000
  -23.1746  -16.6014  144.8668 C   0  0  0  0  0  0  0  0  0  0  0  0
  -23.8963  -15.5346  144.7885 C   0  0  0  0  0  0  0  0  0  0  0  0
  -25.0304  -15.2549  144.5358 C   0  0  0  0  0  0  0  0  0  0  0  0
  -25.5568  -13.9763  144.1380 C   0  0  0  0  0  0  0  0  0  0  0  0
  -25.0951  -12.9271  144.8572 C   0  0  0  0  0  0  0  0  0  0  0  0
  -23.6209  -13.0553  145.1873 C   0  0  0  0  0  0  0  0  0  0  0  0
  -23.0951  -14.3516  145.2639 N   0  0  0  0  0  0  0  0  0  0  0  0
  -25.3807  -11.5548  144.4034 N   0  0  0  0  0  0  0  0  0  0  0  0
  -24.0133  -17.9194  144.9474 C   0  0  0  0  0  0  0  0  0  0  0  0
  -23.4071  -18.9532  145.7276 C   0  0  0  0  0  0  0  0  0  0  0  0
  -24.1353  -19.0213  146.8739 O   0  0  0  0  0  0  0  0  0  0  0  0
  -27.1155  -13.9101  144.0278 C   0  0  0  0  0  0  0  0  0  0  0  0
  -27.5188  -12.8888  143.1323 C   0  0  0  0  0  0  0  0  0  0  0  0
  -26.8945  -11.3400  144.4583 C   0  0  0  0  0  0  0  0  0  0  0  0
  -27.6324  -11.5748  143.4411 C   0  0  0  0  0  0  0  0  0  0  0  0
  -29.0836  -11.1425  143.6438 C   0  0  0  0  0  0  0  0  0  0  0  0
  -29.3043   -9.6092  143.5081 C   0  0  0  0  0  0  0  0  0  0  0  0
  -30.6099   -9.1616  143.6333 C   0  0  0  0  0  0  0  0  0  0  0  0
  -31.2512   -9.6054  144.5505 F   0  0  0  0  0  0  0  0  0  0  0  0
  -31.2329   -9.0242  142.5435 F   0  0  0  0  0  0  0  0  0  0  0  0
  -22.8904  -12.1044  145.6188 O   0  0  0  0  0  0  0  0  0  0  0  0
  -24.6785  -17.7875  147.3812 C   0  0  0  0  0  0  0  0  0  0  0  0
  -24.1653  -17.0844  148.1174 C   0  0  0  0  0  0  0  0  0  0  0  0
  -24.7860  -16.6260  149.1386 C   0  0  0  0  0  0  0  0  0  0  0  0
  -26.2696  -16.5414  149.0371 C   0  0  0  0  0  0  0  0  0  0  0  0
  -26.1204  -18.0513  148.1710 C   0  0  0  0  0  0  0  0  0  0  0  0
  -27.1304  -17.8197  147.1966 O   0  0  0  0  0  0  0  0  0  0  0  0
  -27.3043  -16.6278  147.8083 C   0  0  0  0  0  0  0  0  0  0  0  0
  -28.1115  -15.7118  147.3976 C   0  0  0  0  0  0  0  0  0  0  0  0
  -27.8585  -14.3608  147.5518 C   0  0  0  0  0  0  0  0  0  0  0  0
  -28.7885  -13.3198  147.1740 C   0  0  0  0  0  0  0  0  0  0  0  0
  -29.7572  -12.9103  147.9607 C   0  0  0  0  0  0  0  0  0  0  0  0
  -30.6009  -13.7593  148.5428 C   0  0  0  0  0  0  0  0  0  0  0  0
  -31.7334  -13.3310  149.3535 C   0  0  0  0  0  0  0  0  0  0  0  0
  -31.9858  -11.9929  149.3940 C   0  0  0  0  0  0  0  0  0  0  0  0
  1  2  1  0
  2  3  1  0
  3  4  1  0
  4  5  1  0
  5  6  1  0
  2  7  1  0
  6  7  1  0
  5  8  1  0
  1  9  1  0
  9 10  1  0
 10 11  1  0
  4 12  1  0
 12 13  1  0
  8 14  1  0
 13 15  1  0
 14 15  1  0
 15 16  1  0
 16 17  1  0
 17 18  1  0
 18 19  1  0
 18 20  1  0
  6 21  2  0
 11 22  1  0
 22 23  2  0
 23 24  1  0
 24 25  2  0
 22 26  1  0
 25 26  1  0
 26 27  1  0
 25 28  1  0
 27 28  1  0
 28 29  1  0
 29 30  2  3
 30 31  1  0
 31 32  1  0
 32 33  1  0
 33 34  2  3
 34 35  1  0
M  END

$$$$
No_1767-/dssg/home/sw_qyf/PocketFlow/Model-Generation-Results/5HT2A_7WC7_rec_A_10.pdb/2024-01-01-03-54-21/
     RDKit          3D

 33 37  0  0  0  0  0  0  0  0999 V2000
  -24.1553  -17.8465  145.7021 C   0  0  0  0  0  0  0  0  0  0  0  0
  -24.6364  -17.2931  146.7091 C   0  0  0  0  0  0  0  0  0  0  0  0
  -25.8608  -16.5592  146.5934 C   0  0  0  0  0  0  0  0  0  0  0  0
  -26.9933  -16.9082  147.1889 C   0  0  0  0  0  0  0  0  0  0  0  0
  -28.2350  -16.1839  146.8943 C   0  0  0  0  0  0  0  0  0  0  0  0
  -28.1591  -14.9305  146.2109 C   0  0  0  0  0  0  0  0  0  0  0  0
  -26.9098  -14.5235  145.6600 C   0  0  0  0  0  0  0  0  0  0  0  0
  -25.7460  -15.3614  145.8720 C   0  0  0  0  0  0  0  0  0  0  0  0
  -26.8049  -13.2839  144.9023 C   0  0  0  0  0  0  0  0  0  0  0  0
  -26.5767  -13.3510  143.6470 C   0  0  0  0  0  0  0  0  0  0  0  0
  -27.3957  -12.6892  142.6649 C   0  0  0  0  0  0  0  0  0  0  0  0
  -28.1046  -11.5338  142.9810 C   0  0  0  0  0  0  0  0  0  0  0  0
  -28.8862  -10.7986  142.0995 C   0  0  0  0  0  0  0  0  0  0  0  0
  -29.7724   -9.7705  142.5668 C   0  0  0  0  0  0  0  0  0  0  0  0
  -30.5738   -8.9763  141.7557 C   0  0  0  0  0  0  0  0  0  0  0  0
  -27.0870  -12.0504  145.5926 C   0  0  0  0  0  0  0  0  0  0  0  0
  -27.8570  -11.1195  144.6460 C   0  0  0  0  0  0  0  0  0  0  0  0
  -23.9995  -17.4558  148.0665 C   0  0  0  0  0  0  0  0  0  0  0  0
  -23.3171  -16.4274  148.6265 C   0  0  0  0  0  0  0  0  0  0  0  0
  -23.5944  -17.0121  144.3946 Cl  0  0  0  0  0  0  0  0  0  0  0  0
  -24.0979  -19.2928  145.5632 C   0  0  0  0  0  0  0  0  0  0  0  0
  -30.5356   -7.7262  141.8365 C   0  0  0  0  0  0  0  0  0  0  0  0
  -30.2790   -7.0547  143.0725 C   0  0  0  0  0  0  0  0  0  0  0  0
  -29.6058   -7.9014  144.0023 C   0  0  0  0  0  0  0  0  0  0  0  0
  -29.1796   -9.1427  143.7410 C   0  0  0  0  0  0  0  0  0  0  0  0
  -28.3407   -9.9470  144.6991 C   0  0  0  0  0  0  0  0  0  0  0  0
  -22.6199  -16.7103  149.8997 C   0  0  0  0  0  0  0  0  0  0  0  0
  -22.9585  -16.9481  150.9340 N   0  0  0  0  0  0  0  0  0  0  0  0
  -29.0467  -11.3349  140.9845 O   0  0  0  0  0  0  0  0  0  0  0  0
  -27.8712  -11.6546  140.2508 C   0  0  0  0  0  0  0  0  0  0  0  0
  -27.5613  -12.8632  140.0855 C   0  0  0  0  0  0  0  0  0  0  0  0
  -26.9467  -13.4199  141.3346 C   0  0  0  0  0  0  0  0  0  0  0  0
  -27.4548  -10.5556  139.3316 C   0  0  0  0  0  0  0  0  0  0  0  0
  1  2  1  0
  2  3  1  0
  7  9  1  0
  2 18  1  0
 18 19  2  3
  1 20  1  0
  1 21  1  0
 19 27  1  0
 27 28  3  0
 13 29  1  0
 29 30  1  0
 30 31  1  0
 11 32  1  0
 31 32  1  0
 30 33  1  0
 12 13  1  0
 13 14  2  0
 25 26  2  0
 26 17  1  0
  3  4  2  0
  4  5  1  0
  5  6  2  0
  6  7  1  0
  7  8  2  0
  8  3  1  0
  9 10  2  0
 10 11  1  0
 11 12  2  0
 12 17  1  0
 17 16  2  0
 16  9  1  0
 14 15  1  0
 15 22  2  0
 22 23  1  0
 23 24  2  0
 24 25  1  0
 25 14  1  0
M  END

$$$$
No_1768-/dssg/home/sw_qyf/PocketFlow/Model-Generation-Results/5HT2A_7WC7_rec_A_10.pdb/2024-01-01-03-54-21/
     RDKit          3D

 28 30  0  0  0  0  0  0  0  0999 V2000
  -24.1553  -17.8465  145.7021 C   0  0  0  0  0  0  0  0  0  0  0  0
  -23.9795  -18.4462  146.7426 C   0  0  0  0  0  0  0  0  0  0  0  0
  -24.2723  -16.4220  145.8037 C   0  0  0  0  0  0  0  0  0  0  0  0
  -24.9934  -15.8373  146.8363 C   0  0  0  0  0  0  0  0  0  0  0  0
  -24.4240  -17.9698  148.0343 C   0  0  0  0  0  0  0  0  0  0  0  0
  -24.7712  -16.6380  148.1358 C   0  0  0  0  0  0  0  0  0  0  0  0
  -24.1704  -15.5702  144.5991 C   0  0  0  0  0  0  0  0  0  0  0  0
  -23.2696  -14.4562  144.8322 C   0  0  0  0  0  0  0  0  0  0  0  0
  -23.9924  -13.2340  145.2631 C   0  0  0  0  0  0  0  0  0  0  0  0
  -23.3109  -11.9759  145.1012 C   0  0  0  0  0  0  0  0  0  0  0  0
  -25.2570  -13.2583  145.8448 C   0  0  0  0  0  0  0  0  0  0  0  0
  -26.1862  -12.4461  145.4288 C   0  0  0  0  0  0  0  0  0  0  0  0
  -27.2984  -12.0911  146.2339 C   0  0  0  0  0  0  0  0  0  0  0  0
  -28.5110  -12.1984  145.5060 C   0  0  0  0  0  0  0  0  0  0  0  0
  -28.6816  -11.2908  144.4438 C   0  0  0  0  0  0  0  0  0  0  0  0
  -27.6932  -11.4352  143.4396 C   0  0  0  0  0  0  0  0  0  0  0  0
  -27.8231  -10.8464  142.2006 C   0  0  0  0  0  0  0  0  0  0  0  0
  -27.3687  -11.5217  141.0293 C   0  0  0  0  0  0  0  0  0  0  0  0
  -27.2182  -10.8821  139.7695 C   0  0  0  0  0  0  0  0  0  0  0  0
  -26.8031  -11.5541  138.6762 C   0  0  0  0  0  0  0  0  0  0  0  0
  -26.6463  -12.3451  143.8875 C   0  0  0  0  0  0  0  0  0  0  0  0
  -29.7557  -10.3753  144.2738 C   0  0  0  0  0  0  0  0  0  0  0  0
  -29.9840   -9.6601  143.0855 C   0  0  0  0  0  0  0  0  0  0  0  0
  -28.9964  -10.0010  141.9694 C   0  0  0  0  0  0  0  0  0  0  0  0
  -31.0651   -8.8386  142.8848 C   0  0  0  0  0  0  0  0  0  0  0  0
  -31.2450   -8.1669  141.8816 O   0  0  0  0  0  0  0  0  0  0  0  0
  -31.6556   -8.3078  144.0001 O   0  0  0  0  0  0  0  0  0  0  0  0
  -21.9755  -11.9495  144.7589 N   0  0  0  0  0  0  0  0  0  0  0  0
  3  7  1  0
  7  8  1  0
  8  9  1  0
  9 10  2  3
  9 11  1  0
 11 12  1  0
 12 13  1  0
 13 14  1  0
 14 15  1  0
 18 19  1  0
 19 20  1  0
 12 21  1  0
 16 21  1  0
 23 25  1  0
 25 26  2  0
 25 27  1  0
 10 28  1  0
 18 17  1  0
  1  2  2  0
  2  5  1  0
  5  6  2  0
  6  4  1  0
  4  3  2  0
  3  1  1  0
 15 16  2  0
 16 17  1  0
 17 24  2  0
 24 23  1  0
 23 22  2  0
 22 15  1  0
M  END

$$$$
No_1769-/dssg/home/sw_qyf/PocketFlow/Model-Generation-Results/5HT2A_7WC7_rec_A_10.pdb/2024-01-01-03-54-21/
     RDKit          3D

 27 30  0  0  0  0  0  0  0  0999 V2000
  -23.1746  -16.6014  144.8668 C   0  0  0  0  0  0  0  0  0  0  0  0
  -23.7011  -17.0158  145.9774 C   0  0  0  0  0  0  0  0  0  0  0  0
  -24.2134  -16.0722  146.8877 C   0  0  0  0  0  0  0  0  0  0  0  0
  -24.7882  -16.3410  148.2078 C   0  0  0  0  0  0  0  0  0  0  0  0
  -23.4195  -15.3117  144.4058 N   0  0  0  0  0  0  0  0  0  0  0  0
  -24.0293  -14.3329  145.1837 C   0  0  0  0  0  0  0  0  0  0  0  0
  -24.4619  -14.7230  146.4870 C   0  0  0  0  0  0  0  0  0  0  0  0
  -24.1133  -13.0760  144.7254 N   0  0  0  0  0  0  0  0  0  0  0  0
  -26.2040  -16.6801  148.3057 C   0  0  0  0  0  0  0  0  0  0  0  0
  -24.0040  -12.0367  145.7054 C   0  0  0  0  0  0  0  0  0  0  0  0
  -27.1407  -15.9799  147.6346 C   0  0  0  0  0  0  0  0  0  0  0  0
  -26.9656  -15.4076  146.4716 C   0  0  0  0  0  0  0  0  0  0  0  0
  -26.0143  -14.3366  146.3817 C   0  0  0  0  0  0  0  0  0  0  0  0
  -23.5336  -18.4201  146.4405 C   0  0  0  0  0  0  0  0  0  0  0  0
  -24.3507  -19.0908  146.6392 O   0  0  0  0  0  0  0  0  0  0  0  0
  -22.2752  -18.7850  146.6904 O   0  0  0  0  0  0  0  0  0  0  0  0
  -25.4448  -11.6524  146.1771 C   0  0  0  0  0  0  0  0  0  0  0  0
  -26.1780  -12.8054  146.8036 C   0  0  0  0  0  0  0  0  0  0  0  0
  -28.5703  -16.3285  147.9756 C   0  0  0  0  0  0  0  0  0  0  0  0
  -29.4270  -15.5822  147.4275 O   0  0  0  0  0  0  0  0  0  0  0  0
  -28.8811  -17.0382  148.9719 O   0  0  0  0  0  0  0  0  0  0  0  0
  -29.9935  -14.4729  148.0709 C   0  0  0  0  0  0  0  0  0  0  0  0
  -30.0635  -13.1796  147.5566 C   0  0  0  0  0  0  0  0  0  0  0  0
  -30.6416  -12.1548  148.3210 C   0  0  0  0  0  0  0  0  0  0  0  0
  -31.5648  -12.4094  149.3331 C   0  0  0  0  0  0  0  0  0  0  0  0
  -31.5168  -13.7367  149.8749 C   0  0  0  0  0  0  0  0  0  0  0  0
  -30.8081  -14.7175  149.2810 C   0  0  0  0  0  0  0  0  0  0  0  0
  1  2  1  0
  2  3  1  0
  3  4  2  0
  1  5  1  0
  5  6  1  0
  3  7  1  0
  6  7  1  0
  6  8  1  0
  4  9  1  0
  8 10  1  0
  9 11  1  0
 11 12  1  0
  7 13  1  0
 12 13  1  0
  2 14  1  0
 14 15  2  0
 14 16  1  0
 10 17  1  0
 13 18  1  0
 17 18  2  0
 11 19  1  0
 19 20  1  0
 19 21  2  0
 20 22  1  0
 22 23  2  0
 23 24  1  0
 24 25  2  0
 25 26  1  0
 26 27  2  0
 27 22  1  0
M  END

$$$$
No_1770-/dssg/home/sw_qyf/PocketFlow/Model-Generation-Results/5HT2A_7WC7_rec_A_10.pdb/2024-01-01-03-54-21/
     RDKit          3D

 35 37  0  0  0  0  0  0  0  0999 V2000
  -23.1746  -16.6014  144.8668 C   0  0  0  0  0  0  0  0  0  0  0  0
  -23.8963  -15.5346  144.7885 C   0  0  0  0  0  0  0  0  0  0  0  0
  -24.6479  -15.0447  145.8164 C   0  0  0  0  0  0  0  0  0  0  0  0
  -24.7862  -15.8388  146.9698 C   0  0  0  0  0  0  0  0  0  0  0  0
  -24.1166  -17.0524  147.0353 C   0  0  0  0  0  0  0  0  0  0  0  0
  -23.3137  -17.4410  145.9820 C   0  0  0  0  0  0  0  0  0  0  0  0
  -25.4262  -13.7479  145.7890 C   0  0  0  0  0  0  0  0  0  0  0  0
  -24.7157  -12.7136  146.0852 C   0  0  0  0  0  0  0  0  0  0  0  0
  -25.3101  -11.3838  146.0425 C   0  0  0  0  0  0  0  0  0  0  0  0
  -26.6131  -11.2668  145.4660 C   0  0  0  0  0  0  0  0  0  0  0  0
  -27.3107  -12.4053  145.1734 C   0  0  0  0  0  0  0  0  0  0  0  0
  -26.7192  -13.6870  145.3534 C   0  0  0  0  0  0  0  0  0  0  0  0
  -24.1618  -17.8564  148.3245 C   0  0  0  0  0  0  0  0  0  0  0  0
  -23.3682  -17.3023  149.4648 C   0  0  0  0  0  0  0  0  0  0  0  0
  -24.0220  -16.4422  150.4348 C   0  0  0  0  0  0  0  0  0  0  0  0
  -23.8470  -14.6965  143.7155 O   0  0  0  0  0  0  0  0  0  0  0  0
  -27.4080  -14.7703  145.0242 O   0  0  0  0  0  0  0  0  0  0  0  0
  -28.5766  -12.2528  144.7348 O   0  0  0  0  0  0  0  0  0  0  0  0
  -29.2901  -11.4870  145.6169 C   0  0  0  0  0  0  0  0  0  0  0  0
  -29.9798  -10.2655  145.1778 C   0  0  0  0  0  0  0  0  0  0  0  0
  -30.3550  -10.3464  144.2272 O   0  0  0  0  0  0  0  0  0  0  0  0
  -30.7238   -9.0565  143.6227 C   0  0  0  0  0  0  0  0  0  0  0  0
  -30.3249   -8.6189  142.5402 C   0  0  0  0  0  0  0  0  0  0  0  0
  -30.1781   -7.2478  142.2069 C   0  0  0  0  0  0  0  0  0  0  0  0
  -28.9917   -6.8738  141.3867 C   0  0  0  0  0  0  0  0  0  0  0  0
  -28.8400   -7.7067  140.2072 C   0  0  0  0  0  0  0  0  0  0  0  0
  -29.1290   -7.3280  138.9193 C   0  0  0  0  0  0  0  0  0  0  0  0
  -28.6664   -8.3816  137.9446 C   0  0  0  0  0  0  0  0  0  0  0  0
  -27.9927   -9.4661  138.4836 C   0  0  0  0  0  0  0  0  0  0  0  0
  -28.2050   -9.0694  140.1093 C   0  0  0  0  0  0  0  0  0  0  0  0
  -27.7263   -9.9149  141.1415 C   0  0  0  0  0  0  0  0  0  0  0  0
  -27.1871  -11.0077  140.7146 O   0  0  0  0  0  0  0  0  0  0  0  0
  -27.9594  -12.0778  140.2773 C   0  0  0  0  0  0  0  0  0  0  0  0
  -28.0167  -13.1007  141.2747 C   0  0  0  0  0  0  0  0  0  0  0  0
  -26.9067  -12.7542  142.2646 C   0  0  0  0  0  0  0  0  0  0  0  0
  3  7  1  0
  5 13  1  0
 13 14  1  0
 14 15  2  0
  2 16  1  0
 12 17  1  0
 11 18  1  0
 18 19  1  0
 19 20  1  0
 20 21  1  0
 21 22  1  0
 22 23  1  0
 23 24  2  3
 24 25  1  0
 25 26  1  0
 26 27  1  0
 27 28  1  0
 28 29  2  0
 26 30  1  0
 29 30  1  0
 30 31  1  0
 31 32  1  0
 32 33  1  0
 33 34  1  0
 34 35  1  0
  1  2  2  0
  2  3  1  0
  3  4  2  0
  4  5  1  0
  5  6  2  0
  6  1  1  0
  7  8  2  0
  8  9  1  0
  9 10  2  0
 10 11  1  0
 11 12  2  0
 12  7  1  0
M  END

$$$$
No_1771-/dssg/home/sw_qyf/PocketFlow/Model-Generation-Results/5HT2A_7WC7_rec_A_10.pdb/2024-01-01-03-54-21/
     RDKit          3D

 23 25  0  0  0  0  0  0  0  0999 V2000
  -24.1553  -17.8465  145.7021 C   0  0  0  0  0  0  0  0  0  0  0  0
  -23.9795  -18.4462  146.7426 C   0  0  0  0  0  0  0  0  0  0  0  0
  -25.1593  -16.8262  145.6925 C   0  0  0  0  0  0  0  0  0  0  0  0
  -24.9465  -15.5961  144.9952 C   0  0  0  0  0  0  0  0  0  0  0  0
  -25.8223  -14.4752  145.0170 C   0  0  0  0  0  0  0  0  0  0  0  0
  -25.3149  -13.2314  145.2660 C   0  0  0  0  0  0  0  0  0  0  0  0
  -23.8858  -13.0138  145.0457 C   0  0  0  0  0  0  0  0  0  0  0  0
  -23.3112  -11.7242  145.3808 C   0  0  0  0  0  0  0  0  0  0  0  0
  -24.5759  -18.0102  147.9763 C   0  0  0  0  0  0  0  0  0  0  0  0
  -25.4971  -17.0336  148.0597 C   0  0  0  0  0  0  0  0  0  0  0  0
  -25.6862  -16.2140  146.9142 C   0  0  0  0  0  0  0  0  0  0  0  0
  -23.3814  -13.6093  143.7325 C   0  0  0  0  0  0  0  0  0  0  0  0
  -23.4499  -15.1163  144.1265 C   0  0  0  0  0  0  0  0  0  0  0  0
  -26.4932  -15.2513  147.1495 O   0  0  0  0  0  0  0  0  0  0  0  0
  -26.6506  -14.4369  143.6732 C   0  0  0  0  0  0  0  0  0  0  0  0
  -27.7149  -15.3417  147.4627 C   0  0  0  0  0  0  0  0  0  0  0  0
  -28.6137  -14.2509  147.4087 C   0  0  0  0  0  0  0  0  0  0  0  0
  -29.9526  -14.3796  147.8123 C   0  0  0  0  0  0  0  0  0  0  0  0
  -30.8703  -13.3029  147.7019 C   0  0  0  0  0  0  0  0  0  0  0  0
  -30.3005  -12.0764  147.2097 C   0  0  0  0  0  0  0  0  0  0  0  0
  -28.9693  -11.9241  146.8078 C   0  0  0  0  0  0  0  0  0  0  0  0
  -28.1039  -13.0457  146.9503 C   0  0  0  0  0  0  0  0  0  0  0  0
  -23.6803  -18.2546  144.5763 O   0  0  0  0  0  0  0  0  0  0  0  0
  3  4  1  0
  7  8  1  0
 11 14  1  0
  5 15  1  0
 14 16  1  0
  1 23  1  0
 16 17  1  0
  4  5  2  0
  5  6  1  0
  6  7  2  0
  7 12  1  0
 12 13  2  0
 13  4  1  0
  1  2  2  0
  2  9  1  0
  9 10  2  0
 10 11  1  0
 11  3  2  0
  3  1  1  0
 17 18  2  0
 18 19  1  0
 19 20  2  0
 20 21  1  0
 21 22  2  0
 22 17  1  0
M  END

$$$$
No_1772-/dssg/home/sw_qyf/PocketFlow/Model-Generation-Results/5HT2A_7WC7_rec_A_10.pdb/2024-01-01-03-54-21/
     RDKit          3D

 30 32  0  0  0  0  0  0  0  0999 V2000
  -23.1746  -16.6014  144.8668 C   0  0  0  0  0  0  0  0  0  0  0  0
  -23.7011  -17.0158  145.9774 C   0  0  0  0  0  0  0  0  0  0  0  0
  -24.7096  -16.6222  146.3577 C   0  0  0  0  0  0  0  0  0  0  0  0
  -25.2589  -16.9410  147.8027 C   0  0  0  0  0  0  0  0  0  0  0  0
  -26.4623  -16.4173  148.3313 C   0  0  0  0  0  0  0  0  0  0  0  0
  -23.7746  -15.4747  144.2302 C   0  0  0  0  0  0  0  0  0  0  0  0
  -24.8824  -14.8618  144.8182 C   0  0  0  0  0  0  0  0  0  0  0  0
  -25.3598  -15.4040  145.9867 C   0  0  0  0  0  0  0  0  0  0  0  0
  -27.1003  -15.3469  147.6429 C   0  0  0  0  0  0  0  0  0  0  0  0
  -26.5551  -14.8104  146.5113 C   0  0  0  0  0  0  0  0  0  0  0  0
  -27.2534  -13.7110  145.8946 C   0  0  0  0  0  0  0  0  0  0  0  0
  -26.8368  -12.9754  144.8360 C   0  0  0  0  0  0  0  0  0  0  0  0
  -27.5321  -11.9003  144.2951 C   0  0  0  0  0  0  0  0  0  0  0  0
  -28.6123  -11.2989  145.0662 C   0  0  0  0  0  0  0  0  0  0  0  0
  -28.9942  -12.0040  146.3103 C   0  0  0  0  0  0  0  0  0  0  0  0
  -30.0545  -11.4843  147.1832 C   0  0  0  0  0  0  0  0  0  0  0  0
  -28.3098  -13.1520  146.7340 C   0  0  0  0  0  0  0  0  0  0  0  0
  -30.1795  -12.0498  148.3016 O   0  0  0  0  0  0  0  0  0  0  0  0
  -30.6470  -10.4141  146.8662 O   0  0  0  0  0  0  0  0  0  0  0  0
  -22.9905  -18.3104  146.5301 C   0  0  0  0  0  0  0  0  0  0  0  0
  -21.9130  -18.5037  146.4480 O   0  0  0  0  0  0  0  0  0  0  0  0
  -23.8097  -19.0899  147.3346 N   0  0  0  0  0  0  0  0  0  0  0  0
  -29.2286  -10.2200  144.6630 O   0  0  0  0  0  0  0  0  0  0  0  0
  -28.6980   -9.5757  143.6745 C   0  0  0  0  0  0  0  0  0  0  0  0
  -29.5385   -9.3866  142.5340 C   0  0  0  0  0  0  0  0  0  0  0  0
  -29.0587   -9.0682  141.3343 C   0  0  0  0  0  0  0  0  0  0  0  0
  -29.6697   -8.1342  140.5279 C   0  0  0  0  0  0  0  0  0  0  0  0
  -29.0797   -7.5586  139.3507 C   0  0  0  0  0  0  0  0  0  0  0  0
  -28.0636   -8.3439  138.7394 C   0  0  0  0  0  0  0  0  0  0  0  0
  -27.5260   -9.4532  139.4680 C   0  0  0  0  0  0  0  0  0  0  0  0
 10 11  1  0
 16 18  1  0
 16 19  1  0
  2 20  1  0
 20 21  2  0
 20 22  1  0
 14 23  1  0
 23 24  1  0
 24 25  1  0
 25 26  2  3
 26 27  1  0
 27 28  2  3
 28 29  1  0
 29 30  2  0
 16 15  1  0
 11 12  2  0
 12 13  1  0
 13 14  2  0
 14 15  1  0
 15 17  2  0
 17 11  1  0
  1  2  2  0
  2  3  1  0
  8  7  1  0
  7  6  2  0
  6  1  1  0
  3  4  2  0
  4  5  1  0
  5  9  2  0
  9 10  1  0
 10  8  2  0
  8  3  1  0
M  END

$$$$
No_1773-/dssg/home/sw_qyf/PocketFlow/Model-Generation-Results/5HT2A_7WC7_rec_A_10.pdb/2024-01-01-03-54-21/
     RDKit          3D

 16 16  0  0  0  0  0  0  0  0999 V2000
  -23.1746  -16.6014  144.8668 C   0  0  0  0  0  0  0  0  0  0  0  0
  -23.8963  -15.5346  144.7885 C   0  0  0  0  0  0  0  0  0  0  0  0
  -24.5755  -15.0383  145.9043 C   0  0  0  0  0  0  0  0  0  0  0  0
  -25.0618  -13.6819  146.0347 C   0  0  0  0  0  0  0  0  0  0  0  0
  -24.0242  -12.8249  145.9593 C   0  0  0  0  0  0  0  0  0  0  0  0
  -23.8786  -17.6652  145.6663 C   0  0  0  0  0  0  0  0  0  0  0  0
  -23.0505  -19.3050  146.0027 Br  0  0  0  0  0  0  0  0  0  0  0  0
  -23.7333  -12.2808  144.6253 C   0  0  0  0  0  0  0  0  0  0  0  0
  -24.7794  -16.0654  146.9905 C   0  0  0  0  0  0  0  0  0  0  0  0
  -24.2878  -17.2560  147.0447 C   0  0  0  0  0  0  0  0  0  0  0  0
  -26.3753  -13.2936  146.1867 C   0  0  0  0  0  0  0  0  0  0  0  0
  -27.2706  -14.1703  146.6070 C   0  0  0  0  0  0  0  0  0  0  0  0
  -28.6434  -13.6628  146.8196 C   0  0  0  0  0  0  0  0  0  0  0  0
  -29.7325  -14.3187  147.4984 C   0  0  0  0  0  0  0  0  0  0  0  0
  -28.8863  -12.2468  146.5877 C   0  0  0  0  0  0  0  0  0  0  0  0
  -30.1964  -11.6628  146.8902 C   0  0  0  0  0  0  0  0  0  0  0  0
  1  2  1  0
  2  3  1  0
  3  4  1  0
  4  5  1  0
  1  6  1  0
  6  7  1  0
  5  8  1  0
  3  9  1  0
  6 10  1  0
  9 10  1  0
  4 11  1  0
 11 12  2  3
 12 13  1  0
 13 14  1  0
 13 15  1  0
 15 16  1  0
M  END

$$$$
No_1774-/dssg/home/sw_qyf/PocketFlow/Model-Generation-Results/5HT2A_7WC7_rec_A_10.pdb/2024-01-01-03-54-21/
     RDKit          3D

 35 38  0  0  0  0  0  0  0  0999 V2000
  -24.1553  -17.8465  145.7021 C   0  0  0  0  0  0  0  0  0  0  0  0
  -24.2856  -16.6364  145.3494 C   0  0  0  0  0  0  0  0  0  0  0  0
  -23.7824  -15.9602  144.3554 C   0  0  0  0  0  0  0  0  0  0  0  0
  -24.0538  -14.4894  144.2905 C   0  0  0  0  0  0  0  0  0  0  0  0
  -24.2892  -13.8815  145.5309 C   0  0  0  0  0  0  0  0  0  0  0  0
  -25.0350  -14.5660  146.5619 C   0  0  0  0  0  0  0  0  0  0  0  0
  -24.6641  -15.9485  146.6523 C   0  0  0  0  0  0  0  0  0  0  0  0
  -23.1516  -18.7677  145.5074 C   0  0  0  0  0  0  0  0  0  0  0  0
  -23.4088  -20.0472  145.9540 N   0  0  0  0  0  0  0  0  0  0  0  0
  -25.2475  -18.6727  146.3123 C   0  0  0  0  0  0  0  0  0  0  0  0
  -24.4103  -12.3255  145.4852 C   0  0  0  0  0  0  0  0  0  0  0  0
  -25.6836  -11.7550  146.0391 C   0  0  0  0  0  0  0  0  0  0  0  0
  -26.8460  -11.6605  145.2087 C   0  0  0  0  0  0  0  0  0  0  0  0
  -26.8928  -10.7472  144.2922 C   0  0  0  0  0  0  0  0  0  0  0  0
  -28.1169  -10.5332  143.5282 C   0  0  0  0  0  0  0  0  0  0  0  0
  -28.1068  -10.4800  142.2073 C   0  0  0  0  0  0  0  0  0  0  0  0
  -27.4150  -11.3633  141.4446 C   0  0  0  0  0  0  0  0  0  0  0  0
  -27.7591  -11.4855  140.1647 C   0  0  0  0  0  0  0  0  0  0  0  0
  -27.8481  -10.3437  139.3273 C   0  0  0  0  0  0  0  0  0  0  0  0
  -28.4163   -9.1887  140.0365 C   0  0  0  0  0  0  0  0  0  0  0  0
  -28.4971   -9.2690  141.4524 C   0  0  0  0  0  0  0  0  0  0  0  0
  -28.7596   -8.0171  139.3383 C   0  0  0  0  0  0  0  0  0  0  0  0
  -29.4659   -7.1820  140.0250 O   0  0  0  0  0  0  0  0  0  0  0  0
  -28.4337   -7.8227  138.1248 N   0  0  0  0  0  0  0  0  0  0  0  0
  -28.0024  -12.3891  145.5615 C   0  0  0  0  0  0  0  0  0  0  0  0
  -27.9432  -13.6403  146.2612 C   0  0  0  0  0  0  0  0  0  0  0  0
  -28.9910  -14.2260  146.9207 C   0  0  0  0  0  0  0  0  0  0  0  0
  -28.8794  -15.4888  147.4459 C   0  0  0  0  0  0  0  0  0  0  0  0
  -27.7200  -16.2643  147.2732 C   0  0  0  0  0  0  0  0  0  0  0  0
  -26.7894  -15.8406  146.3670 C   0  0  0  0  0  0  0  0  0  0  0  0
  -27.0613  -14.5092  145.7917 C   0  0  0  0  0  0  0  0  0  0  0  0
  -24.1498  -13.8626  147.7607 O   0  0  0  0  0  0  0  0  0  0  0  0
  -27.4688  -16.7737  145.3387 O   0  0  0  0  0  0  0  0  0  0  0  0
  -24.7354  -20.0336  146.3168 C   0  0  0  0  0  0  0  0  0  0  0  0
  -27.3827  -14.7845  144.4533 O   0  0  0  0  0  0  0  0  0  0  0  0
  1  2  1  0
  1  8  1  0
  8  9  2  0
  1 10  1  0
  5 11  1  0
 11 12  1  0
 12 13  1  0
 13 14  1  0
 14 15  2  3
 15 16  1  0
 20 22  1  0
 22 23  1  0
 22 24  2  0
 13 25  1  0
 25 26  1  0
  6 32  1  0
 30 33  1  0
  9 34  1  0
 10 34  2  0
 31 35  1  0
 26 27  2  0
 27 28  1  0
 28 29  2  0
 29 30  1  0
 30 31  2  0
 31 26  1  0
  2  3  2  0
  3  4  1  0
  4  5  2  0
  5  6  1  0
  6  7  2  0
  7  2  1  0
 16 17  2  0
 17 18  1  0
 18 19  2  0
 19 20  1  0
 20 21  2  0
 21 16  1  0
M  END

$$$$
No_1775-/dssg/home/sw_qyf/PocketFlow/Model-Generation-Results/5HT2A_7WC7_rec_A_10.pdb/2024-01-01-03-54-21/
     RDKit          3D

 13 13  0  0  0  0  0  0  0  0999 V2000
  -24.1553  -17.8465  145.7021 C   0  0  0  0  0  0  0  0  0  0  0  0
  -24.6364  -17.2931  146.7091 C   0  0  0  0  0  0  0  0  0  0  0  0
  -25.8608  -16.5592  146.5934 C   0  0  0  0  0  0  0  0  0  0  0  0
  -25.9533  -15.5604  145.6681 C   0  0  0  0  0  0  0  0  0  0  0  0
  -27.0179  -14.6632  145.5500 C   0  0  0  0  0  0  0  0  0  0  0  0
  -24.0512  -16.8635  144.5478 C   0  0  0  0  0  0  0  0  0  0  0  0
  -25.0352  -15.8697  144.5502 C   0  0  0  0  0  0  0  0  0  0  0  0
  -27.9972  -14.5549  146.4905 C   0  0  0  0  0  0  0  0  0  0  0  0
  -28.8713  -13.4294  146.5738 C   0  0  0  0  0  0  0  0  0  0  0  0
  -29.8031  -13.1653  147.6184 C   0  0  0  0  0  0  0  0  0  0  0  0
  -30.5360  -11.9646  147.6649 C   0  0  0  0  0  0  0  0  0  0  0  0
  -31.3180  -11.8106  148.6531 N   0  0  0  0  0  0  0  0  0  0  0  0
  -30.2767  -11.1096  146.7742 O   0  0  0  0  0  0  0  0  0  0  0  0
  1  2  1  0
  2  3  1  0
  3  4  1  0
  4  5  2  3
  1  6  1  0
  4  7  1  0
  6  7  1  0
  5  8  1  0
  8  9  2  3
  9 10  1  0
 10 11  1  0
 11 12  1  0
 11 13  2  0
M  END

$$$$
No_1776-/dssg/home/sw_qyf/PocketFlow/Model-Generation-Results/5HT2A_7WC7_rec_A_10.pdb/2024-01-01-03-54-21/
     RDKit          3D

 18 17  0  0  0  0  0  0  0  0999 V2000
  -23.1746  -16.6014  144.8668 C   0  0  0  0  0  0  0  0  0  0  0  0
  -23.7011  -17.0158  145.9774 C   0  0  0  0  0  0  0  0  0  0  0  0
  -23.7336  -18.2775  146.3737 C   0  0  0  0  0  0  0  0  0  0  0  0
  -23.2769  -15.1496  144.5841 C   0  0  0  0  0  0  0  0  0  0  0  0
  -24.6038  -14.4663  144.6805 C   0  0  0  0  0  0  0  0  0  0  0  0
  -24.7389  -13.1768  144.4058 C   0  0  0  0  0  0  0  0  0  0  0  0
  -23.9581  -12.4305  145.4848 C   0  0  0  0  0  0  0  0  0  0  0  0
  -24.1080  -18.6216  147.5426 O   0  0  0  0  0  0  0  0  0  0  0  0
  -22.7003  -12.2899  145.0782 F   0  0  0  0  0  0  0  0  0  0  0  0
  -23.9817  -13.0496  146.7119 F   0  0  0  0  0  0  0  0  0  0  0  0
  -24.3052  -11.1262  145.5086 F   0  0  0  0  0  0  0  0  0  0  0  0
  -22.7401  -18.9926  145.9028 O   0  0  0  0  0  0  0  0  0  0  0  0
  -25.7468  -15.3557  144.8865 C   0  0  0  0  0  0  0  0  0  0  0  0
  -26.9950  -14.6854  144.9078 C   0  0  0  0  0  0  0  0  0  0  0  0
  -27.1929  -13.7928  146.0901 C   0  0  0  0  0  0  0  0  0  0  0  0
  -28.0677  -12.7604  145.9655 C   0  0  0  0  0  0  0  0  0  0  0  0
  -29.0633  -12.5131  147.0000 C   0  0  0  0  0  0  0  0  0  0  0  0
  -29.4687  -13.3555  148.0119 C   0  0  0  0  0  0  0  0  0  0  0  0
  1  2  1  0
  2  3  1  0
  1  4  1  0
  4  5  1  0
  5  6  1  0
  6  7  1  0
  3  8  2  0
  7  9  1  0
  7 10  1  0
  7 11  1  0
  3 12  1  0
  5 13  1  0
 13 14  1  0
 14 15  1  0
 15 16  1  0
 16 17  2  3
 17 18  1  0
M  END

$$$$
No_1777-/dssg/home/sw_qyf/PocketFlow/Model-Generation-Results/5HT2A_7WC7_rec_A_10.pdb/2024-01-01-03-54-21/
     RDKit          3D

 25 26  0  0  0  0  0  0  0  0999 V2000
  -24.1553  -17.8465  145.7021 C   0  0  0  0  0  0  0  0  0  0  0  0
  -23.9795  -18.4462  146.7426 C   0  0  0  0  0  0  0  0  0  0  0  0
  -25.1593  -16.8262  145.6925 C   0  0  0  0  0  0  0  0  0  0  0  0
  -25.1480  -15.9148  146.4998 C   0  0  0  0  0  0  0  0  0  0  0  0
  -25.0151  -14.7285  146.4300 C   0  0  0  0  0  0  0  0  0  0  0  0
  -24.8604  -13.9398  145.5118 C   0  0  0  0  0  0  0  0  0  0  0  0
  -25.3515  -14.1504  144.2824 C   0  0  0  0  0  0  0  0  0  0  0  0
  -24.1183  -17.7827  148.0319 C   0  0  0  0  0  0  0  0  0  0  0  0
  -24.6725  -16.4938  148.0257 C   0  0  0  0  0  0  0  0  0  0  0  0
  -26.7034  -13.6192  144.0086 C   0  0  0  0  0  0  0  0  0  0  0  0
  -26.6676  -12.2946  143.7184 C   0  0  0  0  0  0  0  0  0  0  0  0
  -27.8387  -11.6820  143.2256 C   0  0  0  0  0  0  0  0  0  0  0  0
  -28.5794  -10.8487  144.1124 C   0  0  0  0  0  0  0  0  0  0  0  0
  -29.5727   -9.9127  143.7463 C   0  0  0  0  0  0  0  0  0  0  0  0
  -29.8340   -9.7695  142.3838 C   0  0  0  0  0  0  0  0  0  0  0  0
  -30.8301   -8.8299  141.9896 C   0  0  0  0  0  0  0  0  0  0  0  0
  -31.4848   -8.1242  143.0862 C   0  0  0  0  0  0  0  0  0  0  0  0
  -23.7429  -12.8916  145.4556 C   0  0  0  0  0  0  0  0  0  0  0  0
  -22.7698  -12.7764  144.4295 C   0  0  0  0  0  0  0  0  0  0  0  0
  -29.2104  -10.5654  141.4303 C   0  0  0  0  0  0  0  0  0  0  0  0
  -28.1427  -11.4211  141.9199 C   0  0  0  0  0  0  0  0  0  0  0  0
  -27.5382  -12.4371  141.0573 C   0  0  0  0  0  0  0  0  0  0  0  0
  -27.6339  -12.1949  139.6264 C   0  0  0  0  0  0  0  0  0  0  0  0
  -26.3334  -12.0017  138.8990 C   0  0  0  0  0  0  0  0  0  0  0  0
  -22.4772  -13.8119  143.7299 N   0  0  0  0  0  0  0  0  0  0  0  0
  1  2  1  0
  1  3  1  0
  3  4  1  0
  4  5  1  0
  5  6  2  3
  6  7  1  0
  2  8  1  0
  4  9  1  0
  8  9  1  0
  7 10  1  0
 10 11  1  0
 11 12  1  0
 15 16  1  0
 16 17  1  0
  6 18  1  0
 18 19  2  3
 21 22  1  0
 22 23  1  0
 23 24  1  0
 19 25  1  0
 12 13  2  0
 13 14  1  0
 14 15  2  0
 15 20  1  0
 20 21  2  0
 21 12  1  0
M  END

$$$$
No_1778-/dssg/home/sw_qyf/PocketFlow/Model-Generation-Results/5HT2A_7WC7_rec_A_10.pdb/2024-01-01-03-54-21/
     RDKit          3D

 22 23  0  0  0  0  0  0  0  0999 V2000
  -23.1746  -16.6014  144.8668 C   0  0  0  0  0  0  0  0  0  0  0  0
  -23.8963  -15.5346  144.7885 C   0  0  0  0  0  0  0  0  0  0  0  0
  -24.5755  -15.0383  145.9043 C   0  0  0  0  0  0  0  0  0  0  0  0
  -24.6688  -15.8869  147.0363 C   0  0  0  0  0  0  0  0  0  0  0  0
  -24.0226  -17.0824  147.0622 C   0  0  0  0  0  0  0  0  0  0  0  0
  -23.2575  -17.4593  145.9560 C   0  0  0  0  0  0  0  0  0  0  0  0
  -25.3270  -13.7158  145.9348 C   0  0  0  0  0  0  0  0  0  0  0  0
  -24.7095  -12.7416  145.4939 C   0  0  0  0  0  0  0  0  0  0  0  0
  -25.3472  -11.3768  145.4559 C   0  0  0  0  0  0  0  0  0  0  0  0
  -26.7415  -11.3445  145.8372 C   0  0  0  0  0  0  0  0  0  0  0  0
  -27.3557  -12.4597  146.3633 C   0  0  0  0  0  0  0  0  0  0  0  0
  -26.6640  -13.7217  146.3773 C   0  0  0  0  0  0  0  0  0  0  0  0
  -29.1639  -12.3556  146.9228 Br  0  0  0  0  0  0  0  0  0  0  0  0
  -23.4337  -12.6612  145.1137 O   0  0  0  0  0  0  0  0  0  0  0  0
  -24.0016  -17.9135  148.3161 C   0  0  0  0  0  0  0  0  0  0  0  0
  -24.7302  -17.1240  149.1481 F   0  0  0  0  0  0  0  0  0  0  0  0
  -22.7560  -17.9094  148.8626 F   0  0  0  0  0  0  0  0  0  0  0  0
  -24.5633  -19.0165  148.1042 F   0  0  0  0  0  0  0  0  0  0  0  0
  -22.6230  -11.6154  145.2716 C   0  0  0  0  0  0  0  0  0  0  0  0
  -21.4608  -11.9061  144.2519 C   0  0  0  0  0  0  0  0  0  0  0  0
  -23.8642  -14.7311  143.7303 O   0  0  0  0  0  0  0  0  0  0  0  0
  -21.5791  -13.1162  143.7727 O   0  0  0  0  0  0  0  0  0  0  0  0
  3  7  1  0
 11 13  1  0
  8 14  1  0
  5 15  1  0
 15 16  1  0
 15 17  1  0
 15 18  1  0
 14 19  1  0
 19 20  1  0
  2 21  1  0
 20 22  1  0
  1  2  2  0
  2  3  1  0
  3  4  2  0
  4  5  1  0
  5  6  2  0
  6  1  1  0
  7  8  2  0
  8  9  1  0
  9 10  2  0
 10 11  1  0
 11 12  2  0
 12  7  1  0
M  END

$$$$
No_1779-/dssg/home/sw_qyf/PocketFlow/Model-Generation-Results/5HT2A_7WC7_rec_A_10.pdb/2024-01-01-03-54-21/
     RDKit          3D

 30 33  0  0  0  0  0  0  0  0999 V2000
  -24.1553  -17.8465  145.7021 C   0  0  0  0  0  0  0  0  0  0  0  0
  -23.9795  -18.4462  146.7426 C   0  0  0  0  0  0  0  0  0  0  0  0
  -25.1196  -16.8106  145.6409 C   0  0  0  0  0  0  0  0  0  0  0  0
  -25.2440  -15.8776  144.5240 C   0  0  0  0  0  0  0  0  0  0  0  0
  -26.0733  -14.7284  144.7061 C   0  0  0  0  0  0  0  0  0  0  0  0
  -26.0749  -13.6607  143.7626 C   0  0  0  0  0  0  0  0  0  0  0  0
  -24.5491  -18.0521  147.9995 C   0  0  0  0  0  0  0  0  0  0  0  0
  -25.4112  -16.9742  148.0640 C   0  0  0  0  0  0  0  0  0  0  0  0
  -25.6107  -16.2038  146.8886 C   0  0  0  0  0  0  0  0  0  0  0  0
  -27.0144  -12.6487  143.8916 C   0  0  0  0  0  0  0  0  0  0  0  0
  -27.3261  -11.8039  142.8272 C   0  0  0  0  0  0  0  0  0  0  0  0
  -28.2278  -10.7101  143.0369 C   0  0  0  0  0  0  0  0  0  0  0  0
  -28.7655   -9.9637  142.0048 C   0  0  0  0  0  0  0  0  0  0  0  0
  -29.7467   -8.9633  142.2396 C   0  0  0  0  0  0  0  0  0  0  0  0
  -30.6788   -9.0263  143.2757 C   0  0  0  0  0  0  0  0  0  0  0  0
  -30.1526   -9.5946  144.4385 N   0  0  0  0  0  0  0  0  0  0  0  0
  -29.0950  -10.5820  144.3666 C   0  0  0  0  0  0  0  0  0  0  0  0
  -26.4128  -15.0140  146.7474 C   0  0  0  0  0  0  0  0  0  0  0  0
  -26.6375  -14.1604  145.8474 C   0  0  0  0  0  0  0  0  0  0  0  0
  -28.8348  -11.2389  145.4728 O   0  0  0  0  0  0  0  0  0  0  0  0
  -30.0757   -8.0661  141.1378 C   0  0  0  0  0  0  0  0  0  0  0  0
  -29.4238   -8.0130  140.1036 O   0  0  0  0  0  0  0  0  0  0  0  0
  -31.7264   -8.4082  143.4330 O   0  0  0  0  0  0  0  0  0  0  0  0
  -29.7228   -8.5716  138.9432 C   0  0  0  0  0  0  0  0  0  0  0  0
  -28.5786   -8.9718  138.1582 C   0  0  0  0  0  0  0  0  0  0  0  0
  -27.4036   -8.8881  138.9381 C   0  0  0  0  0  0  0  0  0  0  0  0
  -26.6478  -10.1781  138.7177 C   0  0  0  0  0  0  0  0  0  0  0  0
  -27.4698  -11.2113  138.3333 F   0  0  0  0  0  0  0  0  0  0  0  0
  -26.2625  -10.5992  140.1269 F   0  0  0  0  0  0  0  0  0  0  0  0
  -27.3789  -13.0353  145.6830 C   0  0  0  0  0  0  0  0  0  0  0  0
  3  4  1  0
  4  5  1  0
  5  6  1  0
  6 10  2  0
 10 11  1  0
 11 12  2  3
 12 13  1  0
 13 14  1  0
 14 15  1  0
 15 16  1  0
 12 17  1  0
 16 17  1  0
  9 18  1  0
  5 19  1  0
 18 19  1  0
 17 20  2  0
 14 21  1  0
 21 22  1  0
 15 23  2  0
 22 24  1  0
 24 25  1  0
 25 26  1  0
 26 27  1  0
 27 28  1  0
 27 29  1  0
 10 30  1  0
 19 30  1  0
  1  2  2  0
  2  7  1  0
  7  8  2  0
  8  9  1  0
  9  3  2  0
  3  1  1  0
M  END

$$$$
No_1780-/dssg/home/sw_qyf/PocketFlow/Model-Generation-Results/5HT2A_7WC7_rec_A_10.pdb/2024-01-01-03-54-21/
     RDKit          3D

 21 22  0  0  0  0  0  0  0  0999 V2000
  -24.1553  -17.8465  145.7021 C   0  0  0  0  0  0  0  0  0  0  0  0
  -24.2856  -16.6364  145.3494 C   0  0  0  0  0  0  0  0  0  0  0  0
  -24.5733  -15.7651  145.9979 C   0  0  0  0  0  0  0  0  0  0  0  0
  -24.7790  -14.3201  145.5846 C   0  0  0  0  0  0  0  0  0  0  0  0
  -23.9937  -13.9985  144.4527 C   0  0  0  0  0  0  0  0  0  0  0  0
  -24.4910  -18.2238  147.0073 C   0  0  0  0  0  0  0  0  0  0  0  0
  -24.9508  -17.2552  147.8929 C   0  0  0  0  0  0  0  0  0  0  0  0
  -24.9922  -15.8662  147.4411 C   0  0  0  0  0  0  0  0  0  0  0  0
  -25.5634  -13.3705  146.2903 C   0  0  0  0  0  0  0  0  0  0  0  0
  -25.5842  -12.0123  145.9454 C   0  0  0  0  0  0  0  0  0  0  0  0
  -24.9066  -11.5881  144.8587 C   0  0  0  0  0  0  0  0  0  0  0  0
  -24.0016  -12.4329  144.1926 C   0  0  0  0  0  0  0  0  0  0  0  0
  -25.1792  -17.5834  149.3618 C   0  0  0  0  0  0  0  0  0  0  0  0
  -24.3076  -17.5761  150.2166 O   0  0  0  0  0  0  0  0  0  0  0  0
  -26.4465  -17.6116  149.7002 O   0  0  0  0  0  0  0  0  0  0  0  0
  -23.8664  -16.4331  144.0421 F   0  0  0  0  0  0  0  0  0  0  0  0
  -26.4198  -11.1603  146.6418 O   0  0  0  0  0  0  0  0  0  0  0  0
  -23.7464  -18.9515  144.9768 O   0  0  0  0  0  0  0  0  0  0  0  0
  -23.5848  -16.4828  150.6664 C   0  0  0  0  0  0  0  0  0  0  0  0
  -22.2280  -16.9511  151.2590 C   0  0  0  0  0  0  0  0  0  0  0  0
  -21.2187  -16.0999  151.1023 O   0  0  0  0  0  0  0  0  0  0  0  0
  3  4  1  0
  7 13  1  0
 13 14  1  0
 13 15  2  0
  2 16  1  0
 10 17  1  0
  1 18  1  0
 14 19  1  0
 19 20  1  0
 20 21  1  0
  4  5  2  0
  5 12  1  0
 12 11  2  0
 11 10  1  0
 10  9  2  0
  9  4  1  0
  1  2  2  0
  2  3  1  0
  3  8  2  0
  8  7  1  0
  7  6  2  0
  6  1  1  0
M  END

$$$$
No_1781-/dssg/home/sw_qyf/PocketFlow/Model-Generation-Results/5HT2A_7WC7_rec_A_10.pdb/2024-01-01-03-54-21/
     RDKit          3D

 35 40  0  0  0  0  0  0  0  0999 V2000
  -23.1746  -16.6014  144.8668 C   0  0  0  0  0  0  0  0  0  0  0  0
  -23.8963  -15.5346  144.7885 C   0  0  0  0  0  0  0  0  0  0  0  0
  -25.0304  -15.2549  144.5358 C   0  0  0  0  0  0  0  0  0  0  0  0
  -25.6045  -13.9524  144.2294 C   0  0  0  0  0  0  0  0  0  0  0  0
  -26.9716  -13.7632  143.8495 C   0  0  0  0  0  0  0  0  0  0  0  0
  -24.0440  -17.7385  145.0423 C   0  0  0  0  0  0  0  0  0  0  0  0
  -25.3719  -17.5333  145.2946 C   0  0  0  0  0  0  0  0  0  0  0  0
  -25.9112  -16.2733  145.0481 C   0  0  0  0  0  0  0  0  0  0  0  0
  -27.4780  -12.5461  143.4589 C   0  0  0  0  0  0  0  0  0  0  0  0
  -27.8927  -12.3781  142.1845 C   0  0  0  0  0  0  0  0  0  0  0  0
  -28.4024  -11.1378  141.6375 C   0  0  0  0  0  0  0  0  0  0  0  0
  -28.8058  -10.1591  142.6008 C   0  0  0  0  0  0  0  0  0  0  0  0
  -28.4121  -10.3517  143.9925 C   0  0  0  0  0  0  0  0  0  0  0  0
  -27.7808  -11.5353  144.4141 C   0  0  0  0  0  0  0  0  0  0  0  0
  -29.4455   -8.9534  142.1774 C   0  0  0  0  0  0  0  0  0  0  0  0
  -29.1961   -8.3039  140.9843 C   0  0  0  0  0  0  0  0  0  0  0  0
  -28.7088   -8.7952  139.7989 C   0  0  0  0  0  0  0  0  0  0  0  0
  -28.6490   -8.0721  138.5930 C   0  0  0  0  0  0  0  0  0  0  0  0
  -28.1477   -8.6920  137.4907 C   0  0  0  0  0  0  0  0  0  0  0  0
  -28.2781  -10.0879  137.4516 C   0  0  0  0  0  0  0  0  0  0  0  0
  -28.0256  -10.7930  138.6006 C   0  0  0  0  0  0  0  0  0  0  0  0
  -28.3654  -10.1890  139.8228 C   0  0  0  0  0  0  0  0  0  0  0  0
  -28.2981  -11.0342  140.3299 N   0  0  0  0  0  0  0  0  0  0  0  0
  -27.5642  -11.7051  145.7370 O   0  0  0  0  0  0  0  0  0  0  0  0
  -26.2093  -11.8069  146.2510 C   0  0  0  0  0  0  0  0  0  0  0  0
  -25.0814  -11.5446  145.4875 C   0  0  0  0  0  0  0  0  0  0  0  0
  -24.6766  -12.6408  144.5570 C   0  0  0  0  0  0  0  0  0  0  0  0
  -23.5121  -18.9347  145.2759 F   0  0  0  0  0  0  0  0  0  0  0  0
  -29.6380   -6.8244  140.9848 C   0  0  0  0  0  0  0  0  0  0  0  0
  -27.6597  -12.1825  138.4178 N   0  0  0  0  0  0  0  0  0  0  0  0
  -29.8286   -6.3357  142.1871 O   0  0  0  0  0  0  0  0  0  0  0  0
  -30.2128   -6.9786  143.1323 C   0  0  0  0  0  0  0  0  0  0  0  0
  -29.7526   -8.2909  143.4066 C   0  0  0  0  0  0  0  0  0  0  0  0
  -23.9199  -11.4428  146.3869 O   0  0  0  0  0  0  0  0  0  0  0  0
  -22.8175  -12.1680  145.9986 C   0  0  0  0  0  0  0  0  0  0  0  0
  3  4  1  0
  4  5  2  3
  5  9  1  0
 12 15  1  0
 15 16  2  0
 16 17  1  0
 11 23  1  0
 22 23  1  0
 14 24  1  0
 24 25  1  0
 25 26  1  0
  4 27  1  0
 26 27  2  3
  6 28  1  0
 16 29  1  0
 21 30  1  0
 29 31  1  0
 31 32  1  0
 15 33  1  0
 32 33  1  0
 26 34  1  0
 34 35  1  0
 17 18  2  0
 18 19  1  0
 19 20  2  0
 20 21  1  0
 21 22  2  0
 22 17  1  0
  1  2  2  0
  2  3  1  0
  3  8  2  0
  8  7  1  0
  7  6  2  0
  6  1  1  0
  9 10  2  0
 10 11  1  0
 11 12  2  0
 12 13  1  0
 13 14  2  0
 14  9  1  0
M  END

$$$$
No_1782-/dssg/home/sw_qyf/PocketFlow/Model-Generation-Results/5HT2A_7WC7_rec_A_10.pdb/2024-01-01-03-54-21/
     RDKit          3D

  9 10  0  0  0  0  0  0  0  0999 V2000
  -24.1553  -17.8465  145.7021 C   0  0  0  0  0  0  0  0  0  0  0  0
  -24.2856  -16.6364  145.3494 C   0  0  0  0  0  0  0  0  0  0  0  0
  -25.0033  -15.6772  146.0737 C   0  0  0  0  0  0  0  0  0  0  0  0
  -25.6964  -16.1810  147.2049 C   0  0  0  0  0  0  0  0  0  0  0  0
  -24.8143  -18.3454  146.8324 C   0  0  0  0  0  0  0  0  0  0  0  0
  -25.5291  -17.4614  147.6374 C   0  0  0  0  0  0  0  0  0  0  0  0
  -23.7222  -15.8596  144.2449 N   0  0  0  0  0  0  0  0  0  0  0  0
  -25.1277  -14.3388  145.6037 N   0  0  0  0  0  0  0  0  0  0  0  0
  -24.2395  -14.4315  144.5309 C   0  0  0  0  0  0  0  0  0  0  0  0
  2  7  1  0
  3  8  1  0
  7  9  1  0
  8  9  2  0
  1  2  2  0
  2  3  1  0
  3  4  2  0
  4  6  1  0
  6  5  2  0
  5  1  1  0
M  END

$$$$
No_1783-/dssg/home/sw_qyf/PocketFlow/Model-Generation-Results/5HT2A_7WC7_rec_A_10.pdb/2024-01-01-03-54-21/
     RDKit          3D

 13 13  0  0  0  0  0  0  0  0999 V2000
  -23.1746  -16.6014  144.8668 C   0  0  0  0  0  0  0  0  0  0  0  0
  -23.7011  -17.0158  145.9774 C   0  0  0  0  0  0  0  0  0  0  0  0
  -24.7095  -16.6222  146.3578 C   0  0  0  0  0  0  0  0  0  0  0  0
  -24.9846  -15.5183  146.7686 C   0  0  0  0  0  0  0  0  0  0  0  0
  -23.5803  -15.1678  144.5733 C   0  0  0  0  0  0  0  0  0  0  0  0
  -24.5551  -14.5817  145.5074 C   0  0  0  0  0  0  0  0  0  0  0  0
  -24.8955  -13.1208  145.4658 C   0  0  0  0  0  0  0  0  0  0  0  0
  -23.9455  -12.2473  145.7980 C   0  0  0  0  0  0  0  0  0  0  0  0
  -26.2046  -12.8418  145.1349 C   0  0  0  0  0  0  0  0  0  0  0  0
  -26.7214  -11.6416  145.2684 C   0  0  0  0  0  0  0  0  0  0  0  0
  -28.0249  -11.2862  145.0367 C   0  0  0  0  0  0  0  0  0  0  0  0
  -29.1334  -11.6197  145.9250 C   0  0  0  0  0  0  0  0  0  0  0  0
  -30.3024  -10.9009  145.6502 N   0  0  0  0  0  0  0  0  0  0  0  0
  6  7  1  0
  7  8  1  0
  7  9  1  0
  9 10  2  3
 10 11  1  0
 11 12  2  3
 12 13  1  0
  1  2  2  0
  2  3  1  0
  3  4  2  0
  4  6  1  0
  6  5  2  0
  5  1  1  0
M  END

$$$$
No_1784-/dssg/home/sw_qyf/PocketFlow/Model-Generation-Results/5HT2A_7WC7_rec_A_10.pdb/2024-01-01-03-54-21/
     RDKit          3D

 13 14  0  0  0  0  0  0  0  0999 V2000
  -24.1553  -17.8465  145.7021 C   0  0  0  0  0  0  0  0  0  0  0  0
  -24.2856  -16.6364  145.3494 C   0  0  0  0  0  0  0  0  0  0  0  0
  -23.7824  -15.9602  144.3554 C   0  0  0  0  0  0  0  0  0  0  0  0
  -23.9871  -14.5276  144.1537 C   0  0  0  0  0  0  0  0  0  0  0  0
  -24.7876  -13.8357  145.1351 C   0  0  0  0  0  0  0  0  0  0  0  0
  -25.3945  -14.5459  146.1755 C   0  0  0  0  0  0  0  0  0  0  0  0
  -25.0741  -15.8908  146.3327 C   0  0  0  0  0  0  0  0  0  0  0  0
  -24.7878  -18.4075  146.7775 C   0  0  0  0  0  0  0  0  0  0  0  0
  -25.4828  -17.7411  147.6841 C   0  0  0  0  0  0  0  0  0  0  0  0
  -25.6521  -16.5296  147.5338 C   0  0  0  0  0  0  0  0  0  0  0  0
  -25.0407  -12.1600  144.9238 Cl  0  0  0  0  0  0  0  0  0  0  0  0
  -23.5206  -18.6909  144.8508 O   0  0  0  0  0  0  0  0  0  0  0  0
  -23.4758  -13.8644  143.1761 O   0  0  0  0  0  0  0  0  0  0  0  0
  5 11  1  0
  1 12  1  0
  4 13  1  0
  2  3  1  0
  3  4  2  0
  4  5  1  0
  5  6  2  0
  6  7  1  0
  1  2  2  0
  2  7  1  0
  7 10  2  0
 10  9  1  0
  9  8  2  0
  8  1  1  0
M  END

$$$$
No_1785-/dssg/home/sw_qyf/PocketFlow/Model-Generation-Results/5HT2A_7WC7_rec_A_10.pdb/2024-01-01-03-54-21/
     RDKit          3D

 35 37  0  0  0  0  0  0  0  0999 V2000
  -24.1553  -17.8465  145.7021 C   0  0  0  0  0  0  0  0  0  0  0  0
  -24.2856  -16.6364  145.3494 C   0  0  0  0  0  0  0  0  0  0  0  0
  -24.5733  -15.7651  145.9979 C   0  0  0  0  0  0  0  0  0  0  0  0
  -25.0272  -15.9886  147.3700 C   0  0  0  0  0  0  0  0  0  0  0  0
  -24.4993  -18.2276  147.0208 C   0  0  0  0  0  0  0  0  0  0  0  0
  -24.9009  -17.2232  147.9329 C   0  0  0  0  0  0  0  0  0  0  0  0
  -24.7137  -14.2591  145.5600 C   0  0  0  0  0  0  0  0  0  0  0  0
  -23.8904  -13.7860  144.6618 C   0  0  0  0  0  0  0  0  0  0  0  0
  -23.4235  -12.3961  144.9334 C   0  0  0  0  0  0  0  0  0  0  0  0
  -24.2069  -11.5657  145.7229 C   0  0  0  0  0  0  0  0  0  0  0  0
  -25.2852  -12.0887  146.4938 C   0  0  0  0  0  0  0  0  0  0  0  0
  -25.4594  -13.4575  146.5655 C   0  0  0  0  0  0  0  0  0  0  0  0
  -25.1941  -17.5670  149.3494 C   0  0  0  0  0  0  0  0  0  0  0  0
  -24.2824  -17.4905  150.3231 N   0  0  0  0  0  0  0  0  0  0  0  0
  -23.8603  -16.4241  143.9946 O   0  0  0  0  0  0  0  0  0  0  0  0
  -26.4112  -17.7532  149.7381 O   0  0  0  0  0  0  0  0  0  0  0  0
  -22.9282  -17.2164  150.1499 C   0  0  0  0  0  0  0  0  0  0  0  0
  -22.3950  -15.9666  150.8912 C   0  0  0  0  0  0  0  0  0  0  0  0
  -23.7836  -18.9283  144.9759 F   0  0  0  0  0  0  0  0  0  0  0  0
  -20.9007  -15.9810  150.6237 C   0  0  0  0  0  0  0  0  0  0  0  0
  -26.0181  -11.2067  147.1804 O   0  0  0  0  0  0  0  0  0  0  0  0
  -22.3096  -11.9840  144.3948 O   0  0  0  0  0  0  0  0  0  0  0  0
  -27.3576  -11.3227  146.7804 C   0  0  0  0  0  0  0  0  0  0  0  0
  -27.8919  -10.8807  145.5250 C   0  0  0  0  0  0  0  0  0  0  0  0
  -29.2401  -10.8498  145.2121 C   0  0  0  0  0  0  0  0  0  0  0  0
  -30.0312  -11.3913  146.2131 C   0  0  0  0  0  0  0  0  0  0  0  0
  -29.6048  -11.8830  147.4381 C   0  0  0  0  0  0  0  0  0  0  0  0
  -28.2944  -11.8964  147.6625 C   0  0  0  0  0  0  0  0  0  0  0  0
  -29.7245  -10.2756  144.0298 C   0  0  0  0  0  0  0  0  0  0  0  0
  -29.3575  -10.7771  143.0383 O   0  0  0  0  0  0  0  0  0  0  0  0
  -29.3433   -9.9705  141.8320 C   0  0  0  0  0  0  0  0  0  0  0  0
  -28.5073  -10.3986  140.8179 C   0  0  0  0  0  0  0  0  0  0  0  0
  -28.1209   -9.6542  139.7421 C   0  0  0  0  0  0  0  0  0  0  0  0
  -28.7653   -8.3757  139.5723 C   0  0  0  0  0  0  0  0  0  0  0  0
  -29.6273   -7.9131  140.6385 C   0  0  0  0  0  0  0  0  0  0  0  0
  3  7  1  0
  6 13  1  0
 13 14  1  0
  2 15  1  0
 13 16  2  0
 14 17  1  0
 17 18  1  0
  1 19  1  0
 18 20  2  0
 11 21  1  0
  9 22  1  0
 21 23  1  0
 25 29  1  0
 29 30  1  0
 30 31  1  0
 31 32  1  0
 32 33  2  3
 33 34  1  0
 34 35  2  0
 23 24  2  0
 24 25  1  0
 25 26  2  0
 26 27  1  0
 27 28  2  0
 28 23  1  0
  1  2  2  0
  2  3  1  0
  3  4  2  0
  4  6  1  0
  6  5  2  0
  5  1  1  0
  7  8  2  0
  8  9  1  0
  9 10  2  0
 10 11  1  0
 11 12  2  0
 12  7  1  0
M  END

$$$$
No_1786-/dssg/home/sw_qyf/PocketFlow/Model-Generation-Results/5HT2A_7WC7_rec_A_10.pdb/2024-01-01-03-54-21/
     RDKit          3D

  7  7  0  0  0  0  0  0  0  0999 V2000
  -23.1746  -16.6014  144.8668 C   0  0  0  0  0  0  0  0  0  0  0  0
  -24.0189  -16.0564  145.8445 C   0  0  0  0  0  0  0  0  0  0  0  0
  -24.4145  -16.8299  146.9062 C   0  0  0  0  0  0  0  0  0  0  0  0
  -25.2730  -16.2838  147.9150 C   0  0  0  0  0  0  0  0  0  0  0  0
  -25.7919  -14.9951  147.6737 C   0  0  0  0  0  0  0  0  0  0  0  0
  -24.5377  -14.6789  145.6474 C   0  0  0  0  0  0  0  0  0  0  0  0
  -25.4158  -14.1968  146.6885 C   0  0  0  0  0  0  0  0  0  0  0  0
  1  2  1  0
  2  3  2  0
  3  4  1  0
  4  5  2  0
  5  7  1  0
  7  6  2  0
  6  2  1  0
M  END

$$$$
No_1787-/dssg/home/sw_qyf/PocketFlow/Model-Generation-Results/5HT2A_7WC7_rec_A_10.pdb/2024-01-01-03-54-21/
     RDKit          3D

 19 20  0  0  0  0  0  0  0  0999 V2000
  -24.1553  -17.8465  145.7021 C   0  0  0  0  0  0  0  0  0  0  0  0
  -24.6364  -17.2931  146.7091 C   0  0  0  0  0  0  0  0  0  0  0  0
  -25.8608  -16.5592  146.5934 C   0  0  0  0  0  0  0  0  0  0  0  0
  -25.9533  -15.5604  145.6681 C   0  0  0  0  0  0  0  0  0  0  0  0
  -24.9254  -15.5665  144.6652 C   0  0  0  0  0  0  0  0  0  0  0  0
  -23.9892  -16.6610  144.6462 C   0  0  0  0  0  0  0  0  0  0  0  0
  -26.9134  -14.5049  145.6812 C   0  0  0  0  0  0  0  0  0  0  0  0
  -26.8362  -13.4800  144.7296 C   0  0  0  0  0  0  0  0  0  0  0  0
  -27.7022  -12.3937  144.6585 C   0  0  0  0  0  0  0  0  0  0  0  0
  -27.6556  -11.3990  143.6366 C   0  0  0  0  0  0  0  0  0  0  0  0
  -28.1240  -10.0856  143.9513 C   0  0  0  0  0  0  0  0  0  0  0  0
  -29.2995   -9.6527  143.3202 C   0  0  0  0  0  0  0  0  0  0  0  0
  -30.5503   -9.8245  143.8109 C   0  0  0  0  0  0  0  0  0  0  0  0
  -31.6644   -9.1969  143.1811 C   0  0  0  0  0  0  0  0  0  0  0  0
  -31.2434   -8.2747  142.1477 C   0  0  0  0  0  0  0  0  0  0  0  0
  -29.2167   -8.6618  142.2382 C   0  0  0  0  0  0  0  0  0  0  0  0
  -28.1297   -8.6446  141.4216 C   0  0  0  0  0  0  0  0  0  0  0  0
  -30.3113   -8.3678  141.3765 C   0  0  0  0  0  0  0  0  0  0  0  0
  -30.1367   -7.6257  140.2385 C   0  0  0  0  0  0  0  0  0  0  0  0
  4  7  1  0
  7  8  2  3
  8  9  1  0
  9 10  1  0
 10 11  1  0
 11 12  1  0
 16 17  1  0
 18 19  1  0
  1  2  2  0
  2  3  1  0
  3  4  2  0
  4  5  1  0
  5  6  2  0
  6  1  1  0
 12 13  2  0
 13 14  1  0
 14 15  2  0
 15 18  1  0
 18 16  2  0
 16 12  1  0
M  END

$$$$
No_1788-/dssg/home/sw_qyf/PocketFlow/Model-Generation-Results/5HT2A_7WC7_rec_A_10.pdb/2024-01-01-03-54-21/
     RDKit          3D

 35 38  0  0  0  0  0  0  0  0999 V2000
  -24.1553  -17.8465  145.7021 C   0  0  0  0  0  0  0  0  0  0  0  0
  -24.2856  -16.6364  145.3494 C   0  0  0  0  0  0  0  0  0  0  0  0
  -25.0033  -15.6772  146.0737 C   0  0  0  0  0  0  0  0  0  0  0  0
  -25.1197  -14.2835  145.7299 C   0  0  0  0  0  0  0  0  0  0  0  0
  -24.2707  -13.8793  144.6500 C   0  0  0  0  0  0  0  0  0  0  0  0
  -24.8686  -18.3355  146.8179 C   0  0  0  0  0  0  0  0  0  0  0  0
  -23.4212  -14.7686  144.0334 C   0  0  0  0  0  0  0  0  0  0  0  0
  -23.3932  -16.0844  144.3175 C   0  0  0  0  0  0  0  0  0  0  0  0
  -25.6450  -17.4591  147.5909 C   0  0  0  0  0  0  0  0  0  0  0  0
  -25.7561  -16.1038  147.2695 C   0  0  0  0  0  0  0  0  0  0  0  0
  -26.3769  -13.6741  145.7991 C   0  0  0  0  0  0  0  0  0  0  0  0
  -26.9872  -13.2258  144.9053 C   0  0  0  0  0  0  0  0  0  0  0  0
  -26.7627  -13.1526  143.5085 C   0  0  0  0  0  0  0  0  0  0  0  0
  -27.4652  -12.4841  142.5428 C   0  0  0  0  0  0  0  0  0  0  0  0
  -27.3129  -12.7607  141.1696 C   0  0  0  0  0  0  0  0  0  0  0  0
  -28.1787  -12.1973  140.2213 C   0  0  0  0  0  0  0  0  0  0  0  0
  -27.5720  -12.1497  138.9053 C   0  0  0  0  0  0  0  0  0  0  0  0
  -26.0859  -11.9884  138.9365 C   0  0  0  0  0  0  0  0  0  0  0  0
  -25.5991  -12.8264  138.2176 O   0  0  0  0  0  0  0  0  0  0  0  0
  -28.1997  -11.3153  142.9289 C   0  0  0  0  0  0  0  0  0  0  0  0
  -27.7812  -10.2108  143.4108 C   0  0  0  0  0  0  0  0  0  0  0  0
  -28.5026   -9.1808  143.8265 C   0  0  0  0  0  0  0  0  0  0  0  0
  -29.8931   -9.3149  143.8904 C   0  0  0  0  0  0  0  0  0  0  0  0
  -30.5118  -10.0736  142.9773 C   0  0  0  0  0  0  0  0  0  0  0  0
  -29.6796  -11.1748  142.4911 N   0  0  0  0  0  0  0  0  0  0  0  0
  -31.6199  -10.0703  142.4675 O   0  0  0  0  0  0  0  0  0  0  0  0
  -30.7006   -8.3965  144.4822 O   0  0  0  0  0  0  0  0  0  0  0  0
  -28.0144  -10.9523  138.1313 O   0  0  0  0  0  0  0  0  0  0  0  0
  -27.8956   -9.8386  138.7999 C   0  0  0  0  0  0  0  0  0  0  0  0
  -27.7778   -9.5170  139.9450 C   0  0  0  0  0  0  0  0  0  0  0  0
  -28.1581   -8.7322  137.7849 C   0  0  0  0  0  0  0  0  0  0  0  0
  -28.1180   -8.0896  140.4007 C   0  0  0  0  0  0  0  0  0  0  0  0
  -29.3453   -7.6821  139.9559 C   0  0  0  0  0  0  0  0  0  0  0  0
  -29.3956   -7.9071  138.4870 C   0  0  0  0  0  0  0  0  0  0  0  0
  -29.5905   -6.3000  140.4162 C   0  0  0  0  0  0  0  0  0  0  0  0
  4 11  1  0
 11 12  1  0
 12 13  2  3
 13 14  1  0
 14 15  1  0
 15 16  1  0
 16 17  1  0
 17 18  1  0
 18 19  1  0
 14 20  1  0
 21 22  1  0
 22 23  1  0
 23 24  1  0
 20 25  1  0
 24 25  1  0
 24 26  2  0
 23 27  1  0
 17 28  1  0
 28 29  1  0
 33 35  1  0
 21 20  1  0
 29 30  2  0
 30 32  1  0
 32 33  2  0
 33 34  1  0
 34 31  2  0
 31 29  1  0
  1  2  2  0
  3 10  2  0
 10  9  1  0
  9  6  2  0
  6  1  1  0
  2  3  1  0
  3  4  1  0
  4  5  2  0
  5  7  1  0
  7  8  2  0
  8  2  1  0
M  END

$$$$
No_1789-/dssg/home/sw_qyf/PocketFlow/Model-Generation-Results/5HT2A_7WC7_rec_A_10.pdb/2024-01-01-03-54-21/
     RDKit          3D

 23 25  0  0  0  0  0  0  0  0999 V2000
  -24.1553  -17.8465  145.7021 C   0  0  0  0  0  0  0  0  0  0  0  0
  -24.6364  -17.2931  146.7091 C   0  0  0  0  0  0  0  0  0  0  0  0
  -25.8608  -16.5592  146.5934 C   0  0  0  0  0  0  0  0  0  0  0  0
  -25.9533  -15.5604  145.6681 C   0  0  0  0  0  0  0  0  0  0  0  0
  -24.8399  -15.4389  144.8356 C   0  0  0  0  0  0  0  0  0  0  0  0
  -24.7089  -14.3007  143.9566 C   0  0  0  0  0  0  0  0  0  0  0  0
  -23.8844  -16.5794  144.7720 C   0  0  0  0  0  0  0  0  0  0  0  0
  -25.4507  -14.0593  143.0742 O   0  0  0  0  0  0  0  0  0  0  0  0
  -26.9133  -14.5161  145.7463 C   0  0  0  0  0  0  0  0  0  0  0  0
  -28.0551  -14.6344  146.5362 C   0  0  0  0  0  0  0  0  0  0  0  0
  -29.0234  -13.6110  146.6497 C   0  0  0  0  0  0  0  0  0  0  0  0
  -28.8238  -12.4203  145.8933 C   0  0  0  0  0  0  0  0  0  0  0  0
  -27.6701  -12.2700  145.0840 C   0  0  0  0  0  0  0  0  0  0  0  0
  -26.8142  -13.2598  145.0563 C   0  0  0  0  0  0  0  0  0  0  0  0
  -29.7637  -11.3644  146.0048 N   0  0  0  0  0  0  0  0  0  0  0  0
  -29.8579  -10.3981  145.0546 C   0  0  0  0  0  0  0  0  0  0  0  0
  -30.9814  -10.0434  144.3781 C   0  0  0  0  0  0  0  0  0  0  0  0
  -30.8932   -8.9753  143.3931 C   0  0  0  0  0  0  0  0  0  0  0  0
  -31.7197   -8.3140  143.0621 C   0  0  0  0  0  0  0  0  0  0  0  0
  -31.5415   -7.6587  141.9601 N   0  0  0  0  0  0  0  0  0  0  0  0
  -28.6985   -9.8542  144.7469 O   0  0  0  0  0  0  0  0  0  0  0  0
  -30.2155   -7.9546  141.5514 C   0  0  0  0  0  0  0  0  0  0  0  0
  -29.7806   -8.9380  142.5424 C   0  0  0  0  0  0  0  0  0  0  0  0
  5  6  1  0
  6  8  1  0
  4  9  1  0
 12 15  1  0
 15 16  1  0
 16 17  1  0
 17 18  1  0
 18 19  1  0
 19 20  1  0
 16 21  2  0
 20 22  2  0
 18 23  1  0
 22 23  1  0
  1  2  2  0
  2  3  1  0
  3  4  2  0
  4  5  1  0
  5  7  2  0
  7  1  1  0
  9 10  2  0
 10 11  1  0
 11 12  2  0
 12 13  1  0
 13 14  2  0
 14  9  1  0
M  END

$$$$
No_1790-/dssg/home/sw_qyf/PocketFlow/Model-Generation-Results/5HT2A_7WC7_rec_A_10.pdb/2024-01-01-03-54-21/
     RDKit          3D

 35 39  0  0  0  0  0  0  0  0999 V2000
  -24.1553  -17.8465  145.7021 C   0  0  0  0  0  0  0  0  0  0  0  0
  -24.2856  -16.6364  145.3494 C   0  0  0  0  0  0  0  0  0  0  0  0
  -23.7824  -15.9602  144.3554 C   0  0  0  0  0  0  0  0  0  0  0  0
  -23.9871  -14.5276  144.1537 C   0  0  0  0  0  0  0  0  0  0  0  0
  -24.7876  -13.8357  145.1351 C   0  0  0  0  0  0  0  0  0  0  0  0
  -25.3945  -14.5459  146.1755 C   0  0  0  0  0  0  0  0  0  0  0  0
  -25.0741  -15.8908  146.3327 C   0  0  0  0  0  0  0  0  0  0  0  0
  -23.4600  -18.3671  146.6957 C   0  0  0  0  0  0  0  0  0  0  0  0
  -23.4812  -17.4613  147.9491 C   0  0  0  0  0  0  0  0  0  0  0  0
  -24.3747  -16.2552  147.8342 C   0  0  0  0  0  0  0  0  0  0  0  0
  -25.1093  -12.4192  144.8955 C   0  0  0  0  0  0  0  0  0  0  0  0
  -25.9044  -11.7245  145.5549 C   0  0  0  0  0  0  0  0  0  0  0  0
  -27.1543  -11.3135  145.0944 C   0  0  0  0  0  0  0  0  0  0  0  0
  -27.2665  -10.2258  144.1469 C   0  0  0  0  0  0  0  0  0  0  0  0
  -28.4736   -9.7608  143.6738 C   0  0  0  0  0  0  0  0  0  0  0  0
  -29.6653  -10.0558  144.4238 C   0  0  0  0  0  0  0  0  0  0  0  0
  -29.5636  -10.9900  145.5006 C   0  0  0  0  0  0  0  0  0  0  0  0
  -28.3469  -11.4840  145.9061 C   0  0  0  0  0  0  0  0  0  0  0  0
  -28.6030   -8.8750  142.5939 C   0  0  0  0  0  0  0  0  0  0  0  0
  -29.7897   -8.6386  141.9021 C   0  0  0  0  0  0  0  0  0  0  0  0
  -31.0288   -8.9145  142.3836 C   0  0  0  0  0  0  0  0  0  0  0  0
  -31.0428   -9.7254  143.5829 N   0  0  0  0  0  0  0  0  0  0  0  0
  -29.7176   -7.8101  140.6892 C   0  0  0  0  0  0  0  0  0  0  0  0
  -28.9696   -8.1767  139.6088 C   0  0  0  0  0  0  0  0  0  0  0  0
  -28.9702   -7.8899  138.3318 C   0  0  0  0  0  0  0  0  0  0  0  0
  -28.2141   -8.6085  137.3837 C   0  0  0  0  0  0  0  0  0  0  0  0
  -28.0829   -9.5155  139.6566 C   0  0  0  0  0  0  0  0  0  0  0  0
  -27.6334   -9.7465  138.4952 C   0  0  0  0  0  0  0  0  0  0  0  0
  -32.1119   -8.8054  142.0133 O   0  0  0  0  0  0  0  0  0  0  0  0
  -28.4099  -12.2932  147.1209 C   0  0  0  0  0  0  0  0  0  0  0  0
  -29.3337  -13.4438  147.1756 C   0  0  0  0  0  0  0  0  0  0  0  0
  -30.4366  -13.2410  148.0505 C   0  0  0  0  0  0  0  0  0  0  0  0
  -30.6228  -12.0633  148.7865 C   0  0  0  0  0  0  0  0  0  0  0  0
  -31.7050  -11.9618  149.6825 C   0  0  0  0  0  0  0  0  0  0  0  0
  -32.5518  -13.0276  149.9275 C   0  0  0  0  0  0  0  0  0  0  0  0
  5 11  1  0
 11 12  1  0
 12 13  1  0
 15 19  1  0
 19 20  1  0
 20 21  1  0
 16 22  1  0
 21 22  1  0
 20 23  1  0
 23 24  2  3
 24 25  1  0
 25 26  2  0
 24 27  1  0
 26 28  1  0
 27 28  2  0
 21 29  2  0
 18 30  1  0
 30 31  1  0
 31 32  2  3
 32 33  1  0
 33 34  1  0
 34 35  2  0
  2  3  1  0
  3  4  2  0
  4  5  1  0
  5  6  2  0
  6  7  1  0
 13 14  2  0
 14 15  1  0
 15 16  2  0
 16 17  1  0
 17 18  2  0
 18 13  1  0
  1  2  2  0
  2  7  1  0
  7 10  2  0
 10  9  1  0
  9  8  2  0
  8  1  1  0
M  END

$$$$
No_1791-/dssg/home/sw_qyf/PocketFlow/Model-Generation-Results/5HT2A_7WC7_rec_A_10.pdb/2024-01-01-03-54-21/
     RDKit          3D

 35 38  0  0  0  0  0  0  0  0999 V2000
  -24.1553  -17.8465  145.7021 C   0  0  0  0  0  0  0  0  0  0  0  0
  -24.6364  -17.2931  146.7091 C   0  0  0  0  0  0  0  0  0  0  0  0
  -25.8608  -16.5592  146.5934 C   0  0  0  0  0  0  0  0  0  0  0  0
  -26.8606  -16.6119  147.5579 C   0  0  0  0  0  0  0  0  0  0  0  0
  -28.1392  -15.9828  147.3731 C   0  0  0  0  0  0  0  0  0  0  0  0
  -28.2314  -14.9554  146.4210 C   0  0  0  0  0  0  0  0  0  0  0  0
  -27.1206  -14.7743  145.5479 C   0  0  0  0  0  0  0  0  0  0  0  0
  -25.9627  -15.5771  145.6702 C   0  0  0  0  0  0  0  0  0  0  0  0
  -23.9880  -17.4684  148.0398 C   0  0  0  0  0  0  0  0  0  0  0  0
  -22.6544  -17.6874  148.0015 N   0  0  0  0  0  0  0  0  0  0  0  0
  -24.5137  -16.8708  149.0910 O   0  0  0  0  0  0  0  0  0  0  0  0
  -27.2612  -13.7693  144.4723 C   0  0  0  0  0  0  0  0  0  0  0  0
  -26.5107  -14.1450  143.1392 C   0  0  0  0  0  0  0  0  0  0  0  0
  -26.8372  -13.2867  142.0705 C   0  0  0  0  0  0  0  0  0  0  0  0
  -27.4460  -12.0210  142.2120 C   0  0  0  0  0  0  0  0  0  0  0  0
  -27.9530  -11.6870  143.5475 C   0  0  0  0  0  0  0  0  0  0  0  0
  -27.8148  -12.5472  144.6292 C   0  0  0  0  0  0  0  0  0  0  0  0
  -28.7246  -10.3990  143.6867 C   0  0  0  0  0  0  0  0  0  0  0  0
  -29.4371   -9.7837  142.8636 C   0  0  0  0  0  0  0  0  0  0  0  0
  -30.2595   -8.7298  143.0892 C   0  0  0  0  0  0  0  0  0  0  0  0
  -31.4517   -8.8640  143.7246 C   0  0  0  0  0  0  0  0  0  0  0  0
  -30.0280   -7.3917  142.3844 C   0  0  0  0  0  0  0  0  0  0  0  0
  -29.9381   -7.3326  141.0596 C   0  0  0  0  0  0  0  0  0  0  0  0
  -30.2698   -8.4009  140.1826 C   0  0  0  0  0  0  0  0  0  0  0  0
  -29.2693   -9.4561  140.2261 C   0  0  0  0  0  0  0  0  0  0  0  0
  -29.0235  -10.0144  141.4138 C   0  0  0  0  0  0  0  0  0  0  0  0
  -26.3080  -13.6797  140.7977 C   0  0  0  0  0  0  0  0  0  0  0  0
  -25.9452  -12.6896  139.9498 N   0  0  0  0  0  0  0  0  0  0  0  0
  -22.0951  -18.2427  146.8854 C   0  0  0  0  0  0  0  0  0  0  0  0
  -22.8274  -18.3687  145.7331 C   0  0  0  0  0  0  0  0  0  0  0  0
  -32.3580   -8.3123  143.8137 O   0  0  0  0  0  0  0  0  0  0  0  0
  -31.2774   -9.6801  144.8214 O   0  0  0  0  0  0  0  0  0  0  0  0
  -25.5993  -12.9480  138.6681 C   0  0  0  0  0  0  0  0  0  0  0  0
  -28.9836  -16.0376  148.5590 C   0  0  0  0  0  0  0  0  0  0  0  0
  -29.9518  -15.0970  148.6774 N   0  0  0  0  0  0  0  0  0  0  0  0
  1  2  1  0
  2  9  1  0
  9 10  1  0
  9 11  2  0
  7 12  1  0
 16 18  1  0
 18 19  1  0
 19 20  2  0
 20 21  1  0
 20 22  1  0
 22 23  2  0
 23 24  1  0
 24 25  1  0
 19 26  1  0
 25 26  2  0
 14 27  1  0
 27 28  1  0
 29 30  1  0
 21 31  1  0
 21 32  2  0
 28 33  1  0
  5 34  1  0
 34 35  1  0
  2  3  1  0
  1 30  1  0
 29 10  1  0
 12 13  2  0
 13 14  1  0
 14 15  2  0
 15 16  1  0
 16 17  2  0
 17 12  1  0
  3  4  2  0
  4  5  1  0
  5  6  2  0
  6  7  1  0
  7  8  2  0
  8  3  1  0
M  END

$$$$
No_1792-/dssg/home/sw_qyf/PocketFlow/Model-Generation-Results/5HT2A_7WC7_rec_A_10.pdb/2024-01-01-03-54-21/
     RDKit          3D

 18 18  0  0  0  0  0  0  0  0999 V2000
  -23.1746  -16.6014  144.8668 C   0  0  0  0  0  0  0  0  0  0  0  0
  -24.0189  -16.0564  145.8445 C   0  0  0  0  0  0  0  0  0  0  0  0
  -24.4145  -16.8299  146.9062 C   0  0  0  0  0  0  0  0  0  0  0  0
  -25.2730  -16.2838  147.9150 C   0  0  0  0  0  0  0  0  0  0  0  0
  -25.7557  -17.0717  149.0071 C   0  0  0  0  0  0  0  0  0  0  0  0
  -24.4328  -14.6402  145.6929 C   0  0  0  0  0  0  0  0  0  0  0  0
  -25.4521  -14.0898  145.9878 C   0  0  0  0  0  0  0  0  0  0  0  0
  -25.5636  -12.6958  145.5521 C   0  0  0  0  0  0  0  0  0  0  0  0
  -24.4406  -12.0912  145.0666 C   0  0  0  0  0  0  0  0  0  0  0  0
  -23.2597  -13.9273  144.9678 C   0  0  0  0  0  0  0  0  0  0  0  0
  -23.4246  -12.6193  144.7775 C   0  0  0  0  0  0  0  0  0  0  0  0
  -24.0461  -18.1698  147.0890 C   0  0  0  0  0  0  0  0  0  0  0  0
  -26.7815  -11.8746  146.0377 C   0  0  0  0  0  0  0  0  0  0  0  0
  -27.8850  -11.9608  145.1275 C   0  0  0  0  0  0  0  0  0  0  0  0
  -29.1955  -11.4580  145.6295 C   0  0  0  0  0  0  0  0  0  0  0  0
  -29.8754  -10.4402  144.8904 C   0  0  0  0  0  0  0  0  0  0  0  0
  -30.8431   -9.9428  145.6347 F   0  0  0  0  0  0  0  0  0  0  0  0
  -28.9553   -9.3675  144.7365 F   0  0  0  0  0  0  0  0  0  0  0  0
  1  2  1  0
  2  3  1  0
  3  4  1  0
  4  5  2  0
  2  6  1  0
  3 12  1  0
  8 13  1  0
 13 14  1  0
 14 15  1  0
 15 16  2  3
 16 17  1  0
 16 18  1  0
  6  7  2  0
  7  8  1  0
  8  9  2  0
  9 11  1  0
 11 10  2  0
 10  6  1  0
M  END

$$$$
No_1793-/dssg/home/sw_qyf/PocketFlow/Model-Generation-Results/5HT2A_7WC7_rec_A_10.pdb/2024-01-01-03-54-21/
     RDKit          3D

 35 39  0  0  0  0  0  0  0  0999 V2000
  -24.1553  -17.8465  145.7021 C   0  0  0  0  0  0  0  0  0  0  0  0
  -23.9795  -18.4462  146.7426 C   0  0  0  0  0  0  0  0  0  0  0  0
  -24.2723  -16.4220  145.8037 C   0  0  0  0  0  0  0  0  0  0  0  0
  -24.0151  -15.5895  144.6874 C   0  0  0  0  0  0  0  0  0  0  0  0
  -24.2323  -14.1482  144.8444 C   0  0  0  0  0  0  0  0  0  0  0  0
  -23.4231  -13.3612  144.3121 C   0  0  0  0  0  0  0  0  0  0  0  0
  -24.0793  -17.9731  148.1027 C   0  0  0  0  0  0  0  0  0  0  0  0
  -24.2578  -16.5716  148.2262 C   0  0  0  0  0  0  0  0  0  0  0  0
  -24.2948  -15.7505  147.0841 C   0  0  0  0  0  0  0  0  0  0  0  0
  -23.3360  -11.9211  144.8327 C   0  0  0  0  0  0  0  0  0  0  0  0
  -24.5360  -11.4605  145.5499 C   0  0  0  0  0  0  0  0  0  0  0  0
  -25.5233  -12.3910  145.8726 C   0  0  0  0  0  0  0  0  0  0  0  0
  -25.3723  -13.7450  145.5537 C   0  0  0  0  0  0  0  0  0  0  0  0
  -26.6268  -11.9175  146.5906 N   0  0  0  0  0  0  0  0  0  0  0  0
  -27.7611  -12.5544  146.5481 C   0  0  0  0  0  0  0  0  0  0  0  0
  -28.8738  -11.8839  145.9782 C   0  0  0  0  0  0  0  0  0  0  0  0
  -30.1706  -11.8358  146.7025 C   0  0  0  0  0  0  0  0  0  0  0  0
  -28.8207  -11.2537  144.6988 C   0  0  0  0  0  0  0  0  0  0  0  0
  -27.8093  -11.4950  143.8637 C   0  0  0  0  0  0  0  0  0  0  0  0
  -27.8402  -10.9864  142.5314 C   0  0  0  0  0  0  0  0  0  0  0  0
  -28.8531  -10.1999  142.1108 C   0  0  0  0  0  0  0  0  0  0  0  0
  -29.9434   -9.9166  143.0965 C   0  0  0  0  0  0  0  0  0  0  0  0
  -29.9056  -10.4430  144.3049 C   0  0  0  0  0  0  0  0  0  0  0  0
  -31.0617   -9.0678  142.5888 C   0  0  0  0  0  0  0  0  0  0  0  0
  -30.9083   -8.1703  141.7264 O   0  0  0  0  0  0  0  0  0  0  0  0
  -30.2815  -12.7906  147.8657 C   0  0  0  0  0  0  0  0  0  0  0  0
  -31.1429  -12.5832  148.8162 N   0  0  0  0  0  0  0  0  0  0  0  0
  -32.2516   -9.2942  143.0067 O   0  0  0  0  0  0  0  0  0  0  0  0
  -31.7225  -11.4261  149.0098 C   0  0  0  0  0  0  0  0  0  0  0  0
  -32.8254  -11.4314  150.0748 C   0  0  0  0  0  0  0  0  0  0  0  0
  -33.0473  -12.5333  150.6357 C   0  0  0  0  0  0  0  0  0  0  0  0
  -32.4038  -13.7354  150.4371 C   0  0  0  0  0  0  0  0  0  0  0  0
  -31.4473  -13.7372  149.4559 C   0  0  0  0  0  0  0  0  0  0  0  0
  -30.5126  -14.6631  149.0853 N   0  0  0  0  0  0  0  0  0  0  0  0
  -29.8327  -14.1502  147.9719 C   0  0  0  0  0  0  0  0  0  0  0  0
  3  4  1  0
  4  5  1  0
 12 14  1  0
 14 15  1  0
 15 16  1  0
 16 17  2  3
 16 18  1  0
 22 24  1  0
 24 25  1  0
 17 26  1  0
 26 27  1  0
 24 28  2  0
 27 29  1  0
 30 31  1  0
 27 33  1  0
 32 33  1  0
 33 34  1  0
 26 35  1  0
 34 35  2  0
 29 30  1  0
 31 32  1  0
 18 19  2  0
 19 20  1  0
 20 21  2  0
 21 22  1  0
 22 23  2  0
 23 18  1  0
  1  2  2  0
  2  7  1  0
  7  8  2  0
  8  9  1  0
  9  3  2  0
  3  1  1  0
  5  6  2  0
  6 10  1  0
 10 11  2  0
 11 12  1  0
 12 13  2  0
 13  5  1  0
M  END

$$$$
No_1794-/dssg/home/sw_qyf/PocketFlow/Model-Generation-Results/5HT2A_7WC7_rec_A_10.pdb/2024-01-01-03-54-21/
     RDKit          3D

 35 38  0  0  0  0  0  0  0  0999 V2000
  -24.1553  -17.8465  145.7021 C   0  0  0  0  0  0  0  0  0  0  0  0
  -23.9795  -18.4462  146.7426 C   0  0  0  0  0  0  0  0  0  0  0  0
  -25.1593  -16.8262  145.6925 C   0  0  0  0  0  0  0  0  0  0  0  0
  -26.3426  -16.9003  146.3448 C   0  0  0  0  0  0  0  0  0  0  0  0
  -24.0322  -17.9689  147.7984 C   0  0  0  0  0  0  0  0  0  0  0  0
  -27.3343  -15.8692  146.2090 C   0  0  0  0  0  0  0  0  0  0  0  0
  -28.4837  -15.7116  147.0033 C   0  0  0  0  0  0  0  0  0  0  0  0
  -29.3622  -14.6456  146.8359 C   0  0  0  0  0  0  0  0  0  0  0  0
  -28.8995  -13.4473  146.2279 C   0  0  0  0  0  0  0  0  0  0  0  0
  -29.6105  -12.1955  146.1760 C   0  0  0  0  0  0  0  0  0  0  0  0
  -29.1925  -11.1519  145.2765 C   0  0  0  0  0  0  0  0  0  0  0  0
  -27.9214  -11.1892  144.6738 C   0  0  0  0  0  0  0  0  0  0  0  0
  -27.1346  -12.3528  144.8846 C   0  0  0  0  0  0  0  0  0  0  0  0
  -27.5917  -13.4862  145.5978 C   0  0  0  0  0  0  0  0  0  0  0  0
  -26.8342  -14.6236  145.6178 C   0  0  0  0  0  0  0  0  0  0  0  0
  -25.2707  -17.4712  148.5008 C   0  0  0  0  0  0  0  0  0  0  0  0
  -26.1746  -16.6615  147.7336 C   0  0  0  0  0  0  0  0  0  0  0  0
  -27.4822  -10.0299  143.9641 C   0  0  0  0  0  0  0  0  0  0  0  0
  -23.5839  -18.0444  144.4903 O   0  0  0  0  0  0  0  0  0  0  0  0
  -28.3965   -9.4592  143.0927 C   0  0  0  0  0  0  0  0  0  0  0  0
  -28.7296   -9.9668  141.8950 C   0  0  0  0  0  0  0  0  0  0  0  0
  -28.3613  -11.1976  141.3383 C   0  0  0  0  0  0  0  0  0  0  0  0
  -27.3390  -11.2343  140.3808 C   0  0  0  0  0  0  0  0  0  0  0  0
  -26.8114  -12.4496  139.8331 C   0  0  0  0  0  0  0  0  0  0  0  0
  -27.2085  -13.4879  140.2872 O   0  0  0  0  0  0  0  0  0  0  0  0
  -26.4180  -12.4633  138.5029 O   0  0  0  0  0  0  0  0  0  0  0  0
  -29.4140   -8.9449  141.0749 C   0  0  0  0  0  0  0  0  0  0  0  0
  -30.2770   -7.9658  141.6665 C   0  0  0  0  0  0  0  0  0  0  0  0
  -30.0204   -7.6358  143.0310 C   0  0  0  0  0  0  0  0  0  0  0  0
  -29.2143   -8.3976  143.8169 C   0  0  0  0  0  0  0  0  0  0  0  0
  -25.4404  -17.6472  149.9441 C   0  0  0  0  0  0  0  0  0  0  0  0
  -24.4843  -17.3905  150.7446 O   0  0  0  0  0  0  0  0  0  0  0  0
  -26.6594  -17.6974  150.3894 O   0  0  0  0  0  0  0  0  0  0  0  0
  -26.7811  -10.0774  139.9183 O   0  0  0  0  0  0  0  0  0  0  0  0
  -30.6050  -11.9868  147.0070 O   0  0  0  0  0  0  0  0  0  0  0  0
  1  2  1  0
  1  3  1  0
  3  4  2  0
  2  5  1  0
  4  6  1  0
  5 16  1  0
  4 17  1  0
 16 17  1  0
 12 18  1  0
  1 19  2  0
 18 20  1  0
 21 22  1  0
 22 23  2  3
 23 24  1  0
 24 25  2  0
 24 26  1  0
 16 31  1  0
 31 32  2  0
 31 33  1  0
 23 34  1  0
 10 35  1  0
 20 21  2  0
 21 27  1  0
 27 28  2  0
 28 29  1  0
 29 30  2  0
 30 20  1  0
  9 10  1  0
 10 11  2  0
 11 12  1  0
 12 13  2  0
 13 14  1  0
  6  7  2  0
  7  8  1  0
  8  9  2  0
  9 14  1  0
 14 15  2  0
 15  6  1  0
M  END

$$$$
No_1795-/dssg/home/sw_qyf/PocketFlow/Model-Generation-Results/5HT2A_7WC7_rec_A_10.pdb/2024-01-01-03-54-21/
     RDKit          3D

 35 36  0  0  0  0  0  0  0  0999 V2000
  -23.1746  -16.6014  144.8668 C   0  0  0  0  0  0  0  0  0  0  0  0
  -23.8963  -15.5346  144.7885 C   0  0  0  0  0  0  0  0  0  0  0  0
  -23.6398  -14.5115  145.3281 C   0  0  0  0  0  0  0  0  0  0  0  0
  -24.3866  -13.2477  145.3906 C   0  0  0  0  0  0  0  0  0  0  0  0
  -23.7392  -12.0982  145.9891 C   0  0  0  0  0  0  0  0  0  0  0  0
  -25.7153  -13.1102  144.9365 C   0  0  0  0  0  0  0  0  0  0  0  0
  -26.3727  -11.9055  145.3022 C   0  0  0  0  0  0  0  0  0  0  0  0
  -27.6422  -11.9421  145.7302 C   0  0  0  0  0  0  0  0  0  0  0  0
  -28.7175  -11.1408  145.2683 C   0  0  0  0  0  0  0  0  0  0  0  0
  -28.5015  -10.2197  144.2712 C   0  0  0  0  0  0  0  0  0  0  0  0
  -27.1015   -9.8773  144.0662 C   0  0  0  0  0  0  0  0  0  0  0  0
  -26.0718  -10.8458  144.4232 C   0  0  0  0  0  0  0  0  0  0  0  0
  -29.4994   -9.3947  143.6935 C   0  0  0  0  0  0  0  0  0  0  0  0
  -29.7349   -9.5479  142.3512 C   0  0  0  0  0  0  0  0  0  0  0  0
  -29.0628  -10.3029  141.4203 C   0  0  0  0  0  0  0  0  0  0  0  0
  -28.3837   -9.8805  140.2939 C   0  0  0  0  0  0  0  0  0  0  0  0
  -27.3676  -10.5765  139.6050 C   0  0  0  0  0  0  0  0  0  0  0  0
  -27.2987  -11.9851  139.8104 C   0  0  0  0  0  0  0  0  0  0  0  0
  -28.1131  -12.5336  140.9208 C   0  0  0  0  0  0  0  0  0  0  0  0
  -28.7968  -11.7204  141.6685 C   0  0  0  0  0  0  0  0  0  0  0  0
  -30.8776   -8.8245  141.7297 C   0  0  0  0  0  0  0  0  0  0  0  0
  -26.4679  -12.6746  139.0353 O   0  0  0  0  0  0  0  0  0  0  0  0
  -32.0018   -8.7485  142.3971 O   0  0  0  0  0  0  0  0  0  0  0  0
  -23.5357  -17.7830  145.6832 C   0  0  0  0  0  0  0  0  0  0  0  0
  -24.3667  -18.6779  145.4835 C   0  0  0  0  0  0  0  0  0  0  0  0
  -25.0519  -19.1949  146.4508 C   0  0  0  0  0  0  0  0  0  0  0  0
  -30.1208  -11.4059  145.5759 C   0  0  0  0  0  0  0  0  0  0  0  0
  -30.2658  -12.3597  146.5567 O   0  0  0  0  0  0  0  0  0  0  0  0
  -30.2064  -11.9415  147.8962 C   0  0  0  0  0  0  0  0  0  0  0  0
  -30.8293  -13.0072  148.8088 C   0  0  0  0  0  0  0  0  0  0  0  0
  -30.1777  -14.2350  148.6689 C   0  0  0  0  0  0  0  0  0  0  0  0
  -29.4099  -14.5717  147.5506 C   0  0  0  0  0  0  0  0  0  0  0  0
  -28.8258  -15.8992  147.6074 C   0  0  0  0  0  0  0  0  0  0  0  0
  -27.9469  -16.3395  146.5514 C   0  0  0  0  0  0  0  0  0  0  0  0
  -27.6460  -17.6036  146.3243 C   0  0  0  0  0  0  0  0  0  0  0  0
  1  2  1  0
  2  3  2  3
  3  4  1  0
  4  5  1  0
  4  6  1  0
  6  7  1  0
 10 13  1  0
 13 14  2  3
 14 15  1  0
 14 21  1  0
 18 22  1  0
 21 23  1  0
  1 24  1  0
 24 25  2  3
 25 26  1  0
  9 27  1  0
 27 28  1  0
 28 29  1  0
 29 30  1  0
 30 31  2  3
 31 32  1  0
 32 33  1  0
 33 34  2  3
 34 35  1  0
 15 16  2  0
 16 17  1  0
 17 18  2  0
 18 19  1  0
 19 20  2  0
 20 15  1  0
  7  8  2  0
  8  9  1  0
  9 10  2  0
 10 11  1  0
 11 12  2  0
 12  7  1  0
M  END

$$$$
No_1796-/dssg/home/sw_qyf/PocketFlow/Model-Generation-Results/5HT2A_7WC7_rec_A_10.pdb/2024-01-01-03-54-21/
     RDKit          3D

 35 36  0  0  0  0  0  0  0  0999 V2000
  -24.1553  -17.8465  145.7021 C   0  0  0  0  0  0  0  0  0  0  0  0
  -24.6364  -17.2931  146.7091 C   0  0  0  0  0  0  0  0  0  0  0  0
  -25.8608  -16.5592  146.5934 C   0  0  0  0  0  0  0  0  0  0  0  0
  -25.9533  -15.5604  145.6681 C   0  0  0  0  0  0  0  0  0  0  0  0
  -27.0179  -14.6632  145.5500 C   0  0  0  0  0  0  0  0  0  0  0  0
  -24.0512  -16.8635  144.5478 C   0  0  0  0  0  0  0  0  0  0  0  0
  -25.0352  -15.8697  144.5502 C   0  0  0  0  0  0  0  0  0  0  0  0
  -26.8557  -13.4925  144.7845 C   0  0  0  0  0  0  0  0  0  0  0  0
  -26.7071  -12.2839  145.4011 C   0  0  0  0  0  0  0  0  0  0  0  0
  -26.3143  -12.1135  146.6370 C   0  0  0  0  0  0  0  0  0  0  0  0
  -27.3105  -11.0670  144.7052 C   0  0  0  0  0  0  0  0  0  0  0  0
  -28.6230  -10.9222  144.6158 C   0  0  0  0  0  0  0  0  0  0  0  0
  -29.2232   -9.8017  143.9317 C   0  0  0  0  0  0  0  0  0  0  0  0
  -30.5614   -9.4579  144.1170 C   0  0  0  0  0  0  0  0  0  0  0  0
  -31.1017   -8.5399  143.2614 C   0  0  0  0  0  0  0  0  0  0  0  0
  -30.3399   -7.9222  142.2703 C   0  0  0  0  0  0  0  0  0  0  0  0
  -29.0541   -8.4037  142.0035 C   0  0  0  0  0  0  0  0  0  0  0  0
  -28.5281   -9.3773  142.7818 C   0  0  0  0  0  0  0  0  0  0  0  0
  -23.6792  -16.5985  147.7919 C   0  0  0  0  0  0  0  0  0  0  0  0
  -23.7965  -17.5202  149.0717 C   0  0  0  0  0  0  0  0  0  0  0  0
  -24.9819  -17.5193  149.8271 C   0  0  0  0  0  0  0  0  0  0  0  0
  -24.9304  -17.4721  151.1180 N   0  0  0  0  0  0  0  0  0  0  0  0
  -23.7738  -19.1770  145.6614 C   0  0  0  0  0  0  0  0  0  0  0  0
  -26.0997  -17.6584  149.2439 O   0  0  0  0  0  0  0  0  0  0  0  0
  -26.1585  -13.0236  147.4263 F   0  0  0  0  0  0  0  0  0  0  0  0
  -26.8654  -11.1427  147.3220 F   0  0  0  0  0  0  0  0  0  0  0  0
  -24.9940  -11.4914  146.4762 F   0  0  0  0  0  0  0  0  0  0  0  0
  -26.7892  -13.6623  143.3503 C   0  0  0  0  0  0  0  0  0  0  0  0
  -24.3234  -19.9871  146.0577 O   0  0  0  0  0  0  0  0  0  0  0  0
  -22.5575  -19.4927  145.1341 O   0  0  0  0  0  0  0  0  0  0  0  0
  -28.5080   -7.9197  140.7317 C   0  0  0  0  0  0  0  0  0  0  0  0
  -27.9130   -8.9048  139.9194 C   0  0  0  0  0  0  0  0  0  0  0  0
  -27.4810  -10.1405  140.3180 C   0  0  0  0  0  0  0  0  0  0  0  0
  -26.8153  -10.9419  139.3692 C   0  0  0  0  0  0  0  0  0  0  0  0
  -27.1881  -12.3285  139.3886 C   0  0  0  0  0  0  0  0  0  0  0  0
  1  2  1  0
  2  3  1  0
  3  4  1  0
  4  5  2  3
  1  6  1  0
  4  7  1  0
  6  7  1  0
  5  8  1  0
  8  9  2  3
  9 10  1  0
  9 11  1  0
 11 12  2  3
 12 13  1  0
  2 19  1  0
 19 20  1  0
 20 21  1  0
 21 22  1  0
  1 23  1  0
 21 24  2  0
 10 25  1  0
 10 26  1  0
 10 27  1  0
  8 28  1  0
 23 29  2  0
 23 30  1  0
 17 31  1  0
 31 32  1  0
 32 33  2  3
 33 34  1  0
 34 35  1  0
 13 14  2  0
 14 15  1  0
 15 16  2  0
 16 17  1  0
 17 18  2  0
 18 13  1  0
M  END

$$$$
No_1797-/dssg/home/sw_qyf/PocketFlow/Model-Generation-Results/5HT2A_7WC7_rec_A_10.pdb/2024-01-01-03-54-21/
     RDKit          3D

 17 18  0  0  0  0  0  0  0  0999 V2000
  -24.1553  -17.8465  145.7021 C   0  0  0  0  0  0  0  0  0  0  0  0
  -23.9795  -18.4462  146.7426 C   0  0  0  0  0  0  0  0  0  0  0  0
  -24.3577  -16.4380  145.7329 C   0  0  0  0  0  0  0  0  0  0  0  0
  -24.6120  -15.7738  146.9649 C   0  0  0  0  0  0  0  0  0  0  0  0
  -24.4666  -16.5590  148.1483 C   0  0  0  0  0  0  0  0  0  0  0  0
  -24.1608  -17.8621  148.1048 C   0  0  0  0  0  0  0  0  0  0  0  0
  -24.4723  -15.5994  144.5525 C   0  0  0  0  0  0  0  0  0  0  0  0
  -24.6785  -14.1500  144.7440 C   0  0  0  0  0  0  0  0  0  0  0  0
  -25.3089  -13.6321  143.8886 C   0  0  0  0  0  0  0  0  0  0  0  0
  -26.8485  -13.7778  144.2376 C   0  0  0  0  0  0  0  0  0  0  0  0
  -27.0539  -13.9937  145.5768 C   0  0  0  0  0  0  0  0  0  0  0  0
  -25.9302  -13.3140  146.2879 C   0  0  0  0  0  0  0  0  0  0  0  0
  -24.6068  -13.8541  146.0435 C   0  0  0  0  0  0  0  0  0  0  0  0
  -24.5893  -14.0418  147.1073 Cl  0  0  0  0  0  0  0  0  0  0  0  0
  -25.8001  -15.9614  147.0101 O   0  0  0  0  0  0  0  0  0  0  0  0
  -26.8792  -16.4696  147.2632 C   0  0  0  0  0  0  0  0  0  0  0  0
  -26.2415  -11.9684  146.7315 N   0  0  0  0  0  0  0  0  0  0  0  0
  3  7  1  0
  7  8  1  0
  8  9  1  0
  9 10  1  0
 10 11  1  0
 11 12  1  0
  8 13  1  0
 12 13  1  0
 13 14  1  0
  4 15  1  0
 15 16  1  0
 12 17  2  0
  1  2  2  0
  2  6  1  0
  6  5  2  0
  5  4  1  0
  4  3  2  0
  3  1  1  0
M  END

$$$$
No_1798-/dssg/home/sw_qyf/PocketFlow/Model-Generation-Results/5HT2A_7WC7_rec_A_10.pdb/2024-01-01-03-54-21/
     RDKit          3D

 13 13  0  0  0  0  0  0  0  0999 V2000
  -23.1746  -16.6014  144.8668 C   0  0  0  0  0  0  0  0  0  0  0  0
  -23.7011  -17.0158  145.9774 C   0  0  0  0  0  0  0  0  0  0  0  0
  -24.2134  -16.0722  146.8877 C   0  0  0  0  0  0  0  0  0  0  0  0
  -24.5407  -14.7704  146.3552 C   0  0  0  0  0  0  0  0  0  0  0  0
  -24.9626  -13.7061  147.1333 C   0  0  0  0  0  0  0  0  0  0  0  0
  -24.0995  -14.5614  145.0046 C   0  0  0  0  0  0  0  0  0  0  0  0
  -23.4166  -15.4695  144.2822 C   0  0  0  0  0  0  0  0  0  0  0  0
  -25.2448  -12.4558  146.3240 C   0  0  0  0  0  0  0  0  0  0  0  0
  -26.2417  -12.3283  145.6556 C   0  0  0  0  0  0  0  0  0  0  0  0
  -27.4273  -12.9919  145.7535 C   0  0  0  0  0  0  0  0  0  0  0  0
  -28.6000  -12.4223  145.1316 C   0  0  0  0  0  0  0  0  0  0  0  0
  -28.4983  -11.2120  144.3497 C   0  0  0  0  0  0  0  0  0  0  0  0
  -27.3040  -10.5280  144.3094 C   0  0  0  0  0  0  0  0  0  0  0  0
  4  5  1  0
  5  8  1  0
  8  9  2  3
  9 10  1  0
 10 11  2  3
 11 12  1  0
 12 13  2  0
  1  2  2  0
  2  3  1  0
  3  4  2  0
  4  6  1  0
  6  7  2  0
  7  1  1  0
M  END

$$$$
No_1799-/dssg/home/sw_qyf/PocketFlow/Model-Generation-Results/5HT2A_7WC7_rec_A_10.pdb/2024-01-01-03-54-21/
     RDKit          3D

 31 34  0  0  0  0  0  0  0  0999 V2000
  -23.1746  -16.6014  144.8668 C   0  0  0  0  0  0  0  0  0  0  0  0
  -23.7011  -17.0158  145.9774 C   0  0  0  0  0  0  0  0  0  0  0  0
  -24.7096  -16.6222  146.3577 C   0  0  0  0  0  0  0  0  0  0  0  0
  -25.2589  -16.9410  147.8027 C   0  0  0  0  0  0  0  0  0  0  0  0
  -24.3234  -17.5558  148.6398 C   0  0  0  0  0  0  0  0  0  0  0  0
  -23.7919  -15.5148  144.2100 C   0  0  0  0  0  0  0  0  0  0  0  0
  -24.8968  -14.8817  144.7775 C   0  0  0  0  0  0  0  0  0  0  0  0
  -25.3730  -15.4146  145.9639 C   0  0  0  0  0  0  0  0  0  0  0  0
  -24.7003  -17.7377  150.0497 C   0  0  0  0  0  0  0  0  0  0  0  0
  -25.5170  -13.8153  144.1481 N   0  0  0  0  0  0  0  0  0  0  0  0
  -26.7256  -13.3863  144.5187 C   0  0  0  0  0  0  0  0  0  0  0  0
  -26.7965  -11.9587  144.7001 C   0  0  0  0  0  0  0  0  0  0  0  0
  -27.2326  -11.1564  143.9154 C   0  0  0  0  0  0  0  0  0  0  0  0
  -27.3619   -9.6852  144.2395 C   0  0  0  0  0  0  0  0  0  0  0  0
  -28.4185  -11.4995  143.0459 C   0  0  0  0  0  0  0  0  0  0  0  0
  -28.4037  -10.6413  141.8063 C   0  0  0  0  0  0  0  0  0  0  0  0
  -27.7605  -11.0013  140.7051 C   0  0  0  0  0  0  0  0  0  0  0  0
  -27.8495  -10.0919  139.6242 C   0  0  0  0  0  0  0  0  0  0  0  0
  -27.1453  -10.2774  138.3945 C   0  0  0  0  0  0  0  0  0  0  0  0
  -26.7992  -11.6559  138.2863 C   0  0  0  0  0  0  0  0  0  0  0  0
  -26.8557  -12.6100  139.3615 C   0  0  0  0  0  0  0  0  0  0  0  0
  -27.3794  -12.2360  140.5406 C   0  0  0  0  0  0  0  0  0  0  0  0
  -26.5657  -17.7525  147.7942 C   0  0  0  0  0  0  0  0  0  0  0  0
  -27.5261  -16.9418  146.9591 C   0  0  0  0  0  0  0  0  0  0  0  0
  -24.6893  -16.4699  150.7859 C   0  0  0  0  0  0  0  0  0  0  0  0
  -27.7335  -17.0687  145.7640 O   0  0  0  0  0  0  0  0  0  0  0  0
  -28.3522   -8.6445  139.8418 C   0  0  0  0  0  0  0  0  0  0  0  0
  -28.4458   -7.7361  138.9021 C   0  0  0  0  0  0  0  0  0  0  0  0
  -29.0259   -8.3573  141.1670 C   0  0  0  0  0  0  0  0  0  0  0  0
  -28.8204   -9.1408  142.1304 C   0  0  0  0  0  0  0  0  0  0  0  0
  -28.2569   -8.8602  143.4161 C   0  0  0  0  0  0  0  0  0  0  0  0
  3  4  1  0
  4  5  2  3
  5  9  1  0
  7 10  1  0
 10 11  1  0
 11 12  1  0
 12 13  2  3
 13 14  1  0
 13 15  1  0
 15 16  1  0
  4 23  1  0
 23 24  1  0
  9 25  1  0
 24 26  1  0
 27 28  1  0
 14 31  1  0
 30 31  1  0
 18 19  1  0
 19 20  2  0
 20 21  1  0
 21 22  2  0
 22 17  1  0
  1  2  2  0
  2  3  1  0
  3  8  2  0
  8  7  1  0
  7  6  2  0
  6  1  1  0
 16 17  2  0
 17 18  1  0
 18 27  2  0
 27 29  1  0
 29 30  2  0
 30 16  1  0
M  END

$$$$
No_1800-/dssg/home/sw_qyf/PocketFlow/Model-Generation-Results/5HT2A_7WC7_rec_A_10.pdb/2024-01-01-03-54-21/
     RDKit          3D

 35 37  0  0  0  0  0  0  0  0999 V2000
  -23.8998  -17.8495  145.5131 N   0  0  0  0  0  0  0  0  0  0  0  0
  -24.1393  -18.2577  146.6176 C   0  0  0  0  0  0  0  0  0  0  0  0
  -24.0592  -16.5115  145.1603 C   0  0  0  0  0  0  0  0  0  0  0  0
  -24.5987  -15.7022  146.1904 C   0  0  0  0  0  0  0  0  0  0  0  0
  -24.8614  -14.3133  145.9682 C   0  0  0  0  0  0  0  0  0  0  0  0
  -25.4734  -13.5010  146.9885 C   0  0  0  0  0  0  0  0  0  0  0  0
  -24.6649  -17.6088  147.6936 C   0  0  0  0  0  0  0  0  0  0  0  0
  -24.8669  -16.2298  147.5048 C   0  0  0  0  0  0  0  0  0  0  0  0
  -24.0613  -13.6726  144.9296 C   0  0  0  0  0  0  0  0  0  0  0  0
  -25.5967  -12.1265  146.6610 C   0  0  0  0  0  0  0  0  0  0  0  0
  -23.4262  -14.3100  143.9143 C   0  0  0  0  0  0  0  0  0  0  0  0
  -23.3561  -15.7949  144.1804 C   0  0  0  0  0  0  0  0  0  0  0  0
  -26.7308  -11.4563  146.5406 C   0  0  0  0  0  0  0  0  0  0  0  0
  -26.9624  -10.5980  145.3524 C   0  0  0  0  0  0  0  0  0  0  0  0
  -28.2521  -10.3363  144.8912 C   0  0  0  0  0  0  0  0  0  0  0  0
  -28.4949   -9.7495  143.6341 C   0  0  0  0  0  0  0  0  0  0  0  0
  -29.3862   -8.7036  143.5880 C   0  0  0  0  0  0  0  0  0  0  0  0
  -30.7416   -8.9322  144.0421 C   0  0  0  0  0  0  0  0  0  0  0  0
  -31.6056   -8.0097  143.8794 N   0  0  0  0  0  0  0  0  0  0  0  0
  -28.7046  -10.8317  142.5861 C   0  0  0  0  0  0  0  0  0  0  0  0
  -28.3910  -10.4025  141.2135 C   0  0  0  0  0  0  0  0  0  0  0  0
  -28.5439   -9.1431  140.7118 C   0  0  0  0  0  0  0  0  0  0  0  0
  -28.2680   -8.9244  139.3983 C   0  0  0  0  0  0  0  0  0  0  0  0
  -27.9197   -9.9538  138.5452 C   0  0  0  0  0  0  0  0  0  0  0  0
  -27.8298  -11.2242  139.0712 C   0  0  0  0  0  0  0  0  0  0  0  0
  -28.0563  -11.5092  140.4375 C   0  0  0  0  0  0  0  0  0  0  0  0
  -27.4405  -12.2870  138.2514 N   0  0  0  0  0  0  0  0  0  0  0  0
  -28.4297   -7.5266  138.8621 C   0  0  0  0  0  0  0  0  0  0  0  0
  -25.9587  -10.3497  144.5561 O   0  0  0  0  0  0  0  0  0  0  0  0
  -27.9780   -7.2794  137.7045 N   0  0  0  0  0  0  0  0  0  0  0  0
  -28.6671   -6.5572  139.7257 O   0  0  0  0  0  0  0  0  0  0  0  0
  -31.0093   -9.9566  144.7450 O   0  0  0  0  0  0  0  0  0  0  0  0
  -24.8925  -18.1043  148.9456 O   0  0  0  0  0  0  0  0  0  0  0  0
  -25.0067  -17.1623  150.1265 C   0  0  0  0  0  0  0  0  0  0  0  0
  -23.7723  -19.5286  146.9306 O   0  0  0  0  0  0  0  0  0  0  0  0
  1  2  1  0
  1  3  1  0
  2  7  1  0
  4  8  1  0
  7  8  1  0
  6 10  1  0
 10 13  1  0
 13 14  1  0
 14 15  1  0
 15 16  2  3
 16 17  1  0
 17 18  1  0
 18 19  1  0
 16 20  1  0
 20 21  1  0
 25 27  1  0
 23 28  1  0
 14 29  2  0
 28 30  1  0
 28 31  2  0
 18 32  2  0
  7 33  1  0
 33 34  1  0
  2 35  2  0
  6  5  1  0
  3 12  2  0
 12 11  1  0
 11  9  2  0
  9  5  1  0
  5  4  2  0
  4  3  1  0
 21 22  2  0
 22 23  1  0
 23 24  2  0
 24 25  1  0
 25 26  2  0
 26 21  1  0
M  END

$$$$
No_1801-/dssg/home/sw_qyf/PocketFlow/Model-Generation-Results/5HT2A_7WC7_rec_A_10.pdb/2024-01-01-03-54-21/
     RDKit          3D

 16 17  0  0  0  0  0  0  0  0999 V2000
  -24.1553  -17.8465  145.7021 C   0  0  0  0  0  0  0  0  0  0  0  0
  -24.6364  -17.2931  146.7091 C   0  0  0  0  0  0  0  0  0  0  0  0
  -24.0780  -17.2921  147.9389 C   0  0  0  0  0  0  0  0  0  0  0  0
  -24.6869  -16.7004  149.1440 C   0  0  0  0  0  0  0  0  0  0  0  0
  -26.0385  -16.2385  148.9552 C   0  0  0  0  0  0  0  0  0  0  0  0
  -26.6430  -16.2999  147.7413 C   0  0  0  0  0  0  0  0  0  0  0  0
  -25.9652  -16.9120  146.6641 C   0  0  0  0  0  0  0  0  0  0  0  0
  -23.7856  -16.8939  144.5670 C   0  0  0  0  0  0  0  0  0  0  0  0
  -23.4603  -15.8465  145.0527 O   0  0  0  0  0  0  0  0  0  0  0  0
  -23.5749  -14.6370  144.1855 C   0  0  0  0  0  0  0  0  0  0  0  0
  -24.6751  -13.7019  144.6416 C   0  0  0  0  0  0  0  0  0  0  0  0
  -25.8932  -13.9018  144.1846 C   0  0  0  0  0  0  0  0  0  0  0  0
  -26.9517  -12.9410  144.3807 C   0  0  0  0  0  0  0  0  0  0  0  0
  -26.6413  -11.8350  145.2485 C   0  0  0  0  0  0  0  0  0  0  0  0
  -25.3349  -11.6979  145.8294 C   0  0  0  0  0  0  0  0  0  0  0  0
  -24.3537  -12.5531  145.5262 C   0  0  0  0  0  0  0  0  0  0  0  0
  1  2  1  0
  1  8  1  0
  8  9  1  0
  9 10  1  0
 10 11  1  0
 11 12  2  0
 12 13  1  0
 13 14  2  0
 14 15  1  0
 15 16  2  0
 16 11  1  0
  2  3  2  0
  3  4  1  0
  4  5  2  0
  5  6  1  0
  6  7  2  0
  7  2  1  0
M  END

$$$$
No_1802-/dssg/home/sw_qyf/PocketFlow/Model-Generation-Results/5HT2A_7WC7_rec_A_10.pdb/2024-01-01-03-54-21/
     RDKit          3D

 35 39  0  0  0  0  0  0  0  0999 V2000
  -24.1553  -17.8465  145.7021 C   0  0  0  0  0  0  0  0  0  0  0  0
  -23.9795  -18.4462  146.7426 C   0  0  0  0  0  0  0  0  0  0  0  0
  -25.1593  -16.8262  145.6925 C   0  0  0  0  0  0  0  0  0  0  0  0
  -25.9346  -16.5763  146.8154 C   0  0  0  0  0  0  0  0  0  0  0  0
  -27.0180  -15.6510  146.7805 C   0  0  0  0  0  0  0  0  0  0  0  0
  -28.0430  -15.6063  147.6987 C   0  0  0  0  0  0  0  0  0  0  0  0
  -29.0371  -14.6667  147.6165 C   0  0  0  0  0  0  0  0  0  0  0  0
  -28.8858  -13.5756  146.7545 C   0  0  0  0  0  0  0  0  0  0  0  0
  -27.7852  -13.4756  145.9521 C   0  0  0  0  0  0  0  0  0  0  0  0
  -26.8474  -14.4943  145.9582 C   0  0  0  0  0  0  0  0  0  0  0  0
  -24.5904  -18.2383  147.9778 C   0  0  0  0  0  0  0  0  0  0  0  0
  -25.6389  -17.2520  148.0070 C   0  0  0  0  0  0  0  0  0  0  0  0
  -29.8655  -12.3925  146.5840 C   0  0  0  0  0  0  0  0  0  0  0  0
  -29.5793  -11.2824  145.7301 C   0  0  0  0  0  0  0  0  0  0  0  0
  -28.4750  -11.2238  144.8790 C   0  0  0  0  0  0  0  0  0  0  0  0
  -27.4533  -12.2902  145.0765 C   0  0  0  0  0  0  0  0  0  0  0  0
  -28.1922  -10.1149  144.0632 C   0  0  0  0  0  0  0  0  0  0  0  0
  -27.8617  -10.3182  142.7861 C   0  0  0  0  0  0  0  0  0  0  0  0
  -28.6634   -9.7388  141.7332 C   0  0  0  0  0  0  0  0  0  0  0  0
  -29.8230   -8.9868  141.9910 C   0  0  0  0  0  0  0  0  0  0  0  0
  -30.8770   -9.4514  142.7657 C   0  0  0  0  0  0  0  0  0  0  0  0
  -32.0001   -8.6405  142.9012 N   0  0  0  0  0  0  0  0  0  0  0  0
  -28.1225   -9.7887  140.3918 C   0  0  0  0  0  0  0  0  0  0  0  0
  -27.7495  -10.4610  139.7052 C   0  0  0  0  0  0  0  0  0  0  0  0
  -27.6665  -10.4989  138.2518 C   0  0  0  0  0  0  0  0  0  0  0  0
  -28.3180   -9.3111  137.6871 C   0  0  0  0  0  0  0  0  0  0  0  0
  -28.7139   -8.2379  138.5590 C   0  0  0  0  0  0  0  0  0  0  0  0
  -28.7386   -8.4247  139.8023 C   0  0  0  0  0  0  0  0  0  0  0  0
  -26.3630  -12.1914  144.4723 O   0  0  0  0  0  0  0  0  0  0  0  0
  -29.3559   -7.6477  140.7984 N   0  0  0  0  0  0  0  0  0  0  0  0
  -23.5811  -18.0143  144.5295 F   0  0  0  0  0  0  0  0  0  0  0  0
  -30.9124  -12.4349  147.4144 O   0  0  0  0  0  0  0  0  0  0  0  0
  -30.6137  -12.0135  148.8060 C   0  0  0  0  0  0  0  0  0  0  0  0
  -30.4072  -13.0560  149.6334 C   0  0  0  0  0  0  0  0  0  0  0  0
  -31.6506  -13.8779  149.8138 C   0  0  0  0  0  0  0  0  0  0  0  0
  4  5  1  0
  8 13  1  0
 13 14  1  0
  9 16  1  0
 15 16  1  0
 15 17  1  0
 17 18  1  0
 18 19  1  0
 19 20  1  0
 20 21  2  3
 21 22  1  0
 19 23  1  0
 16 29  2  0
 20 30  1  0
 28 30  1  0
  1 31  1  0
 13 32  1  0
 32 33  1  0
 33 34  1  0
 34 35  1  0
 14 15  1  0
  1  2  2  0
  2 11  1  0
 11 12  2  0
 12  4  1  0
  4  3  2  0
  3  1  1  0
 23 24  2  0
 24 25  1  0
 25 26  2  0
 26 27  1  0
 27 28  2  0
 28 23  1  0
  5  6  2  0
  6  7  1  0
  7  8  2  0
  8  9  1  0
  9 10  2  0
 10  5  1  0
M  END

$$$$
No_1803-/dssg/home/sw_qyf/PocketFlow/Model-Generation-Results/5HT2A_7WC7_rec_A_10.pdb/2024-01-01-03-54-21/
     RDKit          3D

 18 19  0  0  0  0  0  0  0  0999 V2000
  -23.1746  -16.6014  144.8668 C   0  0  0  0  0  0  0  0  0  0  0  0
  -23.7011  -17.0158  145.9774 C   0  0  0  0  0  0  0  0  0  0  0  0
  -24.7096  -16.6222  146.3577 C   0  0  0  0  0  0  0  0  0  0  0  0
  -25.2589  -16.9410  147.8027 C   0  0  0  0  0  0  0  0  0  0  0  0
  -26.4623  -16.4173  148.3313 C   0  0  0  0  0  0  0  0  0  0  0  0
  -23.7746  -15.4747  144.2302 C   0  0  0  0  0  0  0  0  0  0  0  0
  -24.8824  -14.8618  144.8182 C   0  0  0  0  0  0  0  0  0  0  0  0
  -25.3598  -15.4040  145.9867 C   0  0  0  0  0  0  0  0  0  0  0  0
  -27.1114  -15.3626  147.6342 C   0  0  0  0  0  0  0  0  0  0  0  0
  -26.5598  -14.8326  146.4790 C   0  0  0  0  0  0  0  0  0  0  0  0
  -27.2616  -13.7312  145.8817 C   0  0  0  0  0  0  0  0  0  0  0  0
  -28.3779  -13.1277  146.4712 C   0  0  0  0  0  0  0  0  0  0  0  0
  -28.8882  -11.8709  145.9593 C   0  0  0  0  0  0  0  0  0  0  0  0
  -30.0596  -11.2282  146.5189 C   0  0  0  0  0  0  0  0  0  0  0  0
  -30.4278  -11.6213  147.7412 F   0  0  0  0  0  0  0  0  0  0  0  0
  -29.7085   -9.8336  146.6699 F   0  0  0  0  0  0  0  0  0  0  0  0
  -23.0205  -18.3336  146.5139 C   0  0  0  0  0  0  0  0  0  0  0  0
  -28.4566  -11.4606  144.8125 O   0  0  0  0  0  0  0  0  0  0  0  0
 10 11  1  0
 11 12  2  3
 12 13  1  0
 13 14  1  0
 14 15  1  0
 14 16  1  0
  2 17  1  0
 13 18  2  0
  1  2  2  0
  2  3  1  0
  8  7  1  0
  7  6  2  0
  6  1  1  0
  3  4  2  0
  4  5  1  0
  5  9  2  0
  9 10  1  0
 10  8  2  0
  8  3  1  0
M  END

$$$$
No_1804-/dssg/home/sw_qyf/PocketFlow/Model-Generation-Results/5HT2A_7WC7_rec_A_10.pdb/2024-01-01-03-54-21/
     RDKit          3D

 30 34  0  0  0  0  0  0  0  0999 V2000
  -24.1553  -17.8465  145.7021 C   0  0  0  0  0  0  0  0  0  0  0  0
  -23.9795  -18.4462  146.7426 C   0  0  0  0  0  0  0  0  0  0  0  0
  -25.1593  -16.8262  145.6925 C   0  0  0  0  0  0  0  0  0  0  0  0
  -24.9465  -15.5961  144.9952 C   0  0  0  0  0  0  0  0  0  0  0  0
  -25.8223  -14.4752  145.0170 C   0  0  0  0  0  0  0  0  0  0  0  0
  -26.5395  -14.2060  146.1042 C   0  0  0  0  0  0  0  0  0  0  0  0
  -27.3766  -13.0570  146.1653 C   0  0  0  0  0  0  0  0  0  0  0  0
  -28.3895  -12.7270  147.0768 C   0  0  0  0  0  0  0  0  0  0  0  0
  -27.1121  -11.9787  145.1656 C   0  0  0  0  0  0  0  0  0  0  0  0
  -28.1122  -11.0058  144.8840 C   0  0  0  0  0  0  0  0  0  0  0  0
  -27.8466  -10.0396  143.8782 C   0  0  0  0  0  0  0  0  0  0  0  0
  -28.8775   -9.1703  143.5219 C   0  0  0  0  0  0  0  0  0  0  0  0
  -30.1798   -9.2739  144.0186 C   0  0  0  0  0  0  0  0  0  0  0  0
  -31.1326   -8.3895  143.5654 C   0  0  0  0  0  0  0  0  0  0  0  0
  -28.8825  -13.8038  147.8623 C   0  0  0  0  0  0  0  0  0  0  0  0
  -30.7573   -7.3817  142.6613 C   0  0  0  0  0  0  0  0  0  0  0  0
  -29.5500   -7.2177  142.1426 C   0  0  0  0  0  0  0  0  0  0  0  0
  -28.5412   -8.2427  142.5756 C   0  0  0  0  0  0  0  0  0  0  0  0
  -24.5569  -17.8885  147.9824 C   0  0  0  0  0  0  0  0  0  0  0  0
  -25.5046  -16.9656  148.0388 C   0  0  0  0  0  0  0  0  0  0  0  0
  -25.7020  -16.1656  146.8853 C   0  0  0  0  0  0  0  0  0  0  0  0
  -26.3653  -15.0863  147.0685 C   0  0  0  0  0  0  0  0  0  0  0  0
  -29.1976   -6.3596  141.3012 F   0  0  0  0  0  0  0  0  0  0  0  0
  -24.0518  -15.5918  143.9190 O   0  0  0  0  0  0  0  0  0  0  0  0
  -30.1734  -13.5917  148.5607 C   0  0  0  0  0  0  0  0  0  0  0  0
  -30.7498  -12.3380  148.4064 C   0  0  0  0  0  0  0  0  0  0  0  0
  -30.3167  -11.3961  147.4257 C   0  0  0  0  0  0  0  0  0  0  0  0
  -29.1644  -11.5980  146.7720 C   0  0  0  0  0  0  0  0  0  0  0  0
  -29.0203  -10.8305  145.7462 N   0  0  0  0  0  0  0  0  0  0  0  0
  -31.9003  -12.1448  149.1254 F   0  0  0  0  0  0  0  0  0  0  0  0
  6  7  1  0
 10 11  1  0
 17 23  1  0
  4 24  1  0
 26 30  1  0
 11 12  1  0
  3  4  2  0
  4  5  1  0
  5  6  2  0
  6 22  1  0
 22 21  2  0
  8 15  1  0
 15 25  2  0
 25 26  1  0
 26 27  2  0
 27 28  1  0
  1  2  2  0
  2 19  1  0
 19 20  2  0
 20 21  1  0
 21  3  1  0
  3  1  1  0
  7  8  2  0
  8 28  1  0
 28 29  2  0
 29 10  1  0
 10  9  2  0
  9  7  1  0
 12 13  2  0
 13 14  1  0
 14 16  2  0
 16 17  1  0
 17 18  2  0
 18 12  1  0
M  END

$$$$
No_1805-/dssg/home/sw_qyf/PocketFlow/Model-Generation-Results/5HT2A_7WC7_rec_A_10.pdb/2024-01-01-03-54-21/
     RDKit          3D

 26 28  0  0  0  0  0  0  0  0999 V2000
  -24.1553  -17.8465  145.7021 C   0  0  0  0  0  0  0  0  0  0  0  0
  -24.6364  -17.2931  146.7091 C   0  0  0  0  0  0  0  0  0  0  0  0
  -24.5709  -15.9334  146.8074 C   0  0  0  0  0  0  0  0  0  0  0  0
  -24.3883  -15.1807  145.6115 C   0  0  0  0  0  0  0  0  0  0  0  0
  -23.6710  -15.8133  144.5990 C   0  0  0  0  0  0  0  0  0  0  0  0
  -23.7275  -17.1747  144.5879 C   0  0  0  0  0  0  0  0  0  0  0  0
  -24.3666  -13.6435  145.7337 C   0  0  0  0  0  0  0  0  0  0  0  0
  -23.5147  -12.9141  145.0910 C   0  0  0  0  0  0  0  0  0  0  0  0
  -23.6105  -11.4827  145.1451 C   0  0  0  0  0  0  0  0  0  0  0  0
  -24.9117  -10.9736  145.5253 C   0  0  0  0  0  0  0  0  0  0  0  0
  -25.5484  -12.8643  146.1637 C   0  0  0  0  0  0  0  0  0  0  0  0
  -25.7990  -11.6685  146.1726 C   0  0  0  0  0  0  0  0  0  0  0  0
  -24.0337  -19.3825  145.6499 C   0  0  0  0  0  0  0  0  0  0  0  0
  -26.5223  -13.7804  146.8784 O   0  0  0  0  0  0  0  0  0  0  0  0
  -27.7715  -13.9446  146.3169 C   0  0  0  0  0  0  0  0  0  0  0  0
  -28.4283  -15.0250  146.8672 C   0  0  0  0  0  0  0  0  0  0  0  0
  -29.7905  -14.7962  147.3451 C   0  0  0  0  0  0  0  0  0  0  0  0
  -30.0309  -13.5412  147.8279 C   0  0  0  0  0  0  0  0  0  0  0  0
  -29.5065  -12.3854  147.0685 C   0  0  0  0  0  0  0  0  0  0  0  0
  -30.0032  -11.0465  147.1536 C   0  0  0  0  0  0  0  0  0  0  0  0
  -28.2759  -12.6556  146.3021 C   0  0  0  0  0  0  0  0  0  0  0  0
  -31.0506  -11.0029  147.8147 O   0  0  0  0  0  0  0  0  0  0  0  0
  -29.7718  -10.2400  146.2220 O   0  0  0  0  0  0  0  0  0  0  0  0
  -25.0745  -20.0383  145.6939 O   0  0  0  0  0  0  0  0  0  0  0  0
  -22.8668  -19.8785  145.9927 O   0  0  0  0  0  0  0  0  0  0  0  0
  -27.9466  -16.3652  146.7700 C   0  0  0  0  0  0  0  0  0  0  0  0
  4  7  1  0
  1 13  1  0
 11 14  1  0
 14 15  1  0
 19 20  1  0
 20 22  1  0
 20 23  2  0
 13 24  2  0
 13 25  1  0
 16 26  1  0
  7  8  2  0
  8  9  1  0
  9 10  2  0
 10 12  1  0
 12 11  2  0
 11  7  1  0
  1  2  2  0
  2  3  1  0
  3  4  2  0
  4  5  1  0
  5  6  2  0
  6  1  1  0
 15 16  2  0
 16 17  1  0
 17 18  2  0
 18 19  1  0
 19 21  2  0
 21 15  1  0
M  END

$$$$
No_1806-/dssg/home/sw_qyf/PocketFlow/Model-Generation-Results/5HT2A_7WC7_rec_A_10.pdb/2024-01-01-03-54-21/
     RDKit          3D

 15 16  0  0  0  0  0  0  0  0999 V2000
  -24.1553  -17.8465  145.7021 C   0  0  0  0  0  0  0  0  0  0  0  0
  -24.2856  -16.6364  145.3494 C   0  0  0  0  0  0  0  0  0  0  0  0
  -23.7824  -15.9602  144.3554 C   0  0  0  0  0  0  0  0  0  0  0  0
  -23.9871  -14.5276  144.1537 C   0  0  0  0  0  0  0  0  0  0  0  0
  -24.7876  -13.8357  145.1351 C   0  0  0  0  0  0  0  0  0  0  0  0
  -25.3945  -14.5459  146.1755 C   0  0  0  0  0  0  0  0  0  0  0  0
  -25.0741  -15.8908  146.3327 C   0  0  0  0  0  0  0  0  0  0  0  0
  -23.4416  -18.3347  146.7455 C   0  0  0  0  0  0  0  0  0  0  0  0
  -23.0504  -19.4439  146.9185 N   0  0  0  0  0  0  0  0  0  0  0  0
  -22.7794  -17.4021  147.4695 F   0  0  0  0  0  0  0  0  0  0  0  0
  -25.0159  -12.1463  144.9309 Cl  0  0  0  0  0  0  0  0  0  0  0  0
  -25.8519  -16.7467  147.8449 Br  0  0  0  0  0  0  0  0  0  0  0  0
  -22.9520  -20.2125  145.8004 C   0  0  0  0  0  0  0  0  0  0  0  0
  -23.6581  -20.0460  144.7508 N   0  0  0  0  0  0  0  0  0  0  0  0
  -24.0492  -18.7258  144.5926 C   0  0  0  0  0  0  0  0  0  0  0  0
  1  2  1  0
  8 10  1  0
  5 11  1  0
  7 12  1  0
  1  8  2  0
  8  9  1  0
  9 13  2  0
 13 14  1  0
 14 15  2  0
 15  1  1  0
  2  3  2  0
  3  4  1  0
  4  5  2  0
  5  6  1  0
  6  7  2  0
  7  2  1  0
M  END

$$$$
No_1807-/dssg/home/sw_qyf/PocketFlow/Model-Generation-Results/5HT2A_7WC7_rec_A_10.pdb/2024-01-01-03-54-21/
     RDKit          3D

 27 29  0  0  0  0  0  0  0  0999 V2000
  -23.1746  -16.6014  144.8668 C   0  0  0  0  0  0  0  0  0  0  0  0
  -24.0189  -16.0564  145.8445 C   0  0  0  0  0  0  0  0  0  0  0  0
  -25.3176  -15.9168  145.6822 C   0  0  0  0  0  0  0  0  0  0  0  0
  -26.1693  -16.6799  146.4632 C   0  0  0  0  0  0  0  0  0  0  0  0
  -27.3342  -16.3626  146.7573 C   0  0  0  0  0  0  0  0  0  0  0  0
  -27.8831  -15.1263  146.1956 C   0  0  0  0  0  0  0  0  0  0  0  0
  -27.0577  -14.2908  145.5101 C   0  0  0  0  0  0  0  0  0  0  0  0
  -25.7085  -14.6509  145.3163 C   0  0  0  0  0  0  0  0  0  0  0  0
  -27.5704  -12.9858  144.9888 C   0  0  0  0  0  0  0  0  0  0  0  0
  -28.4607  -12.2255  145.8489 C   0  0  0  0  0  0  0  0  0  0  0  0
  -28.9664  -11.0093  145.3951 C   0  0  0  0  0  0  0  0  0  0  0  0
  -28.5477  -10.4544  144.1756 C   0  0  0  0  0  0  0  0  0  0  0  0
  -27.5880  -11.2125  143.4408 C   0  0  0  0  0  0  0  0  0  0  0  0
  -27.1026  -12.4397  143.8449 C   0  0  0  0  0  0  0  0  0  0  0  0
  -29.0252   -9.1674  143.7152 C   0  0  0  0  0  0  0  0  0  0  0  0
  -29.3429   -9.0904  142.4155 N   0  0  0  0  0  0  0  0  0  0  0  0
  -29.6229   -7.8820  141.8555 C   0  0  0  0  0  0  0  0  0  0  0  0
  -30.2481   -6.8579  142.5748 C   0  0  0  0  0  0  0  0  0  0  0  0
  -29.3796   -7.6810  140.4350 C   0  0  0  0  0  0  0  0  0  0  0  0
  -28.4063   -7.0058  140.0422 C   0  0  0  0  0  0  0  0  0  0  0  0
  -28.2432   -7.0593  138.5385 C   0  0  0  0  0  0  0  0  0  0  0  0
  -28.3334   -8.4376  138.0642 C   0  0  0  0  0  0  0  0  0  0  0  0
  -29.1119   -8.4193  136.8620 C   0  0  0  0  0  0  0  0  0  0  0  0
  -29.0871   -9.7103  136.1685 C   0  0  0  0  0  0  0  0  0  0  0  0
  -28.6867  -10.8902  136.8765 C   0  0  0  0  0  0  0  0  0  0  0  0
  -28.0281  -10.7559  138.1354 C   0  0  0  0  0  0  0  0  0  0  0  0
  -27.8931   -9.4595  138.7513 C   0  0  0  0  0  0  0  0  0  0  0  0
  1  2  1  0
  7  9  1  0
 12 15  1  0
 15 16  1  0
 16 17  1  0
 17 18  1  0
 17 19  1  0
 19 20  1  0
 20 21  2  3
 21 22  1  0
  2  3  1  0
 22 23  2  0
 23 24  1  0
 24 25  2  0
 25 26  1  0
 26 27  2  0
 27 22  1  0
  3  4  2  0
  4  5  1  0
  5  6  2  0
  6  7  1  0
  7  8  2  0
  8  3  1  0
  9 10  2  0
 10 11  1  0
 11 12  2  0
 12 13  1  0
 13 14  2  0
 14  9  1  0
M  END

$$$$
No_1808-/dssg/home/sw_qyf/PocketFlow/Model-Generation-Results/5HT2A_7WC7_rec_A_10.pdb/2024-01-01-03-54-21/
     RDKit          3D

 25 26  0  0  0  0  0  0  0  0999 V2000
  -23.1746  -16.6014  144.8668 C   0  0  0  0  0  0  0  0  0  0  0  0
  -24.0189  -16.0564  145.8445 C   0  0  0  0  0  0  0  0  0  0  0  0
  -24.4850  -14.7380  145.6359 C   0  0  0  0  0  0  0  0  0  0  0  0
  -25.3334  -14.0797  146.6105 C   0  0  0  0  0  0  0  0  0  0  0  0
  -25.7120  -12.7595  146.4431 C   0  0  0  0  0  0  0  0  0  0  0  0
  -25.2808  -11.9605  145.3602 C   0  0  0  0  0  0  0  0  0  0  0  0
  -24.2994  -12.5741  144.5564 C   0  0  0  0  0  0  0  0  0  0  0  0
  -23.8450  -13.9153  144.6819 C   0  0  0  0  0  0  0  0  0  0  0  0
  -24.5152  -16.8284  146.9138 C   0  0  0  0  0  0  0  0  0  0  0  0
  -25.2712  -16.6558  147.7633 C   0  0  0  0  0  0  0  0  0  0  0  0
  -25.3748  -17.5950  148.9155 C   0  0  0  0  0  0  0  0  0  0  0  0
  -25.9651  -17.1595  150.2279 C   0  0  0  0  0  0  0  0  0  0  0  0
  -25.5785  -10.6714  145.2152 N   0  0  0  0  0  0  0  0  0  0  0  0
  -26.8657  -10.4089  144.6695 C   0  0  0  0  0  0  0  0  0  0  0  0
  -27.9948  -11.0559  145.1104 C   0  0  0  0  0  0  0  0  0  0  0  0
  -29.2500  -10.5208  144.6750 C   0  0  0  0  0  0  0  0  0  0  0  0
  -29.3289   -9.6768  143.7923 C   0  0  0  0  0  0  0  0  0  0  0  0
  -30.6402   -9.1880  143.3095 C   0  0  0  0  0  0  0  0  0  0  0  0
  -31.4023   -9.0740  144.2441 F   0  0  0  0  0  0  0  0  0  0  0  0
  -30.5974   -8.0023  142.6622 F   0  0  0  0  0  0  0  0  0  0  0  0
  -31.2573   -9.9867  142.3684 F   0  0  0  0  0  0  0  0  0  0  0  0
  -26.9215   -9.3785  143.9679 O   0  0  0  0  0  0  0  0  0  0  0  0
  -23.8530  -18.2093  146.8545 C   0  0  0  0  0  0  0  0  0  0  0  0
  -23.4500  -18.8666  145.8977 N   0  0  0  0  0  0  0  0  0  0  0  0
  -23.0115  -18.0871  144.8565 C   0  0  0  0  0  0  0  0  0  0  0  0
  1  2  1  0
  2  9  1  0
  9 10  2  3
 10 11  1  0
 11 12  2  0
  6 13  1  0
 13 14  1  0
 14 15  1  0
 15 16  2  3
 16 17  1  0
 17 18  1  0
 18 19  1  0
 18 20  1  0
 18 21  1  0
 14 22  2  0
  9 23  1  0
 23 24  1  0
  1 25  1  0
 24 25  1  0
  2  3  1  0
  3  4  2  0
  4  5  1  0
  5  6  2  0
  6  7  1  0
  7  8  2  0
  8  3  1  0
M  END

$$$$
No_1809-/dssg/home/sw_qyf/PocketFlow/Model-Generation-Results/5HT2A_7WC7_rec_A_10.pdb/2024-01-01-03-54-21/
     RDKit          3D

 35 38  0  0  0  0  0  0  0  0999 V2000
  -24.1553  -17.8465  145.7021 C   0  0  0  0  0  0  0  0  0  0  0  0
  -23.9795  -18.4462  146.7426 C   0  0  0  0  0  0  0  0  0  0  0  0
  -25.1196  -16.8106  145.6409 C   0  0  0  0  0  0  0  0  0  0  0  0
  -25.2440  -15.8776  144.5240 C   0  0  0  0  0  0  0  0  0  0  0  0
  -26.0733  -14.7284  144.7061 C   0  0  0  0  0  0  0  0  0  0  0  0
  -26.0749  -13.6607  143.7626 C   0  0  0  0  0  0  0  0  0  0  0  0
  -24.5491  -18.0521  147.9995 C   0  0  0  0  0  0  0  0  0  0  0  0
  -25.0129  -16.8115  147.9703 C   0  0  0  0  0  0  0  0  0  0  0  0
  -25.4072  -16.0734  146.8664 C   0  0  0  0  0  0  0  0  0  0  0  0
  -26.1170  -14.8526  146.7242 C   0  0  0  0  0  0  0  0  0  0  0  0
  -26.4701  -13.9724  145.9436 C   0  0  0  0  0  0  0  0  0  0  0  0
  -27.2455  -12.8369  143.9789 C   0  0  0  0  0  0  0  0  0  0  0  0
  -27.4794  -12.8624  145.3790 C   0  0  0  0  0  0  0  0  0  0  0  0
  -27.0545  -11.5405  146.1897 C   0  0  0  0  0  0  0  0  0  0  0  0
  -25.6380  -11.2242  145.7992 C   0  0  0  0  0  0  0  0  0  0  0  0
  -24.7070  -12.2533  145.9949 C   0  0  0  0  0  0  0  0  0  0  0  0
  -23.3951  -12.0584  145.3470 C   0  0  0  0  0  0  0  0  0  0  0  0
  -22.6014  -13.2316  145.0172 C   0  0  0  0  0  0  0  0  0  0  0  0
  -22.9112  -13.6180  143.5901 C   0  0  0  0  0  0  0  0  0  0  0  0
  -27.7580  -11.8779  143.1012 C   0  0  0  0  0  0  0  0  0  0  0  0
  -28.6014  -10.8212  143.4099 C   0  0  0  0  0  0  0  0  0  0  0  0
  -29.2434  -10.0191  142.4970 C   0  0  0  0  0  0  0  0  0  0  0  0
  -28.8988  -10.1992  141.1398 C   0  0  0  0  0  0  0  0  0  0  0  0
  -27.4438  -12.0261  141.7210 C   0  0  0  0  0  0  0  0  0  0  0  0
  -29.4424   -9.3590  140.1281 C   0  0  0  0  0  0  0  0  0  0  0  0
  -27.9724  -11.2235  140.7861 C   0  0  0  0  0  0  0  0  0  0  0  0
  -28.8818   -7.9356  140.1657 C   0  0  0  0  0  0  0  0  0  0  0  0
  -29.5753   -6.9836  140.9966 C   0  0  0  0  0  0  0  0  0  0  0  0
  -29.1882   -6.8452  142.2297 C   0  0  0  0  0  0  0  0  0  0  0  0
  -29.4619   -5.5368  142.9593 C   0  0  0  0  0  0  0  0  0  0  0  0
  -27.6153  -11.4107  139.3987 C   0  0  0  0  0  0  0  0  0  0  0  0
  -28.3869  -12.2118  138.8196 F   0  0  0  0  0  0  0  0  0  0  0  0
  -26.3033  -12.0029  139.3539 F   0  0  0  0  0  0  0  0  0  0  0  0
  -27.4430  -10.3311  138.6726 F   0  0  0  0  0  0  0  0  0  0  0  0
  -29.4301   -5.4999  144.1516 C   0  0  0  0  0  0  0  0  0  0  0  0
  3  4  1  0
  4  5  1  0
  5  6  1  0
  9 10  1  0
  5 11  1  0
 10 11  1  0
  6 12  1  0
 11 13  1  0
 12 13  1  0
 13 14  1  0
 14 15  1  0
 15 16  1  0
 16 17  2  3
 17 18  1  0
 18 19  1  0
 12 20  1  0
 23 25  1  0
 25 27  1  0
 27 28  1  0
 28 29  1  0
 29 30  2  3
 26 31  1  0
 31 32  1  0
 31 33  1  0
 31 34  1  0
 30 35  1  0
 20 21  2  0
 21 22  1  0
 22 23  2  0
 23 26  1  0
 26 24  2  0
 24 20  1  0
  1  2  2  0
  2  7  1  0
  7  8  2  0
  8  9  1  0
  9  3  2  0
  3  1  1  0
M  END

$$$$
No_1810-/dssg/home/sw_qyf/PocketFlow/Model-Generation-Results/5HT2A_7WC7_rec_A_10.pdb/2024-01-01-03-54-21/
     RDKit          3D

 11 11  0  0  0  0  0  0  0  0999 V2000
  -24.1553  -17.8465  145.7021 C   0  0  0  0  0  0  0  0  0  0  0  0
  -24.6364  -17.2931  146.7091 C   0  0  0  0  0  0  0  0  0  0  0  0
  -25.8608  -16.5592  146.5934 C   0  0  0  0  0  0  0  0  0  0  0  0
  -25.9533  -15.5604  145.6681 C   0  0  0  0  0  0  0  0  0  0  0  0
  -27.0179  -14.6632  145.5500 C   0  0  0  0  0  0  0  0  0  0  0  0
  -24.0512  -16.8635  144.5478 C   0  0  0  0  0  0  0  0  0  0  0  0
  -25.0352  -15.8697  144.5502 C   0  0  0  0  0  0  0  0  0  0  0  0
  -27.9972  -14.5549  146.4905 C   0  0  0  0  0  0  0  0  0  0  0  0
  -28.8713  -13.4294  146.5738 C   0  0  0  0  0  0  0  0  0  0  0  0
  -28.6976  -12.3509  145.6528 C   0  0  0  0  0  0  0  0  0  0  0  0
  -27.6954  -12.4183  144.7046 C   0  0  0  0  0  0  0  0  0  0  0  0
  1  2  1  0
  2  3  1  0
  3  4  1  0
  4  5  2  3
  1  6  1  0
  4  7  1  0
  6  7  1  0
  5  8  1  0
  8  9  2  3
  9 10  1  0
 10 11  2  0
M  END

$$$$
No_1811-/dssg/home/sw_qyf/PocketFlow/Model-Generation-Results/5HT2A_7WC7_rec_A_10.pdb/2024-01-01-03-54-21/
     RDKit          3D

 23 25  0  0  0  0  0  0  0  0999 V2000
  -23.1746  -16.6014  144.8668 C   0  0  0  0  0  0  0  0  0  0  0  0
  -24.0189  -16.0564  145.8445 C   0  0  0  0  0  0  0  0  0  0  0  0
  -24.4850  -14.7380  145.6359 C   0  0  0  0  0  0  0  0  0  0  0  0
  -25.2717  -14.0560  146.5949 C   0  0  0  0  0  0  0  0  0  0  0  0
  -25.5669  -12.6700  146.4456 C   0  0  0  0  0  0  0  0  0  0  0  0
  -25.1774  -11.9727  145.2644 C   0  0  0  0  0  0  0  0  0  0  0  0
  -24.2583  -12.6444  144.4323 C   0  0  0  0  0  0  0  0  0  0  0  0
  -23.8801  -13.8924  145.0241 C   0  0  0  0  0  0  0  0  0  0  0  0
  -24.5371  -16.9121  146.8617 C   0  0  0  0  0  0  0  0  0  0  0  0
  -24.0991  -18.1101  147.1000 C   0  0  0  0  0  0  0  0  0  0  0  0
  -23.3146  -18.7152  146.1248 C   0  0  0  0  0  0  0  0  0  0  0  0
  -22.9541  -20.0110  146.3673 N   0  0  0  0  0  0  0  0  0  0  0  0
  -22.8880  -17.9376  145.1443 C   0  0  0  0  0  0  0  0  0  0  0  0
  -25.6472  -10.6460  145.0261 C   0  0  0  0  0  0  0  0  0  0  0  0
  -27.0551  -10.6018  144.5114 C   0  0  0  0  0  0  0  0  0  0  0  0
  -28.0181  -11.2258  145.2138 C   0  0  0  0  0  0  0  0  0  0  0  0
  -29.3724  -10.8813  144.8807 C   0  0  0  0  0  0  0  0  0  0  0  0
  -29.7141   -9.8606  144.0237 C   0  0  0  0  0  0  0  0  0  0  0  0
  -29.0943   -9.6585  143.2225 C   0  0  0  0  0  0  0  0  0  0  0  0
  -29.3545   -8.8265  142.0815 C   0  0  0  0  0  0  0  0  0  0  0  0
  -28.7360   -8.8252  140.7873 C   0  0  0  0  0  0  0  0  0  0  0  0
  -27.5354   -9.9320  143.3546 C   0  0  0  0  0  0  0  0  0  0  0  0
  -29.2210   -8.0196  139.7690 C   0  0  0  0  0  0  0  0  0  0  0  0
  2  3  1  0
 11 12  1  0
  6 14  1  0
 14 15  1  0
 19 20  1  0
 20 21  2  3
 21 23  1  0
  1  2  2  0
  2  9  1  0
  9 10  2  0
 10 11  1  0
 11 13  2  0
 13  1  1  0
  3  4  2  0
  4  5  1  0
  5  6  2  0
  6  7  1  0
  7  8  2  0
  8  3  1  0
 15 16  2  0
 16 17  1  0
 17 18  2  0
 18 19  1  0
 19 22  2  0
 22 15  1  0
M  END

$$$$
No_1812-/dssg/home/sw_qyf/PocketFlow/Model-Generation-Results/5HT2A_7WC7_rec_A_10.pdb/2024-01-01-03-54-21/
     RDKit          3D

 23 25  0  0  0  0  0  0  0  0999 V2000
  -23.1746  -16.6014  144.8668 C   0  0  0  0  0  0  0  0  0  0  0  0
  -23.8963  -15.5346  144.7885 C   0  0  0  0  0  0  0  0  0  0  0  0
  -23.6398  -14.5115  145.3282 C   0  0  0  0  0  0  0  0  0  0  0  0
  -24.3867  -13.2477  145.3907 C   0  0  0  0  0  0  0  0  0  0  0  0
  -23.7392  -12.0982  145.9892 C   0  0  0  0  0  0  0  0  0  0  0  0
  -25.7153  -13.1103  144.9366 C   0  0  0  0  0  0  0  0  0  0  0  0
  -26.3103  -13.6742  144.1428 C   0  0  0  0  0  0  0  0  0  0  0  0
  -27.6804  -13.3807  143.7851 C   0  0  0  0  0  0  0  0  0  0  0  0
  -28.0226  -12.2098  144.4914 C   0  0  0  0  0  0  0  0  0  0  0  0
  -27.4428  -11.5826  145.5028 C   0  0  0  0  0  0  0  0  0  0  0  0
  -26.2211  -11.9806  145.7347 C   0  0  0  0  0  0  0  0  0  0  0  0
  -23.6176  -17.8122  145.5972 C   0  0  0  0  0  0  0  0  0  0  0  0
  -24.6001  -17.5376  146.5478 C   0  0  0  0  0  0  0  0  0  0  0  0
  -24.1801  -17.4883  147.9240 C   0  0  0  0  0  0  0  0  0  0  0  0
  -24.6958  -16.5138  148.7222 C   0  0  0  0  0  0  0  0  0  0  0  0
  -26.1158  -16.2211  148.5141 C   0  0  0  0  0  0  0  0  0  0  0  0
  -26.6156  -16.2267  147.1815 C   0  0  0  0  0  0  0  0  0  0  0  0
  -25.7806  -16.8851  146.2027 C   0  0  0  0  0  0  0  0  0  0  0  0
  -27.8936  -15.6893  146.8806 C   0  0  0  0  0  0  0  0  0  0  0  0
  -28.1520  -14.5241  147.0953 O   0  0  0  0  0  0  0  0  0  0  0  0
  -28.7557  -16.4462  146.3116 O   0  0  0  0  0  0  0  0  0  0  0  0
  -25.1878  -11.3434  146.4844 N   0  0  0  0  0  0  0  0  0  0  0  0
  -23.8816  -18.9951  144.9158 O   0  0  0  0  0  0  0  0  0  0  0  0
  1  2  1  0
  2  3  2  3
  3  4  1  0
  4  5  1  0
  4  6  1  0
  1 12  1  0
 12 13  1  0
 17 19  1  0
 19 20  2  0
 19 21  1  0
  5 22  1  0
 11 22  1  0
 12 23  1  0
 13 14  2  0
 14 15  1  0
 15 16  2  0
 16 17  1  0
 17 18  2  0
 18 13  1  0
  6  7  2  0
  7  8  1  0
  8  9  2  0
  9 10  1  0
 10 11  2  0
 11  6  1  0
M  END

$$$$
No_1813-/dssg/home/sw_qyf/PocketFlow/Model-Generation-Results/5HT2A_7WC7_rec_A_10.pdb/2024-01-01-03-54-21/
     RDKit          3D

 14 13  0  0  0  0  0  0  0  0999 V2000
  -24.1553  -17.8465  145.7021 C   0  0  0  0  0  0  0  0  0  0  0  0
  -23.9795  -18.4462  146.7426 C   0  0  0  0  0  0  0  0  0  0  0  0
  -25.1593  -16.8262  145.6925 C   0  0  0  0  0  0  0  0  0  0  0  0
  -24.9465  -15.5961  144.9952 C   0  0  0  0  0  0  0  0  0  0  0  0
  -25.8223  -14.4752  145.0170 C   0  0  0  0  0  0  0  0  0  0  0  0
  -26.5395  -14.2060  146.1042 C   0  0  0  0  0  0  0  0  0  0  0  0
  -27.3766  -13.0570  146.1653 C   0  0  0  0  0  0  0  0  0  0  0  0
  -27.3755  -12.0924  145.1146 C   0  0  0  0  0  0  0  0  0  0  0  0
  -28.0590  -10.8644  145.2244 C   0  0  0  0  0  0  0  0  0  0  0  0
  -27.8799   -9.9503  144.1209 C   0  0  0  0  0  0  0  0  0  0  0  0
  -29.0111   -9.9231  143.2462 C   0  0  0  0  0  0  0  0  0  0  0  0
  -29.7390   -9.2158  143.1256 C   0  0  0  0  0  0  0  0  0  0  0  0
  -30.4883   -8.4946  142.5468 C   0  0  0  0  0  0  0  0  0  0  0  0
  -30.3867   -7.3979  141.7330 C   0  0  0  0  0  0  0  0  0  0  0  0
  1  2  1  0
  1  3  1  0
  3  4  1  0
  4  5  1  0
  5  6  2  3
  6  7  1  0
  7  8  1  0
  8  9  1  0
  9 10  1  0
 10 11  1  0
 11 12  2  3
 12 13  1  0
 13 14  2  0
M  END

$$$$
No_1814-/dssg/home/sw_qyf/PocketFlow/Model-Generation-Results/5HT2A_7WC7_rec_A_10.pdb/2024-01-01-03-54-21/
     RDKit          3D

  8  7  0  0  0  0  0  0  0  0999 V2000
  -23.1746  -16.6014  144.8668 C   0  0  0  0  0  0  0  0  0  0  0  0
  -24.0189  -16.0564  145.8445 C   0  0  0  0  0  0  0  0  0  0  0  0
  -24.4850  -14.7380  145.6359 C   0  0  0  0  0  0  0  0  0  0  0  0
  -24.0208  -14.0081  144.6269 C   0  0  0  0  0  0  0  0  0  0  0  0
  -23.3686  -12.7461  145.1561 C   0  0  0  0  0  0  0  0  0  0  0  0
  -24.3490  -16.8813  146.9924 C   0  0  0  0  0  0  0  0  0  0  0  0
  -23.4627  -17.6777  147.5515 C   0  0  0  0  0  0  0  0  0  0  0  0
  -22.4933  -12.0118  144.2295 C   0  0  0  0  0  0  0  0  0  0  0  0
  1  2  1  0
  2  3  1  0
  3  4  1  0
  4  5  1  0
  2  6  1  0
  6  7  2  0
  5  8  1  0
M  END

$$$$
No_1815-/dssg/home/sw_qyf/PocketFlow/Model-Generation-Results/5HT2A_7WC7_rec_A_10.pdb/2024-01-01-03-54-21/
     RDKit          3D

 35 40  0  0  0  0  0  0  0  0999 V2000
  -23.1746  -16.6014  144.8668 C   0  0  0  0  0  0  0  0  0  0  0  0
  -23.7011  -17.0158  145.9774 C   0  0  0  0  0  0  0  0  0  0  0  0
  -24.2134  -16.0722  146.8877 C   0  0  0  0  0  0  0  0  0  0  0  0
  -24.7882  -16.3410  148.2078 C   0  0  0  0  0  0  0  0  0  0  0  0
  -23.7349  -15.3292  144.4136 C   0  0  0  0  0  0  0  0  0  0  0  0
  -24.3760  -14.5463  145.1399 C   0  0  0  0  0  0  0  0  0  0  0  0
  -24.6904  -14.8163  146.4731 C   0  0  0  0  0  0  0  0  0  0  0  0
  -24.0643  -17.2152  149.1126 C   0  0  0  0  0  0  0  0  0  0  0  0
  -24.6227  -17.5056  150.3957 C   0  0  0  0  0  0  0  0  0  0  0  0
  -24.7101  -13.0842  144.6674 C   0  0  0  0  0  0  0  0  0  0  0  0
  -25.1255  -12.2100  145.8219 C   0  0  0  0  0  0  0  0  0  0  0  0
  -26.3782  -11.3354  145.4728 C   0  0  0  0  0  0  0  0  0  0  0  0
  -27.2399  -11.9861  144.6708 C   0  0  0  0  0  0  0  0  0  0  0  0
  -28.3054  -11.0241  144.2478 C   0  0  0  0  0  0  0  0  0  0  0  0
  -28.5745  -10.5749  142.9941 C   0  0  0  0  0  0  0  0  0  0  0  0
  -29.5362   -9.6550  142.6831 C   0  0  0  0  0  0  0  0  0  0  0  0
  -30.4418   -9.1811  143.7218 C   0  0  0  0  0  0  0  0  0  0  0  0
  -31.4336   -8.2347  143.3893 C   0  0  0  0  0  0  0  0  0  0  0  0
  -27.7469  -11.1070  141.9561 C   0  0  0  0  0  0  0  0  0  0  0  0
  -27.8500  -10.6388  140.6574 C   0  0  0  0  0  0  0  0  0  0  0  0
  -28.3150   -9.3649  140.3793 C   0  0  0  0  0  0  0  0  0  0  0  0
  -29.3961   -8.9164  141.3864 C   0  0  0  0  0  0  0  0  0  0  0  0
  -28.0880  -11.6268  139.5610 C   0  0  0  0  0  0  0  0  0  0  0  0
  -27.6531  -12.9890  139.7763 C   0  0  0  0  0  0  0  0  0  0  0  0
  -30.1624   -7.6962  141.3491 C   0  0  0  0  0  0  0  0  0  0  0  0
  -31.1655   -7.3164  142.4136 C   0  0  0  0  0  0  0  0  0  0  0  0
  -27.4951  -13.2231  141.2539 C   0  0  0  0  0  0  0  0  0  0  0  0
  -27.4992  -12.4182  142.2742 C   0  0  0  0  0  0  0  0  0  0  0  0
  -27.1583  -12.8767  143.6011 C   0  0  0  0  0  0  0  0  0  0  0  0
  -28.0017   -8.5388  139.3505 C   0  0  0  0  0  0  0  0  0  0  0  0
  -28.8692   -7.5446  138.8013 C   0  0  0  0  0  0  0  0  0  0  0  0
  -28.4904   -7.2080  137.5583 N   0  0  0  0  0  0  0  0  0  0  0  0
  -23.2877  -18.3782  146.5848 C   0  0  0  0  0  0  0  0  0  0  0  0
  -23.0704  -19.2179  146.0139 O   0  0  0  0  0  0  0  0  0  0  0  0
  -23.4549  -18.4513  148.0854 N   0  0  0  0  0  0  0  0  0  0  0  0
  1  2  1  0
  2  3  1  0
  1  5  1  0
  5  6  1  0
  3  7  1  0
  6  7  1  0
  4  8  1  0
  6 10  1  0
 10 11  1  0
 11 12  1  0
 12 13  1  0
 13 14  1  0
 14 15  1  0
 13 29  1  0
 28 29  1  0
 21 30  1  0
 30 31  2  3
 31 32  1  0
  2 33  1  0
 33 34  2  0
  8 35  1  0
 33 35  1  0
  9  8  1  0
  3  4  1  0
 16 17  1  0
 17 18  2  0
 18 26  1  0
 26 25  2  0
 25 22  1  0
 15 16  2  0
 16 22  1  0
 22 21  2  0
 21 20  1  0
 19 15  1  0
 19 20  2  0
 20 23  1  0
 23 24  2  0
 24 27  1  0
 27 28  2  0
 28 19  1  0
M  END

$$$$
No_1816-/dssg/home/sw_qyf/PocketFlow/Model-Generation-Results/5HT2A_7WC7_rec_A_10.pdb/2024-01-01-03-54-21/
     RDKit          3D

 22 23  0  0  0  0  0  0  0  0999 V2000
  -23.1746  -16.6014  144.8668 C   0  0  0  0  0  0  0  0  0  0  0  0
  -23.8963  -15.5346  144.7885 C   0  0  0  0  0  0  0  0  0  0  0  0
  -23.6398  -14.5115  145.3281 C   0  0  0  0  0  0  0  0  0  0  0  0
  -24.3866  -13.2477  145.3906 C   0  0  0  0  0  0  0  0  0  0  0  0
  -23.7391  -12.0982  145.9891 C   0  0  0  0  0  0  0  0  0  0  0  0
  -25.7153  -13.1102  144.9365 C   0  0  0  0  0  0  0  0  0  0  0  0
  -26.3103  -13.6742  144.1428 C   0  0  0  0  0  0  0  0  0  0  0  0
  -26.8732  -13.2128  143.2480 C   0  0  0  0  0  0  0  0  0  0  0  0
  -27.6221  -11.9902  143.3937 C   0  0  0  0  0  0  0  0  0  0  0  0
  -27.3871  -11.3524  144.6092 C   0  0  0  0  0  0  0  0  0  0  0  0
  -26.2641  -11.8100  145.3776 C   0  0  0  0  0  0  0  0  0  0  0  0
  -23.6519  -17.8069  145.5972 C   0  0  0  0  0  0  0  0  0  0  0  0
  -23.9029  -17.4550  146.9369 C   0  0  0  0  0  0  0  0  0  0  0  0
  -25.2711  -17.5163  147.4816 C   0  0  0  0  0  0  0  0  0  0  0  0
  -25.8289  -16.2499  147.7520 C   0  0  0  0  0  0  0  0  0  0  0  0
  -27.2792  -16.1657  148.0191 C   0  0  0  0  0  0  0  0  0  0  0  0
  -28.0709  -15.1967  147.3489 C   0  0  0  0  0  0  0  0  0  0  0  0
  -27.6146  -14.4388  146.3063 C   0  0  0  0  0  0  0  0  0  0  0  0
  -29.3006  -14.7728  148.0664 C   0  0  0  0  0  0  0  0  0  0  0  0
  -30.1477  -13.7841  147.5298 C   0  0  0  0  0  0  0  0  0  0  0  0
  -29.5613  -12.8004  146.6917 C   0  0  0  0  0  0  0  0  0  0  0  0
  -28.4301  -13.2582  145.9416 N   0  0  0  0  0  0  0  0  0  0  0  0
  1  2  1  0
  2  3  2  3
  3  4  1  0
  4  5  1  0
  4  6  1  0
  1 12  1  0
 12 13  1  0
 13 14  2  3
 14 15  1  0
 15 16  1  0
 16 17  1  0
  6  7  2  0
  7  8  1  0
  8  9  2  0
  9 10  1  0
 10 11  2  0
 11  6  1  0
 17 18  2  0
 18 22  1  0
 22 21  2  0
 21 20  1  0
 20 19  2  0
 19 17  1  0
M  END

$$$$
No_1817-/dssg/home/sw_qyf/PocketFlow/Model-Generation-Results/5HT2A_7WC7_rec_A_10.pdb/2024-01-01-03-54-21/
     RDKit          3D

 16 17  0  0  0  0  0  0  0  0999 V2000
  -24.1553  -17.8465  145.7021 C   0  0  0  0  0  0  0  0  0  0  0  0
  -23.9795  -18.4462  146.7426 C   0  0  0  0  0  0  0  0  0  0  0  0
  -25.1196  -16.8106  145.6409 C   0  0  0  0  0  0  0  0  0  0  0  0
  -25.9236  -16.5070  146.7422 C   0  0  0  0  0  0  0  0  0  0  0  0
  -25.6173  -17.2153  147.9099 C   0  0  0  0  0  0  0  0  0  0  0  0
  -24.6179  -18.1473  147.9620 C   0  0  0  0  0  0  0  0  0  0  0  0
  -26.9636  -15.4823  146.6618 C   0  0  0  0  0  0  0  0  0  0  0  0
  -26.7700  -14.4181  145.8778 C   0  0  0  0  0  0  0  0  0  0  0  0
  -27.6256  -13.2954  145.9424 C   0  0  0  0  0  0  0  0  0  0  0  0
  -28.8653  -13.4092  146.6886 C   0  0  0  0  0  0  0  0  0  0  0  0
  -29.7359  -12.2505  146.8696 C   0  0  0  0  0  0  0  0  0  0  0  0
  -30.7257  -12.2483  147.7568 N   0  0  0  0  0  0  0  0  0  0  0  0
  -28.3251  -15.6056  147.2037 C   0  0  0  0  0  0  0  0  0  0  0  0
  -29.1993  -14.5687  147.4041 C   0  0  0  0  0  0  0  0  0  0  0  0
  -29.6581  -11.1951  146.0772 O   0  0  0  0  0  0  0  0  0  0  0  0
  -26.2983  -16.8724  149.0638 O   0  0  0  0  0  0  0  0  0  0  0  0
  4  7  1  0
 10 11  1  0
 11 12  1  0
 11 15  2  0
  5 16  1  0
  1  2  2  0
  2  6  1  0
  6  5  2  0
  5  4  1  0
  4  3  2  0
  3  1  1  0
  7  8  2  0
  8  9  1  0
  9 10  2  0
 10 14  1  0
 14 13  2  0
 13  7  1  0
M  END

$$$$
No_1818-/dssg/home/sw_qyf/PocketFlow/Model-Generation-Results/5HT2A_7WC7_rec_A_10.pdb/2024-01-01-03-54-21/
     RDKit          3D

 35 37  0  0  0  0  0  0  0  0999 V2000
  -23.1746  -16.6014  144.8668 C   0  0  0  0  0  0  0  0  0  0  0  0
  -23.8963  -15.5346  144.7885 C   0  0  0  0  0  0  0  0  0  0  0  0
  -23.6398  -14.5115  145.3281 C   0  0  0  0  0  0  0  0  0  0  0  0
  -24.4028  -13.2284  145.0157 C   0  0  0  0  0  0  0  0  0  0  0  0
  -23.8195  -12.0541  145.5896 C   0  0  0  0  0  0  0  0  0  0  0  0
  -25.4117  -13.2274  144.3095 O   0  0  0  0  0  0  0  0  0  0  0  0
  -23.6935  -17.8142  145.5221 C   0  0  0  0  0  0  0  0  0  0  0  0
  -23.6902  -17.6919  146.9620 C   0  0  0  0  0  0  0  0  0  0  0  0
  -25.0002  -17.6027  147.6448 C   0  0  0  0  0  0  0  0  0  0  0  0
  -25.9980  -16.8060  147.0431 C   0  0  0  0  0  0  0  0  0  0  0  0
  -26.5219  -15.8031  147.5974 C   0  0  0  0  0  0  0  0  0  0  0  0
  -27.6388  -15.0034  147.1224 C   0  0  0  0  0  0  0  0  0  0  0  0
  -27.4362  -14.1078  146.0559 C   0  0  0  0  0  0  0  0  0  0  0  0
  -28.2439  -12.9404  145.8944 C   0  0  0  0  0  0  0  0  0  0  0  0
  -29.4811  -12.8399  146.6783 C   0  0  0  0  0  0  0  0  0  0  0  0
  -30.2971  -11.6568  146.5686 C   0  0  0  0  0  0  0  0  0  0  0  0
  -29.7876  -10.6285  145.7118 C   0  0  0  0  0  0  0  0  0  0  0  0
  -28.6133  -10.7347  144.9750 C   0  0  0  0  0  0  0  0  0  0  0  0
  -27.8226  -11.9568  145.1091 C   0  0  0  0  0  0  0  0  0  0  0  0
  -28.1885   -9.6744  144.0849 C   0  0  0  0  0  0  0  0  0  0  0  0
  -28.0491   -9.8930  142.7948 C   0  0  0  0  0  0  0  0  0  0  0  0
  -27.3396  -10.9303  142.3431 C   0  0  0  0  0  0  0  0  0  0  0  0
  -27.3032  -11.4207  141.0161 C   0  0  0  0  0  0  0  0  0  0  0  0
  -27.0465  -12.6468  140.4988 C   0  0  0  0  0  0  0  0  0  0  0  0
  -27.0053  -12.8364  139.1214 C   0  0  0  0  0  0  0  0  0  0  0  0
  -27.5415  -11.7088  138.3456 C   0  0  0  0  0  0  0  0  0  0  0  0
  -27.9532  -10.6820  139.0610 C   0  0  0  0  0  0  0  0  0  0  0  0
  -27.8539  -10.3985  140.3599 C   0  0  0  0  0  0  0  0  0  0  0  0
  -28.5633   -9.1157  141.7373 C   0  0  0  0  0  0  0  0  0  0  0  0
  -28.5453   -9.1693  140.7447 C   0  0  0  0  0  0  0  0  0  0  0  0
  -29.1194   -8.1258  139.8394 C   0  0  0  0  0  0  0  0  0  0  0  0
  -28.6878   -7.9146  138.7130 F   0  0  0  0  0  0  0  0  0  0  0  0
  -30.2542   -7.4467  140.2728 C   0  0  0  0  0  0  0  0  0  0  0  0
  -30.8340   -7.6399  141.3591 N   0  0  0  0  0  0  0  0  0  0  0  0
  -30.5599   -8.5547  142.3771 C   0  0  0  0  0  0  0  0  0  0  0  0
  1  2  1  0
  2  3  1  0
  3  4  1  0
  4  5  1  0
  4  6  2  0
  1  7  1  0
  7  8  1  0
  8  9  1  0
  9 10  1  0
 10 11  2  3
 11 12  1  0
 12 13  2  3
 13 14  1  0
 18 20  1  0
 20 21  1  0
 30 31  1  0
 31 32  1  0
 31 33  1  0
 33 34  1  0
 34 35  1  0
 14 15  2  0
 15 16  1  0
 16 17  2  0
 17 18  1  0
 18 19  2  0
 19 14  1  0
 23 24  2  0
 24 25  1  0
 25 26  2  0
 26 27  1  0
 27 28  2  0
 21 22  2  0
 22 23  1  0
 23 28  1  0
 28 30  1  0
 30 29  2  0
 29 21  1  0
M  END

$$$$
No_1819-/dssg/home/sw_qyf/PocketFlow/Model-Generation-Results/5HT2A_7WC7_rec_A_10.pdb/2024-01-01-03-54-21/
     RDKit          3D

 35 37  0  0  0  0  0  0  0  0999 V2000
  -24.1553  -17.8465  145.7021 C   0  0  0  0  0  0  0  0  0  0  0  0
  -24.2856  -16.6364  145.3494 C   0  0  0  0  0  0  0  0  0  0  0  0
  -24.7211  -15.5955  146.2115 C   0  0  0  0  0  0  0  0  0  0  0  0
  -24.8539  -14.2010  145.8739 C   0  0  0  0  0  0  0  0  0  0  0  0
  -25.3912  -13.2248  146.7184 C   0  0  0  0  0  0  0  0  0  0  0  0
  -24.5931  -18.2699  146.9809 C   0  0  0  0  0  0  0  0  0  0  0  0
  -25.1555  -17.3846  147.9076 C   0  0  0  0  0  0  0  0  0  0  0  0
  -25.2072  -15.9636  147.5445 C   0  0  0  0  0  0  0  0  0  0  0  0
  -24.3640  -13.8250  144.5657 C   0  0  0  0  0  0  0  0  0  0  0  0
  -25.3419  -11.8445  146.2821 C   0  0  0  0  0  0  0  0  0  0  0  0
  -26.1715  -11.6556  145.0560 C   0  0  0  0  0  0  0  0  0  0  0  0
  -25.8159  -12.2128  143.9914 O   0  0  0  0  0  0  0  0  0  0  0  0
  -23.4895  -14.6517  144.0689 O   0  0  0  0  0  0  0  0  0  0  0  0
  -25.2814  -13.4421  143.9034 C   0  0  0  0  0  0  0  0  0  0  0  0
  -26.2447  -10.0554  144.9042 C   0  0  0  0  0  0  0  0  0  0  0  0
  -25.9030  -14.1933  142.9653 O   0  0  0  0  0  0  0  0  0  0  0  0
  -27.5917   -9.6943  144.2541 C   0  0  0  0  0  0  0  0  0  0  0  0
  -28.6646  -10.4446  144.6245 C   0  0  0  0  0  0  0  0  0  0  0  0
  -29.9362   -9.9958  144.1707 C   0  0  0  0  0  0  0  0  0  0  0  0
  -30.0627   -9.3826  142.8863 C   0  0  0  0  0  0  0  0  0  0  0  0
  -30.0805   -9.8973  142.0200 C   0  0  0  0  0  0  0  0  0  0  0  0
  -29.9622   -9.2871  140.6240 C   0  0  0  0  0  0  0  0  0  0  0  0
  -29.9033   -7.8114  140.7473 C   0  0  0  0  0  0  0  0  0  0  0  0
  -29.8027   -7.1813  141.9927 C   0  0  0  0  0  0  0  0  0  0  0  0
  -29.7891   -7.9754  143.1615 C   0  0  0  0  0  0  0  0  0  0  0  0
  -30.6584   -9.2660  145.1731 O   0  0  0  0  0  0  0  0  0  0  0  0
  -29.7509   -7.1427  139.6325 O   0  0  0  0  0  0  0  0  0  0  0  0
  -25.4342  -17.7320  149.3241 C   0  0  0  0  0  0  0  0  0  0  0  0
  -24.5106  -17.4865  150.2953 N   0  0  0  0  0  0  0  0  0  0  0  0
  -23.1676  -17.2843  150.0860 C   0  0  0  0  0  0  0  0  0  0  0  0
  -22.4395  -16.9004  151.2419 N   0  0  0  0  0  0  0  0  0  0  0  0
  -22.6546  -17.0909  149.0285 O   0  0  0  0  0  0  0  0  0  0  0  0
  -24.0460  -11.4702  146.1928 O   0  0  0  0  0  0  0  0  0  0  0  0
  -28.4715   -6.8459  139.2051 C   0  0  0  0  0  0  0  0  0  0  0  0
  -23.6378  -19.0988  144.6346 Cl  0  0  0  0  0  0  0  0  0  0  0  0
  3  4  1  0
  4  5  1  0
  4  9  1  0
  5 10  1  0
 10 11  1  0
 11 12  1  0
  9 13  1  0
  9 14  1  0
 12 14  1  0
 11 15  1  0
 14 16  2  0
 15 17  1  0
 17 18  2  3
 18 19  1  0
 19 20  1  0
 19 26  1  0
 23 27  1  0
  7 28  1  0
 28 29  1  0
 29 30  1  0
 30 31  1  0
 30 32  2  0
 10 33  1  0
 27 34  1  0
  1 35  1  0
  1  2  2  0
  2  3  1  0
  3  8  2  0
  8  7  1  0
  7  6  2  0
  6  1  1  0
 20 21  2  0
 21 22  1  0
 22 23  2  0
 23 24  1  0
 24 25  2  0
 25 20  1  0
M  END

$$$$
No_1820-/dssg/home/sw_qyf/PocketFlow/Model-Generation-Results/5HT2A_7WC7_rec_A_10.pdb/2024-01-01-03-54-21/
     RDKit          3D

  8  8  0  0  0  0  0  0  0  0999 V2000
  -24.1553  -17.8465  145.7021 C   0  0  0  0  0  0  0  0  0  0  0  0
  -24.2855  -16.6364  145.3494 C   0  0  0  0  0  0  0  0  0  0  0  0
  -23.7824  -15.9602  144.3553 C   0  0  0  0  0  0  0  0  0  0  0  0
  -24.0538  -14.4894  144.2905 C   0  0  0  0  0  0  0  0  0  0  0  0
  -24.9128  -13.8911  145.2693 C   0  0  0  0  0  0  0  0  0  0  0  0
  -25.5151  -14.6873  146.2905 C   0  0  0  0  0  0  0  0  0  0  0  0
  -25.1284  -16.0263  146.3485 C   0  0  0  0  0  0  0  0  0  0  0  0
  -24.9076  -18.2551  146.8232 C   0  0  0  0  0  0  0  0  0  0  0  0
  1  2  1  0
  1  8  2  0
  2  3  2  0
  3  4  1  0
  4  5  2  0
  5  6  1  0
  6  7  2  0
  7  2  1  0
M  END

$$$$
No_1821-/dssg/home/sw_qyf/PocketFlow/Model-Generation-Results/5HT2A_7WC7_rec_A_10.pdb/2024-01-01-03-54-21/
     RDKit          3D

 19 20  0  0  0  0  0  0  0  0999 V2000
  -23.1746  -16.6014  144.8668 C   0  0  0  0  0  0  0  0  0  0  0  0
  -24.0189  -16.0564  145.8445 C   0  0  0  0  0  0  0  0  0  0  0  0
  -25.3176  -15.9168  145.6822 C   0  0  0  0  0  0  0  0  0  0  0  0
  -26.2875  -16.5451  146.4724 C   0  0  0  0  0  0  0  0  0  0  0  0
  -27.7043  -16.3520  146.2732 C   0  0  0  0  0  0  0  0  0  0  0  0
  -27.9976  -15.1924  145.5117 C   0  0  0  0  0  0  0  0  0  0  0  0
  -25.8215  -14.7251  144.9886 C   0  0  0  0  0  0  0  0  0  0  0  0
  -26.6845  -14.2522  145.2198 C   0  0  0  0  0  0  0  0  0  0  0  0
  -27.2289  -12.8507  144.7498 C   0  0  0  0  0  0  0  0  0  0  0  0
  -26.8693  -11.8005  145.6585 C   0  0  0  0  0  0  0  0  0  0  0  0
  -27.1180  -10.4537  145.3364 C   0  0  0  0  0  0  0  0  0  0  0  0
  -27.8023  -10.1252  144.1217 C   0  0  0  0  0  0  0  0  0  0  0  0
  -28.1278  -11.2503  143.3090 C   0  0  0  0  0  0  0  0  0  0  0  0
  -27.8336  -12.5485  143.6306 C   0  0  0  0  0  0  0  0  0  0  0  0
  -28.8129  -10.9575  142.0183 C   0  0  0  0  0  0  0  0  0  0  0  0
  -28.2273  -11.1953  140.7799 C   0  0  0  0  0  0  0  0  0  0  0  0
  -27.8513  -10.1678  139.8513 C   0  0  0  0  0  0  0  0  0  0  0  0
  -27.3398  -10.5577  138.5861 C   0  0  0  0  0  0  0  0  0  0  0  0
  -27.1945  -11.9852  138.3924 C   0  0  0  0  0  0  0  0  0  0  0  0
  1  2  1  0
  2  3  1  0
  8  9  1  0
 13 15  1  0
 15 16  2  3
 16 17  1  0
 17 18  2  3
 18 19  1  0
  9 10  2  0
 10 11  1  0
 11 12  2  0
 12 13  1  0
 13 14  2  0
 14  9  1  0
  3  4  2  0
  4  5  1  0
  5  6  2  0
  6  8  1  0
  8  7  2  0
  7  3  1  0
M  END

$$$$
No_1822-/dssg/home/sw_qyf/PocketFlow/Model-Generation-Results/5HT2A_7WC7_rec_A_10.pdb/2024-01-01-03-54-21/
     RDKit          3D

 12 12  0  0  0  0  0  0  0  0999 V2000
  -24.1553  -17.8465  145.7021 C   0  0  0  0  0  0  0  0  0  0  0  0
  -23.9795  -18.4462  146.7426 C   0  0  0  0  0  0  0  0  0  0  0  0
  -25.1593  -16.8262  145.6925 C   0  0  0  0  0  0  0  0  0  0  0  0
  -25.3302  -15.8818  144.5925 C   0  0  0  0  0  0  0  0  0  0  0  0
  -24.4570  -18.1009  148.0274 C   0  0  0  0  0  0  0  0  0  0  0  0
  -25.3496  -17.0286  148.1023 C   0  0  0  0  0  0  0  0  0  0  0  0
  -25.5669  -16.2449  146.9641 C   0  0  0  0  0  0  0  0  0  0  0  0
  -26.3741  -14.9288  144.6496 C   0  0  0  0  0  0  0  0  0  0  0  0
  -26.1287  -13.7482  145.0260 C   0  0  0  0  0  0  0  0  0  0  0  0
  -24.9565  -13.1849  144.9478 C   0  0  0  0  0  0  0  0  0  0  0  0
  -23.8825  -13.9456  144.3324 C   0  0  0  0  0  0  0  0  0  0  0  0
  -22.5528  -13.2815  144.1775 C   0  0  0  0  0  0  0  0  0  0  0  0
  3  4  1  0
  4  8  1  0
  8  9  1  0
  9 10  1  0
 10 11  2  3
 11 12  1  0
  1  2  2  0
  2  5  1  0
  5  6  2  0
  6  7  1  0
  7  3  2  0
  3  1  1  0
M  END

$$$$
No_1823-/dssg/home/sw_qyf/PocketFlow/Model-Generation-Results/5HT2A_7WC7_rec_A_10.pdb/2024-01-01-03-54-21/
     RDKit          3D

 31 33  0  0  0  0  0  0  0  0999 V2000
  -24.1553  -17.8465  145.7021 C   0  0  0  0  0  0  0  0  0  0  0  0
  -24.6364  -17.2931  146.7091 C   0  0  0  0  0  0  0  0  0  0  0  0
  -25.8608  -16.5592  146.5934 C   0  0  0  0  0  0  0  0  0  0  0  0
  -25.9533  -15.5604  145.6681 C   0  0  0  0  0  0  0  0  0  0  0  0
  -27.0179  -14.6632  145.5500 C   0  0  0  0  0  0  0  0  0  0  0  0
  -26.9074  -13.7000  144.5153 C   0  0  0  0  0  0  0  0  0  0  0  0
  -23.7824  -16.7680  144.6421 C   0  0  0  0  0  0  0  0  0  0  0  0
  -25.0024  -15.7974  144.5531 C   0  0  0  0  0  0  0  0  0  0  0  0
  -27.4352  -12.4138  144.6397 C   0  0  0  0  0  0  0  0  0  0  0  0
  -28.3377  -12.1693  145.7305 C   0  0  0  0  0  0  0  0  0  0  0  0
  -28.9877  -10.9172  145.9146 C   0  0  0  0  0  0  0  0  0  0  0  0
  -29.6299  -10.5220  144.7370 C   0  0  0  0  0  0  0  0  0  0  0  0
  -28.7761  -10.4213  143.6066 C   0  0  0  0  0  0  0  0  0  0  0  0
  -27.9261  -11.6736  143.4479 C   0  0  0  0  0  0  0  0  0  0  0  0
  -29.4092   -9.9413  142.3363 C   0  0  0  0  0  0  0  0  0  0  0  0
  -30.4401   -9.1066  142.3804 C   0  0  0  0  0  0  0  0  0  0  0  0
  -30.5676   -8.0635  141.3300 C   0  0  0  0  0  0  0  0  0  0  0  0
  -28.8527  -10.3801  141.1215 C   0  0  0  0  0  0  0  0  0  0  0  0
  -28.4229  -11.6252  140.8770 C   0  0  0  0  0  0  0  0  0  0  0  0
  -28.0445  -12.0459  139.5620 C   0  0  0  0  0  0  0  0  0  0  0  0
  -26.8079  -11.5655  139.0545 C   0  0  0  0  0  0  0  0  0  0  0  0
  -29.7077   -8.1328  140.2376 C   0  0  0  0  0  0  0  0  0  0  0  0
  -28.6437   -9.0087  140.2591 C   0  0  0  0  0  0  0  0  0  0  0  0
  -23.6442  -16.4559  147.6728 C   0  0  0  0  0  0  0  0  0  0  0  0
  -22.9239  -17.4350  148.5682 C   0  0  0  0  0  0  0  0  0  0  0  0
  -23.5993  -17.5811  149.7240 O   0  0  0  0  0  0  0  0  0  0  0  0
  -26.3261  -12.4758  138.1728 O   0  0  0  0  0  0  0  0  0  0  0  0
  -23.2541  -16.8769  150.8440 C   0  0  0  0  0  0  0  0  0  0  0  0
  -27.0419  -16.8223  147.4261 C   0  0  0  0  0  0  0  0  0  0  0  0
  -27.3724  -16.2876  148.4812 C   0  0  0  0  0  0  0  0  0  0  0  0
  -28.5322  -16.4866  149.2396 C   0  0  0  0  0  0  0  0  0  0  0  0
  1  2  1  0
  2  3  1  0
  3  4  1  0
  4  5  1  0
  5  6  1  0
  1  7  1  0
  4  8  1  0
  7  8  1  0
 13 15  1  0
 19 20  1  0
 20 21  2  3
  2 24  1  0
 24 25  1  0
 25 26  1  0
 21 27  1  0
 26 28  1  0
  3 29  1  0
 29 30  2  3
 30 31  1  0
 19 18  1  0
  6  9  1  0
 15 16  2  0
 16 17  1  0
 17 22  2  0
 22 23  1  0
 23 18  2  0
 18 15  1  0
  9 10  2  0
 10 11  1  0
 11 12  2  0
 12 13  1  0
 13 14  2  0
 14  9  1  0
M  END

$$$$
No_1824-/dssg/home/sw_qyf/PocketFlow/Model-Generation-Results/5HT2A_7WC7_rec_A_10.pdb/2024-01-01-03-54-21/
     RDKit          3D

 20 20  0  0  0  0  0  0  0  0999 V2000
  -23.1746  -16.6014  144.8668 C   0  0  0  0  0  0  0  0  0  0  0  0
  -23.8963  -15.5346  144.7885 C   0  0  0  0  0  0  0  0  0  0  0  0
  -24.5755  -15.0383  145.9043 C   0  0  0  0  0  0  0  0  0  0  0  0
  -25.0618  -13.6819  146.0347 C   0  0  0  0  0  0  0  0  0  0  0  0
  -24.0242  -12.8249  145.9592 C   0  0  0  0  0  0  0  0  0  0  0  0
  -23.8786  -17.6652  145.6663 C   0  0  0  0  0  0  0  0  0  0  0  0
  -24.6984  -17.2858  146.7874 C   0  0  0  0  0  0  0  0  0  0  0  0
  -25.2546  -15.9953  146.8612 C   0  0  0  0  0  0  0  0  0  0  0  0
  -26.3476  -13.1988  146.2246 C   0  0  0  0  0  0  0  0  0  0  0  0
  -26.6938  -11.8637  146.1234 C   0  0  0  0  0  0  0  0  0  0  0  0
  -27.8709  -11.4763  145.5125 C   0  0  0  0  0  0  0  0  0  0  0  0
  -28.0450  -10.7468  144.3624 C   0  0  0  0  0  0  0  0  0  0  0  0
  -29.3179  -10.2550  143.9496 C   0  0  0  0  0  0  0  0  0  0  0  0
  -29.5355   -9.2470  143.3270 C   0  0  0  0  0  0  0  0  0  0  0  0
  -30.3956   -9.0012  142.4187 C   0  0  0  0  0  0  0  0  0  0  0  0
  -30.3538   -8.0608  141.5583 C   0  0  0  0  0  0  0  0  0  0  0  0
  -29.5922   -7.3237  141.4039 C   0  0  0  0  0  0  0  0  0  0  0  0
  -22.8363  -18.5734  146.1472 F   0  0  0  0  0  0  0  0  0  0  0  0
  -25.7025  -18.3423  147.0769 N   0  0  0  0  0  0  0  0  0  0  0  0
  -29.4653   -6.2652  140.4169 C   0  0  0  0  0  0  0  0  0  0  0  0
  1  2  1  0
  2  3  1  0
  3  4  1  0
  4  5  1  0
  1  6  1  0
  6  7  1  0
  3  8  1  0
  7  8  1  0
  4  9  1  0
  9 10  1  0
 10 11  1  0
 11 12  2  3
 12 13  1  0
 13 14  2  3
 14 15  1  0
 15 16  2  3
 16 17  1  0
  6 18  1  0
  7 19  1  0
 17 20  1  0
M  END

$$$$
No_1825-/dssg/home/sw_qyf/PocketFlow/Model-Generation-Results/5HT2A_7WC7_rec_A_10.pdb/2024-01-01-03-54-21/
     RDKit          3D

 14 14  0  0  0  0  0  0  0  0999 V2000
  -24.1553  -17.8465  145.7021 C   0  0  0  0  0  0  0  0  0  0  0  0
  -24.6364  -17.2931  146.7091 C   0  0  0  0  0  0  0  0  0  0  0  0
  -25.8608  -16.5592  146.5934 C   0  0  0  0  0  0  0  0  0  0  0  0
  -25.9533  -15.5604  145.6681 C   0  0  0  0  0  0  0  0  0  0  0  0
  -24.8399  -15.4389  144.8356 C   0  0  0  0  0  0  0  0  0  0  0  0
  -23.9571  -16.6365  144.7213 C   0  0  0  0  0  0  0  0  0  0  0  0
  -26.9608  -14.5638  145.6034 C   0  0  0  0  0  0  0  0  0  0  0  0
  -26.8554  -13.5018  144.6907 C   0  0  0  0  0  0  0  0  0  0  0  0
  -26.4863  -13.7692  143.5198 C   0  0  0  0  0  0  0  0  0  0  0  0
  -26.7057  -12.8716  142.4188 C   0  0  0  0  0  0  0  0  0  0  0  0
  -26.9103  -13.3884  141.0594 C   0  0  0  0  0  0  0  0  0  0  0  0
  -27.3848  -12.5512  140.1171 C   0  0  0  0  0  0  0  0  0  0  0  0
  -27.5383  -11.1213  140.2609 C   0  0  0  0  0  0  0  0  0  0  0  0
  -27.5293  -10.7123  141.6971 C   0  0  0  0  0  0  0  0  0  0  0  0
  1  2  1  0
  2  3  1  0
  3  4  1  0
  4  5  1  0
  1  6  1  0
  5  6  1  0
  4  7  1  0
  7  8  1  0
  8  9  2  3
  9 10  1  0
 10 11  2  3
 11 12  1  0
 12 13  2  3
 13 14  1  0
M  END

$$$$
No_1826-/dssg/home/sw_qyf/PocketFlow/Model-Generation-Results/5HT2A_7WC7_rec_A_10.pdb/2024-01-01-03-54-21/
     RDKit          3D

 33 35  0  0  0  0  0  0  0  0999 V2000
  -23.1746  -16.6014  144.8668 C   0  0  0  0  0  0  0  0  0  0  0  0
  -23.7011  -17.0158  145.9774 C   0  0  0  0  0  0  0  0  0  0  0  0
  -24.2134  -16.0722  146.8877 C   0  0  0  0  0  0  0  0  0  0  0  0
  -23.3742  -15.2706  144.3922 C   0  0  0  0  0  0  0  0  0  0  0  0
  -24.0445  -14.2973  145.2608 C   0  0  0  0  0  0  0  0  0  0  0  0
  -24.2269  -12.9067  144.8433 C   0  0  0  0  0  0  0  0  0  0  0  0
  -24.4280  -14.7101  146.5452 C   0  0  0  0  0  0  0  0  0  0  0  0
  -25.3544  -12.2532  145.5362 C   0  0  0  0  0  0  0  0  0  0  0  0
  -26.5668  -12.1352  144.9061 C   0  0  0  0  0  0  0  0  0  0  0  0
  -26.8918  -11.0417  144.2743 C   0  0  0  0  0  0  0  0  0  0  0  0
  -28.1410  -10.7826  143.7842 C   0  0  0  0  0  0  0  0  0  0  0  0
  -28.5059  -10.2338  142.5872 C   0  0  0  0  0  0  0  0  0  0  0  0
  -29.5091   -9.9279  142.1108 C   0  0  0  0  0  0  0  0  0  0  0  0
  -29.8402   -9.4663  140.7777 C   0  0  0  0  0  0  0  0  0  0  0  0
  -28.7622   -9.0247  140.0099 C   0  0  0  0  0  0  0  0  0  0  0  0
  -27.5314   -9.5012  140.4136 C   0  0  0  0  0  0  0  0  0  0  0  0
  -27.3497  -10.0749  141.7071 C   0  0  0  0  0  0  0  0  0  0  0  0
  -28.9387   -8.4353  138.7339 C   0  0  0  0  0  0  0  0  0  0  0  0
  -29.2661  -11.0063  144.8193 C   0  0  0  0  0  0  0  0  0  0  0  0
  -29.3354  -12.1005  145.5419 O   0  0  0  0  0  0  0  0  0  0  0  0
  -23.5855  -18.3274  146.4244 N   0  0  0  0  0  0  0  0  0  0  0  0
  -29.8541  -11.9590  146.8508 C   0  0  0  0  0  0  0  0  0  0  0  0
  -29.2606  -12.8454  147.8925 C   0  0  0  0  0  0  0  0  0  0  0  0
  -29.6771  -14.2022  147.6704 C   0  0  0  0  0  0  0  0  0  0  0  0
  -28.8157  -15.0077  146.6944 C   0  0  0  0  0  0  0  0  0  0  0  0
  -27.7869  -14.4981  146.1838 C   0  0  0  0  0  0  0  0  0  0  0  0
  -26.9270  -15.2595  145.3510 C   0  0  0  0  0  0  0  0  0  0  0  0
  -28.7019   -9.1219  137.7661 F   0  0  0  0  0  0  0  0  0  0  0  0
  -27.9549   -7.3456  138.6157 F   0  0  0  0  0  0  0  0  0  0  0  0
  -30.1175   -7.7346  138.6484 F   0  0  0  0  0  0  0  0  0  0  0  0
  -27.2825  -16.6297  145.3092 C   0  0  0  0  0  0  0  0  0  0  0  0
  -28.2344  -17.1496  146.1214 C   0  0  0  0  0  0  0  0  0  0  0  0
  -28.9233  -16.3772  146.8502 C   0  0  0  0  0  0  0  0  0  0  0  0
  5  6  1  0
  6  8  1  0
  8  9  1  0
  9 10  2  3
 10 11  1  0
 11 12  1  0
 15 18  1  0
 11 19  1  0
 19 20  1  0
  2 21  1  0
 20 22  1  0
 22 23  1  0
 23 24  1  0
 24 25  1  0
 18 28  1  0
 18 29  1  0
 18 30  1  0
 12 13  2  0
 13 14  1  0
 14 15  2  0
 15 16  1  0
 16 17  2  0
 17 12  1  0
 25 26  2  0
 26 27  1  0
 27 31  2  0
 31 32  1  0
 32 33  2  0
 33 25  1  0
  1  2  2  0
  2  3  1  0
  3  7  2  0
  7  5  1  0
  5  4  2  0
  4  1  1  0
M  END

$$$$
No_1827-/dssg/home/sw_qyf/PocketFlow/Model-Generation-Results/5HT2A_7WC7_rec_A_10.pdb/2024-01-01-03-54-21/
     RDKit          3D

 16 15  0  0  0  0  0  0  0  0999 V2000
  -23.1746  -16.6014  144.8668 C   0  0  0  0  0  0  0  0  0  0  0  0
  -23.8963  -15.5346  144.7885 C   0  0  0  0  0  0  0  0  0  0  0  0
  -23.6398  -14.5115  145.3281 C   0  0  0  0  0  0  0  0  0  0  0  0
  -24.3240  -13.3648  145.1281 C   0  0  0  0  0  0  0  0  0  0  0  0
  -23.8303  -12.0965  145.7921 C   0  0  0  0  0  0  0  0  0  0  0  0
  -25.3060  -13.1626  144.3111 O   0  0  0  0  0  0  0  0  0  0  0  0
  -23.3227  -17.4840  146.0017 C   0  0  0  0  0  0  0  0  0  0  0  0
  -24.4363  -17.6128  146.4332 O   0  0  0  0  0  0  0  0  0  0  0  0
  -25.0683  -16.7872  147.4146 C   0  0  0  0  0  0  0  0  0  0  0  0
  -25.9616  -17.0391  148.0154 C   0  0  0  0  0  0  0  0  0  0  0  0
  -25.9431  -17.3563  149.3320 C   0  0  0  0  0  0  0  0  0  0  0  0
  -26.9378  -17.7698  150.2543 C   0  0  0  0  0  0  0  0  0  0  0  0
  -28.2328  -17.5785  149.7293 C   0  0  0  0  0  0  0  0  0  0  0  0
  -28.4445  -16.9983  148.4692 C   0  0  0  0  0  0  0  0  0  0  0  0
  -27.3300  -16.6745  147.7053 C   0  0  0  0  0  0  0  0  0  0  0  0
  -27.6100  -16.1817  146.3439 C   0  0  0  0  0  0  0  0  0  0  0  0
  1  2  1  0
  2  3  2  3
  3  4  1  0
  4  5  1  0
  4  6  1  0
  1  7  1  0
  7  8  1  0
  8  9  1  0
  9 10  2  3
 10 11  1  0
 11 12  2  3
 12 13  1  0
 13 14  2  3
 14 15  1  0
 15 16  1  0
M  END

$$$$
No_1828-/dssg/home/sw_qyf/PocketFlow/Model-Generation-Results/5HT2A_7WC7_rec_A_10.pdb/2024-01-01-03-54-21/
     RDKit          3D

  8  7  0  0  0  0  0  0  0  0999 V2000
  -24.1553  -17.8465  145.7021 C   0  0  0  0  0  0  0  0  0  0  0  0
  -24.2856  -16.6364  145.3494 C   0  0  0  0  0  0  0  0  0  0  0  0
  -23.7824  -15.9602  144.3554 C   0  0  0  0  0  0  0  0  0  0  0  0
  -23.9871  -14.5276  144.1537 C   0  0  0  0  0  0  0  0  0  0  0  0
  -24.7876  -13.8357  145.1351 C   0  0  0  0  0  0  0  0  0  0  0  0
  -25.3945  -14.5459  146.1755 C   0  0  0  0  0  0  0  0  0  0  0  0
  -25.0741  -15.8909  146.3327 C   0  0  0  0  0  0  0  0  0  0  0  0
  -25.5168  -16.8056  147.3477 C   0  0  0  0  0  0  0  0  0  0  0  0
  1  2  1  0
  2  3  2  3
  3  4  1  0
  4  5  2  3
  5  6  1  0
  6  7  2  3
  7  8  1  0
M  END

$$$$
No_1829-/dssg/home/sw_qyf/PocketFlow/Model-Generation-Results/5HT2A_7WC7_rec_A_10.pdb/2024-01-01-03-54-21/
     RDKit          3D

 35 37  0  0  0  0  0  0  0  0999 V2000
  -24.1553  -17.8465  145.7021 C   0  0  0  0  0  0  0  0  0  0  0  0
  -23.9795  -18.4462  146.7426 C   0  0  0  0  0  0  0  0  0  0  0  0
  -24.2723  -16.4220  145.8037 C   0  0  0  0  0  0  0  0  0  0  0  0
  -24.0151  -15.5895  144.6874 C   0  0  0  0  0  0  0  0  0  0  0  0
  -24.0834  -17.9646  148.0883 C   0  0  0  0  0  0  0  0  0  0  0  0
  -24.2949  -16.5690  148.2409 C   0  0  0  0  0  0  0  0  0  0  0  0
  -24.3289  -15.7594  147.1024 C   0  0  0  0  0  0  0  0  0  0  0  0
  -24.3317  -14.1037  144.8513 C   0  0  0  0  0  0  0  0  0  0  0  0
  -24.8625  -13.6984  144.0734 C   0  0  0  0  0  0  0  0  0  0  0  0
  -26.2554  -13.8296  144.0614 C   0  0  0  0  0  0  0  0  0  0  0  0
  -27.0280  -13.1630  142.9582 C   0  0  0  0  0  0  0  0  0  0  0  0
  -26.8998  -13.5910  141.6232 C   0  0  0  0  0  0  0  0  0  0  0  0
  -27.6044  -12.8103  140.6939 C   0  0  0  0  0  0  0  0  0  0  0  0
  -27.3264  -12.8127  139.3305 C   0  0  0  0  0  0  0  0  0  0  0  0
  -25.9679  -12.1854  139.1452 C   0  0  0  0  0  0  0  0  0  0  0  0
  -25.1694  -13.0359  138.5037 O   0  0  0  0  0  0  0  0  0  0  0  0
  -28.6291  -11.9485  141.2848 C   0  0  0  0  0  0  0  0  0  0  0  0
  -29.0812  -10.8530  140.4982 C   0  0  0  0  0  0  0  0  0  0  0  0
  -28.5885   -9.5165  141.1329 C   0  0  0  0  0  0  0  0  0  0  0  0
  -29.0570   -9.1415  142.4237 C   0  0  0  0  0  0  0  0  0  0  0  0
  -30.4320   -9.0335  142.5016 C   0  0  0  0  0  0  0  0  0  0  0  0
  -31.0302   -8.7897  143.7900 C   0  0  0  0  0  0  0  0  0  0  0  0
  -30.8454   -7.8140  141.7165 O   0  0  0  0  0  0  0  0  0  0  0  0
  -30.5721   -9.6108  144.6885 O   0  0  0  0  0  0  0  0  0  0  0  0
  -27.8325  -12.0639  143.3478 C   0  0  0  0  0  0  0  0  0  0  0  0
  -28.1296  -11.2015  142.5626 N   0  0  0  0  0  0  0  0  0  0  0  0
  -27.3112  -10.1967  142.8106 C   0  0  0  0  0  0  0  0  0  0  0  0
  -27.2423   -9.3778  141.0832 O   0  0  0  0  0  0  0  0  0  0  0  0
  -26.1016  -10.5326  143.0141 O   0  0  0  0  0  0  0  0  0  0  0  0
  -27.9885   -9.1049  143.3684 C   0  0  0  0  0  0  0  0  0  0  0  0
  -26.9970  -14.6853  144.9295 C   0  0  0  0  0  0  0  0  0  0  0  0
  -27.1459  -14.2544  146.2968 C   0  0  0  0  0  0  0  0  0  0  0  0
  -28.0658  -14.9533  147.1505 C   0  0  0  0  0  0  0  0  0  0  0  0
  -29.2435  -14.3166  147.7005 C   0  0  0  0  0  0  0  0  0  0  0  0
  -30.0319  -15.0403  148.6827 C   0  0  0  0  0  0  0  0  0  0  0  0
  4  8  1  0
  8  9  2  3
  9 10  1  0
 10 11  1  0
 11 12  1  0
 12 13  1  0
 13 14  1  0
 14 15  1  0
 15 16  1  0
 13 17  1  0
 17 18  1  0
 18 19  1  0
 19 20  1  0
 20 21  1  0
 21 22  1  0
 21 23  1  0
 22 24  1  0
 11 25  1  0
 17 26  1  0
 25 26  1  0
 26 27  1  0
 19 28  1  0
 27 29  2  0
 20 30  1  0
 27 30  1  0
 10 31  1  0
 31 32  1  0
 32 33  2  3
 33 34  1  0
 34 35  2  0
  4  3  1  0
  1  2  2  0
  2  5  1  0
  5  6  2  0
  6  7  1  0
  7  3  2  0
  3  1  1  0
M  END

$$$$
No_1830-/dssg/home/sw_qyf/PocketFlow/Model-Generation-Results/5HT2A_7WC7_rec_A_10.pdb/2024-01-01-03-54-21/
     RDKit          3D

 35 36  0  0  0  0  0  0  0  0999 V2000
  -24.1553  -17.8465  145.7021 C   0  0  0  0  0  0  0  0  0  0  0  0
  -23.9795  -18.4462  146.7426 C   0  0  0  0  0  0  0  0  0  0  0  0
  -25.1593  -16.8262  145.6925 C   0  0  0  0  0  0  0  0  0  0  0  0
  -26.3426  -16.9003  146.3448 C   0  0  0  0  0  0  0  0  0  0  0  0
  -27.1700  -15.7345  146.5828 C   0  0  0  0  0  0  0  0  0  0  0  0
  -26.7028  -14.6149  146.2516 C   0  0  0  0  0  0  0  0  0  0  0  0
  -25.4451  -14.3710  145.6000 C   0  0  0  0  0  0  0  0  0  0  0  0
  -24.5528  -15.5278  145.4614 C   0  0  0  0  0  0  0  0  0  0  0  0
  -24.8660  -13.0606  145.3362 C   0  0  0  0  0  0  0  0  0  0  0  0
  -25.7180  -12.4406  144.8352 F   0  0  0  0  0  0  0  0  0  0  0  0
  -23.7861  -13.2396  144.4603 F   0  0  0  0  0  0  0  0  0  0  0  0
  -24.3697  -12.4513  146.4849 F   0  0  0  0  0  0  0  0  0  0  0  0
  -23.4973  -18.1994  147.6022 O   0  0  0  0  0  0  0  0  0  0  0  0
  -24.9467  -19.4085  146.9373 O   0  0  0  0  0  0  0  0  0  0  0  0
  -28.5360  -15.9017  147.1585 C   0  0  0  0  0  0  0  0  0  0  0  0
  -28.9905  -14.8848  148.1654 C   0  0  0  0  0  0  0  0  0  0  0  0
  -29.7708  -13.7472  147.5953 C   0  0  0  0  0  0  0  0  0  0  0  0
  -29.3641  -12.8889  146.5767 C   0  0  0  0  0  0  0  0  0  0  0  0
  -29.9150  -11.5889  146.3514 C   0  0  0  0  0  0  0  0  0  0  0  0
  -29.3291  -10.8543  145.4324 O   0  0  0  0  0  0  0  0  0  0  0  0
  -30.1343  -10.1882  144.5352 C   0  0  0  0  0  0  0  0  0  0  0  0
  -29.5498  -10.0019  143.3225 C   0  0  0  0  0  0  0  0  0  0  0  0
  -28.4663  -10.6426  142.9084 C   0  0  0  0  0  0  0  0  0  0  0  0
  -28.1372  -10.7704  141.4793 C   0  0  0  0  0  0  0  0  0  0  0  0
  -28.3889   -9.6798  140.6614 C   0  0  0  0  0  0  0  0  0  0  0  0
  -28.0203   -9.6637  139.3038 C   0  0  0  0  0  0  0  0  0  0  0  0
  -28.2053   -8.4451  138.5745 C   0  0  0  0  0  0  0  0  0  0  0  0
  -30.1520   -9.1270  142.3043 C   0  0  0  0  0  0  0  0  0  0  0  0
  -29.5376   -8.9024  141.0585 C   0  0  0  0  0  0  0  0  0  0  0  0
  -27.9908   -8.4695  137.2003 C   0  0  0  0  0  0  0  0  0  0  0  0
  -31.2608   -8.2512  142.7118 C   0  0  0  0  0  0  0  0  0  0  0  0
  -32.2476   -8.3036  142.0650 O   0  0  0  0  0  0  0  0  0  0  0  0
  -28.8792   -9.5525  136.6086 C   0  0  0  0  0  0  0  0  0  0  0  0
  -28.3096  -10.8374  136.7319 C   0  0  0  0  0  0  0  0  0  0  0  0
  -28.1373  -11.5536  137.9562 C   0  0  0  0  0  0  0  0  0  0  0  0
  1  2  1  0
  1  3  1  0
  7  9  1  0
  9 10  1  0
  9 11  1  0
  9 12  1  0
  2 13  2  0
  2 14  1  0
  5 15  1  0
 15 16  1  0
 16 17  1  0
 17 18  2  3
 18 19  1  0
 19 20  1  0
 20 21  1  0
 21 22  1  0
 26 27  1  0
 27 30  2  3
 28 31  1  0
 31 32  2  0
 30 33  1  0
 33 34  2  3
 34 35  1  0
 26 25  1  0
  3  4  2  0
  4  5  1  0
  5  6  2  0
  6  7  1  0
  7  8  2  0
  8  3  1  0
 22 23  2  0
 23 24  1  0
 24 25  2  0
 25 29  1  0
 29 28  2  0
 28 22  1  0
M  END

$$$$
No_1831-/dssg/home/sw_qyf/PocketFlow/Model-Generation-Results/5HT2A_7WC7_rec_A_10.pdb/2024-01-01-03-54-21/
     RDKit          3D

 35 38  0  0  0  0  0  0  0  0999 V2000
  -24.1553  -17.8465  145.7021 C   0  0  0  0  0  0  0  0  0  0  0  0
  -24.2855  -16.6364  145.3494 C   0  0  0  0  0  0  0  0  0  0  0  0
  -25.0033  -15.6772  146.0737 C   0  0  0  0  0  0  0  0  0  0  0  0
  -25.6964  -16.1810  147.2049 C   0  0  0  0  0  0  0  0  0  0  0  0
  -24.8143  -18.3454  146.8324 C   0  0  0  0  0  0  0  0  0  0  0  0
  -25.5291  -17.4614  147.6374 C   0  0  0  0  0  0  0  0  0  0  0  0
  -23.6700  -16.1088  144.2413 F   0  0  0  0  0  0  0  0  0  0  0  0
  -25.1798  -14.2490  145.6713 C   0  0  0  0  0  0  0  0  0  0  0  0
  -26.2080  -13.6723  145.4527 C   0  0  0  0  0  0  0  0  0  0  0  0
  -26.3108  -12.2669  145.1234 C   0  0  0  0  0  0  0  0  0  0  0  0
  -27.5481  -11.5613  144.8835 C   0  0  0  0  0  0  0  0  0  0  0  0
  -28.6913  -11.5414  145.7701 C   0  0  0  0  0  0  0  0  0  0  0  0
  -29.7350  -11.0043  145.4085 C   0  0  0  0  0  0  0  0  0  0  0  0
  -29.8480  -10.0909  144.3007 C   0  0  0  0  0  0  0  0  0  0  0  0
  -28.7581   -9.9212  143.5239 C   0  0  0  0  0  0  0  0  0  0  0  0
  -27.5788  -10.6396  143.8103 C   0  0  0  0  0  0  0  0  0  0  0  0
  -25.0100  -11.7136  144.9940 C   0  0  0  0  0  0  0  0  0  0  0  0
  -23.7814  -12.3247  145.2118 C   0  0  0  0  0  0  0  0  0  0  0  0
  -23.8757  -13.6940  145.5709 C   0  0  0  0  0  0  0  0  0  0  0  0
  -28.8044   -9.0414  142.3956 C   0  0  0  0  0  0  0  0  0  0  0  0
  -28.6904   -9.6118  141.0603 C   0  0  0  0  0  0  0  0  0  0  0  0
  -28.5463   -8.7558  139.9891 C   0  0  0  0  0  0  0  0  0  0  0  0
  -28.1706   -9.2176  138.6618 C   0  0  0  0  0  0  0  0  0  0  0  0
  -28.1553   -8.2264  137.6288 C   0  0  0  0  0  0  0  0  0  0  0  0
  -29.3991   -7.6730  142.3633 C   0  0  0  0  0  0  0  0  0  0  0  0
  -29.3386   -6.7918  141.3281 C   0  0  0  0  0  0  0  0  0  0  0  0
  -29.0252   -7.3296  140.1109 C   0  0  0  0  0  0  0  0  0  0  0  0
  -27.8686  -10.5457  138.5155 C   0  0  0  0  0  0  0  0  0  0  0  0
  -27.1803  -11.2122  139.4396 N   0  0  0  0  0  0  0  0  0  0  0  0
  -27.0700  -12.6379  139.4632 C   0  0  0  0  0  0  0  0  0  0  0  0
  -28.5993  -12.4161  146.8225 F   0  0  0  0  0  0  0  0  0  0  0  0
  -22.6177  -11.7328  145.0551 O   0  0  0  0  0  0  0  0  0  0  0  0
  -30.9889   -9.4510  143.9442 O   0  0  0  0  0  0  0  0  0  0  0  0
  -28.4190  -11.1909  137.5876 O   0  0  0  0  0  0  0  0  0  0  0  0
  -27.2532  -13.0383  140.9127 C   0  0  0  0  0  0  0  0  0  0  0  0
  2  7  1  0
  3  8  1  0
 10 11  1  0
 15 20  1  0
 22 23  1  0
 23 24  2  0
 23 28  1  0
 28 29  1  0
 29 30  1  0
 12 31  1  0
 18 32  1  0
 14 33  1  0
 28 34  2  0
 30 35  1  0
  8  9  2  0
  9 10  1  0
 10 17  2  0
 17 18  1  0
 18 19  2  0
 19  8  1  0
 11 12  2  0
 12 13  1  0
 13 14  2  0
 14 15  1  0
 15 16  2  0
 16 11  1  0
  1  2  2  0
  2  3  1  0
  3  4  2  0
  4  6  1  0
  6  5  2  0
  5  1  1  0
 20 21  2  0
 21 22  1  0
 22 27  2  0
 27 26  1  0
 26 25  2  0
 25 20  1  0
M  END

$$$$
No_1832-/dssg/home/sw_qyf/PocketFlow/Model-Generation-Results/5HT2A_7WC7_rec_A_10.pdb/2024-01-01-03-54-21/
     RDKit          3D

 13 13  0  0  0  0  0  0  0  0999 V2000
  -23.1746  -16.6014  144.8668 C   0  0  0  0  0  0  0  0  0  0  0  0
  -23.7011  -17.0158  145.9774 C   0  0  0  0  0  0  0  0  0  0  0  0
  -24.2134  -16.0722  146.8877 C   0  0  0  0  0  0  0  0  0  0  0  0
  -23.3742  -15.2706  144.3922 C   0  0  0  0  0  0  0  0  0  0  0  0
  -24.0638  -14.3065  145.2723 C   0  0  0  0  0  0  0  0  0  0  0  0
  -24.4769  -14.7246  146.5384 C   0  0  0  0  0  0  0  0  0  0  0  0
  -24.2073  -12.8864  144.8852 C   0  0  0  0  0  0  0  0  0  0  0  0
  -24.3419  -11.9652  145.9961 C   0  0  0  0  0  0  0  0  0  0  0  0
  -23.5477  -18.4425  146.4364 C   0  0  0  0  0  0  0  0  0  0  0  0
  -22.5689  -18.6416  147.1580 F   0  0  0  0  0  0  0  0  0  0  0  0
  -23.4725  -19.2673  145.4186 F   0  0  0  0  0  0  0  0  0  0  0  0
  -24.6791  -18.7876  147.1626 F   0  0  0  0  0  0  0  0  0  0  0  0
  -25.3346  -12.4440  146.9927 C   0  0  0  0  0  0  0  0  0  0  0  0
  5  7  1  0
  7  8  1  0
  2  9  1  0
  9 10  1  0
  9 11  1  0
  9 12  1  0
  8 13  1  0
  1  2  2  0
  2  3  1  0
  3  6  2  0
  6  5  1  0
  5  4  2  0
  4  1  1  0
M  END

$$$$
No_1833-/dssg/home/sw_qyf/PocketFlow/Model-Generation-Results/5HT2A_7WC7_rec_A_10.pdb/2024-01-01-03-54-21/
     RDKit          3D

 35 37  0  0  0  0  0  0  0  0999 V2000
  -24.1553  -17.8465  145.7021 C   0  0  0  0  0  0  0  0  0  0  0  0
  -23.9795  -18.4462  146.7426 C   0  0  0  0  0  0  0  0  0  0  0  0
  -24.3577  -16.4380  145.7329 C   0  0  0  0  0  0  0  0  0  0  0  0
  -24.6120  -15.7738  146.9649 C   0  0  0  0  0  0  0  0  0  0  0  0
  -24.4666  -16.5590  148.1483 C   0  0  0  0  0  0  0  0  0  0  0  0
  -24.1608  -17.8621  148.1048 C   0  0  0  0  0  0  0  0  0  0  0  0
  -24.5660  -15.4610  144.6282 C   0  0  0  0  0  0  0  0  0  0  0  0
  -25.5572  -14.4941  144.7092 C   0  0  0  0  0  0  0  0  0  0  0  0
  -25.5508  -13.3751  144.0467 C   0  0  0  0  0  0  0  0  0  0  0  0
  -26.7458  -12.7143  144.2295 C   0  0  0  0  0  0  0  0  0  0  0  0
  -27.0860  -11.5103  143.4091 C   0  0  0  0  0  0  0  0  0  0  0  0
  -28.5405  -11.2591  143.4506 C   0  0  0  0  0  0  0  0  0  0  0  0
  -29.1257  -10.3834  142.5199 C   0  0  0  0  0  0  0  0  0  0  0  0
  -30.4178   -9.8051  142.8188 C   0  0  0  0  0  0  0  0  0  0  0  0
  -31.1194   -9.1591  141.8200 C   0  0  0  0  0  0  0  0  0  0  0  0
  -30.4909   -7.7994  141.6976 C   0  0  0  0  0  0  0  0  0  0  0  0
  -29.4392   -7.7794  140.6942 C   0  0  0  0  0  0  0  0  0  0  0  0
  -29.2676   -8.5801  139.7092 C   0  0  0  0  0  0  0  0  0  0  0  0
  -28.4996   -8.5287  138.8827 C   0  0  0  0  0  0  0  0  0  0  0  0
  -28.2557   -9.5173  137.8506 C   0  0  0  0  0  0  0  0  0  0  0  0
  -26.6924  -14.7659  145.6041 C   0  0  0  0  0  0  0  0  0  0  0  0
  -27.5708  -13.6370  145.5070 C   0  0  0  0  0  0  0  0  0  0  0  0
  -28.4877  -10.7952  138.2748 C   0  0  0  0  0  0  0  0  0  0  0  0
  -28.0868  -11.9328  137.3890 C   0  0  0  0  0  0  0  0  0  0  0  0
  -28.7181  -13.2056  146.0622 C   0  0  0  0  0  0  0  0  0  0  0  0
  -28.9683  -11.8153  146.4514 C   0  0  0  0  0  0  0  0  0  0  0  0
  -30.1887  -11.4948  147.2140 C   0  0  0  0  0  0  0  0  0  0  0  0
  -29.5234  -14.1818  146.7219 C   0  0  0  0  0  0  0  0  0  0  0  0
  -30.6801  -13.7372  147.5733 C   0  0  0  0  0  0  0  0  0  0  0  0
  -30.8693  -12.4345  147.8325 C   0  0  0  0  0  0  0  0  0  0  0  0
  -31.9330  -12.1238  148.6181 O   0  0  0  0  0  0  0  0  0  0  0  0
  -31.9936  -12.4620  149.9538 C   0  0  0  0  0  0  0  0  0  0  0  0
  -32.7232  -11.5547  150.7502 C   0  0  0  0  0  0  0  0  0  0  0  0
  -33.0620  -10.4547  150.3067 O   0  0  0  0  0  0  0  0  0  0  0  0
  -32.8600  -11.8134  152.1049 N   0  0  0  0  0  0  0  0  0  0  0  0
  3  7  1  0
  7  8  1  0
  8  9  2  0
  9 10  1  0
 10 11  1  0
 11 12  1  0
 12 13  2  3
 13 14  1  0
 14 15  1  0
 15 16  1  0
 16 17  1  0
 17 18  1  0
 18 19  2  3
 19 20  1  0
  8 21  1  0
 10 22  1  0
 21 22  2  0
 20 23  2  3
 23 24  1  0
 22 25  1  0
 30 31  1  0
 31 32  1  0
 32 33  1  0
 33 34  2  0
 33 35  1  0
  1  2  2  0
  2  6  1  0
  6  5  2  0
  5  4  1  0
  4  3  2  0
  3  1  1  0
 25 26  2  0
 26 27  1  0
 27 30  2  0
 30 29  1  0
 29 28  2  0
 28 25  1  0
M  END

$$$$
No_1834-/dssg/home/sw_qyf/PocketFlow/Model-Generation-Results/5HT2A_7WC7_rec_A_10.pdb/2024-01-01-03-54-21/
     RDKit          3D

 22 23  0  0  0  0  0  0  0  0999 V2000
  -23.1746  -16.6014  144.8668 C   0  0  0  0  0  0  0  0  0  0  0  0
  -23.8963  -15.5346  144.7885 C   0  0  0  0  0  0  0  0  0  0  0  0
  -25.0304  -15.2549  144.5358 C   0  0  0  0  0  0  0  0  0  0  0  0
  -25.6045  -13.9524  144.2294 C   0  0  0  0  0  0  0  0  0  0  0  0
  -26.9716  -13.7632  143.8495 C   0  0  0  0  0  0  0  0  0  0  0  0
  -27.2940  -12.4851  143.3751 C   0  0  0  0  0  0  0  0  0  0  0  0
  -27.9155  -12.3162  142.1844 C   0  0  0  0  0  0  0  0  0  0  0  0
  -27.4371  -12.9668  141.0345 C   0  0  0  0  0  0  0  0  0  0  0  0
  -27.9746  -12.6798  139.7751 C   0  0  0  0  0  0  0  0  0  0  0  0
  -27.8681  -11.2078  139.4750 C   0  0  0  0  0  0  0  0  0  0  0  0
  -28.2985  -10.2579  140.4506 C   0  0  0  0  0  0  0  0  0  0  0  0
  -27.9850  -10.7539  141.9305 C   0  0  0  0  0  0  0  0  0  0  0  0
  -28.5914   -8.9765  140.2259 C   0  0  0  0  0  0  0  0  0  0  0  0
  -29.2928   -8.1838  141.1687 C   0  0  0  0  0  0  0  0  0  0  0  0
  -30.3003   -8.6440  142.0129 C   0  0  0  0  0  0  0  0  0  0  0  0
  -30.9384   -7.7372  142.9178 C   0  0  0  0  0  0  0  0  0  0  0  0
  -28.0988   -8.4001  139.0528 C   0  0  0  0  0  0  0  0  0  0  0  0
  -23.9141  -17.6065  145.5956 C   0  0  0  0  0  0  0  0  0  0  0  0
  -24.4962  -17.4126  146.5694 C   0  0  0  0  0  0  0  0  0  0  0  0
  -25.8086  -16.6212  146.6479 C   0  0  0  0  0  0  0  0  0  0  0  0
  -25.8950  -15.4648  145.7599 C   0  0  0  0  0  0  0  0  0  0  0  0
  -30.2768   -6.5381  142.9365 N   0  0  0  0  0  0  0  0  0  0  0  0
  1  2  1  0
  2  3  2  0
  3  4  1  0
  4  5  1  0
  5  6  1  0
  6  7  1  0
 11 13  1  0
 13 14  1  0
 14 15  2  3
 15 16  1  0
 13 17  1  0
  1 18  2  0
 18 19  1  0
 19 20  2  0
  3 21  1  0
 20 21  1  0
 16 22  2  0
  7  8  2  0
  8  9  1  0
  9 10  2  0
 10 11  1  0
 11 12  2  0
 12  7  1  0
M  END

$$$$
No_1835-/dssg/home/sw_qyf/PocketFlow/Model-Generation-Results/5HT2A_7WC7_rec_A_10.pdb/2024-01-01-03-54-21/
     RDKit          3D

 21 22  0  0  0  0  0  0  0  0999 V2000
  -23.1746  -16.6014  144.8668 C   0  0  0  0  0  0  0  0  0  0  0  0
  -23.7011  -17.0158  145.9774 C   0  0  0  0  0  0  0  0  0  0  0  0
  -24.7095  -16.6222  146.3578 C   0  0  0  0  0  0  0  0  0  0  0  0
  -25.5380  -15.6354  145.8602 C   0  0  0  0  0  0  0  0  0  0  0  0
  -25.0590  -15.0335  144.6969 C   0  0  0  0  0  0  0  0  0  0  0  0
  -23.8269  -15.5066  144.1856 C   0  0  0  0  0  0  0  0  0  0  0  0
  -25.7332  -13.9139  143.9915 C   0  0  0  0  0  0  0  0  0  0  0  0
  -26.6568  -13.1230  144.8103 C   0  0  0  0  0  0  0  0  0  0  0  0
  -27.0246  -11.8483  144.3454 C   0  0  0  0  0  0  0  0  0  0  0  0
  -27.8869  -11.3547  143.9013 C   0  0  0  0  0  0  0  0  0  0  0  0
  -28.1316   -9.9453  143.4176 C   0  0  0  0  0  0  0  0  0  0  0  0
  -29.1962   -9.4390  142.7360 C   0  0  0  0  0  0  0  0  0  0  0  0
  -30.4440   -9.3742  143.2385 C   0  0  0  0  0  0  0  0  0  0  0  0
  -31.4579   -8.6980  142.4129 C   0  0  0  0  0  0  0  0  0  0  0  0
  -28.9356   -9.1760  141.3724 C   0  0  0  0  0  0  0  0  0  0  0  0
  -28.0926   -9.9306  140.5549 C   0  0  0  0  0  0  0  0  0  0  0  0
  -27.8702   -9.7843  139.2404 C   0  0  0  0  0  0  0  0  0  0  0  0
  -28.2034   -8.5507  138.5911 C   0  0  0  0  0  0  0  0  0  0  0  0
  -29.0477   -7.6416  139.4455 C   0  0  0  0  0  0  0  0  0  0  0  0
  -29.3240   -7.9476  140.7949 C   0  0  0  0  0  0  0  0  0  0  0  0
  -22.9268  -18.2127  146.6318 C   0  0  0  0  0  0  0  0  0  0  0  0
  5  7  1  0
  7  8  1  0
  8  9  1  0
  9 10  2  3
 10 11  1  0
 11 12  1  0
 12 13  2  3
 13 14  1  0
 12 15  1  0
  2 21  1  0
 15 16  2  0
 16 17  1  0
 17 18  2  0
 18 19  1  0
 19 20  2  0
 20 15  1  0
  1  2  2  0
  2  3  1  0
  3  4  2  0
  4  5  1  0
  5  6  2  0
  6  1  1  0
M  END

$$$$
No_1836-/dssg/home/sw_qyf/PocketFlow/Model-Generation-Results/5HT2A_7WC7_rec_A_10.pdb/2024-01-01-03-54-21/
     RDKit          3D

 19 21  0  0  0  0  0  0  0  0999 V2000
  -24.1553  -17.8465  145.7021 C   0  0  0  0  0  0  0  0  0  0  0  0
  -23.9795  -18.4462  146.7426 C   0  0  0  0  0  0  0  0  0  0  0  0
  -25.1593  -16.8262  145.6925 C   0  0  0  0  0  0  0  0  0  0  0  0
  -25.9346  -16.5763  146.8154 C   0  0  0  0  0  0  0  0  0  0  0  0
  -27.0180  -15.6510  146.7805 C   0  0  0  0  0  0  0  0  0  0  0  0
  -26.9026  -14.6404  145.8447 C   0  0  0  0  0  0  0  0  0  0  0  0
  -27.8836  -13.5698  145.7254 C   0  0  0  0  0  0  0  0  0  0  0  0
  -27.6667  -12.4340  144.8708 C   0  0  0  0  0  0  0  0  0  0  0  0
  -26.7239  -12.6801  143.8330 C   0  0  0  0  0  0  0  0  0  0  0  0
  -25.9314  -13.8196  143.8041 C   0  0  0  0  0  0  0  0  0  0  0  0
  -25.9995  -14.8414  144.7993 C   0  0  0  0  0  0  0  0  0  0  0  0
  -25.1623  -15.7612  144.6972 C   0  0  0  0  0  0  0  0  0  0  0  0
  -24.6968  -18.1933  148.0152 C   0  0  0  0  0  0  0  0  0  0  0  0
  -25.6954  -17.2375  148.0487 C   0  0  0  0  0  0  0  0  0  0  0  0
  -28.5472  -11.2941  144.8744 C   0  0  0  0  0  0  0  0  0  0  0  0
  -29.3211  -10.8239  145.9915 C   0  0  0  0  0  0  0  0  0  0  0  0
  -28.3453  -10.3302  143.8689 C   0  0  0  0  0  0  0  0  0  0  0  0
  -27.2969   -9.9355  143.3814 C   0  0  0  0  0  0  0  0  0  0  0  0
  -29.4307  -11.6266  147.0705 N   0  0  0  0  0  0  0  0  0  0  0  0
  8 15  1  0
 15 16  1  0
 15 17  1  0
 17 18  2  0
 16 19  1  0
  1  2  2  0
  2 13  1  0
 13 14  2  0
 14  4  1  0
  3  1  1  0
  6  7  1  0
  7  8  2  0
  8  9  1  0
  9 10  2  0
 10 11  1  0
  3  4  2  0
  4  5  1  0
  5  6  2  0
  6 11  1  0
 11 12  2  0
 12  3  1  0
M  END

$$$$
No_1837-/dssg/home/sw_qyf/PocketFlow/Model-Generation-Results/5HT2A_7WC7_rec_A_10.pdb/2024-01-01-03-54-21/
     RDKit          3D

 35 38  0  0  0  0  0  0  0  0999 V2000
  -23.1746  -16.6014  144.8668 C   0  0  0  0  0  0  0  0  0  0  0  0
  -23.8963  -15.5346  144.7885 C   0  0  0  0  0  0  0  0  0  0  0  0
  -23.6398  -14.5115  145.3281 C   0  0  0  0  0  0  0  0  0  0  0  0
  -24.3866  -13.2477  145.3906 C   0  0  0  0  0  0  0  0  0  0  0  0
  -25.6595  -13.1543  144.8974 C   0  0  0  0  0  0  0  0  0  0  0  0
  -26.4904  -12.0231  145.0331 C   0  0  0  0  0  0  0  0  0  0  0  0
  -27.8437  -12.0380  144.7012 C   0  0  0  0  0  0  0  0  0  0  0  0
  -28.2655  -11.4133  143.6064 C   0  0  0  0  0  0  0  0  0  0  0  0
  -28.0732  -10.1782  143.4707 C   0  0  0  0  0  0  0  0  0  0  0  0
  -26.8304   -9.6311  144.1888 C   0  0  0  0  0  0  0  0  0  0  0  0
  -26.0366  -10.6386  144.9361 C   0  0  0  0  0  0  0  0  0  0  0  0
  -28.9635   -9.2140  142.9591 C   0  0  0  0  0  0  0  0  0  0  0  0
  -29.9226   -8.5094  143.6391 C   0  0  0  0  0  0  0  0  0  0  0  0
  -30.8416   -7.6854  143.0200 C   0  0  0  0  0  0  0  0  0  0  0  0
  -28.9284   -9.0433  141.5430 C   0  0  0  0  0  0  0  0  0  0  0  0
  -28.0539   -9.7510  140.7128 C   0  0  0  0  0  0  0  0  0  0  0  0
  -27.9727   -9.4473  139.3566 C   0  0  0  0  0  0  0  0  0  0  0  0
  -30.8684   -7.5651  141.6205 C   0  0  0  0  0  0  0  0  0  0  0  0
  -29.9346   -8.2448  140.9176 C   0  0  0  0  0  0  0  0  0  0  0  0
  -27.4811  -10.4883  138.4720 C   0  0  0  0  0  0  0  0  0  0  0  0
  -27.1152  -11.7613  139.0543 C   0  0  0  0  0  0  0  0  0  0  0  0
  -27.4112  -12.0968  140.4037 C   0  0  0  0  0  0  0  0  0  0  0  0
  -27.8741  -11.1629  141.1428 C   0  0  0  0  0  0  0  0  0  0  0  0
  -23.7808  -17.8578  144.7857 C   0  0  0  0  0  0  0  0  0  0  0  0
  -24.6544  -18.0333  146.0299 C   0  0  0  0  0  0  0  0  0  0  0  0
  -25.1181  -17.1101  146.5633 C   0  0  0  0  0  0  0  0  0  0  0  0
  -26.1430  -17.1825  147.7027 C   0  0  0  0  0  0  0  0  0  0  0  0
  -26.9763  -16.0199  148.0084 C   0  0  0  0  0  0  0  0  0  0  0  0
  -26.8077  -14.8665  147.1550 C   0  0  0  0  0  0  0  0  0  0  0  0
  -25.1960  -16.0717  145.7396 O   0  0  0  0  0  0  0  0  0  0  0  0
  -27.0782  -13.3504  140.8153 O   0  0  0  0  0  0  0  0  0  0  0  0
  -24.8011  -19.3467  146.4216 O   0  0  0  0  0  0  0  0  0  0  0  0
  -23.7954  -11.9738  145.8978 C   0  0  0  0  0  0  0  0  0  0  0  0
  -28.1060   -8.1388  138.8833 C   0  0  0  0  0  0  0  0  0  0  0  0
  -28.3651   -8.1020  137.6106 F   0  0  0  0  0  0  0  0  0  0  0  0
  1  2  1  0
  2  3  2  3
  3  4  1  0
  4  5  2  3
  5  6  1  0
  9 12  1  0
 15 16  1  0
  1 24  1  0
 24 25  1  0
 25 26  2  0
 26 27  1  0
 27 28  2  3
 28 29  1  0
  2 30  1  0
 26 30  1  0
 22 31  1  0
 25 32  1  0
  4 33  1  0
 17 34  1  0
 34 35  1  0
 16 17  2  0
 17 20  1  0
 20 21  2  0
 21 22  1  0
 22 23  2  0
 23 16  1  0
  6  7  2  0
  7  8  1  0
  8  9  2  0
  9 10  1  0
 10 11  2  0
 11  6  1  0
 12 13  2  0
 13 14  1  0
 14 18  2  0
 18 19  1  0
 19 15  2  0
 15 12  1  0
M  END

$$$$
No_1838-/dssg/home/sw_qyf/PocketFlow/Model-Generation-Results/5HT2A_7WC7_rec_A_10.pdb/2024-01-01-03-54-21/
     RDKit          3D

 20 20  0  0  0  0  0  0  0  0999 V2000
  -23.1746  -16.6014  144.8668 C   0  0  0  0  0  0  0  0  0  0  0  0
  -23.7011  -17.0158  145.9774 C   0  0  0  0  0  0  0  0  0  0  0  0
  -24.2134  -16.0722  146.8877 C   0  0  0  0  0  0  0  0  0  0  0  0
  -23.3742  -15.2706  144.3922 C   0  0  0  0  0  0  0  0  0  0  0  0
  -24.0638  -14.3065  145.2723 C   0  0  0  0  0  0  0  0  0  0  0  0
  -24.4769  -14.7246  146.5384 C   0  0  0  0  0  0  0  0  0  0  0  0
  -24.2143  -12.8848  144.8927 C   0  0  0  0  0  0  0  0  0  0  0  0
  -23.1081  -12.1279  145.5139 C   0  0  0  0  0  0  0  0  0  0  0  0
  -23.6016  -18.3608  146.6163 C   0  0  0  0  0  0  0  0  0  0  0  0
  -24.0721  -18.7820  147.5850 O   0  0  0  0  0  0  0  0  0  0  0  0
  -22.5965  -19.1010  146.1339 O   0  0  0  0  0  0  0  0  0  0  0  0
  -25.5355  -12.3686  145.3139 C   0  0  0  0  0  0  0  0  0  0  0  0
  -26.0774  -11.3322  144.5106 C   0  0  0  0  0  0  0  0  0  0  0  0
  -27.3290  -10.6899  144.8833 C   0  0  0  0  0  0  0  0  0  0  0  0
  -27.9570   -9.7802  143.9975 C   0  0  0  0  0  0  0  0  0  0  0  0
  -28.9719  -10.2439  143.1449 C   0  0  0  0  0  0  0  0  0  0  0  0
  -29.6079   -9.3498  142.2724 C   0  0  0  0  0  0  0  0  0  0  0  0
  -29.6123   -9.5078  140.9472 C   0  0  0  0  0  0  0  0  0  0  0  0
  -29.8698   -8.2065  140.2264 C   0  0  0  0  0  0  0  0  0  0  0  0
  -30.2339   -7.1451  141.1497 C   0  0  0  0  0  0  0  0  0  0  0  0
  5  7  1  0
  7  8  1  0
  2  9  1  0
  9 10  1  0
  9 11  2  0
  7 12  1  0
 12 13  2  3
 13 14  1  0
 14 15  1  0
 15 16  1  0
 16 17  2  3
 17 18  1  0
 18 19  2  3
 19 20  1  0
  1  2  2  0
  2  3  1  0
  3  6  2  0
  6  5  1  0
  5  4  2  0
  4  1  1  0
M  END

$$$$
No_1839-/dssg/home/sw_qyf/PocketFlow/Model-Generation-Results/5HT2A_7WC7_rec_A_10.pdb/2024-01-01-03-54-21/
     RDKit          3D

 19 20  0  0  0  0  0  0  0  0999 V2000
  -24.1553  -17.8465  145.7021 C   0  0  0  0  0  0  0  0  0  0  0  0
  -24.6364  -17.2931  146.7091 C   0  0  0  0  0  0  0  0  0  0  0  0
  -25.8608  -16.5592  146.5934 C   0  0  0  0  0  0  0  0  0  0  0  0
  -26.1843  -15.8250  145.5637 C   0  0  0  0  0  0  0  0  0  0  0  0
  -25.2748  -15.9230  144.4625 C   0  0  0  0  0  0  0  0  0  0  0  0
  -24.2394  -16.8657  144.5430 C   0  0  0  0  0  0  0  0  0  0  0  0
  -27.1735  -14.8006  145.7573 C   0  0  0  0  0  0  0  0  0  0  0  0
  -27.1342  -13.5887  145.0849 C   0  0  0  0  0  0  0  0  0  0  0  0
  -27.9196  -12.4895  145.5435 C   0  0  0  0  0  0  0  0  0  0  0  0
  -29.0331  -12.7437  146.4616 C   0  0  0  0  0  0  0  0  0  0  0  0
  -29.8528  -11.6547  146.9286 C   0  0  0  0  0  0  0  0  0  0  0  0
  -29.7775  -10.5576  146.1068 N   0  0  0  0  0  0  0  0  0  0  0  0
  -28.9891  -10.3803  145.0490 C   0  0  0  0  0  0  0  0  0  0  0  0
  -28.0683  -11.4132  144.7760 C   0  0  0  0  0  0  0  0  0  0  0  0
  -30.9505  -11.7643  148.1701 Cl  0  0  0  0  0  0  0  0  0  0  0  0
  -27.1929  -11.1989  143.7354 N   0  0  0  0  0  0  0  0  0  0  0  0
  -24.2273  -17.8141  148.1503 C   0  0  0  0  0  0  0  0  0  0  0  0
  -24.6357  -17.0824  149.3408 C   0  0  0  0  0  0  0  0  0  0  0  0
  -23.7863  -17.1910  150.2649 C   0  0  0  0  0  0  0  0  0  0  0  0
  4  7  1  0
  7  8  1  0
 11 15  1  0
 14 16  1  0
  2 17  1  0
 17 18  1  0
 18 19  2  0
  8  9  1  0
  1  2  2  0
  2  3  1  0
  3  4  2  0
  4  5  1  0
  5  6  2  0
  6  1  1  0
  9 10  2  0
 10 11  1  0
 11 12  2  0
 12 13  1  0
 13 14  2  0
 14  9  1  0
M  END

$$$$
No_1840-/dssg/home/sw_qyf/PocketFlow/Model-Generation-Results/5HT2A_7WC7_rec_A_10.pdb/2024-01-01-03-54-21/
     RDKit          3D

 25 28  0  0  0  0  0  0  0  0999 V2000
  -24.1553  -17.8465  145.7021 C   0  0  0  0  0  0  0  0  0  0  0  0
  -24.2856  -16.6364  145.3494 C   0  0  0  0  0  0  0  0  0  0  0  0
  -23.7824  -15.9602  144.3553 C   0  0  0  0  0  0  0  0  0  0  0  0
  -24.0538  -14.4894  144.2905 C   0  0  0  0  0  0  0  0  0  0  0  0
  -24.6859  -13.9584  145.2506 C   0  0  0  0  0  0  0  0  0  0  0  0
  -25.2468  -14.5867  146.3965 C   0  0  0  0  0  0  0  0  0  0  0  0
  -24.9504  -15.9390  146.4563 C   0  0  0  0  0  0  0  0  0  0  0  0
  -24.8770  -18.2720  146.8301 C   0  0  0  0  0  0  0  0  0  0  0  0
  -25.3400  -17.0496  147.3725 C   0  0  0  0  0  0  0  0  0  0  0  0
  -24.9185  -12.3853  145.2081 C   0  0  0  0  0  0  0  0  0  0  0  0
  -26.2633  -11.8567  145.3260 C   0  0  0  0  0  0  0  0  0  0  0  0
  -26.7916  -10.8190  144.6725 C   0  0  0  0  0  0  0  0  0  0  0  0
  -28.1934  -10.5287  144.6878 C   0  0  0  0  0  0  0  0  0  0  0  0
  -28.9866  -11.2636  145.6140 C   0  0  0  0  0  0  0  0  0  0  0  0
  -28.4266  -12.2721  146.3903 C   0  0  0  0  0  0  0  0  0  0  0  0
  -27.0511  -12.5596  146.2808 C   0  0  0  0  0  0  0  0  0  0  0  0
  -28.8392   -9.4813  143.8683 C   0  0  0  0  0  0  0  0  0  0  0  0
  -28.1413   -8.9140  142.8560 C   0  0  0  0  0  0  0  0  0  0  0  0
  -30.2673   -9.3990  143.8988 C   0  0  0  0  0  0  0  0  0  0  0  0
  -30.8974   -8.4168  143.1434 C   0  0  0  0  0  0  0  0  0  0  0  0
  -30.1594   -7.6818  142.2127 C   0  0  0  0  0  0  0  0  0  0  0  0
  -28.7881   -7.9410  142.0249 C   0  0  0  0  0  0  0  0  0  0  0  0
  -26.0902  -16.7652  148.6177 C   0  0  0  0  0  0  0  0  0  0  0  0
  -25.4949  -16.8987  149.7261 O   0  0  0  0  0  0  0  0  0  0  0  0
  -27.3215  -16.4022  148.5490 O   0  0  0  0  0  0  0  0  0  0  0  0
  1  2  1  0
  1  8  2  0
  7  9  1  0
  8  9  1  0
  5 10  1  0
 10 11  1  0
 13 17  1  0
  9 23  1  0
 23 24  1  0
 23 25  2  0
 11 12  2  0
 12 13  1  0
 13 14  2  0
 14 15  1  0
 15 16  2  0
 16 11  1  0
  2  3  2  0
  3  4  1  0
  4  5  2  0
  5  6  1  0
  6  7  2  0
  7  2  1  0
 17 18  2  0
 18 22  1  0
 22 21  2  0
 21 20  1  0
 20 19  2  0
 19 17  1  0
M  END

$$$$
No_1841-/dssg/home/sw_qyf/PocketFlow/Model-Generation-Results/5HT2A_7WC7_rec_A_10.pdb/2024-01-01-03-54-21/
     RDKit          3D

 20 20  0  0  0  0  0  0  0  0999 V2000
  -24.1553  -17.8465  145.7021 C   0  0  0  0  0  0  0  0  0  0  0  0
  -24.2855  -16.6364  145.3494 C   0  0  0  0  0  0  0  0  0  0  0  0
  -24.7838  -15.7223  145.8474 C   0  0  0  0  0  0  0  0  0  0  0  0
  -24.8736  -14.2869  145.3929 C   0  0  0  0  0  0  0  0  0  0  0  0
  -23.9241  -14.0298  144.3753 C   0  0  0  0  0  0  0  0  0  0  0  0
  -24.8183  -18.2201  146.9015 C   0  0  0  0  0  0  0  0  0  0  0  0
  -25.5286  -17.3057  147.6154 C   0  0  0  0  0  0  0  0  0  0  0  0
  -25.5602  -15.9626  147.1562 C   0  0  0  0  0  0  0  0  0  0  0  0
  -24.4959  -13.2304  146.5788 C   0  0  0  0  0  0  0  0  0  0  0  0
  -26.2997  -13.9400  145.0043 C   0  0  0  0  0  0  0  0  0  0  0  0
  -27.1438  -14.4735  144.9447 C   0  0  0  0  0  0  0  0  0  0  0  0
  -26.3514  -12.5224  144.4514 C   0  0  0  0  0  0  0  0  0  0  0  0
  -27.4320  -11.7601  145.0415 C   0  0  0  0  0  0  0  0  0  0  0  0
  -28.0072  -10.7577  144.2607 C   0  0  0  0  0  0  0  0  0  0  0  0
  -29.3676  -10.3412  144.4682 C   0  0  0  0  0  0  0  0  0  0  0  0
  -29.9560   -9.4329  143.7505 N   0  0  0  0  0  0  0  0  0  0  0  0
  -29.3723   -8.9493  142.6918 C   0  0  0  0  0  0  0  0  0  0  0  0
  -29.9343   -7.8240  142.0499 C   0  0  0  0  0  0  0  0  0  0  0  0
  -31.0406   -7.1574  142.5510 C   0  0  0  0  0  0  0  0  0  0  0  0
  -29.4988   -7.3316  140.7444 C   0  0  0  0  0  0  0  0  0  0  0  0
  3  4  1  0
  4  5  1  0
  4  9  1  0
  4 10  1  0
 10 11  1  0
 10 12  1  0
 12 13  1  0
 13 14  1  0
 14 15  2  3
 15 16  1  0
 16 17  1  0
 17 18  1  0
 18 19  1  0
 18 20  1  0
  1  2  2  0
  2  3  1  0
  3  8  2  0
  8  7  1  0
  7  6  2  0
  6  1  1  0
M  END

$$$$
No_1842-/dssg/home/sw_qyf/PocketFlow/Model-Generation-Results/5HT2A_7WC7_rec_A_10.pdb/2024-01-01-03-54-21/
     RDKit          3D

 32 35  0  0  0  0  0  0  0  0999 V2000
  -24.1553  -17.8465  145.7021 C   0  0  0  0  0  0  0  0  0  0  0  0
  -24.2856  -16.6364  145.3494 C   0  0  0  0  0  0  0  0  0  0  0  0
  -25.0033  -15.6772  146.0737 C   0  0  0  0  0  0  0  0  0  0  0  0
  -25.1197  -14.2835  145.7299 C   0  0  0  0  0  0  0  0  0  0  0  0
  -24.2707  -13.8793  144.6500 C   0  0  0  0  0  0  0  0  0  0  0  0
  -24.8686  -18.3355  146.8179 C   0  0  0  0  0  0  0  0  0  0  0  0
  -25.6154  -17.5363  147.5807 C   0  0  0  0  0  0  0  0  0  0  0  0
  -25.7525  -16.1597  147.2668 C   0  0  0  0  0  0  0  0  0  0  0  0
  -24.2176  -12.4904  144.4025 C   0  0  0  0  0  0  0  0  0  0  0  0
  -25.0858  -11.5947  145.1718 C   0  0  0  0  0  0  0  0  0  0  0  0
  -25.9186  -12.0890  146.2177 C   0  0  0  0  0  0  0  0  0  0  0  0
  -25.8474  -13.4151  146.5392 C   0  0  0  0  0  0  0  0  0  0  0  0
  -23.6354  -16.1972  144.2323 N   0  0  0  0  0  0  0  0  0  0  0  0
  -23.5673  -14.7918  143.9845 C   0  0  0  0  0  0  0  0  0  0  0  0
  -23.5198  -18.7745  144.9900 O   0  0  0  0  0  0  0  0  0  0  0  0
  -25.1067  -10.2716  144.8561 O   0  0  0  0  0  0  0  0  0  0  0  0
  -26.3020   -9.8421  144.3725 C   0  0  0  0  0  0  0  0  0  0  0  0
  -27.2344   -9.4763  144.8229 C   0  0  0  0  0  0  0  0  0  0  0  0
  -28.4907   -9.4896  144.0968 C   0  0  0  0  0  0  0  0  0  0  0  0
  -28.2579   -9.8879  142.8350 C   0  0  0  0  0  0  0  0  0  0  0  0
  -26.7746  -10.4227  143.0777 C   0  0  0  0  0  0  0  0  0  0  0  0
  -29.0267  -10.2498  141.7717 C   0  0  0  0  0  0  0  0  0  0  0  0
  -30.2873  -10.2600  142.0223 F   0  0  0  0  0  0  0  0  0  0  0  0
  -28.7178  -11.5532  141.2653 F   0  0  0  0  0  0  0  0  0  0  0  0
  -28.7100   -9.4196  140.7715 F   0  0  0  0  0  0  0  0  0  0  0  0
  -26.6992  -11.3035  146.9164 O   0  0  0  0  0  0  0  0  0  0  0  0
  -23.6508  -20.1154  145.5332 C   0  0  0  0  0  0  0  0  0  0  0  0
  -22.3816  -14.3826  143.6098 O   0  0  0  0  0  0  0  0  0  0  0  0
  -29.6362   -8.9078  144.4387 O   0  0  0  0  0  0  0  0  0  0  0  0
  -30.7051   -9.7505  144.6625 C   0  0  0  0  0  0  0  0  0  0  0  0
  -31.5134   -9.9796  143.7017 O   0  0  0  0  0  0  0  0  0  0  0  0
  -31.9283   -9.0180  142.8039 C   0  0  0  0  0  0  0  0  0  0  0  0
  3  4  1  0
  2 13  1  0
  5 14  1  0
 13 14  1  0
  1 15  1  0
 10 16  1  0
 16 17  1  0
 17 18  2  0
 18 19  1  0
 19 20  2  0
 17 21  1  0
 20 21  1  0
 20 22  1  0
 22 23  1  0
 22 24  1  0
 22 25  1  0
 11 26  1  0
 15 27  1  0
 14 28  2  0
 19 29  1  0
 29 30  1  0
 30 31  1  0
 31 32  1  0
  4 12  2  0
 12 11  1  0
 11 10  2  0
 10  9  1  0
  9  5  2  0
  5  4  1  0
  1  2  2  0
  2  3  1  0
  3  8  2  0
  8  7  1  0
  7  6  2  0
  6  1  1  0
M  END

$$$$
No_1843-/dssg/home/sw_qyf/PocketFlow/Model-Generation-Results/5HT2A_7WC7_rec_A_10.pdb/2024-01-01-03-54-21/
     RDKit          3D

 15 16  0  0  0  0  0  0  0  0999 V2000
  -23.1746  -16.6014  144.8668 C   0  0  0  0  0  0  0  0  0  0  0  0
  -24.0189  -16.0564  145.8445 C   0  0  0  0  0  0  0  0  0  0  0  0
  -24.4145  -16.8299  146.9062 C   0  0  0  0  0  0  0  0  0  0  0  0
  -23.9612  -18.1384  147.0126 C   0  0  0  0  0  0  0  0  0  0  0  0
  -23.1429  -18.6221  146.0418 C   0  0  0  0  0  0  0  0  0  0  0  0
  -22.8095  -17.8231  145.0610 N   0  0  0  0  0  0  0  0  0  0  0  0
  -24.5719  -14.6427  145.6756 C   0  0  0  0  0  0  0  0  0  0  0  0
  -25.4662  -14.0927  146.6142 C   0  0  0  0  0  0  0  0  0  0  0  0
  -25.9187  -12.7544  146.5695 C   0  0  0  0  0  0  0  0  0  0  0  0
  -25.5106  -11.9483  145.4146 C   0  0  0  0  0  0  0  0  0  0  0  0
  -24.5946  -12.5143  144.5739 C   0  0  0  0  0  0  0  0  0  0  0  0
  -24.0931  -13.8011  144.6445 C   0  0  0  0  0  0  0  0  0  0  0  0
  -25.8966  -10.7044  145.3646 F   0  0  0  0  0  0  0  0  0  0  0  0
  -22.8349  -15.9545  143.8927 O   0  0  0  0  0  0  0  0  0  0  0  0
  -25.3029  -16.3408  148.1019 C   0  0  0  0  0  0  0  0  0  0  0  0
  1  2  1  0
  3  4  1  0
  1  6  1  0
  2  7  1  0
 10 13  1  0
  1 14  2  0
  3 15  1  0
  2  3  1  0
  4  5  1  0
  5  6  1  0
  7  8  2  0
  8  9  1  0
  9 10  2  0
 10 11  1  0
 11 12  2  0
 12  7  1  0
M  END

$$$$
No_1844-/dssg/home/sw_qyf/PocketFlow/Model-Generation-Results/5HT2A_7WC7_rec_A_10.pdb/2024-01-01-03-54-21/
     RDKit          3D

 14 15  0  0  0  0  0  0  0  0999 V2000
  -24.1553  -17.8465  145.7021 C   0  0  0  0  0  0  0  0  0  0  0  0
  -23.9795  -18.4462  146.7426 C   0  0  0  0  0  0  0  0  0  0  0  0
  -25.1593  -16.8262  145.6925 C   0  0  0  0  0  0  0  0  0  0  0  0
  -26.3426  -16.9003  146.3448 C   0  0  0  0  0  0  0  0  0  0  0  0
  -24.9078  -18.3640  147.8289 C   0  0  0  0  0  0  0  0  0  0  0  0
  -26.0312  -17.5122  147.7122 C   0  0  0  0  0  0  0  0  0  0  0  0
  -27.4996  -16.1150  146.1993 C   0  0  0  0  0  0  0  0  0  0  0  0
  -27.8220  -14.9877  146.4484 C   0  0  0  0  0  0  0  0  0  0  0  0
  -28.5163  -14.0489  146.5788 C   0  0  0  0  0  0  0  0  0  0  0  0
  -29.7111  -13.7435  147.3280 C   0  0  0  0  0  0  0  0  0  0  0  0
  -30.2559  -12.4941  147.5458 C   0  0  0  0  0  0  0  0  0  0  0  0
  -29.6836  -11.4276  146.7059 C   0  0  0  0  0  0  0  0  0  0  0  0
  -28.6072  -11.5969  145.8827 C   0  0  0  0  0  0  0  0  0  0  0  0
  -28.0211  -12.8899  145.8478 C   0  0  0  0  0  0  0  0  0  0  0  0
  4  7  1  0
  7  8  2  3
  8  9  1  0
  9 10  2  0
 10 11  1  0
 11 12  2  0
 12 13  1  0
 13 14  2  0
 14  9  1  0
  1  2  2  0
  2  5  1  0
  5  6  2  0
  6  4  1  0
  4  3  2  0
  3  1  1  0
M  END

$$$$
No_1845-/dssg/home/sw_qyf/PocketFlow/Model-Generation-Results/5HT2A_7WC7_rec_A_10.pdb/2024-01-01-03-54-21/
     RDKit          3D

 35 39  0  0  0  0  0  0  0  0999 V2000
  -24.1553  -17.8465  145.7021 C   0  0  0  0  0  0  0  0  0  0  0  0
  -23.9795  -18.4462  146.7426 C   0  0  0  0  0  0  0  0  0  0  0  0
  -24.2723  -16.4220  145.8037 C   0  0  0  0  0  0  0  0  0  0  0  0
  -24.0151  -15.5895  144.6874 C   0  0  0  0  0  0  0  0  0  0  0  0
  -24.2323  -14.1482  144.8444 C   0  0  0  0  0  0  0  0  0  0  0  0
  -24.6315  -13.6236  146.0491 C   0  0  0  0  0  0  0  0  0  0  0  0
  -25.6524  -13.4236  146.3023 C   0  0  0  0  0  0  0  0  0  0  0  0
  -24.1112  -17.9821  148.1085 C   0  0  0  0  0  0  0  0  0  0  0  0
  -24.2717  -16.5428  148.1832 C   0  0  0  0  0  0  0  0  0  0  0  0
  -24.2838  -15.8078  147.1275 C   0  0  0  0  0  0  0  0  0  0  0  0
  -26.3136  -12.2655  145.6583 C   0  0  0  0  0  0  0  0  0  0  0  0
  -27.7936  -12.1961  145.6995 C   0  0  0  0  0  0  0  0  0  0  0  0
  -28.3630  -11.4362  145.1761 C   0  0  0  0  0  0  0  0  0  0  0  0
  -27.9166  -10.5914  144.1696 C   0  0  0  0  0  0  0  0  0  0  0  0
  -26.4476  -10.5528  144.1357 C   0  0  0  0  0  0  0  0  0  0  0  0
  -25.7091  -11.3698  144.8853 C   0  0  0  0  0  0  0  0  0  0  0  0
  -28.6414   -9.5595  143.4423 C   0  0  0  0  0  0  0  0  0  0  0  0
  -29.9999   -9.4857  143.5028 C   0  0  0  0  0  0  0  0  0  0  0  0
  -30.7125   -8.5106  142.8458 C   0  0  0  0  0  0  0  0  0  0  0  0
  -30.0458   -7.6486  141.9742 C   0  0  0  0  0  0  0  0  0  0  0  0
  -28.7750   -7.8714  141.5993 C   0  0  0  0  0  0  0  0  0  0  0  0
  -28.0746   -8.8451  142.3760 C   0  0  0  0  0  0  0  0  0  0  0  0
  -32.0435   -8.3861  143.1285 O   0  0  0  0  0  0  0  0  0  0  0  0
  -24.4318  -14.4136  147.2036 N   0  0  0  0  0  0  0  0  0  0  0  0
  -24.0106  -13.4266  143.8135 O   0  0  0  0  0  0  0  0  0  0  0  0
  -23.6528  -16.0489  143.6086 O   0  0  0  0  0  0  0  0  0  0  0  0
  -30.1676  -11.4470  145.2747 Cl  0  0  0  0  0  0  0  0  0  0  0  0
  -28.3685  -13.1126  146.6227 O   0  0  0  0  0  0  0  0  0  0  0  0
  -28.3627  -14.4542  146.4068 C   0  0  0  0  0  0  0  0  0  0  0  0
  -28.8501  -15.3090  147.5728 C   0  0  0  0  0  0  0  0  0  0  0  0
  -29.7047  -14.6778  148.4772 C   0  0  0  0  0  0  0  0  0  0  0  0
  -30.2432  -15.3704  149.5580 C   0  0  0  0  0  0  0  0  0  0  0  0
  -29.7302  -16.7275  149.7128 C   0  0  0  0  0  0  0  0  0  0  0  0
  -28.7440  -17.1937  148.9751 C   0  0  0  0  0  0  0  0  0  0  0  0
  -28.2741  -16.4681  147.8694 C   0  0  0  0  0  0  0  0  0  0  0  0
  3  4  1  0
  4  5  1  0
  5  6  1  0
  6  7  2  3
  7 11  1  0
 14 17  1  0
 19 23  1  0
  6 24  1  0
 10 24  1  0
  5 25  1  0
  4 26  2  0
 13 27  1  0
 12 28  1  0
 28 29  1  0
 29 30  1  0
  1  2  2  0
  2  8  1  0
  8  9  2  0
  9 10  1  0
 10  3  2  0
  3  1  1  0
 30 31  2  0
 31 32  1  0
 32 33  2  0
 33 34  1  0
 34 35  2  0
 35 30  1  0
 11 12  1  0
 12 13  2  0
 13 14  1  0
 14 15  2  0
 15 16  1  0
 16 11  2  0
 17 18  2  0
 18 19  1  0
 19 20  2  0
 20 21  1  0
 21 22  2  0
 22 17  1  0
M  END

$$$$
No_1846-/dssg/home/sw_qyf/PocketFlow/Model-Generation-Results/5HT2A_7WC7_rec_A_10.pdb/2024-01-01-03-54-21/
     RDKit          3D

  7  7  0  0  0  0  0  0  0  0999 V2000
  -24.1553  -17.8465  145.7021 C   0  0  0  0  0  0  0  0  0  0  0  0
  -24.6364  -17.2931  146.7091 C   0  0  0  0  0  0  0  0  0  0  0  0
  -24.5709  -15.9334  146.8074 C   0  0  0  0  0  0  0  0  0  0  0  0
  -24.2379  -15.1233  145.7159 C   0  0  0  0  0  0  0  0  0  0  0  0
  -23.7252  -15.7878  144.6028 C   0  0  0  0  0  0  0  0  0  0  0  0
  -23.7316  -17.0968  144.6427 N   0  0  0  0  0  0  0  0  0  0  0  0
  -24.0429  -19.2100  145.5627 N   0  0  0  0  0  0  0  0  0  0  0  0
  1  7  1  0
  1  2  2  0
  2  3  1  0
  3  4  2  0
  4  5  1  0
  5  6  2  0
  6  1  1  0
M  END

$$$$
No_1847-/dssg/home/sw_qyf/PocketFlow/Model-Generation-Results/5HT2A_7WC7_rec_A_10.pdb/2024-01-01-03-54-21/
     RDKit          3D

 17 19  0  0  0  0  0  0  0  0999 V2000
  -24.1553  -17.8465  145.7021 C   0  0  0  0  0  0  0  0  0  0  0  0
  -24.6364  -17.2931  146.7091 C   0  0  0  0  0  0  0  0  0  0  0  0
  -24.5709  -15.9334  146.8074 C   0  0  0  0  0  0  0  0  0  0  0  0
  -25.1834  -15.1616  147.9419 C   0  0  0  0  0  0  0  0  0  0  0  0
  -23.6361  -17.1348  144.5597 C   0  0  0  0  0  0  0  0  0  0  0  0
  -23.7332  -15.7649  144.6149 C   0  0  0  0  0  0  0  0  0  0  0  0
  -24.1973  -15.1293  145.7929 C   0  0  0  0  0  0  0  0  0  0  0  0
  -24.2398  -13.6108  145.7747 C   0  0  0  0  0  0  0  0  0  0  0  0
  -23.1774  -12.9375  145.3923 C   0  0  0  0  0  0  0  0  0  0  0  0
  -25.4069  -12.9683  146.2481 C   0  0  0  0  0  0  0  0  0  0  0  0
  -26.3291  -13.6269  147.0730 C   0  0  0  0  0  0  0  0  0  0  0  0
  -26.2322  -14.6248  147.9371 N   0  0  0  0  0  0  0  0  0  0  0  0
  -25.5087  -11.6009  145.8675 C   0  0  0  0  0  0  0  0  0  0  0  0
  -24.9728  -11.0860  144.7360 C   0  0  0  0  0  0  0  0  0  0  0  0
  -23.6233  -11.6709  144.5522 C   0  0  0  0  0  0  0  0  0  0  0  0
  -24.0212  -19.5824  145.5706 Cl  0  0  0  0  0  0  0  0  0  0  0  0
  -27.6432  -13.1213  146.9119 O   0  0  0  0  0  0  0  0  0  0  0  0
  3  4  1  0
  7  8  1  0
 10 11  1  0
  4 12  1  0
 11 12  1  0
  1 16  1  0
 11 17  2  0
  1  2  2  0
  2  3  1  0
  3  7  2  0
  7  6  1  0
  6  5  2  0
  5  1  1  0
  8  9  2  0
  9 15  1  0
 15 14  2  0
 14 13  1  0
 13 10  2  0
 10  8  1  0
M  END

$$$$
No_1848-/dssg/home/sw_qyf/PocketFlow/Model-Generation-Results/5HT2A_7WC7_rec_A_10.pdb/2024-01-01-03-54-21/
     RDKit          3D

 35 38  0  0  0  0  0  0  0  0999 V2000
  -23.8931  -18.2534  145.3804 F   0  0  0  0  0  0  0  0  0  0  0  0
  -24.1483  -17.4442  146.3400 C   0  0  0  0  0  0  0  0  0  0  0  0
  -25.3399  -16.8410  146.2954 C   0  0  0  0  0  0  0  0  0  0  0  0
  -26.3483  -16.9644  147.1783 C   0  0  0  0  0  0  0  0  0  0  0  0
  -27.6451  -16.2653  146.9757 C   0  0  0  0  0  0  0  0  0  0  0  0
  -27.5643  -15.2275  146.2005 C   0  0  0  0  0  0  0  0  0  0  0  0
  -26.5198  -14.8721  145.4023 C   0  0  0  0  0  0  0  0  0  0  0  0
  -26.4737  -13.7782  144.4925 C   0  0  0  0  0  0  0  0  0  0  0  0
  -25.3368  -15.7476  145.4411 C   0  0  0  0  0  0  0  0  0  0  0  0
  -23.0154  -16.6709  146.5924 F   0  0  0  0  0  0  0  0  0  0  0  0
  -26.2922  -13.8842  142.8511 Cl  0  0  0  0  0  0  0  0  0  0  0  0
  -24.1244  -18.4267  147.4576 F   0  0  0  0  0  0  0  0  0  0  0  0
  -26.7890  -12.3872  144.9689 C   0  0  0  0  0  0  0  0  0  0  0  0
  -27.4877  -11.5244  144.2733 C   0  0  0  0  0  0  0  0  0  0  0  0
  -28.8442  -11.2283  144.6757 C   0  0  0  0  0  0  0  0  0  0  0  0
  -29.5462  -10.2109  143.9680 C   0  0  0  0  0  0  0  0  0  0  0  0
  -29.5215  -10.0821  142.8622 C   0  0  0  0  0  0  0  0  0  0  0  0
  -28.2796  -10.5634  142.0922 C   0  0  0  0  0  0  0  0  0  0  0  0
  -27.4213  -11.3546  142.8134 C   0  0  0  0  0  0  0  0  0  0  0  0
  -28.0878  -10.3175  140.7054 C   0  0  0  0  0  0  0  0  0  0  0  0
  -27.5357  -11.2085  139.8477 C   0  0  0  0  0  0  0  0  0  0  0  0
  -27.4476  -10.9491  138.5136 C   0  0  0  0  0  0  0  0  0  0  0  0
  -28.0792   -9.8105  138.0470 C   0  0  0  0  0  0  0  0  0  0  0  0
  -28.1390   -9.4001  136.7393 C   0  0  0  0  0  0  0  0  0  0  0  0
  -28.6273   -9.1268  140.0982 C   0  0  0  0  0  0  0  0  0  0  0  0
  -28.6152   -8.8171  138.8841 C   0  0  0  0  0  0  0  0  0  0  0  0
  -29.1368  -11.7797  145.8231 F   0  0  0  0  0  0  0  0  0  0  0  0
  -29.7369   -9.3804  136.3610 Cl  0  0  0  0  0  0  0  0  0  0  0  0
  -30.7355   -9.7946  144.7384 O   0  0  0  0  0  0  0  0  0  0  0  0
  -28.7472  -16.5024  147.9380 C   0  0  0  0  0  0  0  0  0  0  0  0
  -29.6665  -15.4019  148.1964 C   0  0  0  0  0  0  0  0  0  0  0  0
  -29.8137  -14.3361  147.2889 C   0  0  0  0  0  0  0  0  0  0  0  0
  -28.6335  -14.1451  146.3711 C   0  0  0  0  0  0  0  0  0  0  0  0
  -30.3075   -9.1375  142.2960 O   0  0  0  0  0  0  0  0  0  0  0  0
  -30.4910   -7.8687  142.6943 C   0  0  0  0  0  0  0  0  0  0  0  0
  1  2  1  0
  2  3  1  0
  7  8  1  0
  2 10  1  0
  8 11  1  0
  2 12  1  0
  8 13  1  0
 13 14  1  0
 18 20  1  0
 23 24  1  0
 15 27  1  0
 24 28  1  0
 16 29  1  0
 17 34  1  0
 34 35  1  0
  6 33  2  0
 33 32  1  0
 32 31  2  0
 31 30  1  0
 30  5  2  0
 20 21  2  0
 21 22  1  0
 22 23  2  0
 23 26  1  0
 26 25  2  0
 25 20  1  0
  3  4  2  0
  4  5  1  0
  5  6  1  0
  6  7  1  0
  7  9  2  0
  9  3  1  0
 14 15  2  0
 15 16  1  0
 16 17  2  0
 17 18  1  0
 18 19  2  0
 19 14  1  0
M  END

$$$$
No_1849-/dssg/home/sw_qyf/PocketFlow/Model-Generation-Results/5HT2A_7WC7_rec_A_10.pdb/2024-01-01-03-54-21/
     RDKit          3D

 35 38  0  0  0  0  0  0  0  0999 V2000
  -24.1553  -17.8465  145.7021 C   0  0  0  0  0  0  0  0  0  0  0  0
  -24.2856  -16.6364  145.3494 C   0  0  0  0  0  0  0  0  0  0  0  0
  -24.7211  -15.5955  146.2115 C   0  0  0  0  0  0  0  0  0  0  0  0
  -24.8539  -14.2010  145.8739 C   0  0  0  0  0  0  0  0  0  0  0  0
  -24.1440  -13.8321  144.7074 C   0  0  0  0  0  0  0  0  0  0  0  0
  -24.0490  -12.4548  144.4544 C   0  0  0  0  0  0  0  0  0  0  0  0
  -24.6003  -18.2723  146.9629 C   0  0  0  0  0  0  0  0  0  0  0  0
  -25.1207  -17.3974  147.9208 C   0  0  0  0  0  0  0  0  0  0  0  0
  -25.1930  -15.9997  147.5614 C   0  0  0  0  0  0  0  0  0  0  0  0
  -24.5861  -11.7172  145.4532 C   0  0  0  0  0  0  0  0  0  0  0  0
  -25.1457  -12.9955  146.6320 C   0  0  0  0  0  0  0  0  0  0  0  0
  -23.7007  -14.6424  143.7980 O   0  0  0  0  0  0  0  0  0  0  0  0
  -25.4962  -17.7913  149.5627 Cl  0  0  0  0  0  0  0  0  0  0  0  0
  -23.6888  -19.1209  144.6507 Cl  0  0  0  0  0  0  0  0  0  0  0  0
  -25.9489  -11.0068  145.0984 C   0  0  0  0  0  0  0  0  0  0  0  0
  -27.1578  -11.3982  145.6949 C   0  0  0  0  0  0  0  0  0  0  0  0
  -28.3880  -10.9800  145.1514 C   0  0  0  0  0  0  0  0  0  0  0  0
  -28.3332  -10.2936  143.9810 C   0  0  0  0  0  0  0  0  0  0  0  0
  -29.5204   -9.7652  143.4066 C   0  0  0  0  0  0  0  0  0  0  0  0
  -29.5825   -9.4135  142.0838 C   0  0  0  0  0  0  0  0  0  0  0  0
  -28.7213  -10.0479  141.1512 C   0  0  0  0  0  0  0  0  0  0  0  0
  -28.7159   -9.7710  139.7949 C   0  0  0  0  0  0  0  0  0  0  0  0
  -27.6898  -10.3818  139.0012 C   0  0  0  0  0  0  0  0  0  0  0  0
  -27.2154  -11.5678  139.5430 C   0  0  0  0  0  0  0  0  0  0  0  0
  -27.4823  -12.1121  140.7888 C   0  0  0  0  0  0  0  0  0  0  0  0
  -28.3029  -11.3283  141.6475 C   0  0  0  0  0  0  0  0  0  0  0  0
  -30.4582   -8.3691  141.6466 C   0  0  0  0  0  0  0  0  0  0  0  0
  -26.5411  -12.2462  138.4888 O   0  0  0  0  0  0  0  0  0  0  0  0
  -25.9969  -10.0198  144.1319 C   0  0  0  0  0  0  0  0  0  0  0  0
  -27.1250   -9.7657  143.5191 C   0  0  0  0  0  0  0  0  0  0  0  0
  -31.7502   -8.5277  141.8522 O   0  0  0  0  0  0  0  0  0  0  0  0
  -30.0490   -7.3788  140.9748 O   0  0  0  0  0  0  0  0  0  0  0  0
  -29.4916  -11.4301  145.6529 F   0  0  0  0  0  0  0  0  0  0  0  0
  -26.8845  -13.4024  141.1715 C   0  0  0  0  0  0  0  0  0  0  0  0
  -26.0688  -13.4825  142.0676 O   0  0  0  0  0  0  0  0  0  0  0  0
  3  4  1  0
  4  5  1  0
  5  6  2  0
  6 10  1  0
  4 11  1  0
 10 11  1  0
  5 12  1  0
  8 13  1  0
  1 14  1  0
 10 15  1  0
 19 20  1  0
 20 27  1  0
 24 28  1  0
 27 31  1  0
 27 32  2  0
 17 33  1  0
 25 34  1  0
 34 35  1  0
 19 18  1  0
 20 21  1  0
  1  2  2  0
  2  3  1  0
  3  9  2  0
  9  8  1  0
  8  7  2  0
  7  1  1  0
 15 16  2  0
 16 17  1  0
 17 18  2  0
 18 30  1  0
 30 29  2  0
 29 15  1  0
 21 22  2  0
 22 23  1  0
 23 24  2  0
 24 25  1  0
 25 26  2  0
 26 21  1  0
M  END

$$$$
No_1850-/dssg/home/sw_qyf/PocketFlow/Model-Generation-Results/5HT2A_7WC7_rec_A_10.pdb/2024-01-01-03-54-21/
     RDKit          3D

 32 34  0  0  0  0  0  0  0  0999 V2000
  -24.0934  -18.1020  145.4883 Cl  0  0  0  0  0  0  0  0  0  0  0  0
  -24.7987  -17.2332  146.6783 C   0  0  0  0  0  0  0  0  0  0  0  0
  -26.0500  -16.6536  146.4164 C   0  0  0  0  0  0  0  0  0  0  0  0
  -26.7980  -16.1640  147.3961 C   0  0  0  0  0  0  0  0  0  0  0  0
  -26.3323  -16.3004  148.7540 C   0  0  0  0  0  0  0  0  0  0  0  0
  -25.1218  -16.8901  149.0590 C   0  0  0  0  0  0  0  0  0  0  0  0
  -24.3364  -17.3775  147.9929 C   0  0  0  0  0  0  0  0  0  0  0  0
  -28.1934  -15.5798  147.2633 C   0  0  0  0  0  0  0  0  0  0  0  0
  -28.3345  -14.4770  146.4362 C   0  0  0  0  0  0  0  0  0  0  0  0
  -29.2575  -13.4204  146.7656 C   0  0  0  0  0  0  0  0  0  0  0  0
  -29.2084  -12.1264  146.1757 C   0  0  0  0  0  0  0  0  0  0  0  0
  -28.3437  -11.8303  145.1350 C   0  0  0  0  0  0  0  0  0  0  0  0
  -27.4021  -12.9102  144.8253 C   0  0  0  0  0  0  0  0  0  0  0  0
  -27.3279  -14.0979  145.4926 C   0  0  0  0  0  0  0  0  0  0  0  0
  -28.3740  -10.5894  144.4131 C   0  0  0  0  0  0  0  0  0  0  0  0
  -28.2822   -9.5180  144.8580 N   0  0  0  0  0  0  0  0  0  0  0  0
  -28.5988  -10.7073  142.9494 C   0  0  0  0  0  0  0  0  0  0  0  0
  -29.2932   -9.6979  142.3396 C   0  0  0  0  0  0  0  0  0  0  0  0
  -28.8959   -9.4686  141.0444 C   0  0  0  0  0  0  0  0  0  0  0  0
  -29.2474   -8.2451  140.3157 C   0  0  0  0  0  0  0  0  0  0  0  0
  -30.1429   -7.4058  141.0725 C   0  0  0  0  0  0  0  0  0  0  0  0
  -30.6137   -7.7361  142.3447 C   0  0  0  0  0  0  0  0  0  0  0  0
  -30.1723   -8.8460  143.0023 C   0  0  0  0  0  0  0  0  0  0  0  0
  -28.7518   -8.0195  139.0418 C   0  0  0  0  0  0  0  0  0  0  0  0
  -27.8224   -8.8612  138.4263 C   0  0  0  0  0  0  0  0  0  0  0  0
  -27.5911   -8.6683  137.0875 C   0  0  0  0  0  0  0  0  0  0  0  0
  -28.8949   -8.4979  136.5705 C   0  0  0  0  0  0  0  0  0  0  0  0
  -29.0385   -8.9270  135.4035 N   0  0  0  0  0  0  0  0  0  0  0  0
  -30.1749  -11.2488  146.5556 O   0  0  0  0  0  0  0  0  0  0  0  0
  -29.9232   -8.1440  137.2390 F   0  0  0  0  0  0  0  0  0  0  0  0
  -29.9845   -7.9121  138.2303 O   0  0  0  0  0  0  0  0  0  0  0  0
  -31.2060   -7.4719  138.7266 C   0  0  0  0  0  0  0  0  0  0  0  0
  1  2  1  0
  4  8  1  0
  8  9  1  0
 12 15  1  0
 15 16  1  0
 15 17  1  0
 17 18  1  0
 20 24  1  0
 24 25  2  3
 25 26  1  0
 26 27  1  0
 27 28  1  0
 11 29  1  0
 27 30  1  0
 24 31  1  0
 31 32  1  0
 18 19  2  0
 19 20  1  0
 20 21  2  0
 21 22  1  0
 22 23  2  0
 23 18  1  0
  2  3  2  0
  3  4  1  0
  4  5  2  0
  5  6  1  0
  6  7  2  0
  7  2  1  0
  9 10  2  0
 10 11  1  0
 11 12  2  0
 12 13  1  0
 13 14  2  0
 14  9  1  0
M  END

$$$$
No_1851-/dssg/home/sw_qyf/PocketFlow/Model-Generation-Results/5HT2A_7WC7_rec_A_10.pdb/2024-01-01-03-54-21/
     RDKit          3D

 12 12  0  0  0  0  0  0  0  0999 V2000
  -23.1746  -16.6014  144.8668 C   0  0  0  0  0  0  0  0  0  0  0  0
  -23.7011  -17.0158  145.9774 C   0  0  0  0  0  0  0  0  0  0  0  0
  -23.7336  -18.2775  146.3737 C   0  0  0  0  0  0  0  0  0  0  0  0
  -24.1960  -18.6445  147.6858 C   0  0  0  0  0  0  0  0  0  0  0  0
  -24.7100  -17.6145  148.5486 C   0  0  0  0  0  0  0  0  0  0  0  0
  -24.7929  -16.2635  148.0870 C   0  0  0  0  0  0  0  0  0  0  0  0
  -24.2508  -15.9434  146.8891 C   0  0  0  0  0  0  0  0  0  0  0  0
  -22.9131  -15.3694  144.6484 O   0  0  0  0  0  0  0  0  0  0  0  0
  -23.8814  -14.3539  144.5093 C   0  0  0  0  0  0  0  0  0  0  0  0
  -24.9186  -14.2909  144.3842 C   0  0  0  0  0  0  0  0  0  0  0  0
  -25.8043  -13.1990  144.2848 C   0  0  0  0  0  0  0  0  0  0  0  0
  -27.1013  -13.3600  143.6840 C   0  0  0  0  0  0  0  0  0  0  0  0
  1  2  1  0
  1  8  1  0
  8  9  1  0
  9 10  2  3
 10 11  1  0
 11 12  1  0
  2  3  2  0
  3  4  1  0
  4  5  2  0
  5  6  1  0
  6  7  2  0
  7  2  1  0
M  END

$$$$
No_1852-/dssg/home/sw_qyf/PocketFlow/Model-Generation-Results/5HT2A_7WC7_rec_A_10.pdb/2024-01-01-03-54-21/
     RDKit          3D

 35 37  0  0  0  0  0  0  0  0999 V2000
  -23.1746  -16.6014  144.8668 C   0  0  0  0  0  0  0  0  0  0  0  0
  -23.8963  -15.5346  144.7885 C   0  0  0  0  0  0  0  0  0  0  0  0
  -24.5755  -15.0383  145.9043 C   0  0  0  0  0  0  0  0  0  0  0  0
  -25.3266  -13.7882  145.9354 C   0  0  0  0  0  0  0  0  0  0  0  0
  -23.3054  -17.4824  145.9484 C   0  0  0  0  0  0  0  0  0  0  0  0
  -23.9716  -17.0786  147.1155 C   0  0  0  0  0  0  0  0  0  0  0  0
  -24.6279  -15.8542  147.1153 C   0  0  0  0  0  0  0  0  0  0  0  0
  -26.3311  -13.4629  146.0853 C   0  0  0  0  0  0  0  0  0  0  0  0
  -26.9402  -12.1013  146.0943 C   0  0  0  0  0  0  0  0  0  0  0  0
  -26.0743  -11.1015  145.6433 C   0  0  0  0  0  0  0  0  0  0  0  0
  -24.6901  -11.4366  145.4319 C   0  0  0  0  0  0  0  0  0  0  0  0
  -24.2505  -12.6802  145.5401 C   0  0  0  0  0  0  0  0  0  0  0  0
  -28.3816  -11.8548  146.2990 C   0  0  0  0  0  0  0  0  0  0  0  0
  -28.8790  -12.4266  147.3295 F   0  0  0  0  0  0  0  0  0  0  0  0
  -29.4537  -12.0745  144.8999 Cl  0  0  0  0  0  0  0  0  0  0  0  0
  -23.9745  -18.0073  148.5651 Cl  0  0  0  0  0  0  0  0  0  0  0  0
  -22.9927  -12.9642  145.2713 O   0  0  0  0  0  0  0  0  0  0  0  0
  -22.3274  -11.8758  144.6357 C   0  0  0  0  0  0  0  0  0  0  0  0
  -22.5188  -19.0127  146.0726 Cl  0  0  0  0  0  0  0  0  0  0  0  0
  -23.8503  -14.7696  143.7699 O   0  0  0  0  0  0  0  0  0  0  0  0
  -26.4850   -9.8327  145.5339 O   0  0  0  0  0  0  0  0  0  0  0  0
  -27.1976   -9.5550  144.3890 C   0  0  0  0  0  0  0  0  0  0  0  0
  -28.1169   -8.5311  144.4127 C   0  0  0  0  0  0  0  0  0  0  0  0
  -28.8471   -8.1728  143.2704 C   0  0  0  0  0  0  0  0  0  0  0  0
  -28.8246   -9.0570  142.1476 C   0  0  0  0  0  0  0  0  0  0  0  0
  -29.5300   -8.7368  140.9475 C   0  0  0  0  0  0  0  0  0  0  0  0
  -30.2039   -7.5203  140.9423 C   0  0  0  0  0  0  0  0  0  0  0  0
  -30.3091   -6.7295  142.0597 C   0  0  0  0  0  0  0  0  0  0  0  0
  -29.5512   -7.0344  143.1998 C   0  0  0  0  0  0  0  0  0  0  0  0
  -26.9145  -10.2187  143.3550 O   0  0  0  0  0  0  0  0  0  0  0  0
  -29.2959   -9.4080  139.7153 C   0  0  0  0  0  0  0  0  0  0  0  0
  -28.2551  -10.4496  139.8320 C   0  0  0  0  0  0  0  0  0  0  0  0
  -27.8258  -11.1259  138.7025 C   0  0  0  0  0  0  0  0  0  0  0  0
  -26.8696  -12.1883  139.0466 C   0  0  0  0  0  0  0  0  0  0  0  0
  -27.1947  -13.2230  140.0311 C   0  0  0  0  0  0  0  0  0  0  0  0
  3  4  1  0
  9 13  1  0
 13 14  1  0
 13 15  1  0
  6 16  1  0
 12 17  1  0
 17 18  1  0
  5 19  1  0
  2 20  1  0
 10 21  1  0
 21 22  1  0
 22 23  1  0
 22 30  2  0
 26 31  1  0
 31 32  2  3
 32 33  1  0
 33 34  2  3
 34 35  1  0
 23 24  1  0
  4  8  2  0
  8  9  1  0
  9 10  2  0
 10 11  1  0
 11 12  2  0
 12  4  1  0
  1  2  2  0
  2  3  1  0
  3  7  2  0
  7  6  1  0
  6  5  2  0
  5  1  1  0
 24 25  2  0
 25 26  1  0
 26 27  2  0
 27 28  1  0
 28 29  2  0
 29 24  1  0
M  END

$$$$
No_1853-/dssg/home/sw_qyf/PocketFlow/Model-Generation-Results/5HT2A_7WC7_rec_A_10.pdb/2024-01-01-03-54-21/
     RDKit          3D

 26 29  0  0  0  0  0  0  0  0999 V2000
  -23.1746  -16.6014  144.8668 C   0  0  0  0  0  0  0  0  0  0  0  0
  -24.0189  -16.0564  145.8445 C   0  0  0  0  0  0  0  0  0  0  0  0
  -24.4850  -14.7380  145.6359 C   0  0  0  0  0  0  0  0  0  0  0  0
  -24.0244  -13.9858  144.5634 C   0  0  0  0  0  0  0  0  0  0  0  0
  -23.0496  -14.4896  143.8433 N   0  0  0  0  0  0  0  0  0  0  0  0
  -22.6623  -15.7287  143.9596 C   0  0  0  0  0  0  0  0  0  0  0  0
  -24.5681  -16.9294  146.9143 C   0  0  0  0  0  0  0  0  0  0  0  0
  -25.3224  -16.3408  147.8738 C   0  0  0  0  0  0  0  0  0  0  0  0
  -25.8466  -14.9917  147.6622 C   0  0  0  0  0  0  0  0  0  0  0  0
  -25.3802  -14.1927  146.6653 C   0  0  0  0  0  0  0  0  0  0  0  0
  -24.3465  -12.7171  144.5441 O   0  0  0  0  0  0  0  0  0  0  0  0
  -24.1339  -18.2728  147.0464 C   0  0  0  0  0  0  0  0  0  0  0  0
  -23.6420  -18.9199  146.0350 C   0  0  0  0  0  0  0  0  0  0  0  0
  -23.0407  -18.1554  144.9276 C   0  0  0  0  0  0  0  0  0  0  0  0
  -25.8362  -12.8197  146.5847 C   0  0  0  0  0  0  0  0  0  0  0  0
  -26.9282  -12.3014  147.0069 C   0  0  0  0  0  0  0  0  0  0  0  0
  -24.6996  -11.8402  146.6755 C   0  0  0  0  0  0  0  0  0  0  0  0
  -27.7870  -11.6982  145.9400 C   0  0  0  0  0  0  0  0  0  0  0  0
  -29.1931  -11.5497  146.1412 C   0  0  0  0  0  0  0  0  0  0  0  0
  -29.8065  -10.7346  145.2318 N   0  0  0  0  0  0  0  0  0  0  0  0
  -29.2018  -10.2906  144.1222 C   0  0  0  0  0  0  0  0  0  0  0  0
  -29.9025   -9.3945  143.2669 C   0  0  0  0  0  0  0  0  0  0  0  0
  -31.1173   -8.9334  143.5594 C   0  0  0  0  0  0  0  0  0  0  0  0
  -27.2777  -11.0604  144.7850 C   0  0  0  0  0  0  0  0  0  0  0  0
  -27.8483  -10.3851  143.9349 C   0  0  0  0  0  0  0  0  0  0  0  0
  -31.8669   -8.0871  142.7290 C   0  0  0  0  0  0  0  0  0  0  0  0
  3  4  1  0
  4  5  1  0
  1  6  1  0
  4 11  2  0
 10 15  1  0
 15 16  1  0
 15 17  1  0
 16 18  1  0
 18 19  1  0
 19 20  1  0
 20 21  1  0
 21 22  1  0
 22 23  2  3
 18 24  1  0
 21 25  1  0
 24 25  1  0
 23 26  1  0
  6  5  1  0
  1  2  2  0
  7 12  2  0
 12 13  1  0
 13 14  2  0
 14  1  1  0
  2  7  1  0
  7  8  1  0
  8  9  2  0
  9 10  1  0
 10  3  2  0
  3  2  1  0
M  END

$$$$
No_1854-/dssg/home/sw_qyf/PocketFlow/Model-Generation-Results/5HT2A_7WC7_rec_A_10.pdb/2024-01-01-03-54-21/
     RDKit          3D

 15 14  0  0  0  0  0  0  0  0999 V2000
  -23.1746  -16.6014  144.8668 C   0  0  0  0  0  0  0  0  0  0  0  0
  -23.7011  -17.0158  145.9774 C   0  0  0  0  0  0  0  0  0  0  0  0
  -23.7336  -18.2775  146.3737 C   0  0  0  0  0  0  0  0  0  0  0  0
  -23.8112  -15.3695  144.2738 C   0  0  0  0  0  0  0  0  0  0  0  0
  -25.0651  -14.9546  144.8732 C   0  0  0  0  0  0  0  0  0  0  0  0
  -25.4892  -13.6339  144.5110 C   0  0  0  0  0  0  0  0  0  0  0  0
  -26.0881  -12.8216  145.6531 C   0  0  0  0  0  0  0  0  0  0  0  0
  -25.6616  -11.5232  145.8362 C   0  0  0  0  0  0  0  0  0  0  0  0
  -23.2792  -19.0901  145.9401 O   0  0  0  0  0  0  0  0  0  0  0  0
  -24.2218  -18.4756  147.7329 O   0  0  0  0  0  0  0  0  0  0  0  0
  -27.2615  -13.3460  146.3105 C   0  0  0  0  0  0  0  0  0  0  0  0
  -28.2851  -12.4243  146.6522 C   0  0  0  0  0  0  0  0  0  0  0  0
  -29.4192  -12.8602  147.4017 C   0  0  0  0  0  0  0  0  0  0  0  0
  -29.6111  -14.1214  147.8083 C   0  0  0  0  0  0  0  0  0  0  0  0
  -28.5560  -15.0613  147.4545 C   0  0  0  0  0  0  0  0  0  0  0  0
  1  2  1  0
  2  3  1  0
  1  4  1  0
  4  5  1  0
  5  6  1  0
  6  7  1  0
  7  8  1  0
  3  9  2  0
  3 10  1  0
  7 11  1  0
 11 12  2  3
 12 13  1  0
 13 14  2  3
 14 15  1  0
M  END

$$$$
No_1855-/dssg/home/sw_qyf/PocketFlow/Model-Generation-Results/5HT2A_7WC7_rec_A_10.pdb/2024-01-01-03-54-21/
     RDKit          3D

 14 15  0  0  0  0  0  0  0  0999 V2000
  -24.1553  -17.8465  145.7021 C   0  0  0  0  0  0  0  0  0  0  0  0
  -24.6364  -17.2931  146.7091 C   0  0  0  0  0  0  0  0  0  0  0  0
  -25.8608  -16.5592  146.5934 C   0  0  0  0  0  0  0  0  0  0  0  0
  -25.9088  -15.1597  146.9911 C   0  0  0  0  0  0  0  0  0  0  0  0
  -26.8304  -14.2303  146.5024 C   0  0  0  0  0  0  0  0  0  0  0  0
  -26.4464  -12.9888  146.0628 C   0  0  0  0  0  0  0  0  0  0  0  0
  -25.1509  -12.5566  146.1837 C   0  0  0  0  0  0  0  0  0  0  0  0
  -24.1780  -13.4786  146.7818 C   0  0  0  0  0  0  0  0  0  0  0  0
  -24.3762  -14.7729  146.6248 C   0  0  0  0  0  0  0  0  0  0  0  0
  -27.4398  -11.9707  145.6354 C   0  0  0  0  0  0  0  0  0  0  0  0
  -28.7118  -11.9982  146.1525 N   0  0  0  0  0  0  0  0  0  0  0  0
  -29.5187  -11.0407  145.6156 C   0  0  0  0  0  0  0  0  0  0  0  0
  -29.0039  -10.3001  144.5689 C   0  0  0  0  0  0  0  0  0  0  0  0
  -27.3436  -10.9640  144.6527 C   0  0  0  0  0  0  0  0  0  0  0  0
  1  2  1  0
  2  3  1  0
  3  4  1  0
  6 10  1  0
 10 11  2  0
 11 12  1  0
 12 13  2  0
 10 14  1  0
 13 14  1  0
  4  5  2  0
  5  6  1  0
  6  7  2  0
  7  8  1  0
  8  9  2  0
  9  4  1  0
M  END

$$$$
No_1856-/dssg/home/sw_qyf/PocketFlow/Model-Generation-Results/5HT2A_7WC7_rec_A_10.pdb/2024-01-01-03-54-21/
     RDKit          3D

 26 28  0  0  0  0  0  0  0  0999 V2000
  -24.1553  -17.8465  145.7021 C   0  0  0  0  0  0  0  0  0  0  0  0
  -23.9795  -18.4462  146.7426 C   0  0  0  0  0  0  0  0  0  0  0  0
  -25.1593  -16.8262  145.6925 C   0  0  0  0  0  0  0  0  0  0  0  0
  -25.9346  -16.5763  146.8154 C   0  0  0  0  0  0  0  0  0  0  0  0
  -25.6041  -17.2802  147.9650 C   0  0  0  0  0  0  0  0  0  0  0  0
  -24.6016  -18.1919  147.9827 C   0  0  0  0  0  0  0  0  0  0  0  0
  -27.0252  -15.5531  146.7776 C   0  0  0  0  0  0  0  0  0  0  0  0
  -27.4692  -14.9150  145.8541 C   0  0  0  0  0  0  0  0  0  0  0  0
  -27.5581  -13.6341  145.8294 C   0  0  0  0  0  0  0  0  0  0  0  0
  -27.6193  -12.8168  144.9254 C   0  0  0  0  0  0  0  0  0  0  0  0
  -27.8266  -11.4736  144.9075 C   0  0  0  0  0  0  0  0  0  0  0  0
  -27.7475  -10.6104  143.7706 C   0  0  0  0  0  0  0  0  0  0  0  0
  -27.8184  -11.1574  142.5483 C   0  0  0  0  0  0  0  0  0  0  0  0
  -27.2978  -12.4487  142.3676 C   0  0  0  0  0  0  0  0  0  0  0  0
  -27.3572  -13.3380  143.5290 C   0  0  0  0  0  0  0  0  0  0  0  0
  -27.1877  -13.1346  141.0929 C   0  0  0  0  0  0  0  0  0  0  0  0
  -26.1234  -13.7751  140.8732 N   0  0  0  0  0  0  0  0  0  0  0  0
  -28.1686  -13.0433  140.2586 O   0  0  0  0  0  0  0  0  0  0  0  0
  -28.1848   -9.3013  143.9146 N   0  0  0  0  0  0  0  0  0  0  0  0
  -28.8037   -8.6490  143.0558 C   0  0  0  0  0  0  0  0  0  0  0  0
  -29.2997   -9.1163  141.9045 C   0  0  0  0  0  0  0  0  0  0  0  0
  -30.0463   -8.4134  140.9939 C   0  0  0  0  0  0  0  0  0  0  0  0
  -28.4262  -10.4266  141.4968 C   0  0  0  0  0  0  0  0  0  0  0  0
  -31.2597   -8.3683  141.2142 O   0  0  0  0  0  0  0  0  0  0  0  0
  -29.5873   -7.8525  139.9663 O   0  0  0  0  0  0  0  0  0  0  0  0
  -23.4030  -17.9706  144.1631 Cl  0  0  0  0  0  0  0  0  0  0  0  0
  4  7  1  0
  7  8  1  0
  8  9  1  0
 14 16  1  0
 16 17  1  0
 16 18  2  0
 21 22  1  0
 22 24  1  0
 22 25  2  0
  1 26  1  0
  9 10  1  0
 13 23  2  0
 23 21  1  0
 21 20  2  0
 20 19  1  0
 19 12  2  0
  1  2  2  0
  2  6  1  0
  6  5  2  0
  5  4  1  0
  4  3  2  0
  3  1  1  0
 10 11  2  0
 11 12  1  0
 12 13  1  0
 13 14  1  0
 14 15  2  0
 15 10  1  0
M  END

$$$$
No_1857-/dssg/home/sw_qyf/PocketFlow/Model-Generation-Results/5HT2A_7WC7_rec_A_10.pdb/2024-01-01-03-54-21/
     RDKit          3D

 25 26  0  0  0  0  0  0  0  0999 V2000
  -24.1553  -17.8465  145.7021 C   0  0  0  0  0  0  0  0  0  0  0  0
  -23.9795  -18.4462  146.7426 C   0  0  0  0  0  0  0  0  0  0  0  0
  -25.1593  -16.8262  145.6925 C   0  0  0  0  0  0  0  0  0  0  0  0
  -26.3426  -16.9003  146.3448 C   0  0  0  0  0  0  0  0  0  0  0  0
  -27.5316  -16.4146  145.9922 C   0  0  0  0  0  0  0  0  0  0  0  0
  -24.9327  -18.4032  147.8082 C   0  0  0  0  0  0  0  0  0  0  0  0
  -26.0965  -17.6628  147.6170 C   0  0  0  0  0  0  0  0  0  0  0  0
  -27.8557  -15.1145  146.6673 C   0  0  0  0  0  0  0  0  0  0  0  0
  -27.3468  -13.8912  146.2628 C   0  0  0  0  0  0  0  0  0  0  0  0
  -26.0148  -13.6796  145.9539 C   0  0  0  0  0  0  0  0  0  0  0  0
  -25.5790  -12.3590  145.7320 C   0  0  0  0  0  0  0  0  0  0  0  0
  -24.2405  -11.9911  145.4577 C   0  0  0  0  0  0  0  0  0  0  0  0
  -28.1293  -12.6722  146.2325 C   0  0  0  0  0  0  0  0  0  0  0  0
  -27.7447  -11.4670  145.9178 N   0  0  0  0  0  0  0  0  0  0  0  0
  -26.4197  -11.2773  145.6785 C   0  0  0  0  0  0  0  0  0  0  0  0
  -23.2678  -12.6823  145.1619 N   0  0  0  0  0  0  0  0  0  0  0  0
  -29.8929  -12.9290  146.6898 P   0  0  0  0  0  0  0  0  0  0  0  0
  -30.1492  -14.2192  146.6930 O   0  0  0  0  0  0  0  0  0  0  0  0
  -30.5631  -12.0975  145.5573 O   0  0  0  0  0  0  0  0  0  0  0  0
  -30.0946  -12.0667  148.0300 O   0  0  0  0  0  0  0  0  0  0  0  0
  -22.1358  -12.2418  144.4439 C   0  0  0  0  0  0  0  0  0  0  0  0
  -23.2773  -17.7087  144.6993 F   0  0  0  0  0  0  0  0  0  0  0  0
  -31.3745  -14.3875  147.0413 F   0  0  0  0  0  0  0  0  0  0  0  0
  -26.0432  -10.1259  145.3621 O   0  0  0  0  0  0  0  0  0  0  0  0
  -22.8409  -19.1890  146.9442 O   0  0  0  0  0  0  0  0  0  0  0  0
  5  8  1  0
  8  9  1  0
  9 10  1  0
 11 12  1  0
  9 13  1  0
 13 14  1  0
 11 15  1  0
 14 15  1  0
 12 16  1  0
 13 17  1  0
 17 18  1  0
 17 19  2  0
 17 20  1  0
 16 21  1  0
  1 22  1  0
 18 23  1  0
 15 24  2  0
  2 25  1  0
  5  4  1  0
 11 10  1  0
  1  2  2  0
  2  6  1  0
  6  7  2  0
  7  4  1  0
  4  3  2  0
  3  1  1  0
M  END

$$$$
No_1858-/dssg/home/sw_qyf/PocketFlow/Model-Generation-Results/5HT2A_7WC7_rec_A_10.pdb/2024-01-01-03-54-21/
     RDKit          3D

 15 16  0  0  0  0  0  0  0  0999 V2000
  -24.1553  -17.8465  145.7021 C   0  0  0  0  0  0  0  0  0  0  0  0
  -24.2856  -16.6364  145.3494 C   0  0  0  0  0  0  0  0  0  0  0  0
  -24.7211  -15.5955  146.2115 C   0  0  0  0  0  0  0  0  0  0  0  0
  -25.1322  -16.0374  147.5372 C   0  0  0  0  0  0  0  0  0  0  0  0
  -24.5163  -18.2968  146.9928 C   0  0  0  0  0  0  0  0  0  0  0  0
  -24.9534  -17.3074  147.9886 C   0  0  0  0  0  0  0  0  0  0  0  0
  -24.8651  -14.1840  145.8143 C   0  0  0  0  0  0  0  0  0  0  0  0
  -25.4675  -13.2486  146.5302 C   0  0  0  0  0  0  0  0  0  0  0  0
  -25.4389  -11.9163  146.1893 C   0  0  0  0  0  0  0  0  0  0  0  0
  -24.1918  -13.7908  144.6297 C   0  0  0  0  0  0  0  0  0  0  0  0
  -24.0792  -12.3544  144.3259 C   0  0  0  0  0  0  0  0  0  0  0  0
  -24.7105  -11.4337  145.1511 C   0  0  0  0  0  0  0  0  0  0  0  0
  -23.5264  -14.5180  143.8621 O   0  0  0  0  0  0  0  0  0  0  0  0
  -25.2593  -17.6935  149.3939 C   0  0  0  0  0  0  0  0  0  0  0  0
  -25.1500  -16.6178  150.4578 C   0  0  0  0  0  0  0  0  0  0  0  0
  3  7  1  0
 10 13  1  0
  6 14  1  0
 14 15  1  0
  1  2  2  0
  2  3  1  0
  3  4  2  0
  4  6  1  0
  6  5  2  0
  5  1  1  0
  7  8  2  0
  8  9  1  0
  9 12  2  0
 12 11  1  0
 11 10  2  0
 10  7  1  0
M  END

$$$$
No_1859-/dssg/home/sw_qyf/PocketFlow/Model-Generation-Results/5HT2A_7WC7_rec_A_10.pdb/2024-01-01-03-54-21/
     RDKit          3D

 31 33  0  0  0  0  0  0  0  0999 V2000
  -24.1553  -17.8465  145.7021 C   0  0  0  0  0  0  0  0  0  0  0  0
  -24.6364  -17.2931  146.7091 C   0  0  0  0  0  0  0  0  0  0  0  0
  -24.0780  -17.2921  147.9389 C   0  0  0  0  0  0  0  0  0  0  0  0
  -24.3226  -16.7243  148.9587 C   0  0  0  0  0  0  0  0  0  0  0  0
  -25.7690  -16.1910  149.0219 C   0  0  0  0  0  0  0  0  0  0  0  0
  -26.5042  -16.3022  147.8715 C   0  0  0  0  0  0  0  0  0  0  0  0
  -25.9312  -16.8728  146.7789 C   0  0  0  0  0  0  0  0  0  0  0  0
  -23.6929  -18.9203  145.4237 F   0  0  0  0  0  0  0  0  0  0  0  0
  -23.0167  -16.9378  145.1301 F   0  0  0  0  0  0  0  0  0  0  0  0
  -27.9143  -15.8040  147.9769 C   0  0  0  0  0  0  0  0  0  0  0  0
  -28.3362  -14.8899  146.9949 C   0  0  0  0  0  0  0  0  0  0  0  0
  -29.2974  -13.9606  147.2722 C   0  0  0  0  0  0  0  0  0  0  0  0
  -29.4501  -12.7887  146.4082 C   0  0  0  0  0  0  0  0  0  0  0  0
  -30.4186  -11.7420  146.6543 C   0  0  0  0  0  0  0  0  0  0  0  0
  -30.1823  -10.6664  145.8668 N   0  0  0  0  0  0  0  0  0  0  0  0
  -29.2228  -10.6360  144.8957 C   0  0  0  0  0  0  0  0  0  0  0  0
  -28.3231  -11.6274  144.7910 C   0  0  0  0  0  0  0  0  0  0  0  0
  -28.4097  -12.6715  145.5577 C   0  0  0  0  0  0  0  0  0  0  0  0
  -29.2808   -9.4765  144.1189 N   0  0  0  0  0  0  0  0  0  0  0  0
  -28.9434   -9.5077  142.8076 C   0  0  0  0  0  0  0  0  0  0  0  0
  -29.3725   -8.4691  142.0077 C   0  0  0  0  0  0  0  0  0  0  0  0
  -29.0204   -8.3393  140.6176 C   0  0  0  0  0  0  0  0  0  0  0  0
  -29.4822   -7.3256  139.7752 C   0  0  0  0  0  0  0  0  0  0  0  0
  -28.0588   -9.2857  140.2361 C   0  0  0  0  0  0  0  0  0  0  0  0
  -27.6827   -9.3659  138.8644 C   0  0  0  0  0  0  0  0  0  0  0  0
  -28.1409   -8.3427  138.0474 C   0  0  0  0  0  0  0  0  0  0  0  0
  -29.0376   -7.4292  138.4943 N   0  0  0  0  0  0  0  0  0  0  0  0
  -28.3206  -10.4894  142.3637 O   0  0  0  0  0  0  0  0  0  0  0  0
  -31.1981  -11.7135  147.6185 F   0  0  0  0  0  0  0  0  0  0  0  0
  -24.8502  -17.4065  144.5824 F   0  0  0  0  0  0  0  0  0  0  0  0
  -30.2808   -7.3759  142.5574 C   0  0  0  0  0  0  0  0  0  0  0  0
  1  2  1  0
  1  8  1  0
  1  9  1  0
  6 10  1  0
 10 11  2  3
 11 12  1  0
 16 19  1  0
 19 20  1  0
 20 21  1  0
 20 28  2  0
 14 29  1  0
  1 30  1  0
 21 31  1  0
 12 13  1  0
 21 22  1  0
 22 23  2  0
 23 27  1  0
 27 26  2  0
 26 25  1  0
 25 24  2  0
 24 22  1  0
  2  3  2  0
  3  4  1  0
  4  5  2  0
  5  6  1  0
  6  7  2  0
  7  2  1  0
 13 14  2  0
 14 15  1  0
 15 16  2  0
 16 17  1  0
 17 18  2  0
 18 13  1  0
M  END

$$$$
No_1860-/dssg/home/sw_qyf/PocketFlow/Model-Generation-Results/5HT2A_7WC7_rec_A_10.pdb/2024-01-01-03-54-21/
     RDKit          3D

 21 23  0  0  0  0  0  0  0  0999 V2000
  -24.1553  -17.8465  145.7021 C   0  0  0  0  0  0  0  0  0  0  0  0
  -24.6364  -17.2931  146.7091 C   0  0  0  0  0  0  0  0  0  0  0  0
  -25.8608  -16.5592  146.5934 C   0  0  0  0  0  0  0  0  0  0  0  0
  -26.9933  -16.9082  147.1889 C   0  0  0  0  0  0  0  0  0  0  0  0
  -28.2114  -16.1477  146.9896 C   0  0  0  0  0  0  0  0  0  0  0  0
  -28.1869  -14.8900  146.3591 C   0  0  0  0  0  0  0  0  0  0  0  0
  -26.9306  -14.4696  145.8021 C   0  0  0  0  0  0  0  0  0  0  0  0
  -25.7608  -15.2964  145.9443 C   0  0  0  0  0  0  0  0  0  0  0  0
  -26.8039  -13.1572  145.1459 C   0  0  0  0  0  0  0  0  0  0  0  0
  -26.4101  -12.1029  145.8761 C   0  0  0  0  0  0  0  0  0  0  0  0
  -26.3574  -10.8810  145.2399 N   0  0  0  0  0  0  0  0  0  0  0  0
  -27.2104  -10.7602  144.1721 C   0  0  0  0  0  0  0  0  0  0  0  0
  -28.0029   -9.6189  143.9184 C   0  0  0  0  0  0  0  0  0  0  0  0
  -28.9762   -9.5531  142.9428 C   0  0  0  0  0  0  0  0  0  0  0  0
  -28.8276  -10.4815  141.8921 C   0  0  0  0  0  0  0  0  0  0  0  0
  -27.9937  -11.6178  142.0615 C   0  0  0  0  0  0  0  0  0  0  0  0
  -27.2091  -11.7372  143.2447 C   0  0  0  0  0  0  0  0  0  0  0  0
  -27.3223  -13.0066  143.8528 C   0  0  0  0  0  0  0  0  0  0  0  0
  -24.0018  -17.4655  148.0611 C   0  0  0  0  0  0  0  0  0  0  0  0
  -24.5389  -17.2375  149.1949 N   0  0  0  0  0  0  0  0  0  0  0  0
  -23.8628  -17.3477  150.3609 C   0  0  0  0  0  0  0  0  0  0  0  0
  1  2  1  0
  2  3  1  0
  7  9  1  0
  9 10  1  0
 10 11  1  0
 11 12  1  0
  9 18  1  0
 17 18  1  0
  2 19  1  0
 19 20  1  0
 20 21  1  0
 12 13  2  0
 13 14  1  0
 14 15  2  0
 15 16  1  0
 16 17  2  0
 17 12  1  0
  3  4  2  0
  4  5  1  0
  5  6  2  0
  6  7  1  0
  7  8  2  0
  8  3  1  0
M  END

$$$$
No_1861-/dssg/home/sw_qyf/PocketFlow/Model-Generation-Results/5HT2A_7WC7_rec_A_10.pdb/2024-01-01-03-54-21/
     RDKit          3D

 35 39  0  0  0  0  0  0  0  0999 V2000
  -23.1746  -16.6014  144.8668 C   0  0  0  0  0  0  0  0  0  0  0  0
  -23.7011  -17.0158  145.9774 C   0  0  0  0  0  0  0  0  0  0  0  0
  -24.2134  -16.0722  146.8877 C   0  0  0  0  0  0  0  0  0  0  0  0
  -23.3742  -15.2706  144.3922 C   0  0  0  0  0  0  0  0  0  0  0  0
  -24.0445  -14.2973  145.2608 C   0  0  0  0  0  0  0  0  0  0  0  0
  -24.4773  -14.7066  146.5258 C   0  0  0  0  0  0  0  0  0  0  0  0
  -24.1883  -12.8818  144.8809 C   0  0  0  0  0  0  0  0  0  0  0  0
  -23.1038  -12.1511  145.5295 C   0  0  0  0  0  0  0  0  0  0  0  0
  -23.5532  -18.4195  146.4774 C   0  0  0  0  0  0  0  0  0  0  0  0
  -24.2191  -18.8521  147.4125 O   0  0  0  0  0  0  0  0  0  0  0  0
  -22.7042  -19.1643  145.9958 O   0  0  0  0  0  0  0  0  0  0  0  0
  -25.5167  -12.3749  145.2943 C   0  0  0  0  0  0  0  0  0  0  0  0
  -26.0559  -11.3335  144.4829 C   0  0  0  0  0  0  0  0  0  0  0  0
  -27.4526  -10.9044  144.8253 C   0  0  0  0  0  0  0  0  0  0  0  0
  -28.1873  -11.7103  145.6789 C   0  0  0  0  0  0  0  0  0  0  0  0
  -27.5657  -12.7283  146.5127 C   0  0  0  0  0  0  0  0  0  0  0  0
  -26.2436  -13.0766  146.1985 C   0  0  0  0  0  0  0  0  0  0  0  0
  -25.7442  -14.2697  146.8565 C   0  0  0  0  0  0  0  0  0  0  0  0
  -28.0979   -9.7954  144.1230 C   0  0  0  0  0  0  0  0  0  0  0  0
  -27.6167   -8.9606  143.3044 C   0  0  0  0  0  0  0  0  0  0  0  0
  -29.5894   -9.7836  144.2493 C   0  0  0  0  0  0  0  0  0  0  0  0
  -30.1841   -9.0131  143.3307 C   0  0  0  0  0  0  0  0  0  0  0  0
  -31.6401   -8.9950  143.3257 C   0  0  0  0  0  0  0  0  0  0  0  0
  -28.2875   -7.9856  142.6110 C   0  0  0  0  0  0  0  0  0  0  0  0
  -29.6523   -8.0294  142.6269 C   0  0  0  0  0  0  0  0  0  0  0  0
  -32.2872   -9.6968  142.4533 O   0  0  0  0  0  0  0  0  0  0  0  0
  -30.3568   -7.0520  141.7524 C   0  0  0  0  0  0  0  0  0  0  0  0
  -29.8672   -7.1766  140.3745 C   0  0  0  0  0  0  0  0  0  0  0  0
  -30.1091   -8.3733  139.5958 C   0  0  0  0  0  0  0  0  0  0  0  0
  -29.3014   -8.3327  138.3978 C   0  0  0  0  0  0  0  0  0  0  0  0
  -27.8811   -7.9241  138.5761 C   0  0  0  0  0  0  0  0  0  0  0  0
  -27.1563   -8.9074  137.8765 C   0  0  0  0  0  0  0  0  0  0  0  0
  -28.1324   -9.9872  137.4563 C   0  0  0  0  0  0  0  0  0  0  0  0
  -29.2883   -9.6606  137.8536 O   0  0  0  0  0  0  0  0  0  0  0  0
  -27.9346  -11.3599  138.1232 C   0  0  0  0  0  0  0  0  0  0  0  0
  5  7  1  0
  7  8  1  0
  2  9  1  0
  9 10  1  0
  9 11  2  0
  7 12  1  0
  6 18  1  0
 17 18  1  0
 14 19  1  0
 22 23  1  0
 23 26  1  0
 25 27  1  0
 27 28  1  0
 28 29  1  0
 29 30  1  0
 30 31  1  0
 31 32  1  0
 32 33  1  0
 30 34  1  0
 33 34  1  0
 33 35  1  0
 12 13  2  0
 13 14  1  0
 14 15  2  0
 15 16  1  0
 16 17  2  0
 17 12  1  0
 19 20  2  0
 20 24  1  0
 24 25  2  0
 25 22  1  0
 22 21  2  0
 21 19  1  0
  1  2  2  0
  2  3  1  0
  3  6  2  0
  6  5  1  0
  5  4  2  0
  4  1  1  0
M  END

$$$$
No_1862-/dssg/home/sw_qyf/PocketFlow/Model-Generation-Results/5HT2A_7WC7_rec_A_10.pdb/2024-01-01-03-54-21/
     RDKit          3D

 14 15  0  0  0  0  0  0  0  0999 V2000
  -23.1746  -16.6014  144.8668 C   0  0  0  0  0  0  0  0  0  0  0  0
  -24.0189  -16.0564  145.8445 C   0  0  0  0  0  0  0  0  0  0  0  0
  -24.4145  -16.8299  146.9062 C   0  0  0  0  0  0  0  0  0  0  0  0
  -23.9612  -18.1385  147.0126 C   0  0  0  0  0  0  0  0  0  0  0  0
  -23.1429  -18.6221  146.0418 C   0  0  0  0  0  0  0  0  0  0  0  0
  -22.8095  -17.8231  145.0610 N   0  0  0  0  0  0  0  0  0  0  0  0
  -24.5671  -14.6439  145.6745 C   0  0  0  0  0  0  0  0  0  0  0  0
  -25.6755  -14.2339  146.3521 C   0  0  0  0  0  0  0  0  0  0  0  0
  -26.0799  -12.8632  146.3387 C   0  0  0  0  0  0  0  0  0  0  0  0
  -25.4367  -11.9562  145.4880 C   0  0  0  0  0  0  0  0  0  0  0  0
  -24.2830  -12.3664  144.8520 C   0  0  0  0  0  0  0  0  0  0  0  0
  -23.8054  -13.7044  144.9030 C   0  0  0  0  0  0  0  0  0  0  0  0
  -26.0183  -10.3247  145.4076 Cl  0  0  0  0  0  0  0  0  0  0  0  0
  -22.7911  -13.9663  144.1775 O   0  0  0  0  0  0  0  0  0  0  0  0
  2  7  1  0
 10 13  1  0
 12 14  1  0
  1  2  2  0
  2  3  1  0
  3  4  2  0
  4  5  1  0
  5  6  2  0
  6  1  1  0
  7  8  2  0
  8  9  1  0
  9 10  2  0
 10 11  1  0
 11 12  2  0
 12  7  1  0
M  END

$$$$
No_1863-/dssg/home/sw_qyf/PocketFlow/Model-Generation-Results/5HT2A_7WC7_rec_A_10.pdb/2024-01-01-03-54-21/
     RDKit          3D

 21 23  0  0  0  0  0  0  0  0999 V2000
  -23.8998  -17.8495  145.5131 N   0  0  0  0  0  0  0  0  0  0  0  0
  -24.1393  -18.2577  146.6176 C   0  0  0  0  0  0  0  0  0  0  0  0
  -24.3812  -16.7191  145.0677 C   0  0  0  0  0  0  0  0  0  0  0  0
  -25.3960  -16.1693  145.8710 C   0  0  0  0  0  0  0  0  0  0  0  0
  -25.7493  -16.7078  147.1014 C   0  0  0  0  0  0  0  0  0  0  0  0
  -25.0528  -17.8284  147.4942 N   0  0  0  0  0  0  0  0  0  0  0  0
  -26.1175  -14.8902  145.4231 C   0  0  0  0  0  0  0  0  0  0  0  0
  -27.0197  -14.2681  146.0919 C   0  0  0  0  0  0  0  0  0  0  0  0
  -27.6169  -13.0428  145.6948 C   0  0  0  0  0  0  0  0  0  0  0  0
  -27.3253  -12.4414  144.4543 C   0  0  0  0  0  0  0  0  0  0  0  0
  -26.5164  -13.3281  143.6309 C   0  0  0  0  0  0  0  0  0  0  0  0
  -25.8592  -14.4457  144.0648 C   0  0  0  0  0  0  0  0  0  0  0  0
  -27.9667  -11.2580  143.9919 C   0  0  0  0  0  0  0  0  0  0  0  0
  -27.2324  -10.1406  143.8039 C   0  0  0  0  0  0  0  0  0  0  0  0
  -29.3094  -11.1802  143.6376 C   0  0  0  0  0  0  0  0  0  0  0  0
  -29.9097   -9.9377  143.2244 C   0  0  0  0  0  0  0  0  0  0  0  0
  -30.1594   -9.7247  141.9734 C   0  0  0  0  0  0  0  0  0  0  0  0
  -30.7947   -8.4783  141.6076 C   0  0  0  0  0  0  0  0  0  0  0  0
  -31.0672   -7.7483  142.8445 C   0  0  0  0  0  0  0  0  0  0  0  0
  -30.9220   -8.2345  144.1420 C   0  0  0  0  0  0  0  0  0  0  0  0
  -30.3141   -9.2418  144.3395 C   0  0  0  0  0  0  0  0  0  0  0  0
  4  7  1  0
 10 13  1  0
 13 14  2  0
 13 15  1  0
 15 16  1  0
  1  2  2  0
  2  6  1  0
  6  5  2  0
  5  4  1  0
  4  3  2  0
  3  1  1  0
  7  8  2  0
  8  9  1  0
  9 10  2  0
 10 11  1  0
 11 12  2  0
 12  7  1  0
 16 17  2  0
 17 18  1  0
 18 19  2  0
 19 20  1  0
 20 21  2  0
 21 16  1  0
M  END

$$$$
No_1864-/dssg/home/sw_qyf/PocketFlow/Model-Generation-Results/5HT2A_7WC7_rec_A_10.pdb/2024-01-01-03-54-21/
     RDKit          3D

 15 16  0  0  0  0  0  0  0  0999 V2000
  -23.1746  -16.6014  144.8668 C   0  0  0  0  0  0  0  0  0  0  0  0
  -23.8963  -15.5346  144.7885 C   0  0  0  0  0  0  0  0  0  0  0  0
  -24.5755  -15.0383  145.9043 C   0  0  0  0  0  0  0  0  0  0  0  0
  -24.6688  -15.8869  147.0363 C   0  0  0  0  0  0  0  0  0  0  0  0
  -24.0226  -17.0824  147.0622 C   0  0  0  0  0  0  0  0  0  0  0  0
  -23.2575  -17.4593  145.9560 C   0  0  0  0  0  0  0  0  0  0  0  0
  -25.3271  -13.7158  145.9348 C   0  0  0  0  0  0  0  0  0  0  0  0
  -24.7096  -12.7416  145.4939 C   0  0  0  0  0  0  0  0  0  0  0  0
  -25.3472  -11.3768  145.4559 C   0  0  0  0  0  0  0  0  0  0  0  0
  -26.7415  -11.3445  145.8372 C   0  0  0  0  0  0  0  0  0  0  0  0
  -27.3557  -12.4597  146.3633 C   0  0  0  0  0  0  0  0  0  0  0  0
  -26.6640  -13.7217  146.3773 C   0  0  0  0  0  0  0  0  0  0  0  0
  -28.7886  -12.3911  146.7820 C   0  0  0  0  0  0  0  0  0  0  0  0
  -29.1265  -11.6034  147.4207 O   0  0  0  0  0  0  0  0  0  0  0  0
  -29.3747  -13.5825  146.7196 O   0  0  0  0  0  0  0  0  0  0  0  0
  3  7  1  0
 11 13  1  0
 13 14  2  0
 13 15  1  0
  1  2  2  0
  2  3  1  0
  3  4  2  0
  4  5  1  0
  5  6  2  0
  6  1  1  0
  7  8  2  0
  8  9  1  0
  9 10  2  0
 10 11  1  0
 11 12  2  0
 12  7  1  0
M  END

$$$$
No_1865-/dssg/home/sw_qyf/PocketFlow/Model-Generation-Results/5HT2A_7WC7_rec_A_10.pdb/2024-01-01-03-54-21/
     RDKit          3D

 35 36  0  0  0  0  0  0  0  0999 V2000
  -24.1553  -17.8465  145.7021 C   0  0  0  0  0  0  0  0  0  0  0  0
  -23.9795  -18.4462  146.7426 C   0  0  0  0  0  0  0  0  0  0  0  0
  -24.2723  -16.4220  145.8037 C   0  0  0  0  0  0  0  0  0  0  0  0
  -24.4785  -15.8076  147.0396 C   0  0  0  0  0  0  0  0  0  0  0  0
  -24.0382  -17.9349  148.0735 C   0  0  0  0  0  0  0  0  0  0  0  0
  -24.2300  -16.5712  148.2530 C   0  0  0  0  0  0  0  0  0  0  0  0
  -24.4608  -15.5440  144.6463 C   0  0  0  0  0  0  0  0  0  0  0  0
  -24.6257  -14.1242  144.8494 C   0  0  0  0  0  0  0  0  0  0  0  0
  -25.3463  -13.5017  143.8879 C   0  0  0  0  0  0  0  0  0  0  0  0
  -26.4592  -12.7419  144.4984 C   0  0  0  0  0  0  0  0  0  0  0  0
  -26.0222  -11.5587  145.0785 C   0  0  0  0  0  0  0  0  0  0  0  0
  -24.8041  -11.8388  145.9890 C   0  0  0  0  0  0  0  0  0  0  0  0
  -24.1440  -13.1833  145.8532 C   0  0  0  0  0  0  0  0  0  0  0  0
  -27.0888  -10.9046  146.0070 C   0  0  0  0  0  0  0  0  0  0  0  0
  -28.4094  -11.2134  145.4314 C   0  0  0  0  0  0  0  0  0  0  0  0
  -28.7552  -10.8289  144.1896 C   0  0  0  0  0  0  0  0  0  0  0  0
  -28.9473   -9.4410  143.8408 C   0  0  0  0  0  0  0  0  0  0  0  0
  -29.5951   -9.0816  142.9264 C   0  0  0  0  0  0  0  0  0  0  0  0
  -30.0086   -8.0463  142.5717 C   0  0  0  0  0  0  0  0  0  0  0  0
  -31.2187   -7.8474  141.7688 C   0  0  0  0  0  0  0  0  0  0  0  0
  -29.4589   -6.6416  142.8761 C   0  0  0  0  0  0  0  0  0  0  0  0
  -29.9050  -10.1988  141.9137 C   0  0  0  0  0  0  0  0  0  0  0  0
  -28.8582  -10.5809  141.1443 C   0  0  0  0  0  0  0  0  0  0  0  0
  -28.4792  -11.9349  140.9659 C   0  0  0  0  0  0  0  0  0  0  0  0
  -27.3828  -12.2735  140.0835 C   0  0  0  0  0  0  0  0  0  0  0  0
  -27.2720  -11.7003  138.8296 C   0  0  0  0  0  0  0  0  0  0  0  0
  -26.3462  -13.1971  140.5657 C   0  0  0  0  0  0  0  0  0  0  0  0
  -26.5459  -13.8203  141.6749 O   0  0  0  0  0  0  0  0  0  0  0  0
  -29.3886  -11.7558  146.3890 C   0  0  0  0  0  0  0  0  0  0  0  0
  -29.5803  -11.3374  147.3467 O   0  0  0  0  0  0  0  0  0  0  0  0
  -30.2472  -12.7075  145.8123 O   0  0  0  0  0  0  0  0  0  0  0  0
  -25.4931  -13.5833  139.7658 O   0  0  0  0  0  0  0  0  0  0  0  0
  -28.7592   -5.8303  142.0383 C   0  0  0  0  0  0  0  0  0  0  0  0
  -29.4702   -4.6308  141.8513 C   0  0  0  0  0  0  0  0  0  0  0  0
  -29.0740   -3.8106  140.6821 C   0  0  0  0  0  0  0  0  0  0  0  0
  3  7  1  0
  7  8  1  0
 11 14  1  0
 14 15  1  0
 15 16  2  3
 16 17  1  0
 17 18  2  3
 18 19  1  0
 19 20  1  0
 19 21  1  0
 18 22  1  0
 22 23  1  0
 23 24  2  3
 24 25  1  0
 25 26  1  0
 25 27  1  0
 27 28  1  0
 15 29  1  0
 29 30  2  0
 29 31  1  0
 27 32  2  0
 21 33  2  3
 33 34  1  0
 34 35  2  0
  8  9  2  0
  9 10  1  0
 10 11  2  0
 11 12  1  0
 12 13  2  0
 13  8  1  0
  1  2  2  0
  2  5  1  0
  5  6  2  0
  6  4  1  0
  4  3  2  0
  3  1  1  0
M  END

$$$$
No_1866-/dssg/home/sw_qyf/PocketFlow/Model-Generation-Results/5HT2A_7WC7_rec_A_10.pdb/2024-01-01-03-54-21/
     RDKit          3D

 28 29  0  0  0  0  0  0  0  0999 V2000
  -23.1746  -16.6014  144.8668 C   0  0  0  0  0  0  0  0  0  0  0  0
  -23.7011  -17.0158  145.9774 C   0  0  0  0  0  0  0  0  0  0  0  0
  -24.2134  -16.0722  146.8877 C   0  0  0  0  0  0  0  0  0  0  0  0
  -23.3742  -15.2706  144.3922 C   0  0  0  0  0  0  0  0  0  0  0  0
  -24.0445  -14.2973  145.2608 C   0  0  0  0  0  0  0  0  0  0  0  0
  -24.4773  -14.7066  146.5258 C   0  0  0  0  0  0  0  0  0  0  0  0
  -24.1737  -12.9749  144.8984 N   0  0  0  0  0  0  0  0  0  0  0  0
  -24.0313  -11.8949  145.8080 C   0  0  0  0  0  0  0  0  0  0  0  0
  -23.5705  -18.4315  146.4343 C   0  0  0  0  0  0  0  0  0  0  0  0
  -22.5639  -18.6545  147.1284 F   0  0  0  0  0  0  0  0  0  0  0  0
  -24.6802  -18.6689  147.3103 F   0  0  0  0  0  0  0  0  0  0  0  0
  -23.6179  -19.2775  145.4744 F   0  0  0  0  0  0  0  0  0  0  0  0
  -25.3887  -11.5287  146.2021 C   0  0  0  0  0  0  0  0  0  0  0  0
  -26.4652  -11.5187  145.2154 C   0  0  0  0  0  0  0  0  0  0  0  0
  -27.5402  -12.2829  145.5529 C   0  0  0  0  0  0  0  0  0  0  0  0
  -28.7998  -11.9414  144.9424 C   0  0  0  0  0  0  0  0  0  0  0  0
  -28.7583  -10.9865  143.8588 C   0  0  0  0  0  0  0  0  0  0  0  0
  -27.5996  -10.3389  143.5479 C   0  0  0  0  0  0  0  0  0  0  0  0
  -26.5272  -10.4227  144.3525 C   0  0  0  0  0  0  0  0  0  0  0  0
  -29.9466  -10.8193  143.1786 N   0  0  0  0  0  0  0  0  0  0  0  0
  -29.9262  -10.1276  142.0217 C   0  0  0  0  0  0  0  0  0  0  0  0
  -29.4059   -8.8588  142.0618 C   0  0  0  0  0  0  0  0  0  0  0  0
  -29.6501   -8.1701  140.8301 C   0  0  0  0  0  0  0  0  0  0  0  0
  -30.6587   -7.1728  140.8531 C   0  0  0  0  0  0  0  0  0  0  0  0
  -28.7962   -8.3591  139.7012 C   0  0  0  0  0  0  0  0  0  0  0  0
  -28.6816   -8.8759  138.6665 C   0  0  0  0  0  0  0  0  0  0  0  0
  -28.4859   -8.9029  137.4096 C   0  0  0  0  0  0  0  0  0  0  0  0
  -28.2062   -7.9809  136.6031 N   0  0  0  0  0  0  0  0  0  0  0  0
  5  7  1  0
  7  8  1  0
  2  9  1  0
  9 10  1  0
  9 11  1  0
  9 12  1  0
  8 13  1  0
 13 14  1  0
 17 20  1  0
 20 21  1  0
 21 22  1  0
 22 23  1  0
 23 24  2  0
 23 25  1  0
 25 26  1  0
 26 27  3  0
 27 28  1  0
 14 15  2  0
 15 16  1  0
 16 17  2  0
 17 18  1  0
 18 19  2  0
 19 14  1  0
  1  2  2  0
  2  3  1  0
  3  6  2  0
  6  5  1  0
  5  4  2  0
  4  1  1  0
M  END

$$$$
No_1867-/dssg/home/sw_qyf/PocketFlow/Model-Generation-Results/5HT2A_7WC7_rec_A_10.pdb/2024-01-01-03-54-21/
     RDKit          3D

 13 13  0  0  0  0  0  0  0  0999 V2000
  -23.1746  -16.6014  144.8668 C   0  0  0  0  0  0  0  0  0  0  0  0
  -24.0189  -16.0564  145.8445 C   0  0  0  0  0  0  0  0  0  0  0  0
  -24.4145  -16.8299  146.9062 C   0  0  0  0  0  0  0  0  0  0  0  0
  -25.2730  -16.2838  147.9150 C   0  0  0  0  0  0  0  0  0  0  0  0
  -25.7919  -14.9951  147.6737 C   0  0  0  0  0  0  0  0  0  0  0  0
  -24.5377  -14.6789  145.6474 C   0  0  0  0  0  0  0  0  0  0  0  0
  -25.2166  -14.2119  146.5158 C   0  0  0  0  0  0  0  0  0  0  0  0
  -24.0132  -13.9012  144.5702 C   0  0  0  0  0  0  0  0  0  0  0  0
  -22.8337  -13.7238  144.3867 O   0  0  0  0  0  0  0  0  0  0  0  0
  -23.9885  -18.2209  147.0728 C   0  0  0  0  0  0  0  0  0  0  0  0
  -23.6685  -19.0294  146.1853 O   0  0  0  0  0  0  0  0  0  0  0  0
  -24.9041  -13.0932  144.0824 O   0  0  0  0  0  0  0  0  0  0  0  0
  -24.1823  -18.7255  148.2865 O   0  0  0  0  0  0  0  0  0  0  0  0
  1  2  1  0
  6  8  1  0
  8  9  1  0
  3 10  1  0
 10 11  2  0
  8 12  2  0
 10 13  1  0
  2  3  2  0
  3  4  1  0
  4  5  2  0
  5  7  1  0
  7  6  2  0
  6  2  1  0
M  END

$$$$
No_1868-/dssg/home/sw_qyf/PocketFlow/Model-Generation-Results/5HT2A_7WC7_rec_A_10.pdb/2024-01-01-03-54-21/
     RDKit          3D

 35 37  0  0  0  0  0  0  0  0999 V2000
  -23.1746  -16.6014  144.8668 C   0  0  0  0  0  0  0  0  0  0  0  0
  -23.8963  -15.5346  144.7885 C   0  0  0  0  0  0  0  0  0  0  0  0
  -25.0304  -15.2549  144.5358 C   0  0  0  0  0  0  0  0  0  0  0  0
  -25.8853  -14.7934  145.2672 C   0  0  0  0  0  0  0  0  0  0  0  0
  -27.3492  -14.8162  145.2842 C   0  0  0  0  0  0  0  0  0  0  0  0
  -28.1066  -14.1519  146.2791 C   0  0  0  0  0  0  0  0  0  0  0  0
  -29.2349  -14.5841  146.8920 C   0  0  0  0  0  0  0  0  0  0  0  0
  -29.9899  -13.7663  147.7540 C   0  0  0  0  0  0  0  0  0  0  0  0
  -29.6368  -12.3877  147.9125 C   0  0  0  0  0  0  0  0  0  0  0  0
  -28.4786  -11.8879  147.2697 C   0  0  0  0  0  0  0  0  0  0  0  0
  -27.7168  -12.7339  146.4454 C   0  0  0  0  0  0  0  0  0  0  0  0
  -26.4631  -12.2477  145.9757 C   0  0  0  0  0  0  0  0  0  0  0  0
  -25.5688  -13.2589  145.3309 C   0  0  0  0  0  0  0  0  0  0  0  0
  -23.9925  -17.7353  145.2517 C   0  0  0  0  0  0  0  0  0  0  0  0
  -23.8878  -18.0454  146.7539 C   0  0  0  0  0  0  0  0  0  0  0  0
  -25.0363  -17.7919  147.5334 C   0  0  0  0  0  0  0  0  0  0  0  0
  -25.0334  -16.4647  148.2112 C   0  0  0  0  0  0  0  0  0  0  0  0
  -26.0722  -10.8694  145.9809 C   0  0  0  0  0  0  0  0  0  0  0  0
  -23.8681  -16.2754  148.7942 C   0  0  0  0  0  0  0  0  0  0  0  0
  -23.5702  -17.0100  149.9413 C   0  0  0  0  0  0  0  0  0  0  0  0
  -22.3148  -16.9577  150.4583 O   0  0  0  0  0  0  0  0  0  0  0  0
  -24.1821  -13.0063  146.1228 C   0  0  0  0  0  0  0  0  0  0  0  0
  -25.4076  -12.7445  143.8540 C   0  0  0  0  0  0  0  0  0  0  0  0
  -31.1280  -14.1342  148.4047 O   0  0  0  0  0  0  0  0  0  0  0  0
  -31.0312  -14.0710  149.8461 C   0  0  0  0  0  0  0  0  0  0  0  0
  -32.0486  -13.3460  150.4891 C   0  0  0  0  0  0  0  0  0  0  0  0
  -32.5050  -12.1333  150.1271 C   0  0  0  0  0  0  0  0  0  0  0  0
  -32.4538  -11.1226  150.5780 C   0  0  0  0  0  0  0  0  0  0  0  0
  -33.0441   -9.8354  150.1457 C   0  0  0  0  0  0  0  0  0  0  0  0
  -34.2121  -10.0197  149.2858 C   0  0  0  0  0  0  0  0  0  0  0  0
  -34.4223  -11.3495  148.8432 C   0  0  0  0  0  0  0  0  0  0  0  0
  -33.6603  -12.3795  149.2188 C   0  0  0  0  0  0  0  0  0  0  0  0
  -24.4268  -17.4299  150.7632 O   0  0  0  0  0  0  0  0  0  0  0  0
  -23.4332  -19.4588  146.8789 O   0  0  0  0  0  0  0  0  0  0  0  0
  -30.4311  -15.2151  150.3810 C   0  0  0  0  0  0  0  0  0  0  0  0
  1  2  1  0
  2  3  2  3
  3  4  1  0
  4  5  1  0
  5  6  1  0
 11 12  1  0
  4 13  1  0
 12 13  1  0
  1 14  1  0
 14 15  1  0
 15 16  1  0
 16 17  1  0
 12 18  1  0
 17 19  1  0
 19 20  1  0
 20 21  1  0
 13 22  1  0
 13 23  1  0
  8 24  1  0
 24 25  1  0
 25 26  1  0
 26 27  1  0
 20 33  2  0
 15 34  1  0
 25 35  1  0
 27 28  2  0
 28 29  1  0
 29 30  2  0
 30 31  1  0
 31 32  2  0
 32 27  1  0
  6  7  2  0
  7  8  1  0
  8  9  2  0
  9 10  1  0
 10 11  2  0
 11  6  1  0
M  END

$$$$
No_1869-/dssg/home/sw_qyf/PocketFlow/Model-Generation-Results/5HT2A_7WC7_rec_A_10.pdb/2024-01-01-03-54-21/
     RDKit          3D

 11 12  0  0  0  0  0  0  0  0999 V2000
  -23.1746  -16.6014  144.8668 C   0  0  0  0  0  0  0  0  0  0  0  0
  -23.7011  -17.0158  145.9774 C   0  0  0  0  0  0  0  0  0  0  0  0
  -23.7336  -18.2775  146.3737 C   0  0  0  0  0  0  0  0  0  0  0  0
  -24.1960  -18.6445  147.6858 C   0  0  0  0  0  0  0  0  0  0  0  0
  -24.7100  -17.6145  148.5486 C   0  0  0  0  0  0  0  0  0  0  0  0
  -24.7929  -16.2635  148.0870 C   0  0  0  0  0  0  0  0  0  0  0  0
  -24.2508  -15.9434  146.8891 C   0  0  0  0  0  0  0  0  0  0  0  0
  -23.3214  -15.3402  144.3653 N   0  0  0  0  0  0  0  0  0  0  0  0
  -24.0103  -14.2873  144.9515 C   0  0  0  0  0  0  0  0  0  0  0  0
  -24.4201  -14.5421  146.3528 C   0  0  0  0  0  0  0  0  0  0  0  0
  -23.3740  -13.1491  144.9152 F   0  0  0  0  0  0  0  0  0  0  0  0
  9 11  1  0
  2  3  1  0
  3  4  2  0
  4  5  1  0
  5  6  2  0
  6  7  1  0
  1  2  2  0
  2  7  1  0
  7 10  2  0
 10  9  1  0
  9  8  2  0
  8  1  1  0
M  END

$$$$
No_1870-/dssg/home/sw_qyf/PocketFlow/Model-Generation-Results/5HT2A_7WC7_rec_A_10.pdb/2024-01-01-03-54-21/
     RDKit          3D

 28 29  0  0  0  0  0  0  0  0999 V2000
  -24.1553  -17.8465  145.7021 C   0  0  0  0  0  0  0  0  0  0  0  0
  -24.2856  -16.6364  145.3494 C   0  0  0  0  0  0  0  0  0  0  0  0
  -25.0033  -15.6772  146.0737 C   0  0  0  0  0  0  0  0  0  0  0  0
  -25.6964  -16.1810  147.2049 C   0  0  0  0  0  0  0  0  0  0  0  0
  -24.8143  -18.3454  146.8324 C   0  0  0  0  0  0  0  0  0  0  0  0
  -25.5291  -17.4614  147.6373 C   0  0  0  0  0  0  0  0  0  0  0  0
  -23.7222  -15.8595  144.2449 N   0  0  0  0  0  0  0  0  0  0  0  0
  -25.1394  -14.2645  145.5717 C   0  0  0  0  0  0  0  0  0  0  0  0
  -25.7422  -13.3428  146.4436 C   0  0  0  0  0  0  0  0  0  0  0  0
  -24.3427  -14.0291  144.4622 C   0  0  0  0  0  0  0  0  0  0  0  0
  -22.3051  -15.5171  144.5184 C   0  0  0  0  0  0  0  0  0  0  0  0
  -26.0584  -12.0848  145.7384 C   0  0  0  0  0  0  0  0  0  0  0  0
  -26.6888  -11.3060  145.8052 C   0  0  0  0  0  0  0  0  0  0  0  0
  -26.8429  -10.1332  144.9406 C   0  0  0  0  0  0  0  0  0  0  0  0
  -22.4732  -14.0369  144.3069 C   0  0  0  0  0  0  0  0  0  0  0  0
  -27.9765   -9.3375  144.8105 C   0  0  0  0  0  0  0  0  0  0  0  0
  -28.8787   -9.8518  143.8331 C   0  0  0  0  0  0  0  0  0  0  0  0
  -29.8960   -8.9534  143.3946 C   0  0  0  0  0  0  0  0  0  0  0  0
  -29.5797   -7.8718  142.6328 C   0  0  0  0  0  0  0  0  0  0  0  0
  -30.1388   -7.6969  141.2958 C   0  0  0  0  0  0  0  0  0  0  0  0
  -29.1494   -7.2481  140.2945 C   0  0  0  0  0  0  0  0  0  0  0  0
  -29.0473   -8.0544  139.1081 C   0  0  0  0  0  0  0  0  0  0  0  0
  -27.8300   -7.9348  138.4006 C   0  0  0  0  0  0  0  0  0  0  0  0
  -28.2147  -10.3885  142.5347 C   0  0  0  0  0  0  0  0  0  0  0  0
  -28.2817  -11.7825  142.2731 C   0  0  0  0  0  0  0  0  0  0  0  0
  -27.3104  -12.1855  141.2707 C   0  0  0  0  0  0  0  0  0  0  0  0
  -27.3178  -11.4886  140.0489 C   0  0  0  0  0  0  0  0  0  0  0  0
  -27.3084  -12.0504  138.9234 O   0  0  0  0  0  0  0  0  0  0  0  0
  2  7  1  0
  3  8  1  0
  8  9  1  0
  8 10  1  0
  7 11  1  0
  9 12  1  0
 12 13  1  0
 13 14  2  3
 10 15  1  0
 11 15  1  0
 14 16  1  0
 16 17  1  0
 17 18  2  3
 18 19  1  0
 19 20  1  0
 20 21  1  0
 21 22  1  0
 22 23  2  0
 17 24  1  0
 24 25  1  0
 25 26  1  0
 26 27  1  0
 27 28  1  0
  1  2  2  0
  2  3  1  0
  3  4  2  0
  4  6  1  0
  6  5  2  0
  5  1  1  0
M  END

$$$$
No_1871-/dssg/home/sw_qyf/PocketFlow/Model-Generation-Results/5HT2A_7WC7_rec_A_10.pdb/2024-01-01-03-54-21/
     RDKit          3D

 16 17  0  0  0  0  0  0  0  0999 V2000
  -23.1746  -16.6014  144.8668 C   0  0  0  0  0  0  0  0  0  0  0  0
  -23.7011  -17.0158  145.9774 C   0  0  0  0  0  0  0  0  0  0  0  0
  -24.7096  -16.6222  146.3577 C   0  0  0  0  0  0  0  0  0  0  0  0
  -25.2589  -16.9410  147.8027 C   0  0  0  0  0  0  0  0  0  0  0  0
  -26.4623  -16.4173  148.3313 C   0  0  0  0  0  0  0  0  0  0  0  0
  -23.7746  -15.4747  144.2302 C   0  0  0  0  0  0  0  0  0  0  0  0
  -24.8824  -14.8618  144.8182 C   0  0  0  0  0  0  0  0  0  0  0  0
  -25.3598  -15.4040  145.9867 C   0  0  0  0  0  0  0  0  0  0  0  0
  -27.1003  -15.3469  147.6429 C   0  0  0  0  0  0  0  0  0  0  0  0
  -26.5551  -14.8104  146.5113 C   0  0  0  0  0  0  0  0  0  0  0  0
  -27.2534  -13.7110  145.8946 C   0  0  0  0  0  0  0  0  0  0  0  0
  -28.3586  -13.1167  146.4892 C   0  0  0  0  0  0  0  0  0  0  0  0
  -28.8609  -11.8512  145.9818 C   0  0  0  0  0  0  0  0  0  0  0  0
  -28.3461  -11.3075  144.8212 C   0  0  0  0  0  0  0  0  0  0  0  0
  -28.8202  -10.1454  144.1517 C   0  0  0  0  0  0  0  0  0  0  0  0
  -28.1016   -9.5165  143.1671 C   0  0  0  0  0  0  0  0  0  0  0  0
 10 11  1  0
 11 12  2  3
 12 13  1  0
 13 14  2  3
 14 15  1  0
 15 16  1  0
  1  2  2  0
  2  3  1  0
  8  7  1  0
  7  6  2  0
  6  1  1  0
  3  4  2  0
  4  5  1  0
  5  9  2  0
  9 10  1  0
 10  8  2  0
  8  3  1  0
M  END

$$$$
No_1872-/dssg/home/sw_qyf/PocketFlow/Model-Generation-Results/5HT2A_7WC7_rec_A_10.pdb/2024-01-01-03-54-21/
     RDKit          3D

 19 20  0  0  0  0  0  0  0  0999 V2000
  -24.1553  -17.8465  145.7021 C   0  0  0  0  0  0  0  0  0  0  0  0
  -23.9795  -18.4462  146.7426 C   0  0  0  0  0  0  0  0  0  0  0  0
  -24.3577  -16.4380  145.7329 C   0  0  0  0  0  0  0  0  0  0  0  0
  -24.6120  -15.7738  146.9649 C   0  0  0  0  0  0  0  0  0  0  0  0
  -24.9231  -14.3801  146.9818 C   0  0  0  0  0  0  0  0  0  0  0  0
  -25.5408  -13.7809  147.5988 C   0  0  0  0  0  0  0  0  0  0  0  0
  -24.2189  -17.9769  148.0719 C   0  0  0  0  0  0  0  0  0  0  0  0
  -24.3834  -16.5457  148.2242 C   0  0  0  0  0  0  0  0  0  0  0  0
  -23.9799  -13.7149  145.9458 C   0  0  0  0  0  0  0  0  0  0  0  0
  -24.2933  -12.3818  145.5868 C   0  0  0  0  0  0  0  0  0  0  0  0
  -23.5315  -11.7774  144.5784 C   0  0  0  0  0  0  0  0  0  0  0  0
  -26.0677  -12.3941  147.2190 C   0  0  0  0  0  0  0  0  0  0  0  0
  -25.2649  -11.7032  146.2865 C   0  0  0  0  0  0  0  0  0  0  0  0
  -24.4481  -15.7980  144.5623 N   0  0  0  0  0  0  0  0  0  0  0  0
  -24.8281  -14.9017  144.2167 C   0  0  0  0  0  0  0  0  0  0  0  0
  -25.3333  -13.8009  144.4256 N   0  0  0  0  0  0  0  0  0  0  0  0
  -26.4982  -13.4899  143.4177 C   0  0  0  0  0  0  0  0  0  0  0  0
  -26.8772  -14.2909  142.6956 O   0  0  0  0  0  0  0  0  0  0  0  0
  -26.7164  -12.1363  143.4293 F   0  0  0  0  0  0  0  0  0  0  0  0
  4  5  1  0
  3 14  1  0
 14 15  1  0
 15 16  1  0
 16 17  1  0
 17 18  2  0
 17 19  1  0
 11 10  1  0
  5  6  2  0
  6 12  1  0
 12 13  2  0
 13 10  1  0
 10  9  2  0
  9  5  1  0
  1  2  2  0
  2  7  1  0
  7  8  2  0
  8  4  1  0
  4  3  2  0
  3  1  1  0
M  END

$$$$
No_1873-/dssg/home/sw_qyf/PocketFlow/Model-Generation-Results/5HT2A_7WC7_rec_A_10.pdb/2024-01-01-03-54-21/
     RDKit          3D

 35 38  0  0  0  0  0  0  0  0999 V2000
  -23.1746  -16.6014  144.8668 C   0  0  0  0  0  0  0  0  0  0  0  0
  -23.7011  -17.0158  145.9774 C   0  0  0  0  0  0  0  0  0  0  0  0
  -23.7336  -18.2775  146.3737 C   0  0  0  0  0  0  0  0  0  0  0  0
  -23.2769  -15.1496  144.5841 C   0  0  0  0  0  0  0  0  0  0  0  0
  -24.0862  -14.2431  145.3742 C   0  0  0  0  0  0  0  0  0  0  0  0
  -24.0511  -12.8637  145.0858 C   0  0  0  0  0  0  0  0  0  0  0  0
  -24.7790  -14.7636  146.5027 C   0  0  0  0  0  0  0  0  0  0  0  0
  -24.5921  -16.1413  146.8872 C   0  0  0  0  0  0  0  0  0  0  0  0
  -25.0040  -12.1367  145.2418 O   0  0  0  0  0  0  0  0  0  0  0  0
  -26.1918  -12.4809  145.1902 C   0  0  0  0  0  0  0  0  0  0  0  0
  -26.9288  -12.1852  144.1520 C   0  0  0  0  0  0  0  0  0  0  0  0
  -22.6615  -12.2899  144.7998 C   0  0  0  0  0  0  0  0  0  0  0  0
  -22.9281  -18.9972  146.3970 O   0  0  0  0  0  0  0  0  0  0  0  0
  -24.9472  -18.8621  146.8010 O   0  0  0  0  0  0  0  0  0  0  0  0
  -28.0791  -11.2547  144.1665 C   0  0  0  0  0  0  0  0  0  0  0  0
  -28.5696  -10.4970  143.1099 C   0  0  0  0  0  0  0  0  0  0  0  0
  -29.6752   -9.5920  143.3032 C   0  0  0  0  0  0  0  0  0  0  0  0
  -30.2113   -8.7922  142.3251 C   0  0  0  0  0  0  0  0  0  0  0  0
  -29.4793   -8.7220  141.1103 C   0  0  0  0  0  0  0  0  0  0  0  0
  -28.4243   -9.6441  140.8875 C   0  0  0  0  0  0  0  0  0  0  0  0
  -27.9539  -10.4254  141.9610 C   0  0  0  0  0  0  0  0  0  0  0  0
  -27.7988   -9.6141  139.5843 C   0  0  0  0  0  0  0  0  0  0  0  0
  -27.9330   -8.5372  138.7777 C   0  0  0  0  0  0  0  0  0  0  0  0
  -29.0264   -7.5892  139.0743 C   0  0  0  0  0  0  0  0  0  0  0  0
  -29.6711   -7.6045  140.2891 C   0  0  0  0  0  0  0  0  0  0  0  0
  -31.3678   -8.0040  142.5955 C   0  0  0  0  0  0  0  0  0  0  0  0
  -31.4004   -7.0388  143.4421 O   0  0  0  0  0  0  0  0  0  0  0  0
  -32.4419   -8.3866  142.0304 O   0  0  0  0  0  0  0  0  0  0  0  0
  -28.7652  -11.2750  145.3815 O   0  0  0  0  0  0  0  0  0  0  0  0
  -28.2958  -11.8987  146.4411 C   0  0  0  0  0  0  0  0  0  0  0  0
  -26.8784  -12.3548  146.4652 C   0  0  0  0  0  0  0  0  0  0  0  0
  -29.5416  -13.0666  147.1059 Cl  0  0  0  0  0  0  0  0  0  0  0  0
  -26.8150  -10.6148  139.2969 C   0  0  0  0  0  0  0  0  0  0  0  0
  -27.1778  -12.0006  139.1677 C   0  0  0  0  0  0  0  0  0  0  0  0
  -28.3435  -12.3568  139.4155 O   0  0  0  0  0  0  0  0  0  0  0  0
  2  3  1  0
  5  6  1  0
  6  9  1  0
  9 10  1  0
 10 11  2  0
  6 12  1  0
  3 13  2  0
  3 14  1  0
 11 15  1  0
 18 26  1  0
 26 27  1  0
 26 28  2  0
 15 29  1  0
 29 30  1  0
 10 31  1  0
 30 31  1  0
 30 32  1  0
 22 33  1  0
 33 34  1  0
 34 35  1  0
 15 16  1  0
 20 22  1  0
 22 23  2  0
 23 24  1  0
 24 25  2  0
 25 19  1  0
  1  2  2  0
  2  8  1  0
  8  7  2  0
  7  5  1  0
  5  4  2  0
  4  1  1  0
 16 17  2  0
 17 18  1  0
 18 19  2  0
 19 20  1  0
 20 21  2  0
 21 16  1  0
M  END

$$$$
No_1874-/dssg/home/sw_qyf/PocketFlow/Model-Generation-Results/5HT2A_7WC7_rec_A_10.pdb/2024-01-01-03-54-21/
     RDKit          3D

 26 28  0  0  0  0  0  0  0  0999 V2000
  -23.1746  -16.6014  144.8668 C   0  0  0  0  0  0  0  0  0  0  0  0
  -23.7011  -17.0158  145.9774 C   0  0  0  0  0  0  0  0  0  0  0  0
  -24.7096  -16.6222  146.3577 C   0  0  0  0  0  0  0  0  0  0  0  0
  -25.2589  -16.9410  147.8027 C   0  0  0  0  0  0  0  0  0  0  0  0
  -24.3234  -17.5558  148.6398 C   0  0  0  0  0  0  0  0  0  0  0  0
  -23.7919  -15.5148  144.2100 C   0  0  0  0  0  0  0  0  0  0  0  0
  -24.8968  -14.8817  144.7775 C   0  0  0  0  0  0  0  0  0  0  0  0
  -25.3730  -15.4146  145.9639 C   0  0  0  0  0  0  0  0  0  0  0  0
  -24.7003  -17.7376  150.0497 C   0  0  0  0  0  0  0  0  0  0  0  0
  -25.5630  -13.7418  144.1105 C   0  0  0  0  0  0  0  0  0  0  0  0
  -26.3044  -13.0117  144.8501 N   0  0  0  0  0  0  0  0  0  0  0  0
  -25.9843  -12.1558  145.6129 C   0  0  0  0  0  0  0  0  0  0  0  0
  -24.7489  -11.7384  145.9156 N   0  0  0  0  0  0  0  0  0  0  0  0
  -27.0030  -11.4033  146.3959 N   0  0  0  0  0  0  0  0  0  0  0  0
  -26.0500  -17.6493  150.4295 C   0  0  0  0  0  0  0  0  0  0  0  0
  -26.9446  -17.0189  149.5569 C   0  0  0  0  0  0  0  0  0  0  0  0
  -26.5018  -16.7076  148.2652 C   0  0  0  0  0  0  0  0  0  0  0  0
  -28.2238  -11.8286  146.2571 C   0  0  0  0  0  0  0  0  0  0  0  0
  -29.1428  -11.0078  145.5484 C   0  0  0  0  0  0  0  0  0  0  0  0
  -30.3013  -10.4051  146.2496 C   0  0  0  0  0  0  0  0  0  0  0  0
  -28.9659  -10.6636  144.2184 C   0  0  0  0  0  0  0  0  0  0  0  0
  -28.9336   -9.6487  143.7638 C   0  0  0  0  0  0  0  0  0  0  0  0
  -28.3852   -9.3584  142.4491 C   0  0  0  0  0  0  0  0  0  0  0  0
  -27.9601  -10.4560  141.6451 C   0  0  0  0  0  0  0  0  0  0  0  0
  -27.9363  -11.7531  142.3292 C   0  0  0  0  0  0  0  0  0  0  0  0
  -28.3547  -11.8318  143.5422 C   0  0  0  0  0  0  0  0  0  0  0  0
  3  4  1  0
  7 10  1  0
 10 11  1  0
 11 12  1  0
 12 13  1  0
 12 14  2  3
 14 18  1  0
 18 19  2  3
 19 20  1  0
 19 21  1  0
  4  5  2  0
  5  9  1  0
  9 15  2  0
 15 16  1  0
 16 17  2  0
 17  4  1  0
  1  2  2  0
  2  3  1  0
  3  8  2  0
  8  7  1  0
  7  6  2  0
  6  1  1  0
 21 22  2  0
 22 23  1  0
 23 24  2  0
 24 25  1  0
 25 26  2  0
 26 21  1  0
M  END

$$$$
No_1875-/dssg/home/sw_qyf/PocketFlow/Model-Generation-Results/5HT2A_7WC7_rec_A_10.pdb/2024-01-01-03-54-21/
     RDKit          3D

 24 25  0  0  0  0  0  0  0  0999 V2000
  -24.1553  -17.8465  145.7021 C   0  0  0  0  0  0  0  0  0  0  0  0
  -24.6364  -17.2931  146.7091 C   0  0  0  0  0  0  0  0  0  0  0  0
  -25.8608  -16.5592  146.5934 C   0  0  0  0  0  0  0  0  0  0  0  0
  -26.9933  -16.9082  147.1889 C   0  0  0  0  0  0  0  0  0  0  0  0
  -28.2114  -16.1477  146.9896 C   0  0  0  0  0  0  0  0  0  0  0  0
  -28.1869  -14.8900  146.3591 C   0  0  0  0  0  0  0  0  0  0  0  0
  -26.9306  -14.4696  145.8021 C   0  0  0  0  0  0  0  0  0  0  0  0
  -26.8093  -13.2394  145.0985 C   0  0  0  0  0  0  0  0  0  0  0  0
  -25.7312  -15.3089  145.9745 C   0  0  0  0  0  0  0  0  0  0  0  0
  -27.4064  -12.2853  145.0304 C   0  0  0  0  0  0  0  0  0  0  0  0
  -27.3519  -11.1471  144.2111 C   0  0  0  0  0  0  0  0  0  0  0  0
  -27.4281   -9.8740  144.7145 C   0  0  0  0  0  0  0  0  0  0  0  0
  -24.0151  -17.4828  148.0609 C   0  0  0  0  0  0  0  0  0  0  0  0
  -22.8133  -17.7825  147.9724 F   0  0  0  0  0  0  0  0  0  0  0  0
  -24.6437  -17.7341  149.0993 F   0  0  0  0  0  0  0  0  0  0  0  0
  -25.8152  -13.3760  143.9577 C   0  0  0  0  0  0  0  0  0  0  0  0
  -26.2623  -13.7613  142.7967 O   0  0  0  0  0  0  0  0  0  0  0  0
  -28.2438  -11.1701  142.9387 C   0  0  0  0  0  0  0  0  0  0  0  0
  -27.9222  -11.1344  141.7351 C   0  0  0  0  0  0  0  0  0  0  0  0
  -28.4355  -10.2349  140.7702 C   0  0  0  0  0  0  0  0  0  0  0  0
  -27.8021  -10.0049  139.4705 C   0  0  0  0  0  0  0  0  0  0  0  0
  -26.8817  -10.9849  139.0716 C   0  0  0  0  0  0  0  0  0  0  0  0
  -26.7124  -12.1886  139.8820 C   0  0  0  0  0  0  0  0  0  0  0  0
  -27.1329  -12.2134  141.1321 C   0  0  0  0  0  0  0  0  0  0  0  0
  1  2  1  0
  2  3  1  0
  7  8  1  0
  8 10  1  0
 10 11  2  3
 11 12  1  0
  2 13  1  0
 13 14  1  0
 13 15  1  0
  8 16  1  0
 16 17  1  0
 11 18  1  0
 18 19  1  0
  3  4  2  0
  4  5  1  0
  5  6  2  0
  6  7  1  0
  7  9  2  0
  9  3  1  0
 19 20  2  0
 20 21  1  0
 21 22  2  0
 22 23  1  0
 23 24  2  0
 24 19  1  0
M  END

$$$$
No_1876-/dssg/home/sw_qyf/PocketFlow/Model-Generation-Results/5HT2A_7WC7_rec_A_10.pdb/2024-01-01-03-54-21/
     RDKit          3D

 35 38  0  0  0  0  0  0  0  0999 V2000
  -24.1553  -17.8465  145.7021 C   0  0  0  0  0  0  0  0  0  0  0  0
  -24.2855  -16.6364  145.3494 C   0  0  0  0  0  0  0  0  0  0  0  0
  -24.7211  -15.5955  146.2116 C   0  0  0  0  0  0  0  0  0  0  0  0
  -24.8538  -14.2010  145.8739 C   0  0  0  0  0  0  0  0  0  0  0  0
  -24.1440  -13.8321  144.7073 C   0  0  0  0  0  0  0  0  0  0  0  0
  -24.0490  -12.4549  144.4543 C   0  0  0  0  0  0  0  0  0  0  0  0
  -24.6156  -18.2742  146.9602 C   0  0  0  0  0  0  0  0  0  0  0  0
  -25.1245  -17.4081  147.9306 C   0  0  0  0  0  0  0  0  0  0  0  0
  -25.2092  -15.9946  147.5609 C   0  0  0  0  0  0  0  0  0  0  0  0
  -25.0903  -11.6975  145.1870 C   0  0  0  0  0  0  0  0  0  0  0  0
  -25.7599  -12.1540  146.3366 C   0  0  0  0  0  0  0  0  0  0  0  0
  -25.6586  -13.3999  146.6541 C   0  0  0  0  0  0  0  0  0  0  0  0
  -23.9061  -16.2374  144.1118 N   0  0  0  0  0  0  0  0  0  0  0  0
  -23.5972  -14.8388  143.8961 C   0  0  0  0  0  0  0  0  0  0  0  0
  -25.2306  -10.3960  144.7350 O   0  0  0  0  0  0  0  0  0  0  0  0
  -23.7537  -18.8716  144.9019 N   0  0  0  0  0  0  0  0  0  0  0  0
  -25.4558  -17.7261  149.1875 O   0  0  0  0  0  0  0  0  0  0  0  0
  -25.4206  -16.7278  150.2512 C   0  0  0  0  0  0  0  0  0  0  0  0
  -24.3127  -17.1786  151.2395 C   0  0  0  0  0  0  0  0  0  0  0  0
  -23.1524  -16.5546  151.0895 O   0  0  0  0  0  0  0  0  0  0  0  0
  -22.1244  -17.2301  150.2811 C   0  0  0  0  0  0  0  0  0  0  0  0
  -26.4149   -9.8464  144.9889 C   0  0  0  0  0  0  0  0  0  0  0  0
  -27.0498   -9.0967  143.9590 C   0  0  0  0  0  0  0  0  0  0  0  0
  -28.2128   -9.6600  143.2997 C   0  0  0  0  0  0  0  0  0  0  0  0
  -28.5716  -10.9603  143.6216 C   0  0  0  0  0  0  0  0  0  0  0  0
  -29.0109   -8.8838  142.4326 C   0  0  0  0  0  0  0  0  0  0  0  0
  -30.2557   -8.2513  142.7194 C   0  0  0  0  0  0  0  0  0  0  0  0
  -31.0609   -7.6908  141.7435 C   0  0  0  0  0  0  0  0  0  0  0  0
  -28.7015   -8.9700  141.0289 C   0  0  0  0  0  0  0  0  0  0  0  0
  -29.1732   -8.1456  140.0645 C   0  0  0  0  0  0  0  0  0  0  0  0
  -28.6886   -8.1068  138.7609 C   0  0  0  0  0  0  0  0  0  0  0  0
  -30.4615   -7.4950  140.4341 C   0  0  0  0  0  0  0  0  0  0  0  0
  -28.4335   -7.2114  137.9494 N   0  0  0  0  0  0  0  0  0  0  0  0
  -28.3163   -9.3743  138.2345 N   0  0  0  0  0  0  0  0  0  0  0  0
  -28.1558  -11.9275  143.1033 O   0  0  0  0  0  0  0  0  0  0  0  0
  3  4  1  0
  2 13  1  0
  5 14  1  0
 13 14  1  0
 10 15  1  0
  1 16  1  0
  8 17  1  0
 17 18  1  0
 18 19  1  0
 19 20  1  0
 20 21  1  0
 15 22  1  0
 22 23  1  0
 23 24  1  0
 24 25  1  0
 24 26  1  0
 30 31  1  0
 31 33  2  0
 31 34  1  0
 25 35  2  0
  4  5  2  0
  5  6  1  0
  6 10  2  0
 10 11  1  0
 11 12  2  0
 12  4  1  0
  1  2  2  0
  2  3  1  0
  3  9  2  0
  9  8  1  0
  8  7  2  0
  7  1  1  0
 26 27  2  0
 27 28  1  0
 28 32  2  0
 32 30  1  0
 30 29  2  0
 29 26  1  0
M  END

$$$$
No_1877-/dssg/home/sw_qyf/PocketFlow/Model-Generation-Results/5HT2A_7WC7_rec_A_10.pdb/2024-01-01-03-54-21/
     RDKit          3D

 27 29  0  0  0  0  0  0  0  0999 V2000
  -24.1553  -17.8465  145.7021 C   0  0  0  0  0  0  0  0  0  0  0  0
  -24.2856  -16.6364  145.3494 C   0  0  0  0  0  0  0  0  0  0  0  0
  -25.0033  -15.6772  146.0737 C   0  0  0  0  0  0  0  0  0  0  0  0
  -25.6964  -16.1810  147.2049 C   0  0  0  0  0  0  0  0  0  0  0  0
  -24.8143  -18.3454  146.8324 C   0  0  0  0  0  0  0  0  0  0  0  0
  -25.5291  -17.4614  147.6373 C   0  0  0  0  0  0  0  0  0  0  0  0
  -23.4800  -15.9558  143.9416 Cl  0  0  0  0  0  0  0  0  0  0  0  0
  -25.1256  -14.2756  145.4819 C   0  0  0  0  0  0  0  0  0  0  0  0
  -25.6941  -13.4446  146.2668 C   0  0  0  0  0  0  0  0  0  0  0  0
  -25.7685  -12.0145  145.9065 C   0  0  0  0  0  0  0  0  0  0  0  0
  -26.9668  -11.3075  145.7193 C   0  0  0  0  0  0  0  0  0  0  0  0
  -27.6637  -11.6832  144.5969 C   0  0  0  0  0  0  0  0  0  0  0  0
  -27.7875  -10.5953  143.7023 C   0  0  0  0  0  0  0  0  0  0  0  0
  -29.0861  -10.3085  143.1881 C   0  0  0  0  0  0  0  0  0  0  0  0
  -29.1810   -9.9595  141.8391 C   0  0  0  0  0  0  0  0  0  0  0  0
  -29.8739   -8.8176  141.4323 C   0  0  0  0  0  0  0  0  0  0  0  0
  -31.0308   -8.3876  142.1767 C   0  0  0  0  0  0  0  0  0  0  0  0
  -31.0030   -8.7720  143.5712 C   0  0  0  0  0  0  0  0  0  0  0  0
  -30.0362   -9.6644  144.1198 C   0  0  0  0  0  0  0  0  0  0  0  0
  -28.5329  -10.7566  140.8772 C   0  0  0  0  0  0  0  0  0  0  0  0
  -28.4898  -12.1562  140.8764 C   0  0  0  0  0  0  0  0  0  0  0  0
  -27.7691  -12.7910  139.8130 C   0  0  0  0  0  0  0  0  0  0  0  0
  -27.0657  -11.9661  138.8704 C   0  0  0  0  0  0  0  0  0  0  0  0
  -27.7857  -10.0392  139.8562 C   0  0  0  0  0  0  0  0  0  0  0  0
  -27.1779  -10.5715  139.0212 N   0  0  0  0  0  0  0  0  0  0  0  0
  -26.3653  -12.4760  138.0288 F   0  0  0  0  0  0  0  0  0  0  0  0
  -25.8247  -14.2759  144.1261 C   0  0  0  0  0  0  0  0  0  0  0  0
  2  7  1  0
  3  8  1  0
  8  9  2  3
  9 10  1  0
 10 11  1  0
 11 12  1  0
 12 13  2  3
 13 14  1  0
 15 20  1  0
 23 26  1  0
  8 27  1  0
 14 15  1  0
 15 16  2  0
 16 17  1  0
 17 18  2  0
 18 19  1  0
 19 14  2  0
  1  2  2  0
  2  3  1  0
  3  4  2  0
  4  6  1  0
  6  5  2  0
  5  1  1  0
 20 21  2  0
 21 22  1  0
 22 23  2  0
 23 25  1  0
 25 24  2  0
 24 20  1  0
M  END

$$$$
No_1878-/dssg/home/sw_qyf/PocketFlow/Model-Generation-Results/5HT2A_7WC7_rec_A_10.pdb/2024-01-01-03-54-21/
     RDKit          3D

 12 12  0  0  0  0  0  0  0  0999 V2000
  -24.1553  -17.8465  145.7021 C   0  0  0  0  0  0  0  0  0  0  0  0
  -24.6364  -17.2931  146.7091 C   0  0  0  0  0  0  0  0  0  0  0  0
  -25.8608  -16.5592  146.5934 C   0  0  0  0  0  0  0  0  0  0  0  0
  -25.9534  -15.5604  145.6681 C   0  0  0  0  0  0  0  0  0  0  0  0
  -25.1031  -14.5122  145.9220 C   0  0  0  0  0  0  0  0  0  0  0  0
  -24.6358  -13.7519  144.9061 C   0  0  0  0  0  0  0  0  0  0  0  0
  -23.7039  -12.7706  145.0290 N   0  0  0  0  0  0  0  0  0  0  0  0
  -23.7273  -11.9869  146.1881 C   0  0  0  0  0  0  0  0  0  0  0  0
  -24.8144  -14.1372  143.6876 O   0  0  0  0  0  0  0  0  0  0  0  0
  -22.9765  -18.7116  145.8446 C   0  0  0  0  0  0  0  0  0  0  0  0
  -22.5053  -18.5904  147.1365 N   0  0  0  0  0  0  0  0  0  0  0  0
  -23.7677  -17.6449  147.9143 C   0  0  0  0  0  0  0  0  0  0  0  0
  1  2  1  0
  2  3  1  0
  3  4  1  0
  4  5  2  3
  5  6  1  0
  6  7  1  0
  7  8  1  0
  6  9  2  0
  1 10  2  0
 10 11  1  0
  2 12  1  0
 11 12  2  0
M  END

$$$$
No_1879-/dssg/home/sw_qyf/PocketFlow/Model-Generation-Results/5HT2A_7WC7_rec_A_10.pdb/2024-01-01-03-54-21/
     RDKit          3D

 12 13  0  0  0  0  0  0  0  0999 V2000
  -23.1746  -16.6014  144.8668 C   0  0  0  0  0  0  0  0  0  0  0  0
  -23.8963  -15.5346  144.7885 C   0  0  0  0  0  0  0  0  0  0  0  0
  -24.5755  -15.0383  145.9043 C   0  0  0  0  0  0  0  0  0  0  0  0
  -25.3266  -13.7882  145.9354 C   0  0  0  0  0  0  0  0  0  0  0  0
  -23.3054  -17.4825  145.9484 C   0  0  0  0  0  0  0  0  0  0  0  0
  -23.9716  -17.0786  147.1155 C   0  0  0  0  0  0  0  0  0  0  0  0
  -24.6279  -15.8542  147.1153 C   0  0  0  0  0  0  0  0  0  0  0  0
  -26.2637  -13.4206  145.9057 C   0  0  0  0  0  0  0  0  0  0  0  0
  -26.8605  -12.0862  145.9101 C   0  0  0  0  0  0  0  0  0  0  0  0
  -25.9283  -11.0792  145.6520 C   0  0  0  0  0  0  0  0  0  0  0  0
  -24.1649  -12.6413  145.8698 C   0  0  0  0  0  0  0  0  0  0  0  0
  -24.5781  -11.5191  145.5877 C   0  0  0  0  0  0  0  0  0  0  0  0
  3  4  1  0
  1  2  2  0
  2  3  1  0
  3  7  2  0
  7  6  1  0
  6  5  2  0
  5  1  1  0
  4  8  2  0
  8  9  1  0
  9 10  2  0
 10 12  1  0
 12 11  2  0
 11  4  1  0
M  END

$$$$
No_1880-/dssg/home/sw_qyf/PocketFlow/Model-Generation-Results/5HT2A_7WC7_rec_A_10.pdb/2024-01-01-03-54-21/
     RDKit          3D

 35 37  0  0  0  0  0  0  0  0999 V2000
  -23.1746  -16.6014  144.8668 C   0  0  0  0  0  0  0  0  0  0  0  0
  -23.8963  -15.5346  144.7885 C   0  0  0  0  0  0  0  0  0  0  0  0
  -25.0302  -15.2548  144.5358 C   0  0  0  0  0  0  0  0  0  0  0  0
  -25.6043  -13.9523  144.2293 C   0  0  0  0  0  0  0  0  0  0  0  0
  -26.9714  -13.7631  143.8493 C   0  0  0  0  0  0  0  0  0  0  0  0
  -27.2939  -12.4849  143.3749 C   0  0  0  0  0  0  0  0  0  0  0  0
  -27.3638  -11.4484  144.2829 C   0  0  0  0  0  0  0  0  0  0  0  0
  -26.0604  -11.1115  144.8311 C   0  0  0  0  0  0  0  0  0  0  0  0
  -25.3302  -12.0988  145.5949 C   0  0  0  0  0  0  0  0  0  0  0  0
  -25.4033  -13.1234  145.5152 C   0  0  0  0  0  0  0  0  0  0  0  0
  -28.3532  -11.6205  145.4780 C   0  0  0  0  0  0  0  0  0  0  0  0
  -29.6894  -11.4895  145.1363 C   0  0  0  0  0  0  0  0  0  0  0  0
  -30.5371  -11.6243  146.1502 O   0  0  0  0  0  0  0  0  0  0  0  0
  -23.8861  -17.6517  145.4996 C   0  0  0  0  0  0  0  0  0  0  0  0
  -23.2623  -18.8561  145.9657 C   0  0  0  0  0  0  0  0  0  0  0  0
  -22.5607  -18.5331  146.9940 O   0  0  0  0  0  0  0  0  0  0  0  0
  -29.7408  -11.3756  147.4154 C   0  0  0  0  0  0  0  0  0  0  0  0
  -28.4116  -11.8477  146.9746 C   0  0  0  0  0  0  0  0  0  0  0  0
  -30.4403  -12.3375  148.3909 C   0  0  0  0  0  0  0  0  0  0  0  0
  -31.4301  -11.9569  149.1174 O   0  0  0  0  0  0  0  0  0  0  0  0
  -32.2381  -12.7131  149.8766 C   0  0  0  0  0  0  0  0  0  0  0  0
  -32.1527  -12.5962  151.1458 C   0  0  0  0  0  0  0  0  0  0  0  0
  -32.7440  -13.5824  152.0518 C   0  0  0  0  0  0  0  0  0  0  0  0
  -32.4718  -14.7220  151.8611 C   0  0  0  0  0  0  0  0  0  0  0  0
  -32.0949  -15.1462  150.4140 C   0  0  0  0  0  0  0  0  0  0  0  0
  -31.8857  -14.0686  149.5801 C   0  0  0  0  0  0  0  0  0  0  0  0
  -23.4136  -19.9606  145.5919 O   0  0  0  0  0  0  0  0  0  0  0  0
  -27.7574  -10.0878  143.6091 C   0  0  0  0  0  0  0  0  0  0  0  0
  -27.5627   -9.1074  144.3576 F   0  0  0  0  0  0  0  0  0  0  0  0
  -28.3031  -10.0391  142.4814 N   0  0  0  0  0  0  0  0  0  0  0  0
  -28.8939   -8.9573  141.9108 C   0  0  0  0  0  0  0  0  0  0  0  0
  -29.8512   -8.1755  142.4581 C   0  0  0  0  0  0  0  0  0  0  0  0
  -31.0478   -8.7557  142.9850 C   0  0  0  0  0  0  0  0  0  0  0  0
  -31.3178   -9.8197  142.8947 O   0  0  0  0  0  0  0  0  0  0  0  0
  -31.8488   -7.9189  143.6380 O   0  0  0  0  0  0  0  0  0  0  0  0
  1  2  1  0
  2  3  2  3
  3  4  1  0
  4  5  1  0
  5  6  1  0
  6  7  1  0
  7  8  1  0
  8  9  1  0
  4 10  1  0
  9 10  1  0
  7 11  1  0
 11 12  1  0
 12 13  1  0
  1 14  1  0
 14 15  1  0
 15 16  1  0
 13 17  1  0
 11 18  1  0
 17 18  1  0
 17 19  1  0
 19 20  1  0
 20 21  1  0
 15 27  2  0
  7 28  1  0
 28 29  1  0
 28 30  2  3
 30 31  1  0
 31 32  1  0
 32 33  1  0
 33 34  2  0
 33 35  1  0
 21 22  2  0
 22 23  1  0
 23 24  2  0
 24 25  1  0
 25 26  2  0
 26 21  1  0
M  END

$$$$
No_1881-/dssg/home/sw_qyf/PocketFlow/Model-Generation-Results/5HT2A_7WC7_rec_A_10.pdb/2024-01-01-03-54-21/
     RDKit          3D

 19 19  0  0  0  0  0  0  0  0999 V2000
  -24.1553  -17.8465  145.7021 C   0  0  0  0  0  0  0  0  0  0  0  0
  -24.6364  -17.2931  146.7091 C   0  0  0  0  0  0  0  0  0  0  0  0
  -24.5709  -15.9334  146.8074 C   0  0  0  0  0  0  0  0  0  0  0  0
  -24.2379  -15.1233  145.7159 C   0  0  0  0  0  0  0  0  0  0  0  0
  -24.2498  -13.6819  145.7156 C   0  0  0  0  0  0  0  0  0  0  0  0
  -23.7380  -17.1272  144.5444 C   0  0  0  0  0  0  0  0  0  0  0  0
  -23.7524  -15.7605  144.6336 C   0  0  0  0  0  0  0  0  0  0  0  0
  -25.0005  -13.0547  145.1723 C   0  0  0  0  0  0  0  0  0  0  0  0
  -24.9965  -11.5693  145.2398 C   0  0  0  0  0  0  0  0  0  0  0  0
  -26.1467  -11.0231  144.7812 C   0  0  0  0  0  0  0  0  0  0  0  0
  -27.2883  -11.4379  144.9841 C   0  0  0  0  0  0  0  0  0  0  0  0
  -28.4278  -10.7464  144.4240 C   0  0  0  0  0  0  0  0  0  0  0  0
  -28.5316  -10.1462  143.2563 C   0  0  0  0  0  0  0  0  0  0  0  0
  -29.3586   -9.0492  142.9990 C   0  0  0  0  0  0  0  0  0  0  0  0
  -29.2072   -8.2697  141.8123 C   0  0  0  0  0  0  0  0  0  0  0  0
  -29.8623   -6.9861  141.6217 C   0  0  0  0  0  0  0  0  0  0  0  0
  -29.1985   -6.1802  140.7096 C   0  0  0  0  0  0  0  0  0  0  0  0
  -29.7266  -10.6593  145.2094 C   0  0  0  0  0  0  0  0  0  0  0  0
  -29.7278  -11.2623  146.4008 O   0  0  0  0  0  0  0  0  0  0  0  0
  4  5  1  0
  5  8  2  3
  8  9  1  0
  9 10  1  0
 10 11  1  0
 11 12  1  0
 12 13  1  0
 13 14  2  3
 14 15  1  0
 15 16  1  0
 16 17  1  0
 12 18  1  0
 18 19  1  0
  1  2  2  0
  2  3  1  0
  3  4  2  0
  4  7  1  0
  7  6  2  0
  6  1  1  0
M  END

$$$$
No_1882-/dssg/home/sw_qyf/PocketFlow/Model-Generation-Results/5HT2A_7WC7_rec_A_10.pdb/2024-01-01-03-54-21/
     RDKit          3D

 22 24  0  0  0  0  0  0  0  0999 V2000
  -24.1553  -17.8465  145.7021 C   0  0  0  0  0  0  0  0  0  0  0  0
  -24.2856  -16.6364  145.3494 C   0  0  0  0  0  0  0  0  0  0  0  0
  -25.0033  -15.6772  146.0737 C   0  0  0  0  0  0  0  0  0  0  0  0
  -25.6964  -16.1810  147.2049 C   0  0  0  0  0  0  0  0  0  0  0  0
  -24.8143  -18.3454  146.8324 C   0  0  0  0  0  0  0  0  0  0  0  0
  -25.5291  -17.4614  147.6373 C   0  0  0  0  0  0  0  0  0  0  0  0
  -23.5978  -16.0422  144.1195 C   0  0  0  0  0  0  0  0  0  0  0  0
  -24.0691  -15.0409  143.5925 O   0  0  0  0  0  0  0  0  0  0  0  0
  -22.6863  -16.7478  143.6689 O   0  0  0  0  0  0  0  0  0  0  0  0
  -25.1631  -14.2328  145.8135 C   0  0  0  0  0  0  0  0  0  0  0  0
  -24.6959  -13.8791  144.5647 C   0  0  0  0  0  0  0  0  0  0  0  0
  -26.5205  -13.7642  146.1410 C   0  0  0  0  0  0  0  0  0  0  0  0
  -27.5935  -14.3936  146.3821 C   0  0  0  0  0  0  0  0  0  0  0  0
  -28.8980  -13.8734  146.4396 C   0  0  0  0  0  0  0  0  0  0  0  0
  -29.0061  -12.4423  146.3295 C   0  0  0  0  0  0  0  0  0  0  0  0
  -30.2699  -11.7553  146.3485 C   0  0  0  0  0  0  0  0  0  0  0  0
  -27.8103  -11.6442  146.0021 C   0  0  0  0  0  0  0  0  0  0  0  0
  -26.5491  -12.3345  146.0450 C   0  0  0  0  0  0  0  0  0  0  0  0
  -30.8179  -11.7476  147.5180 O   0  0  0  0  0  0  0  0  0  0  0  0
  -30.4257  -10.9158  145.4756 O   0  0  0  0  0  0  0  0  0  0  0  0
  -24.1866  -13.5376  146.9491 C   0  0  0  0  0  0  0  0  0  0  0  0
  -29.9053  -14.6920  146.9753 C   0  0  0  0  0  0  0  0  0  0  0  0
  2  7  1  0
  7  8  1  0
  7  9  2  0
  3 10  1  0
  8 11  1  0
 10 11  1  0
 10 12  1  0
 15 16  1  0
 16 19  1  0
 16 20  2  0
 10 21  1  0
 14 22  1  0
 12 13  2  0
 13 14  1  0
 14 15  2  0
 15 17  1  0
 17 18  2  0
 18 12  1  0
  1  2  2  0
  2  3  1  0
  3  4  2  0
  4  6  1  0
  6  5  2  0
  5  1  1  0
M  END

$$$$
No_1883-/dssg/home/sw_qyf/PocketFlow/Model-Generation-Results/5HT2A_7WC7_rec_A_10.pdb/2024-01-01-03-54-21/
     RDKit          3D

 18 18  0  0  0  0  0  0  0  0999 V2000
  -23.1746  -16.6014  144.8668 C   0  0  0  0  0  0  0  0  0  0  0  0
  -23.7011  -17.0158  145.9774 C   0  0  0  0  0  0  0  0  0  0  0  0
  -23.7336  -18.2775  146.3737 C   0  0  0  0  0  0  0  0  0  0  0  0
  -23.2769  -15.1496  144.5841 C   0  0  0  0  0  0  0  0  0  0  0  0
  -24.0283  -14.2099  145.3704 C   0  0  0  0  0  0  0  0  0  0  0  0
  -24.6472  -14.7123  146.5451 C   0  0  0  0  0  0  0  0  0  0  0  0
  -24.4752  -16.0939  146.8993 C   0  0  0  0  0  0  0  0  0  0  0  0
  -24.0004  -12.7754  145.0807 C   0  0  0  0  0  0  0  0  0  0  0  0
  -23.6096  -12.1430  146.0219 F   0  0  0  0  0  0  0  0  0  0  0  0
  -23.0969  -12.6326  144.0279 F   0  0  0  0  0  0  0  0  0  0  0  0
  -25.1708  -12.4602  144.6317 F   0  0  0  0  0  0  0  0  0  0  0  0
  -22.5484  -19.0681  146.3768 Cl  0  0  0  0  0  0  0  0  0  0  0  0
  -24.8543  -18.9026  146.8114 F   0  0  0  0  0  0  0  0  0  0  0  0
  -25.0141  -16.5027  147.9836 F   0  0  0  0  0  0  0  0  0  0  0  0
  -25.2545  -13.8864  147.3526 O   0  0  0  0  0  0  0  0  0  0  0  0
  -26.3082  -13.1298  146.6781 C   0  0  0  0  0  0  0  0  0  0  0  0
  -26.7337  -13.0255  145.7229 C   0  0  0  0  0  0  0  0  0  0  0  0
  -28.1389  -13.4239  145.3743 C   0  0  0  0  0  0  0  0  0  0  0  0
  2  3  1  0
  5  8  1  0
  8  9  1  0
  8 10  1  0
  8 11  1  0
  3 12  1  0
  3 13  1  0
  7 14  1  0
  6 15  1  0
 15 16  1  0
 16 17  2  3
 17 18  1  0
  1  2  2  0
  2  7  1  0
  7  6  2  0
  6  5  1  0
  5  4  2  0
  4  1  1  0
M  END

$$$$
No_1884-/dssg/home/sw_qyf/PocketFlow/Model-Generation-Results/5HT2A_7WC7_rec_A_10.pdb/2024-01-01-03-54-21/
     RDKit          3D

 35 39  0  0  0  0  0  0  0  0999 V2000
  -24.1553  -17.8465  145.7021 C   0  0  0  0  0  0  0  0  0  0  0  0
  -23.9795  -18.4462  146.7426 C   0  0  0  0  0  0  0  0  0  0  0  0
  -25.1593  -16.8262  145.6925 C   0  0  0  0  0  0  0  0  0  0  0  0
  -25.9346  -16.5763  146.8154 C   0  0  0  0  0  0  0  0  0  0  0  0
  -25.6041  -17.2802  147.9650 C   0  0  0  0  0  0  0  0  0  0  0  0
  -24.6016  -18.1919  147.9827 C   0  0  0  0  0  0  0  0  0  0  0  0
  -27.0252  -15.5531  146.7776 C   0  0  0  0  0  0  0  0  0  0  0  0
  -28.3001  -15.8883  147.1425 C   0  0  0  0  0  0  0  0  0  0  0  0
  -29.3230  -14.9107  147.1915 C   0  0  0  0  0  0  0  0  0  0  0  0
  -29.0453  -13.5468  146.9126 C   0  0  0  0  0  0  0  0  0  0  0  0
  -27.7101  -13.2005  146.4426 C   0  0  0  0  0  0  0  0  0  0  0  0
  -26.7156  -14.1614  146.4887 C   0  0  0  0  0  0  0  0  0  0  0  0
  -30.0606  -12.4807  146.9901 C   0  0  0  0  0  0  0  0  0  0  0  0
  -29.9903  -11.4187  146.2378 O   0  0  0  0  0  0  0  0  0  0  0  0
  -30.7744  -12.4404  148.1024 O   0  0  0  0  0  0  0  0  0  0  0  0
  -29.0466  -11.1880  145.3039 C   0  0  0  0  0  0  0  0  0  0  0  0
  -29.1834  -10.0765  144.4118 C   0  0  0  0  0  0  0  0  0  0  0  0
  -28.3591   -9.8390  143.3989 C   0  0  0  0  0  0  0  0  0  0  0  0
  -27.2307  -10.7762  143.3120 C   0  0  0  0  0  0  0  0  0  0  0  0
  -27.1354  -11.8791  144.1696 C   0  0  0  0  0  0  0  0  0  0  0  0
  -28.0117  -12.0459  145.1263 C   0  0  0  0  0  0  0  0  0  0  0  0
  -28.5170   -8.8680  142.5751 N   0  0  0  0  0  0  0  0  0  0  0  0
  -29.6421   -8.5718  141.8472 C   0  0  0  0  0  0  0  0  0  0  0  0
  -29.4526   -7.5733  140.8017 C   0  0  0  0  0  0  0  0  0  0  0  0
  -29.4137   -6.2660  141.0719 C   0  0  0  0  0  0  0  0  0  0  0  0
  -29.2019   -7.9883  139.4663 C   0  0  0  0  0  0  0  0  0  0  0  0
  -29.6455   -5.7494  142.4864 C   0  0  0  0  0  0  0  0  0  0  0  0
  -27.9753   -7.8539  138.8603 C   0  0  0  0  0  0  0  0  0  0  0  0
  -27.8532   -8.8573  137.8659 C   0  0  0  0  0  0  0  0  0  0  0  0
  -29.0799   -4.5032  142.8153 C   0  0  0  0  0  0  0  0  0  0  0  0
  -28.4580   -3.7324  141.9067 C   0  0  0  0  0  0  0  0  0  0  0  0
  -29.0452   -3.6316  140.6182 C   0  0  0  0  0  0  0  0  0  0  0  0
  -30.5680   -9.4250  141.7473 O   0  0  0  0  0  0  0  0  0  0  0  0
  -29.5235   -5.0076  140.2064 C   0  0  0  0  0  0  0  0  0  0  0  0
  -28.7872   -8.8471  136.7412 C   0  0  0  0  0  0  0  0  0  0  0  0
  4  7  1  0
 10 13  1  0
 13 14  1  0
 13 15  2  0
 14 16  1  0
 11 21  1  0
 18 22  1  0
 22 23  1  0
 23 24  1  0
 24 26  1  0
 26 28  1  0
 28 29  1  0
 23 33  2  0
 29 35  1  0
 24 25  1  0
 25 27  2  0
 27 30  1  0
 30 31  2  0
 31 32  1  0
 32 34  2  0
 34 25  1  0
  1  2  2  0
  2  6  1  0
  6  5  2  0
  5  4  1  0
  4  3  2  0
  3  1  1  0
  7  8  2  0
  8  9  1  0
  9 10  2  0
 10 11  1  0
 11 12  2  0
 12  7  1  0
 16 17  2  0
 17 18  1  0
 18 19  2  0
 19 20  1  0
 20 21  2  0
 21 16  1  0
M  END

$$$$
No_1885-/dssg/home/sw_qyf/PocketFlow/Model-Generation-Results/5HT2A_7WC7_rec_A_10.pdb/2024-01-01-03-54-21/
     RDKit          3D

 23 25  0  0  0  0  0  0  0  0999 V2000
  -24.1553  -17.8465  145.7021 C   0  0  0  0  0  0  0  0  0  0  0  0
  -24.6364  -17.2931  146.7091 C   0  0  0  0  0  0  0  0  0  0  0  0
  -24.5709  -15.9334  146.8074 C   0  0  0  0  0  0  0  0  0  0  0  0
  -24.3883  -15.1807  145.6115 C   0  0  0  0  0  0  0  0  0  0  0  0
  -25.0872  -14.4395  145.1343 C   0  0  0  0  0  0  0  0  0  0  0  0
  -26.2530  -13.8697  145.6753 C   0  0  0  0  0  0  0  0  0  0  0  0
  -23.6521  -17.1779  144.5666 C   0  0  0  0  0  0  0  0  0  0  0  0
  -23.9819  -15.8293  144.4972 C   0  0  0  0  0  0  0  0  0  0  0  0
  -26.9893  -14.2210  146.5030 C   0  0  0  0  0  0  0  0  0  0  0  0
  -28.2134  -13.6211  147.0303 C   0  0  0  0  0  0  0  0  0  0  0  0
  -28.5816  -12.4266  146.4442 C   0  0  0  0  0  0  0  0  0  0  0  0
  -27.8616  -11.9153  145.3648 C   0  0  0  0  0  0  0  0  0  0  0  0
  -26.6775  -12.5380  144.9887 C   0  0  0  0  0  0  0  0  0  0  0  0
  -29.8575  -11.7486  146.9435 C   0  0  0  0  0  0  0  0  0  0  0  0
  -30.2992  -10.7246  146.3134 O   0  0  0  0  0  0  0  0  0  0  0  0
  -30.4887  -12.1944  147.9716 O   0  0  0  0  0  0  0  0  0  0  0  0
  -24.9057  -13.7978  143.7770 N   0  0  0  0  0  0  0  0  0  0  0  0
  -23.8505  -19.3626  145.7362 C   0  0  0  0  0  0  0  0  0  0  0  0
  -22.7585  -19.8191  146.0346 O   0  0  0  0  0  0  0  0  0  0  0  0
  -24.9341  -20.0988  145.9589 O   0  0  0  0  0  0  0  0  0  0  0  0
  -24.0323  -13.9905  143.0891 N   0  0  0  0  0  0  0  0  0  0  0  0
  -23.6043  -15.2028  143.2748 C   0  0  0  0  0  0  0  0  0  0  0  0
  -28.2695  -10.4759  144.5545 Cl  0  0  0  0  0  0  0  0  0  0  0  0
  5  6  1  0
 11 14  1  0
 14 15  1  0
 14 16  2  0
  1 18  1  0
 18 19  2  0
 18 20  1  0
 12 23  1  0
  4  5  1  0
  5 17  2  0
 17 21  1  0
 21 22  2  0
 22  8  1  0
  1  2  2  0
  2  3  1  0
  3  4  2  0
  4  8  1  0
  8  7  2  0
  7  1  1  0
  6  9  2  0
  9 10  1  0
 10 11  2  0
 11 12  1  0
 12 13  2  0
 13  6  1  0
M  END

$$$$
No_1886-/dssg/home/sw_qyf/PocketFlow/Model-Generation-Results/5HT2A_7WC7_rec_A_10.pdb/2024-01-01-03-54-21/
     RDKit          3D

 30 33  0  0  0  0  0  0  0  0999 V2000
  -23.1746  -16.6014  144.8668 C   0  0  0  0  0  0  0  0  0  0  0  0
  -23.7011  -17.0158  145.9774 C   0  0  0  0  0  0  0  0  0  0  0  0
  -23.7336  -18.2775  146.3737 C   0  0  0  0  0  0  0  0  0  0  0  0
  -23.2769  -15.1496  144.5841 C   0  0  0  0  0  0  0  0  0  0  0  0
  -24.6038  -14.4663  144.6805 C   0  0  0  0  0  0  0  0  0  0  0  0
  -25.3209  -14.9296  145.8549 C   0  0  0  0  0  0  0  0  0  0  0  0
  -26.5113  -14.2163  146.2248 C   0  0  0  0  0  0  0  0  0  0  0  0
  -26.5848  -12.8465  145.9705 C   0  0  0  0  0  0  0  0  0  0  0  0
  -25.5201  -12.0892  145.7411 C   0  0  0  0  0  0  0  0  0  0  0  0
  -25.5735  -10.9206  145.1839 C   0  0  0  0  0  0  0  0  0  0  0  0
  -25.2546  -16.4667  146.2101 C   0  0  0  0  0  0  0  0  0  0  0  0
  -26.8436  -10.3702  144.6817 C   0  0  0  0  0  0  0  0  0  0  0  0
  -27.9934  -11.1488  144.8993 C   0  0  0  0  0  0  0  0  0  0  0  0
  -29.2745  -10.6356  144.5356 C   0  0  0  0  0  0  0  0  0  0  0  0
  -27.8823  -12.3978  145.4793 C   0  0  0  0  0  0  0  0  0  0  0  0
  -29.5311  -10.3925  143.4334 O   0  0  0  0  0  0  0  0  0  0  0  0
  -28.7958  -10.2854  142.4672 C   0  0  0  0  0  0  0  0  0  0  0  0
  -28.8138   -9.0821  141.7020 C   0  0  0  0  0  0  0  0  0  0  0  0
  -28.4916   -9.0470  140.3074 C   0  0  0  0  0  0  0  0  0  0  0  0
  -28.6693   -7.9507  139.4703 C   0  0  0  0  0  0  0  0  0  0  0  0
  -29.3587   -6.8275  140.1177 C   0  0  0  0  0  0  0  0  0  0  0  0
  -29.6708   -6.8119  141.4949 C   0  0  0  0  0  0  0  0  0  0  0  0
  -29.4051   -7.9749  142.2583 C   0  0  0  0  0  0  0  0  0  0  0  0
  -30.1307  -10.5778  145.5722 F   0  0  0  0  0  0  0  0  0  0  0  0
  -28.3577   -7.9457  138.1485 C   0  0  0  0  0  0  0  0  0  0  0  0
  -24.3698  -18.6259  147.3078 O   0  0  0  0  0  0  0  0  0  0  0  0
  -22.8593  -19.1057  145.9144 O   0  0  0  0  0  0  0  0  0  0  0  0
  -27.5302  -14.8457  147.0620 C   0  0  0  0  0  0  0  0  0  0  0  0
  -27.6099  -16.2397  147.0882 C   0  0  0  0  0  0  0  0  0  0  0  0
  -26.8426  -17.0183  146.4413 C   0  0  0  0  0  0  0  0  0  0  0  0
  1  2  1  0
  2  3  1  0
  1  4  1  0
  4  5  1  0
  5  6  1  0
  7  8  1  0
  2 11  1  0
 13 14  1  0
 14 16  1  0
 16 17  1  0
 14 24  1  0
 20 25  1  0
  3 26  2  0
  3 27  1  0
 17 18  1  0
  8  9  2  0
  9 10  1  0
 10 12  2  0
 12 13  1  0
 13 15  2  0
 15  8  1  0
  6  7  2  0
  7 28  1  0
 28 29  2  0
 29 30  1  0
 30 11  2  0
 11  6  1  0
 18 19  2  0
 19 20  1  0
 20 21  2  0
 21 22  1  0
 22 23  2  0
 23 18  1  0
M  END

$$$$
No_1887-/dssg/home/sw_qyf/PocketFlow/Model-Generation-Results/5HT2A_7WC7_rec_A_10.pdb/2024-01-01-03-54-21/
     RDKit          3D

 14 14  0  0  0  0  0  0  0  0999 V2000
  -24.1553  -17.8465  145.7021 C   0  0  0  0  0  0  0  0  0  0  0  0
  -24.6364  -17.2931  146.7091 C   0  0  0  0  0  0  0  0  0  0  0  0
  -24.0780  -17.2921  147.9389 C   0  0  0  0  0  0  0  0  0  0  0  0
  -24.6869  -16.7003  149.1440 C   0  0  0  0  0  0  0  0  0  0  0  0
  -24.2301  -16.9781  150.4264 C   0  0  0  0  0  0  0  0  0  0  0  0
  -25.9017  -16.5979  146.5402 C   0  0  0  0  0  0  0  0  0  0  0  0
  -26.1372  -15.3087  146.7860 C   0  0  0  0  0  0  0  0  0  0  0  0
  -27.6088  -15.1133  146.6688 C   0  0  0  0  0  0  0  0  0  0  0  0
  -28.4549  -16.2036  146.7875 C   0  0  0  0  0  0  0  0  0  0  0  0
  -27.0448  -17.4445  146.3918 C   0  0  0  0  0  0  0  0  0  0  0  0
  -28.0819  -13.7150  146.8872 C   0  0  0  0  0  0  0  0  0  0  0  0
  -29.3787  -13.3440  147.4083 C   0  0  0  0  0  0  0  0  0  0  0  0
  -29.6915  -11.9740  147.3903 C   0  0  0  0  0  0  0  0  0  0  0  0
  -31.0804  -11.6600  147.4179 C   0  0  0  0  0  0  0  0  0  0  0  0
  1  2  1  0
  2  3  1  0
  3  4  2  3
  4  5  1  0
  2  6  1  0
  6  7  2  0
  7  8  1  0
  8  9  1  0
  6 10  1  0
  9 10  1  0
  8 11  1  0
 11 12  2  3
 12 13  1  0
 13 14  2  0
M  END

$$$$
No_1888-/dssg/home/sw_qyf/PocketFlow/Model-Generation-Results/5HT2A_7WC7_rec_A_10.pdb/2024-01-01-03-54-21/
     RDKit          3D

 35 35  0  0  0  0  0  0  0  0999 V2000
  -24.1553  -17.8465  145.7021 C   0  0  0  0  0  0  0  0  0  0  0  0
  -24.6364  -17.2931  146.7091 C   0  0  0  0  0  0  0  0  0  0  0  0
  -25.8608  -16.5592  146.5934 C   0  0  0  0  0  0  0  0  0  0  0  0
  -26.9933  -16.9082  147.1889 C   0  0  0  0  0  0  0  0  0  0  0  0
  -28.2114  -16.1477  146.9896 C   0  0  0  0  0  0  0  0  0  0  0  0
  -28.1869  -14.8900  146.3591 C   0  0  0  0  0  0  0  0  0  0  0  0
  -26.9306  -14.4696  145.8021 C   0  0  0  0  0  0  0  0  0  0  0  0
  -25.7608  -15.2964  145.9443 C   0  0  0  0  0  0  0  0  0  0  0  0
  -26.8039  -13.1572  145.1459 C   0  0  0  0  0  0  0  0  0  0  0  0
  -26.7401  -13.1612  143.8598 C   0  0  0  0  0  0  0  0  0  0  0  0
  -27.6996  -13.2010  143.0925 C   0  0  0  0  0  0  0  0  0  0  0  0
  -27.3458  -13.2186  141.5824 C   0  0  0  0  0  0  0  0  0  0  0  0
  -28.0217  -12.3066  140.6720 C   0  0  0  0  0  0  0  0  0  0  0  0
  -27.5257  -12.1848  139.3340 C   0  0  0  0  0  0  0  0  0  0  0  0
  -24.6905  -18.2963  147.9510 C   0  0  0  0  0  0  0  0  0  0  0  0
  -28.2522  -11.4229  138.4704 C   0  0  0  0  0  0  0  0  0  0  0  0
  -23.5596  -16.9101  144.6674 C   0  0  0  0  0  0  0  0  0  0  0  0
  -23.1606  -15.7807  145.1837 O   0  0  0  0  0  0  0  0  0  0  0  0
  -27.6570  -11.2116  137.1761 C   0  0  0  0  0  0  0  0  0  0  0  0
  -28.7026  -11.3846  136.1511 C   0  0  0  0  0  0  0  0  0  0  0  0
  -23.1269  -18.9464  146.0184 C   0  0  0  0  0  0  0  0  0  0  0  0
  -26.2812  -12.5311  139.1318 O   0  0  0  0  0  0  0  0  0  0  0  0
  -28.9882  -10.9521  135.2700 N   0  0  0  0  0  0  0  0  0  0  0  0
  -24.6957  -17.4715  149.3969 C   0  0  0  0  0  0  0  0  0  0  0  0
  -25.6064  -17.7982  150.3424 C   0  0  0  0  0  0  0  0  0  0  0  0
  -26.7735  -17.5189  150.1491 O   0  0  0  0  0  0  0  0  0  0  0  0
  -25.1892  -17.9898  151.5916 O   0  0  0  0  0  0  0  0  0  0  0  0
  -23.3091  -20.1286  145.4179 O   0  0  0  0  0  0  0  0  0  0  0  0
  -23.4325  -14.5570  144.4234 C   0  0  0  0  0  0  0  0  0  0  0  0
  -22.8451  -13.3347  145.0550 C   0  0  0  0  0  0  0  0  0  0  0  0
  -23.1208  -12.1404  144.5439 C   0  0  0  0  0  0  0  0  0  0  0  0
  -22.3427  -11.1491  145.4510 C   0  0  0  0  0  0  0  0  0  0  0  0
  -27.0382  -11.9881  145.9795 C   0  0  0  0  0  0  0  0  0  0  0  0
  -28.2165  -11.7834  146.9148 Cl  0  0  0  0  0  0  0  0  0  0  0  0
  -26.0772  -11.0360  145.9708 O   0  0  0  0  0  0  0  0  0  0  0  0
  1  2  1  0
  2  3  1  0
  7  9  1  0
  9 10  1  0
 10 11  1  0
 11 12  1  0
 12 13  1  0
 13 14  1  0
  2 15  1  0
 14 16  1  0
  1 17  1  0
 17 18  1  0
 16 19  2  3
 19 20  1  0
  1 21  1  0
 14 22  2  0
 20 23  3  0
 15 24  1  0
 24 25  1  0
 25 26  2  0
 25 27  1  0
 21 28  1  0
 18 29  1  0
 29 30  1  0
 30 31  2  3
 31 32  1  0
  9 33  1  0
 33 34  1  0
 33 35  1  0
  3  4  2  0
  4  5  1  0
  5  6  2  0
  6  7  1  0
  7  8  2  0
  8  3  1  0
M  END

$$$$
No_1889-/dssg/home/sw_qyf/PocketFlow/Model-Generation-Results/5HT2A_7WC7_rec_A_10.pdb/2024-01-01-03-54-21/
     RDKit          3D

 29 31  0  0  0  0  0  0  0  0999 V2000
  -24.1553  -17.8465  145.7021 C   0  0  0  0  0  0  0  0  0  0  0  0
  -24.2856  -16.6364  145.3494 C   0  0  0  0  0  0  0  0  0  0  0  0
  -23.7824  -15.9602  144.3554 C   0  0  0  0  0  0  0  0  0  0  0  0
  -24.0538  -14.4894  144.2905 C   0  0  0  0  0  0  0  0  0  0  0  0
  -23.0052  -13.6036  144.7731 C   0  0  0  0  0  0  0  0  0  0  0  0
  -24.0442  -18.3473  146.9110 C   0  0  0  0  0  0  0  0  0  0  0  0
  -24.4015  -17.5358  148.0527 C   0  0  0  0  0  0  0  0  0  0  0  0
  -24.8063  -16.1666  147.7436 C   0  0  0  0  0  0  0  0  0  0  0  0
  -24.5912  -15.6210  146.5038 C   0  0  0  0  0  0  0  0  0  0  0  0
  -23.4686  -12.2907  145.3153 C   0  0  0  0  0  0  0  0  0  0  0  0
  -24.8337  -12.2376  145.7677 C   0  0  0  0  0  0  0  0  0  0  0  0
  -25.5336  -11.2449  145.3495 C   0  0  0  0  0  0  0  0  0  0  0  0
  -26.9754  -11.1067  145.7333 C   0  0  0  0  0  0  0  0  0  0  0  0
  -27.8448  -10.3184  144.9928 C   0  0  0  0  0  0  0  0  0  0  0  0
  -29.2713  -10.4907  145.1249 C   0  0  0  0  0  0  0  0  0  0  0  0
  -29.7042  -11.3020  146.2667 C   0  0  0  0  0  0  0  0  0  0  0  0
  -28.8163  -12.0318  147.0498 C   0  0  0  0  0  0  0  0  0  0  0  0
  -27.4120  -11.9670  146.7262 C   0  0  0  0  0  0  0  0  0  0  0  0
  -30.1664   -9.7400  144.4887 N   0  0  0  0  0  0  0  0  0  0  0  0
  -30.2508   -9.7332  143.1472 C   0  0  0  0  0  0  0  0  0  0  0  0
  -31.1825   -8.8412  142.5382 C   0  0  0  0  0  0  0  0  0  0  0  0
  -30.4665   -7.8159  141.6298 C   0  0  0  0  0  0  0  0  0  0  0  0
  -29.6520   -8.2492  140.6048 C   0  0  0  0  0  0  0  0  0  0  0  0
  -29.7154   -7.6928  139.3890 C   0  0  0  0  0  0  0  0  0  0  0  0
  -28.8149   -8.1244  138.3817 C   0  0  0  0  0  0  0  0  0  0  0  0
  -27.8951   -9.1594  138.6550 C   0  0  0  0  0  0  0  0  0  0  0  0
  -27.8033   -9.6473  140.0300 C   0  0  0  0  0  0  0  0  0  0  0  0
  -28.7185   -9.1511  141.0228 C   0  0  0  0  0  0  0  0  0  0  0  0
  -29.4164  -10.3903  142.4282 O   0  0  0  0  0  0  0  0  0  0  0  0
  2  3  1  0
  3  4  1  0
  4  5  1  0
  5 10  1  0
 10 11  1  0
 11 12  2  3
 12 13  1  0
 15 19  1  0
 19 20  1  0
 20 21  1  0
 21 22  1  0
 22 23  1  0
 20 29  2  0
 13 14  2  0
 14 15  1  0
 15 16  2  0
 16 17  1  0
 17 18  2  0
 18 13  1  0
  1  2  2  0
  2  9  1  0
  9  8  2  0
  8  7  1  0
  7  6  2  0
  6  1  1  0
 23 24  2  0
 24 25  1  0
 25 26  2  0
 26 27  1  0
 27 28  2  0
 28 23  1  0
M  END

$$$$
No_1890-/dssg/home/sw_qyf/PocketFlow/Model-Generation-Results/5HT2A_7WC7_rec_A_10.pdb/2024-01-01-03-54-21/
     RDKit          3D

 14 14  0  0  0  0  0  0  0  0999 V2000
  -23.1746  -16.6014  144.8668 C   0  0  0  0  0  0  0  0  0  0  0  0
  -23.8963  -15.5346  144.7885 C   0  0  0  0  0  0  0  0  0  0  0  0
  -25.3063  -15.4625  144.8521 C   0  0  0  0  0  0  0  0  0  0  0  0
  -25.9937  -16.4907  145.5509 C   0  0  0  0  0  0  0  0  0  0  0  0
  -23.8954  -17.6910  145.6328 C   0  0  0  0  0  0  0  0  0  0  0  0
  -23.1714  -18.8718  146.0269 C   0  0  0  0  0  0  0  0  0  0  0  0
  -27.3560  -16.3434  145.8609 C   0  0  0  0  0  0  0  0  0  0  0  0
  -25.2539  -17.5990  145.8878 C   0  0  0  0  0  0  0  0  0  0  0  0
  -27.8007  -15.0246  146.3685 C   0  0  0  0  0  0  0  0  0  0  0  0
  -28.9306  -14.8567  147.1601 C   0  0  0  0  0  0  0  0  0  0  0  0
  -29.4174  -13.5619  147.5003 C   0  0  0  0  0  0  0  0  0  0  0  0
  -28.7638  -12.4339  146.9020 C   0  0  0  0  0  0  0  0  0  0  0  0
  -27.6487  -12.6020  146.1091 C   0  0  0  0  0  0  0  0  0  0  0  0
  -26.9506  -11.4949  145.5821 C   0  0  0  0  0  0  0  0  0  0  0  0
  5  6  1  0
  7  9  1  0
  9 10  2  3
 10 11  1  0
 11 12  2  3
 12 13  1  0
 13 14  1  0
  7  4  1  0
  1  2  2  0
  2  3  1  0
  3  4  2  0
  4  8  1  0
  8  5  2  0
  5  1  1  0
M  END

$$$$
No_1891-/dssg/home/sw_qyf/PocketFlow/Model-Generation-Results/5HT2A_7WC7_rec_A_10.pdb/2024-01-01-03-54-21/
     RDKit          3D

 19 21  0  0  0  0  0  0  0  0999 V2000
  -23.1746  -16.6014  144.8668 C   0  0  0  0  0  0  0  0  0  0  0  0
  -24.0189  -16.0564  145.8445 C   0  0  0  0  0  0  0  0  0  0  0  0
  -24.4145  -16.8299  146.9062 C   0  0  0  0  0  0  0  0  0  0  0  0
  -23.8925  -17.9780  147.0944 C   0  0  0  0  0  0  0  0  0  0  0  0
  -23.0516  -18.5662  146.1819 C   0  0  0  0  0  0  0  0  0  0  0  0
  -22.7171  -17.7851  145.1421 N   0  0  0  0  0  0  0  0  0  0  0  0
  -24.6214  -14.6627  145.5820 C   0  0  0  0  0  0  0  0  0  0  0  0
  -23.7791  -13.6254  145.6492 C   0  0  0  0  0  0  0  0  0  0  0  0
  -24.2431  -12.2309  145.5117 C   0  0  0  0  0  0  0  0  0  0  0  0
  -25.6154  -11.9490  145.4991 C   0  0  0  0  0  0  0  0  0  0  0  0
  -26.5098  -13.0434  145.5925 C   0  0  0  0  0  0  0  0  0  0  0  0
  -26.0511  -14.3984  145.6465 C   0  0  0  0  0  0  0  0  0  0  0  0
  -27.9842  -12.7195  145.7104 C   0  0  0  0  0  0  0  0  0  0  0  0
  -28.8181  -13.0671  146.8115 C   0  0  0  0  0  0  0  0  0  0  0  0
  -30.0867  -12.5384  146.9986 C   0  0  0  0  0  0  0  0  0  0  0  0
  -30.6987  -12.7632  148.2834 C   0  0  0  0  0  0  0  0  0  0  0  0
  -30.3259  -13.9583  148.9301 C   0  0  0  0  0  0  0  0  0  0  0  0
  -29.2317  -14.7317  148.5300 C   0  0  0  0  0  0  0  0  0  0  0  0
  -28.5200  -14.3065  147.4370 C   0  0  0  0  0  0  0  0  0  0  0  0
  2  7  1  0
 11 13  1  0
 13 14  1  0
  1  2  2  0
  2  3  1  0
  3  4  2  0
  4  5  1  0
  5  6  2  0
  6  1  1  0
 14 15  2  0
 15 16  1  0
 16 17  2  0
 17 18  1  0
 18 19  2  0
 19 14  1  0
  7  8  2  0
  8  9  1  0
  9 10  2  0
 10 11  1  0
 11 12  2  0
 12  7  1  0
M  END

$$$$
No_1892-/dssg/home/sw_qyf/PocketFlow/Model-Generation-Results/5HT2A_7WC7_rec_A_10.pdb/2024-01-01-03-54-21/
     RDKit          3D

 10 10  0  0  0  0  0  0  0  0999 V2000
  -24.1553  -17.8465  145.7021 C   0  0  0  0  0  0  0  0  0  0  0  0
  -24.6364  -17.2931  146.7091 C   0  0  0  0  0  0  0  0  0  0  0  0
  -25.8608  -16.5592  146.5934 C   0  0  0  0  0  0  0  0  0  0  0  0
  -26.9933  -16.9082  147.1889 C   0  0  0  0  0  0  0  0  0  0  0  0
  -28.2350  -16.1839  146.8943 C   0  0  0  0  0  0  0  0  0  0  0  0
  -28.1591  -14.9305  146.2109 C   0  0  0  0  0  0  0  0  0  0  0  0
  -26.9314  -14.4942  146.0017 C   0  0  0  0  0  0  0  0  0  0  0  0
  -25.6948  -15.2608  146.1056 C   0  0  0  0  0  0  0  0  0  0  0  0
  -24.0083  -17.5217  148.0722 C   0  0  0  0  0  0  0  0  0  0  0  0
  -22.6188  -17.3382  148.2787 C   0  0  0  0  0  0  0  0  0  0  0  0
  1  2  1  0
  2  3  1  0
  2  9  1  0
  9 10  2  0
  3  4  2  0
  4  5  1  0
  5  6  2  0
  6  7  1  0
  7  8  2  0
  8  3  1  0
M  END

$$$$
No_1893-/dssg/home/sw_qyf/PocketFlow/Model-Generation-Results/5HT2A_7WC7_rec_A_10.pdb/2024-01-01-03-54-21/
     RDKit          3D

 19 19  0  0  0  0  0  0  0  0999 V2000
  -24.1553  -17.8465  145.7021 C   0  0  0  0  0  0  0  0  0  0  0  0
  -23.9795  -18.4462  146.7426 C   0  0  0  0  0  0  0  0  0  0  0  0
  -25.1593  -16.8262  145.6925 C   0  0  0  0  0  0  0  0  0  0  0  0
  -25.3302  -15.8818  144.5925 C   0  0  0  0  0  0  0  0  0  0  0  0
  -24.4570  -18.1009  148.0274 C   0  0  0  0  0  0  0  0  0  0  0  0
  -25.3496  -17.0286  148.1023 C   0  0  0  0  0  0  0  0  0  0  0  0
  -25.5669  -16.2449  146.9641 C   0  0  0  0  0  0  0  0  0  0  0  0
  -24.1805  -15.0528  144.1688 C   0  0  0  0  0  0  0  0  0  0  0  0
  -24.4997  -13.5322  144.1945 C   0  0  0  0  0  0  0  0  0  0  0  0
  -25.5523  -13.1594  144.5619 N   0  0  0  0  0  0  0  0  0  0  0  0
  -25.6687  -12.0352  145.4020 C   0  0  0  0  0  0  0  0  0  0  0  0
  -26.5770  -11.5716  145.9124 C   0  0  0  0  0  0  0  0  0  0  0  0
  -27.8579  -12.1665  145.8209 C   0  0  0  0  0  0  0  0  0  0  0  0
  -29.0498  -11.5617  146.1692 C   0  0  0  0  0  0  0  0  0  0  0  0
  -29.4679  -10.4828  145.3123 C   0  0  0  0  0  0  0  0  0  0  0  0
  -28.9170  -10.3856  144.0606 C   0  0  0  0  0  0  0  0  0  0  0  0
  -29.5837   -9.8154  143.1764 C   0  0  0  0  0  0  0  0  0  0  0  0
  -30.6856   -8.9660  143.3126 C   0  0  0  0  0  0  0  0  0  0  0  0
  -31.4565   -8.4221  142.2703 C   0  0  0  0  0  0  0  0  0  0  0  0
  3  4  1  0
  4  8  1  0
  8  9  1  0
  9 10  1  0
 10 11  1  0
 11 12  2  3
 12 13  1  0
 13 14  1  0
 14 15  1  0
 15 16  2  3
 16 17  1  0
 17 18  2  3
 18 19  1  0
  1  2  2  0
  2  5  1  0
  5  6  2  0
  6  7  1  0
  7  3  2  0
  3  1  1  0
M  END

$$$$
No_1894-/dssg/home/sw_qyf/PocketFlow/Model-Generation-Results/5HT2A_7WC7_rec_A_10.pdb/2024-01-01-03-54-21/
     RDKit          3D

 32 37  0  0  0  0  0  0  0  0999 V2000
  -24.1553  -17.8465  145.7021 C   0  0  0  0  0  0  0  0  0  0  0  0
  -23.9795  -18.4462  146.7426 C   0  0  0  0  0  0  0  0  0  0  0  0
  -25.1196  -16.8106  145.6409 C   0  0  0  0  0  0  0  0  0  0  0  0
  -25.2440  -15.8776  144.5240 C   0  0  0  0  0  0  0  0  0  0  0  0
  -26.0733  -14.7284  144.7061 C   0  0  0  0  0  0  0  0  0  0  0  0
  -26.0749  -13.6607  143.7626 C   0  0  0  0  0  0  0  0  0  0  0  0
  -24.5491  -18.0521  147.9995 C   0  0  0  0  0  0  0  0  0  0  0  0
  -25.4112  -16.9742  148.0640 C   0  0  0  0  0  0  0  0  0  0  0  0
  -25.6107  -16.2038  146.8886 C   0  0  0  0  0  0  0  0  0  0  0  0
  -27.0144  -12.6487  143.8916 C   0  0  0  0  0  0  0  0  0  0  0  0
  -27.3261  -11.8039  142.8272 C   0  0  0  0  0  0  0  0  0  0  0  0
  -28.2278  -10.7101  143.0369 C   0  0  0  0  0  0  0  0  0  0  0  0
  -28.8445  -10.6029  144.3681 C   0  0  0  0  0  0  0  0  0  0  0  0
  -28.4267  -11.4366  145.4237 C   0  0  0  0  0  0  0  0  0  0  0  0
  -27.5433  -12.4544  145.2089 C   0  0  0  0  0  0  0  0  0  0  0  0
  -28.6895   -9.8702  141.9924 C   0  0  0  0  0  0  0  0  0  0  0  0
  -28.4887  -10.1490  140.6950 C   0  0  0  0  0  0  0  0  0  0  0  0
  -28.5088   -9.0360  139.8563 C   0  0  0  0  0  0  0  0  0  0  0  0
  -28.0683   -9.1102  138.4689 C   0  0  0  0  0  0  0  0  0  0  0  0
  -27.9881  -10.3727  137.9837 C   0  0  0  0  0  0  0  0  0  0  0  0
  -27.9382  -11.4699  138.7869 C   0  0  0  0  0  0  0  0  0  0  0  0
  -28.1838  -11.3733  140.1603 C   0  0  0  0  0  0  0  0  0  0  0  0
  -26.4377  -15.0691  146.8270 C   0  0  0  0  0  0  0  0  0  0  0  0
  -26.6241  -14.1894  145.9397 C   0  0  0  0  0  0  0  0  0  0  0  0
  -27.4251  -13.1851  146.1014 C   0  0  0  0  0  0  0  0  0  0  0  0
  -28.1957   -7.9169  137.6092 C   0  0  0  0  0  0  0  0  0  0  0  0
  -29.8737   -9.5747  144.5486 C   0  0  0  0  0  0  0  0  0  0  0  0
  -30.3091   -8.7200  143.5681 C   0  0  0  0  0  0  0  0  0  0  0  0
  -29.7568   -8.8703  142.2801 C   0  0  0  0  0  0  0  0  0  0  0  0
  -30.4807   -8.4860  141.3579 O   0  0  0  0  0  0  0  0  0  0  0  0
  -24.3100  -18.5863  144.5377 O   0  0  0  0  0  0  0  0  0  0  0  0
  -25.9968  -16.6708  149.2368 O   0  0  0  0  0  0  0  0  0  0  0  0
  3  4  1  0
  4  5  1  0
 16 17  1  0
  9 23  1  0
 23 24  1  0
 19 26  1  0
 29 30  1  0
  1 31  1  0
  8 32  1  0
 13 27  2  0
 27 28  1  0
 28 29  2  0
 29 16  1  0
 16 12  2  0
  1  2  2  0
  2  7  1  0
  7  8  2  0
  8  9  1  0
  9  3  2  0
  3  1  1  0
  5  6  2  0
  6 10  1  0
 15 25  1  0
 25 24  2  0
 24  5  1  0
 10 11  2  0
 11 12  1  0
 12 13  1  0
 13 14  1  0
 14 15  2  0
 15 10  1  0
 17 18  2  0
 18 19  1  0
 19 20  2  0
 20 21  1  0
 21 22  2  0
 22 17  1  0
M  END

$$$$
No_1895-/dssg/home/sw_qyf/PocketFlow/Model-Generation-Results/5HT2A_7WC7_rec_A_10.pdb/2024-01-01-03-54-21/
     RDKit          3D

 35 39  0  0  0  0  0  0  0  0999 V2000
  -23.1746  -16.6014  144.8668 C   0  0  0  0  0  0  0  0  0  0  0  0
  -23.7011  -17.0158  145.9774 C   0  0  0  0  0  0  0  0  0  0  0  0
  -23.7336  -18.2775  146.3737 C   0  0  0  0  0  0  0  0  0  0  0  0
  -24.1960  -18.6445  147.6858 C   0  0  0  0  0  0  0  0  0  0  0  0
  -24.7100  -17.6145  148.5486 C   0  0  0  0  0  0  0  0  0  0  0  0
  -24.7929  -16.2635  148.0870 C   0  0  0  0  0  0  0  0  0  0  0  0
  -24.2508  -15.9434  146.8891 C   0  0  0  0  0  0  0  0  0  0  0  0
  -22.8159  -17.1769  144.0180 O   0  0  0  0  0  0  0  0  0  0  0  0
  -23.4556  -15.1651  144.4957 N   0  0  0  0  0  0  0  0  0  0  0  0
  -23.1654  -14.5516  143.3785 C   0  0  0  0  0  0  0  0  0  0  0  0
  -25.1969  -17.9799  149.7461 O   0  0  0  0  0  0  0  0  0  0  0  0
  -25.3635  -16.9087  150.7284 C   0  0  0  0  0  0  0  0  0  0  0  0
  -23.2941  -19.2137  145.6559 O   0  0  0  0  0  0  0  0  0  0  0  0
  -22.3309  -13.2468  144.0910 C   0  0  0  0  0  0  0  0  0  0  0  0
  -23.2678  -12.2132  144.5989 C   0  0  0  0  0  0  0  0  0  0  0  0
  -24.1933  -12.8226  145.5617 C   0  0  0  0  0  0  0  0  0  0  0  0
  -24.9838  -11.9633  146.4402 C   0  0  0  0  0  0  0  0  0  0  0  0
  -26.4589  -12.1044  146.2479 C   0  0  0  0  0  0  0  0  0  0  0  0
  -26.9906  -11.2997  145.2835 C   0  0  0  0  0  0  0  0  0  0  0  0
  -26.4168  -10.4698  144.4381 C   0  0  0  0  0  0  0  0  0  0  0  0
  -28.5448  -11.2827  145.2259 C   0  0  0  0  0  0  0  0  0  0  0  0
  -29.3992  -11.9523  146.1375 C   0  0  0  0  0  0  0  0  0  0  0  0
  -30.2894  -11.2710  146.8278 O   0  0  0  0  0  0  0  0  0  0  0  0
  -23.6396  -14.0036  145.7195 C   0  0  0  0  0  0  0  0  0  0  0  0
  -29.2999  -13.1949  146.3194 O   0  0  0  0  0  0  0  0  0  0  0  0
  -24.3603  -14.7741  146.8186 O   0  0  0  0  0  0  0  0  0  0  0  0
  -29.1570  -10.4173  144.2198 C   0  0  0  0  0  0  0  0  0  0  0  0
  -28.7174  -10.1595  143.0416 C   0  0  0  0  0  0  0  0  0  0  0  0
  -27.7806  -10.4354  142.4418 C   0  0  0  0  0  0  0  0  0  0  0  0
  -27.7512  -10.3063  141.0115 C   0  0  0  0  0  0  0  0  0  0  0  0
  -28.5450   -9.4042  140.4465 C   0  0  0  0  0  0  0  0  0  0  0  0
  -28.4780   -9.0727  139.0326 C   0  0  0  0  0  0  0  0  0  0  0  0
  -28.9600   -7.7991  138.5646 C   0  0  0  0  0  0  0  0  0  0  0  0
  -29.7042   -9.5244  141.9756 C   0  0  0  0  0  0  0  0  0  0  0  0
  -26.5847  -10.5147  143.0560 C   0  0  0  0  0  0  0  0  0  0  0  0
  1  2  1  0
  1  8  2  0
  1  9  1  0
  9 10  1  0
  5 11  1  0
 11 12  1  0
  3 13  1  0
 10 14  1  0
 14 15  1  0
 15 16  1  0
 16 17  1  0
 17 18  1  0
 18 19  1  0
 19 20  1  0
 19 21  1  0
 21 22  1  0
 22 23  2  0
  9 24  1  0
 16 24  1  0
 22 25  1  0
  7 26  1  0
 24 26  1  0
 21 27  1  0
 27 28  2  0
 28 29  1  0
 29 30  1  0
 30 31  2  0
 31 32  1  0
 32 33  2  0
 28 34  1  0
 31 34  1  0
 20 35  1  0
 29 35  1  0
  2  3  2  0
  3  4  1  0
  4  5  2  0
  5  6  1  0
  6  7  2  0
  7  2  1  0
M  END

$$$$
No_1896-/dssg/home/sw_qyf/PocketFlow/Model-Generation-Results/5HT2A_7WC7_rec_A_10.pdb/2024-01-01-03-54-21/
     RDKit          3D

 18 20  0  0  0  0  0  0  0  0999 V2000
  -24.1553  -17.8465  145.7021 C   0  0  0  0  0  0  0  0  0  0  0  0
  -23.9795  -18.4462  146.7426 C   0  0  0  0  0  0  0  0  0  0  0  0
  -25.1196  -16.8106  145.6409 C   0  0  0  0  0  0  0  0  0  0  0  0
  -25.9236  -16.5070  146.7422 C   0  0  0  0  0  0  0  0  0  0  0  0
  -26.9588  -15.5563  146.6458 C   0  0  0  0  0  0  0  0  0  0  0  0
  -26.8348  -14.5437  145.7143 C   0  0  0  0  0  0  0  0  0  0  0  0
  -25.8786  -14.6986  144.6313 C   0  0  0  0  0  0  0  0  0  0  0  0
  -24.9607  -15.7429  144.6829 C   0  0  0  0  0  0  0  0  0  0  0  0
  -24.7486  -18.2587  147.9459 C   0  0  0  0  0  0  0  0  0  0  0  0
  -25.7668  -17.2631  147.9522 C   0  0  0  0  0  0  0  0  0  0  0  0
  -27.8254  -13.4324  145.6196 C   0  0  0  0  0  0  0  0  0  0  0  0
  -27.4046  -12.1499  145.9467 C   0  0  0  0  0  0  0  0  0  0  0  0
  -28.3019  -11.0933  145.7293 C   0  0  0  0  0  0  0  0  0  0  0  0
  -29.5700  -11.1352  146.2708 C   0  0  0  0  0  0  0  0  0  0  0  0
  -30.0147  -12.4733  146.6712 C   0  0  0  0  0  0  0  0  0  0  0  0
  -29.0959  -13.5500  146.3882 C   0  0  0  0  0  0  0  0  0  0  0  0
  -25.8742  -13.7789  143.6035 N   0  0  0  0  0  0  0  0  0  0  0  0
  -30.4286  -10.1939  146.2863 O   0  0  0  0  0  0  0  0  0  0  0  0
  6 11  1  0
  7 17  1  0
 14 18  1  0
 11 12  2  0
 12 13  1  0
 13 14  2  0
 14 15  1  0
 15 16  2  0
 16 11  1  0
  4  5  2  0
  5  6  1  0
  6  7  2  0
  7  8  1  0
  8  3  2  0
  1  2  2  0
  2  9  1  0
  9 10  2  0
 10  4  1  0
  4  3  1  0
  3  1  1  0
M  END

$$$$
No_1897-/dssg/home/sw_qyf/PocketFlow/Model-Generation-Results/5HT2A_7WC7_rec_A_10.pdb/2024-01-01-03-54-21/
     RDKit          3D

 15 15  0  0  0  0  0  0  0  0999 V2000
  -23.1746  -16.6014  144.8668 C   0  0  0  0  0  0  0  0  0  0  0  0
  -24.0189  -16.0564  145.8445 C   0  0  0  0  0  0  0  0  0  0  0  0
  -24.4145  -16.8299  146.9062 C   0  0  0  0  0  0  0  0  0  0  0  0
  -25.2273  -16.2787  147.9854 C   0  0  0  0  0  0  0  0  0  0  0  0
  -25.7358  -15.0095  147.7773 C   0  0  0  0  0  0  0  0  0  0  0  0
  -25.3901  -14.2337  146.6672 C   0  0  0  0  0  0  0  0  0  0  0  0
  -24.5390  -14.7030  145.7350 C   0  0  0  0  0  0  0  0  0  0  0  0
  -24.1426  -13.8633  144.6266 C   0  0  0  0  0  0  0  0  0  0  0  0
  -24.9217  -13.6161  143.8344 O   0  0  0  0  0  0  0  0  0  0  0  0
  -25.9703  -12.6039  146.6361 Cl  0  0  0  0  0  0  0  0  0  0  0  0
  -23.9529  -18.2219  147.0655 C   0  0  0  0  0  0  0  0  0  0  0  0
  -24.9991  -18.6912  147.3108 F   0  0  0  0  0  0  0  0  0  0  0  0
  -23.1340  -18.3065  148.0976 F   0  0  0  0  0  0  0  0  0  0  0  0
  -23.3945  -18.6958  146.0261 F   0  0  0  0  0  0  0  0  0  0  0  0
  -22.9036  -13.3395  144.5921 O   0  0  0  0  0  0  0  0  0  0  0  0
  1  2  1  0
  7  8  1  0
  8  9  1  0
  6 10  1  0
  3 11  1  0
 11 12  1  0
 11 13  1  0
 11 14  1  0
  8 15  2  0
  2  3  2  0
  3  4  1  0
  4  5  2  0
  5  6  1  0
  6  7  2  0
  7  2  1  0
M  END

$$$$
No_1898-/dssg/home/sw_qyf/PocketFlow/Model-Generation-Results/5HT2A_7WC7_rec_A_10.pdb/2024-01-01-03-54-21/
     RDKit          3D

 19 21  0  0  0  0  0  0  0  0999 V2000
  -24.1553  -17.8465  145.7021 C   0  0  0  0  0  0  0  0  0  0  0  0
  -23.9795  -18.4462  146.7426 C   0  0  0  0  0  0  0  0  0  0  0  0
  -25.1593  -16.8262  145.6925 C   0  0  0  0  0  0  0  0  0  0  0  0
  -24.9465  -15.5961  144.9952 C   0  0  0  0  0  0  0  0  0  0  0  0
  -25.8339  -14.4742  145.0599 C   0  0  0  0  0  0  0  0  0  0  0  0
  -25.6290  -13.3152  144.3271 C   0  0  0  0  0  0  0  0  0  0  0  0
  -26.3061  -12.3000  144.8790 C   0  0  0  0  0  0  0  0  0  0  0  0
  -27.5684  -12.4720  145.2669 C   0  0  0  0  0  0  0  0  0  0  0  0
  -28.4266  -11.3073  145.6469 C   0  0  0  0  0  0  0  0  0  0  0  0
  -29.7805  -11.4442  146.1683 C   0  0  0  0  0  0  0  0  0  0  0  0
  -29.8855  -12.0742  147.2742 O   0  0  0  0  0  0  0  0  0  0  0  0
  -24.4614  -17.9022  148.0201 C   0  0  0  0  0  0  0  0  0  0  0  0
  -25.5088  -17.0283  148.0953 C   0  0  0  0  0  0  0  0  0  0  0  0
  -25.6251  -16.1347  146.9731 C   0  0  0  0  0  0  0  0  0  0  0  0
  -30.1654  -13.3155  147.3430 C   0  0  0  0  0  0  0  0  0  0  0  0
  -29.1909  -14.0796  146.5348 C   0  0  0  0  0  0  0  0  0  0  0  0
  -28.0945  -13.4860  146.2524 C   0  0  0  0  0  0  0  0  0  0  0  0
  -30.0984  -13.7835  148.8484 C   0  0  0  0  0  0  0  0  0  0  0  0
  -26.8832  -14.5971  146.1177 C   0  0  0  0  0  0  0  0  0  0  0  0
  4  5  1  0
  5  6  1  0
  6  7  1  0
  7  8  1  0
  8  9  1  0
  9 10  1  0
 10 11  1  0
 11 15  1  0
 15 16  1  0
  8 17  1  0
 16 17  1  0
 15 18  1  0
  5 19  1  0
 17 19  1  0
  4  3  1  0
  1  2  2  0
  2 12  1  0
 12 13  2  0
 13 14  1  0
 14  3  2  0
  3  1  1  0
M  END

$$$$
No_1899-/dssg/home/sw_qyf/PocketFlow/Model-Generation-Results/5HT2A_7WC7_rec_A_10.pdb/2024-01-01-03-54-21/
     RDKit          3D

 11 11  0  0  0  0  0  0  0  0999 V2000
  -23.1746  -16.6014  144.8668 C   0  0  0  0  0  0  0  0  0  0  0  0
  -24.0189  -16.0564  145.8445 C   0  0  0  0  0  0  0  0  0  0  0  0
  -24.4850  -14.7380  145.6359 C   0  0  0  0  0  0  0  0  0  0  0  0
  -25.2717  -14.0560  146.5949 C   0  0  0  0  0  0  0  0  0  0  0  0
  -25.5669  -12.6700  146.4456 C   0  0  0  0  0  0  0  0  0  0  0  0
  -25.1774  -11.9727  145.2644 C   0  0  0  0  0  0  0  0  0  0  0  0
  -24.2583  -12.6444  144.4323 C   0  0  0  0  0  0  0  0  0  0  0  0
  -23.9746  -14.0153  144.6649 C   0  0  0  0  0  0  0  0  0  0  0  0
  -24.4407  -16.8601  146.9515 C   0  0  0  0  0  0  0  0  0  0  0  0
  -25.1111  -16.6229  147.9710 C   0  0  0  0  0  0  0  0  0  0  0  0
  -25.2104  -17.3713  149.1832 C   0  0  0  0  0  0  0  0  0  0  0  0
  1  2  1  0
  2  3  1  0
  2  9  1  0
  9 10  2  3
 10 11  1  0
  3  4  2  0
  4  5  1  0
  5  6  2  0
  6  7  1  0
  7  8  2  0
  8  3  1  0
M  END

$$$$
No_1900-/dssg/home/sw_qyf/PocketFlow/Model-Generation-Results/5HT2A_7WC7_rec_A_10.pdb/2024-01-01-03-54-21/
     RDKit          3D

 35 37  0  0  0  0  0  0  0  0999 V2000
  -23.1746  -16.6014  144.8668 C   0  0  0  0  0  0  0  0  0  0  0  0
  -23.7011  -17.0158  145.9774 C   0  0  0  0  0  0  0  0  0  0  0  0
  -24.2134  -16.0722  146.8877 C   0  0  0  0  0  0  0  0  0  0  0  0
  -23.3742  -15.2706  144.3922 C   0  0  0  0  0  0  0  0  0  0  0  0
  -24.0638  -14.3065  145.2723 C   0  0  0  0  0  0  0  0  0  0  0  0
  -24.4769  -14.7246  146.5384 C   0  0  0  0  0  0  0  0  0  0  0  0
  -24.2073  -12.8864  144.8852 C   0  0  0  0  0  0  0  0  0  0  0  0
  -24.3735  -12.1480  145.8208 O   0  0  0  0  0  0  0  0  0  0  0  0
  -23.4924  -18.6424  146.5380 Cl  0  0  0  0  0  0  0  0  0  0  0  0
  -25.4369  -11.2216  145.6403 C   0  0  0  0  0  0  0  0  0  0  0  0
  -26.6439  -11.6041  146.3290 C   0  0  0  0  0  0  0  0  0  0  0  0
  -27.6665  -12.1255  145.5635 C   0  0  0  0  0  0  0  0  0  0  0  0
  -27.6742  -12.3817  144.3213 C   0  0  0  0  0  0  0  0  0  0  0  0
  -28.8754  -12.5681  146.3836 C   0  0  0  0  0  0  0  0  0  0  0  0
  -29.2994  -13.1774  147.1671 C   0  0  0  0  0  0  0  0  0  0  0  0
  -30.5532  -13.3436  147.8551 C   0  0  0  0  0  0  0  0  0  0  0  0
  -30.6791  -14.2838  148.8855 C   0  0  0  0  0  0  0  0  0  0  0  0
  -29.7353  -15.3008  148.9606 C   0  0  0  0  0  0  0  0  0  0  0  0
  -28.6478  -15.4075  148.1249 C   0  0  0  0  0  0  0  0  0  0  0  0
  -28.3672  -14.3682  147.2361 C   0  0  0  0  0  0  0  0  0  0  0  0
  -29.8240  -11.3914  146.0289 F   0  0  0  0  0  0  0  0  0  0  0  0
  -25.7277  -10.7436  144.3083 C   0  0  0  0  0  0  0  0  0  0  0  0
  -27.1031  -10.9178  143.9306 C   0  0  0  0  0  0  0  0  0  0  0  0
  -27.3056  -10.5374  142.4171 C   0  0  0  0  0  0  0  0  0  0  0  0
  -27.2212  -11.3557  141.4935 C   0  0  0  0  0  0  0  0  0  0  0  0
  -27.4055  -10.9167  140.1431 C   0  0  0  0  0  0  0  0  0  0  0  0
  -28.4716  -10.5350  139.7433 C   0  0  0  0  0  0  0  0  0  0  0  0
  -28.5096   -9.0213  139.5053 C   0  0  0  0  0  0  0  0  0  0  0  0
  -29.4038   -8.1089  140.1632 C   0  0  0  0  0  0  0  0  0  0  0  0
  -30.3930   -8.5531  140.9806 C   0  0  0  0  0  0  0  0  0  0  0  0
  -30.0097   -8.7202  142.4840 C   0  0  0  0  0  0  0  0  0  0  0  0
  -29.8868   -7.5697  143.1794 C   0  0  0  0  0  0  0  0  0  0  0  0
  -28.2353   -8.6281  138.1075 C   0  0  0  0  0  0  0  0  0  0  0  0
  -26.3056  -11.2858  139.1986 C   0  0  0  0  0  0  0  0  0  0  0  0
  -27.6701  -16.5236  148.1408 C   0  0  0  0  0  0  0  0  0  0  0  0
  5  7  1  0
  7  8  1  0
  2  9  1  0
  8 10  1  0
 12 14  1  0
 14 21  1  0
 23 24  1  0
 24 25  1  0
 25 26  1  0
 26 27  1  0
 27 28  1  0
 28 29  2  3
 29 30  1  0
 30 31  1  0
 31 32  1  0
 28 33  1  0
 26 34  1  0
 19 35  1  0
 14 15  1  0
 10 11  2  0
 11 12  1  0
 12 13  2  0
 13 23  1  0
 23 22  2  0
 22 10  1  0
  1  2  2  0
  2  3  1  0
  3  6  2  0
  6  5  1  0
  5  4  2  0
  4  1  1  0
 15 16  2  0
 16 17  1  0
 17 18  2  0
 18 19  1  0
 19 20  2  0
 20 15  1  0
M  END

$$$$
No_1901-/dssg/home/sw_qyf/PocketFlow/Model-Generation-Results/5HT2A_7WC7_rec_A_10.pdb/2024-01-01-03-54-21/
     RDKit          3D

 35 37  0  0  0  0  0  0  0  0999 V2000
  -24.1553  -17.8465  145.7021 C   0  0  0  0  0  0  0  0  0  0  0  0
  -24.2856  -16.6364  145.3494 C   0  0  0  0  0  0  0  0  0  0  0  0
  -25.0033  -15.6772  146.0737 C   0  0  0  0  0  0  0  0  0  0  0  0
  -25.6964  -16.1810  147.2049 C   0  0  0  0  0  0  0  0  0  0  0  0
  -24.8143  -18.3454  146.8324 C   0  0  0  0  0  0  0  0  0  0  0  0
  -25.5291  -17.4614  147.6374 C   0  0  0  0  0  0  0  0  0  0  0  0
  -23.6700  -16.1088  144.2413 F   0  0  0  0  0  0  0  0  0  0  0  0
  -25.1799  -14.2490  145.6713 C   0  0  0  0  0  0  0  0  0  0  0  0
  -24.2856  -13.4554  146.2779 C   0  0  0  0  0  0  0  0  0  0  0  0
  -24.3182  -11.9984  145.9334 C   0  0  0  0  0  0  0  0  0  0  0  0
  -25.5414  -11.5169  145.3376 C   0  0  0  0  0  0  0  0  0  0  0  0
  -26.4673  -12.4515  144.8786 C   0  0  0  0  0  0  0  0  0  0  0  0
  -26.3346  -13.8486  145.0444 C   0  0  0  0  0  0  0  0  0  0  0  0
  -27.6583  -11.8554  144.1768 C   0  0  0  0  0  0  0  0  0  0  0  0
  -28.0444  -10.6889  144.4459 C   0  0  0  0  0  0  0  0  0  0  0  0
  -29.4019  -10.4178  144.7616 C   0  0  0  0  0  0  0  0  0  0  0  0
  -30.0130  -11.1967  145.7895 C   0  0  0  0  0  0  0  0  0  0  0  0
  -29.1866  -12.1319  146.3119 N   0  0  0  0  0  0  0  0  0  0  0  0
  -29.5737  -12.7543  147.6427 C   0  0  0  0  0  0  0  0  0  0  0  0
  -29.3171  -14.1243  147.8017 C   0  0  0  0  0  0  0  0  0  0  0  0
  -28.3738  -14.7769  147.0633 C   0  0  0  0  0  0  0  0  0  0  0  0
  -28.7011  -16.1073  146.7554 C   0  0  0  0  0  0  0  0  0  0  0  0
  -30.2233   -9.4740  144.0359 C   0  0  0  0  0  0  0  0  0  0  0  0
  -31.3720   -9.5024  144.3352 O   0  0  0  0  0  0  0  0  0  0  0  0
  -29.6447   -8.4639  143.4702 N   0  0  0  0  0  0  0  0  0  0  0  0
  -30.3869   -7.3628  142.8171 C   0  0  0  0  0  0  0  0  0  0  0  0
  -29.4861   -6.5626  142.0282 C   0  0  0  0  0  0  0  0  0  0  0  0
  -29.2356   -5.2645  142.4404 C   0  0  0  0  0  0  0  0  0  0  0  0
  -28.9329   -4.9524  143.7894 C   0  0  0  0  0  0  0  0  0  0  0  0
  -28.7741   -3.5819  144.1401 C   0  0  0  0  0  0  0  0  0  0  0  0
  -28.8039   -2.5238  143.2239 C   0  0  0  0  0  0  0  0  0  0  0  0
  -29.1549   -4.2689  141.4190 C   0  0  0  0  0  0  0  0  0  0  0  0
  -29.0120   -2.8664  141.8705 C   0  0  0  0  0  0  0  0  0  0  0  0
  -30.0787  -11.9647  148.4996 O   0  0  0  0  0  0  0  0  0  0  0  0
  -29.8365   -6.7517  140.5737 C   0  0  0  0  0  0  0  0  0  0  0  0
  2  7  1  0
  3  8  1  0
 12 14  1  0
 14 15  1  0
 15 16  2  3
 16 17  1  0
 17 18  1  0
 18 19  1  0
 19 20  1  0
 20 21  2  3
 21 22  1  0
 16 23  1  0
 23 24  2  0
 23 25  1  0
 25 26  1  0
 26 27  1  0
 27 28  1  0
 19 34  2  0
 27 35  1  0
 28 29  2  0
 29 30  1  0
 30 31  2  0
 31 33  1  0
 33 32  2  0
 32 28  1  0
  1  2  2  0
  2  3  1  0
  3  4  2  0
  4  6  1  0
  6  5  2  0
  5  1  1  0
  8  9  2  0
  9 10  1  0
 10 11  2  0
 11 12  1  0
 12 13  2  0
 13  8  1  0
M  END

$$$$
No_1902-/dssg/home/sw_qyf/PocketFlow/Model-Generation-Results/5HT2A_7WC7_rec_A_10.pdb/2024-01-01-03-54-21/
     RDKit          3D

  9  8  0  0  0  0  0  0  0  0999 V2000
  -24.1553  -17.8465  145.7021 C   0  0  0  0  0  0  0  0  0  0  0  0
  -24.2855  -16.6364  145.3494 C   0  0  0  0  0  0  0  0  0  0  0  0
  -24.1339  -15.9119  144.3179 C   0  0  0  0  0  0  0  0  0  0  0  0
  -24.4003  -14.5192  144.2502 C   0  0  0  0  0  0  0  0  0  0  0  0
  -24.7115  -13.8522  145.5242 C   0  0  0  0  0  0  0  0  0  0  0  0
  -24.7224  -12.4252  145.6275 C   0  0  0  0  0  0  0  0  0  0  0  0
  -24.3752  -18.3722  147.0008 C   0  0  0  0  0  0  0  0  0  0  0  0
  -24.8986  -17.4564  147.9945 C   0  0  0  0  0  0  0  0  0  0  0  0
  -25.1245  -16.0763  147.6998 C   0  0  0  0  0  0  0  0  0  0  0  0
  1  2  3  0
  2  3  1  0
  3  4  1  0
  4  5  1  0
  5  6  1  0
  1  7  1  0
  7  8  1  0
  8  9  2  0
M  END

$$$$
No_1903-/dssg/home/sw_qyf/PocketFlow/Model-Generation-Results/5HT2A_7WC7_rec_A_10.pdb/2024-01-01-03-54-21/
     RDKit          3D

 35 38  0  0  0  0  0  0  0  0999 V2000
  -23.1746  -16.6014  144.8668 C   0  0  0  0  0  0  0  0  0  0  0  0
  -23.8963  -15.5346  144.7885 C   0  0  0  0  0  0  0  0  0  0  0  0
  -24.6479  -15.0447  145.8164 C   0  0  0  0  0  0  0  0  0  0  0  0
  -24.7862  -15.8388  146.9698 C   0  0  0  0  0  0  0  0  0  0  0  0
  -24.1322  -17.0288  147.0733 C   0  0  0  0  0  0  0  0  0  0  0  0
  -23.3137  -17.4131  146.0131 C   0  0  0  0  0  0  0  0  0  0  0  0
  -25.4269  -13.7433  145.7879 C   0  0  0  0  0  0  0  0  0  0  0  0
  -24.6855  -12.7239  146.0516 C   0  0  0  0  0  0  0  0  0  0  0  0
  -25.2491  -11.3575  146.0403 C   0  0  0  0  0  0  0  0  0  0  0  0
  -26.6050  -11.2278  145.5806 C   0  0  0  0  0  0  0  0  0  0  0  0
  -27.3495  -12.3845  145.3575 C   0  0  0  0  0  0  0  0  0  0  0  0
  -26.7383  -13.6764  145.4800 C   0  0  0  0  0  0  0  0  0  0  0  0
  -24.1783  -17.8134  148.3733 C   0  0  0  0  0  0  0  0  0  0  0  0
  -25.0658  -18.6696  148.2329 F   0  0  0  0  0  0  0  0  0  0  0  0
  -24.5351  -17.0264  149.4720 F   0  0  0  0  0  0  0  0  0  0  0  0
  -22.9848  -18.2861  148.6628 F   0  0  0  0  0  0  0  0  0  0  0  0
  -23.8871  -14.7197  143.7271 F   0  0  0  0  0  0  0  0  0  0  0  0
  -28.7612  -12.1630  145.0130 C   0  0  0  0  0  0  0  0  0  0  0  0
  -29.5324  -11.6674  146.2239 C   0  0  0  0  0  0  0  0  0  0  0  0
  -29.6478  -12.4939  147.3898 C   0  0  0  0  0  0  0  0  0  0  0  0
  -30.7317  -12.2630  148.2967 C   0  0  0  0  0  0  0  0  0  0  0  0
  -31.2147  -13.3410  149.0866 C   0  0  0  0  0  0  0  0  0  0  0  0
  -30.4201  -14.5444  149.0247 C   0  0  0  0  0  0  0  0  0  0  0  0
  -29.3892  -14.7283  148.0997 C   0  0  0  0  0  0  0  0  0  0  0  0
  -29.0671  -13.6996  147.2575 C   0  0  0  0  0  0  0  0  0  0  0  0
  -29.3745  -10.3192  146.4074 O   0  0  0  0  0  0  0  0  0  0  0  0
  -32.1472  -13.1789  150.1397 C   0  0  0  0  0  0  0  0  0  0  0  0
  -32.2155  -13.9420  151.3156 C   0  0  0  0  0  0  0  0  0  0  0  0
  -33.1727  -13.7449  152.3301 C   0  0  0  0  0  0  0  0  0  0  0  0
  -33.0581  -12.0849  150.0920 C   0  0  0  0  0  0  0  0  0  0  0  0
  -33.9983  -11.7748  151.1702 C   0  0  0  0  0  0  0  0  0  0  0  0
  -33.9908  -12.5976  152.2454 C   0  0  0  0  0  0  0  0  0  0  0  0
  -28.8346  -16.0496  148.3295 C   0  0  0  0  0  0  0  0  0  0  0  0
  -28.9581  -16.7898  149.2639 F   0  0  0  0  0  0  0  0  0  0  0  0
  -27.3805  -15.8396  148.2288 F   0  0  0  0  0  0  0  0  0  0  0  0
  3  7  1  0
  5 13  1  0
 13 14  1  0
 13 15  1  0
 13 16  1  0
  2 17  1  0
 11 18  1  0
 18 19  1  0
 19 20  1  0
 19 26  2  0
 22 27  1  0
 24 33  1  0
 33 34  1  0
 33 35  1  0
 20 21  2  0
 21 22  1  0
 22 23  2  0
 23 24  1  0
 24 25  2  0
 25 20  1  0
  1  2  2  0
  2  3  1  0
  3  4  2  0
  4  5  1  0
  5  6  2  0
  6  1  1  0
  7  8  2  0
  8  9  1  0
  9 10  2  0
 10 11  1  0
 11 12  2  0
 12  7  1  0
 27 28  2  0
 28 29  1  0
 29 32  2  0
 32 31  1  0
 31 30  2  0
 30 27  1  0
M  END

$$$$
No_1904-/dssg/home/sw_qyf/PocketFlow/Model-Generation-Results/5HT2A_7WC7_rec_A_10.pdb/2024-01-01-03-54-21/
     RDKit          3D

 23 23  0  0  0  0  0  0  0  0999 V2000
  -23.8931  -18.2534  145.3804 F   0  0  0  0  0  0  0  0  0  0  0  0
  -24.3394  -17.2619  146.1054 C   0  0  0  0  0  0  0  0  0  0  0  0
  -24.5544  -17.4430  147.4759 C   0  0  0  0  0  0  0  0  0  0  0  0
  -24.5326  -16.0207  145.4717 C   0  0  0  0  0  0  0  0  0  0  0  0
  -25.5540  -15.4867  145.2168 C   0  0  0  0  0  0  0  0  0  0  0  0
  -25.7553  -14.1505  145.3487 C   0  0  0  0  0  0  0  0  0  0  0  0
  -27.0913  -13.4655  145.2688 C   0  0  0  0  0  0  0  0  0  0  0  0
  -27.2398  -12.2870  144.5106 C   0  0  0  0  0  0  0  0  0  0  0  0
  -28.1251  -12.0747  143.5252 C   0  0  0  0  0  0  0  0  0  0  0  0
  -28.2531  -10.9033  142.7543 C   0  0  0  0  0  0  0  0  0  0  0  0
  -28.6783  -10.9104  141.5076 C   0  0  0  0  0  0  0  0  0  0  0  0
  -23.9392  -16.4935  148.3539 C   0  0  0  0  0  0  0  0  0  0  0  0
  -29.1402   -9.7381  140.8769 C   0  0  0  0  0  0  0  0  0  0  0  0
  -29.5128   -8.5731  141.7010 C   0  0  0  0  0  0  0  0  0  0  0  0
  -29.9871   -7.3651  141.1722 C   0  0  0  0  0  0  0  0  0  0  0  0
  -29.5250   -8.6329  143.2244 C   0  0  0  0  0  0  0  0  0  0  0  0
  -28.9521   -9.9220  143.7531 C   0  0  0  0  0  0  0  0  0  0  0  0
  -30.5044   -6.5775  141.9083 F   0  0  0  0  0  0  0  0  0  0  0  0
  -28.9195   -6.6951  140.5036 F   0  0  0  0  0  0  0  0  0  0  0  0
  -27.9004  -11.7752  140.7416 C   0  0  0  0  0  0  0  0  0  0  0  0
  -26.8925  -11.5078  139.7494 C   0  0  0  0  0  0  0  0  0  0  0  0
  -26.7137  -10.3717  139.4892 F   0  0  0  0  0  0  0  0  0  0  0  0
  -25.7030  -12.1503  139.9625 F   0  0  0  0  0  0  0  0  0  0  0  0
  1  2  1  0
  2  3  1  0
  2  4  1  0
  4  5  1  0
  5  6  2  3
  6  7  1  0
  7  8  2  3
  8  9  1  0
  9 10  2  3
 10 11  1  0
  3 12  1  0
 11 13  1  0
 13 14  1  0
 14 15  2  3
 14 16  1  0
 10 17  1  0
 16 17  1  0
 15 18  1  0
 15 19  1  0
 11 20  1  0
 20 21  2  3
 21 22  1  0
 21 23  1  0
M  END

$$$$
No_1905-/dssg/home/sw_qyf/PocketFlow/Model-Generation-Results/5HT2A_7WC7_rec_A_10.pdb/2024-01-01-03-54-21/
     RDKit          3D

 35 38  0  0  0  0  0  0  0  0999 V2000
  -24.1553  -17.8465  145.7021 C   0  0  0  0  0  0  0  0  0  0  0  0
  -24.2855  -16.6364  145.3494 C   0  0  0  0  0  0  0  0  0  0  0  0
  -24.7211  -15.5955  146.2116 C   0  0  0  0  0  0  0  0  0  0  0  0
  -25.1321  -16.0374  147.5372 C   0  0  0  0  0  0  0  0  0  0  0  0
  -24.5141  -18.2630  147.0046 C   0  0  0  0  0  0  0  0  0  0  0  0
  -24.9573  -17.2963  147.9769 C   0  0  0  0  0  0  0  0  0  0  0  0
  -24.8720  -14.1818  145.7974 C   0  0  0  0  0  0  0  0  0  0  0  0
  -24.1212  -13.7395  144.8114 C   0  0  0  0  0  0  0  0  0  0  0  0
  -24.0857  -12.3079  144.6001 C   0  0  0  0  0  0  0  0  0  0  0  0
  -25.0128  -11.4833  145.3833 C   0  0  0  0  0  0  0  0  0  0  0  0
  -25.8526  -12.0442  146.3446 C   0  0  0  0  0  0  0  0  0  0  0  0
  -25.7152  -13.4159  146.6442 C   0  0  0  0  0  0  0  0  0  0  0  0
  -23.9659  -16.2341  144.1169 O   0  0  0  0  0  0  0  0  0  0  0  0
  -25.2375  -17.7040  149.1939 F   0  0  0  0  0  0  0  0  0  0  0  0
  -23.7865  -18.8397  144.8940 O   0  0  0  0  0  0  0  0  0  0  0  0
  -25.1053  -10.1873  145.0217 O   0  0  0  0  0  0  0  0  0  0  0  0
  -26.3854   -9.9265  144.3051 C   0  0  0  0  0  0  0  0  0  0  0  0
  -27.3382   -9.3138  145.1536 C   0  0  0  0  0  0  0  0  0  0  0  0
  -28.6098   -9.1882  144.4985 C   0  0  0  0  0  0  0  0  0  0  0  0
  -28.8481   -9.5945  143.1985 C   0  0  0  0  0  0  0  0  0  0  0  0
  -27.8525  -10.2880  142.5079 C   0  0  0  0  0  0  0  0  0  0  0  0
  -26.6487  -10.5059  143.1713 C   0  0  0  0  0  0  0  0  0  0  0  0
  -30.1860   -9.4310  142.6344 C   0  0  0  0  0  0  0  0  0  0  0  0
  -30.3045   -8.5412  141.6861 N   0  0  0  0  0  0  0  0  0  0  0  0
  -29.4692   -8.3643  140.6705 C   0  0  0  0  0  0  0  0  0  0  0  0
  -28.8658   -8.9558  139.9371 C   0  0  0  0  0  0  0  0  0  0  0  0
  -28.1421   -8.4857  138.7465 C   0  0  0  0  0  0  0  0  0  0  0  0
  -27.5418   -9.3528  137.8657 C   0  0  0  0  0  0  0  0  0  0  0  0
  -27.6047  -10.7418  138.1782 C   0  0  0  0  0  0  0  0  0  0  0  0
  -28.0202  -11.2292  139.4867 C   0  0  0  0  0  0  0  0  0  0  0  0
  -28.6559  -10.3809  140.2467 C   0  0  0  0  0  0  0  0  0  0  0  0
  -31.1144  -10.0739  143.0969 O   0  0  0  0  0  0  0  0  0  0  0  0
  -29.3568   -6.9266  140.6669 F   0  0  0  0  0  0  0  0  0  0  0  0
  -27.9488  -12.6706  139.6992 C   0  0  0  0  0  0  0  0  0  0  0  0
  -27.2558  -12.9829  141.0266 C   0  0  0  0  0  0  0  0  0  0  0  0
  3  7  1  0
  2 13  1  0
  6 14  1  0
  1 15  1  0
 10 16  1  0
 16 17  1  0
 20 23  1  0
 23 24  1  0
 24 25  1  0
 23 32  2  0
 25 33  1  0
 30 34  1  0
 34 35  1  0
 25 26  1  0
 17 18  2  0
 18 19  1  0
 19 20  2  0
 20 21  1  0
 21 22  2  0
 22 17  1  0
  1  2  2  0
  2  3  1  0
  3  4  2  0
  4  6  1  0
  6  5  2  0
  5  1  1  0
  7  8  2  0
  8  9  1  0
  9 10  2  0
 10 11  1  0
 11 12  2  0
 12  7  1  0
 26 27  2  0
 27 28  1  0
 28 29  2  0
 29 30  1  0
 30 31  2  0
 31 26  1  0
M  END

$$$$
No_1906-/dssg/home/sw_qyf/PocketFlow/Model-Generation-Results/5HT2A_7WC7_rec_A_10.pdb/2024-01-01-03-54-21/
     RDKit          3D

  7  7  0  0  0  0  0  0  0  0999 V2000
  -24.1553  -17.8465  145.7021 C   0  0  0  0  0  0  0  0  0  0  0  0
  -24.2856  -16.6364  145.3494 C   0  0  0  0  0  0  0  0  0  0  0  0
  -25.0033  -15.6772  146.0737 C   0  0  0  0  0  0  0  0  0  0  0  0
  -25.6964  -16.1810  147.2049 C   0  0  0  0  0  0  0  0  0  0  0  0
  -24.8143  -18.3454  146.8324 C   0  0  0  0  0  0  0  0  0  0  0  0
  -25.5292  -17.4614  147.6373 C   0  0  0  0  0  0  0  0  0  0  0  0
  -23.6541  -16.0768  144.2055 N   0  0  0  0  0  0  0  0  0  0  0  0
  2  7  1  0
  1  2  2  0
  2  3  1  0
  3  4  2  0
  4  6  1  0
  6  5  2  0
  5  1  1  0
M  END

$$$$
No_1907-/dssg/home/sw_qyf/PocketFlow/Model-Generation-Results/5HT2A_7WC7_rec_A_10.pdb/2024-01-01-03-54-21/
     RDKit          3D

 10 10  0  0  0  0  0  0  0  0999 V2000
  -23.1746  -16.6014  144.8668 C   0  0  0  0  0  0  0  0  0  0  0  0
  -23.7011  -17.0158  145.9774 C   0  0  0  0  0  0  0  0  0  0  0  0
  -24.7096  -16.6222  146.3577 C   0  0  0  0  0  0  0  0  0  0  0  0
  -25.4819  -15.5594  145.8226 C   0  0  0  0  0  0  0  0  0  0  0  0
  -24.9841  -15.0030  144.6879 C   0  0  0  0  0  0  0  0  0  0  0  0
  -23.7823  -15.5257  144.1978 C   0  0  0  0  0  0  0  0  0  0  0  0
  -25.7397  -13.6992  143.8616 Cl  0  0  0  0  0  0  0  0  0  0  0  0
  -23.0130  -18.0821  146.5599 F   0  0  0  0  0  0  0  0  0  0  0  0
  -25.4226  -17.2125  147.9814 Cl  0  0  0  0  0  0  0  0  0  0  0  0
  -26.5990  -15.0317  146.4432 F   0  0  0  0  0  0  0  0  0  0  0  0
  5  7  1  0
  2  8  1  0
  3  9  1  0
  4 10  1  0
  1  2  2  0
  2  3  1  0
  3  4  2  0
  4  5  1  0
  5  6  2  0
  6  1  1  0
M  END

$$$$
No_1908-/dssg/home/sw_qyf/PocketFlow/Model-Generation-Results/5HT2A_7WC7_rec_A_10.pdb/2024-01-01-03-54-21/
     RDKit          3D

 35 36  0  0  0  0  0  0  0  0999 V2000
  -24.1553  -17.8465  145.7021 C   0  0  0  0  0  0  0  0  0  0  0  0
  -24.6364  -17.2931  146.7091 C   0  0  0  0  0  0  0  0  0  0  0  0
  -25.8608  -16.5592  146.5934 C   0  0  0  0  0  0  0  0  0  0  0  0
  -25.9533  -15.5604  145.6681 C   0  0  0  0  0  0  0  0  0  0  0  0
  -25.1031  -14.5122  145.9220 C   0  0  0  0  0  0  0  0  0  0  0  0
  -25.2786  -13.4799  146.7325 C   0  0  0  0  0  0  0  0  0  0  0  0
  -24.3303  -12.3781  146.7668 C   0  0  0  0  0  0  0  0  0  0  0  0
  -24.2167  -14.0367  144.7401 C   0  0  0  0  0  0  0  0  0  0  0  0
  -23.9404  -15.0253  143.9066 F   0  0  0  0  0  0  0  0  0  0  0  0
  -23.3824  -12.8948  144.8101 C   0  0  0  0  0  0  0  0  0  0  0  0
  -23.5009  -12.0387  145.8340 C   0  0  0  0  0  0  0  0  0  0  0  0
  -24.2758  -17.9792  148.0643 C   0  0  0  0  0  0  0  0  0  0  0  0
  -22.8858  -17.4220  148.5128 C   0  0  0  0  0  0  0  0  0  0  0  0
  -22.2462  -17.1814  147.5807 F   0  0  0  0  0  0  0  0  0  0  0  0
  -23.0736  -16.1893  149.2343 F   0  0  0  0  0  0  0  0  0  0  0  0
  -27.0080  -16.8051  147.4731 C   0  0  0  0  0  0  0  0  0  0  0  0
  -28.3234  -16.6588  146.9299 C   0  0  0  0  0  0  0  0  0  0  0  0
  -29.2407  -15.8907  147.7734 C   0  0  0  0  0  0  0  0  0  0  0  0
  -29.0082  -14.5281  148.0245 C   0  0  0  0  0  0  0  0  0  0  0  0
  -30.1500  -13.7233  148.4898 C   0  0  0  0  0  0  0  0  0  0  0  0
  -30.3396  -12.4194  147.9749 C   0  0  0  0  0  0  0  0  0  0  0  0
  -31.3759  -11.9800  147.3542 C   0  0  0  0  0  0  0  0  0  0  0  0
  -31.0634  -10.7017  146.7910 C   0  0  0  0  0  0  0  0  0  0  0  0
  -30.3230  -10.6883  145.4658 C   0  0  0  0  0  0  0  0  0  0  0  0
  -29.0600  -11.3256  145.4434 C   0  0  0  0  0  0  0  0  0  0  0  0
  -28.3136  -11.4534  144.2675 C   0  0  0  0  0  0  0  0  0  0  0  0
  -27.3212  -12.4980  144.1557 C   0  0  0  0  0  0  0  0  0  0  0  0
  -28.5114  -10.5963  143.1853 C   0  0  0  0  0  0  0  0  0  0  0  0
  -28.9088  -10.9046  142.1902 C   0  0  0  0  0  0  0  0  0  0  0  0
  -29.4981  -10.0159  141.1818 C   0  0  0  0  0  0  0  0  0  0  0  0
  -28.5534   -9.4421  140.3420 C   0  0  0  0  0  0  0  0  0  0  0  0
  -27.7060  -10.2115  139.5508 C   0  0  0  0  0  0  0  0  0  0  0  0
  -27.3778  -11.5112  140.0408 C   0  0  0  0  0  0  0  0  0  0  0  0
  -27.9730  -11.8914  141.3529 C   0  0  0  0  0  0  0  0  0  0  0  0
  -26.5983  -12.3946  139.3249 C   0  0  0  0  0  0  0  0  0  0  0  0
  1  2  1  0
  2  3  1  0
  3  4  1  0
  4  5  1  0
  8  9  1  0
  2 12  1  0
 12 13  1  0
 13 14  1  0
 13 15  1  0
  3 16  1  0
 16 17  2  3
 17 18  1  0
 18 19  1  0
 19 20  2  3
 20 21  1  0
 21 22  1  0
 22 23  1  0
 23 24  1  0
 24 25  1  0
 25 26  1  0
 26 27  2  0
 26 28  1  0
 28 29  1  0
 33 35  1  0
 29 30  2  0
 30 31  1  0
 31 32  2  0
 32 33  1  0
 33 34  2  0
 34 29  1  0
  5  6  2  0
  6  7  1  0
  7 11  2  0
 11 10  1  0
 10  8  2  0
  8  5  1  0
M  END

$$$$
No_1909-/dssg/home/sw_qyf/PocketFlow/Model-Generation-Results/5HT2A_7WC7_rec_A_10.pdb/2024-01-01-03-54-21/
     RDKit          3D

 30 33  0  0  0  0  0  0  0  0999 V2000
  -24.1553  -17.8465  145.7021 C   0  0  0  0  0  0  0  0  0  0  0  0
  -24.6364  -17.2931  146.7091 C   0  0  0  0  0  0  0  0  0  0  0  0
  -24.0780  -17.2921  147.9389 C   0  0  0  0  0  0  0  0  0  0  0  0
  -24.6761  -16.7363  149.1478 C   0  0  0  0  0  0  0  0  0  0  0  0
  -25.9985  -16.2638  148.9932 C   0  0  0  0  0  0  0  0  0  0  0  0
  -26.6270  -16.3412  147.7728 C   0  0  0  0  0  0  0  0  0  0  0  0
  -25.9734  -16.9165  146.6819 C   0  0  0  0  0  0  0  0  0  0  0  0
  -23.6185  -19.1407  145.5578 C   0  0  0  0  0  0  0  0  0  0  0  0
  -28.0566  -15.8927  147.7166 C   0  0  0  0  0  0  0  0  0  0  0  0
  -28.3416  -14.5703  147.5658 C   0  0  0  0  0  0  0  0  0  0  0  0
  -29.5473  -13.9688  147.3824 C   0  0  0  0  0  0  0  0  0  0  0  0
  -29.7773  -12.5998  147.3024 C   0  0  0  0  0  0  0  0  0  0  0  0
  -29.0846  -11.9068  146.4544 C   0  0  0  0  0  0  0  0  0  0  0  0
  -29.2334  -10.5147  146.1740 C   0  0  0  0  0  0  0  0  0  0  0  0
  -28.7060  -10.1232  144.8722 C   0  0  0  0  0  0  0  0  0  0  0  0
  -27.5609  -10.7631  144.3989 C   0  0  0  0  0  0  0  0  0  0  0  0
  -27.2360  -12.0382  144.8941 C   0  0  0  0  0  0  0  0  0  0  0  0
  -27.9942  -12.6134  145.9608 C   0  0  0  0  0  0  0  0  0  0  0  0
  -26.2139  -12.8209  144.2135 C   0  0  0  0  0  0  0  0  0  0  0  0
  -25.9974  -14.1838  144.6303 C   0  0  0  0  0  0  0  0  0  0  0  0
  -24.6719  -14.7540  144.3832 C   0  0  0  0  0  0  0  0  0  0  0  0
  -23.5636  -13.7884  144.8979 C   0  0  0  0  0  0  0  0  0  0  0  0
  -23.9392  -12.8406  145.9129 C   0  0  0  0  0  0  0  0  0  0  0  0
  -24.5874  -13.4238  147.2917 Cl  0  0  0  0  0  0  0  0  0  0  0  0
  -27.4482  -13.8050  146.5133 C   0  0  0  0  0  0  0  0  0  0  0  0
  -23.2944  -19.5897  146.8368 O   0  0  0  0  0  0  0  0  0  0  0  0
  -26.9030  -10.1681  143.4263 O   0  0  0  0  0  0  0  0  0  0  0  0
  -30.7921  -12.0489  148.0535 O   0  0  0  0  0  0  0  0  0  0  0  0
  -26.5260  -14.4288  145.9070 O   0  0  0  0  0  0  0  0  0  0  0  0
  -22.9320  -13.1838  143.7518 O   0  0  0  0  0  0  0  0  0  0  0  0
  1  2  1  0
  1  8  2  3
  6  9  1  0
 13 14  1  0
 14 15  1  0
 15 16  1  0
 16 17  1  0
 17 18  1  0
 17 19  1  0
 19 20  1  0
 20 21  1  0
 21 22  1  0
 22 23  1  0
 23 24  1  0
  8 26  1  0
 16 27  2  0
 12 28  1  0
 20 29  1  0
 25 29  1  0
 22 30  1  0
  9 10  1  0
  2  3  2  0
  3  4  1  0
  4  5  2  0
  5  6  1  0
  6  7  2  0
  7  2  1  0
 10 11  2  0
 11 12  1  0
 12 13  2  0
 13 18  1  0
 18 25  2  0
 25 10  1  0
M  END

$$$$
No_1910-/dssg/home/sw_qyf/PocketFlow/Model-Generation-Results/5HT2A_7WC7_rec_A_10.pdb/2024-01-01-03-54-21/
     RDKit          3D

 23 24  0  0  0  0  0  0  0  0999 V2000
  -24.1553  -17.8465  145.7021 C   0  0  0  0  0  0  0  0  0  0  0  0
  -24.2856  -16.6364  145.3494 C   0  0  0  0  0  0  0  0  0  0  0  0
  -24.5733  -15.7651  145.9979 C   0  0  0  0  0  0  0  0  0  0  0  0
  -24.7088  -14.2765  145.5906 C   0  0  0  0  0  0  0  0  0  0  0  0
  -25.2269  -13.1991  146.2986 C   0  0  0  0  0  0  0  0  0  0  0  0
  -24.4599  -18.2327  147.0243 C   0  0  0  0  0  0  0  0  0  0  0  0
  -24.8762  -17.2628  147.9319 C   0  0  0  0  0  0  0  0  0  0  0  0
  -24.9299  -15.8401  147.4544 C   0  0  0  0  0  0  0  0  0  0  0  0
  -25.2243  -11.9149  145.8831 C   0  0  0  0  0  0  0  0  0  0  0  0
  -24.1915  -13.8880  144.3069 C   0  0  0  0  0  0  0  0  0  0  0  0
  -23.8264  -14.7504  143.5209 O   0  0  0  0  0  0  0  0  0  0  0  0
  -24.6701  -11.5417  144.6917 C   0  0  0  0  0  0  0  0  0  0  0  0
  -24.3884  -12.4425  143.9304 C   0  0  0  0  0  0  0  0  0  0  0  0
  -25.1265  -17.5216  149.3757 C   0  0  0  0  0  0  0  0  0  0  0  0
  -26.3570  -17.6815  149.8046 O   0  0  0  0  0  0  0  0  0  0  0  0
  -24.1184  -17.5268  150.2718 O   0  0  0  0  0  0  0  0  0  0  0  0
  -25.6883  -10.9318  146.7665 F   0  0  0  0  0  0  0  0  0  0  0  0
  -23.3923  -16.4032  150.5626 C   0  0  0  0  0  0  0  0  0  0  0  0
  -21.8408  -16.7421  150.4992 C   0  0  0  0  0  0  0  0  0  0  0  0
  -21.2692  -15.6162  150.2894 F   0  0  0  0  0  0  0  0  0  0  0  0
  -21.5262  -17.0998  151.8369 F   0  0  0  0  0  0  0  0  0  0  0  0
  -23.7945  -18.9804  144.9428 N   0  0  0  0  0  0  0  0  0  0  0  0
  -21.7280  -17.5213  149.5973 F   0  0  0  0  0  0  0  0  0  0  0  0
  3  4  1  0
 10 11  1  0
  7 14  1  0
 14 15  2  0
 14 16  1  0
  9 17  1  0
 16 18  1  0
 18 19  1  0
 19 20  1  0
 19 21  1  0
  1 22  1  0
 19 23  1  0
  4  5  2  0
  5  9  1  0
  9 12  2  0
 12 13  1  0
 13 10  2  0
 10  4  1  0
  1  2  2  0
  2  3  1  0
  3  8  2  0
  8  7  1  0
  7  6  2  0
  6  1  1  0
M  END

$$$$
No_1911-/dssg/home/sw_qyf/PocketFlow/Model-Generation-Results/5HT2A_7WC7_rec_A_10.pdb/2024-01-01-03-54-21/
     RDKit          3D

 32 33  0  0  0  0  0  0  0  0999 V2000
  -23.1746  -16.6014  144.8668 C   0  0  0  0  0  0  0  0  0  0  0  0
  -23.7011  -17.0158  145.9774 C   0  0  0  0  0  0  0  0  0  0  0  0
  -24.2134  -16.0722  146.8877 C   0  0  0  0  0  0  0  0  0  0  0  0
  -23.3742  -15.2706  144.3922 C   0  0  0  0  0  0  0  0  0  0  0  0
  -24.0638  -14.3065  145.2723 C   0  0  0  0  0  0  0  0  0  0  0  0
  -24.2650  -12.9175  144.8725 C   0  0  0  0  0  0  0  0  0  0  0  0
  -24.4346  -14.7166  146.5554 C   0  0  0  0  0  0  0  0  0  0  0  0
  -25.4038  -12.2702  145.3923 C   0  0  0  0  0  0  0  0  0  0  0  0
  -25.8919  -11.1079  144.7868 C   0  0  0  0  0  0  0  0  0  0  0  0
  -27.1282  -10.5367  145.2483 C   0  0  0  0  0  0  0  0  0  0  0  0
  -28.2724  -11.1064  144.6203 C   0  0  0  0  0  0  0  0  0  0  0  0
  -29.0006  -10.3239  144.0320 C   0  0  0  0  0  0  0  0  0  0  0  0
  -29.1892  -10.3051  142.5874 C   0  0  0  0  0  0  0  0  0  0  0  0
  -28.3741  -11.0235  141.8530 C   0  0  0  0  0  0  0  0  0  0  0  0
  -28.5790  -11.0903  140.4059 C   0  0  0  0  0  0  0  0  0  0  0  0
  -27.4575  -11.1190  139.6001 C   0  0  0  0  0  0  0  0  0  0  0  0
  -26.6304  -10.1534  139.6549 F   0  0  0  0  0  0  0  0  0  0  0  0
  -26.6349  -12.2965  139.8054 F   0  0  0  0  0  0  0  0  0  0  0  0
  -27.8034  -11.1165  138.2424 F   0  0  0  0  0  0  0  0  0  0  0  0
  -23.5393  -18.4338  146.4451 C   0  0  0  0  0  0  0  0  0  0  0  0
  -22.6083  -18.8772  146.8481 O   0  0  0  0  0  0  0  0  0  0  0  0
  -24.6870  -19.1311  146.3720 O   0  0  0  0  0  0  0  0  0  0  0  0
  -30.2139   -9.5139  141.9699 C   0  0  0  0  0  0  0  0  0  0  0  0
  -31.2318   -8.8502  142.7641 C   0  0  0  0  0  0  0  0  0  0  0  0
  -31.8273   -7.7976  142.2842 C   0  0  0  0  0  0  0  0  0  0  0  0
  -30.6268   -8.4171  144.0284 F   0  0  0  0  0  0  0  0  0  0  0  0
  -31.1374   -6.9298  141.9799 O   0  0  0  0  0  0  0  0  0  0  0  0
  -26.6688  -13.1532  145.6847 C   0  0  0  0  0  0  0  0  0  0  0  0
  -28.0408  -12.4653  145.6349 C   0  0  0  0  0  0  0  0  0  0  0  0
  -26.6835  -13.4643  147.0514 F   0  0  0  0  0  0  0  0  0  0  0  0
  -26.7391  -14.3278  144.8276 C   0  0  0  0  0  0  0  0  0  0  0  0
  -29.1311  -12.9350  146.0496 O   0  0  0  0  0  0  0  0  0  0  0  0
  5  6  1  0
  6  8  1  0
  8  9  1  0
  9 10  1  0
 10 11  1  0
 11 12  1  0
 12 13  2  3
 13 14  1  0
 14 15  2  3
 15 16  1  0
 16 17  1  0
 16 18  1  0
 16 19  1  0
  2 20  1  0
 20 21  2  0
 20 22  1  0
 13 23  1  0
 23 24  2  3
 24 25  1  0
 24 26  1  0
 25 27  1  0
  8 28  1  0
 11 29  1  0
 28 29  1  0
 28 30  1  0
 28 31  1  0
 29 32  2  0
  1  2  2  0
  2  3  1  0
  3  7  2  0
  7  5  1  0
  5  4  2  0
  4  1  1  0
M  END

$$$$
No_1912-/dssg/home/sw_qyf/PocketFlow/Model-Generation-Results/5HT2A_7WC7_rec_A_10.pdb/2024-01-01-03-54-21/
     RDKit          3D

 23 24  0  0  0  0  0  0  0  0999 V2000
  -23.1746  -16.6014  144.8668 C   0  0  0  0  0  0  0  0  0  0  0  0
  -23.7011  -17.0158  145.9774 C   0  0  0  0  0  0  0  0  0  0  0  0
  -24.2134  -16.0722  146.8877 C   0  0  0  0  0  0  0  0  0  0  0  0
  -23.3742  -15.2706  144.3922 C   0  0  0  0  0  0  0  0  0  0  0  0
  -24.0638  -14.3065  145.2723 C   0  0  0  0  0  0  0  0  0  0  0  0
  -24.4769  -14.7246  146.5384 C   0  0  0  0  0  0  0  0  0  0  0  0
  -24.2143  -12.8848  144.8927 C   0  0  0  0  0  0  0  0  0  0  0  0
  -23.0914  -12.3552  144.7723 O   0  0  0  0  0  0  0  0  0  0  0  0
  -25.3130  -12.3411  144.7888 N   0  0  0  0  0  0  0  0  0  0  0  0
  -25.4458  -10.8406  144.7073 C   0  0  0  0  0  0  0  0  0  0  0  0
  -26.9385  -10.4984  145.1149 C   0  0  0  0  0  0  0  0  0  0  0  0
  -27.6709   -9.9267  144.1187 C   0  0  0  0  0  0  0  0  0  0  0  0
  -29.1244  -10.3053  144.1787 C   0  0  0  0  0  0  0  0  0  0  0  0
  -29.9674   -9.8076  143.2000 C   0  0  0  0  0  0  0  0  0  0  0  0
  -31.1383   -9.1025  143.4401 C   0  0  0  0  0  0  0  0  0  0  0  0
  -31.2391   -7.7760  142.7530 C   0  0  0  0  0  0  0  0  0  0  0  0
  -30.0592   -7.5052  141.9052 C   0  0  0  0  0  0  0  0  0  0  0  0
  -29.5166   -8.7235  141.4664 C   0  0  0  0  0  0  0  0  0  0  0  0
  -29.0233   -9.6736  142.3425 C   0  0  0  0  0  0  0  0  0  0  0  0
  -28.6823  -10.9551  141.6755 C   0  0  0  0  0  0  0  0  0  0  0  0
  -27.6871  -10.8732  140.6149 C   0  0  0  0  0  0  0  0  0  0  0  0
  -27.3088  -11.9855  139.8413 C   0  0  0  0  0  0  0  0  0  0  0  0
  -27.6515  -12.9582  139.7223 C   0  0  0  0  0  0  0  0  0  0  0  0
  5  7  1  0
  7  8  2  0
  7  9  1  0
  9 10  1  0
 10 11  1  0
 11 12  1  0
 12 13  1  0
 13 14  1  0
 19 20  1  0
 20 21  1  0
 21 22  2  3
 22 23  1  0
 14 15  2  0
 15 16  1  0
 16 17  2  0
 17 18  1  0
 18 19  2  0
 19 14  1  0
  1  2  2  0
  2  3  1  0
  3  6  2  0
  6  5  1  0
  5  4  2  0
  4  1  1  0
M  END

$$$$
No_1913-/dssg/home/sw_qyf/PocketFlow/Model-Generation-Results/5HT2A_7WC7_rec_A_10.pdb/2024-01-01-03-54-21/
     RDKit          3D

 34 35  0  0  0  0  0  0  0  0999 V2000
  -23.1746  -16.6014  144.8668 C   0  0  0  0  0  0  0  0  0  0  0  0
  -24.0189  -16.0564  145.8445 C   0  0  0  0  0  0  0  0  0  0  0  0
  -24.4850  -14.7380  145.6359 C   0  0  0  0  0  0  0  0  0  0  0  0
  -24.0208  -14.0081  144.6269 C   0  0  0  0  0  0  0  0  0  0  0  0
  -23.3686  -12.7461  145.1561 C   0  0  0  0  0  0  0  0  0  0  0  0
  -24.3490  -16.8813  146.9924 C   0  0  0  0  0  0  0  0  0  0  0  0
  -25.1905  -17.5012  147.2038 C   0  0  0  0  0  0  0  0  0  0  0  0
  -22.5274  -11.9817  144.2178 C   0  0  0  0  0  0  0  0  0  0  0  0
  -26.2073  -17.5753  146.2942 N   0  0  0  0  0  0  0  0  0  0  0  0
  -27.4277  -16.9331  146.5474 C   0  0  0  0  0  0  0  0  0  0  0  0
  -27.9083  -16.0164  145.5961 C   0  0  0  0  0  0  0  0  0  0  0  0
  -27.4627  -14.6082  146.0528 C   0  0  0  0  0  0  0  0  0  0  0  0
  -28.1679  -13.4672  145.8798 C   0  0  0  0  0  0  0  0  0  0  0  0
  -27.6256  -12.1530  146.0273 C   0  0  0  0  0  0  0  0  0  0  0  0
  -28.3838  -11.0276  145.6379 C   0  0  0  0  0  0  0  0  0  0  0  0
  -28.1555  -10.3713  144.4153 C   0  0  0  0  0  0  0  0  0  0  0  0
  -29.1629   -9.5476  143.8176 C   0  0  0  0  0  0  0  0  0  0  0  0
  -28.9260   -8.7709  142.7464 C   0  0  0  0  0  0  0  0  0  0  0  0
  -29.4411   -7.4550  142.6240 C   0  0  0  0  0  0  0  0  0  0  0  0
  -30.1753   -7.1356  141.6044 C   0  0  0  0  0  0  0  0  0  0  0  0
  -29.6615   -7.5789  140.3193 C   0  0  0  0  0  0  0  0  0  0  0  0
  -28.9722   -8.7950  140.2445 C   0  0  0  0  0  0  0  0  0  0  0  0
  -28.6684   -9.4243  141.5211 C   0  0  0  0  0  0  0  0  0  0  0  0
  -30.3031   -9.4729  144.5375 O   0  0  0  0  0  0  0  0  0  0  0  0
  -28.5587   -9.3228  139.1324 N   0  0  0  0  0  0  0  0  0  0  0  0
  -27.9559  -10.5343  139.0835 C   0  0  0  0  0  0  0  0  0  0  0  0
  -28.2906  -11.5863  139.7391 C   0  0  0  0  0  0  0  0  0  0  0  0
  -27.5744  -12.8383  139.4182 C   0  0  0  0  0  0  0  0  0  0  0  0
  -26.4346  -12.6300  138.6195 C   0  0  0  0  0  0  0  0  0  0  0  0
  -25.8368  -11.4856  138.3484 C   0  0  0  0  0  0  0  0  0  0  0  0
  -26.6373  -10.4200  138.4721 C   0  0  0  0  0  0  0  0  0  0  0  0
  -28.8736   -8.7485  137.8773 C   0  0  0  0  0  0  0  0  0  0  0  0
  -26.7991   -9.6457  144.6174 C   0  0  0  0  0  0  0  0  0  0  0  0
  -21.5998  -12.9495  143.7162 C   0  0  0  0  0  0  0  0  0  0  0  0
  1  2  1  0
  2  3  1  0
  3  4  1  0
  4  5  1  0
  2  6  1  0
  6  7  2  3
  5  8  1  0
  7  9  1  0
  9 10  1  0
 10 11  1  0
 11 12  1  0
 12 13  2  3
 13 14  1  0
 14 15  1  0
 15 16  2  3
 16 17  1  0
 17 18  1  0
 17 24  2  0
 22 25  1  0
 25 26  1  0
 25 32  1  0
 16 33  1  0
  8 34  1  0
 18 19  2  0
 19 20  1  0
 20 21  2  0
 21 22  1  0
 22 23  2  0
 23 18  1  0
 26 27  2  0
 27 28  1  0
 28 29  2  0
 29 30  1  0
 30 31  2  0
 31 26  1  0
M  END

$$$$
No_1914-/dssg/home/sw_qyf/PocketFlow/Model-Generation-Results/5HT2A_7WC7_rec_A_10.pdb/2024-01-01-03-54-21/
     RDKit          3D

 26 29  0  0  0  0  0  0  0  0999 V2000
  -24.1553  -17.8465  145.7021 C   0  0  0  0  0  0  0  0  0  0  0  0
  -24.2856  -16.6364  145.3494 C   0  0  0  0  0  0  0  0  0  0  0  0
  -23.7824  -15.9602  144.3554 C   0  0  0  0  0  0  0  0  0  0  0  0
  -23.5930  -14.6024  144.5056 C   0  0  0  0  0  0  0  0  0  0  0  0
  -24.2427  -13.8022  145.5151 C   0  0  0  0  0  0  0  0  0  0  0  0
  -24.8405  -14.5369  146.5468 C   0  0  0  0  0  0  0  0  0  0  0  0
  -24.7818  -15.9073  146.5420 C   0  0  0  0  0  0  0  0  0  0  0  0
  -23.5439  -18.4563  146.6335 C   0  0  0  0  0  0  0  0  0  0  0  0
  -23.7163  -17.7535  147.9863 C   0  0  0  0  0  0  0  0  0  0  0  0
  -24.2305  -16.3746  147.9279 C   0  0  0  0  0  0  0  0  0  0  0  0
  -24.5909  -12.4336  145.2261 C   0  0  0  0  0  0  0  0  0  0  0  0
  -25.5589  -11.8494  145.9684 C   0  0  0  0  0  0  0  0  0  0  0  0
  -26.8748  -11.7837  145.3926 C   0  0  0  0  0  0  0  0  0  0  0  0
  -27.9551  -12.2509  146.2283 C   0  0  0  0  0  0  0  0  0  0  0  0
  -28.0015  -13.4025  146.9580 C   0  0  0  0  0  0  0  0  0  0  0  0
  -29.2056  -13.9788  147.2549 C   0  0  0  0  0  0  0  0  0  0  0  0
  -30.3328  -13.1411  147.3392 C   0  0  0  0  0  0  0  0  0  0  0  0
  -30.3242  -11.8662  146.8366 C   0  0  0  0  0  0  0  0  0  0  0  0
  -29.0728  -11.3885  146.2427 C   0  0  0  0  0  0  0  0  0  0  0  0
  -27.0952  -10.3405  144.8615 C   0  0  0  0  0  0  0  0  0  0  0  0
  -28.1501  -10.1631  143.8684 C   0  0  0  0  0  0  0  0  0  0  0  0
  -29.3582   -9.7653  144.2458 C   0  0  0  0  0  0  0  0  0  0  0  0
  -30.0132  -10.7297  145.2770 C   0  0  0  0  0  0  0  0  0  0  0  0
  -30.3582   -9.2455  143.3200 C   0  0  0  0  0  0  0  0  0  0  0  0
  -31.5040   -9.0353  143.3737 C   0  0  0  0  0  0  0  0  0  0  0  0
  -32.2448   -8.4175  142.4341 N   0  0  0  0  0  0  0  0  0  0  0  0
  5 11  1  0
 11 12  1  0
 12 13  1  0
 13 14  1  0
 13 20  1  0
 20 21  1  0
 21 22  1  0
 19 23  1  0
 22 23  1  0
 22 24  1  0
 24 25  2  3
 25 26  1  0
  2  3  1  0
  3  4  2  0
  4  5  1  0
  5  6  2  0
  6  7  1  0
  1  2  2  0
  2  7  1  0
  7 10  2  0
 10  9  1  0
  9  8  2  0
  8  1  1  0
 14 15  2  0
 15 16  1  0
 16 17  2  0
 17 18  1  0
 18 19  2  0
 19 14  1  0
M  END

$$$$
No_1915-/dssg/home/sw_qyf/PocketFlow/Model-Generation-Results/5HT2A_7WC7_rec_A_10.pdb/2024-01-01-03-54-21/
     RDKit          3D

 35 37  0  0  0  0  0  0  0  0999 V2000
  -23.1746  -16.6014  144.8668 C   0  0  0  0  0  0  0  0  0  0  0  0
  -23.7011  -17.0158  145.9774 C   0  0  0  0  0  0  0  0  0  0  0  0
  -23.7336  -18.2775  146.3737 C   0  0  0  0  0  0  0  0  0  0  0  0
  -24.1960  -18.6445  147.6858 C   0  0  0  0  0  0  0  0  0  0  0  0
  -24.7100  -17.6145  148.5486 C   0  0  0  0  0  0  0  0  0  0  0  0
  -24.7929  -16.2635  148.0870 C   0  0  0  0  0  0  0  0  0  0  0  0
  -24.2508  -15.9434  146.8891 C   0  0  0  0  0  0  0  0  0  0  0  0
  -22.9006  -17.2467  143.9373 Cl  0  0  0  0  0  0  0  0  0  0  0  0
  -23.3387  -15.0054  144.6807 C   0  0  0  0  0  0  0  0  0  0  0  0
  -24.2011  -14.1644  145.2778 C   0  0  0  0  0  0  0  0  0  0  0  0
  -24.4417  -14.5584  146.5161 C   0  0  0  0  0  0  0  0  0  0  0  0
  -24.2094  -12.7279  144.9684 C   0  0  0  0  0  0  0  0  0  0  0  0
  -25.5323  -12.1834  144.8905 C   0  0  0  0  0  0  0  0  0  0  0  0
  -26.4742  -12.6981  144.5510 C   0  0  0  0  0  0  0  0  0  0  0  0
  -27.8205  -12.0345  144.4288 C   0  0  0  0  0  0  0  0  0  0  0  0
  -28.3405  -11.4731  143.4028 C   0  0  0  0  0  0  0  0  0  0  0  0
  -29.5117  -10.5545  143.6105 C   0  0  0  0  0  0  0  0  0  0  0  0
  -29.9975   -9.8775  142.5710 N   0  0  0  0  0  0  0  0  0  0  0  0
  -31.0668   -9.0396  142.6575 C   0  0  0  0  0  0  0  0  0  0  0  0
  -30.6145   -7.6023  142.7545 C   0  0  0  0  0  0  0  0  0  0  0  0
  -29.6795  -10.1299  144.8335 O   0  0  0  0  0  0  0  0  0  0  0  0
  -27.9667  -11.7665  142.1226 C   0  0  0  0  0  0  0  0  0  0  0  0
  -27.6709  -13.0136  141.7141 C   0  0  0  0  0  0  0  0  0  0  0  0
  -27.3367  -13.2087  140.3257 C   0  0  0  0  0  0  0  0  0  0  0  0
  -27.3303  -12.0936  139.5099 C   0  0  0  0  0  0  0  0  0  0  0  0
  -27.6750  -10.7974  139.9243 C   0  0  0  0  0  0  0  0  0  0  0  0
  -27.9824  -10.6040  141.2762 C   0  0  0  0  0  0  0  0  0  0  0  0
  -27.6692   -9.6979  138.9701 C   0  0  0  0  0  0  0  0  0  0  0  0
  -28.5225   -8.5539  139.3682 C   0  0  0  0  0  0  0  0  0  0  0  0
  -28.8600   -7.5821  138.4084 C   0  0  0  0  0  0  0  0  0  0  0  0
  -32.1316   -9.3843  143.2105 O   0  0  0  0  0  0  0  0  0  0  0  0
  -28.3810   -7.9864  137.1262 C   0  0  0  0  0  0  0  0  0  0  0  0
  -26.9670  -12.3217  138.2722 O   0  0  0  0  0  0  0  0  0  0  0  0
  -23.2276  -11.9779  145.6517 O   0  0  0  0  0  0  0  0  0  0  0  0
  -29.8980   -7.0060  141.7074 C   0  0  0  0  0  0  0  0  0  0  0  0
  1  8  1  0
 10 12  1  0
 12 13  1  0
 13 14  2  3
 14 15  1  0
 15 16  2  3
 16 17  1  0
 17 18  1  0
 18 19  1  0
 19 20  1  0
 17 21  2  0
 16 22  1  0
 26 28  1  0
 28 29  1  0
 29 30  2  3
 19 31  2  0
 30 32  1  0
 25 33  1  0
 12 34  1  0
 20 35  1  0
  1  2  2  0
  7 11  2  0
 11 10  1  0
 10  9  2  0
  9  1  1  0
  2  3  1  0
  3  4  2  0
  4  5  1  0
  5  6  2  0
  6  7  1  0
  7  2  1  0
 22 23  2  0
 23 24  1  0
 24 25  2  0
 25 26  1  0
 26 27  2  0
 27 22  1  0
M  END

$$$$
No_1916-/dssg/home/sw_qyf/PocketFlow/Model-Generation-Results/5HT2A_7WC7_rec_A_10.pdb/2024-01-01-03-54-21/
     RDKit          3D

 29 30  0  0  0  0  0  0  0  0999 V2000
  -23.1746  -16.6014  144.8668 C   0  0  0  0  0  0  0  0  0  0  0  0
  -23.7011  -17.0158  145.9774 C   0  0  0  0  0  0  0  0  0  0  0  0
  -24.2134  -16.0722  146.8877 C   0  0  0  0  0  0  0  0  0  0  0  0
  -23.3742  -15.2706  144.3922 C   0  0  0  0  0  0  0  0  0  0  0  0
  -24.0445  -14.2973  145.2608 C   0  0  0  0  0  0  0  0  0  0  0  0
  -24.4773  -14.7066  146.5258 C   0  0  0  0  0  0  0  0  0  0  0  0
  -24.1883  -12.8818  144.8809 C   0  0  0  0  0  0  0  0  0  0  0  0
  -24.2072  -11.9765  146.0468 C   0  0  0  0  0  0  0  0  0  0  0  0
  -23.5704  -18.4317  146.4389 C   0  0  0  0  0  0  0  0  0  0  0  0
  -22.5377  -18.6829  147.0724 F   0  0  0  0  0  0  0  0  0  0  0  0
  -23.6057  -19.2802  145.4296 F   0  0  0  0  0  0  0  0  0  0  0  0
  -24.6592  -18.7403  147.2430 F   0  0  0  0  0  0  0  0  0  0  0  0
  -25.2955  -11.2229  146.0087 C   0  0  0  0  0  0  0  0  0  0  0  0
  -25.9600  -10.9262  144.7155 C   0  0  0  0  0  0  0  0  0  0  0  0
  -27.0074  -11.8252  144.3069 C   0  0  0  0  0  0  0  0  0  0  0  0
  -27.7572  -12.3838  145.2773 C   0  0  0  0  0  0  0  0  0  0  0  0
  -28.9305  -11.6771  145.8272 C   0  0  0  0  0  0  0  0  0  0  0  0
  -29.6300  -12.0070  146.8532 C   0  0  0  0  0  0  0  0  0  0  0  0
  -29.4112  -13.2770  147.5370 C   0  0  0  0  0  0  0  0  0  0  0  0
  -28.3443  -14.0857  146.9999 C   0  0  0  0  0  0  0  0  0  0  0  0
  -27.5300  -13.5877  145.9608 C   0  0  0  0  0  0  0  0  0  0  0  0
  -29.3078  -10.4449  145.1964 N   0  0  0  0  0  0  0  0  0  0  0  0
  -30.3544  -10.2424  144.3786 C   0  0  0  0  0  0  0  0  0  0  0  0
  -30.4636   -8.9955  143.7415 C   0  0  0  0  0  0  0  0  0  0  0  0
  -29.5818   -8.5612  142.7584 C   0  0  0  0  0  0  0  0  0  0  0  0
  -29.6901   -7.2354  142.2412 C   0  0  0  0  0  0  0  0  0  0  0  0
  -29.3775   -6.9554  140.8664 C   0  0  0  0  0  0  0  0  0  0  0  0
  -28.9771   -8.1540  140.0820 C   0  0  0  0  0  0  0  0  0  0  0  0
  -28.6635   -7.9244  138.6941 C   0  0  0  0  0  0  0  0  0  0  0  0
  5  7  1  0
  7  8  1  0
  2  9  1  0
  9 10  1  0
  9 11  1  0
  9 12  1  0
  8 13  2  3
 13 14  1  0
 14 15  1  0
 15 16  1  0
 17 22  1  0
 22 23  1  0
 23 24  1  0
 24 25  1  0
 25 26  1  0
 26 27  1  0
 27 28  2  3
 28 29  1  0
  1  2  2  0
  2  3  1  0
  3  6  2  0
  6  5  1  0
  5  4  2  0
  4  1  1  0
 16 17  2  0
 17 18  1  0
 18 19  2  0
 19 20  1  0
 20 21  2  0
 21 16  1  0
M  END

$$$$
No_1917-/dssg/home/sw_qyf/PocketFlow/Model-Generation-Results/5HT2A_7WC7_rec_A_10.pdb/2024-01-01-03-54-21/
     RDKit          3D

 14 14  0  0  0  0  0  0  0  0999 V2000
  -23.1746  -16.6014  144.8668 C   0  0  0  0  0  0  0  0  0  0  0  0
  -23.7011  -17.0158  145.9774 C   0  0  0  0  0  0  0  0  0  0  0  0
  -24.2134  -16.0722  146.8877 C   0  0  0  0  0  0  0  0  0  0  0  0
  -23.3742  -15.2706  144.3922 C   0  0  0  0  0  0  0  0  0  0  0  0
  -24.0445  -14.2973  145.2608 C   0  0  0  0  0  0  0  0  0  0  0  0
  -24.2269  -12.9067  144.8433 C   0  0  0  0  0  0  0  0  0  0  0  0
  -24.7467  -16.4709  148.1837 C   0  0  0  0  0  0  0  0  0  0  0  0
  -24.4471  -14.7242  146.5444 C   0  0  0  0  0  0  0  0  0  0  0  0
  -23.1848  -12.2513  144.9110 O   0  0  0  0  0  0  0  0  0  0  0  0
  -26.1813  -16.5542  148.4393 C   0  0  0  0  0  0  0  0  0  0  0  0
  -26.6596  -17.5358  149.2838 C   0  0  0  0  0  0  0  0  0  0  0  0
  -27.1098  -17.1116  150.2624 C   0  0  0  0  0  0  0  0  0  0  0  0
  -25.1092  -12.5488  144.1909 O   0  0  0  0  0  0  0  0  0  0  0  0
  -23.5093  -18.4228  146.4488 C   0  0  0  0  0  0  0  0  0  0  0  0
  5  6  1  0
  3  7  1  0
  6  9  1  0
  7 10  1  0
 10 11  2  3
 11 12  1  0
  6 13  2  0
  2 14  1  0
  1  2  2  0
  2  3  1  0
  3  8  2  0
  8  5  1  0
  5  4  2  0
  4  1  1  0
M  END

$$$$
No_1918-/dssg/home/sw_qyf/PocketFlow/Model-Generation-Results/5HT2A_7WC7_rec_A_10.pdb/2024-01-01-03-54-21/
     RDKit          3D

 24 25  0  0  0  0  0  0  0  0999 V2000
  -24.1553  -17.8465  145.7021 C   0  0  0  0  0  0  0  0  0  0  0  0
  -23.9795  -18.4462  146.7426 C   0  0  0  0  0  0  0  0  0  0  0  0
  -25.1196  -16.8106  145.6409 C   0  0  0  0  0  0  0  0  0  0  0  0
  -25.2440  -15.8776  144.5240 C   0  0  0  0  0  0  0  0  0  0  0  0
  -26.0733  -14.7284  144.7061 C   0  0  0  0  0  0  0  0  0  0  0  0
  -27.0964  -14.7050  145.6625 C   0  0  0  0  0  0  0  0  0  0  0  0
  -27.1085  -15.7327  146.6117 C   0  0  0  0  0  0  0  0  0  0  0  0
  -26.1368  -16.7554  146.5717 C   0  0  0  0  0  0  0  0  0  0  0  0
  -23.5406  -18.0016  147.7254 C   0  0  0  0  0  0  0  0  0  0  0  0
  -24.0321  -18.0469  149.0786 N   0  0  0  0  0  0  0  0  0  0  0  0
  -23.4224  -17.3264  150.1414 C   0  0  0  0  0  0  0  0  0  0  0  0
  -23.8286  -17.3630  151.3714 N   0  0  0  0  0  0  0  0  0  0  0  0
  -22.2421  -16.8176  149.8717 O   0  0  0  0  0  0  0  0  0  0  0  0
  -26.0068  -13.7763  143.6829 N   0  0  0  0  0  0  0  0  0  0  0  0
  -28.3299  -15.6878  147.4088 C   0  0  0  0  0  0  0  0  0  0  0  0
  -29.2547  -14.6593  147.4436 C   0  0  0  0  0  0  0  0  0  0  0  0
  -29.7880  -13.9478  148.2061 C   0  0  0  0  0  0  0  0  0  0  0  0
  -30.5573  -12.7122  147.9876 C   0  0  0  0  0  0  0  0  0  0  0  0
  -30.2668  -12.1118  146.7657 C   0  0  0  0  0  0  0  0  0  0  0  0
  -29.1694  -12.5145  145.9906 C   0  0  0  0  0  0  0  0  0  0  0  0
  -28.7561  -13.8823  146.2249 C   0  0  0  0  0  0  0  0  0  0  0  0
  -29.0939  -14.4196  145.1721 O   0  0  0  0  0  0  0  0  0  0  0  0
  -28.1879  -14.2947  145.1219 F   0  0  0  0  0  0  0  0  0  0  0  0
  -26.3033  -13.4664  146.5658 C   0  0  0  0  0  0  0  0  0  0  0  0
  1  2  2  3
  1  3  1  0
  2  9  1  0
  9 10  1  0
 10 11  1  0
 11 12  1  0
 11 13  2  0
  5 14  1  0
  7 15  1  0
 21 22  1  0
 22 23  1  0
  6 24  1  0
 15 16  1  0
  3  4  2  0
  4  5  1  0
  5  6  2  0
  6  7  1  0
  7  8  2  0
  8  3  1  0
 16 17  2  0
 17 18  1  0
 18 19  2  0
 19 20  1  0
 20 21  2  0
 21 16  1  0
M  END

$$$$
No_1919-/dssg/home/sw_qyf/PocketFlow/Model-Generation-Results/5HT2A_7WC7_rec_A_10.pdb/2024-01-01-03-54-21/
     RDKit          3D

 35 35  0  0  0  0  0  0  0  0999 V2000
  -23.1746  -16.6014  144.8668 C   0  0  0  0  0  0  0  0  0  0  0  0
  -23.8963  -15.5346  144.7885 C   0  0  0  0  0  0  0  0  0  0  0  0
  -23.6398  -14.5115  145.3281 C   0  0  0  0  0  0  0  0  0  0  0  0
  -24.3866  -13.2477  145.3906 C   0  0  0  0  0  0  0  0  0  0  0  0
  -23.7392  -12.0982  145.9891 C   0  0  0  0  0  0  0  0  0  0  0  0
  -25.7956  -13.3974  145.8426 C   0  0  0  0  0  0  0  0  0  0  0  0
  -26.6711  -13.0311  144.8548 C   0  0  0  0  0  0  0  0  0  0  0  0
  -26.5799  -13.0804  143.5645 C   0  0  0  0  0  0  0  0  0  0  0  0
  -27.3768  -12.4920  142.6217 C   0  0  0  0  0  0  0  0  0  0  0  0
  -27.2630  -12.7366  141.2653 C   0  0  0  0  0  0  0  0  0  0  0  0
  -28.0959  -12.1325  140.3467 C   0  0  0  0  0  0  0  0  0  0  0  0
  -27.7843  -12.2508  138.9687 C   0  0  0  0  0  0  0  0  0  0  0  0
  -23.5817  -17.7699  145.4042 C   0  0  0  0  0  0  0  0  0  0  0  0
  -24.2272  -17.4898  146.7122 C   0  0  0  0  0  0  0  0  0  0  0  0
  -25.5096  -17.4658  147.0010 C   0  0  0  0  0  0  0  0  0  0  0  0
  -26.0052  -16.9450  148.2335 C   0  0  0  0  0  0  0  0  0  0  0  0
  -25.0475  -16.6951  149.3008 C   0  0  0  0  0  0  0  0  0  0  0  0
  -23.7125  -16.7752  149.0634 C   0  0  0  0  0  0  0  0  0  0  0  0
  -23.2560  -17.1147  147.8086 C   0  0  0  0  0  0  0  0  0  0  0  0
  -26.9980  -11.3508  138.4144 C   0  0  0  0  0  0  0  0  0  0  0  0
  -28.2368  -11.4187  143.0479 C   0  0  0  0  0  0  0  0  0  0  0  0
  -27.9801  -10.4589  143.4900 C   0  0  0  0  0  0  0  0  0  0  0  0
  -29.0931   -9.4233  143.9899 C   0  0  0  0  0  0  0  0  0  0  0  0
  -30.3956   -9.8222  143.7821 C   0  0  0  0  0  0  0  0  0  0  0  0
  -30.9265   -9.1782  142.8008 C   0  0  0  0  0  0  0  0  0  0  0  0
  -30.5888   -9.2795  141.6022 N   0  0  0  0  0  0  0  0  0  0  0  0
  -30.3657   -8.0181  140.8927 C   0  0  0  0  0  0  0  0  0  0  0  0
  -29.0385   -7.7264  140.4872 C   0  0  0  0  0  0  0  0  0  0  0  0
  -28.6565   -8.5022  139.2654 C   0  0  0  0  0  0  0  0  0  0  0  0
  -28.0271   -7.7351  138.2340 C   0  0  0  0  0  0  0  0  0  0  0  0
  -32.3735   -9.0506  142.9167 O   0  0  0  0  0  0  0  0  0  0  0  0
  -24.3712  -18.7012  144.7911 O   0  0  0  0  0  0  0  0  0  0  0  0
  -27.4634  -16.8444  148.5038 C   0  0  0  0  0  0  0  0  0  0  0  0
  -28.2285  -16.0248  147.8003 N   0  0  0  0  0  0  0  0  0  0  0  0
  -29.2245  -15.2618  148.3052 C   0  0  0  0  0  0  0  0  0  0  0  0
  1  2  1  0
  2  3  2  3
  3  4  1  0
  4  5  1  0
  4  6  1  0
  6  7  2  3
  7  8  1  0
  8  9  2  3
  9 10  1  0
 10 11  2  3
 11 12  1  0
  1 13  1  0
 13 14  1  0
 12 20  1  0
  9 21  1  0
 21 22  2  3
 22 23  1  0
 23 24  2  3
 24 25  1  0
 25 26  1  0
 26 27  1  0
 27 28  1  0
 28 29  1  0
 29 30  1  0
 25 31  2  0
 13 32  1  0
 16 33  1  0
 33 34  1  0
 34 35  1  0
 14 15  2  0
 15 16  1  0
 16 17  2  0
 17 18  1  0
 18 19  2  0
 19 14  1  0
M  END

$$$$
No_1920-/dssg/home/sw_qyf/PocketFlow/Model-Generation-Results/5HT2A_7WC7_rec_A_10.pdb/2024-01-01-03-54-21/
     RDKit          3D

 25 26  0  0  0  0  0  0  0  0999 V2000
  -23.1746  -16.6014  144.8668 C   0  0  0  0  0  0  0  0  0  0  0  0
  -24.0189  -16.0564  145.8445 C   0  0  0  0  0  0  0  0  0  0  0  0
  -24.4850  -14.7380  145.6359 C   0  0  0  0  0  0  0  0  0  0  0  0
  -24.0244  -13.9858  144.5634 C   0  0  0  0  0  0  0  0  0  0  0  0
  -22.9814  -14.4736  143.8270 C   0  0  0  0  0  0  0  0  0  0  0  0
  -22.6517  -15.7450  143.9774 N   0  0  0  0  0  0  0  0  0  0  0  0
  -24.5684  -16.9417  146.8976 C   0  0  0  0  0  0  0  0  0  0  0  0
  -23.9356  -17.8893  147.3879 C   0  0  0  0  0  0  0  0  0  0  0  0
  -25.7688  -16.5259  147.5777 C   0  0  0  0  0  0  0  0  0  0  0  0
  -26.0119  -16.8319  148.9327 C   0  0  0  0  0  0  0  0  0  0  0  0
  -24.1910  -18.3402  148.7660 C   0  0  0  0  0  0  0  0  0  0  0  0
  -25.2269  -17.8185  149.5056 C   0  0  0  0  0  0  0  0  0  0  0  0
  -25.5411  -18.2238  150.7767 O   0  0  0  0  0  0  0  0  0  0  0  0
  -24.4381  -12.6677  144.5800 O   0  0  0  0  0  0  0  0  0  0  0  0
  -24.8555  -12.1069  145.8240 C   0  0  0  0  0  0  0  0  0  0  0  0
  -26.2923  -11.9655  145.8853 C   0  0  0  0  0  0  0  0  0  0  0  0
  -26.8993  -12.7296  145.3793 O   0  0  0  0  0  0  0  0  0  0  0  0
  -27.7595  -12.6153  144.4842 C   0  0  0  0  0  0  0  0  0  0  0  0
  -28.6862  -11.5281  144.5208 C   0  0  0  0  0  0  0  0  0  0  0  0
  -28.7181  -10.4941  143.6124 C   0  0  0  0  0  0  0  0  0  0  0  0
  -29.8151   -9.5063  143.6625 C   0  0  0  0  0  0  0  0  0  0  0  0
  -29.9783   -8.5897  142.6287 C   0  0  0  0  0  0  0  0  0  0  0  0
  -30.9483   -7.5649  142.6325 C   0  0  0  0  0  0  0  0  0  0  0  0
  -29.2006   -8.6870  141.4014 C   0  0  0  0  0  0  0  0  0  0  0  0
  -29.2409   -7.7051  140.4252 C   0  0  0  0  0  0  0  0  0  0  0  0
  2  7  1  0
 12 13  1  0
  4 14  1  0
 14 15  1  0
 15 16  1  0
 16 17  1  0
 17 18  1  0
 18 19  1  0
 19 20  2  3
 20 21  1  0
 21 22  1  0
 22 23  1  0
 22 24  1  0
 24 25  1  0
  1  2  2  0
  2  3  1  0
  3  4  2  0
  4  5  1  0
  5  6  2  0
  6  1  1  0
  7  8  2  0
  8 11  1  0
 11 12  2  0
 12 10  1  0
 10  9  2  0
  9  7  1  0
M  END

$$$$
No_1921-/dssg/home/sw_qyf/PocketFlow/Model-Generation-Results/5HT2A_7WC7_rec_A_10.pdb/2024-01-01-03-54-21/
     RDKit          3D

 15 16  0  0  0  0  0  0  0  0999 V2000
  -24.1553  -17.8465  145.7021 C   0  0  0  0  0  0  0  0  0  0  0  0
  -24.2855  -16.6364  145.3494 C   0  0  0  0  0  0  0  0  0  0  0  0
  -24.7210  -15.5955  146.2116 C   0  0  0  0  0  0  0  0  0  0  0  0
  -24.8538  -14.2010  145.8739 C   0  0  0  0  0  0  0  0  0  0  0  0
  -25.3911  -13.2248  146.7184 C   0  0  0  0  0  0  0  0  0  0  0  0
  -24.5930  -18.2699  146.9809 C   0  0  0  0  0  0  0  0  0  0  0  0
  -25.1554  -17.3846  147.9077 C   0  0  0  0  0  0  0  0  0  0  0  0
  -25.2071  -15.9636  147.5445 C   0  0  0  0  0  0  0  0  0  0  0  0
  -24.3639  -13.8250  144.5657 C   0  0  0  0  0  0  0  0  0  0  0  0
  -25.3419  -11.8445  146.2821 C   0  0  0  0  0  0  0  0  0  0  0  0
  -24.1867  -12.3796  144.2884 C   0  0  0  0  0  0  0  0  0  0  0  0
  -24.6974  -11.4331  145.1680 C   0  0  0  0  0  0  0  0  0  0  0  0
  -23.9987  -14.5843  143.6825 O   0  0  0  0  0  0  0  0  0  0  0  0
  -25.5203  -17.7952  149.5533 Cl  0  0  0  0  0  0  0  0  0  0  0  0
  -23.6134  -19.0976  144.6797 Cl  0  0  0  0  0  0  0  0  0  0  0  0
  3  4  1  0
  9 13  1  0
  7 14  1  0
  1 15  1  0
  1  2  2  0
  2  3  1  0
  3  8  2  0
  8  7  1  0
  7  6  2  0
  6  1  1  0
  4  5  2  0
  5 10  1  0
 10 12  2  0
 12 11  1  0
 11  9  2  0
  9  4  1  0
M  END

$$$$
No_1922-/dssg/home/sw_qyf/PocketFlow/Model-Generation-Results/5HT2A_7WC7_rec_A_10.pdb/2024-01-01-03-54-21/
     RDKit          3D

 21 23  0  0  0  0  0  0  0  0999 V2000
  -24.1553  -17.8465  145.7021 C   0  0  0  0  0  0  0  0  0  0  0  0
  -24.2856  -16.6364  145.3494 C   0  0  0  0  0  0  0  0  0  0  0  0
  -24.7211  -15.5955  146.2115 C   0  0  0  0  0  0  0  0  0  0  0  0
  -24.8538  -14.2010  145.8739 C   0  0  0  0  0  0  0  0  0  0  0  0
  -25.3912  -13.2248  146.7184 C   0  0  0  0  0  0  0  0  0  0  0  0
  -24.5931  -18.2699  146.9809 C   0  0  0  0  0  0  0  0  0  0  0  0
  -25.1555  -17.3846  147.9076 C   0  0  0  0  0  0  0  0  0  0  0  0
  -25.2072  -15.9636  147.5445 C   0  0  0  0  0  0  0  0  0  0  0  0
  -24.3640  -13.8250  144.5657 C   0  0  0  0  0  0  0  0  0  0  0  0
  -25.3419  -11.8445  146.2821 C   0  0  0  0  0  0  0  0  0  0  0  0
  -25.1405  -11.5779  144.8976 C   0  0  0  0  0  0  0  0  0  0  0  0
  -24.3405  -12.4604  144.2323 C   0  0  0  0  0  0  0  0  0  0  0  0
  -24.1312  -14.6618  143.6721 O   0  0  0  0  0  0  0  0  0  0  0  0
  -26.3489  -11.4225  144.1937 O   0  0  0  0  0  0  0  0  0  0  0  0
  -27.4767  -10.9448  144.8077 C   0  0  0  0  0  0  0  0  0  0  0  0
  -28.2802  -11.5621  145.6474 C   0  0  0  0  0  0  0  0  0  0  0  0
  -29.5751  -11.1435  145.9684 C   0  0  0  0  0  0  0  0  0  0  0  0
  -30.3381  -11.8260  146.9641 C   0  0  0  0  0  0  0  0  0  0  0  0
  -29.7267  -12.9651  147.5620 C   0  0  0  0  0  0  0  0  0  0  0  0
  -28.5259  -13.5124  147.1303 C   0  0  0  0  0  0  0  0  0  0  0  0
  -27.7475  -12.7975  146.1805 C   0  0  0  0  0  0  0  0  0  0  0  0
  3  4  1  0
  4  5  1  0
  4  9  1  0
  5 10  1  0
 10 11  1  0
  9 12  1  0
 11 12  1  0
  9 13  1  0
 11 14  1  0
 14 15  1  0
 15 16  1  0
  1  2  2  0
  2  3  1  0
  3  8  2  0
  8  7  1  0
  7  6  2  0
  6  1  1  0
 16 17  2  0
 17 18  1  0
 18 19  2  0
 19 20  1  0
 20 21  2  0
 21 16  1  0
M  END

$$$$
No_1923-/dssg/home/sw_qyf/PocketFlow/Model-Generation-Results/5HT2A_7WC7_rec_A_10.pdb/2024-01-01-03-54-21/
     RDKit          3D

 35 37  0  0  0  0  0  0  0  0999 V2000
  -23.1746  -16.6014  144.8668 C   0  0  0  0  0  0  0  0  0  0  0  0
  -23.7011  -17.0158  145.9774 C   0  0  0  0  0  0  0  0  0  0  0  0
  -23.7336  -18.2775  146.3737 C   0  0  0  0  0  0  0  0  0  0  0  0
  -24.1960  -18.6445  147.6858 C   0  0  0  0  0  0  0  0  0  0  0  0
  -24.7100  -17.6145  148.5486 C   0  0  0  0  0  0  0  0  0  0  0  0
  -24.7929  -16.2635  148.0870 C   0  0  0  0  0  0  0  0  0  0  0  0
  -24.2508  -15.9434  146.8891 C   0  0  0  0  0  0  0  0  0  0  0  0
  -23.4075  -17.2535  143.7899 O   0  0  0  0  0  0  0  0  0  0  0  0
  -22.4706  -15.5164  144.6049 O   0  0  0  0  0  0  0  0  0  0  0  0
  -25.2692  -17.9442  149.8862 C   0  0  0  0  0  0  0  0  0  0  0  0
  -26.4166  -18.0601  150.1434 O   0  0  0  0  0  0  0  0  0  0  0  0
  -24.3765  -17.4232  150.8649 O   0  0  0  0  0  0  0  0  0  0  0  0
  -24.3245  -14.5456  146.4750 C   0  0  0  0  0  0  0  0  0  0  0  0
  -24.4602  -14.0178  145.2608 C   0  0  0  0  0  0  0  0  0  0  0  0
  -25.0779  -12.7205  145.0176 C   0  0  0  0  0  0  0  0  0  0  0  0
  -25.9844  -12.4135  145.9867 C   0  0  0  0  0  0  0  0  0  0  0  0
  -27.2634  -12.0733  145.6251 C   0  0  0  0  0  0  0  0  0  0  0  0
  -27.6099  -11.2944  144.5809 C   0  0  0  0  0  0  0  0  0  0  0  0
  -28.7391  -10.7449  144.2982 C   0  0  0  0  0  0  0  0  0  0  0  0
  -29.7837  -10.9170  145.3725 C   0  0  0  0  0  0  0  0  0  0  0  0
  -29.4970  -11.6367  146.5293 C   0  0  0  0  0  0  0  0  0  0  0  0
  -28.2211  -12.1592  146.7337 C   0  0  0  0  0  0  0  0  0  0  0  0
  -29.1142   -9.9410  143.1495 C   0  0  0  0  0  0  0  0  0  0  0  0
  -29.6050   -8.6956  143.1733 C   0  0  0  0  0  0  0  0  0  0  0  0
  -29.9340   -7.8912  142.0835 C   0  0  0  0  0  0  0  0  0  0  0  0
  -29.3641   -8.3341  140.8222 C   0  0  0  0  0  0  0  0  0  0  0  0
  -28.6951   -9.5803  140.8021 C   0  0  0  0  0  0  0  0  0  0  0  0
  -28.5103  -10.3925  141.9414 C   0  0  0  0  0  0  0  0  0  0  0  0
  -29.4712   -7.5102  139.6746 C   0  0  0  0  0  0  0  0  0  0  0  0
  -29.0704   -7.9166  138.5417 O   0  0  0  0  0  0  0  0  0  0  0  0
  -30.4479  -11.7414  147.5104 O   0  0  0  0  0  0  0  0  0  0  0  0
  -27.7470   -8.1808  138.3720 C   0  0  0  0  0  0  0  0  0  0  0  0
  -30.5548  -12.8415  148.2466 C   0  0  0  0  0  0  0  0  0  0  0  0
  -29.8496  -13.9846  147.8814 C   0  0  0  0  0  0  0  0  0  0  0  0
  -31.4356  -12.7987  149.3695 C   0  0  0  0  0  0  0  0  0  0  0  0
  1  2  1  0
  1  8  2  0
  1  9  1  0
  5 10  1  0
 10 11  2  0
 10 12  1  0
  7 13  1  0
 13 14  2  3
 14 15  1  0
 15 16  2  3
 16 17  1  0
 19 23  1  0
 26 29  1  0
 29 30  1  0
 21 31  1  0
 30 32  1  0
 31 33  1  0
 33 34  1  0
 33 35  1  0
 17 18  2  0
 18 19  1  0
 19 20  2  0
 20 21  1  0
 21 22  2  0
 22 17  1  0
  2  3  2  0
  3  4  1  0
  4  5  2  0
  5  6  1  0
  6  7  2  0
  7  2  1  0
 23 24  2  0
 24 25  1  0
 25 26  2  0
 26 27  1  0
 27 28  2  0
 28 23  1  0
M  END

$$$$
No_1924-/dssg/home/sw_qyf/PocketFlow/Model-Generation-Results/5HT2A_7WC7_rec_A_10.pdb/2024-01-01-03-54-21/
     RDKit          3D

 35 36  0  0  0  0  0  0  0  0999 V2000
  -23.1746  -16.6014  144.8668 C   0  0  0  0  0  0  0  0  0  0  0  0
  -23.8963  -15.5346  144.7885 C   0  0  0  0  0  0  0  0  0  0  0  0
  -24.5755  -15.0383  145.9043 C   0  0  0  0  0  0  0  0  0  0  0  0
  -25.0618  -13.6819  146.0347 C   0  0  0  0  0  0  0  0  0  0  0  0
  -25.4099  -13.0255  144.9749 C   0  0  0  0  0  0  0  0  0  0  0  0
  -25.8382  -11.6977  145.1929 C   0  0  0  0  0  0  0  0  0  0  0  0
  -26.6655  -11.4587  146.1893 C   0  0  0  0  0  0  0  0  0  0  0  0
  -23.8852  -17.6730  145.6908 C   0  0  0  0  0  0  0  0  0  0  0  0
  -23.1504  -18.7943  146.1569 C   0  0  0  0  0  0  0  0  0  0  0  0
  -25.4094  -16.1155  146.5610 C   0  0  0  0  0  0  0  0  0  0  0  0
  -26.3511  -15.7745  147.6346 C   0  0  0  0  0  0  0  0  0  0  0  0
  -24.4707  -17.3331  146.8555 C   0  0  0  0  0  0  0  0  0  0  0  0
  -27.7211  -15.6331  147.3577 C   0  0  0  0  0  0  0  0  0  0  0  0
  -28.1631  -15.0813  146.3545 C   0  0  0  0  0  0  0  0  0  0  0  0
  -28.6556  -16.1932  148.3572 C   0  0  0  0  0  0  0  0  0  0  0  0
  -27.9953  -11.9357  145.9600 C   0  0  0  0  0  0  0  0  0  0  0  0
  -28.9276  -11.7527  147.0370 C   0  0  0  0  0  0  0  0  0  0  0  0
  -30.3149  -12.1530  146.8836 C   0  0  0  0  0  0  0  0  0  0  0  0
  -31.0155  -12.0008  148.0270 O   0  0  0  0  0  0  0  0  0  0  0  0
  -23.5012  -17.0385  147.9904 C   0  0  0  0  0  0  0  0  0  0  0  0
  -28.4158  -17.2261  149.2099 C   0  0  0  0  0  0  0  0  0  0  0  0
  -25.3825  -18.3889  147.2876 O   0  0  0  0  0  0  0  0  0  0  0  0
  -27.3630  -17.6923  149.0199 F   0  0  0  0  0  0  0  0  0  0  0  0
  -29.2711  -17.5643  150.0132 F   0  0  0  0  0  0  0  0  0  0  0  0
  -23.6837  -14.6241  143.8623 O   0  0  0  0  0  0  0  0  0  0  0  0
  -30.9031  -13.0348  149.0192 C   0  0  0  0  0  0  0  0  0  0  0  0
  -32.0929  -13.1200  149.8543 C   0  0  0  0  0  0  0  0  0  0  0  0
  -32.0768  -14.0466  150.8776 C   0  0  0  0  0  0  0  0  0  0  0  0
  -31.1614  -15.1477  150.8040 C   0  0  0  0  0  0  0  0  0  0  0  0
  -31.2822  -16.1004  151.8569 C   0  0  0  0  0  0  0  0  0  0  0  0
  -32.5143  -16.3226  152.4922 C   0  0  0  0  0  0  0  0  0  0  0  0
  -33.5410  -15.3627  152.4178 C   0  0  0  0  0  0  0  0  0  0  0  0
  -33.3730  -14.2500  151.5734 C   0  0  0  0  0  0  0  0  0  0  0  0
  -25.3237  -10.6648  144.4859 O   0  0  0  0  0  0  0  0  0  0  0  0
  -22.3450  -17.3588  147.9726 C   0  0  0  0  0  0  0  0  0  0  0  0
  1  2  1  0
  2  3  1  0
  3  4  1  0
  4  5  1  0
  5  6  1  0
  6  7  1  0
  1  8  1  0
  8  9  1  0
  3 10  1  0
 10 11  1  0
  8 12  1  0
 10 12  1  0
 11 13  1  0
 13 14  1  0
 13 15  1  0
  7 16  1  0
 16 17  2  3
 17 18  1  0
 18 19  1  0
 12 20  1  0
 15 21  1  0
 12 22  1  0
 21 23  1  0
 21 24  1  0
  2 25  2  0
 19 26  1  0
 26 27  1  0
  6 34  2  0
 20 35  2  0
 27 28  1  0
 28 29  2  0
 29 30  1  0
 30 31  2  0
 31 32  1  0
 32 33  2  0
 33 28  1  0
M  END

$$$$
No_1925-/dssg/home/sw_qyf/PocketFlow/Model-Generation-Results/5HT2A_7WC7_rec_A_10.pdb/2024-01-01-03-54-21/
     RDKit          3D

 28 29  0  0  0  0  0  0  0  0999 V2000
  -23.1746  -16.6014  144.8668 C   0  0  0  0  0  0  0  0  0  0  0  0
  -24.0189  -16.0564  145.8445 C   0  0  0  0  0  0  0  0  0  0  0  0
  -25.3176  -15.9168  145.6822 C   0  0  0  0  0  0  0  0  0  0  0  0
  -26.1692  -16.6799  146.4632 C   0  0  0  0  0  0  0  0  0  0  0  0
  -27.6295  -16.5109  146.3615 C   0  0  0  0  0  0  0  0  0  0  0  0
  -27.9725  -15.2509  146.1348 C   0  0  0  0  0  0  0  0  0  0  0  0
  -27.1282  -14.2531  145.6257 C   0  0  0  0  0  0  0  0  0  0  0  0
  -25.7303  -14.5768  145.4908 C   0  0  0  0  0  0  0  0  0  0  0  0
  -27.6320  -12.9264  145.2015 C   0  0  0  0  0  0  0  0  0  0  0  0
  -26.9540  -11.8553  145.5983 C   0  0  0  0  0  0  0  0  0  0  0  0
  -27.3819  -10.5896  145.0930 C   0  0  0  0  0  0  0  0  0  0  0  0
  -28.5888  -10.4185  144.4260 C   0  0  0  0  0  0  0  0  0  0  0  0
  -28.8404   -9.2883  143.7279 C   0  0  0  0  0  0  0  0  0  0  0  0
  -30.0416   -9.1807  143.0229 C   0  0  0  0  0  0  0  0  0  0  0  0
  -30.7973   -8.0780  142.8427 C   0  0  0  0  0  0  0  0  0  0  0  0
  -29.9655   -6.8640  142.6906 C   0  0  0  0  0  0  0  0  0  0  0  0
  -29.9685   -5.8656  142.0820 C   0  0  0  0  0  0  0  0  0  0  0  0
  -28.8346   -4.8377  142.4867 C   0  0  0  0  0  0  0  0  0  0  0  0
  -28.4797   -7.5419  142.9847 C   0  0  0  0  0  0  0  0  0  0  0  0
  -28.8434   -3.6043  141.8380 C   0  0  0  0  0  0  0  0  0  0  0  0
  -25.9693  -11.8690  146.5444 O   0  0  0  0  0  0  0  0  0  0  0  0
  -28.3012   -2.5095  142.5332 C   0  0  0  0  0  0  0  0  0  0  0  0
  -29.8367   -9.9933  141.6360 C   0  0  0  0  0  0  0  0  0  0  0  0
  -28.5059  -10.5839  141.5495 C   0  0  0  0  0  0  0  0  0  0  0  0
  -28.0868  -11.0307  140.2331 C   0  0  0  0  0  0  0  0  0  0  0  0
  -28.1644  -12.0373  139.7147 C   0  0  0  0  0  0  0  0  0  0  0  0
  -27.7039  -12.2273  138.3281 C   0  0  0  0  0  0  0  0  0  0  0  0
  -27.2199   -9.9852  139.5646 C   0  0  0  0  0  0  0  0  0  0  0  0
  1  2  1  0
  7  9  1  0
  9 10  1  0
 10 11  1  0
 11 12  2  3
 12 13  1  0
 13 14  1  0
 14 15  2  0
 15 16  1  0
 16 17  2  3
 17 18  1  0
 13 19  1  0
 16 19  1  0
 18 20  2  3
 10 21  2  0
 20 22  1  0
 14 23  1  0
 23 24  1  0
 24 25  1  0
 25 26  1  0
 26 27  2  0
 25 28  1  0
  2  3  1  0
  3  4  2  0
  4  5  1  0
  5  6  2  0
  6  7  1  0
  7  8  2  0
  8  3  1  0
M  END

$$$$
No_1926-/dssg/home/sw_qyf/PocketFlow/Model-Generation-Results/5HT2A_7WC7_rec_A_10.pdb/2024-01-01-03-54-21/
     RDKit          3D

 24 25  0  0  0  0  0  0  0  0999 V2000
  -23.1746  -16.6014  144.8668 C   0  0  0  0  0  0  0  0  0  0  0  0
  -23.8963  -15.5346  144.7885 C   0  0  0  0  0  0  0  0  0  0  0  0
  -23.6398  -14.5115  145.3281 C   0  0  0  0  0  0  0  0  0  0  0  0
  -24.4028  -13.2284  145.0157 C   0  0  0  0  0  0  0  0  0  0  0  0
  -23.8195  -12.0541  145.5896 C   0  0  0  0  0  0  0  0  0  0  0  0
  -25.7577  -13.3836  145.4533 O   0  0  0  0  0  0  0  0  0  0  0  0
  -26.5981  -12.5437  145.2054 C   0  0  0  0  0  0  0  0  0  0  0  0
  -27.5977  -12.5209  146.2065 C   0  0  0  0  0  0  0  0  0  0  0  0
  -28.9642  -12.4790  145.6753 C   0  0  0  0  0  0  0  0  0  0  0  0
  -29.0236  -11.2722  144.7951 C   0  0  0  0  0  0  0  0  0  0  0  0
  -28.1184  -11.1461  143.7767 C   0  0  0  0  0  0  0  0  0  0  0  0
  -26.7568  -11.7191  144.1486 C   0  0  0  0  0  0  0  0  0  0  0  0
  -28.5624  -11.4203  142.4468 C   0  0  0  0  0  0  0  0  0  0  0  0
  -27.7266  -11.8010  141.4454 C   0  0  0  0  0  0  0  0  0  0  0  0
  -27.6779  -12.9754  141.1426 C   0  0  0  0  0  0  0  0  0  0  0  0
  -26.6937  -13.3696  140.0516 C   0  0  0  0  0  0  0  0  0  0  0  0
  -23.6922  -17.6565  145.8144 C   0  0  0  0  0  0  0  0  0  0  0  0
  -24.4416  -17.1426  146.8389 C   0  0  0  0  0  0  0  0  0  0  0  0
  -23.8423  -17.3759  148.1579 C   0  0  0  0  0  0  0  0  0  0  0  0
  -24.4913  -17.4735  149.2845 C   0  0  0  0  0  0  0  0  0  0  0  0
  -25.9199  -17.0936  149.2419 C   0  0  0  0  0  0  0  0  0  0  0  0
  -26.4700  -16.7134  148.0250 C   0  0  0  0  0  0  0  0  0  0  0  0
  -25.7005  -16.7506  146.8616 C   0  0  0  0  0  0  0  0  0  0  0  0
  -26.4497  -12.2463  139.1004 C   0  0  0  0  0  0  0  0  0  0  0  0
  1  2  1  0
  2  3  1  0
  3  4  1  0
  4  5  1  0
  4  6  1  0
  6  7  1  0
  7  8  1  0
  8  9  1  0
  9 10  1  0
 10 11  1  0
  7 12  1  0
 11 12  1  0
 11 13  1  0
 13 14  1  0
 14 15  2  3
 15 16  1  0
  1 17  2  3
 17 18  1  0
 16 24  1  0
 18 19  2  0
 19 20  1  0
 20 21  2  0
 21 22  1  0
 22 23  2  0
 23 18  1  0
M  END

$$$$
No_1927-/dssg/home/sw_qyf/PocketFlow/Model-Generation-Results/5HT2A_7WC7_rec_A_10.pdb/2024-01-01-03-54-21/
     RDKit          3D

 30 33  0  0  0  0  0  0  0  0999 V2000
  -23.1746  -16.6014  144.8668 C   0  0  0  0  0  0  0  0  0  0  0  0
  -23.8963  -15.5346  144.7885 C   0  0  0  0  0  0  0  0  0  0  0  0
  -24.5754  -15.0383  145.9043 C   0  0  0  0  0  0  0  0  0  0  0  0
  -25.3265  -13.7881  145.9354 C   0  0  0  0  0  0  0  0  0  0  0  0
  -23.3048  -17.4797  145.9492 C   0  0  0  0  0  0  0  0  0  0  0  0
  -23.9707  -17.0774  147.1163 C   0  0  0  0  0  0  0  0  0  0  0  0
  -24.6274  -15.8533  147.1156 C   0  0  0  0  0  0  0  0  0  0  0  0
  -26.0312  -13.3780  144.9757 C   0  0  0  0  0  0  0  0  0  0  0  0
  -26.7048  -12.1124  144.9495 C   0  0  0  0  0  0  0  0  0  0  0  0
  -27.6949  -11.7405  144.0811 C   0  0  0  0  0  0  0  0  0  0  0  0
  -28.5954  -10.6284  144.3491 C   0  0  0  0  0  0  0  0  0  0  0  0
  -29.6936  -10.3934  143.9770 C   0  0  0  0  0  0  0  0  0  0  0  0
  -30.4801   -9.2862  144.3739 C   0  0  0  0  0  0  0  0  0  0  0  0
  -31.2276   -8.4933  143.5567 C   0  0  0  0  0  0  0  0  0  0  0  0
  -31.4941   -8.9593  142.2155 C   0  0  0  0  0  0  0  0  0  0  0  0
  -30.6073   -9.9316  141.7769 C   0  0  0  0  0  0  0  0  0  0  0  0
  -29.7391  -10.6226  142.6626 C   0  0  0  0  0  0  0  0  0  0  0  0
  -26.2383  -14.1807  143.8069 C   0  0  0  0  0  0  0  0  0  0  0  0
  -27.1689  -13.6526  142.7845 C   0  0  0  0  0  0  0  0  0  0  0  0
  -27.8224  -12.4632  142.9725 C   0  0  0  0  0  0  0  0  0  0  0  0
  -23.9155  -17.9818  148.5831 Cl  0  0  0  0  0  0  0  0  0  0  0  0
  -24.3786  -12.5335  146.2143 C   0  0  0  0  0  0  0  0  0  0  0  0
  -24.6423  -12.0612  147.3549 F   0  0  0  0  0  0  0  0  0  0  0  0
  -23.0274  -13.1037  146.4605 F   0  0  0  0  0  0  0  0  0  0  0  0
  -24.2000  -11.6738  145.3686 F   0  0  0  0  0  0  0  0  0  0  0  0
  -28.9752  -11.5200  142.0024 N   0  0  0  0  0  0  0  0  0  0  0  0
  -28.7209  -11.8695  140.6663 C   0  0  0  0  0  0  0  0  0  0  0  0
  -27.8638  -10.9725  139.9562 C   0  0  0  0  0  0  0  0  0  0  0  0
  -27.5826   -9.7369  140.2633 C   0  0  0  0  0  0  0  0  0  0  0  0
  -26.9071   -8.8460  139.3723 C   0  0  0  0  0  0  0  0  0  0  0  0
  3  4  1  0
 10 11  1  0
  6 21  1  0
  4 22  1  0
 22 23  1  0
 22 24  1  0
 22 25  1  0
 17 26  1  0
 20 26  1  0
 26 27  1  0
 27 28  1  0
 28 29  2  3
 29 30  1  0
  4  8  1  0
 12 11  1  0
 12 13  2  0
 13 14  1  0
 14 15  2  0
 15 16  1  0
 16 17  2  0
 17 12  1  0
  1  2  2  0
  2  3  1  0
  3  7  2  0
  7  6  1  0
  6  5  2  0
  5  1  1  0
  8  9  2  0
  9 10  1  0
 10 20  2  0
 20 19  1  0
 19 18  2  0
 18  8  1  0
M  END

$$$$
No_1928-/dssg/home/sw_qyf/PocketFlow/Model-Generation-Results/5HT2A_7WC7_rec_A_10.pdb/2024-01-01-03-54-21/
     RDKit          3D

 20 20  0  0  0  0  0  0  0  0999 V2000
  -23.1746  -16.6014  144.8668 C   0  0  0  0  0  0  0  0  0  0  0  0
  -23.8963  -15.5346  144.7885 C   0  0  0  0  0  0  0  0  0  0  0  0
  -23.9320  -14.3731  145.4029 C   0  0  0  0  0  0  0  0  0  0  0  0
  -24.8339  -14.3234  146.5572 C   0  0  0  0  0  0  0  0  0  0  0  0
  -22.9006  -16.9524  146.2358 C   0  0  0  0  0  0  0  0  0  0  0  0
  -25.1308  -12.9185  147.0132 C   0  0  0  0  0  0  0  0  0  0  0  0
  -23.5934  -13.0170  144.9099 C   0  0  0  0  0  0  0  0  0  0  0  0
  -23.6616  -11.8551  145.5253 C   0  0  0  0  0  0  0  0  0  0  0  0
  -24.4373  -11.8612  146.6901 C   0  0  0  0  0  0  0  0  0  0  0  0
  -22.8628  -18.4139  146.5973 C   0  0  0  0  0  0  0  0  0  0  0  0
  -22.7115  -13.2199  143.8277 O   0  0  0  0  0  0  0  0  0  0  0  0
  -24.2078  -18.8340  146.8264 C   0  0  0  0  0  0  0  0  0  0  0  0
  -24.8626  -19.5693  145.7006 C   0  0  0  0  0  0  0  0  0  0  0  0
  -25.5735  -15.5921  147.2405 Cl  0  0  0  0  0  0  0  0  0  0  0  0
  -24.7237  -18.9415  148.0348 O   0  0  0  0  0  0  0  0  0  0  0  0
  -24.2400  -17.9135  148.9100 C   0  0  0  0  0  0  0  0  0  0  0  0
  -25.1249  -17.8300  150.1473 C   0  0  0  0  0  0  0  0  0  0  0  0
  -24.6294  -17.0603  151.1119 F   0  0  0  0  0  0  0  0  0  0  0  0
  -25.2459  -19.0315  150.8104 F   0  0  0  0  0  0  0  0  0  0  0  0
  -26.3561  -17.3633  149.8406 F   0  0  0  0  0  0  0  0  0  0  0  0
  1  2  3  0
  2  3  1  0
  1  5  1  0
  5 10  2  3
  7 11  1  0
 10 12  1  0
 12 13  2  0
  4 14  1  0
 12 15  1  0
 15 16  1  0
 16 17  1  0
 17 18  1  0
 17 19  1  0
 17 20  1  0
  3  4  2  0
  4  6  1  0
  6  9  2  0
  9  8  1  0
  8  7  2  0
  7  3  1  0
M  END

$$$$
No_1929-/dssg/home/sw_qyf/PocketFlow/Model-Generation-Results/5HT2A_7WC7_rec_A_10.pdb/2024-01-01-03-54-21/
     RDKit          3D

 24 26  0  0  0  0  0  0  0  0999 V2000
  -23.1746  -16.6014  144.8668 C   0  0  0  0  0  0  0  0  0  0  0  0
  -23.7011  -17.0158  145.9774 C   0  0  0  0  0  0  0  0  0  0  0  0
  -24.2134  -16.0722  146.8877 C   0  0  0  0  0  0  0  0  0  0  0  0
  -25.2064  -15.3422  146.4171 C   0  0  0  0  0  0  0  0  0  0  0  0
  -24.7890  -14.4834  145.3416 C   0  0  0  0  0  0  0  0  0  0  0  0
  -25.4434  -13.2953  144.9315 C   0  0  0  0  0  0  0  0  0  0  0  0
  -24.0511  -15.3882  144.3391 C   0  0  0  0  0  0  0  0  0  0  0  0
  -26.4495  -13.3353  144.0715 C   0  0  0  0  0  0  0  0  0  0  0  0
  -27.2223  -12.2521  143.6770 C   0  0  0  0  0  0  0  0  0  0  0  0
  -28.0345  -11.6862  144.5207 C   0  0  0  0  0  0  0  0  0  0  0  0
  -28.9060  -10.5089  144.1507 C   0  0  0  0  0  0  0  0  0  0  0  0
  -29.6170   -9.7796  145.1746 C   0  0  0  0  0  0  0  0  0  0  0  0
  -30.6106  -10.6967  145.6017 C   0  0  0  0  0  0  0  0  0  0  0  0
  -30.0150  -11.8120  146.4555 C   0  0  0  0  0  0  0  0  0  0  0  0
  -28.8194  -12.4676  145.7423 C   0  0  0  0  0  0  0  0  0  0  0  0
  -27.6631   -9.4668  143.8013 C   0  0  0  0  0  0  0  0  0  0  0  0
  -23.9634  -18.5039  146.2227 C   0  0  0  0  0  0  0  0  0  0  0  0
  -23.4001  -18.9240  147.1006 O   0  0  0  0  0  0  0  0  0  0  0  0
  -24.9431  -19.1218  145.7165 N   0  0  0  0  0  0  0  0  0  0  0  0
  -30.3547  -12.3112  147.5216 O   0  0  0  0  0  0  0  0  0  0  0  0
  -30.0389  -13.4728  147.9779 C   0  0  0  0  0  0  0  0  0  0  0  0
  -28.9436  -14.1523  147.5346 C   0  0  0  0  0  0  0  0  0  0  0  0
  -28.3370  -13.6238  146.2656 C   0  0  0  0  0  0  0  0  0  0  0  0
  -30.6118  -13.8154  149.1257 O   0  0  0  0  0  0  0  0  0  0  0  0
  1  2  1  0
  2  3  1  0
  3  4  1  0
  4  5  1  0
  5  6  1  0
  1  7  1  0
  5  7  1  0
  6  8  2  3
  8  9  1  0
 11 16  1  0
  2 17  1  0
 17 18  2  0
 17 19  1  0
 14 20  1  0
 20 21  1  0
 21 22  1  0
 15 23  1  0
 22 23  3  0
 21 24  2  0
  9 10  1  0
 10 11  2  0
 11 12  1  0
 12 13  2  0
 13 14  1  0
 14 15  2  0
 15 10  1  0
M  END

$$$$
No_1930-/dssg/home/sw_qyf/PocketFlow/Model-Generation-Results/5HT2A_7WC7_rec_A_10.pdb/2024-01-01-03-54-21/
     RDKit          3D

 16 17  0  0  0  0  0  0  0  0999 V2000
  -23.1746  -16.6014  144.8668 C   0  0  0  0  0  0  0  0  0  0  0  0
  -23.8963  -15.5346  144.7885 C   0  0  0  0  0  0  0  0  0  0  0  0
  -24.5755  -15.0383  145.9043 C   0  0  0  0  0  0  0  0  0  0  0  0
  -25.0618  -13.6819  146.0347 C   0  0  0  0  0  0  0  0  0  0  0  0
  -24.0242  -12.8249  145.9593 C   0  0  0  0  0  0  0  0  0  0  0  0
  -23.5540  -17.4786  146.0177 C   0  0  0  0  0  0  0  0  0  0  0  0
  -24.6396  -17.5267  146.5047 C   0  0  0  0  0  0  0  0  0  0  0  0
  -25.1800  -16.0826  146.8831 C   0  0  0  0  0  0  0  0  0  0  0  0
  -26.2080  -13.2902  145.1775 C   0  0  0  0  0  0  0  0  0  0  0  0
  -27.4019  -12.6997  145.9422 C   0  0  0  0  0  0  0  0  0  0  0  0
  -28.1384  -13.2362  146.8458 C   0  0  0  0  0  0  0  0  0  0  0  0
  -29.2441  -12.4609  147.4624 C   0  0  0  0  0  0  0  0  0  0  0  0
  -30.1590  -12.9942  148.4113 C   0  0  0  0  0  0  0  0  0  0  0  0
  -30.0026  -14.4153  148.6498 C   0  0  0  0  0  0  0  0  0  0  0  0
  -29.0449  -15.1546  148.0370 C   0  0  0  0  0  0  0  0  0  0  0  0
  -28.1644  -14.5767  147.1382 C   0  0  0  0  0  0  0  0  0  0  0  0
  1  2  1  0
  2  3  1  0
  3  4  1  0
  4  5  1  0
  1  6  1  0
  6  7  1  0
  3  8  1  0
  7  8  1  0
  4  9  1  0
  9 10  1  0
 10 11  1  0
 11 12  2  0
 12 13  1  0
 13 14  2  0
 14 15  1  0
 15 16  2  0
 16 11  1  0
M  END

$$$$
No_1931-/dssg/home/sw_qyf/PocketFlow/Model-Generation-Results/5HT2A_7WC7_rec_A_10.pdb/2024-01-01-03-54-21/
     RDKit          3D

 35 36  0  0  0  0  0  0  0  0999 V2000
  -24.1553  -17.8465  145.7021 C   0  0  0  0  0  0  0  0  0  0  0  0
  -24.6364  -17.2931  146.7091 C   0  0  0  0  0  0  0  0  0  0  0  0
  -25.8608  -16.5592  146.5934 C   0  0  0  0  0  0  0  0  0  0  0  0
  -26.9933  -16.9082  147.1889 C   0  0  0  0  0  0  0  0  0  0  0  0
  -28.2350  -16.1839  146.8943 C   0  0  0  0  0  0  0  0  0  0  0  0
  -28.1591  -14.9305  146.2109 C   0  0  0  0  0  0  0  0  0  0  0  0
  -29.1763  -14.0048  146.1075 C   0  0  0  0  0  0  0  0  0  0  0  0
  -26.8265  -14.4105  145.8364 C   0  0  0  0  0  0  0  0  0  0  0  0
  -25.8063  -14.9150  145.9660 C   0  0  0  0  0  0  0  0  0  0  0  0
  -29.1158  -12.8284  147.0093 C   0  0  0  0  0  0  0  0  0  0  0  0
  -29.7118  -11.5542  146.4580 C   0  0  0  0  0  0  0  0  0  0  0  0
  -29.1242  -10.9114  145.5682 O   0  0  0  0  0  0  0  0  0  0  0  0
  -28.1013  -11.2596  144.9748 C   0  0  0  0  0  0  0  0  0  0  0  0
  -27.6448  -10.2524  143.9539 C   0  0  0  0  0  0  0  0  0  0  0  0
  -24.0054  -17.4330  148.0469 C   0  0  0  0  0  0  0  0  0  0  0  0
  -24.5586  -17.1389  149.2742 C   0  0  0  0  0  0  0  0  0  0  0  0
  -23.8345  -17.2706  150.4531 C   0  0  0  0  0  0  0  0  0  0  0  0
  -27.5427  -10.8158  142.6445 C   0  0  0  0  0  0  0  0  0  0  0  0
  -27.9645  -10.0192  141.5356 C   0  0  0  0  0  0  0  0  0  0  0  0
  -27.6226  -10.3206  140.2480 C   0  0  0  0  0  0  0  0  0  0  0  0
  -27.0778  -11.6443  139.9816 C   0  0  0  0  0  0  0  0  0  0  0  0
  -26.8215  -12.0229  138.6548 C   0  0  0  0  0  0  0  0  0  0  0  0
  -24.3843  -16.9782  151.6480 C   0  0  0  0  0  0  0  0  0  0  0  0
  -24.5551  -14.3561  146.2355 C   0  0  0  0  0  0  0  0  0  0  0  0
  -24.2433  -13.3284  145.2513 C   0  0  0  0  0  0  0  0  0  0  0  0
  -23.5437  -13.7449  144.1055 C   0  0  0  0  0  0  0  0  0  0  0  0
  -30.8261  -11.1562  147.0715 O   0  0  0  0  0  0  0  0  0  0  0  0
  -28.1411   -9.5081  139.1578 C   0  0  0  0  0  0  0  0  0  0  0  0
  -28.0799   -8.0802  139.3136 C   0  0  0  0  0  0  0  0  0  0  0  0
  -28.7105   -7.7586  140.6410 C   0  0  0  0  0  0  0  0  0  0  0  0
  -28.5293   -8.6495  141.7729 C   0  0  0  0  0  0  0  0  0  0  0  0
  -22.2844  -13.3452  143.9693 O   0  0  0  0  0  0  0  0  0  0  0  0
  -23.6704  -18.9935  145.6806 O   0  0  0  0  0  0  0  0  0  0  0  0
  -23.9527  -17.2009  144.5366 O   0  0  0  0  0  0  0  0  0  0  0  0
  -29.1867   -6.5611  140.8694 F   0  0  0  0  0  0  0  0  0  0  0  0
  1  2  1  0
  2  3  1  0
  6  7  1  0
  7 10  1  0
 10 11  1  0
 11 12  1  0
 12 13  1  0
 13 14  2  3
  2 15  1  0
 15 16  1  0
 16 17  2  3
 14 18  1  0
 18 19  1  0
 20 21  1  0
 21 22  2  0
 17 23  1  0
  9 24  1  0
 24 25  1  0
 25 26  1  0
 11 27  2  0
 26 32  1  0
  1 33  2  0
  1 34  1  0
 30 35  1  0
  3  4  2  0
  4  5  1  0
  5  6  2  0
  6  8  1  0
  8  9  2  0
  9  3  1  0
 19 20  2  0
 20 28  1  0
 28 29  2  0
 29 30  1  0
 30 31  2  0
 31 19  1  0
M  END

$$$$
No_1932-/dssg/home/sw_qyf/PocketFlow/Model-Generation-Results/5HT2A_7WC7_rec_A_10.pdb/2024-01-01-03-54-21/
     RDKit          3D

  9  9  0  0  0  0  0  0  0  0999 V2000
  -23.8931  -18.2534  145.3804 F   0  0  0  0  0  0  0  0  0  0  0  0
  -24.1483  -17.4442  146.3400 C   0  0  0  0  0  0  0  0  0  0  0  0
  -24.4181  -16.0969  145.9075 C   0  0  0  0  0  0  0  0  0  0  0  0
  -24.0584  -15.7140  144.5778 C   0  0  0  0  0  0  0  0  0  0  0  0
  -24.2439  -14.3804  144.1721 C   0  0  0  0  0  0  0  0  0  0  0  0
  -24.6344  -13.5430  145.1340 C   0  0  0  0  0  0  0  0  0  0  0  0
  -24.9949  -13.8055  146.4497 C   0  0  0  0  0  0  0  0  0  0  0  0
  -24.7706  -15.1514  146.8974 C   0  0  0  0  0  0  0  0  0  0  0  0
  -25.2599  -17.8639  147.0883 F   0  0  0  0  0  0  0  0  0  0  0  0
  1  2  1  0
  2  9  1  0
  2  3  1  0
  3  4  2  0
  4  5  1  0
  5  6  2  0
  6  7  1  0
  7  8  2  0
  8  3  1  0
M  END

$$$$
No_1933-/dssg/home/sw_qyf/PocketFlow/Model-Generation-Results/5HT2A_7WC7_rec_A_10.pdb/2024-01-01-03-54-21/
     RDKit          3D

 35 35  0  0  0  0  0  0  0  0999 V2000
  -24.1553  -17.8465  145.7021 C   0  0  0  0  0  0  0  0  0  0  0  0
  -24.6364  -17.2931  146.7091 C   0  0  0  0  0  0  0  0  0  0  0  0
  -25.8131  -16.4503  146.6208 C   0  0  0  0  0  0  0  0  0  0  0  0
  -26.8109  -16.4921  147.5662 C   0  0  0  0  0  0  0  0  0  0  0  0
  -28.0733  -15.8263  147.3782 C   0  0  0  0  0  0  0  0  0  0  0  0
  -28.1263  -14.8024  146.4257 C   0  0  0  0  0  0  0  0  0  0  0  0
  -27.0799  -14.6754  145.5300 C   0  0  0  0  0  0  0  0  0  0  0  0
  -27.0546  -13.6445  144.5085 C   0  0  0  0  0  0  0  0  0  0  0  0
  -25.8999  -15.5286  145.6688 C   0  0  0  0  0  0  0  0  0  0  0  0
  -27.4499  -12.4575  144.6485 N   0  0  0  0  0  0  0  0  0  0  0  0
  -27.8384  -11.5717  143.7077 C   0  0  0  0  0  0  0  0  0  0  0  0
  -27.7320  -10.4305  143.5490 C   0  0  0  0  0  0  0  0  0  0  0  0
  -28.5792   -9.5408  142.7673 C   0  0  0  0  0  0  0  0  0  0  0  0
  -28.8244  -10.0133  141.4695 C   0  0  0  0  0  0  0  0  0  0  0  0
  -27.9950  -10.3130  140.7313 C   0  0  0  0  0  0  0  0  0  0  0  0
  -27.4564  -11.6130  140.5897 C   0  0  0  0  0  0  0  0  0  0  0  0
  -26.8190  -12.0827  139.4453 C   0  0  0  0  0  0  0  0  0  0  0  0
  -23.9604  -17.4571  148.0385 C   0  0  0  0  0  0  0  0  0  0  0  0
  -27.5940   -9.4701  139.6077 C   0  0  0  0  0  0  0  0  0  0  0  0
  -24.5980  -17.5649  149.0275 F   0  0  0  0  0  0  0  0  0  0  0  0
  -23.0723  -16.3119  148.2613 F   0  0  0  0  0  0  0  0  0  0  0  0
  -26.5894  -13.9670  143.3863 O   0  0  0  0  0  0  0  0  0  0  0  0
  -23.0188  -18.4214  147.8059 F   0  0  0  0  0  0  0  0  0  0  0  0
  -27.3558  -13.0055  138.7596 C   0  0  0  0  0  0  0  0  0  0  0  0
  -28.1604  -12.0640  137.8487 C   0  0  0  0  0  0  0  0  0  0  0  0
  -23.7579  -17.1776  144.4808 C   0  0  0  0  0  0  0  0  0  0  0  0
  -29.0004  -15.9102  148.3168 F   0  0  0  0  0  0  0  0  0  0  0  0
  -23.7214  -19.1311  145.7020 C   0  0  0  0  0  0  0  0  0  0  0  0
  -23.5272  -19.8479  144.7364 O   0  0  0  0  0  0  0  0  0  0  0  0
  -23.6330  -19.8260  146.8669 O   0  0  0  0  0  0  0  0  0  0  0  0
  -23.2174  -20.7499  147.4284 P   0  0  0  0  0  0  0  0  0  0  0  0
  -22.1610  -21.2181  146.6266 O   0  0  0  0  0  0  0  0  0  0  0  0
  -24.3103  -21.5821  146.5611 O   0  0  0  0  0  0  0  0  0  0  0  0
  -23.0713  -21.0042  148.6626 O   0  0  0  0  0  0  0  0  0  0  0  0
  -29.1053   -8.2900  143.2859 C   0  0  0  0  0  0  0  0  0  0  0  0
  1  2  2  3
  2  3  1  0
  3  4  1  0
  4  5  1  0
  5  6  1  0
  6  7  1  0
  7  8  1  0
  3  9  1  0
  7  9  1  0
  8 10  1  0
 10 11  1  0
 11 12  2  3
 12 13  1  0
 13 14  1  0
 14 15  1  0
 15 16  2  3
 16 17  1  0
  2 18  1  0
 15 19  1  0
 18 20  1  0
 18 21  1  0
  8 22  2  0
 18 23  1  0
 17 24  1  0
 24 25  1  0
  1 26  1  0
  5 27  1  0
  1 28  1  0
 28 29  2  0
 28 30  1  0
 30 31  1  0
 31 32  2  0
 31 33  1  0
 31 34  1  0
 13 35  1  0
M  END

$$$$
No_1934-/dssg/home/sw_qyf/PocketFlow/Model-Generation-Results/5HT2A_7WC7_rec_A_10.pdb/2024-01-01-03-54-21/
     RDKit          3D

 11 11  0  0  0  0  0  0  0  0999 V2000
  -23.1746  -16.6014  144.8668 C   0  0  0  0  0  0  0  0  0  0  0  0
  -23.7011  -17.0158  145.9774 C   0  0  0  0  0  0  0  0  0  0  0  0
  -24.2134  -16.0722  146.8877 C   0  0  0  0  0  0  0  0  0  0  0  0
  -23.3742  -15.2706  144.3922 C   0  0  0  0  0  0  0  0  0  0  0  0
  -24.0638  -14.3065  145.2723 C   0  0  0  0  0  0  0  0  0  0  0  0
  -24.4769  -14.7246  146.5384 C   0  0  0  0  0  0  0  0  0  0  0  0
  -24.1927  -13.0438  144.9258 F   0  0  0  0  0  0  0  0  0  0  0  0
  -23.5785  -18.4298  146.4678 C   0  0  0  0  0  0  0  0  0  0  0  0
  -22.5906  -18.8407  146.8839 O   0  0  0  0  0  0  0  0  0  0  0  0
  -24.8109  -19.0130  146.7100 N   0  0  0  0  0  0  0  0  0  0  0  0
  -24.7401  -16.5044  148.1209 F   0  0  0  0  0  0  0  0  0  0  0  0
  5  7  1  0
  2  8  1  0
  8  9  2  0
  8 10  1  0
  3 11  1  0
  1  2  2  0
  2  3  1  0
  3  6  2  0
  6  5  1  0
  5  4  2  0
  4  1  1  0
M  END

$$$$
No_1935-/dssg/home/sw_qyf/PocketFlow/Model-Generation-Results/5HT2A_7WC7_rec_A_10.pdb/2024-01-01-03-54-21/
     RDKit          3D

 30 32  0  0  0  0  0  0  0  0999 V2000
  -24.1553  -17.8465  145.7021 C   0  0  0  0  0  0  0  0  0  0  0  0
  -23.9795  -18.4462  146.7426 C   0  0  0  0  0  0  0  0  0  0  0  0
  -25.1196  -16.8106  145.6409 C   0  0  0  0  0  0  0  0  0  0  0  0
  -25.9236  -16.5070  146.7422 C   0  0  0  0  0  0  0  0  0  0  0  0
  -25.6627  -17.1841  147.9274 C   0  0  0  0  0  0  0  0  0  0  0  0
  -24.4873  -17.7500  147.9754 C   0  0  0  0  0  0  0  0  0  0  0  0
  -27.0538  -15.5445  146.6167 C   0  0  0  0  0  0  0  0  0  0  0  0
  -26.9278  -14.4500  145.8831 C   0  0  0  0  0  0  0  0  0  0  0  0
  -27.7780  -13.3236  146.0250 C   0  0  0  0  0  0  0  0  0  0  0  0
  -29.0349  -13.4923  146.7722 C   0  0  0  0  0  0  0  0  0  0  0  0
  -29.2439  -14.7107  147.4379 C   0  0  0  0  0  0  0  0  0  0  0  0
  -28.2288  -15.6959  147.4586 C   0  0  0  0  0  0  0  0  0  0  0  0
  -29.9746  -12.3353  146.8438 C   0  0  0  0  0  0  0  0  0  0  0  0
  -29.9499  -11.3496  145.9862 O   0  0  0  0  0  0  0  0  0  0  0  0
  -30.6858  -12.1447  147.9507 O   0  0  0  0  0  0  0  0  0  0  0  0
  -25.2134  -16.0137  144.5022 O   0  0  0  0  0  0  0  0  0  0  0  0
  -24.0383  -15.2533  144.2407 C   0  0  0  0  0  0  0  0  0  0  0  0
  -24.2413  -13.7825  144.1169 C   0  0  0  0  0  0  0  0  0  0  0  0
  -23.0837  -13.0351  144.7952 C   0  0  0  0  0  0  0  0  0  0  0  0
  -23.5826  -11.9674  145.7491 C   0  0  0  0  0  0  0  0  0  0  0  0
  -24.9973  -11.9536  145.8768 C   0  0  0  0  0  0  0  0  0  0  0  0
  -25.4043  -11.5246  147.2234 C   0  0  0  0  0  0  0  0  0  0  0  0
  -29.0733  -11.3217  144.9676 C   0  0  0  0  0  0  0  0  0  0  0  0
  -29.2355  -10.1398  144.1069 C   0  0  0  0  0  0  0  0  0  0  0  0
  -28.7057   -9.9902  142.8735 C   0  0  0  0  0  0  0  0  0  0  0  0
  -28.0099  -11.0077  142.2686 C   0  0  0  0  0  0  0  0  0  0  0  0
  -27.7305  -11.1079  140.9051 C   0  0  0  0  0  0  0  0  0  0  0  0
  -27.9018   -9.8482  140.2096 C   0  0  0  0  0  0  0  0  0  0  0  0
  -28.6343   -8.7741  140.7514 C   0  0  0  0  0  0  0  0  0  0  0  0
  -28.9756   -8.8458  142.1528 C   0  0  0  0  0  0  0  0  0  0  0  0
  4  7  1  0
 10 13  1  0
 13 14  1  0
 13 15  2  0
  3 16  1  0
 16 17  1  0
 17 18  1  0
 18 19  1  0
 19 20  1  0
 20 21  1  0
 21 22  1  0
 14 23  1  0
 23 24  1  0
 24 25  1  0
  1  2  2  0
  2  6  1  0
  6  5  2  0
  5  4  1  0
  4  3  2  0
  3  1  1  0
 25 26  2  0
 26 27  1  0
 27 28  2  0
 28 29  1  0
 29 30  2  0
 30 25  1  0
  7  8  2  0
  8  9  1  0
  9 10  2  0
 10 11  1  0
 11 12  2  0
 12  7  1  0
M  END

$$$$
No_1936-/dssg/home/sw_qyf/PocketFlow/Model-Generation-Results/5HT2A_7WC7_rec_A_10.pdb/2024-01-01-03-54-21/
     RDKit          3D

 35 38  0  0  0  0  0  0  0  0999 V2000
  -24.1553  -17.8465  145.7021 C   0  0  0  0  0  0  0  0  0  0  0  0
  -24.2856  -16.6364  145.3494 C   0  0  0  0  0  0  0  0  0  0  0  0
  -25.0033  -15.6772  146.0737 C   0  0  0  0  0  0  0  0  0  0  0  0
  -25.6964  -16.1810  147.2049 C   0  0  0  0  0  0  0  0  0  0  0  0
  -24.8143  -18.3454  146.8324 C   0  0  0  0  0  0  0  0  0  0  0  0
  -25.5291  -17.4614  147.6374 C   0  0  0  0  0  0  0  0  0  0  0  0
  -23.6456  -16.0867  144.2073 O   0  0  0  0  0  0  0  0  0  0  0  0
  -25.1696  -14.2562  145.6565 C   0  0  0  0  0  0  0  0  0  0  0  0
  -24.4246  -13.7381  144.9199 C   0  0  0  0  0  0  0  0  0  0  0  0
  -24.3200  -12.3119  144.5407 C   0  0  0  0  0  0  0  0  0  0  0  0
  -25.3159  -11.5362  145.2758 C   0  0  0  0  0  0  0  0  0  0  0  0
  -26.2170  -12.1391  146.2211 C   0  0  0  0  0  0  0  0  0  0  0  0
  -26.0812  -13.5066  146.4252 C   0  0  0  0  0  0  0  0  0  0  0  0
  -23.5765  -14.6928  144.1047 C   0  0  0  0  0  0  0  0  0  0  0  0
  -27.1423  -11.3936  146.8648 O   0  0  0  0  0  0  0  0  0  0  0  0
  -28.5222  -11.6852  146.4922 C   0  0  0  0  0  0  0  0  0  0  0  0
  -29.3378  -12.2381  147.1943 C   0  0  0  0  0  0  0  0  0  0  0  0
  -29.0933  -12.8170  148.4569 C   0  0  0  0  0  0  0  0  0  0  0  0
  -28.8498  -11.0668  145.1550 C   0  0  0  0  0  0  0  0  0  0  0  0
  -28.2468  -11.3213  144.0261 C   0  0  0  0  0  0  0  0  0  0  0  0
  -28.6446  -10.8463  142.8030 C   0  0  0  0  0  0  0  0  0  0  0  0
  -28.0244  -11.0886  141.5165 C   0  0  0  0  0  0  0  0  0  0  0  0
  -27.9306  -10.1619  140.5636 C   0  0  0  0  0  0  0  0  0  0  0  0
  -27.2271  -10.3344  139.3216 C   0  0  0  0  0  0  0  0  0  0  0  0
  -26.6506  -11.5845  139.1380 C   0  0  0  0  0  0  0  0  0  0  0  0
  -26.9472  -12.6453  140.1082 C   0  0  0  0  0  0  0  0  0  0  0  0
  -27.5819  -12.4027  141.2797 C   0  0  0  0  0  0  0  0  0  0  0  0
  -30.1257  -13.5878  149.1890 C   0  0  0  0  0  0  0  0  0  0  0  0
  -29.8371  -10.0138  142.7860 C   0  0  0  0  0  0  0  0  0  0  0  0
  -29.6918   -8.6703  143.4437 C   0  0  0  0  0  0  0  0  0  0  0  0
  -29.2652   -7.5527  142.8112 C   0  0  0  0  0  0  0  0  0  0  0  0
  -30.2167   -6.6373  142.1952 C   0  0  0  0  0  0  0  0  0  0  0  0
  -30.0107   -7.0256  140.8586 C   0  0  0  0  0  0  0  0  0  0  0  0
  -31.4579  -13.2383  148.9084 C   0  0  0  0  0  0  0  0  0  0  0  0
  -31.7717  -12.2512  147.9861 C   0  0  0  0  0  0  0  0  0  0  0  0
  2  7  1  0
  3  8  1  0
  7 14  1  0
  9 14  1  0
 12 15  1  0
 15 16  1  0
 16 17  2  3
 17 18  1  0
 16 19  1  0
 19 20  2  3
 20 21  1  0
 21 22  1  0
 18 28  2  3
 21 29  1  0
 29 30  2  3
 30 31  1  0
 31 32  1  0
 32 33  1  0
 28 34  1  0
 34 35  2  0
 22 23  2  0
 23 24  1  0
 24 25  2  0
 25 26  1  0
 26 27  2  0
 27 22  1  0
  1  2  2  0
  2  3  1  0
  3  4  2  0
  4  6  1  0
  6  5  2  0
  5  1  1  0
  8  9  2  0
  9 10  1  0
 10 11  2  0
 11 12  1  0
 12 13  2  0
 13  8  1  0
M  END

$$$$
No_1937-/dssg/home/sw_qyf/PocketFlow/Model-Generation-Results/5HT2A_7WC7_rec_A_10.pdb/2024-01-01-03-54-21/
     RDKit          3D

  8  8  0  0  0  0  0  0  0  0999 V2000
  -23.1746  -16.6014  144.8668 C   0  0  0  0  0  0  0  0  0  0  0  0
  -23.8963  -15.5346  144.7885 C   0  0  0  0  0  0  0  0  0  0  0  0
  -24.5755  -15.0383  145.9043 C   0  0  0  0  0  0  0  0  0  0  0  0
  -25.0618  -13.6819  146.0347 C   0  0  0  0  0  0  0  0  0  0  0  0
  -23.4234  -17.5426  145.8975 C   0  0  0  0  0  0  0  0  0  0  0  0
  -24.0804  -17.1685  147.0476 C   0  0  0  0  0  0  0  0  0  0  0  0
  -24.6332  -15.8976  147.1094 C   0  0  0  0  0  0  0  0  0  0  0  0
  -25.1807  -12.8562  146.7276 C   0  0  0  0  0  0  0  0  0  0  0  0
  4  8  1  0
  4  3  1  0
  1  2  2  0
  2  3  1  0
  3  7  2  0
  7  6  1  0
  6  5  2  0
  5  1  1  0
M  END

$$$$
No_1938-/dssg/home/sw_qyf/PocketFlow/Model-Generation-Results/5HT2A_7WC7_rec_A_10.pdb/2024-01-01-03-54-21/
     RDKit          3D

 12 13  0  0  0  0  0  0  0  0999 V2000
  -24.1553  -17.8465  145.7021 C   0  0  0  0  0  0  0  0  0  0  0  0
  -24.2856  -16.6364  145.3494 C   0  0  0  0  0  0  0  0  0  0  0  0
  -24.7211  -15.5955  146.2116 C   0  0  0  0  0  0  0  0  0  0  0  0
  -24.8538  -14.2010  145.8739 C   0  0  0  0  0  0  0  0  0  0  0  0
  -24.1440  -13.8321  144.7074 C   0  0  0  0  0  0  0  0  0  0  0  0
  -24.0490  -12.4548  144.4544 C   0  0  0  0  0  0  0  0  0  0  0  0
  -24.6002  -18.2723  146.9629 C   0  0  0  0  0  0  0  0  0  0  0  0
  -25.1207  -17.3974  147.9208 C   0  0  0  0  0  0  0  0  0  0  0  0
  -25.1929  -15.9997  147.5614 C   0  0  0  0  0  0  0  0  0  0  0  0
  -24.5861  -11.7172  145.4532 C   0  0  0  0  0  0  0  0  0  0  0  0
  -25.1457  -12.9955  146.6320 C   0  0  0  0  0  0  0  0  0  0  0  0
  -23.7006  -14.6424  143.7980 O   0  0  0  0  0  0  0  0  0  0  0  0
  3  4  1  0
  4  5  1  0
  5  6  2  0
  6 10  1  0
  4 11  1  0
 10 11  1  0
  5 12  1  0
  1  2  2  0
  2  3  1  0
  3  9  2  0
  9  8  1  0
  8  7  2  0
  7  1  1  0
M  END

$$$$
No_1939-/dssg/home/sw_qyf/PocketFlow/Model-Generation-Results/5HT2A_7WC7_rec_A_10.pdb/2024-01-01-03-54-21/
     RDKit          3D

 21 22  0  0  0  0  0  0  0  0999 V2000
  -24.1553  -17.8465  145.7021 C   0  0  0  0  0  0  0  0  0  0  0  0
  -24.2855  -16.6364  145.3494 C   0  0  0  0  0  0  0  0  0  0  0  0
  -23.7824  -15.9603  144.3553 C   0  0  0  0  0  0  0  0  0  0  0  0
  -23.9871  -14.5276  144.1537 C   0  0  0  0  0  0  0  0  0  0  0  0
  -24.7875  -13.8357  145.1352 C   0  0  0  0  0  0  0  0  0  0  0  0
  -25.3944  -14.5459  146.1756 C   0  0  0  0  0  0  0  0  0  0  0  0
  -25.0741  -15.8908  146.3327 C   0  0  0  0  0  0  0  0  0  0  0  0
  -24.7878  -18.4075  146.7775 C   0  0  0  0  0  0  0  0  0  0  0  0
  -25.4828  -17.7411  147.6841 C   0  0  0  0  0  0  0  0  0  0  0  0
  -25.6520  -16.5295  147.5338 C   0  0  0  0  0  0  0  0  0  0  0  0
  -25.0171  -12.3961  144.9620 C   0  0  0  0  0  0  0  0  0  0  0  0
  -25.8377  -12.0343  144.2994 O   0  0  0  0  0  0  0  0  0  0  0  0
  -26.6903  -10.9197  144.6385 C   0  0  0  0  0  0  0  0  0  0  0  0
  -28.0108  -10.9211  144.1803 C   0  0  0  0  0  0  0  0  0  0  0  0
  -28.6686   -9.7371  143.8699 C   0  0  0  0  0  0  0  0  0  0  0  0
  -30.0576   -9.7876  143.5514 C   0  0  0  0  0  0  0  0  0  0  0  0
  -30.6859  -10.6565  142.4078 Cl  0  0  0  0  0  0  0  0  0  0  0  0
  -30.5646   -8.4175  143.5504 O   0  0  0  0  0  0  0  0  0  0  0  0
  -31.8340   -8.2107  143.3118 C   0  0  0  0  0  0  0  0  0  0  0  0
  -24.9229  -11.7527  146.2596 O   0  0  0  0  0  0  0  0  0  0  0  0
  -31.9486   -8.3984  141.8114 C   0  0  0  0  0  0  0  0  0  0  0  0
  5 11  1  0
 11 12  1  0
 12 13  1  0
 13 14  1  0
 14 15  2  3
 15 16  1  0
 16 17  1  0
 16 18  1  0
 18 19  1  0
 11 20  1  0
 19 21  1  0
  2  3  1  0
  3  4  2  0
  4  5  1  0
  5  6  2  0
  6  7  1  0
  1  2  2  0
  2  7  1  0
  7 10  2  0
 10  9  1  0
  9  8  2  0
  8  1  1  0
M  END

$$$$
No_1940-/dssg/home/sw_qyf/PocketFlow/Model-Generation-Results/5HT2A_7WC7_rec_A_10.pdb/2024-01-01-03-54-21/
     RDKit          3D

 18 19  0  0  0  0  0  0  0  0999 V2000
  -24.1553  -17.8465  145.7021 C   0  0  0  0  0  0  0  0  0  0  0  0
  -24.2856  -16.6364  145.3494 C   0  0  0  0  0  0  0  0  0  0  0  0
  -24.7211  -15.5955  146.2115 C   0  0  0  0  0  0  0  0  0  0  0  0
  -24.8539  -14.2010  145.8739 C   0  0  0  0  0  0  0  0  0  0  0  0
  -24.1440  -13.8321  144.7074 C   0  0  0  0  0  0  0  0  0  0  0  0
  -24.0490  -12.4548  144.4544 C   0  0  0  0  0  0  0  0  0  0  0  0
  -24.6003  -18.2723  146.9629 C   0  0  0  0  0  0  0  0  0  0  0  0
  -25.1207  -17.3974  147.9208 C   0  0  0  0  0  0  0  0  0  0  0  0
  -25.1930  -15.9997  147.5614 C   0  0  0  0  0  0  0  0  0  0  0  0
  -24.8210  -11.5920  145.3889 C   0  0  0  0  0  0  0  0  0  0  0  0
  -25.3419  -13.0639  146.6264 C   0  0  0  0  0  0  0  0  0  0  0  0
  -25.3779  -11.8412  146.2593 N   0  0  0  0  0  0  0  0  0  0  0  0
  -23.9224  -16.1957  144.1532 F   0  0  0  0  0  0  0  0  0  0  0  0
  -25.5043  -17.7472  149.3285 C   0  0  0  0  0  0  0  0  0  0  0  0
  -24.5188  -17.2461  150.3486 C   0  0  0  0  0  0  0  0  0  0  0  0
  -24.8689  -17.1907  151.5222 O   0  0  0  0  0  0  0  0  0  0  0  0
  -23.3334  -16.9713  149.9718 O   0  0  0  0  0  0  0  0  0  0  0  0
  -23.7531  -18.7929  144.8964 O   0  0  0  0  0  0  0  0  0  0  0  0
  3  4  1  0
  2 13  1  0
  8 14  1  0
 14 15  1  0
 15 16  2  0
 15 17  1  0
  1 18  1  0
  1  2  2  0
  2  3  1  0
  3  9  2  0
  9  8  1  0
  8  7  2  0
  7  1  1  0
  4  5  2  0
  5  6  1  0
  6 10  2  0
 10 12  1  0
 12 11  2  0
 11  4  1  0
M  END

$$$$
No_1941-/dssg/home/sw_qyf/PocketFlow/Model-Generation-Results/5HT2A_7WC7_rec_A_10.pdb/2024-01-01-03-54-21/
     RDKit          3D

 16 17  0  0  0  0  0  0  0  0999 V2000
  -24.1553  -17.8465  145.7021 C   0  0  0  0  0  0  0  0  0  0  0  0
  -24.2856  -16.6364  145.3494 C   0  0  0  0  0  0  0  0  0  0  0  0
  -23.7824  -15.9602  144.3553 C   0  0  0  0  0  0  0  0  0  0  0  0
  -23.9871  -14.5276  144.1537 C   0  0  0  0  0  0  0  0  0  0  0  0
  -24.7876  -13.8357  145.1352 C   0  0  0  0  0  0  0  0  0  0  0  0
  -25.3945  -14.5459  146.1755 C   0  0  0  0  0  0  0  0  0  0  0  0
  -25.0741  -15.8908  146.3327 C   0  0  0  0  0  0  0  0  0  0  0  0
  -24.7878  -18.4075  146.7775 C   0  0  0  0  0  0  0  0  0  0  0  0
  -25.4828  -17.7411  147.6841 C   0  0  0  0  0  0  0  0  0  0  0  0
  -25.6521  -16.5296  147.5338 C   0  0  0  0  0  0  0  0  0  0  0  0
  -25.0091  -12.3975  144.9568 C   0  0  0  0  0  0  0  0  0  0  0  0
  -24.5291  -11.6525  146.1714 C   0  0  0  0  0  0  0  0  0  0  0  0
  -24.0979  -11.8270  144.0513 F   0  0  0  0  0  0  0  0  0  0  0  0
  -26.1840  -12.1011  144.5609 F   0  0  0  0  0  0  0  0  0  0  0  0
  -25.7312  -11.4590  147.0813 C   0  0  0  0  0  0  0  0  0  0  0  0
  -26.8841  -11.2463  146.3812 O   0  0  0  0  0  0  0  0  0  0  0  0
  5 11  1  0
 11 12  1  0
 11 13  1  0
 11 14  1  0
 12 15  1  0
 15 16  1  0
  2  3  1  0
  3  4  2  0
  4  5  1  0
  5  6  2  0
  6  7  1  0
  1  2  2  0
  2  7  1  0
  7 10  2  0
 10  9  1  0
  9  8  2  0
  8  1  1  0
M  END

$$$$
No_1942-/dssg/home/sw_qyf/PocketFlow/Model-Generation-Results/5HT2A_7WC7_rec_A_10.pdb/2024-01-01-03-54-21/
     RDKit          3D

 35 38  0  0  0  0  0  0  0  0999 V2000
  -24.1553  -17.8465  145.7021 C   0  0  0  0  0  0  0  0  0  0  0  0
  -23.9795  -18.4462  146.7426 C   0  0  0  0  0  0  0  0  0  0  0  0
  -25.1593  -16.8262  145.6925 C   0  0  0  0  0  0  0  0  0  0  0  0
  -25.3302  -15.8818  144.5925 C   0  0  0  0  0  0  0  0  0  0  0  0
  -24.4570  -18.1009  148.0274 C   0  0  0  0  0  0  0  0  0  0  0  0
  -25.3496  -17.0286  148.1023 C   0  0  0  0  0  0  0  0  0  0  0  0
  -25.5669  -16.2449  146.9641 C   0  0  0  0  0  0  0  0  0  0  0  0
  -26.3741  -14.9288  144.6496 C   0  0  0  0  0  0  0  0  0  0  0  0
  -27.0197  -14.6295  145.9189 C   0  0  0  0  0  0  0  0  0  0  0  0
  -26.5846  -15.2107  147.0163 C   0  0  0  0  0  0  0  0  0  0  0  0
  -28.0456  -13.5863  145.9557 C   0  0  0  0  0  0  0  0  0  0  0  0
  -29.1538  -13.6986  146.8119 C   0  0  0  0  0  0  0  0  0  0  0  0
  -30.0710  -12.5949  146.9094 C   0  0  0  0  0  0  0  0  0  0  0  0
  -29.7260  -11.3525  146.2165 C   0  0  0  0  0  0  0  0  0  0  0  0
  -28.5111  -11.2333  145.4995 C   0  0  0  0  0  0  0  0  0  0  0  0
  -27.6560  -12.2891  145.4179 C   0  0  0  0  0  0  0  0  0  0  0  0
  -29.5264  -14.8965  147.4155 C   0  0  0  0  0  0  0  0  0  0  0  0
  -28.2329   -9.9728  144.7871 C   0  0  0  0  0  0  0  0  0  0  0  0
  -28.4285  -10.0725  143.3396 C   0  0  0  0  0  0  0  0  0  0  0  0
  -27.7923  -10.8916  142.5659 C   0  0  0  0  0  0  0  0  0  0  0  0
  -28.0890  -11.0725  141.2074 C   0  0  0  0  0  0  0  0  0  0  0  0
  -28.8213  -10.0591  140.6291 C   0  0  0  0  0  0  0  0  0  0  0  0
  -29.3945   -9.0299  141.4561 C   0  0  0  0  0  0  0  0  0  0  0  0
  -30.2565   -7.9875  140.9489 C   0  0  0  0  0  0  0  0  0  0  0  0
  -29.1959   -9.0383  142.7878 C   0  0  0  0  0  0  0  0  0  0  0  0
  -27.4767  -12.0891  140.4055 C   0  0  0  0  0  0  0  0  0  0  0  0
  -27.1055  -13.1233  140.8886 O   0  0  0  0  0  0  0  0  0  0  0  0
  -27.5292  -12.0290  139.1068 N   0  0  0  0  0  0  0  0  0  0  0  0
  -29.9343   -7.2570  140.0054 O   0  0  0  0  0  0  0  0  0  0  0  0
  -31.2353   -7.6777  141.7398 O   0  0  0  0  0  0  0  0  0  0  0  0
  -30.6090  -10.3643  146.1156 O   0  0  0  0  0  0  0  0  0  0  0  0
  -25.9165  -16.7138  149.2971 O   0  0  0  0  0  0  0  0  0  0  0  0
  -23.6980  -18.1958  144.5687 O   0  0  0  0  0  0  0  0  0  0  0  0
  -23.0556  -19.4624  146.7522 O   0  0  0  0  0  0  0  0  0  0  0  0
  -25.1994  -17.0599  150.4214 C   0  0  0  0  0  0  0  0  0  0  0  0
  9 11  1  0
 12 17  1  0
 15 18  1  0
 18 19  1  0
 23 24  1  0
 21 26  1  0
 26 27  2  0
 26 28  1  0
 24 29  1  0
 24 30  2  0
 14 31  1  0
  6 32  1  0
  1 33  1  0
  2 34  1  0
 32 35  1  0
 11 12  2  0
 12 13  1  0
 13 14  2  0
 14 15  1  0
 15 16  2  0
 16 11  1  0
  1  2  2  0
  2  5  1  0
  5  6  2  0
  6  7  1  0
  3  1  1  0
 19 20  2  0
 20 21  1  0
 21 22  2  0
 22 23  1  0
 23 25  2  0
 25 19  1  0
  3  4  2  0
  4  8  1  0
  8  9  2  0
  9 10  1  0
 10  7  2  0
  7  3  1  0
M  END

$$$$
No_1943-/dssg/home/sw_qyf/PocketFlow/Model-Generation-Results/5HT2A_7WC7_rec_A_10.pdb/2024-01-01-03-54-21/
     RDKit          3D

 26 28  0  0  0  0  0  0  0  0999 V2000
  -24.1553  -17.8465  145.7021 C   0  0  0  0  0  0  0  0  0  0  0  0
  -23.9795  -18.4462  146.7426 C   0  0  0  0  0  0  0  0  0  0  0  0
  -25.1196  -16.8106  145.6408 C   0  0  0  0  0  0  0  0  0  0  0  0
  -25.2440  -15.8776  144.5240 C   0  0  0  0  0  0  0  0  0  0  0  0
  -24.0641  -15.4170  143.9520 C   0  0  0  0  0  0  0  0  0  0  0  0
  -22.8993  -16.1300  144.2805 C   0  0  0  0  0  0  0  0  0  0  0  0
  -22.9280  -17.2077  145.1727 N   0  0  0  0  0  0  0  0  0  0  0  0
  -26.4086  -17.1531  146.3414 C   0  0  0  0  0  0  0  0  0  0  0  0
  -27.6314  -16.6340  146.0874 C   0  0  0  0  0  0  0  0  0  0  0  0
  -28.4254  -16.1577  147.2298 C   0  0  0  0  0  0  0  0  0  0  0  0
  -28.4459  -16.8427  148.4361 C   0  0  0  0  0  0  0  0  0  0  0  0
  -29.3785  -16.5256  149.4018 C   0  0  0  0  0  0  0  0  0  0  0  0
  -30.2107  -15.3485  149.2806 C   0  0  0  0  0  0  0  0  0  0  0  0
  -30.1325  -14.6334  148.0439 C   0  0  0  0  0  0  0  0  0  0  0  0
  -29.2913  -15.0513  147.0425 C   0  0  0  0  0  0  0  0  0  0  0  0
  -31.1126  -13.2327  147.9691 Cl  0  0  0  0  0  0  0  0  0  0  0  0
  -25.0595  -18.5526  147.8019 C   0  0  0  0  0  0  0  0  0  0  0  0
  -26.1321  -17.9819  147.5320 C   0  0  0  0  0  0  0  0  0  0  0  0
  -24.0443  -14.0984  143.4116 C   0  0  0  0  0  0  0  0  0  0  0  0
  -24.2675  -13.1349  144.2950 O   0  0  0  0  0  0  0  0  0  0  0  0
  -25.4042  -12.8190  144.7771 C   0  0  0  0  0  0  0  0  0  0  0  0
  -25.4460  -12.6128  146.3091 C   0  0  0  0  0  0  0  0  0  0  0  0
  -26.6315  -12.3229  146.8610 O   0  0  0  0  0  0  0  0  0  0  0  0
  -24.4378  -12.8584  147.0265 O   0  0  0  0  0  0  0  0  0  0  0  0
  -31.1271  -14.9625  150.3900 C   0  0  0  0  0  0  0  0  0  0  0  0
  -31.8152  -13.7822  150.4447 C   0  0  0  0  0  0  0  0  0  0  0  0
  3  4  1  0
  4  5  1  0
  5  6  1  0
  1  7  1  0
  6  7  1  0
  8  9  1  0
  9 10  1  0
 14 16  1  0
  5 19  1  0
 19 20  1  0
 20 21  1  0
 21 22  1  0
 22 23  1  0
 22 24  2  0
 13 25  1  0
 25 26  1  0
  1  2  2  0
  2 17  1  0
 17 18  2  0
 18  8  1  0
  8  3  2  0
  3  1  1  0
 10 11  2  0
 11 12  1  0
 12 13  2  0
 13 14  1  0
 14 15  2  0
 15 10  1  0
M  END

$$$$
No_1944-/dssg/home/sw_qyf/PocketFlow/Model-Generation-Results/5HT2A_7WC7_rec_A_10.pdb/2024-01-01-03-54-21/
     RDKit          3D

 35 36  0  0  0  0  0  0  0  0999 V2000
  -23.1746  -16.6014  144.8668 C   0  0  0  0  0  0  0  0  0  0  0  0
  -23.8963  -15.5346  144.7885 C   0  0  0  0  0  0  0  0  0  0  0  0
  -25.0304  -15.2549  144.5358 C   0  0  0  0  0  0  0  0  0  0  0  0
  -25.6045  -13.9524  144.2294 C   0  0  0  0  0  0  0  0  0  0  0  0
  -24.8624  -12.8904  144.6738 C   0  0  0  0  0  0  0  0  0  0  0  0
  -23.5278  -13.1645  145.1476 C   0  0  0  0  0  0  0  0  0  0  0  0
  -23.0148  -14.3796  145.1899 C   0  0  0  0  0  0  0  0  0  0  0  0
  -23.9425  -17.3971  145.6441 F   0  0  0  0  0  0  0  0  0  0  0  0
  -23.2519  -17.2883  143.6071 F   0  0  0  0  0  0  0  0  0  0  0  0
  -27.0093  -13.7765  143.8422 C   0  0  0  0  0  0  0  0  0  0  0  0
  -27.2569  -12.3950  143.4287 C   0  0  0  0  0  0  0  0  0  0  0  0
  -27.5854  -11.4136  144.3563 C   0  0  0  0  0  0  0  0  0  0  0  0
  -28.0457  -10.1412  143.9268 C   0  0  0  0  0  0  0  0  0  0  0  0
  -28.6057  -10.0211  142.6508 C   0  0  0  0  0  0  0  0  0  0  0  0
  -28.2360  -11.0599  141.7295 C   0  0  0  0  0  0  0  0  0  0  0  0
  -27.7278  -12.2539  142.1035 C   0  0  0  0  0  0  0  0  0  0  0  0
  -29.1985   -8.7870  142.1815 C   0  0  0  0  0  0  0  0  0  0  0  0
  -30.2708   -8.2050  142.9192 C   0  0  0  0  0  0  0  0  0  0  0  0
  -31.3896   -9.0020  143.2452 C   0  0  0  0  0  0  0  0  0  0  0  0
  -29.4936   -8.7608  140.7345 C   0  0  0  0  0  0  0  0  0  0  0  0
  -28.5481   -7.8906  140.1443 C   0  0  0  0  0  0  0  0  0  0  0  0
  -28.8509   -7.7766  138.6720 C   0  0  0  0  0  0  0  0  0  0  0  0
  -29.4369   -8.8542  138.0373 C   0  0  0  0  0  0  0  0  0  0  0  0
  -30.3401   -6.7701  143.2065 C   0  0  0  0  0  0  0  0  0  0  0  0
  -28.6042   -9.3438  136.8846 C   0  0  0  0  0  0  0  0  0  0  0  0
  -22.7067  -11.8833  145.4822 C   0  0  0  0  0  0  0  0  0  0  0  0
  -29.3280   -9.9609  135.8155 C   0  0  0  0  0  0  0  0  0  0  0  0
  -27.5116  -13.2901  141.1350 C   0  0  0  0  0  0  0  0  0  0  0  0
  -27.7038  -12.9441  139.8549 N   0  0  0  0  0  0  0  0  0  0  0  0
  -26.7953  -12.3721  138.9999 C   0  0  0  0  0  0  0  0  0  0  0  0
  -25.5630  -12.1739  139.4968 N   0  0  0  0  0  0  0  0  0  0  0  0
  -27.1220  -12.1541  137.8602 O   0  0  0  0  0  0  0  0  0  0  0  0
  -29.9883   -9.2397  135.0927 O   0  0  0  0  0  0  0  0  0  0  0  0
  -29.0887  -11.1802  135.4749 O   0  0  0  0  0  0  0  0  0  0  0  0
  -31.6464   -9.4900  144.3270 O   0  0  0  0  0  0  0  0  0  0  0  0
  1  2  1  0
  1  8  1  0
  1  9  1  0
  4 10  1  0
 10 11  1  0
 14 17  1  0
 17 18  1  0
 18 19  1  0
 17 20  1  0
 20 21  1  0
 21 22  1  0
 22 23  1  0
 18 24  1  0
 23 25  1  0
  6 26  1  0
 25 27  1  0
 16 28  1  0
 28 29  1  0
 29 30  1  0
 30 31  1  0
 30 32  2  0
 27 33  2  0
 27 34  1  0
 19 35  2  0
 11 12  2  0
 12 13  1  0
 13 14  2  0
 14 15  1  0
 15 16  2  0
 16 11  1  0
  2  3  2  0
  3  4  1  0
  4  5  2  0
  5  6  1  0
  6  7  2  0
  7  2  1  0
M  END

$$$$
No_1945-/dssg/home/sw_qyf/PocketFlow/Model-Generation-Results/5HT2A_7WC7_rec_A_10.pdb/2024-01-01-03-54-21/
     RDKit          3D

 35 37  0  0  0  0  0  0  0  0999 V2000
  -24.1553  -17.8465  145.7021 C   0  0  0  0  0  0  0  0  0  0  0  0
  -24.2856  -16.6364  145.3494 C   0  0  0  0  0  0  0  0  0  0  0  0
  -23.7824  -15.9602  144.3554 C   0  0  0  0  0  0  0  0  0  0  0  0
  -24.0538  -14.4894  144.2905 C   0  0  0  0  0  0  0  0  0  0  0  0
  -24.9129  -13.8911  145.2692 C   0  0  0  0  0  0  0  0  0  0  0  0
  -25.5152  -14.6873  146.2905 C   0  0  0  0  0  0  0  0  0  0  0  0
  -25.1284  -16.0263  146.3485 C   0  0  0  0  0  0  0  0  0  0  0  0
  -23.8062  -18.4030  146.7084 C   0  0  0  0  0  0  0  0  0  0  0  0
  -24.3296  -17.7501  147.9699 C   0  0  0  0  0  0  0  0  0  0  0  0
  -24.8434  -16.4391  147.8631 C   0  0  0  0  0  0  0  0  0  0  0  0
  -25.2297  -12.4731  145.1055 C   0  0  0  0  0  0  0  0  0  0  0  0
  -26.4278  -12.0571  145.8357 C   0  0  0  0  0  0  0  0  0  0  0  0
  -27.2706  -11.0884  145.2105 C   0  0  0  0  0  0  0  0  0  0  0  0
  -28.0930  -11.4253  144.2733 C   0  0  0  0  0  0  0  0  0  0  0  0
  -28.2477  -10.5711  143.2317 C   0  0  0  0  0  0  0  0  0  0  0  0
  -28.1435  -10.9855  141.9232 C   0  0  0  0  0  0  0  0  0  0  0  0
  -28.4475  -10.1072  140.8664 C   0  0  0  0  0  0  0  0  0  0  0  0
  -29.0502   -8.8603  141.1036 C   0  0  0  0  0  0  0  0  0  0  0  0
  -29.3940   -7.9307  140.0679 C   0  0  0  0  0  0  0  0  0  0  0  0
  -29.4848   -8.5658  142.4991 C   0  0  0  0  0  0  0  0  0  0  0  0
  -29.1448   -9.4359  143.5282 C   0  0  0  0  0  0  0  0  0  0  0  0
  -29.7996   -6.9302  140.4113 F   0  0  0  0  0  0  0  0  0  0  0  0
  -29.2173   -8.2293  138.8859 F   0  0  0  0  0  0  0  0  0  0  0  0
  -28.0665  -10.5384  139.5579 C   0  0  0  0  0  0  0  0  0  0  0  0
  -27.3621  -11.6765  139.4718 N   0  0  0  0  0  0  0  0  0  0  0  0
  -26.4200  -12.0951  140.1172 C   0  0  0  0  0  0  0  0  0  0  0  0
  -25.7986  -13.2644  139.4240 C   0  0  0  0  0  0  0  0  0  0  0  0
  -26.6245  -16.6580  146.0625 C   0  0  0  0  0  0  0  0  0  0  0  0
  -27.7215  -16.1465  147.0020 C   0  0  0  0  0  0  0  0  0  0  0  0
  -28.0611  -14.8623  146.9333 C   0  0  0  0  0  0  0  0  0  0  0  0
  -29.1934  -14.3051  147.5458 C   0  0  0  0  0  0  0  0  0  0  0  0
  -29.7666  -13.0079  147.3225 C   0  0  0  0  0  0  0  0  0  0  0  0
  -30.7160  -12.4752  148.2245 C   0  0  0  0  0  0  0  0  0  0  0  0
  -31.2575  -13.2359  149.2740 C   0  0  0  0  0  0  0  0  0  0  0  0
  -30.6339  -14.5051  149.4701 C   0  0  0  0  0  0  0  0  0  0  0  0
  1  2  1  0
  2  3  1  0
  4  5  1  0
  2  7  1  0
  6  7  1  0
  8  9  1  0
  7 10  1  0
  9 10  1  0
  5 11  1  0
 11 12  1  0
 12 13  1  0
 13 14  1  0
 14 15  1  0
 18 19  1  0
 19 22  1  0
 19 23  1  0
 17 24  1  0
 24 25  1  0
 25 26  1  0
 26 27  2  0
  7 28  1  0
 28 29  1  0
 29 30  2  3
 30 31  1  0
 31 32  2  3
 32 33  1  0
 33 34  2  3
 34 35  1  0
  3  4  1  0
  5  6  1  0
  1  8  1  0
 15 16  2  0
 16 17  1  0
 17 18  2  0
 18 20  1  0
 20 21  2  0
 21 15  1  0
M  END

$$$$
No_1946-/dssg/home/sw_qyf/PocketFlow/Model-Generation-Results/5HT2A_7WC7_rec_A_10.pdb/2024-01-01-03-54-21/
     RDKit          3D

 26 28  0  0  0  0  0  0  0  0999 V2000
  -23.1746  -16.6014  144.8668 C   0  0  0  0  0  0  0  0  0  0  0  0
  -23.7011  -17.0158  145.9774 C   0  0  0  0  0  0  0  0  0  0  0  0
  -24.7096  -16.6222  146.3577 C   0  0  0  0  0  0  0  0  0  0  0  0
  -25.4819  -15.5594  145.8226 C   0  0  0  0  0  0  0  0  0  0  0  0
  -26.6929  -14.9922  146.4004 C   0  0  0  0  0  0  0  0  0  0  0  0
  -27.2819  -13.8194  145.9771 C   0  0  0  0  0  0  0  0  0  0  0  0
  -26.5833  -13.1498  144.8922 C   0  0  0  0  0  0  0  0  0  0  0  0
  -25.4012  -13.6253  144.4087 C   0  0  0  0  0  0  0  0  0  0  0  0
  -24.8016  -14.7830  144.8728 C   0  0  0  0  0  0  0  0  0  0  0  0
  -23.6465  -15.3549  144.2997 C   0  0  0  0  0  0  0  0  0  0  0  0
  -27.2755  -11.8972  144.3882 C   0  0  0  0  0  0  0  0  0  0  0  0
  -26.9990  -10.6815  145.0825 C   0  0  0  0  0  0  0  0  0  0  0  0
  -27.5637   -9.4432  144.5444 C   0  0  0  0  0  0  0  0  0  0  0  0
  -28.4605   -9.4616  143.5026 C   0  0  0  0  0  0  0  0  0  0  0  0
  -29.2743   -8.4192  143.1665 C   0  0  0  0  0  0  0  0  0  0  0  0
  -30.0578   -8.3784  141.9972 C   0  0  0  0  0  0  0  0  0  0  0  0
  -31.1658   -7.6288  141.8173 C   0  0  0  0  0  0  0  0  0  0  0  0
  -28.0852  -11.8528  143.2553 C   0  0  0  0  0  0  0  0  0  0  0  0
  -28.7428  -10.6992  142.8892 C   0  0  0  0  0  0  0  0  0  0  0  0
  -25.5460  -17.1868  147.6202 C   0  0  0  0  0  0  0  0  0  0  0  0
  -24.6685  -17.5291  148.7273 C   0  0  0  0  0  0  0  0  0  0  0  0
  -24.4700  -16.5639  149.7593 C   0  0  0  0  0  0  0  0  0  0  0  0
  -23.6425  -17.0433  150.9067 C   0  0  0  0  0  0  0  0  0  0  0  0
  -28.5540  -13.3598  146.4935 C   0  0  0  0  0  0  0  0  0  0  0  0
  -28.8413  -12.0362  146.9206 C   0  0  0  0  0  0  0  0  0  0  0  0
  -30.0644  -11.7205  147.5492 C   0  0  0  0  0  0  0  0  0  0  0  0
  7 11  1  0
 14 15  1  0
 15 16  1  0
 16 17  1  0
  3 20  1  0
 20 21  1  0
 21 22  1  0
 22 23  1  0
  6 24  1  0
 24 25  2  3
 25 26  1  0
 11 12  2  0
 12 13  1  0
 13 14  2  0
 14 19  1  0
 19 18  2  0
 18 11  1  0
  1  2  2  0
  2  3  1  0
  3  4  2  0
  9 10  2  0
 10  1  1  0
  4  5  1  0
  5  6  2  0
  6  7  1  0
  7  8  2  0
  8  9  1  0
  9  4  1  0
M  END

$$$$
No_1947-/dssg/home/sw_qyf/PocketFlow/Model-Generation-Results/5HT2A_7WC7_rec_A_10.pdb/2024-01-01-03-54-21/
     RDKit          3D

 22 23  0  0  0  0  0  0  0  0999 V2000
  -24.1553  -17.8465  145.7021 C   0  0  0  0  0  0  0  0  0  0  0  0
  -23.9795  -18.4462  146.7426 C   0  0  0  0  0  0  0  0  0  0  0  0
  -23.3558  -17.2450  144.9339 C   0  0  0  0  0  0  0  0  0  0  0  0
  -24.9341  -19.0253  147.6214 C   0  0  0  0  0  0  0  0  0  0  0  0
  -23.7687  -15.8246  144.5219 C   0  0  0  0  0  0  0  0  0  0  0  0
  -25.0191  -15.2890  144.9695 C   0  0  0  0  0  0  0  0  0  0  0  0
  -25.2844  -13.9490  144.6696 C   0  0  0  0  0  0  0  0  0  0  0  0
  -25.8424  -13.1341  145.6338 C   0  0  0  0  0  0  0  0  0  0  0  0
  -25.2862  -11.8803  145.9477 C   0  0  0  0  0  0  0  0  0  0  0  0
  -27.0953  -13.5790  146.2475 C   0  0  0  0  0  0  0  0  0  0  0  0
  -27.0498  -14.8281  146.9142 C   0  0  0  0  0  0  0  0  0  0  0  0
  -26.1098  -15.8366  146.0747 C   0  0  0  0  0  0  0  0  0  0  0  0
  -24.1007  -11.7717  146.2960 O   0  0  0  0  0  0  0  0  0  0  0  0
  -25.9184  -10.7051  145.5961 O   0  0  0  0  0  0  0  0  0  0  0  0
  -28.1762  -12.7494  146.4848 C   0  0  0  0  0  0  0  0  0  0  0  0
  -28.5722  -11.6251  145.7981 C   0  0  0  0  0  0  0  0  0  0  0  0
  -29.8683  -11.0496  146.0800 C   0  0  0  0  0  0  0  0  0  0  0  0
  -30.5289  -11.3712  147.2458 O   0  0  0  0  0  0  0  0  0  0  0  0
  -30.3509  -10.1092  145.3439 O   0  0  0  0  0  0  0  0  0  0  0  0
  -22.9981  -15.0723  143.9168 O   0  0  0  0  0  0  0  0  0  0  0  0
  -26.2022  -18.5753  147.2590 C   0  0  0  0  0  0  0  0  0  0  0  0
  -25.8900  -17.7573  146.0726 C   0  0  0  0  0  0  0  0  0  0  0  0
  1  2  2  0
  1  3  1  0
  2  4  1  0
  3  5  1  0
  5  6  1  0
  6  7  1  0
  7  8  1  0
  8  9  1  0
  8 10  1  0
 10 11  1  0
  6 12  1  0
 11 12  1  0
  9 13  2  0
  9 14  1  0
 10 15  1  0
 15 16  2  3
 16 17  1  0
 17 18  1  0
 17 19  2  0
  5 20  2  0
  4 21  2  0
  1 22  1  0
 21 22  1  0
M  END

$$$$
No_1948-/dssg/home/sw_qyf/PocketFlow/Model-Generation-Results/5HT2A_7WC7_rec_A_10.pdb/2024-01-01-03-54-21/
     RDKit          3D

 35 37  0  0  0  0  0  0  0  0999 V2000
  -24.1553  -17.8465  145.7021 C   0  0  0  0  0  0  0  0  0  0  0  0
  -24.2856  -16.6364  145.3494 C   0  0  0  0  0  0  0  0  0  0  0  0
  -24.7838  -15.7223  145.8474 C   0  0  0  0  0  0  0  0  0  0  0  0
  -25.6062  -15.9757  147.0425 C   0  0  0  0  0  0  0  0  0  0  0  0
  -24.8560  -18.2319  146.8940 C   0  0  0  0  0  0  0  0  0  0  0  0
  -25.5370  -17.2345  147.6143 C   0  0  0  0  0  0  0  0  0  0  0  0
  -24.9277  -14.2280  145.4103 C   0  0  0  0  0  0  0  0  0  0  0  0
  -25.9184  -13.4314  145.8090 C   0  0  0  0  0  0  0  0  0  0  0  0
  -25.7856  -12.0178  145.7885 C   0  0  0  0  0  0  0  0  0  0  0  0
  -26.8781  -11.1485  146.1133 C   0  0  0  0  0  0  0  0  0  0  0  0
  -27.9662  -11.3420  145.3979 C   0  0  0  0  0  0  0  0  0  0  0  0
  -29.0106  -10.3426  145.2560 C   0  0  0  0  0  0  0  0  0  0  0  0
  -23.5786  -13.5380  145.3649 C   0  0  0  0  0  0  0  0  0  0  0  0
  -29.5807   -9.9967  143.8993 C   0  0  0  0  0  0  0  0  0  0  0  0
  -30.5375   -9.0308  143.8030 C   0  0  0  0  0  0  0  0  0  0  0  0
  -30.5339   -8.3049  142.6404 C   0  0  0  0  0  0  0  0  0  0  0  0
  -31.3129   -7.4294  142.1615 C   0  0  0  0  0  0  0  0  0  0  0  0
  -29.7963   -9.2128  141.6031 C   0  0  0  0  0  0  0  0  0  0  0  0
  -28.8724  -10.1465  142.6957 C   0  0  0  0  0  0  0  0  0  0  0  0
  -27.9616  -11.0228  142.1888 C   0  0  0  0  0  0  0  0  0  0  0  0
  -28.1251  -11.8772  141.6254 O   0  0  0  0  0  0  0  0  0  0  0  0
  -27.1700  -12.8310  141.2834 C   0  0  0  0  0  0  0  0  0  0  0  0
  -23.4380  -12.1390  145.4783 C   0  0  0  0  0  0  0  0  0  0  0  0
  -24.4802  -11.4309  145.6481 C   0  0  0  0  0  0  0  0  0  0  0  0
  -26.6824  -12.7890  140.0309 C   0  0  0  0  0  0  0  0  0  0  0  0
  -25.4424  -13.2349  139.8076 O   0  0  0  0  0  0  0  0  0  0  0  0
  -27.3165  -12.3237  139.0328 F   0  0  0  0  0  0  0  0  0  0  0  0
  -23.5586  -16.3549  144.1032 O   0  0  0  0  0  0  0  0  0  0  0  0
  -21.8947  -11.4845  145.0563 Cl  0  0  0  0  0  0  0  0  0  0  0  0
  -30.7766   -6.5201  141.8621 O   0  0  0  0  0  0  0  0  0  0  0  0
  -29.2503   -6.6665  141.9055 C   0  0  0  0  0  0  0  0  0  0  0  0
  -26.3157  -17.5570  149.1360 Cl  0  0  0  0  0  0  0  0  0  0  0  0
  -23.5882  -18.9146  145.0831 O   0  0  0  0  0  0  0  0  0  0  0  0
  -26.9464  -13.7651  142.1049 O   0  0  0  0  0  0  0  0  0  0  0  0
  -32.2554   -7.3238  143.3023 O   0  0  0  0  0  0  0  0  0  0  0  0
  3  7  1  0
  9 10  1  0
 10 11  2  3
 11 12  1  0
 12 14  1  0
 14 15  1  0
 15 16  1  0
 16 17  1  0
 16 18  1  0
 14 19  1  0
 18 19  1  0
 19 20  1  0
 20 21  1  0
 21 22  1  0
 22 25  1  0
 25 26  1  0
 25 27  1  0
  2 28  1  0
 23 29  1  0
 17 30  1  0
 30 31  1  0
  6 32  1  0
  1 33  1  0
 22 34  2  0
 17 35  1  0
  1  2  2  0
  2  3  1  0
  3  4  2  0
  4  6  1  0
  6  5  2  0
  5  1  1  0
  7  8  2  0
  8  9  1  0
  9 24  2  0
 24 23  1  0
 23 13  2  0
 13  7  1  0
M  END

$$$$
No_1949-/dssg/home/sw_qyf/PocketFlow/Model-Generation-Results/5HT2A_7WC7_rec_A_10.pdb/2024-01-01-03-54-21/
     RDKit          3D

 18 18  0  0  0  0  0  0  0  0999 V2000
  -23.1746  -16.6014  144.8668 C   0  0  0  0  0  0  0  0  0  0  0  0
  -23.7011  -17.0158  145.9774 C   0  0  0  0  0  0  0  0  0  0  0  0
  -24.2134  -16.0722  146.8877 C   0  0  0  0  0  0  0  0  0  0  0  0
  -23.3742  -15.2706  144.3922 C   0  0  0  0  0  0  0  0  0  0  0  0
  -24.0445  -14.2973  145.2608 C   0  0  0  0  0  0  0  0  0  0  0  0
  -24.4773  -14.7066  146.5258 C   0  0  0  0  0  0  0  0  0  0  0  0
  -24.1883  -12.8818  144.8809 C   0  0  0  0  0  0  0  0  0  0  0  0
  -23.1038  -12.1511  145.5295 C   0  0  0  0  0  0  0  0  0  0  0  0
  -23.5532  -18.4195  146.4774 C   0  0  0  0  0  0  0  0  0  0  0  0
  -24.2670  -19.2404  146.1941 O   0  0  0  0  0  0  0  0  0  0  0  0
  -22.4854  -18.6328  147.2350 O   0  0  0  0  0  0  0  0  0  0  0  0
  -25.5175  -12.3721  145.2961 C   0  0  0  0  0  0  0  0  0  0  0  0
  -26.0596  -11.3347  144.4843 C   0  0  0  0  0  0  0  0  0  0  0  0
  -27.4563  -10.9073  144.8266 C   0  0  0  0  0  0  0  0  0  0  0  0
  -28.2010  -10.0808  143.9823 C   0  0  0  0  0  0  0  0  0  0  0  0
  -27.7330   -9.4048  143.0569 C   0  0  0  0  0  0  0  0  0  0  0  0
  -29.6690   -9.9805  144.3286 C   0  0  0  0  0  0  0  0  0  0  0  0
  -30.1306  -10.4057  145.4153 O   0  0  0  0  0  0  0  0  0  0  0  0
  5  7  1  0
  7  8  1  0
  2  9  1  0
  9 10  1  0
  9 11  2  0
  7 12  1  0
 12 13  1  0
 13 14  1  0
 14 15  1  0
 15 16  1  0
 15 17  1  0
 17 18  2  0
  1  2  2  0
  2  3  1  0
  3  6  2  0
  6  5  1  0
  5  4  2  0
  4  1  1  0
M  END

$$$$
No_1950-/dssg/home/sw_qyf/PocketFlow/Model-Generation-Results/5HT2A_7WC7_rec_A_10.pdb/2024-01-01-03-54-21/
     RDKit          3D

  8  8  0  0  0  0  0  0  0  0999 V2000
  -24.1553  -17.8465  145.7021 C   0  0  0  0  0  0  0  0  0  0  0  0
  -24.2856  -16.6364  145.3494 C   0  0  0  0  0  0  0  0  0  0  0  0
  -25.0033  -15.6772  146.0737 C   0  0  0  0  0  0  0  0  0  0  0  0
  -25.6964  -16.1810  147.2049 C   0  0  0  0  0  0  0  0  0  0  0  0
  -24.8143  -18.3454  146.8324 C   0  0  0  0  0  0  0  0  0  0  0  0
  -25.5291  -17.4614  147.6373 C   0  0  0  0  0  0  0  0  0  0  0  0
  -23.4900  -15.9703  143.9272 Cl  0  0  0  0  0  0  0  0  0  0  0  0
  -25.1710  -14.3733  145.7841 F   0  0  0  0  0  0  0  0  0  0  0  0
  2  7  1  0
  3  8  1  0
  1  2  2  0
  2  3  1  0
  3  4  2  0
  4  6  1  0
  6  5  2  0
  5  1  1  0
M  END

$$$$
No_1951-/dssg/home/sw_qyf/PocketFlow/Model-Generation-Results/5HT2A_7WC7_rec_A_10.pdb/2024-01-01-03-54-21/
     RDKit          3D

 22 23  0  0  0  0  0  0  0  0999 V2000
  -24.1553  -17.8465  145.7021 C   0  0  0  0  0  0  0  0  0  0  0  0
  -23.9795  -18.4462  146.7426 C   0  0  0  0  0  0  0  0  0  0  0  0
  -24.2723  -16.4220  145.8037 C   0  0  0  0  0  0  0  0  0  0  0  0
  -24.9934  -15.8373  146.8363 C   0  0  0  0  0  0  0  0  0  0  0  0
  -26.2430  -15.7345  146.8632 C   0  0  0  0  0  0  0  0  0  0  0  0
  -26.9581  -16.6646  147.5598 C   0  0  0  0  0  0  0  0  0  0  0  0
  -28.4348  -16.5221  147.6493 C   0  0  0  0  0  0  0  0  0  0  0  0
  -29.0320  -15.3528  147.1551 C   0  0  0  0  0  0  0  0  0  0  0  0
  -28.2757  -14.3475  146.6090 C   0  0  0  0  0  0  0  0  0  0  0  0
  -26.9601  -14.5396  146.3575 C   0  0  0  0  0  0  0  0  0  0  0  0
  -23.9824  -15.4972  144.6967 C   0  0  0  0  0  0  0  0  0  0  0  0
  -23.4584  -14.5992  144.5549 N   0  0  0  0  0  0  0  0  0  0  0  0
  -28.9624  -13.0866  146.1873 C   0  0  0  0  0  0  0  0  0  0  0  0
  -28.6898  -12.0680  146.0870 C   0  0  0  0  0  0  0  0  0  0  0  0
  -29.5454  -10.8887  145.6275 C   0  0  0  0  0  0  0  0  0  0  0  0
  -29.2650  -10.3596  144.3869 C   0  0  0  0  0  0  0  0  0  0  0  0
  -30.2240   -9.6322  143.7287 C   0  0  0  0  0  0  0  0  0  0  0  0
  -30.1650   -9.4007  142.2886 C   0  0  0  0  0  0  0  0  0  0  0  0
  -29.0537   -9.9317  141.6299 C   0  0  0  0  0  0  0  0  0  0  0  0
  -28.1729  -10.8352  142.3330 C   0  0  0  0  0  0  0  0  0  0  0  0
  -28.3243  -11.0802  143.6997 C   0  0  0  0  0  0  0  0  0  0  0  0
  -23.7652  -17.8298  147.8663 O   0  0  0  0  0  0  0  0  0  0  0  0
  1  2  1  0
  1  3  1  0
  3  4  1  0
  4  5  1  0
  3 11  1  0
 11 12  3  0
  9 13  1  0
 13 14  2  3
 14 15  1  0
 15 16  1  0
  2 22  1  0
  5  6  2  0
  6  7  1  0
  7  8  2  0
  8  9  1  0
  9 10  2  0
 10  5  1  0
 16 17  2  0
 17 18  1  0
 18 19  2  0
 19 20  1  0
 20 21  2  0
 21 16  1  0
M  END

$$$$
No_1952-/dssg/home/sw_qyf/PocketFlow/Model-Generation-Results/5HT2A_7WC7_rec_A_10.pdb/2024-01-01-03-54-21/
     RDKit          3D

 15 16  0  0  0  0  0  0  0  0999 V2000
  -24.1553  -17.8465  145.7021 C   0  0  0  0  0  0  0  0  0  0  0  0
  -23.9795  -18.4462  146.7426 C   0  0  0  0  0  0  0  0  0  0  0  0
  -25.1196  -16.8106  145.6408 C   0  0  0  0  0  0  0  0  0  0  0  0
  -25.9237  -16.5070  146.7422 C   0  0  0  0  0  0  0  0  0  0  0  0
  -25.6173  -17.2153  147.9099 C   0  0  0  0  0  0  0  0  0  0  0  0
  -24.6179  -18.1473  147.9619 C   0  0  0  0  0  0  0  0  0  0  0  0
  -26.9749  -15.4806  146.6971 C   0  0  0  0  0  0  0  0  0  0  0  0
  -28.1738  -15.7947  146.3281 C   0  0  0  0  0  0  0  0  0  0  0  0
  -29.1439  -14.7837  146.4138 C   0  0  0  0  0  0  0  0  0  0  0  0
  -28.8847  -13.4229  146.7624 C   0  0  0  0  0  0  0  0  0  0  0  0
  -27.4586  -13.0656  146.8634 C   0  0  0  0  0  0  0  0  0  0  0  0
  -26.5543  -14.0881  146.9275 C   0  0  0  0  0  0  0  0  0  0  0  0
  -29.8823  -12.3574  146.6804 C   0  0  0  0  0  0  0  0  0  0  0  0
  -30.8810  -11.9453  147.9586 Cl  0  0  0  0  0  0  0  0  0  0  0  0
  -29.9595  -11.5231  145.7146 O   0  0  0  0  0  0  0  0  0  0  0  0
  4  7  1  0
 10 13  1  0
 13 14  1  0
 13 15  2  0
  1  2  2  0
  2  6  1  0
  6  5  2  0
  5  4  1  0
  4  3  2  0
  3  1  1  0
  7  8  2  0
  8  9  1  0
  9 10  2  0
 10 11  1  0
 11 12  2  0
 12  7  1  0
M  END

$$$$
No_1953-/dssg/home/sw_qyf/PocketFlow/Model-Generation-Results/5HT2A_7WC7_rec_A_10.pdb/2024-01-01-03-54-21/
     RDKit          3D

 24 25  0  0  0  0  0  0  0  0999 V2000
  -24.1553  -17.8465  145.7021 C   0  0  0  0  0  0  0  0  0  0  0  0
  -24.2856  -16.6364  145.3494 C   0  0  0  0  0  0  0  0  0  0  0  0
  -25.0033  -15.6772  146.0737 C   0  0  0  0  0  0  0  0  0  0  0  0
  -25.6964  -16.1810  147.2049 C   0  0  0  0  0  0  0  0  0  0  0  0
  -24.8143  -18.3454  146.8324 C   0  0  0  0  0  0  0  0  0  0  0  0
  -25.5291  -17.4614  147.6373 C   0  0  0  0  0  0  0  0  0  0  0  0
  -23.6446  -16.0678  144.2141 N   0  0  0  0  0  0  0  0  0  0  0  0
  -25.1743  -14.2616  145.6419 C   0  0  0  0  0  0  0  0  0  0  0  0
  -25.3119  -13.3836  146.2478 C   0  0  0  0  0  0  0  0  0  0  0  0
  -25.3938  -11.9309  145.8152 C   0  0  0  0  0  0  0  0  0  0  0  0
  -26.1135  -11.5388  144.8545 C   0  0  0  0  0  0  0  0  0  0  0  0
  -26.2583  -12.7267  143.9222 C   0  0  0  0  0  0  0  0  0  0  0  0
  -25.8169  -14.0626  144.2988 C   0  0  0  0  0  0  0  0  0  0  0  0
  -26.4658  -10.2548  144.4216 C   0  0  0  0  0  0  0  0  0  0  0  0
  -27.5737  -10.0199  144.9110 F   0  0  0  0  0  0  0  0  0  0  0  0
  -26.0225   -9.6436  143.4996 F   0  0  0  0  0  0  0  0  0  0  0  0
  -26.7993  -12.5817  142.7427 O   0  0  0  0  0  0  0  0  0  0  0  0
  -26.7971  -13.5254  141.8203 C   0  0  0  0  0  0  0  0  0  0  0  0
  -27.1926  -12.8154  140.5061 C   0  0  0  0  0  0  0  0  0  0  0  0
  -28.4614  -12.1231  140.5467 C   0  0  0  0  0  0  0  0  0  0  0  0
  -28.2338  -10.7298  139.9381 C   0  0  0  0  0  0  0  0  0  0  0  0
  -27.4766  -10.4865  138.9077 C   0  0  0  0  0  0  0  0  0  0  0  0
  -27.4960   -9.1365  138.5029 C   0  0  0  0  0  0  0  0  0  0  0  0
  -28.3699   -8.1505  139.1487 C   0  0  0  0  0  0  0  0  0  0  0  0
  2  7  1  0
  3  8  1  0
 11 14  1  0
 14 15  1  0
 14 16  1  0
 12 17  1  0
 17 18  1  0
 18 19  1  0
 19 20  1  0
 20 21  2  3
 21 22  1  0
 22 23  2  3
 23 24  1  0
  1  2  2  0
  2  3  1  0
  3  4  2  0
  4  6  1  0
  6  5  2  0
  5  1  1  0
  8  9  2  0
  9 10  1  0
 10 11  2  0
 11 12  1  0
 12 13  2  0
 13  8  1  0
M  END

$$$$
No_1954-/dssg/home/sw_qyf/PocketFlow/Model-Generation-Results/5HT2A_7WC7_rec_A_10.pdb/2024-01-01-03-54-21/
     RDKit          3D

  9  9  0  0  0  0  0  0  0  0999 V2000
  -24.1553  -17.8465  145.7021 C   0  0  0  0  0  0  0  0  0  0  0  0
  -23.9795  -18.4462  146.7426 C   0  0  0  0  0  0  0  0  0  0  0  0
  -24.2723  -16.4220  145.8037 C   0  0  0  0  0  0  0  0  0  0  0  0
  -24.0151  -15.5895  144.6874 C   0  0  0  0  0  0  0  0  0  0  0  0
  -24.0834  -17.9646  148.0883 C   0  0  0  0  0  0  0  0  0  0  0  0
  -24.2949  -16.5690  148.2409 C   0  0  0  0  0  0  0  0  0  0  0  0
  -24.3289  -15.7594  147.1024 C   0  0  0  0  0  0  0  0  0  0  0  0
  -23.8413  -16.1431  143.8259 F   0  0  0  0  0  0  0  0  0  0  0  0
  -22.9741  -14.6539  144.9617 F   0  0  0  0  0  0  0  0  0  0  0  0
  1  2  1  0
  1  3  1  0
  3  4  2  3
  2  5  1  0
  5  6  1  0
  3  7  1  0
  6  7  3  0
  4  8  1  0
  4  9  1  0
M  END

$$$$
No_1955-/dssg/home/sw_qyf/PocketFlow/Model-Generation-Results/5HT2A_7WC7_rec_A_10.pdb/2024-01-01-03-54-21/
     RDKit          3D

 33 35  0  0  0  0  0  0  0  0999 V2000
  -23.1746  -16.6014  144.8668 C   0  0  0  0  0  0  0  0  0  0  0  0
  -23.7011  -17.0158  145.9774 C   0  0  0  0  0  0  0  0  0  0  0  0
  -23.7336  -18.2775  146.3737 C   0  0  0  0  0  0  0  0  0  0  0  0
  -23.2769  -15.1496  144.5841 C   0  0  0  0  0  0  0  0  0  0  0  0
  -24.0283  -14.2099  145.3704 C   0  0  0  0  0  0  0  0  0  0  0  0
  -24.0856  -12.8276  145.0210 C   0  0  0  0  0  0  0  0  0  0  0  0
  -24.6348  -14.6565  146.6294 C   0  0  0  0  0  0  0  0  0  0  0  0
  -24.4985  -16.0604  146.9501 C   0  0  0  0  0  0  0  0  0  0  0  0
  -22.8914  -12.1322  145.1510 C   0  0  0  0  0  0  0  0  0  0  0  0
  -25.2055  -12.1104  145.8180 C   0  0  0  0  0  0  0  0  0  0  0  0
  -26.4515  -11.7691  145.1900 C   0  0  0  0  0  0  0  0  0  0  0  0
  -27.1741  -12.7052  144.7361 C   0  0  0  0  0  0  0  0  0  0  0  0
  -28.1076  -12.3920  143.6860 C   0  0  0  0  0  0  0  0  0  0  0  0
  -27.8315  -11.1634  143.1142 C   0  0  0  0  0  0  0  0  0  0  0  0
  -28.7355  -10.8223  142.0105 C   0  0  0  0  0  0  0  0  0  0  0  0
  -29.6009  -10.1987  141.9670 C   0  0  0  0  0  0  0  0  0  0  0  0
  -26.6652  -10.5177  144.4521 C   0  0  0  0  0  0  0  0  0  0  0  0
  -28.0025  -11.1477  140.6684 C   0  0  0  0  0  0  0  0  0  0  0  0
  -27.7625  -12.4966  140.4056 C   0  0  0  0  0  0  0  0  0  0  0  0
  -27.0815  -12.7746  139.2175 C   0  0  0  0  0  0  0  0  0  0  0  0
  -29.9289   -8.9252  141.2453 C   0  0  0  0  0  0  0  0  0  0  0  0
  -29.1273   -8.6741  140.1373 C   0  0  0  0  0  0  0  0  0  0  0  0
  -29.1765   -7.5806  139.2557 C   0  0  0  0  0  0  0  0  0  0  0  0
  -28.1472  -10.0953  139.6606 C   0  0  0  0  0  0  0  0  0  0  0  0
  -22.8974  -19.0082  146.4917 O   0  0  0  0  0  0  0  0  0  0  0  0
  -24.9263  -18.7479  147.0632 N   0  0  0  0  0  0  0  0  0  0  0  0
  -25.5512  -12.8443  139.3521 C   0  0  0  0  0  0  0  0  0  0  0  0
  -25.1416  -13.0726  140.4724 O   0  0  0  0  0  0  0  0  0  0  0  0
  -24.9161  -12.9448  138.2722 O   0  0  0  0  0  0  0  0  0  0  0  0
  -28.6237   -7.6777  138.1668 O   0  0  0  0  0  0  0  0  0  0  0  0
  -29.6701   -6.5522  139.7806 O   0  0  0  0  0  0  0  0  0  0  0  0
  -30.6155  -10.2155  143.0594 O   0  0  0  0  0  0  0  0  0  0  0  0
  -30.4325   -9.3738  144.1338 C   0  0  0  0  0  0  0  0  0  0  0  0
  2  3  1  0
  5  6  1  0
  6  9  1  0
  6 10  1  0
 10 11  1  0
 11 12  1  0
 12 13  2  0
 13 14  1  0
 14 15  1  0
 11 17  1  0
 14 17  1  0
 18 19  1  0
 19 20  2  3
 22 23  1  0
  3 25  2  0
  3 26  1  0
 20 27  1  0
 27 28  1  0
 27 29  2  0
 23 30  1  0
 23 31  2  0
 16 32  1  0
 32 33  1  0
 15 16  2  0
 16 21  1  0
 21 22  2  0
 22 24  1  0
 24 18  2  0
 18 15  1  0
  1  2  2  0
  2  8  1  0
  8  7  2  0
  7  5  1  0
  5  4  2  0
  4  1  1  0
M  END

$$$$
No_1956-/dssg/home/sw_qyf/PocketFlow/Model-Generation-Results/5HT2A_7WC7_rec_A_10.pdb/2024-01-01-03-54-21/
     RDKit          3D

 25 28  0  0  0  0  0  0  0  0999 V2000
  -24.1553  -17.8465  145.7021 C   0  0  0  0  0  0  0  0  0  0  0  0
  -24.2856  -16.6364  145.3494 C   0  0  0  0  0  0  0  0  0  0  0  0
  -24.7837  -15.7223  145.8474 C   0  0  0  0  0  0  0  0  0  0  0  0
  -24.8735  -14.2869  145.3929 C   0  0  0  0  0  0  0  0  0  0  0  0
  -23.9241  -14.0298  144.3752 C   0  0  0  0  0  0  0  0  0  0  0  0
  -24.8182  -18.2201  146.9016 C   0  0  0  0  0  0  0  0  0  0  0  0
  -25.5285  -17.3057  147.6155 C   0  0  0  0  0  0  0  0  0  0  0  0
  -25.5602  -15.9626  147.1563 C   0  0  0  0  0  0  0  0  0  0  0  0
  -25.6719  -13.2716  146.0024 C   0  0  0  0  0  0  0  0  0  0  0  0
  -25.5995  -11.9953  145.7469 C   0  0  0  0  0  0  0  0  0  0  0  0
  -26.7225  -11.1179  145.9302 C   0  0  0  0  0  0  0  0  0  0  0  0
  -27.9775  -11.6985  146.1312 C   0  0  0  0  0  0  0  0  0  0  0  0
  -28.0753  -13.0598  146.5929 C   0  0  0  0  0  0  0  0  0  0  0  0
  -27.0684  -13.8295  146.3418 C   0  0  0  0  0  0  0  0  0  0  0  0
  -29.3301  -13.4542  146.9224 N   0  0  0  0  0  0  0  0  0  0  0  0
  -29.7684  -13.7691  148.2670 C   0  0  0  0  0  0  0  0  0  0  0  0
  -23.0012  -13.1144  144.7462 O   0  0  0  0  0  0  0  0  0  0  0  0
  -30.7972  -13.1152  148.7737 C   0  0  0  0  0  0  0  0  0  0  0  0
  -31.0570  -11.7493  148.5116 C   0  0  0  0  0  0  0  0  0  0  0  0
  -32.2026  -11.2336  149.0417 N   0  0  0  0  0  0  0  0  0  0  0  0
  -32.9878  -12.0166  149.7863 C   0  0  0  0  0  0  0  0  0  0  0  0
  -31.8971  -13.5350  149.6824 C   0  0  0  0  0  0  0  0  0  0  0  0
  -29.1180  -14.6527  148.8932 O   0  0  0  0  0  0  0  0  0  0  0  0
  -23.6875  -16.2950  144.0600 O   0  0  0  0  0  0  0  0  0  0  0  0
  -23.2791  -15.0189  143.9277 C   0  0  0  0  0  0  0  0  0  0  0  0
  3  4  1  0
  4  5  1  0
  4  9  1  0
 13 15  1  0
 15 16  1  0
  5 17  1  0
 16 18  1  0
 18 19  2  0
 19 20  1  0
 20 21  2  0
 18 22  1  0
 21 22  1  0
 16 23  2  0
  2 24  1  0
  5 25  1  0
 24 25  1  0
  1  2  2  0
  2  3  1  0
  3  8  2  0
  8  7  1  0
  7  6  2  0
  6  1  1  0
  9 10  2  0
 10 11  1  0
 11 12  2  0
 12 13  1  0
 13 14  2  0
 14  9  1  0
M  END

$$$$
No_1957-/dssg/home/sw_qyf/PocketFlow/Model-Generation-Results/5HT2A_7WC7_rec_A_10.pdb/2024-01-01-03-54-21/
     RDKit          3D

 35 38  0  0  0  0  0  0  0  0999 V2000
  -23.1746  -16.6014  144.8668 C   0  0  0  0  0  0  0  0  0  0  0  0
  -23.7011  -17.0158  145.9774 C   0  0  0  0  0  0  0  0  0  0  0  0
  -24.2134  -16.0722  146.8877 C   0  0  0  0  0  0  0  0  0  0  0  0
  -25.2064  -15.3422  146.4171 C   0  0  0  0  0  0  0  0  0  0  0  0
  -24.7890  -14.4834  145.3416 C   0  0  0  0  0  0  0  0  0  0  0  0
  -23.8927  -15.2280  144.3874 C   0  0  0  0  0  0  0  0  0  0  0  0
  -25.8418  -13.6414  144.6964 C   0  0  0  0  0  0  0  0  0  0  0  0
  -27.1889  -13.6273  145.2004 C   0  0  0  0  0  0  0  0  0  0  0  0
  -28.0015  -12.4803  145.2385 C   0  0  0  0  0  0  0  0  0  0  0  0
  -27.7931  -11.3995  144.4388 C   0  0  0  0  0  0  0  0  0  0  0  0
  -27.8733  -10.1128  144.8419 C   0  0  0  0  0  0  0  0  0  0  0  0
  -28.0463   -9.0760  143.7989 C   0  0  0  0  0  0  0  0  0  0  0  0
  -28.7392   -9.5067  142.5848 C   0  0  0  0  0  0  0  0  0  0  0  0
  -28.1766  -10.6579  142.0139 C   0  0  0  0  0  0  0  0  0  0  0  0
  -28.1372  -11.8166  143.0556 C   0  0  0  0  0  0  0  0  0  0  0  0
  -28.9873   -8.3742  141.5416 C   0  0  0  0  0  0  0  0  0  0  0  0
  -28.6254   -8.3791  140.3124 C   0  0  0  0  0  0  0  0  0  0  0  0
  -29.0905   -7.3972  139.3440 C   0  0  0  0  0  0  0  0  0  0  0  0
  -29.2070  -12.6141  146.1209 C   0  0  0  0  0  0  0  0  0  0  0  0
  -29.3739  -13.6404  147.0563 C   0  0  0  0  0  0  0  0  0  0  0  0
  -30.4246  -13.5341  147.9692 C   0  0  0  0  0  0  0  0  0  0  0  0
  -31.0880  -12.3081  148.1591 C   0  0  0  0  0  0  0  0  0  0  0  0
  -30.9029  -11.2932  147.1993 C   0  0  0  0  0  0  0  0  0  0  0  0
  -29.8322  -11.3270  146.3793 C   0  0  0  0  0  0  0  0  0  0  0  0
  -23.4481  -18.4039  146.4399 C   0  0  0  0  0  0  0  0  0  0  0  0
  -24.2907  -19.1047  146.6597 O   0  0  0  0  0  0  0  0  0  0  0  0
  -22.2589  -18.6066  147.0412 O   0  0  0  0  0  0  0  0  0  0  0  0
  -30.1534   -7.3866  141.9754 C   0  0  0  0  0  0  0  0  0  0  0  0
  -30.9284   -7.8618  143.0691 C   0  0  0  0  0  0  0  0  0  0  0  0
  -27.7206   -9.3487  139.7266 C   0  0  0  0  0  0  0  0  0  0  0  0
  -27.5241  -10.4740  140.6760 C   0  0  0  0  0  0  0  0  0  0  0  0
  -32.2266  -12.1344  149.0617 C   0  0  0  0  0  0  0  0  0  0  0  0
  -32.0415  -11.6747  150.1610 O   0  0  0  0  0  0  0  0  0  0  0  0
  -33.3777  -12.5956  148.7478 O   0  0  0  0  0  0  0  0  0  0  0  0
  -26.7825  -11.6971  140.1720 C   0  0  0  0  0  0  0  0  0  0  0  0
  1  2  1  0
  2  3  1  0
  3  4  1  0
  4  5  1  0
  1  6  1  0
  5  6  1  0
  5  7  1  0
  7  8  1  0
  8  9  1  0
  9 10  1  0
 10 11  1  0
 11 12  1  0
 12 13  1  0
 10 15  1  0
 14 15  1  0
 17 18  1  0
  9 19  1  0
  2 25  1  0
 25 26  2  0
 25 27  1  0
 16 28  1  0
 28 29  1  0
 22 32  1  0
 32 33  2  0
 32 34  1  0
 31 35  1  0
 13 14  2  0
 14 31  1  0
 31 30  2  0
 30 17  1  0
 17 16  2  0
 16 13  1  0
 19 20  2  0
 20 21  1  0
 21 22  2  0
 22 23  1  0
 23 24  2  0
 24 19  1  0
M  END

$$$$
No_1958-/dssg/home/sw_qyf/PocketFlow/Model-Generation-Results/5HT2A_7WC7_rec_A_10.pdb/2024-01-01-03-54-21/
     RDKit          3D

 22 23  0  0  0  0  0  0  0  0999 V2000
  -24.1553  -17.8465  145.7021 C   0  0  0  0  0  0  0  0  0  0  0  0
  -24.6364  -17.2931  146.7091 C   0  0  0  0  0  0  0  0  0  0  0  0
  -24.0780  -17.2921  147.9389 C   0  0  0  0  0  0  0  0  0  0  0  0
  -24.6761  -16.7363  149.1478 C   0  0  0  0  0  0  0  0  0  0  0  0
  -25.9460  -16.2771  148.9169 N   0  0  0  0  0  0  0  0  0  0  0  0
  -26.5624  -16.2643  147.7963 C   0  0  0  0  0  0  0  0  0  0  0  0
  -27.8756  -15.7193  147.6329 C   0  0  0  0  0  0  0  0  0  0  0  0
  -25.9843  -16.7850  146.6859 C   0  0  0  0  0  0  0  0  0  0  0  0
  -29.0489  -16.0854  148.3146 C   0  0  0  0  0  0  0  0  0  0  0  0
  -28.0497  -14.5042  146.8556 C   0  0  0  0  0  0  0  0  0  0  0  0
  -29.2309  -13.7883  146.8916 C   0  0  0  0  0  0  0  0  0  0  0  0
  -30.3426  -14.2260  147.6294 C   0  0  0  0  0  0  0  0  0  0  0  0
  -30.2084  -15.3552  148.3659 C   0  0  0  0  0  0  0  0  0  0  0  0
  -23.5022  -19.1030  145.6691 C   0  0  0  0  0  0  0  0  0  0  0  0
  -29.3127  -12.5385  146.0488 C   0  0  0  0  0  0  0  0  0  0  0  0
  -30.5209  -11.4506  146.2704 Cl  0  0  0  0  0  0  0  0  0  0  0  0
  -28.3052  -12.1897  145.0793 C   0  0  0  0  0  0  0  0  0  0  0  0
  -26.9831  -12.5031  145.1825 C   0  0  0  0  0  0  0  0  0  0  0  0
  -26.1466  -12.0020  144.4951 C   0  0  0  0  0  0  0  0  0  0  0  0
  -24.7951  -12.3196  144.8113 N   0  0  0  0  0  0  0  0  0  0  0  0
  -24.2263  -13.2897  145.0409 C   0  0  0  0  0  0  0  0  0  0  0  0
  -24.0478  -14.3068  144.2447 C   0  0  0  0  0  0  0  0  0  0  0  0
  1  2  1  0
  6  7  1  0
  1 14  1  0
 11 15  1  0
 15 16  1  0
 15 17  1  0
 17 18  2  3
 18 19  1  0
 19 20  1  0
 20 21  1  0
 21 22  1  0
  2  3  2  0
  3  4  1  0
  4  5  2  0
  5  6  1  0
  6  8  2  0
  8  2  1  0
  7  9  2  0
  9 13  1  0
 13 12  2  0
 12 11  1  0
 11 10  2  0
 10  7  1  0
M  END

$$$$
No_1959-/dssg/home/sw_qyf/PocketFlow/Model-Generation-Results/5HT2A_7WC7_rec_A_10.pdb/2024-01-01-03-54-21/
     RDKit          3D

 27 28  0  0  0  0  0  0  0  0999 V2000
  -24.1553  -17.8465  145.7021 C   0  0  0  0  0  0  0  0  0  0  0  0
  -24.2855  -16.6364  145.3494 C   0  0  0  0  0  0  0  0  0  0  0  0
  -24.7838  -15.7223  145.8474 C   0  0  0  0  0  0  0  0  0  0  0  0
  -24.8736  -14.2869  145.3929 C   0  0  0  0  0  0  0  0  0  0  0  0
  -25.5953  -13.2445  145.9611 C   0  0  0  0  0  0  0  0  0  0  0  0
  -25.3343  -11.9118  145.7311 C   0  0  0  0  0  0  0  0  0  0  0  0
  -24.8472  -18.2482  146.8599 C   0  0  0  0  0  0  0  0  0  0  0  0
  -25.5247  -17.3090  147.5913 C   0  0  0  0  0  0  0  0  0  0  0  0
  -25.5620  -15.9722  147.1078 C   0  0  0  0  0  0  0  0  0  0  0  0
  -24.0855  -13.8578  144.2568 C   0  0  0  0  0  0  0  0  0  0  0  0
  -26.5393  -11.0645  145.5260 C   0  0  0  0  0  0  0  0  0  0  0  0
  -27.1673  -11.1224  144.3332 C   0  0  0  0  0  0  0  0  0  0  0  0
  -28.0887  -10.0772  144.0377 C   0  0  0  0  0  0  0  0  0  0  0  0
  -29.4807  -10.2797  144.2498 C   0  0  0  0  0  0  0  0  0  0  0  0
  -30.2957   -9.6278  143.3486 C   0  0  0  0  0  0  0  0  0  0  0  0
  -29.7392   -8.9098  142.3463 C   0  0  0  0  0  0  0  0  0  0  0  0
  -30.2216   -7.5587  142.1059 C   0  0  0  0  0  0  0  0  0  0  0  0
  -29.6792   -6.9053  140.9318 C   0  0  0  0  0  0  0  0  0  0  0  0
  -29.1191   -7.8581  139.9543 C   0  0  0  0  0  0  0  0  0  0  0  0
  -28.6696   -9.0881  140.2956 C   0  0  0  0  0  0  0  0  0  0  0  0
  -29.0889   -9.6738  141.4065 C   0  0  0  0  0  0  0  0  0  0  0  0
  -27.8930   -9.8137  139.2479 C   0  0  0  0  0  0  0  0  0  0  0  0
  -27.8473   -9.5543  138.1194 O   0  0  0  0  0  0  0  0  0  0  0  0
  -26.8841  -10.6916  139.7446 N   0  0  0  0  0  0  0  0  0  0  0  0
  -29.7741  -10.9399  145.3651 O   0  0  0  0  0  0  0  0  0  0  0  0
  -22.9416  -13.2402  144.6154 O   0  0  0  0  0  0  0  0  0  0  0  0
  -26.7912  -11.9509  139.2962 C   0  0  0  0  0  0  0  0  0  0  0  0
  3  4  1  0
  4  5  1  0
  5  6  1  0
  4 10  1  0
  6 11  1  0
 11 12  1  0
 12 13  1  0
 13 14  1  0
 14 15  1  0
 15 16  1  0
 20 22  1  0
 22 23  2  0
 22 24  1  0
 14 25  2  0
 10 26  1  0
 24 27  1  0
  1  2  2  0
  2  3  1  0
  3  9  2  0
  9  8  1  0
  8  7  2  0
  7  1  1  0
 16 17  2  0
 17 18  1  0
 18 19  2  0
 19 20  1  0
 20 21  2  0
 21 16  1  0
M  END

$$$$
No_1960-/dssg/home/sw_qyf/PocketFlow/Model-Generation-Results/5HT2A_7WC7_rec_A_10.pdb/2024-01-01-03-54-21/
     RDKit          3D

 26 26  0  0  0  0  0  0  0  0999 V2000
  -24.1553  -17.8465  145.7021 C   0  0  0  0  0  0  0  0  0  0  0  0
  -23.9795  -18.4462  146.7426 C   0  0  0  0  0  0  0  0  0  0  0  0
  -23.2486  -17.2339  144.9771 C   0  0  0  0  0  0  0  0  0  0  0  0
  -22.6834  -18.2906  147.4267 C   0  0  0  0  0  0  0  0  0  0  0  0
  -21.7969  -17.9601  146.6548 F   0  0  0  0  0  0  0  0  0  0  0  0
  -23.1198  -15.9947  144.5872 C   0  0  0  0  0  0  0  0  0  0  0  0
  -23.9351  -14.8670  145.1010 C   0  0  0  0  0  0  0  0  0  0  0  0
  -23.6849  -13.5191  144.6803 C   0  0  0  0  0  0  0  0  0  0  0  0
  -24.3194  -12.4585  145.4296 C   0  0  0  0  0  0  0  0  0  0  0  0
  -25.4942  -12.7075  146.1878 C   0  0  0  0  0  0  0  0  0  0  0  0
  -26.1645  -11.6164  146.7841 C   0  0  0  0  0  0  0  0  0  0  0  0
  -24.9467  -15.0550  146.1327 C   0  0  0  0  0  0  0  0  0  0  0  0
  -25.6293  -13.9447  146.6901 C   0  0  0  0  0  0  0  0  0  0  0  0
  -25.6117  -10.5432  146.7889 F   0  0  0  0  0  0  0  0  0  0  0  0
  -26.8420  -11.8430  147.8650 F   0  0  0  0  0  0  0  0  0  0  0  0
  -27.1805  -11.4149  145.7303 F   0  0  0  0  0  0  0  0  0  0  0  0
  -22.3983  -19.3485  148.0957 F   0  0  0  0  0  0  0  0  0  0  0  0
  -22.8512  -17.3363  148.4322 F   0  0  0  0  0  0  0  0  0  0  0  0
  -22.7179  -13.2648  143.9104 O   0  0  0  0  0  0  0  0  0  0  0  0
  -24.4803  -20.0804  146.7868 Br  0  0  0  0  0  0  0  0  0  0  0  0
  -25.0221  -17.7813  147.7381 O   0  0  0  0  0  0  0  0  0  0  0  0
  -24.6658  -16.6495  148.1415 C   0  0  0  0  0  0  0  0  0  0  0  0
  -25.0210  -16.3584  149.5589 C   0  0  0  0  0  0  0  0  0  0  0  0
  -24.2723  -15.7736  147.6570 O   0  0  0  0  0  0  0  0  0  0  0  0
  -24.1762  -14.4682  148.3871 C   0  0  0  0  0  0  0  0  0  0  0  0
  -26.0020  -15.9587  145.4520 C   0  0  0  0  0  0  0  0  0  0  0  0
  1  2  1  0
  1  3  2  3
  2  4  1  0
  4  5  1  0
  3  6  1  0
 10 11  1  0
 11 14  1  0
 11 15  1  0
 11 16  1  0
  4 17  1  0
  4 18  1  0
  8 19  1  0
  2 20  1  0
  2 21  1  0
 21 22  1  0
 22 23  1  0
 22 24  1  0
 24 25  1  0
 12 26  1  0
  6  7  1  0
  7  8  2  0
  8  9  1  0
  9 10  2  0
 10 13  1  0
 13 12  2  0
 12  7  1  0
M  END

$$$$
No_1961-/dssg/home/sw_qyf/PocketFlow/Model-Generation-Results/5HT2A_7WC7_rec_A_10.pdb/2024-01-01-03-54-21/
     RDKit          3D

 31 33  0  0  0  0  0  0  0  0999 V2000
  -24.1553  -17.8465  145.7021 C   0  0  0  0  0  0  0  0  0  0  0  0
  -23.9795  -18.4462  146.7426 C   0  0  0  0  0  0  0  0  0  0  0  0
  -25.1196  -16.8105  145.6408 C   0  0  0  0  0  0  0  0  0  0  0  0
  -25.2439  -15.8776  144.5240 C   0  0  0  0  0  0  0  0  0  0  0  0
  -24.0641  -15.4170  143.9520 C   0  0  0  0  0  0  0  0  0  0  0  0
  -24.0516  -13.9517  143.6676 C   0  0  0  0  0  0  0  0  0  0  0  0
  -24.0182  -13.1870  144.9795 C   0  0  0  0  0  0  0  0  0  0  0  0
  -25.2339  -12.8828  145.5909 C   0  0  0  0  0  0  0  0  0  0  0  0
  -25.4738  -11.5343  145.9239 C   0  0  0  0  0  0  0  0  0  0  0  0
  -24.5859  -18.1454  147.9942 C   0  0  0  0  0  0  0  0  0  0  0  0
  -25.0155  -16.8328  148.0295 C   0  0  0  0  0  0  0  0  0  0  0  0
  -25.4555  -16.1215  146.8851 C   0  0  0  0  0  0  0  0  0  0  0  0
  -26.5366  -10.9729  145.0743 C   0  0  0  0  0  0  0  0  0  0  0  0
  -26.2496   -9.9900  144.1796 C   0  0  0  0  0  0  0  0  0  0  0  0
  -27.9314  -11.2987  145.2704 C   0  0  0  0  0  0  0  0  0  0  0  0
  -28.4279  -12.1675  146.2611 C   0  0  0  0  0  0  0  0  0  0  0  0
  -29.7468  -12.2173  146.6120 C   0  0  0  0  0  0  0  0  0  0  0  0
  -30.1543  -12.9581  147.7726 C   0  0  0  0  0  0  0  0  0  0  0  0
  -29.4414  -14.1722  148.0398 C   0  0  0  0  0  0  0  0  0  0  0  0
  -28.1537  -14.3451  147.4337 C   0  0  0  0  0  0  0  0  0  0  0  0
  -27.6156  -13.3524  146.5532 C   0  0  0  0  0  0  0  0  0  0  0  0
  -28.8522  -10.6294  144.4196 C   0  0  0  0  0  0  0  0  0  0  0  0
  -29.0566  -10.4851  143.4040 C   0  0  0  0  0  0  0  0  0  0  0  0
  -30.1229   -9.6731  142.8128 C   0  0  0  0  0  0  0  0  0  0  0  0
  -30.2218   -9.3790  141.4523 C   0  0  0  0  0  0  0  0  0  0  0  0
  -29.0294   -9.5380  140.6650 C   0  0  0  0  0  0  0  0  0  0  0  0
  -28.8994   -9.0380  139.3665 C   0  0  0  0  0  0  0  0  0  0  0  0
  -27.9020   -9.4391  138.5015 C   0  0  0  0  0  0  0  0  0  0  0  0
  -26.9817  -10.3810  139.0970 C   0  0  0  0  0  0  0  0  0  0  0  0
  -27.2465  -11.0770  140.3512 C   0  0  0  0  0  0  0  0  0  0  0  0
  -28.2309  -10.6295  141.1326 C   0  0  0  0  0  0  0  0  0  0  0  0
  3  4  1  0
  4  5  1  0
  5  6  1  0
  6  7  1  0
  7  8  1  0
  8  9  2  3
  9 13  1  0
 13 14  2  0
 13 15  1  0
 15 16  1  0
 15 22  1  0
 22 23  3  0
 23 24  1  0
 24 25  2  3
 25 26  1  0
 26 27  2  0
 27 28  1  0
 28 29  2  0
 29 30  1  0
 30 31  2  0
 31 26  1  0
  1  2  2  0
  2 10  1  0
 10 11  2  0
 11 12  1  0
 12  3  2  0
  3  1  1  0
 16 17  2  0
 17 18  1  0
 18 19  2  0
 19 20  1  0
 20 21  2  0
 21 16  1  0
M  END

$$$$
No_1962-/dssg/home/sw_qyf/PocketFlow/Model-Generation-Results/5HT2A_7WC7_rec_A_10.pdb/2024-01-01-03-54-21/
     RDKit          3D

 27 29  0  0  0  0  0  0  0  0999 V2000
  -23.1746  -16.6014  144.8668 C   0  0  0  0  0  0  0  0  0  0  0  0
  -23.7011  -17.0158  145.9774 C   0  0  0  0  0  0  0  0  0  0  0  0
  -24.2134  -16.0722  146.8877 C   0  0  0  0  0  0  0  0  0  0  0  0
  -25.2064  -15.3422  146.4171 C   0  0  0  0  0  0  0  0  0  0  0  0
  -25.4255  -14.3487  146.5050 C   0  0  0  0  0  0  0  0  0  0  0  0
  -26.4240  -13.5726  145.8025 C   0  0  0  0  0  0  0  0  0  0  0  0
  -26.9174  -12.2741  146.1306 C   0  0  0  0  0  0  0  0  0  0  0  0
  -28.0392  -11.7372  145.5019 C   0  0  0  0  0  0  0  0  0  0  0  0
  -28.3146  -10.5864  145.0295 C   0  0  0  0  0  0  0  0  0  0  0  0
  -29.6506  -10.2040  144.5440 C   0  0  0  0  0  0  0  0  0  0  0  0
  -23.9359  -15.6907  144.1462 N   0  0  0  0  0  0  0  0  0  0  0  0
  -24.8680  -15.0727  145.0391 C   0  0  0  0  0  0  0  0  0  0  0  0
  -25.7960  -13.9776  144.6073 C   0  0  0  0  0  0  0  0  0  0  0  0
  -29.9022   -8.9142  144.1969 C   0  0  0  0  0  0  0  0  0  0  0  0
  -30.2353   -8.7995  142.8017 C   0  0  0  0  0  0  0  0  0  0  0  0
  -29.8718   -7.6373  142.0664 C   0  0  0  0  0  0  0  0  0  0  0  0
  -29.4349   -7.7176  140.8165 C   0  0  0  0  0  0  0  0  0  0  0  0
  -28.5190   -8.6745  140.3496 C   0  0  0  0  0  0  0  0  0  0  0  0
  -28.1231   -9.7502  141.1264 C   0  0  0  0  0  0  0  0  0  0  0  0
  -28.0135   -8.6141  138.9774 C   0  0  0  0  0  0  0  0  0  0  0  0
  -27.3024  -10.7574  140.6263 C   0  0  0  0  0  0  0  0  0  0  0  0
  -26.8631  -10.6933  139.3171 C   0  0  0  0  0  0  0  0  0  0  0  0
  -27.2334   -9.6216  138.5621 C   0  0  0  0  0  0  0  0  0  0  0  0
  -26.0937  -13.6338  143.2821 C   0  0  0  0  0  0  0  0  0  0  0  0
  -26.0832  -11.6915  138.9129 O   0  0  0  0  0  0  0  0  0  0  0  0
  -23.2638  -18.3814  146.5447 C   0  0  0  0  0  0  0  0  0  0  0  0
  -23.0115  -18.4626  147.7062 O   0  0  0  0  0  0  0  0  0  0  0  0
  1  2  1  0
  2  3  1  0
  3  4  1  0
  4  5  2  0
  5  6  1  0
  6  7  1  0
  7  8  1  0
  8  9  2  3
  9 10  1  0
  1 11  1  0
  4 12  1  0
 11 12  1  0
  6 13  1  0
 12 13  1  0
 10 14  1  0
 14 15  1  0
 15 16  1  0
 16 17  1  0
 13 24  1  0
 22 25  1  0
  2 26  1  0
 26 27  2  0
 17 18  1  0
 18 19  2  0
 19 21  1  0
 21 22  2  0
 22 23  1  0
 23 20  2  0
 20 18  1  0
M  END

$$$$
No_1963-/dssg/home/sw_qyf/PocketFlow/Model-Generation-Results/5HT2A_7WC7_rec_A_10.pdb/2024-01-01-03-54-21/
     RDKit          3D

 25 26  0  0  0  0  0  0  0  0999 V2000
  -23.1746  -16.6014  144.8668 C   0  0  0  0  0  0  0  0  0  0  0  0
  -23.8963  -15.5346  144.7885 C   0  0  0  0  0  0  0  0  0  0  0  0
  -24.5755  -15.0383  145.9043 C   0  0  0  0  0  0  0  0  0  0  0  0
  -25.0618  -13.6819  146.0347 C   0  0  0  0  0  0  0  0  0  0  0  0
  -24.0242  -12.8249  145.9593 C   0  0  0  0  0  0  0  0  0  0  0  0
  -23.5540  -17.4786  146.0177 C   0  0  0  0  0  0  0  0  0  0  0  0
  -24.1832  -17.0250  147.1755 C   0  0  0  0  0  0  0  0  0  0  0  0
  -24.7177  -15.7646  147.1546 C   0  0  0  0  0  0  0  0  0  0  0  0
  -26.1068  -13.2837  145.0019 C   0  0  0  0  0  0  0  0  0  0  0  0
  -27.4451  -12.8553  145.5350 C   0  0  0  0  0  0  0  0  0  0  0  0
  -28.0868  -13.3883  146.6422 C   0  0  0  0  0  0  0  0  0  0  0  0
  -29.2387  -12.7380  147.1775 C   0  0  0  0  0  0  0  0  0  0  0  0
  -29.7340  -11.5168  146.5290 C   0  0  0  0  0  0  0  0  0  0  0  0
  -29.0346  -11.0083  145.3895 C   0  0  0  0  0  0  0  0  0  0  0  0
  -27.8917  -11.6420  144.9433 C   0  0  0  0  0  0  0  0  0  0  0  0
  -29.6908   -9.8523  144.7448 C   0  0  0  0  0  0  0  0  0  0  0  0
  -29.0656   -9.3297  143.6477 C   0  0  0  0  0  0  0  0  0  0  0  0
  -29.5753   -8.2088  143.0443 C   0  0  0  0  0  0  0  0  0  0  0  0
  -30.2084   -8.2569  141.8496 C   0  0  0  0  0  0  0  0  0  0  0  0
  -31.5113   -7.8860  141.6500 C   0  0  0  0  0  0  0  0  0  0  0  0
  -29.8386  -13.2469  148.2167 F   0  0  0  0  0  0  0  0  0  0  0  0
  -29.3903   -8.5577  140.6853 C   0  0  0  0  0  0  0  0  0  0  0  0
  -29.3126   -7.7240  139.5454 C   0  0  0  0  0  0  0  0  0  0  0  0
  -28.5223   -8.0646  138.4684 C   0  0  0  0  0  0  0  0  0  0  0  0
  -27.8533   -9.3143  138.5965 C   0  0  0  0  0  0  0  0  0  0  0  0
  3  4  1  0
  4  5  1  0
  4  9  1  0
  9 10  1  0
 14 16  1  0
 16 17  1  0
 17 18  1  0
 18 19  1  0
 19 20  1  0
 12 21  1  0
 19 22  1  0
 22 23  1  0
 23 24  2  3
 24 25  1  0
  1  2  2  0
  2  3  1  0
  3  8  2  0
  8  7  1  0
  7  6  2  0
  6  1  1  0
 10 11  2  0
 11 12  1  0
 12 13  2  0
 13 14  1  0
 14 15  2  0
 15 10  1  0
M  END

$$$$
No_1964-/dssg/home/sw_qyf/PocketFlow/Model-Generation-Results/5HT2A_7WC7_rec_A_10.pdb/2024-01-01-03-54-21/
     RDKit          3D

 35 39  0  0  0  0  0  0  0  0999 V2000
  -23.1746  -16.6014  144.8668 C   0  0  0  0  0  0  0  0  0  0  0  0
  -23.8963  -15.5346  144.7885 C   0  0  0  0  0  0  0  0  0  0  0  0
  -23.6398  -14.5115  145.3281 C   0  0  0  0  0  0  0  0  0  0  0  0
  -24.3866  -13.2477  145.3906 C   0  0  0  0  0  0  0  0  0  0  0  0
  -23.7392  -12.0982  145.9891 C   0  0  0  0  0  0  0  0  0  0  0  0
  -23.6016  -17.7406  145.3757 C   0  0  0  0  0  0  0  0  0  0  0  0
  -24.9092  -17.7032  146.1158 C   0  0  0  0  0  0  0  0  0  0  0  0
  -25.8243  -16.6814  145.9313 C   0  0  0  0  0  0  0  0  0  0  0  0
  -25.2626  -15.5069  145.3422 C   0  0  0  0  0  0  0  0  0  0  0  0
  -25.7108  -13.5377  145.3551 C   0  0  0  0  0  0  0  0  0  0  0  0
  -26.1150  -14.5230  145.1951 C   0  0  0  0  0  0  0  0  0  0  0  0
  -27.1122  -16.7556  146.3672 C   0  0  0  0  0  0  0  0  0  0  0  0
  -27.7497  -17.1819  147.2153 C   0  0  0  0  0  0  0  0  0  0  0  0
  -29.0940  -16.7761  147.6949 C   0  0  0  0  0  0  0  0  0  0  0  0
  -29.1615  -15.3617  147.7605 C   0  0  0  0  0  0  0  0  0  0  0  0
  -28.4386  -14.4789  146.8975 C   0  0  0  0  0  0  0  0  0  0  0  0
  -28.6710  -13.1405  146.8810 C   0  0  0  0  0  0  0  0  0  0  0  0
  -28.3660  -12.3314  145.8189 C   0  0  0  0  0  0  0  0  0  0  0  0
  -29.1050  -11.0455  145.6221 C   0  0  0  0  0  0  0  0  0  0  0  0
  -28.9828  -10.2293  144.4807 C   0  0  0  0  0  0  0  0  0  0  0  0
  -29.7850   -9.2103  144.1835 C   0  0  0  0  0  0  0  0  0  0  0  0
  -29.6767   -8.5673  142.9613 C   0  0  0  0  0  0  0  0  0  0  0  0
  -29.2298   -9.1449  141.7987 C   0  0  0  0  0  0  0  0  0  0  0  0
  -28.4259  -10.3536  142.0532 C   0  0  0  0  0  0  0  0  0  0  0  0
  -28.4531  -10.9699  143.3560 C   0  0  0  0  0  0  0  0  0  0  0  0
  -27.9122  -15.5104  145.7294 C   0  0  0  0  0  0  0  0  0  0  0  0
  -27.9905  -10.9559  140.8041 C   0  0  0  0  0  0  0  0  0  0  0  0
  -27.4662  -10.3473  139.8438 C   0  0  0  0  0  0  0  0  0  0  0  0
  -26.8486  -11.0433  138.7841 C   0  0  0  0  0  0  0  0  0  0  0  0
  -27.0848  -12.1620  138.7538 C   0  0  0  0  0  0  0  0  0  0  0  0
  -27.9355  -12.3908  140.4821 C   0  0  0  0  0  0  0  0  0  0  0  0
  -26.4282  -14.6275  143.7088 C   0  0  0  0  0  0  0  0  0  0  0  0
  -30.4551   -7.2297  142.8067 C   0  0  0  0  0  0  0  0  0  0  0  0
  -30.3703   -6.6033  141.7616 O   0  0  0  0  0  0  0  0  0  0  0  0
  -29.6362   -7.1156  140.7372 C   0  0  0  0  0  0  0  0  0  0  0  0
  8 12  1  0
 16 17  1  0
 17 18  2  3
 18 19  1  0
 19 20  1  0
 24 27  1  0
 27 28  2  0
 28 29  1  0
 29 30  2  0
 27 31  1  0
 30 31  1  0
 11 32  1  0
 22 33  1  0
 33 34  1  0
 34 35  1  0
  5  4  1  0
  2  3  1  0
  3  4  2  0
  4 10  1  0
 10 11  2  0
 11  9  1  0
  1  2  2  0
  2  9  1  0
  9  8  2  0
  8  7  1  0
  7  6  2  0
  6  1  1  0
 12 13  2  0
 13 14  1  0
 14 15  2  0
 15 16  1  0
 16 26  2  0
 26 12  1  0
 20 21  2  0
 21 22  1  0
 22 23  2  0
 23 24  1  0
 24 25  2  0
 25 20  1  0
M  END

$$$$
No_1965-/dssg/home/sw_qyf/PocketFlow/Model-Generation-Results/5HT2A_7WC7_rec_A_10.pdb/2024-01-01-03-54-21/
     RDKit          3D

 35 38  0  0  0  0  0  0  0  0999 V2000
  -24.1553  -17.8465  145.7021 C   0  0  0  0  0  0  0  0  0  0  0  0
  -24.2855  -16.6364  145.3494 C   0  0  0  0  0  0  0  0  0  0  0  0
  -25.0033  -15.6772  146.0737 C   0  0  0  0  0  0  0  0  0  0  0  0
  -25.6964  -16.1809  147.2049 C   0  0  0  0  0  0  0  0  0  0  0  0
  -24.8143  -18.3454  146.8324 C   0  0  0  0  0  0  0  0  0  0  0  0
  -26.5200  -15.2269  147.9864 C   0  0  0  0  0  0  0  0  0  0  0  0
  -25.5495  -17.4628  147.5995 C   0  0  0  0  0  0  0  0  0  0  0  0
  -23.5626  -16.0796  144.1098 C   0  0  0  0  0  0  0  0  0  0  0  0
  -24.0341  -15.0477  143.6139 O   0  0  0  0  0  0  0  0  0  0  0  0
  -22.4865  -16.6471  143.8241 O   0  0  0  0  0  0  0  0  0  0  0  0
  -27.8901  -15.7660  148.1441 C   0  0  0  0  0  0  0  0  0  0  0  0
  -28.9550  -14.8713  147.8765 C   0  0  0  0  0  0  0  0  0  0  0  0
  -29.1640  -14.1825  146.7501 C   0  0  0  0  0  0  0  0  0  0  0  0
  -30.1875  -13.0950  146.7145 C   0  0  0  0  0  0  0  0  0  0  0  0
  -30.5556  -12.7083  148.0267 C   0  0  0  0  0  0  0  0  0  0  0  0
  -30.6079  -13.5688  149.1458 C   0  0  0  0  0  0  0  0  0  0  0  0
  -29.6236  -14.5026  149.1615 C   0  0  0  0  0  0  0  0  0  0  0  0
  -31.5637  -11.7008  147.9573 O   0  0  0  0  0  0  0  0  0  0  0  0
  -24.1065  -13.7987  144.3909 C   0  0  0  0  0  0  0  0  0  0  0  0
  -23.9528  -12.6937  144.0865 C   0  0  0  0  0  0  0  0  0  0  0  0
  -23.9654  -11.6112  145.1606 C   0  0  0  0  0  0  0  0  0  0  0  0
  -24.6359  -11.9658  146.4105 C   0  0  0  0  0  0  0  0  0  0  0  0
  -24.8743  -13.2459  146.7161 C   0  0  0  0  0  0  0  0  0  0  0  0
  -24.6603  -14.1138  145.8206 C   0  0  0  0  0  0  0  0  0  0  0  0
  -30.2310  -12.3487  145.6691 O   0  0  0  0  0  0  0  0  0  0  0  0
  -29.0800  -11.4704  145.4534 C   0  0  0  0  0  0  0  0  0  0  0  0
  -28.8518  -11.0927  144.1953 C   0  0  0  0  0  0  0  0  0  0  0  0
  -27.6093  -10.6069  143.7776 C   0  0  0  0  0  0  0  0  0  0  0  0
  -27.3755  -10.4111  142.4489 C   0  0  0  0  0  0  0  0  0  0  0  0
  -28.3416  -10.5343  141.4472 C   0  0  0  0  0  0  0  0  0  0  0  0
  -28.0539  -10.5041  140.1281 C   0  0  0  0  0  0  0  0  0  0  0  0
  -28.3530   -9.8940  139.1964 C   0  0  0  0  0  0  0  0  0  0  0  0
  -28.8024   -8.4728  139.4391 C   0  0  0  0  0  0  0  0  0  0  0  0
  -29.5174   -8.0959  140.5511 C   0  0  0  0  0  0  0  0  0  0  0  0
  -30.0540   -8.7022  141.1576 C   0  0  0  0  0  0  0  0  0  0  0  0
  4  6  1  0
  2  8  1  0
  8  9  1  0
  8 10  2  0
  6 11  1  0
 15 18  1  0
  9 19  1  0
  3 24  1  0
 14 25  1  0
 25 26  1  0
 26 27  1  0
 27 28  2  3
 28 29  1  0
 29 30  2  3
 30 31  1  0
 31 32  2  3
 32 33  1  0
 33 34  2  3
 34 35  1  0
 11 12  1  0
 12 13  2  0
 13 14  1  0
 14 15  2  0
 15 16  1  0
 16 17  2  0
 17 12  1  0
  1  2  2  0
  2  3  1  0
  3  4  2  0
  4  7  1  0
  7  5  2  0
  5  1  1  0
 19 20  2  0
 20 21  1  0
 21 22  2  0
 22 23  1  0
 23 24  2  0
 24 19  1  0
M  END

$$$$
No_1966-/dssg/home/sw_qyf/PocketFlow/Model-Generation-Results/5HT2A_7WC7_rec_A_10.pdb/2024-01-01-03-54-21/
     RDKit          3D

 35 37  0  0  0  0  0  0  0  0999 V2000
  -24.1553  -17.8465  145.7021 C   0  0  0  0  0  0  0  0  0  0  0  0
  -24.2856  -16.6364  145.3494 C   0  0  0  0  0  0  0  0  0  0  0  0
  -24.5733  -15.7651  145.9979 C   0  0  0  0  0  0  0  0  0  0  0  0
  -25.0273  -15.9886  147.3700 C   0  0  0  0  0  0  0  0  0  0  0  0
  -24.4993  -18.2276  147.0208 C   0  0  0  0  0  0  0  0  0  0  0  0
  -24.9010  -17.2232  147.9329 C   0  0  0  0  0  0  0  0  0  0  0  0
  -24.7156  -14.2654  145.5569 C   0  0  0  0  0  0  0  0  0  0  0  0
  -25.6315  -13.4122  146.0508 C   0  0  0  0  0  0  0  0  0  0  0  0
  -25.6351  -12.0503  145.7249 C   0  0  0  0  0  0  0  0  0  0  0  0
  -24.5013  -11.4741  145.1147 C   0  0  0  0  0  0  0  0  0  0  0  0
  -23.4378  -12.3653  144.6950 C   0  0  0  0  0  0  0  0  0  0  0  0
  -23.5369  -13.7549  145.0384 C   0  0  0  0  0  0  0  0  0  0  0  0
  -26.9476  -10.9600  146.2257 P   0  0  0  0  0  0  0  0  0  0  0  0
  -27.7782  -11.1517  145.1742 O   0  0  0  0  0  0  0  0  0  0  0  0
  -26.3520  -10.0197  146.4421 O   0  0  0  0  0  0  0  0  0  0  0  0
  -27.5712  -11.7848  147.4055 O   0  0  0  0  0  0  0  0  0  0  0  0
  -28.8792  -11.2447  144.9136 C   0  0  0  0  0  0  0  0  0  0  0  0
  -29.6493  -10.5002  143.8717 C   0  0  0  0  0  0  0  0  0  0  0  0
  -28.9771   -9.5070  143.4742 O   0  0  0  0  0  0  0  0  0  0  0  0
  -28.7686   -9.2986  142.3089 C   0  0  0  0  0  0  0  0  0  0  0  0
  -29.3890   -8.1092  141.7016 C   0  0  0  0  0  0  0  0  0  0  0  0
  -29.3156   -7.7789  140.3436 C   0  0  0  0  0  0  0  0  0  0  0  0
  -28.6086   -8.5248  139.4645 C   0  0  0  0  0  0  0  0  0  0  0  0
  -27.9272   -9.6746  139.9601 C   0  0  0  0  0  0  0  0  0  0  0  0
  -28.0281  -10.0507  141.3274 C   0  0  0  0  0  0  0  0  0  0  0  0
  -28.2681   -8.2262  138.1260 C   0  0  0  0  0  0  0  0  0  0  0  0
  -30.2524   -7.1782  142.6140 C   0  0  0  0  0  0  0  0  0  0  0  0
  -25.2210  -17.5145  149.3602 C   0  0  0  0  0  0  0  0  0  0  0  0
  -26.3933  -17.7660  149.7961 O   0  0  0  0  0  0  0  0  0  0  0  0
  -24.1733  -17.5304  150.2501 O   0  0  0  0  0  0  0  0  0  0  0  0
  -23.8505  -16.3935  144.0089 O   0  0  0  0  0  0  0  0  0  0  0  0
  -28.9807   -8.8155  137.2036 O   0  0  0  0  0  0  0  0  0  0  0  0
  -30.6994  -10.7870  143.4679 O   0  0  0  0  0  0  0  0  0  0  0  0
  -24.2188  -16.6703  151.2920 C   0  0  0  0  0  0  0  0  0  0  0  0
  -27.1564  -10.4945  139.2147 N   0  0  0  0  0  0  0  0  0  0  0  0
  3  7  1  0
  9 13  1  0
 13 14  1  0
 13 15  2  0
 13 16  1  0
 14 17  1  0
 17 18  1  0
 18 19  1  0
 19 20  1  0
 23 26  1  0
 21 27  1  0
  6 28  1  0
 28 29  2  0
 28 30  1  0
  2 31  1  0
 26 32  1  0
 18 33  2  0
 30 34  1  0
 24 35  1  0
 20 21  2  0
 21 22  1  0
 22 23  2  0
 23 24  1  0
 24 25  2  0
 25 20  1  0
  1  2  2  0
  2  3  1  0
  3  4  2  0
  4  6  1  0
  6  5  2  0
  5  1  1  0
  7  8  2  0
  8  9  1  0
  9 10  2  0
 10 11  1  0
 11 12  2  0
 12  7  1  0
M  END

$$$$
No_1967-/dssg/home/sw_qyf/PocketFlow/Model-Generation-Results/5HT2A_7WC7_rec_A_10.pdb/2024-01-01-03-54-21/
     RDKit          3D

 35 38  0  0  0  0  0  0  0  0999 V2000
  -23.1746  -16.6014  144.8668 C   0  0  0  0  0  0  0  0  0  0  0  0
  -23.8963  -15.5346  144.7885 C   0  0  0  0  0  0  0  0  0  0  0  0
  -25.0304  -15.2549  144.5358 C   0  0  0  0  0  0  0  0  0  0  0  0
  -26.0482  -16.0541  145.3273 C   0  0  0  0  0  0  0  0  0  0  0  0
  -24.1314  -17.6118  145.6547 C   0  0  0  0  0  0  0  0  0  0  0  0
  -25.4664  -17.2664  145.8096 C   0  0  0  0  0  0  0  0  0  0  0  0
  -25.6086  -13.9402  144.0492 C   0  0  0  0  0  0  0  0  0  0  0  0
  -26.3982  -13.1590  144.9487 C   0  0  0  0  0  0  0  0  0  0  0  0
  -26.6109  -13.3420  146.0901 C   0  0  0  0  0  0  0  0  0  0  0  0
  -27.4406  -12.4381  146.9565 C   0  0  0  0  0  0  0  0  0  0  0  0
  -28.2602  -11.5153  146.3132 C   0  0  0  0  0  0  0  0  0  0  0  0
  -28.0880  -11.3203  144.9038 C   0  0  0  0  0  0  0  0  0  0  0  0
  -27.2384  -12.1935  144.1882 C   0  0  0  0  0  0  0  0  0  0  0  0
  -28.9058  -10.2605  144.2736 C   0  0  0  0  0  0  0  0  0  0  0  0
  -28.3470   -9.4560  143.3055 C   0  0  0  0  0  0  0  0  0  0  0  0
  -29.1134   -8.4640  142.7353 C   0  0  0  0  0  0  0  0  0  0  0  0
  -28.6193   -7.5530  141.7600 C   0  0  0  0  0  0  0  0  0  0  0  0
  -30.2518  -10.0305  144.6043 C   0  0  0  0  0  0  0  0  0  0  0  0
  -31.0575   -9.1376  144.1076 C   0  0  0  0  0  0  0  0  0  0  0  0
  -30.5562   -8.2763  143.1495 C   0  0  0  0  0  0  0  0  0  0  0  0
  -29.4676   -7.0698  141.1760 C   0  0  0  0  0  0  0  0  0  0  0  0
  -29.0065   -6.3348  139.9173 C   0  0  0  0  0  0  0  0  0  0  0  0
  -31.3357   -7.3794  142.4473 C   0  0  0  0  0  0  0  0  0  0  0  0
  -30.8076   -6.7677  141.4134 N   0  0  0  0  0  0  0  0  0  0  0  0
  -23.6023  -18.9102  146.0840 C   0  0  0  0  0  0  0  0  0  0  0  0
  -22.7367  -18.8206  146.9893 O   0  0  0  0  0  0  0  0  0  0  0  0
  -24.1236  -19.9468  145.7062 O   0  0  0  0  0  0  0  0  0  0  0  0
  -25.2839  -13.7108  142.8868 O   0  0  0  0  0  0  0  0  0  0  0  0
  -29.0739   -5.2190  139.7680 O   0  0  0  0  0  0  0  0  0  0  0  0
  -28.3866   -7.1184  139.0671 O   0  0  0  0  0  0  0  0  0  0  0  0
  -28.9131   -7.5839  137.9146 C   0  0  0  0  0  0  0  0  0  0  0  0
  -27.9121   -8.3416  137.1306 C   0  0  0  0  0  0  0  0  0  0  0  0
  -27.3732   -9.2424  138.1297 C   0  0  0  0  0  0  0  0  0  0  0  0
  -28.3686  -10.1058  138.8837 C   0  0  0  0  0  0  0  0  0  0  0  0
  -27.7015  -11.1184  139.7852 C   0  0  0  0  0  0  0  0  0  0  0  0
  3  7  1  0
  7  8  1  0
 12 14  1  0
 21 22  1  0
  5 25  1  0
 25 26  2  0
 25 27  1  0
  7 28  2  0
 22 29  2  0
 22 30  1  0
 30 31  1  0
 31 32  1  0
 32 33  1  0
 33 34  2  3
 34 35  1  0
 16 17  2  0
 17 21  1  0
 21 24  2  0
 24 23  1  0
 23 20  2  0
 14 15  2  0
 15 16  1  0
 16 20  1  0
 20 19  1  0
 19 18  2  0
 18 14  1  0
  1  2  2  0
  2  3  1  0
  3  4  2  0
  4  6  1  0
  6  5  2  0
  5  1  1  0
  8  9  2  0
  9 10  1  0
 10 11  2  0
 11 12  1  0
 12 13  2  0
 13  8  1  0
M  END

$$$$
No_1968-/dssg/home/sw_qyf/PocketFlow/Model-Generation-Results/5HT2A_7WC7_rec_A_10.pdb/2024-01-01-03-54-21/
     RDKit          3D

 22 23  0  0  0  0  0  0  0  0999 V2000
  -23.1746  -16.6014  144.8668 C   0  0  0  0  0  0  0  0  0  0  0  0
  -24.0189  -16.0564  145.8445 C   0  0  0  0  0  0  0  0  0  0  0  0
  -24.4145  -16.8299  146.9062 C   0  0  0  0  0  0  0  0  0  0  0  0
  -25.2730  -16.2838  147.9150 C   0  0  0  0  0  0  0  0  0  0  0  0
  -25.7919  -14.9951  147.6737 C   0  0  0  0  0  0  0  0  0  0  0  0
  -24.5377  -14.6789  145.6474 C   0  0  0  0  0  0  0  0  0  0  0  0
  -25.4158  -14.1968  146.6885 C   0  0  0  0  0  0  0  0  0  0  0  0
  -24.1218  -13.8356  144.6156 C   0  0  0  0  0  0  0  0  0  0  0  0
  -25.0207  -13.7502  143.7604 F   0  0  0  0  0  0  0  0  0  0  0  0
  -22.9336  -14.2539  144.0389 F   0  0  0  0  0  0  0  0  0  0  0  0
  -23.6692  -12.6068  145.0014 F   0  0  0  0  0  0  0  0  0  0  0  0
  -25.8308  -17.1866  149.2631 Cl  0  0  0  0  0  0  0  0  0  0  0  0
  -23.1765  -17.9181  144.9104 O   0  0  0  0  0  0  0  0  0  0  0  0
  -25.7947  -12.9848  146.6197 F   0  0  0  0  0  0  0  0  0  0  0  0
  -23.3367  -18.4476  146.1586 C   0  0  0  0  0  0  0  0  0  0  0  0
  -24.4371  -18.1403  147.0527 C   0  0  0  0  0  0  0  0  0  0  0  0
  -22.1204  -18.4228  146.8851 O   0  0  0  0  0  0  0  0  0  0  0  0
  -25.4990  -18.9235  146.6508 O   0  0  0  0  0  0  0  0  0  0  0  0
  -23.9535  -18.6608  148.3000 O   0  0  0  0  0  0  0  0  0  0  0  0
  -23.0622  -17.7529  148.8914 C   0  0  0  0  0  0  0  0  0  0  0  0
  -22.8010  -16.8133  149.1966 O   0  0  0  0  0  0  0  0  0  0  0  0
  -22.6869  -18.5183  149.7038 O   0  0  0  0  0  0  0  0  0  0  0  0
  1  2  1  0
  6  8  1  0
  8  9  1  0
  8 10  1  0
  8 11  1  0
  4 12  1  0
  1 13  1  0
  7 14  1  0
 13 15  1  0
  3 16  1  0
 15 16  1  0
 15 17  1  0
 16 18  1  0
 16 19  1  0
 19 20  1  0
 20 21  2  0
 20 22  1  0
  2  3  2  0
  3  4  1  0
  4  5  2  0
  5  7  1  0
  7  6  2  0
  6  2  1  0
M  END

$$$$
No_1969-/dssg/home/sw_qyf/PocketFlow/Model-Generation-Results/5HT2A_7WC7_rec_A_10.pdb/2024-01-01-03-54-21/
     RDKit          3D

 29 31  0  0  0  0  0  0  0  0999 V2000
  -23.1746  -16.6014  144.8668 C   0  0  0  0  0  0  0  0  0  0  0  0
  -23.8963  -15.5346  144.7885 C   0  0  0  0  0  0  0  0  0  0  0  0
  -24.5755  -15.0383  145.9043 C   0  0  0  0  0  0  0  0  0  0  0  0
  -25.0618  -13.6819  146.0347 C   0  0  0  0  0  0  0  0  0  0  0  0
  -24.0242  -12.8249  145.9593 C   0  0  0  0  0  0  0  0  0  0  0  0
  -23.4085  -17.5675  145.8907 C   0  0  0  0  0  0  0  0  0  0  0  0
  -24.1896  -17.1707  147.0047 C   0  0  0  0  0  0  0  0  0  0  0  0
  -24.7247  -15.8941  147.1004 C   0  0  0  0  0  0  0  0  0  0  0  0
  -26.2409  -13.2692  145.3308 C   0  0  0  0  0  0  0  0  0  0  0  0
  -27.1767  -12.8145  146.0715 C   0  0  0  0  0  0  0  0  0  0  0  0
  -27.8571  -13.1203  146.9670 C   0  0  0  0  0  0  0  0  0  0  0  0
  -29.0627  -12.4074  147.5598 C   0  0  0  0  0  0  0  0  0  0  0  0
  -29.9072  -12.8977  148.5538 C   0  0  0  0  0  0  0  0  0  0  0  0
  -27.7003  -11.3982  145.4356 C   0  0  0  0  0  0  0  0  0  0  0  0
  -26.8770  -10.7204  144.4691 C   0  0  0  0  0  0  0  0  0  0  0  0
  -29.9331  -14.2880  148.7790 C   0  0  0  0  0  0  0  0  0  0  0  0
  -28.9864  -15.1086  148.0702 C   0  0  0  0  0  0  0  0  0  0  0  0
  -28.0386  -14.5442  147.2055 C   0  0  0  0  0  0  0  0  0  0  0  0
  -27.6128  -10.1241  143.4883 C   0  0  0  0  0  0  0  0  0  0  0  0
  -27.6821  -10.5923  142.2596 C   0  0  0  0  0  0  0  0  0  0  0  0
  -28.4705   -9.9902  141.1931 C   0  0  0  0  0  0  0  0  0  0  0  0
  -28.4283  -10.4323  139.8254 C   0  0  0  0  0  0  0  0  0  0  0  0
  -28.1478   -9.4853  138.8838 C   0  0  0  0  0  0  0  0  0  0  0  0
  -28.7720   -8.1636  138.9466 C   0  0  0  0  0  0  0  0  0  0  0  0
  -29.0190   -7.6765  140.3383 C   0  0  0  0  0  0  0  0  0  0  0  0
  -29.1286   -8.5631  141.3013 C   0  0  0  0  0  0  0  0  0  0  0  0
  -28.0670  -11.8041  139.6970 C   0  0  0  0  0  0  0  0  0  0  0  0
  -27.2583  -11.9484  138.9245 F   0  0  0  0  0  0  0  0  0  0  0  0
  -27.7295  -12.3691  140.9720 F   0  0  0  0  0  0  0  0  0  0  0  0
  3  4  1  0
  4  5  2  0
  4  9  1  0
  9 10  1  0
 10 11  1  0
 10 14  1  0
 14 15  1  0
 15 19  1  0
 19 20  2  3
 20 21  1  0
 21 22  1  0
 22 23  1  0
 23 24  1  0
 24 25  1  0
 21 26  1  0
 25 26  1  0
 22 27  1  0
 27 28  1  0
 27 29  1  0
 11 12  2  0
 12 13  1  0
 13 16  2  0
 16 17  1  0
 17 18  2  0
 18 11  1  0
  1  2  2  0
  2  3  1  0
  3  8  2  0
  8  7  1  0
  7  6  2  0
  6  1  1  0
M  END

$$$$
No_1970-/dssg/home/sw_qyf/PocketFlow/Model-Generation-Results/5HT2A_7WC7_rec_A_10.pdb/2024-01-01-03-54-21/
     RDKit          3D

 13 14  0  0  0  0  0  0  0  0999 V2000
  -24.1553  -17.8465  145.7021 C   0  0  0  0  0  0  0  0  0  0  0  0
  -24.2856  -16.6364  145.3494 C   0  0  0  0  0  0  0  0  0  0  0  0
  -24.7211  -15.5955  146.2115 C   0  0  0  0  0  0  0  0  0  0  0  0
  -24.8539  -14.2010  145.8739 C   0  0  0  0  0  0  0  0  0  0  0  0
  -24.1440  -13.8321  144.7074 C   0  0  0  0  0  0  0  0  0  0  0  0
  -24.0490  -12.4549  144.4544 C   0  0  0  0  0  0  0  0  0  0  0  0
  -24.6003  -18.2723  146.9629 C   0  0  0  0  0  0  0  0  0  0  0  0
  -25.1207  -17.3974  147.9208 C   0  0  0  0  0  0  0  0  0  0  0  0
  -25.1930  -15.9997  147.5614 C   0  0  0  0  0  0  0  0  0  0  0  0
  -24.8210  -11.5920  145.3889 C   0  0  0  0  0  0  0  0  0  0  0  0
  -25.3419  -13.0639  146.6264 C   0  0  0  0  0  0  0  0  0  0  0  0
  -25.3779  -11.8412  146.2593 N   0  0  0  0  0  0  0  0  0  0  0  0
  -23.7875  -16.0884  143.7863 Cl  0  0  0  0  0  0  0  0  0  0  0  0
  3  4  1  0
  2 13  1  0
  1  2  2  0
  2  3  1  0
  3  9  2  0
  9  8  1  0
  8  7  2  0
  7  1  1  0
  4  5  2  0
  5  6  1  0
  6 10  2  0
 10 12  1  0
 12 11  2  0
 11  4  1  0
M  END

$$$$
No_1971-/dssg/home/sw_qyf/PocketFlow/Model-Generation-Results/5HT2A_7WC7_rec_A_10.pdb/2024-01-01-03-54-21/
     RDKit          3D

 15 16  0  0  0  0  0  0  0  0999 V2000
  -23.1746  -16.6014  144.8668 C   0  0  0  0  0  0  0  0  0  0  0  0
  -24.0189  -16.0564  145.8445 C   0  0  0  0  0  0  0  0  0  0  0  0
  -24.4850  -14.7380  145.6359 C   0  0  0  0  0  0  0  0  0  0  0  0
  -24.0208  -14.0081  144.6269 C   0  0  0  0  0  0  0  0  0  0  0  0
  -24.4092  -12.5999  144.5318 C   0  0  0  0  0  0  0  0  0  0  0  0
  -25.2165  -12.1839  145.5008 C   0  0  0  0  0  0  0  0  0  0  0  0
  -25.7821  -12.8568  146.5220 C   0  0  0  0  0  0  0  0  0  0  0  0
  -25.3613  -14.2280  146.6461 C   0  0  0  0  0  0  0  0  0  0  0  0
  -24.3970  -16.8521  146.9644 C   0  0  0  0  0  0  0  0  0  0  0  0
  -23.9424  -18.0927  147.1668 C   0  0  0  0  0  0  0  0  0  0  0  0
  -23.3097  -18.7655  146.0877 C   0  0  0  0  0  0  0  0  0  0  0  0
  -22.9562  -18.0719  145.0279 N   0  0  0  0  0  0  0  0  0  0  0  0
  -25.5884  -10.8387  145.3943 F   0  0  0  0  0  0  0  0  0  0  0  0
  -22.8599  -16.1216  143.8539 O   0  0  0  0  0  0  0  0  0  0  0  0
  -25.0293  -16.2467  148.0457 F   0  0  0  0  0  0  0  0  0  0  0  0
  1  2  1  0
  2  3  1  0
  2  9  1  0
  9 10  1  0
  1 12  1  0
 11 12  1  0
  6 13  1  0
  1 14  2  0
  9 15  1  0
 10 11  1  0
  3  4  2  0
  4  5  1  0
  5  6  2  0
  6  7  1  0
  7  8  2  0
  8  3  1  0
M  END

$$$$
No_1972-/dssg/home/sw_qyf/PocketFlow/Model-Generation-Results/5HT2A_7WC7_rec_A_10.pdb/2024-01-01-03-54-21/
     RDKit          3D

 14 16  0  0  0  0  0  0  0  0999 V2000
  -24.1553  -17.8465  145.7021 C   0  0  0  0  0  0  0  0  0  0  0  0
  -24.2856  -16.6364  145.3494 C   0  0  0  0  0  0  0  0  0  0  0  0
  -25.0033  -15.6772  146.0737 C   0  0  0  0  0  0  0  0  0  0  0  0
  -25.6964  -16.1810  147.2049 C   0  0  0  0  0  0  0  0  0  0  0  0
  -24.8143  -18.3454  146.8324 C   0  0  0  0  0  0  0  0  0  0  0  0
  -25.5292  -17.4614  147.6373 C   0  0  0  0  0  0  0  0  0  0  0  0
  -23.6541  -16.0768  144.2055 N   0  0  0  0  0  0  0  0  0  0  0  0
  -25.0950  -14.3164  145.4006 C   0  0  0  0  0  0  0  0  0  0  0  0
  -25.8001  -13.3941  146.1214 C   0  0  0  0  0  0  0  0  0  0  0  0
  -25.7924  -12.0328  145.7479 C   0  0  0  0  0  0  0  0  0  0  0  0
  -24.3547  -14.0173  144.3271 C   0  0  0  0  0  0  0  0  0  0  0  0
  -24.3269  -12.7415  143.7811 N   0  0  0  0  0  0  0  0  0  0  0  0
  -25.0053  -11.7308  144.5854 C   0  0  0  0  0  0  0  0  0  0  0  0
  -23.6258  -14.9499  143.7804 N   0  0  0  0  0  0  0  0  0  0  0  0
  3  8  1  0
 11 14  1  0
 14  7  2  0
  7  2  1  0
  8  9  2  0
  9 10  1  0
 10 13  2  0
 13 12  1  0
 12 11  2  0
 11  8  1  0
  1  2  2  0
  2  3  1  0
  3  4  2  0
  4  6  1  0
  6  5  2  0
  5  1  1  0
M  END

$$$$
No_1973-/dssg/home/sw_qyf/PocketFlow/Model-Generation-Results/5HT2A_7WC7_rec_A_10.pdb/2024-01-01-03-54-21/
     RDKit          3D

 35 37  0  0  0  0  0  0  0  0999 V2000
  -23.1746  -16.6014  144.8668 C   0  0  0  0  0  0  0  0  0  0  0  0
  -23.8963  -15.5346  144.7885 C   0  0  0  0  0  0  0  0  0  0  0  0
  -23.6398  -14.5115  145.3281 C   0  0  0  0  0  0  0  0  0  0  0  0
  -24.3240  -13.3648  145.1281 C   0  0  0  0  0  0  0  0  0  0  0  0
  -23.8303  -12.0965  145.7921 C   0  0  0  0  0  0  0  0  0  0  0  0
  -25.3060  -13.1626  144.3111 O   0  0  0  0  0  0  0  0  0  0  0  0
  -23.6153  -17.8026  145.6028 C   0  0  0  0  0  0  0  0  0  0  0  0
  -23.5839  -17.5337  146.9891 C   0  0  0  0  0  0  0  0  0  0  0  0
  -24.7849  -17.6004  147.7852 C   0  0  0  0  0  0  0  0  0  0  0  0
  -25.8584  -16.8653  147.2593 C   0  0  0  0  0  0  0  0  0  0  0  0
  -26.4403  -17.0550  146.1523 C   0  0  0  0  0  0  0  0  0  0  0  0
  -27.6742  -16.3916  145.7503 C   0  0  0  0  0  0  0  0  0  0  0  0
  -28.2385  -15.4978  146.7491 C   0  0  0  0  0  0  0  0  0  0  0  0
  -29.3483  -14.6974  146.4272 C   0  0  0  0  0  0  0  0  0  0  0  0
  -29.8528  -13.9107  147.6449 C   0  0  0  0  0  0  0  0  0  0  0  0
  -30.2456  -14.6776  148.7412 C   0  0  0  0  0  0  0  0  0  0  0  0
  -30.8994  -13.9562  149.7887 C   0  0  0  0  0  0  0  0  0  0  0  0
  -31.4755  -12.7440  149.4956 C   0  0  0  0  0  0  0  0  0  0  0  0
  -31.0762  -12.0463  148.3623 C   0  0  0  0  0  0  0  0  0  0  0  0
  -30.3262  -12.6394  147.3803 C   0  0  0  0  0  0  0  0  0  0  0  0
  -27.3362  -15.4898  147.9192 C   0  0  0  0  0  0  0  0  0  0  0  0
  -26.4401  -16.0098  148.3398 C   0  0  0  0  0  0  0  0  0  0  0  0
  -29.9548  -11.9642  146.3434 O   0  0  0  0  0  0  0  0  0  0  0  0
  -28.6779  -11.9268  145.8762 C   0  0  0  0  0  0  0  0  0  0  0  0
  -28.4010  -10.9651  144.8240 C   0  0  0  0  0  0  0  0  0  0  0  0
  -29.3229  -10.5042  143.9474 C   0  0  0  0  0  0  0  0  0  0  0  0
  -29.0820   -9.6614  142.9300 C   0  0  0  0  0  0  0  0  0  0  0  0
  -29.7864   -8.5187  142.7730 C   0  0  0  0  0  0  0  0  0  0  0  0
  -29.5789   -7.6069  141.6729 C   0  0  0  0  0  0  0  0  0  0  0  0
  -29.1706   -8.1591  140.4614 C   0  0  0  0  0  0  0  0  0  0  0  0
  -29.2099   -7.3363  139.3040 C   0  0  0  0  0  0  0  0  0  0  0  0
  -28.7275   -8.0243  138.1635 C   0  0  0  0  0  0  0  0  0  0  0  0
  -28.7035   -9.4894  140.4660 C   0  0  0  0  0  0  0  0  0  0  0  0
  -28.4320  -10.0778  141.6384 C   0  0  0  0  0  0  0  0  0  0  0  0
  -28.2592   -9.3563  138.2004 C   0  0  0  0  0  0  0  0  0  0  0  0
  1  2  1  0
  2  3  2  3
  3  4  1  0
  4  5  1  0
  4  6  1  0
  1  7  1  0
  7  8  1  0
  8  9  1  0
  9 10  1  0
 13 14  1  0
 20 23  1  0
 23 24  1  0
 24 25  1  0
 25 26  2  3
 26 27  1  0
 30 31  1  0
 31 32  2  3
 32 35  1  0
 14 15  1  0
 15 16  2  0
 16 17  1  0
 17 18  2  0
 18 19  1  0
 19 20  2  0
 20 15  1  0
 27 28  2  0
 28 29  1  0
 29 30  2  0
 30 33  1  0
 33 34  2  0
 34 27  1  0
 10 11  2  0
 11 12  1  0
 12 13  2  0
 13 21  1  0
 21 22  2  0
 22 10  1  0
M  END

$$$$
No_1974-/dssg/home/sw_qyf/PocketFlow/Model-Generation-Results/5HT2A_7WC7_rec_A_10.pdb/2024-01-01-03-54-21/
     RDKit          3D

 35 37  0  0  0  0  0  0  0  0999 V2000
  -23.1746  -16.6014  144.8668 C   0  0  0  0  0  0  0  0  0  0  0  0
  -23.8963  -15.5346  144.7885 C   0  0  0  0  0  0  0  0  0  0  0  0
  -23.6398  -14.5115  145.3281 C   0  0  0  0  0  0  0  0  0  0  0  0
  -24.3866  -13.2477  145.3906 C   0  0  0  0  0  0  0  0  0  0  0  0
  -25.6595  -13.1543  144.8975 C   0  0  0  0  0  0  0  0  0  0  0  0
  -26.4904  -12.0232  145.0331 C   0  0  0  0  0  0  0  0  0  0  0  0
  -27.8437  -12.0381  144.7013 C   0  0  0  0  0  0  0  0  0  0  0  0
  -28.7862  -11.6153  145.6570 C   0  0  0  0  0  0  0  0  0  0  0  0
  -29.3773  -10.5227  145.3464 F   0  0  0  0  0  0  0  0  0  0  0  0
  -29.2152  -12.3802  146.5883 F   0  0  0  0  0  0  0  0  0  0  0  0
  -23.0209  -17.2860  145.6717 C   0  0  0  0  0  0  0  0  0  0  0  0
  -23.6252  -16.9953  147.0811 C   0  0  0  0  0  0  0  0  0  0  0  0
  -23.1662  -17.5733  148.2435 C   0  0  0  0  0  0  0  0  0  0  0  0
  -23.7969  -17.1965  149.4183 C   0  0  0  0  0  0  0  0  0  0  0  0
  -25.0991  -16.7425  149.4979 C   0  0  0  0  0  0  0  0  0  0  0  0
  -25.7051  -16.2892  148.2694 C   0  0  0  0  0  0  0  0  0  0  0  0
  -25.0587  -16.6861  147.0383 C   0  0  0  0  0  0  0  0  0  0  0  0
  -23.7707  -11.9698  145.8019 C   0  0  0  0  0  0  0  0  0  0  0  0
  -25.9386  -10.8028  145.6982 C   0  0  0  0  0  0  0  0  0  0  0  0
  -24.5877  -10.9066  146.0501 N   0  0  0  0  0  0  0  0  0  0  0  0
  -26.9477  -15.8692  148.2672 F   0  0  0  0  0  0  0  0  0  0  0  0
  -22.6022  -11.6655  145.7593 O   0  0  0  0  0  0  0  0  0  0  0  0
  -24.9041  -15.5003  143.8346 O   0  0  0  0  0  0  0  0  0  0  0  0
  -22.9903  -17.5700  150.9616 Cl  0  0  0  0  0  0  0  0  0  0  0  0
  -28.1635  -11.5005  143.4932 O   0  0  0  0  0  0  0  0  0  0  0  0
  -28.8766  -10.4969  143.2761 C   0  0  0  0  0  0  0  0  0  0  0  0
  -28.9158   -9.8549  141.9157 C   0  0  0  0  0  0  0  0  0  0  0  0
  -28.3013  -10.4173  140.8527 C   0  0  0  0  0  0  0  0  0  0  0  0
  -29.6124   -9.9067  144.3113 C   0  0  0  0  0  0  0  0  0  0  0  0
  -30.5200   -8.8445  144.1401 C   0  0  0  0  0  0  0  0  0  0  0  0
  -29.0234   -9.0144  144.5490 Cl  0  0  0  0  0  0  0  0  0  0  0  0
  -31.0392   -8.5515  142.9375 C   0  0  0  0  0  0  0  0  0  0  0  0
  -30.2029   -8.9335  141.7604 C   0  0  0  0  0  0  0  0  0  0  0  0
  -27.9911   -9.6333  139.8000 C   0  0  0  0  0  0  0  0  0  0  0  0
  -27.3800  -10.2048  138.6432 C   0  0  0  0  0  0  0  0  0  0  0  0
  1  2  1  0
  2  3  2  3
  3  4  1  0
  5  6  1  0
  6  7  1  0
  7  8  1  0
  8  9  1  0
  8 10  1  0
  1 11  2  3
 11 12  1  0
  4 18  1  0
  6 19  1  0
 18 20  1  0
 19 20  1  0
 16 21  1  0
 18 22  2  0
  2 23  1  0
 14 24  1  0
  7 25  1  0
 25 26  1  0
 26 27  1  0
 27 28  2  3
 26 29  1  0
 29 30  1  0
 29 31  1  0
 30 32  1  0
 27 33  1  0
 32 33  1  0
 28 34  1  0
 34 35  2  0
  4  5  1  0
 12 13  2  0
 13 14  1  0
 14 15  2  0
 15 16  1  0
 16 17  2  0
 17 12  1  0
M  END

$$$$
No_1975-/dssg/home/sw_qyf/PocketFlow/Model-Generation-Results/5HT2A_7WC7_rec_A_10.pdb/2024-01-01-03-54-21/
     RDKit          3D

 35 37  0  0  0  0  0  0  0  0999 V2000
  -24.1553  -17.8465  145.7021 C   0  0  0  0  0  0  0  0  0  0  0  0
  -24.6364  -17.2931  146.7091 C   0  0  0  0  0  0  0  0  0  0  0  0
  -25.8608  -16.5592  146.5934 C   0  0  0  0  0  0  0  0  0  0  0  0
  -26.0371  -15.4710  146.5967 C   0  0  0  0  0  0  0  0  0  0  0  0
  -24.8411  -14.5866  146.8382 C   0  0  0  0  0  0  0  0  0  0  0  0
  -24.5994  -13.6274  146.1992 C   0  0  0  0  0  0  0  0  0  0  0  0
  -23.3035  -12.8898  146.3094 C   0  0  0  0  0  0  0  0  0  0  0  0
  -25.5368  -13.0501  145.2470 C   0  0  0  0  0  0  0  0  0  0  0  0
  -26.5881  -13.7165  144.8317 C   0  0  0  0  0  0  0  0  0  0  0  0
  -26.8491  -15.0115  145.4728 C   0  0  0  0  0  0  0  0  0  0  0  0
  -24.6193  -17.3113  144.5080 C   0  0  0  0  0  0  0  0  0  0  0  0
  -24.4082  -18.0695  148.0590 C   0  0  0  0  0  0  0  0  0  0  0  0
  -23.8059  -17.1445  149.1746 C   0  0  0  0  0  0  0  0  0  0  0  0
  -22.4688  -17.3835  149.2620 C   0  0  0  0  0  0  0  0  0  0  0  0
  -21.8336  -16.5363  150.3434 C   0  0  0  0  0  0  0  0  0  0  0  0
  -25.2808  -16.0548  144.7278 C   0  0  0  0  0  0  0  0  0  0  0  0
  -24.6212  -14.9389  144.1403 O   0  0  0  0  0  0  0  0  0  0  0  0
  -26.2634  -16.0859  144.3813 F   0  0  0  0  0  0  0  0  0  0  0  0
  -28.2304  -15.3805  145.5764 O   0  0  0  0  0  0  0  0  0  0  0  0
  -26.9720  -17.5150  147.0494 C   0  0  0  0  0  0  0  0  0  0  0  0
  -26.9490  -13.5179  143.4901 N   0  0  0  0  0  0  0  0  0  0  0  0
  -23.0342  -11.8664  145.2964 C   0  0  0  0  0  0  0  0  0  0  0  0
  -24.0837  -11.2618  144.7221 N   0  0  0  0  0  0  0  0  0  0  0  0
  -25.2797  -11.8688  144.6215 C   0  0  0  0  0  0  0  0  0  0  0  0
  -20.5395  -16.4165  150.4799 C   0  0  0  0  0  0  0  0  0  0  0  0
  -28.7263  -15.3630  146.9908 C   0  0  0  0  0  0  0  0  0  0  0  0
  -29.7522  -14.4548  147.3456 C   0  0  0  0  0  0  0  0  0  0  0  0
  -28.2606  -16.3380  147.9546 C   0  0  0  0  0  0  0  0  0  0  0  0
  -30.2018  -13.3814  146.6769 C   0  0  0  0  0  0  0  0  0  0  0  0
  -30.0848  -12.0796  147.4528 C   0  0  0  0  0  0  0  0  0  0  0  0
  -30.7329  -12.0935  148.6988 O   0  0  0  0  0  0  0  0  0  0  0  0
  -26.9839  -14.0561  145.8197 F   0  0  0  0  0  0  0  0  0  0  0  0
  -29.9357  -10.9071  146.8422 O   0  0  0  0  0  0  0  0  0  0  0  0
  -29.9041  -10.8896  145.4256 C   0  0  0  0  0  0  0  0  0  0  0  0
  -28.7177  -10.0712  144.9151 C   0  0  0  0  0  0  0  0  0  0  0  0
  1  2  1  0
  2  3  2  3
  3  4  1  0
  4  5  2  0
  5  6  1  0
  6  7  1  0
  6  8  1  0
  8  9  2  0
  4 10  1  0
  9 10  1  0
  1 11  2  3
  2 12  1  0
 12 13  1  0
 13 14  2  3
 14 15  1  0
 11 16  1  0
 16 17  1  0
 16 18  1  0
 10 19  1  0
  3 20  1  0
  9 21  1  0
  7 22  2  0
 22 23  1  0
  8 24  1  0
 23 24  2  0
 15 25  1  0
 19 26  1  0
 26 27  1  0
 20 28  1  0
 26 28  1  0
 27 29  1  0
 29 30  2  3
 30 31  1  0
 10 32  1  0
 30 33  1  0
 33 34  1  0
 34 35  1  0
M  END

$$$$
No_1976-/dssg/home/sw_qyf/PocketFlow/Model-Generation-Results/5HT2A_7WC7_rec_A_10.pdb/2024-01-01-03-54-21/
     RDKit          3D

 30 30  0  0  0  0  0  0  0  0999 V2000
  -23.1746  -16.6014  144.8668 C   0  0  0  0  0  0  0  0  0  0  0  0
  -23.7011  -17.0158  145.9774 C   0  0  0  0  0  0  0  0  0  0  0  0
  -23.7336  -18.2775  146.3737 C   0  0  0  0  0  0  0  0  0  0  0  0
  -23.8112  -15.3694  144.2738 C   0  0  0  0  0  0  0  0  0  0  0  0
  -25.0650  -14.9546  144.8732 C   0  0  0  0  0  0  0  0  0  0  0  0
  -25.4892  -13.6339  144.5110 C   0  0  0  0  0  0  0  0  0  0  0  0
  -26.9426  -13.4764  144.6464 C   0  0  0  0  0  0  0  0  0  0  0  0
  -27.5084  -12.2366  144.1513 C   0  0  0  0  0  0  0  0  0  0  0  0
  -27.6306  -11.1459  145.0444 C   0  0  0  0  0  0  0  0  0  0  0  0
  -27.7381  -11.3385  146.1367 C   0  0  0  0  0  0  0  0  0  0  0  0
  -27.9153   -9.8715  144.3204 C   0  0  0  0  0  0  0  0  0  0  0  0
  -28.9464   -9.7427  143.3485 C   0  0  0  0  0  0  0  0  0  0  0  0
  -29.8072   -9.1523  143.3297 C   0  0  0  0  0  0  0  0  0  0  0  0
  -30.6722   -8.9077  144.2995 C   0  0  0  0  0  0  0  0  0  0  0  0
  -30.0369   -8.1281  142.2832 C   0  0  0  0  0  0  0  0  0  0  0  0
  -31.0691   -8.4552  141.3132 C   0  0  0  0  0  0  0  0  0  0  0  0
  -23.2478  -19.0856  145.9311 O   0  0  0  0  0  0  0  0  0  0  0  0
  -24.4912  -18.4473  147.6404 N   0  0  0  0  0  0  0  0  0  0  0  0
  -28.8724  -10.8238  142.1499 Cl  0  0  0  0  0  0  0  0  0  0  0  0
  -29.2846   -6.9352  142.1432 C   0  0  0  0  0  0  0  0  0  0  0  0
  -29.3378   -6.1110  140.9975 C   0  0  0  0  0  0  0  0  0  0  0  0
  -28.6258   -4.8845  141.1162 C   0  0  0  0  0  0  0  0  0  0  0  0
  -29.2455   -3.8852  141.8930 C   0  0  0  0  0  0  0  0  0  0  0  0
  -28.4522   -2.6248  141.9573 C   0  0  0  0  0  0  0  0  0  0  0  0
  -28.7985   -1.6822  142.9963 C   0  0  0  0  0  0  0  0  0  0  0  0
  -29.5296   -2.1199  144.1718 C   0  0  0  0  0  0  0  0  0  0  0  0
  -29.8029   -1.0157  144.9735 C   0  0  0  0  0  0  0  0  0  0  0  0
  -25.1163  -17.4387  148.4170 C   0  0  0  0  0  0  0  0  0  0  0  0
  -25.2687  -16.1744  147.7323 C   0  0  0  0  0  0  0  0  0  0  0  0
  -24.2965  -15.7812  146.8518 C   0  0  0  0  0  0  0  0  0  0  0  0
  1  2  1  0
  2  3  1  0
  1  4  1  0
  4  5  1  0
  5  6  1  0
  6  7  1  0
  7  8  1  0
  8  9  1  0
  9 10  1  0
  9 11  1  0
 11 12  1  0
 12 13  1  0
 13 14  2  0
 13 15  1  0
 15 16  1  0
  3 17  2  0
  3 18  1  0
 12 19  1  0
 15 20  1  0
 20 21  2  3
 21 22  1  0
 22 23  1  0
 23 24  2  3
 24 25  1  0
 25 26  2  3
 26 27  1  0
 18 28  1  0
 28 29  1  0
  2 30  1  0
 29 30  1  0
M  END

$$$$
No_1977-/dssg/home/sw_qyf/PocketFlow/Model-Generation-Results/5HT2A_7WC7_rec_A_10.pdb/2024-01-01-03-54-21/
     RDKit          3D

 30 32  0  0  0  0  0  0  0  0999 V2000
  -24.1553  -17.8465  145.7021 C   0  0  0  0  0  0  0  0  0  0  0  0
  -24.6364  -17.2931  146.7091 C   0  0  0  0  0  0  0  0  0  0  0  0
  -24.5709  -15.9334  146.8074 C   0  0  0  0  0  0  0  0  0  0  0  0
  -24.2378  -15.1233  145.7159 C   0  0  0  0  0  0  0  0  0  0  0  0
  -24.2498  -13.6819  145.7156 C   0  0  0  0  0  0  0  0  0  0  0  0
  -23.7380  -17.1272  144.5444 C   0  0  0  0  0  0  0  0  0  0  0  0
  -23.7525  -15.7605  144.6336 C   0  0  0  0  0  0  0  0  0  0  0  0
  -23.4555  -12.8927  144.9592 C   0  0  0  0  0  0  0  0  0  0  0  0
  -23.5261  -11.4769  145.0984 C   0  0  0  0  0  0  0  0  0  0  0  0
  -25.1667  -12.9898  146.6521 C   0  0  0  0  0  0  0  0  0  0  0  0
  -25.3561  -11.6221  146.6889 C   0  0  0  0  0  0  0  0  0  0  0  0
  -24.5323  -10.8575  145.8593 C   0  0  0  0  0  0  0  0  0  0  0  0
  -24.0568  -19.3353  145.8028 C   0  0  0  0  0  0  0  0  0  0  0  0
  -23.0246  -19.9850  145.9410 O   0  0  0  0  0  0  0  0  0  0  0  0
  -25.2127  -19.9783  145.7943 O   0  0  0  0  0  0  0  0  0  0  0  0
  -22.5319  -13.3719  144.1935 O   0  0  0  0  0  0  0  0  0  0  0  0
  -24.9902  -17.9475  147.8694 O   0  0  0  0  0  0  0  0  0  0  0  0
  -24.9995  -17.1062  149.1320 C   0  0  0  0  0  0  0  0  0  0  0  0
  -24.1314  -17.5799  150.1897 C   0  0  0  0  0  0  0  0  0  0  0  0
  -24.3305  -16.9703  151.2432 F   0  0  0  0  0  0  0  0  0  0  0  0
  -22.8205  -17.3749  149.7368 F   0  0  0  0  0  0  0  0  0  0  0  0
  -26.3947  -17.2357  149.6442 N   0  0  0  0  0  0  0  0  0  0  0  0
  -27.4619  -16.7041  149.0171 C   0  0  0  0  0  0  0  0  0  0  0  0
  -28.7306  -16.9321  149.4681 C   0  0  0  0  0  0  0  0  0  0  0  0
  -29.6288  -15.9404  149.2270 C   0  0  0  0  0  0  0  0  0  0  0  0
  -29.5334  -14.9973  148.1730 C   0  0  0  0  0  0  0  0  0  0  0  0
  -28.2306  -14.9888  147.5342 C   0  0  0  0  0  0  0  0  0  0  0  0
  -27.2234  -15.6941  148.0686 C   0  0  0  0  0  0  0  0  0  0  0  0
  -30.6137  -14.1751  147.6695 C   0  0  0  0  0  0  0  0  0  0  0  0
  -30.2795  -13.3947  146.6366 N   0  0  0  0  0  0  0  0  0  0  0  0
  4  5  1  0
  1 13  1  0
 13 14  2  0
 13 15  1  0
  8 16  1  0
  2 17  1  0
 17 18  1  0
 18 19  1  0
 19 20  1  0
 19 21  1  0
 18 22  1  0
 22 23  1  0
 26 29  1  0
 29 30  3  0
  5  8  2  0
  8  9  1  0
  9 12  2  0
 12 11  1  0
 11 10  2  0
 10  5  1  0
 23 24  2  0
 24 25  1  0
 25 26  2  0
 26 27  1  0
 27 28  2  0
 28 23  1  0
  1  2  2  0
  2  3  1  0
  3  4  2  0
  4  7  1  0
  7  6  2  0
  6  1  1  0
M  END

$$$$
No_1978-/dssg/home/sw_qyf/PocketFlow/Model-Generation-Results/5HT2A_7WC7_rec_A_10.pdb/2024-01-01-03-54-21/
     RDKit          3D

 22 22  0  0  0  0  0  0  0  0999 V2000
  -23.1746  -16.6014  144.8668 C   0  0  0  0  0  0  0  0  0  0  0  0
  -23.8963  -15.5346  144.7885 C   0  0  0  0  0  0  0  0  0  0  0  0
  -23.6398  -14.5115  145.3281 C   0  0  0  0  0  0  0  0  0  0  0  0
  -24.3241  -13.3648  145.1281 C   0  0  0  0  0  0  0  0  0  0  0  0
  -25.5072  -13.2953  144.4353 C   0  0  0  0  0  0  0  0  0  0  0  0
  -25.9151  -14.5889  143.8605 C   0  0  0  0  0  0  0  0  0  0  0  0
  -25.1243  -15.6356  144.0574 C   0  0  0  0  0  0  0  0  0  0  0  0
  -22.4970  -16.8404  145.8394 O   0  0  0  0  0  0  0  0  0  0  0  0
  -26.4518  -12.1531  144.3168 C   0  0  0  0  0  0  0  0  0  0  0  0
  -27.4297  -12.0700  143.3833 C   0  0  0  0  0  0  0  0  0  0  0  0
  -27.7014  -10.9174  142.8866 C   0  0  0  0  0  0  0  0  0  0  0  0
  -29.0284  -10.4923  142.9586 C   0  0  0  0  0  0  0  0  0  0  0  0
  -29.7018   -9.7728  141.9158 C   0  0  0  0  0  0  0  0  0  0  0  0
  -30.8090   -8.9110  142.2193 C   0  0  0  0  0  0  0  0  0  0  0  0
  -30.8936   -7.6901  141.6284 C   0  0  0  0  0  0  0  0  0  0  0  0
  -29.7614   -6.8073  142.1485 C   0  0  0  0  0  0  0  0  0  0  0  0
  -29.7583   -6.5996  143.5317 C   0  0  0  0  0  0  0  0  0  0  0  0
  -23.3166  -17.5682  143.9105 O   0  0  0  0  0  0  0  0  0  0  0  0
  -31.9025   -9.3779  142.8727 O   0  0  0  0  0  0  0  0  0  0  0  0
  -26.1176  -11.1199  145.0944 O   0  0  0  0  0  0  0  0  0  0  0  0
  -28.7983   -5.5459  143.9205 C   0  0  0  0  0  0  0  0  0  0  0  0
  -29.2866   -9.8748  140.7521 O   0  0  0  0  0  0  0  0  0  0  0  0
  1  2  1  0
  1  8  1  0
  5  9  1  0
  9 10  1  0
 10 11  1  0
 11 12  1  0
 12 13  1  0
 13 14  1  0
 14 15  1  0
 15 16  1  0
 16 17  1  0
  1 18  2  0
 14 19  1  0
  9 20  2  0
 17 21  2  0
 13 22  2  0
  2  3  2  0
  3  4  1  0
  4  5  2  0
  5  6  1  0
  6  7  2  0
  7  2  1  0
M  END

$$$$
No_1979-/dssg/home/sw_qyf/PocketFlow/Model-Generation-Results/5HT2A_7WC7_rec_A_10.pdb/2024-01-01-03-54-21/
     RDKit          3D

 13 14  0  0  0  0  0  0  0  0999 V2000
  -24.1553  -17.8465  145.7021 C   0  0  0  0  0  0  0  0  0  0  0  0
  -24.2855  -16.6364  145.3494 C   0  0  0  0  0  0  0  0  0  0  0  0
  -24.7211  -15.5955  146.2116 C   0  0  0  0  0  0  0  0  0  0  0  0
  -24.8538  -14.2010  145.8739 C   0  0  0  0  0  0  0  0  0  0  0  0
  -24.1440  -13.8321  144.7073 C   0  0  0  0  0  0  0  0  0  0  0  0
  -24.0661  -12.5356  144.4304 N   0  0  0  0  0  0  0  0  0  0  0  0
  -24.6157  -18.2704  146.9610 C   0  0  0  0  0  0  0  0  0  0  0  0
  -25.1305  -17.4023  147.9249 C   0  0  0  0  0  0  0  0  0  0  0  0
  -25.2112  -15.9965  147.5628 C   0  0  0  0  0  0  0  0  0  0  0  0
  -25.5251  -13.2066  146.5713 C   0  0  0  0  0  0  0  0  0  0  0  0
  -25.4065  -11.8486  146.3565 C   0  0  0  0  0  0  0  0  0  0  0  0
  -24.6390  -11.5647  145.1290 C   0  0  0  0  0  0  0  0  0  0  0  0
  -23.5538  -14.6017  143.9804 O   0  0  0  0  0  0  0  0  0  0  0  0
  3  4  1  0
  4  5  1  0
  5  6  1  0
  4 10  1  0
  6 12  1  0
 11 12  1  0
  5 13  2  0
 10 11  1  0
  1  2  2  0
  2  3  1  0
  3  9  2  0
  9  8  1  0
  8  7  2  0
  7  1  1  0
M  END

$$$$
No_1980-/dssg/home/sw_qyf/PocketFlow/Model-Generation-Results/5HT2A_7WC7_rec_A_10.pdb/2024-01-01-03-54-21/
     RDKit          3D

 13 13  0  0  0  0  0  0  0  0999 V2000
  -23.1746  -16.6014  144.8668 C   0  0  0  0  0  0  0  0  0  0  0  0
  -24.0189  -16.0564  145.8445 C   0  0  0  0  0  0  0  0  0  0  0  0
  -24.4850  -14.7380  145.6359 C   0  0  0  0  0  0  0  0  0  0  0  0
  -24.0244  -13.9858  144.5634 C   0  0  0  0  0  0  0  0  0  0  0  0
  -22.9814  -14.4736  143.8270 C   0  0  0  0  0  0  0  0  0  0  0  0
  -22.6517  -15.7450  143.9774 N   0  0  0  0  0  0  0  0  0  0  0  0
  -24.6946  -16.8254  146.9461 C   0  0  0  0  0  0  0  0  0  0  0  0
  -23.7818  -17.2433  147.8855 C   0  0  0  0  0  0  0  0  0  0  0  0
  -26.0016  -17.0037  147.0431 C   0  0  0  0  0  0  0  0  0  0  0  0
  -26.8584  -17.3956  146.1163 C   0  0  0  0  0  0  0  0  0  0  0  0
  -28.2747  -17.3654  146.2880 C   0  0  0  0  0  0  0  0  0  0  0  0
  -28.7082  -16.6645  147.5202 C   0  0  0  0  0  0  0  0  0  0  0  0
  -27.8829  -16.2101  148.4785 C   0  0  0  0  0  0  0  0  0  0  0  0
  2  7  1  0
  7  8  1  0
  7  9  1  0
  9 10  2  3
 10 11  1  0
 11 12  2  3
 12 13  1  0
  1  2  2  0
  2  3  1  0
  3  4  2  0
  4  5  1  0
  5  6  2  0
  6  1  1  0
M  END

$$$$
No_1981-/dssg/home/sw_qyf/PocketFlow/Model-Generation-Results/5HT2A_7WC7_rec_A_10.pdb/2024-01-01-03-54-21/
     RDKit          3D

 30 31  0  0  0  0  0  0  0  0999 V2000
  -23.1746  -16.6014  144.8668 C   0  0  0  0  0  0  0  0  0  0  0  0
  -23.7011  -17.0158  145.9774 C   0  0  0  0  0  0  0  0  0  0  0  0
  -23.7336  -18.2775  146.3737 C   0  0  0  0  0  0  0  0  0  0  0  0
  -23.8112  -15.3695  144.2738 C   0  0  0  0  0  0  0  0  0  0  0  0
  -24.2192  -14.3645  145.3045 C   0  0  0  0  0  0  0  0  0  0  0  0
  -24.1794  -12.9654  144.9287 C   0  0  0  0  0  0  0  0  0  0  0  0
  -24.8753  -12.0655  145.8396 C   0  0  0  0  0  0  0  0  0  0  0  0
  -24.6939  -16.0100  146.6338 C   0  0  0  0  0  0  0  0  0  0  0  0
  -24.7887  -14.7297  146.4151 C   0  0  0  0  0  0  0  0  0  0  0  0
  -26.2111  -11.6792  145.4587 C   0  0  0  0  0  0  0  0  0  0  0  0
  -26.5163  -10.9232  144.8271 C   0  0  0  0  0  0  0  0  0  0  0  0
  -27.9236  -10.4126  144.5107 C   0  0  0  0  0  0  0  0  0  0  0  0
  -28.9387  -11.0798  145.2810 C   0  0  0  0  0  0  0  0  0  0  0  0
  -28.5291  -12.0790  146.1965 C   0  0  0  0  0  0  0  0  0  0  0  0
  -27.1527  -12.3996  146.3478 C   0  0  0  0  0  0  0  0  0  0  0  0
  -29.6124  -12.7535  147.0014 C   0  0  0  0  0  0  0  0  0  0  0  0
  -30.3133  -12.0193  147.7881 O   0  0  0  0  0  0  0  0  0  0  0  0
  -29.8139  -14.0253  146.9699 N   0  0  0  0  0  0  0  0  0  0  0  0
  -22.9260  -19.0063  146.5034 O   0  0  0  0  0  0  0  0  0  0  0  0
  -24.9006  -18.7259  147.1273 N   0  0  0  0  0  0  0  0  0  0  0  0
  -28.2319   -9.4288  143.6245 N   0  0  0  0  0  0  0  0  0  0  0  0
  -29.0213   -8.5948  143.4033 C   0  0  0  0  0  0  0  0  0  0  0  0
  -29.1354   -7.8642  142.2014 C   0  0  0  0  0  0  0  0  0  0  0  0
  -29.7769   -8.1641  141.0878 C   0  0  0  0  0  0  0  0  0  0  0  0
  -29.5389   -7.4716  139.8328 C   0  0  0  0  0  0  0  0  0  0  0  0
  -29.6392   -8.1414  138.6684 C   0  0  0  0  0  0  0  0  0  0  0  0
  -28.4846   -8.6859  138.1393 C   0  0  0  0  0  0  0  0  0  0  0  0
  -28.3696   -8.8212  136.8937 F   0  0  0  0  0  0  0  0  0  0  0  0
  -28.2399   -9.9467  138.7587 F   0  0  0  0  0  0  0  0  0  0  0  0
  -27.2567   -8.0548  138.4929 F   0  0  0  0  0  0  0  0  0  0  0  0
  2  3  1  0
  5  6  1  0
  6  7  2  3
  7 10  1  0
 14 16  1  0
 16 17  1  0
 16 18  1  0
  3 19  2  0
  3 20  1  0
 12 21  1  0
 21 22  1  0
 22 23  2  3
 23 24  1  0
 24 25  2  3
 25 26  1  0
 26 27  1  0
 27 28  1  0
 27 29  1  0
 27 30  1  0
  1  2  2  0
  2  8  1  0
  8  9  2  0
  9  5  1  0
  5  4  2  0
  4  1  1  0
 10 11  2  0
 11 12  1  0
 12 13  2  0
 13 14  1  0
 14 15  2  0
 15 10  1  0
M  END

$$$$
No_1982-/dssg/home/sw_qyf/PocketFlow/Model-Generation-Results/5HT2A_7WC7_rec_A_10.pdb/2024-01-01-03-54-21/
     RDKit          3D

  7  6  0  0  0  0  0  0  0  0999 V2000
  -24.1553  -17.8465  145.7021 C   0  0  0  0  0  0  0  0  0  0  0  0
  -24.2855  -16.6364  145.3494 C   0  0  0  0  0  0  0  0  0  0  0  0
  -24.5733  -15.7651  145.9979 C   0  0  0  0  0  0  0  0  0  0  0  0
  -24.7161  -14.3061  145.5767 C   0  0  0  0  0  0  0  0  0  0  0  0
  -25.2891  -13.2114  146.2436 C   0  0  0  0  0  0  0  0  0  0  0  0
  -24.4500  -18.2508  147.0357 C   0  0  0  0  0  0  0  0  0  0  0  0
  -24.8725  -17.2652  147.9403 C   0  0  0  0  0  0  0  0  0  0  0  0
  1  2  1  0
  2  3  3  0
  3  4  1  0
  4  5  1  0
  1  6  2  3
  6  7  1  0
M  END

$$$$
No_1983-/dssg/home/sw_qyf/PocketFlow/Model-Generation-Results/5HT2A_7WC7_rec_A_10.pdb/2024-01-01-03-54-21/
     RDKit          3D

 24 25  0  0  0  0  0  0  0  0999 V2000
  -23.1746  -16.6014  144.8668 C   0  0  0  0  0  0  0  0  0  0  0  0
  -23.8963  -15.5346  144.7885 C   0  0  0  0  0  0  0  0  0  0  0  0
  -25.0304  -15.2549  144.5358 C   0  0  0  0  0  0  0  0  0  0  0  0
  -26.0482  -16.0541  145.3273 C   0  0  0  0  0  0  0  0  0  0  0  0
  -24.1314  -17.6118  145.6547 C   0  0  0  0  0  0  0  0  0  0  0  0
  -25.4664  -17.2664  145.8096 C   0  0  0  0  0  0  0  0  0  0  0  0
  -25.6086  -13.9402  144.0492 C   0  0  0  0  0  0  0  0  0  0  0  0
  -26.1208  -14.0264  142.8779 N   0  0  0  0  0  0  0  0  0  0  0  0
  -27.1428  -13.1285  142.4877 C   0  0  0  0  0  0  0  0  0  0  0  0
  -27.4516  -13.0786  141.1181 C   0  0  0  0  0  0  0  0  0  0  0  0
  -27.3649  -11.8270  140.4588 C   0  0  0  0  0  0  0  0  0  0  0  0
  -28.3859  -11.2292  140.1256 C   0  0  0  0  0  0  0  0  0  0  0  0
  -28.2740   -9.8744  139.4674 C   0  0  0  0  0  0  0  0  0  0  0  0
  -29.1061   -8.7473  139.6514 C   0  0  0  0  0  0  0  0  0  0  0  0
  -29.2469   -7.7546  138.7606 C   0  0  0  0  0  0  0  0  0  0  0  0
  -30.1385   -6.8871  139.0998 N   0  0  0  0  0  0  0  0  0  0  0  0
  -29.9840   -8.4403  140.8404 C   0  0  0  0  0  0  0  0  0  0  0  0
  -30.5512   -7.2206  140.4566 C   0  0  0  0  0  0  0  0  0  0  0  0
  -30.0038   -9.0694  142.0976 C   0  0  0  0  0  0  0  0  0  0  0  0
  -31.3350   -9.0975  142.7135 C   0  0  0  0  0  0  0  0  0  0  0  0
  -28.9481   -9.6820  142.7996 C   0  0  0  0  0  0  0  0  0  0  0  0
  -28.7549   -9.6259  144.1621 C   0  0  0  0  0  0  0  0  0  0  0  0
  -27.5841  -10.2045  144.7673 C   0  0  0  0  0  0  0  0  0  0  0  0
  -26.3468  -10.1109  144.1309 C   0  0  0  0  0  0  0  0  0  0  0  0
  3  7  1  0
  7  8  1  0
  8  9  1  0
  9 10  1  0
 10 11  1  0
 11 12  2  3
 12 13  1  0
 13 14  1  0
 14 15  2  0
 15 16  1  0
 14 17  1  0
 16 18  2  0
 17 18  1  0
 17 19  1  0
 19 20  1  0
 19 21  1  0
 21 22  2  3
 22 23  1  0
 23 24  2  0
  1  2  2  0
  2  3  1  0
  3  4  2  0
  4  6  1  0
  6  5  2  0
  5  1  1  0
M  END

$$$$
No_1984-/dssg/home/sw_qyf/PocketFlow/Model-Generation-Results/5HT2A_7WC7_rec_A_10.pdb/2024-01-01-03-54-21/
     RDKit          3D

 35 38  0  0  0  0  0  0  0  0999 V2000
  -23.1746  -16.6014  144.8668 C   0  0  0  0  0  0  0  0  0  0  0  0
  -23.8963  -15.5346  144.7885 C   0  0  0  0  0  0  0  0  0  0  0  0
  -23.6398  -14.5115  145.3281 C   0  0  0  0  0  0  0  0  0  0  0  0
  -24.3866  -13.2477  145.3906 C   0  0  0  0  0  0  0  0  0  0  0  0
  -23.7391  -12.0982  145.9891 C   0  0  0  0  0  0  0  0  0  0  0  0
  -25.7153  -13.1102  144.9365 C   0  0  0  0  0  0  0  0  0  0  0  0
  -26.3727  -11.9055  145.3022 C   0  0  0  0  0  0  0  0  0  0  0  0
  -27.2862  -11.3614  144.4865 C   0  0  0  0  0  0  0  0  0  0  0  0
  -27.2831  -10.1225  144.0582 C   0  0  0  0  0  0  0  0  0  0  0  0
  -28.4050   -9.3791  143.4219 C   0  0  0  0  0  0  0  0  0  0  0  0
  -29.2483   -8.7719  143.9508 C   0  0  0  0  0  0  0  0  0  0  0  0
  -30.5125   -8.2674  143.3233 C   0  0  0  0  0  0  0  0  0  0  0  0
  -30.6283   -8.5398  142.1358 C   0  0  0  0  0  0  0  0  0  0  0  0
  -29.6917   -9.3029  141.3891 C   0  0  0  0  0  0  0  0  0  0  0  0
  -28.6125   -9.7918  142.0723 C   0  0  0  0  0  0  0  0  0  0  0  0
  -27.8302  -10.4727  141.3462 F   0  0  0  0  0  0  0  0  0  0  0  0
  -23.6456  -17.6858  145.4854 C   0  0  0  0  0  0  0  0  0  0  0  0
  -24.5990  -17.4165  146.5726 C   0  0  0  0  0  0  0  0  0  0  0  0
  -24.0432  -17.5422  147.9175 C   0  0  0  0  0  0  0  0  0  0  0  0
  -24.8626  -17.2494  149.0472 C   0  0  0  0  0  0  0  0  0  0  0  0
  -26.2019  -16.8660  148.8007 C   0  0  0  0  0  0  0  0  0  0  0  0
  -26.6199  -16.5879  147.5198 C   0  0  0  0  0  0  0  0  0  0  0  0
  -25.7891  -16.9148  146.4044 C   0  0  0  0  0  0  0  0  0  0  0  0
  -28.0252  -16.1001  147.3978 C   0  0  0  0  0  0  0  0  0  0  0  0
  -28.4213  -15.2918  146.3080 C   0  0  0  0  0  0  0  0  0  0  0  0
  -27.3783  -14.6162  145.7674 C   0  0  0  0  0  0  0  0  0  0  0  0
  -26.7756  -13.2907  145.5614 C   0  0  0  0  0  0  0  0  0  0  0  0
  -27.9355  -12.5339  146.6431 C   0  0  0  0  0  0  0  0  0  0  0  0
  -24.9807  -11.6345  145.5074 F   0  0  0  0  0  0  0  0  0  0  0  0
  -22.6371  -11.6288  144.7870 Cl  0  0  0  0  0  0  0  0  0  0  0  0
  -24.3540  -17.4682  150.4295 C   0  0  0  0  0  0  0  0  0  0  0  0
  -23.1111  -17.3890  150.6591 O   0  0  0  0  0  0  0  0  0  0  0  0
  -29.1048  -12.1376  146.0756 C   0  0  0  0  0  0  0  0  0  0  0  0
  -28.8594  -11.0758  145.0645 C   0  0  0  0  0  0  0  0  0  0  0  0
  -25.2370  -17.7644  151.3358 O   0  0  0  0  0  0  0  0  0  0  0  0
  1  2  1  0
  2  3  2  3
  3  4  1  0
  4  5  1  0
  4  6  1  0
  6  7  1  0
  7  8  1  0
  8  9  2  3
  9 10  1  0
 15 16  1  0
  1 17  1  0
 17 18  1  0
 22 24  1  0
 24 25  1  0
 25 26  2  3
  6 27  1  0
 26 27  1  0
 27 28  1  0
  7 29  1  0
  5 30  1  0
 20 31  1  0
 31 32  1  0
 28 33  1  0
  8 34  1  0
 33 34  1  0
 31 35  2  0
 18 19  1  0
 19 20  2  0
 20 21  1  0
 21 22  2  0
 22 23  1  0
 23 18  2  0
 10 11  2  0
 11 12  1  0
 12 13  2  0
 13 14  1  0
 14 15  2  0
 15 10  1  0
M  END

$$$$
No_1985-/dssg/home/sw_qyf/PocketFlow/Model-Generation-Results/5HT2A_7WC7_rec_A_10.pdb/2024-01-01-03-54-21/
     RDKit          3D

 26 26  0  0  0  0  0  0  0  0999 V2000
  -23.1746  -16.6014  144.8668 C   0  0  0  0  0  0  0  0  0  0  0  0
  -23.7011  -17.0158  145.9774 C   0  0  0  0  0  0  0  0  0  0  0  0
  -24.2134  -16.0722  146.8877 C   0  0  0  0  0  0  0  0  0  0  0  0
  -23.6191  -15.3702  144.4057 C   0  0  0  0  0  0  0  0  0  0  0  0
  -24.2910  -14.3938  145.2254 C   0  0  0  0  0  0  0  0  0  0  0  0
  -24.7062  -16.4822  148.2480 C   0  0  0  0  0  0  0  0  0  0  0  0
  -24.5977  -14.8093  146.5365 C   0  0  0  0  0  0  0  0  0  0  0  0
  -23.8258  -17.1870  149.0834 C   0  0  0  0  0  0  0  0  0  0  0  0
  -23.9617  -17.1271  150.4297 C   0  0  0  0  0  0  0  0  0  0  0  0
  -24.5060  -13.0046  144.7862 C   0  0  0  0  0  0  0  0  0  0  0  0
  -24.7780  -12.1093  145.9106 C   0  0  0  0  0  0  0  0  0  0  0  0
  -25.5691  -10.9403  145.5342 C   0  0  0  0  0  0  0  0  0  0  0  0
  -26.7061  -11.2441  144.7003 C   0  0  0  0  0  0  0  0  0  0  0  0
  -27.3558  -10.0850  144.1994 C   0  0  0  0  0  0  0  0  0  0  0  0
  -28.4611  -10.1991  143.4499 C   0  0  0  0  0  0  0  0  0  0  0  0
  -29.0136   -9.2180  142.7708 C   0  0  0  0  0  0  0  0  0  0  0  0
  -29.8761   -9.4510  141.7011 C   0  0  0  0  0  0  0  0  0  0  0  0
  -30.6241   -8.3270  141.2402 C   0  0  0  0  0  0  0  0  0  0  0  0
  -29.8397   -7.1146  141.2054 C   0  0  0  0  0  0  0  0  0  0  0  0
  -29.8328   -6.2831  142.1003 C   0  0  0  0  0  0  0  0  0  0  0  0
  -29.0522   -6.0126  142.9844 C   0  0  0  0  0  0  0  0  0  0  0  0
  -28.5212   -4.6796  143.0451 C   0  0  0  0  0  0  0  0  0  0  0  0
  -29.0111   -3.6967  142.1849 C   0  0  0  0  0  0  0  0  0  0  0  0
  -28.9412   -2.3355  142.6175 C   0  0  0  0  0  0  0  0  0  0  0  0
  -29.1108   -2.0302  143.9433 C   0  0  0  0  0  0  0  0  0  0  0  0
  -29.0686   -0.5979  144.2706 C   0  0  0  0  0  0  0  0  0  0  0  0
  3  6  1  0
  6  8  2  3
  8  9  1  0
  5 10  1  0
 10 11  1  0
 11 12  1  0
 12 13  1  0
 13 14  1  0
 14 15  1  0
 15 16  2  3
 16 17  1  0
 17 18  1  0
 18 19  1  0
 19 20  2  3
 20 21  1  0
 21 22  1  0
 22 23  1  0
 23 24  1  0
 24 25  1  0
 25 26  1  0
  1  2  2  0
  2  3  1  0
  3  7  2  0
  7  5  1  0
  5  4  2  0
  4  1  1  0
M  END

$$$$
No_1986-/dssg/home/sw_qyf/PocketFlow/Model-Generation-Results/5HT2A_7WC7_rec_A_10.pdb/2024-01-01-03-54-21/
     RDKit          3D

 33 35  0  0  0  0  0  0  0  0999 V2000
  -24.1553  -17.8465  145.7021 C   0  0  0  0  0  0  0  0  0  0  0  0
  -24.6364  -17.2931  146.7091 C   0  0  0  0  0  0  0  0  0  0  0  0
  -24.5709  -15.9334  146.8074 C   0  0  0  0  0  0  0  0  0  0  0  0
  -24.3883  -15.1807  145.6115 C   0  0  0  0  0  0  0  0  0  0  0  0
  -23.6710  -15.8133  144.5990 C   0  0  0  0  0  0  0  0  0  0  0  0
  -23.4433  -15.0452  143.5418 O   0  0  0  0  0  0  0  0  0  0  0  0
  -23.7552  -17.1183  144.5553 C   0  0  0  0  0  0  0  0  0  0  0  0
  -23.9993  -19.3745  145.6779 C   0  0  0  0  0  0  0  0  0  0  0  0
  -24.4148  -13.6620  145.4946 C   0  0  0  0  0  0  0  0  0  0  0  0
  -25.6069  -13.0200  145.9020 C   0  0  0  0  0  0  0  0  0  0  0  0
  -26.3362  -12.3583  145.0043 C   0  0  0  0  0  0  0  0  0  0  0  0
  -27.7918  -12.1166  145.3162 C   0  0  0  0  0  0  0  0  0  0  0  0
  -28.6167  -11.2398  144.6747 C   0  0  0  0  0  0  0  0  0  0  0  0
  -29.6833  -10.5220  145.3324 C   0  0  0  0  0  0  0  0  0  0  0  0
  -30.3083   -9.6384  144.6772 O   0  0  0  0  0  0  0  0  0  0  0  0
  -31.2212   -9.8482  143.8096 C   0  0  0  0  0  0  0  0  0  0  0  0
  -30.6422   -9.7689  142.5202 C   0  0  0  0  0  0  0  0  0  0  0  0
  -30.1724   -8.4970  142.0303 C   0  0  0  0  0  0  0  0  0  0  0  0
  -29.4111   -8.3684  140.8486 C   0  0  0  0  0  0  0  0  0  0  0  0
  -29.8651   -8.5896  139.8716 C   0  0  0  0  0  0  0  0  0  0  0  0
  -28.8952   -8.4392  138.6605 C   0  0  0  0  0  0  0  0  0  0  0  0
  -28.9475   -7.5481  137.8093 C   0  0  0  0  0  0  0  0  0  0  0  0
  -27.9557   -7.6301  136.7574 C   0  0  0  0  0  0  0  0  0  0  0  0
  -32.2134   -8.6285  143.7500 C   0  0  0  0  0  0  0  0  0  0  0  0
  -31.5136   -7.6598  142.7766 C   0  0  0  0  0  0  0  0  0  0  0  0
  -28.4614  -13.0369  146.1691 C   0  0  0  0  0  0  0  0  0  0  0  0
  -28.9624  -14.0692  146.0138 C   0  0  0  0  0  0  0  0  0  0  0  0
  -29.5861  -14.8678  147.0881 C   0  0  0  0  0  0  0  0  0  0  0  0
  -28.7793  -15.7653  147.7128 C   0  0  0  0  0  0  0  0  0  0  0  0
  -29.1003  -16.2253  149.0785 C   0  0  0  0  0  0  0  0  0  0  0  0
  -30.2864  -15.8841  149.6645 C   0  0  0  0  0  0  0  0  0  0  0  0
  -30.8826  -14.6841  149.1801 C   0  0  0  0  0  0  0  0  0  0  0  0
  -30.5390  -14.1533  147.8929 C   0  0  0  0  0  0  0  0  0  0  0  0
  5  6  1  0
  1  8  1  0
  4  9  1  0
  9 10  1  0
 10 11  1  0
 11 12  1  0
 12 13  1  0
 13 14  1  0
 14 15  1  0
 15 16  1  0
 16 17  1  0
 17 18  1  0
 18 19  1  0
 19 20  1  0
 20 21  1  0
 21 22  2  3
 22 23  1  0
 16 24  1  0
 18 25  1  0
 24 25  1  0
 12 26  1  0
 26 27  2  3
 27 28  1  0
 28 29  2  0
 29 30  1  0
 30 31  2  0
 31 32  1  0
 32 33  2  0
 33 28  1  0
  1  2  2  0
  2  3  1  0
  3  4  2  0
  4  5  1  0
  5  7  2  0
  7  1  1  0
M  END

$$$$
No_1987-/dssg/home/sw_qyf/PocketFlow/Model-Generation-Results/5HT2A_7WC7_rec_A_10.pdb/2024-01-01-03-54-21/
     RDKit          3D

 14 14  0  0  0  0  0  0  0  0999 V2000
  -23.1746  -16.6014  144.8668 C   0  0  0  0  0  0  0  0  0  0  0  0
  -23.8963  -15.5346  144.7885 C   0  0  0  0  0  0  0  0  0  0  0  0
  -24.5755  -15.0383  145.9043 C   0  0  0  0  0  0  0  0  0  0  0  0
  -24.6688  -15.8869  147.0363 C   0  0  0  0  0  0  0  0  0  0  0  0
  -24.0226  -17.0824  147.0622 C   0  0  0  0  0  0  0  0  0  0  0  0
  -23.2575  -17.4593  145.9560 C   0  0  0  0  0  0  0  0  0  0  0  0
  -25.3271  -13.7158  145.9348 C   0  0  0  0  0  0  0  0  0  0  0  0
  -24.7096  -12.7416  145.4939 C   0  0  0  0  0  0  0  0  0  0  0  0
  -25.3472  -11.3768  145.4559 C   0  0  0  0  0  0  0  0  0  0  0  0
  -26.7415  -11.3445  145.8372 C   0  0  0  0  0  0  0  0  0  0  0  0
  -27.3557  -12.4597  146.3633 C   0  0  0  0  0  0  0  0  0  0  0  0
  -26.6640  -13.7217  146.3773 C   0  0  0  0  0  0  0  0  0  0  0  0
  -29.0245  -12.3714  146.8560 S   0  0  0  0  0  0  0  0  0  0  0  0
  -27.4567  -14.8789  146.8309 C   0  0  0  0  0  0  0  0  0  0  0  0
  3  7  1  0
  7  8  2  3
  8  9  1  0
  9 10  2  3
 10 11  1  0
  7 12  1  0
 11 13  1  0
 12 14  1  0
  1  2  2  0
  2  3  1  0
  3  4  2  0
  4  5  1  0
  5  6  2  0
  6  1  1  0
M  END

$$$$
No_1988-/dssg/home/sw_qyf/PocketFlow/Model-Generation-Results/5HT2A_7WC7_rec_A_10.pdb/2024-01-01-03-54-21/
     RDKit          3D

 35 37  0  0  0  0  0  0  0  0999 V2000
  -23.8998  -17.8495  145.5131 N   0  0  0  0  0  0  0  0  0  0  0  0
  -24.1393  -18.2577  146.6176 C   0  0  0  0  0  0  0  0  0  0  0  0
  -24.3812  -16.7191  145.0677 C   0  0  0  0  0  0  0  0  0  0  0  0
  -24.0317  -16.0821  143.9392 N   0  0  0  0  0  0  0  0  0  0  0  0
  -24.6353  -17.5987  147.5425 N   0  0  0  0  0  0  0  0  0  0  0  0
  -25.0854  -16.3345  147.3768 C   0  0  0  0  0  0  0  0  0  0  0  0
  -24.8206  -15.7601  146.1499 C   0  0  0  0  0  0  0  0  0  0  0  0
  -25.2705  -14.3892  146.0206 C   0  0  0  0  0  0  0  0  0  0  0  0
  -24.8999  -13.7648  144.7928 C   0  0  0  0  0  0  0  0  0  0  0  0
  -24.3442  -14.7198  143.7341 C   0  0  0  0  0  0  0  0  0  0  0  0
  -25.0955  -12.5276  144.5362 O   0  0  0  0  0  0  0  0  0  0  0  0
  -25.0242  -11.4820  145.4617 C   0  0  0  0  0  0  0  0  0  0  0  0
  -26.4738  -11.2793  145.9760 C   0  0  0  0  0  0  0  0  0  0  0  0
  -27.4872  -11.5187  145.0287 C   0  0  0  0  0  0  0  0  0  0  0  0
  -27.5506  -10.8779  143.8418 C   0  0  0  0  0  0  0  0  0  0  0  0
  -28.8084  -10.4156  143.3361 C   0  0  0  0  0  0  0  0  0  0  0  0
  -29.0387  -10.1291  142.0048 C   0  0  0  0  0  0  0  0  0  0  0  0
  -30.0999   -9.3146  141.6026 C   0  0  0  0  0  0  0  0  0  0  0  0
  -29.8798   -8.2565  140.6547 C   0  0  0  0  0  0  0  0  0  0  0  0
  -28.8462   -8.4257  139.6916 C   0  0  0  0  0  0  0  0  0  0  0  0
  -27.9145   -9.5361  139.9105 C   0  0  0  0  0  0  0  0  0  0  0  0
  -27.9439  -10.2474  141.1224 C   0  0  0  0  0  0  0  0  0  0  0  0
  -31.3301   -9.3118  142.4681 C   0  0  0  0  0  0  0  0  0  0  0  0
  -32.2392   -9.8525  142.2046 O   0  0  0  0  0  0  0  0  0  0  0  0
  -31.3429   -8.3620  143.5623 N   0  0  0  0  0  0  0  0  0  0  0  0
  -28.5472  -12.3349  145.5092 C   0  0  0  0  0  0  0  0  0  0  0  0
  -28.7361  -12.4333  146.9654 C   0  0  0  0  0  0  0  0  0  0  0  0
  -30.0492  -12.8706  147.4406 C   0  0  0  0  0  0  0  0  0  0  0  0
  -30.9032  -12.6493  146.9399 F   0  0  0  0  0  0  0  0  0  0  0  0
  -30.0797  -12.3643  148.8334 F   0  0  0  0  0  0  0  0  0  0  0  0
  -29.8878  -14.2415  147.6876 F   0  0  0  0  0  0  0  0  0  0  0  0
  -28.7512   -7.6950  138.6150 N   0  0  0  0  0  0  0  0  0  0  0  0
  -27.9737   -7.9814  137.5374 C   0  0  0  0  0  0  0  0  0  0  0  0
  -24.7925  -18.0775  149.0175 C   0  0  0  0  0  0  0  0  0  0  0  0
  -23.7922  -17.2925  149.8541 C   0  0  0  0  0  0  0  0  0  0  0  0
  1  2  1  0
  2  5  1  0
  5  6  1  0
  9 11  1  0
 11 12  1  0
 12 13  1  0
 13 14  1  0
 14 15  1  0
 15 16  2  3
 16 17  1  0
 18 23  1  0
 23 24  2  0
 23 25  1  0
 14 26  1  0
 26 27  1  0
 27 28  1  0
 28 29  1  0
 28 30  1  0
 28 31  1  0
 20 32  1  0
 32 33  2  0
  5 34  1  0
 34 35  1  0
  1  3  1  0
  7  6  1  0
 17 18  2  0
 18 19  1  0
 19 20  2  0
 20 21  1  0
 21 22  2  0
 22 17  1  0
  3  4  2  0
  4 10  1  0
 10  9  2  0
  9  8  1  0
  8  7  2  0
  7  3  1  0
M  END

$$$$
No_1989-/dssg/home/sw_qyf/PocketFlow/Model-Generation-Results/5HT2A_7WC7_rec_A_10.pdb/2024-01-01-03-54-21/
     RDKit          3D

 15 16  0  0  0  0  0  0  0  0999 V2000
  -23.1746  -16.6014  144.8668 C   0  0  0  0  0  0  0  0  0  0  0  0
  -23.8963  -15.5346  144.7885 C   0  0  0  0  0  0  0  0  0  0  0  0
  -24.5755  -15.0383  145.9043 C   0  0  0  0  0  0  0  0  0  0  0  0
  -25.0618  -13.6819  146.0347 C   0  0  0  0  0  0  0  0  0  0  0  0
  -24.0242  -12.8249  145.9592 C   0  0  0  0  0  0  0  0  0  0  0  0
  -23.5540  -17.4786  146.0177 C   0  0  0  0  0  0  0  0  0  0  0  0
  -24.1966  -17.0989  147.1375 C   0  0  0  0  0  0  0  0  0  0  0  0
  -24.7054  -15.8596  147.1718 C   0  0  0  0  0  0  0  0  0  0  0  0
  -26.3744  -13.2427  146.0781 C   0  0  0  0  0  0  0  0  0  0  0  0
  -27.4606  -13.9316  146.4446 C   0  0  0  0  0  0  0  0  0  0  0  0
  -28.6980  -13.3249  146.5734 C   0  0  0  0  0  0  0  0  0  0  0  0
  -28.8437  -11.9758  146.1019 C   0  0  0  0  0  0  0  0  0  0  0  0
  -27.8085  -11.3452  145.5042 C   0  0  0  0  0  0  0  0  0  0  0  0
  -26.5032  -11.9039  145.5819 C   0  0  0  0  0  0  0  0  0  0  0  0
  -30.1457  -11.4610  146.0402 N   0  0  0  0  0  0  0  0  0  0  0  0
  3  4  1  0
  4  5  1  0
  4  9  1  0
 12 15  1  0
  1  2  2  0
  2  3  1  0
  3  8  2  0
  8  7  1  0
  7  6  2  0
  6  1  1  0
  9 10  2  0
 10 11  1  0
 11 12  2  0
 12 13  1  0
 13 14  2  0
 14  9  1  0
M  END

$$$$
No_1990-/dssg/home/sw_qyf/PocketFlow/Model-Generation-Results/5HT2A_7WC7_rec_A_10.pdb/2024-01-01-03-54-21/
     RDKit          3D

 14 15  0  0  0  0  0  0  0  0999 V2000
  -24.1553  -17.8465  145.7021 C   0  0  0  0  0  0  0  0  0  0  0  0
  -24.2856  -16.6364  145.3494 C   0  0  0  0  0  0  0  0  0  0  0  0
  -25.0033  -15.6772  146.0737 C   0  0  0  0  0  0  0  0  0  0  0  0
  -25.6964  -16.1810  147.2049 C   0  0  0  0  0  0  0  0  0  0  0  0
  -24.8143  -18.3454  146.8324 C   0  0  0  0  0  0  0  0  0  0  0  0
  -25.5292  -17.4614  147.6373 C   0  0  0  0  0  0  0  0  0  0  0  0
  -23.5869  -16.0353  144.1321 C   0  0  0  0  0  0  0  0  0  0  0  0
  -23.9931  -14.8269  143.7612 N   0  0  0  0  0  0  0  0  0  0  0  0
  -25.1830  -14.3109  145.6737 C   0  0  0  0  0  0  0  0  0  0  0  0
  -24.5957  -13.8661  144.4971 C   0  0  0  0  0  0  0  0  0  0  0  0
  -26.5844  -13.8472  145.9411 C   0  0  0  0  0  0  0  0  0  0  0  0
  -27.6853  -14.3855  146.0286 C   0  0  0  0  0  0  0  0  0  0  0  0
  -28.8353  -13.8072  146.3887 C   0  0  0  0  0  0  0  0  0  0  0  0
  -30.0108  -14.2994  146.9861 C   0  0  0  0  0  0  0  0  0  0  0  0
  9 11  1  0
 11 12  1  0
 12 13  2  3
 13 14  1  0
  3  9  1  0
  9 10  2  0
 10  8  1  0
  8  7  2  0
  7  2  1  0
  1  2  2  0
  2  3  1  0
  3  4  2  0
  4  6  1  0
  6  5  2  0
  5  1  1  0
M  END

$$$$
No_1991-/dssg/home/sw_qyf/PocketFlow/Model-Generation-Results/5HT2A_7WC7_rec_A_10.pdb/2024-01-01-03-54-21/
     RDKit          3D

 35 39  0  0  0  0  0  0  0  0999 V2000
  -23.1746  -16.6014  144.8668 C   0  0  0  0  0  0  0  0  0  0  0  0
  -23.7011  -17.0158  145.9774 C   0  0  0  0  0  0  0  0  0  0  0  0
  -24.2134  -16.0722  146.8877 C   0  0  0  0  0  0  0  0  0  0  0  0
  -23.3742  -15.2706  144.3922 C   0  0  0  0  0  0  0  0  0  0  0  0
  -24.0445  -14.2973  145.2608 C   0  0  0  0  0  0  0  0  0  0  0  0
  -24.4773  -14.7066  146.5258 C   0  0  0  0  0  0  0  0  0  0  0  0
  -24.1523  -12.8989  145.0691 C   0  0  0  0  0  0  0  0  0  0  0  0
  -23.0172  -12.0983  145.4541 C   0  0  0  0  0  0  0  0  0  0  0  0
  -23.5825  -18.4395  146.4343 C   0  0  0  0  0  0  0  0  0  0  0  0
  -22.6803  -18.9209  146.7630 O   0  0  0  0  0  0  0  0  0  0  0  0
  -24.7737  -19.1034  146.3702 O   0  0  0  0  0  0  0  0  0  0  0  0
  -25.4444  -12.3263  145.5793 C   0  0  0  0  0  0  0  0  0  0  0  0
  -26.0590  -11.2518  144.8547 C   0  0  0  0  0  0  0  0  0  0  0  0
  -27.4589  -11.0051  144.8749 C   0  0  0  0  0  0  0  0  0  0  0  0
  -28.1767  -11.8514  144.5900 C   0  0  0  0  0  0  0  0  0  0  0  0
  -29.6590  -11.6422  145.0510 C   0  0  0  0  0  0  0  0  0  0  0  0
  -29.5233  -10.5480  146.2592 C   0  0  0  0  0  0  0  0  0  0  0  0
  -28.4761  -10.8827  146.7423 C   0  0  0  0  0  0  0  0  0  0  0  0
  -27.4518  -11.5010  146.1914 C   0  0  0  0  0  0  0  0  0  0  0  0
  -26.4447  -12.2160  146.6935 N   0  0  0  0  0  0  0  0  0  0  0  0
  -30.2723  -12.5583  145.6948 O   0  0  0  0  0  0  0  0  0  0  0  0
  -28.1701  -12.6674  143.5446 O   0  0  0  0  0  0  0  0  0  0  0  0
  -27.0244  -12.5050  142.7236 C   0  0  0  0  0  0  0  0  0  0  0  0
  -27.1479  -13.6114  141.6625 C   0  0  0  0  0  0  0  0  0  0  0  0
  -27.3646  -12.8721  140.3374 C   0  0  0  0  0  0  0  0  0  0  0  0
  -28.4556  -12.0057  140.2546 C   0  0  0  0  0  0  0  0  0  0  0  0
  -28.7455  -11.1850  141.4144 C   0  0  0  0  0  0  0  0  0  0  0  0
  -27.2434  -11.3545  142.0320 O   0  0  0  0  0  0  0  0  0  0  0  0
  -28.9414   -9.7405  141.2205 C   0  0  0  0  0  0  0  0  0  0  0  0
  -28.3901   -8.9270  140.2875 C   0  0  0  0  0  0  0  0  0  0  0  0
  -28.8899   -7.6797  139.9476 C   0  0  0  0  0  0  0  0  0  0  0  0
  -30.1928   -9.0322  141.8246 C   0  0  0  0  0  0  0  0  0  0  0  0
  -30.5947   -7.8402  141.6472 C   0  0  0  0  0  0  0  0  0  0  0  0
  -29.9081   -7.0886  140.7102 C   0  0  0  0  0  0  0  0  0  0  0  0
  -26.1232  -12.3135  139.9517 O   0  0  0  0  0  0  0  0  0  0  0  0
  5  7  1  0
  7  8  1  0
  2  9  1  0
  9 10  2  0
  9 11  1  0
  7 12  1  0
 12 13  1  0
 13 14  2  0
 14 15  1  0
 15 16  1  0
 16 17  1  0
 17 18  1  0
 14 19  1  0
 18 19  1  0
 12 20  1  0
 19 20  2  0
 16 21  1  0
 15 22  1  0
 22 23  1  0
 23 24  1  0
 24 25  1  0
 25 26  2  0
 26 27  1  0
 23 28  1  0
 27 28  1  0
 27 29  1  0
 25 35  1  0
  1  2  2  0
  2  3  1  0
  3  6  2  0
  6  5  1  0
  5  4  2  0
  4  1  1  0
 29 30  2  0
 30 31  1  0
 31 34  2  0
 34 33  1  0
 33 32  2  0
 32 29  1  0
M  END

$$$$
No_1992-/dssg/home/sw_qyf/PocketFlow/Model-Generation-Results/5HT2A_7WC7_rec_A_10.pdb/2024-01-01-03-54-21/
     RDKit          3D

 16 16  0  0  0  0  0  0  0  0999 V2000
  -23.1746  -16.6014  144.8668 C   0  0  0  0  0  0  0  0  0  0  0  0
  -24.0189  -16.0564  145.8445 C   0  0  0  0  0  0  0  0  0  0  0  0
  -24.4145  -16.8299  146.9062 C   0  0  0  0  0  0  0  0  0  0  0  0
  -23.8925  -17.9780  147.0944 C   0  0  0  0  0  0  0  0  0  0  0  0
  -24.4583  -14.6154  145.6463 C   0  0  0  0  0  0  0  0  0  0  0  0
  -25.4103  -14.0649  146.5111 C   0  0  0  0  0  0  0  0  0  0  0  0
  -25.7806  -12.7243  146.3180 C   0  0  0  0  0  0  0  0  0  0  0  0
  -26.4696  -12.3702  145.1922 C   0  0  0  0  0  0  0  0  0  0  0  0
  -26.7654  -11.0671  144.9784 C   0  0  0  0  0  0  0  0  0  0  0  0
  -27.9955  -10.6669  144.4218 C   0  0  0  0  0  0  0  0  0  0  0  0
  -29.1810  -10.6227  145.2147 C   0  0  0  0  0  0  0  0  0  0  0  0
  -30.3330   -9.9561  144.8451 C   0  0  0  0  0  0  0  0  0  0  0  0
  -30.3481   -9.3301  143.5764 C   0  0  0  0  0  0  0  0  0  0  0  0
  -29.2231   -9.2700  142.7948 C   0  0  0  0  0  0  0  0  0  0  0  0
  -28.0344  -10.0089  143.2193 C   0  0  0  0  0  0  0  0  0  0  0  0
  -31.4131   -8.3371  143.4242 C   0  0  0  0  0  0  0  0  0  0  0  0
  1  2  1  0
  2  3  1  0
  3  4  1  0
  2  5  1  0
  5  6  2  3
  6  7  1  0
  7  8  1  0
  8  9  1  0
  9 10  1  0
 13 16  1  0
 10 11  2  0
 11 12  1  0
 12 13  2  0
 13 14  1  0
 14 15  2  0
 15 10  1  0
M  END

$$$$
No_1993-/dssg/home/sw_qyf/PocketFlow/Model-Generation-Results/5HT2A_7WC7_rec_A_10.pdb/2024-01-01-03-54-21/
     RDKit          3D

 16 18  0  0  0  0  0  0  0  0999 V2000
  -24.1553  -17.8465  145.7021 C   0  0  0  0  0  0  0  0  0  0  0  0
  -24.2856  -16.6364  145.3494 C   0  0  0  0  0  0  0  0  0  0  0  0
  -24.7211  -15.5955  146.2115 C   0  0  0  0  0  0  0  0  0  0  0  0
  -24.8539  -14.2010  145.8739 C   0  0  0  0  0  0  0  0  0  0  0  0
  -24.1440  -13.8321  144.7074 C   0  0  0  0  0  0  0  0  0  0  0  0
  -23.4275  -14.8130  143.9942 C   0  0  0  0  0  0  0  0  0  0  0  0
  -23.5139  -16.1160  144.3501 C   0  0  0  0  0  0  0  0  0  0  0  0
  -25.0898  -18.4665  146.6156 C   0  0  0  0  0  0  0  0  0  0  0  0
  -25.7382  -17.5265  147.4994 C   0  0  0  0  0  0  0  0  0  0  0  0
  -25.8940  -16.1294  147.1653 C   0  0  0  0  0  0  0  0  0  0  0  0
  -23.8845  -12.4996  144.5429 O   0  0  0  0  0  0  0  0  0  0  0  0
  -22.8525  -11.9982  145.4437 C   0  0  0  0  0  0  0  0  0  0  0  0
  -25.4261  -13.2226  146.8110 C   0  0  0  0  0  0  0  0  0  0  0  0
  -25.0788  -11.8624  146.5456 C   0  0  0  0  0  0  0  0  0  0  0  0
  -23.9318  -11.2874  146.1957 O   0  0  0  0  0  0  0  0  0  0  0  0
  -26.0823  -10.9478  146.5551 O   0  0  0  0  0  0  0  0  0  0  0  0
  3  4  1  0
  4  5  1  0
  5  6  1  0
  2  7  1  0
  6  7  1  0
  5 11  1  0
 11 12  1  0
  4 13  1  0
 13 14  1  0
 12 15  1  0
 14 15  1  0
 14 16  2  0
  1  2  2  0
  2  3  1  0
  3 10  2  0
 10  9  1  0
  9  8  2  0
  8  1  1  0
M  END

$$$$
No_1994-/dssg/home/sw_qyf/PocketFlow/Model-Generation-Results/5HT2A_7WC7_rec_A_10.pdb/2024-01-01-03-54-21/
     RDKit          3D

 20 22  0  0  0  0  0  0  0  0999 V2000
  -24.1553  -17.8465  145.7021 C   0  0  0  0  0  0  0  0  0  0  0  0
  -24.2856  -16.6364  145.3494 C   0  0  0  0  0  0  0  0  0  0  0  0
  -25.0033  -15.6772  146.0737 C   0  0  0  0  0  0  0  0  0  0  0  0
  -24.8869  -14.2981  145.8377 C   0  0  0  0  0  0  0  0  0  0  0  0
  -24.0151  -13.8866  144.8228 C   0  0  0  0  0  0  0  0  0  0  0  0
  -24.9248  -18.3616  146.7605 C   0  0  0  0  0  0  0  0  0  0  0  0
  -23.8442  -12.4522  144.5894 C   0  0  0  0  0  0  0  0  0  0  0  0
  -25.6816  -17.5385  147.5289 C   0  0  0  0  0  0  0  0  0  0  0  0
  -25.6700  -16.1890  147.3124 C   0  0  0  0  0  0  0  0  0  0  0  0
  -24.6139  -11.5586  145.3495 C   0  0  0  0  0  0  0  0  0  0  0  0
  -25.5389  -11.9560  146.3204 C   0  0  0  0  0  0  0  0  0  0  0  0
  -25.6419  -13.3524  146.6082 C   0  0  0  0  0  0  0  0  0  0  0  0
  -23.6205  -16.1777  144.2450 N   0  0  0  0  0  0  0  0  0  0  0  0
  -23.4198  -14.8045  144.0524 C   0  0  0  0  0  0  0  0  0  0  0  0
  -26.2148  -11.0618  146.9978 F   0  0  0  0  0  0  0  0  0  0  0  0
  -23.5810  -18.7942  144.9283 O   0  0  0  0  0  0  0  0  0  0  0  0
  -23.5846  -20.1290  145.4411 C   0  0  0  0  0  0  0  0  0  0  0  0
  -24.6399  -20.6366  145.6844 O   0  0  0  0  0  0  0  0  0  0  0  0
  -22.4591  -20.6543  145.5347 O   0  0  0  0  0  0  0  0  0  0  0  0
  -24.9161  -19.5600  147.2785 O   0  0  0  0  0  0  0  0  0  0  0  0
 11 15  1  0
  1 16  1  0
 16 17  1  0
 17 18  2  0
 17 19  1  0
  6 20  1  0
  1  2  2  0
  3  9  2  0
  9  8  1  0
  8  6  2  0
  6  1  1  0
  2  3  1  0
  3  4  1  0
  5 14  1  0
 14 13  2  0
 13  2  1  0
  4  5  2  0
  5  7  1  0
  7 10  2  0
 10 11  1  0
 11 12  2  0
 12  4  1  0
M  END

$$$$
No_1995-/dssg/home/sw_qyf/PocketFlow/Model-Generation-Results/5HT2A_7WC7_rec_A_10.pdb/2024-01-01-03-54-21/
     RDKit          3D

 24 25  0  0  0  0  0  0  0  0999 V2000
  -23.1746  -16.6014  144.8668 C   0  0  0  0  0  0  0  0  0  0  0  0
  -23.7011  -17.0158  145.9774 C   0  0  0  0  0  0  0  0  0  0  0  0
  -24.2134  -16.0722  146.8877 C   0  0  0  0  0  0  0  0  0  0  0  0
  -24.7882  -16.3410  148.2078 C   0  0  0  0  0  0  0  0  0  0  0  0
  -23.4231  -15.2781  144.3679 C   0  0  0  0  0  0  0  0  0  0  0  0
  -24.0726  -14.2968  145.2170 C   0  0  0  0  0  0  0  0  0  0  0  0
  -24.2425  -12.9518  144.8262 C   0  0  0  0  0  0  0  0  0  0  0  0
  -24.4659  -14.7142  146.4566 C   0  0  0  0  0  0  0  0  0  0  0  0
  -25.7164  -12.2786  145.1352 S   0  0  0  0  0  0  0  0  0  0  0  0
  -24.1032  -17.2414  149.0767 C   0  0  0  0  0  0  0  0  0  0  0  0
  -24.5992  -17.4784  150.3926 C   0  0  0  0  0  0  0  0  0  0  0  0
  -25.4979  -10.9070  144.9550 O   0  0  0  0  0  0  0  0  0  0  0  0
  -26.7523  -12.7284  144.0468 N   0  0  0  0  0  0  0  0  0  0  0  0
  -26.1435  -12.5094  146.5177 O   0  0  0  0  0  0  0  0  0  0  0  0
  -23.5969  -18.1938  146.4760 F   0  0  0  0  0  0  0  0  0  0  0  0
  -27.7162  -11.9468  143.5898 C   0  0  0  0  0  0  0  0  0  0  0  0
  -27.7513  -11.7366  142.1517 C   0  0  0  0  0  0  0  0  0  0  0  0
  -28.5149  -10.7439  141.5940 C   0  0  0  0  0  0  0  0  0  0  0  0
  -28.4527  -10.3544  140.2275 C   0  0  0  0  0  0  0  0  0  0  0  0
  -27.5882  -11.1505  139.4101 C   0  0  0  0  0  0  0  0  0  0  0  0
  -26.8717  -12.2040  139.9720 C   0  0  0  0  0  0  0  0  0  0  0  0
  -26.9270  -12.5048  141.3088 C   0  0  0  0  0  0  0  0  0  0  0  0
  -28.7796  -11.7496  144.3577 O   0  0  0  0  0  0  0  0  0  0  0  0
  -26.0441  -12.9055  139.1273 O   0  0  0  0  0  0  0  0  0  0  0  0
  1  2  1  0
  2  3  1  0
  3  4  2  3
  1  5  1  0
  5  6  1  0
  6  7  1  0
  3  8  1  0
  6  8  1  0
  7  9  1  0
  4 10  1  0
 10 11  2  0
  9 12  2  0
  9 13  1  0
  9 14  2  0
  2 15  1  0
 13 16  1  0
 16 17  1  0
 16 23  2  0
 21 24  1  0
 17 18  2  0
 18 19  1  0
 19 20  2  0
 20 21  1  0
 21 22  2  0
 22 17  1  0
M  END

$$$$
No_1996-/dssg/home/sw_qyf/PocketFlow/Model-Generation-Results/5HT2A_7WC7_rec_A_10.pdb/2024-01-01-03-54-21/
     RDKit          3D

 20 20  0  0  0  0  0  0  0  0999 V2000
  -24.1553  -17.8465  145.7021 C   0  0  0  0  0  0  0  0  0  0  0  0
  -23.9795  -18.4462  146.7426 C   0  0  0  0  0  0  0  0  0  0  0  0
  -23.2486  -17.2339  144.9771 C   0  0  0  0  0  0  0  0  0  0  0  0
  -23.7492  -18.3437  147.7533 N   0  0  0  0  0  0  0  0  0  0  0  0
  -23.6405  -16.0904  144.1288 C   0  0  0  0  0  0  0  0  0  0  0  0
  -24.1107  -14.8907  144.9446 C   0  0  0  0  0  0  0  0  0  0  0  0
  -23.8630  -13.6550  144.3977 C   0  0  0  0  0  0  0  0  0  0  0  0
  -24.2133  -12.5025  145.2283 C   0  0  0  0  0  0  0  0  0  0  0  0
  -24.8277  -12.6164  146.5043 C   0  0  0  0  0  0  0  0  0  0  0  0
  -24.6634  -14.9717  146.2882 C   0  0  0  0  0  0  0  0  0  0  0  0
  -25.0361  -13.8535  147.0096 C   0  0  0  0  0  0  0  0  0  0  0  0
  -24.3275  -19.8101  146.4989 O   0  0  0  0  0  0  0  0  0  0  0  0
  -23.9791  -11.2280  144.8136 O   0  0  0  0  0  0  0  0  0  0  0  0
  -23.3326  -17.0253  148.3613 C   0  0  0  0  0  0  0  0  0  0  0  0
  -22.7619  -17.1699  149.7406 C   0  0  0  0  0  0  0  0  0  0  0  0
  -23.7252  -16.9077  150.8360 C   0  0  0  0  0  0  0  0  0  0  0  0
  -25.0446  -17.0851  150.4437 C   0  0  0  0  0  0  0  0  0  0  0  0
  -25.5276  -18.1809  149.6980 C   0  0  0  0  0  0  0  0  0  0  0  0
  -27.2294  -18.3273  149.8209 Cl  0  0  0  0  0  0  0  0  0  0  0  0
  -25.4390  -17.4035  145.5006 O   0  0  0  0  0  0  0  0  0  0  0  0
  1  2  1  0
  1  3  2  3
  2  4  1  0
  3  5  1  0
  5  6  1  0
  2 12  2  0
  8 13  1  0
  4 14  1  0
 14 15  1  0
 15 16  1  0
 16 17  1  0
 17 18  1  0
 18 19  1  0
  1 20  1  0
  6  7  2  0
  7  8  1  0
  8  9  2  0
  9 11  1  0
 11 10  2  0
 10  6  1  0
M  END

$$$$
No_1997-/dssg/home/sw_qyf/PocketFlow/Model-Generation-Results/5HT2A_7WC7_rec_A_10.pdb/2024-01-01-03-54-21/
     RDKit          3D

 33 34  0  0  0  0  0  0  0  0999 V2000
  -24.1553  -17.8465  145.7021 C   0  0  0  0  0  0  0  0  0  0  0  0
  -24.2856  -16.6364  145.3494 C   0  0  0  0  0  0  0  0  0  0  0  0
  -25.0033  -15.6772  146.0737 C   0  0  0  0  0  0  0  0  0  0  0  0
  -24.8869  -14.2981  145.8377 C   0  0  0  0  0  0  0  0  0  0  0  0
  -25.3793  -13.2111  146.5918 C   0  0  0  0  0  0  0  0  0  0  0  0
  -24.9049  -18.3625  146.7784 C   0  0  0  0  0  0  0  0  0  0  0  0
  -25.6976  -17.5210  147.5111 C   0  0  0  0  0  0  0  0  0  0  0  0
  -25.7254  -16.1261  147.2550 C   0  0  0  0  0  0  0  0  0  0  0  0
  -24.6476  -13.8435  144.4381 C   0  0  0  0  0  0  0  0  0  0  0  0
  -25.7422  -12.0820  146.0436 C   0  0  0  0  0  0  0  0  0  0  0  0
  -26.7666  -11.4458  145.8445 C   0  0  0  0  0  0  0  0  0  0  0  0
  -26.9617  -10.2940  144.9883 C   0  0  0  0  0  0  0  0  0  0  0  0
  -27.7395  -10.3853  143.8516 C   0  0  0  0  0  0  0  0  0  0  0  0
  -28.4439   -9.5623  143.3088 C   0  0  0  0  0  0  0  0  0  0  0  0
  -29.2922   -9.7688  142.2377 C   0  0  0  0  0  0  0  0  0  0  0  0
  -28.7906  -10.7435  141.2933 C   0  0  0  0  0  0  0  0  0  0  0  0
  -27.6240  -11.0308  141.3459 C   0  0  0  0  0  0  0  0  0  0  0  0
  -27.1032  -11.3424  142.7412 C   0  0  0  0  0  0  0  0  0  0  0  0
  -30.6985   -9.4463  142.3030 C   0  0  0  0  0  0  0  0  0  0  0  0
  -31.5247   -9.2615  143.2912 C   0  0  0  0  0  0  0  0  0  0  0  0
  -23.4867  -13.2753  144.3158 O   0  0  0  0  0  0  0  0  0  0  0  0
  -31.1583   -9.5297  144.4524 O   0  0  0  0  0  0  0  0  0  0  0  0
  -30.6531   -8.1532  141.4650 O   0  0  0  0  0  0  0  0  0  0  0  0
  -23.5741  -16.1992  144.2399 N   0  0  0  0  0  0  0  0  0  0  0  0
  -27.9218  -11.8470  146.4052 O   0  0  0  0  0  0  0  0  0  0  0  0
  -26.9868  -11.9061  140.3367 C   0  0  0  0  0  0  0  0  0  0  0  0
  -26.2735  -11.4313  139.4455 O   0  0  0  0  0  0  0  0  0  0  0  0
  -27.4110  -13.1031  140.0941 O   0  0  0  0  0  0  0  0  0  0  0  0
  -32.7132   -8.9053  143.2150 O   0  0  0  0  0  0  0  0  0  0  0  0
  -29.1571  -11.5921  146.0380 C   0  0  0  0  0  0  0  0  0  0  0  0
  -30.1227  -12.4131  146.9819 C   0  0  0  0  0  0  0  0  0  0  0  0
  -30.7141  -11.6246  147.8672 O   0  0  0  0  0  0  0  0  0  0  0  0
  -30.1895  -13.5646  146.9200 O   0  0  0  0  0  0  0  0  0  0  0  0
  3  4  1  0
  4  5  2  3
  4  9  1  0
  5 10  1  0
 10 11  2  3
 11 12  1  0
 12 13  1  0
 13 14  1  0
 14 15  1  0
 15 16  1  0
 16 17  1  0
 13 18  1  0
 17 18  1  0
 15 19  1  0
 19 20  1  0
  9 21  1  0
 20 22  2  0
 19 23  1  0
  2 24  1  0
 11 25  1  0
 17 26  1  0
 26 27  1  0
 26 28  2  0
 20 29  1  0
 25 30  1  0
 30 31  1  0
 31 32  1  0
 31 33  2  0
  1  2  2  0
  2  3  1  0
  3  8  2  0
  8  7  1  0
  7  6  2  0
  6  1  1  0
M  END

$$$$
No_1998-/dssg/home/sw_qyf/PocketFlow/Model-Generation-Results/5HT2A_7WC7_rec_A_10.pdb/2024-01-01-03-54-21/
     RDKit          3D

 11 11  0  0  0  0  0  0  0  0999 V2000
  -23.1746  -16.6014  144.8668 C   0  0  0  0  0  0  0  0  0  0  0  0
  -24.0189  -16.0564  145.8445 C   0  0  0  0  0  0  0  0  0  0  0  0
  -24.4850  -14.7380  145.6359 C   0  0  0  0  0  0  0  0  0  0  0  0
  -25.2717  -14.0560  146.5949 C   0  0  0  0  0  0  0  0  0  0  0  0
  -25.5669  -12.6700  146.4456 C   0  0  0  0  0  0  0  0  0  0  0  0
  -25.1774  -11.9727  145.2644 C   0  0  0  0  0  0  0  0  0  0  0  0
  -24.2583  -12.6444  144.4323 C   0  0  0  0  0  0  0  0  0  0  0  0
  -23.9746  -14.0153  144.6649 C   0  0  0  0  0  0  0  0  0  0  0  0
  -24.4407  -16.8601  146.9515 C   0  0  0  0  0  0  0  0  0  0  0  0
  -25.1111  -16.6229  147.9710 C   0  0  0  0  0  0  0  0  0  0  0  0
  -25.2104  -17.3713  149.1832 C   0  0  0  0  0  0  0  0  0  0  0  0
  1  2  1  0
  2  3  1  0
  2  9  1  0
  9 10  2  3
 10 11  1  0
  3  4  2  0
  4  5  1  0
  5  6  2  0
  6  7  1  0
  7  8  2  0
  8  3  1  0
M  END

$$$$
No_1999-/dssg/home/sw_qyf/PocketFlow/Model-Generation-Results/5HT2A_7WC7_rec_A_10.pdb/2024-01-01-03-54-21/
     RDKit          3D

 14 15  0  0  0  0  0  0  0  0999 V2000
  -24.1553  -17.8465  145.7021 C   0  0  0  0  0  0  0  0  0  0  0  0
  -23.9795  -18.4462  146.7426 C   0  0  0  0  0  0  0  0  0  0  0  0
  -25.1593  -16.8262  145.6925 C   0  0  0  0  0  0  0  0  0  0  0  0
  -26.3426  -16.9003  146.3448 C   0  0  0  0  0  0  0  0  0  0  0  0
  -24.9078  -18.3640  147.8289 C   0  0  0  0  0  0  0  0  0  0  0  0
  -26.0312  -17.5122  147.7122 C   0  0  0  0  0  0  0  0  0  0  0  0
  -27.4996  -16.1150  146.1993 C   0  0  0  0  0  0  0  0  0  0  0  0
  -27.8219  -14.9876  146.4483 C   0  0  0  0  0  0  0  0  0  0  0  0
  -27.0970  -13.8361  146.0630 C   0  0  0  0  0  0  0  0  0  0  0  0
  -27.6086  -12.4840  146.1998 C   0  0  0  0  0  0  0  0  0  0  0  0
  -26.9691  -11.4119  145.5404 C   0  0  0  0  0  0  0  0  0  0  0  0
  -26.7173  -11.4687  144.4740 C   0  0  0  0  0  0  0  0  0  0  0  0
  -26.0803  -12.7836  144.0016 C   0  0  0  0  0  0  0  0  0  0  0  0
  -26.6898  -13.9757  144.6583 C   0  0  0  0  0  0  0  0  0  0  0  0
  4  7  1  0
  7  8  1  0
  8  9  1  0
  9 10  2  0
 10 11  1  0
 11 12  2  0
 12 13  1  0
 13 14  2  0
 14  9  1  0
  1  2  2  0
  2  5  1  0
  5  6  2  0
  6  4  1  0
  4  3  2  0
  3  1  1  0
M  END

$$$$
