
     RDKit          3D

  4  3  0  0  0  0  0  0  0  0999 V2000
    9.2495    7.8030   -9.1782 O   0  0  0  0  0  0  0  0  0  0  0  0
    9.2448    6.6443   -8.5654 C   0  0  0  0  0  0  0  0  0  0  0  0
    8.4755    5.6745   -9.1028 C   0  0  0  0  0  0  0  0  0  0  0  0
    7.9796    5.9661  -10.2728 O   0  0  0  0  0  0  0  0  0  0  0  0
  1  2  1  0
  2  3  1  0
  3  4  1  0
M  END

$$$$

     RDKit          3D

  5  5  0  0  0  0  0  0  0  0999 V2000
    9.0380    6.8696   -8.5657 N   0  0  0  0  0  0  0  0  0  0  0  0
    9.6157    7.5091   -9.4648 C   0  0  0  0  0  0  0  0  0  0  0  0
    9.9874    6.9414  -10.5737 C   0  0  0  0  0  0  0  0  0  0  0  0
    8.8339    5.6208   -9.0223 C   0  0  0  0  0  0  0  0  0  0  0  0
    9.2715    5.5005  -10.3913 C   0  0  0  0  0  0  0  0  0  0  0  0
  1  2  1  0
  2  3  2  0
  1  4  2  0
  3  5  1  0
  4  5  1  0
M  END

$$$$

     RDKit          3D

  5  5  0  0  0  0  0  0  0  0999 V2000
    9.0380    6.8696   -8.5657 N   0  0  0  0  0  0  0  0  0  0  0  0
    9.6157    7.5091   -9.4648 C   0  0  0  0  0  0  0  0  0  0  0  0
    9.9874    6.9414  -10.5737 C   0  0  0  0  0  0  0  0  0  0  0  0
    9.2935    5.6377  -10.5027 C   0  0  0  0  0  0  0  0  0  0  0  0
    8.7969    5.6208   -9.2101 C   0  0  0  0  0  0  0  0  0  0  0  0
  1  2  1  0
  2  3  2  0
  3  4  1  0
  1  5  1  0
  4  5  2  0
M  END

$$$$

     RDKit          3D

  5  4  0  0  0  0  0  0  0  0999 V2000
    9.1846    6.6802   -8.4911 C   0  0  0  0  0  0  0  0  0  0  0  0
    9.4594    7.4203   -9.5710 O   0  0  0  0  0  0  0  0  0  0  0  0
   10.0701    6.9349  -10.4785 C   0  0  0  0  0  0  0  0  0  0  0  0
   11.2447    7.5102  -10.7232 C   0  0  0  0  0  0  0  0  0  0  0  0
    9.6138    6.0628  -11.2610 O   0  0  0  0  0  0  0  0  0  0  0  0
  1  2  1  0
  2  3  1  0
  3  4  1  0
  3  5  2  0
M  END

$$$$

     RDKit          3D

  5  5  0  0  0  0  0  0  0  0999 V2000
    9.0380    6.8696   -8.5657 N   0  0  0  0  0  0  0  0  0  0  0  0
    9.6157    7.5091   -9.4648 C   0  0  0  0  0  0  0  0  0  0  0  0
    9.9874    6.9414  -10.5737 C   0  0  0  0  0  0  0  0  0  0  0  0
    9.2935    5.6377  -10.5027 C   0  0  0  0  0  0  0  0  0  0  0  0
    8.7338    5.5636   -9.4198 N   0  0  0  0  0  0  0  0  0  0  0  0
  1  2  1  0
  2  3  2  0
  3  4  1  0
  1  5  1  0
  4  5  2  0
M  END

$$$$

     RDKit          3D

  6  6  0  0  0  0  0  0  0  0999 V2000
    9.1846    6.6802   -8.4911 C   0  0  0  0  0  0  0  0  0  0  0  0
    9.4594    7.4203   -9.5710 O   0  0  0  0  0  0  0  0  0  0  0  0
   10.0701    6.9349  -10.4785 C   0  0  0  0  0  0  0  0  0  0  0  0
    9.3023    6.2494  -11.4633 C   0  0  0  0  0  0  0  0  0  0  0  0
    8.8437    4.9445  -10.7129 C   0  0  0  0  0  0  0  0  0  0  0  0
    8.5701    5.2412   -9.3284 C   0  0  0  0  0  0  0  0  0  0  0  0
  1  2  1  0
  2  3  1  0
  3  4  1  0
  4  5  1  0
  1  6  1  0
  5  6  1  0
M  END

$$$$

     RDKit          3D

  6  6  0  0  0  0  0  0  0  0999 V2000
    9.1846    6.6802   -8.4911 C   0  0  0  0  0  0  0  0  0  0  0  0
    9.4594    7.4203   -9.5710 O   0  0  0  0  0  0  0  0  0  0  0  0
    8.6012    5.4606   -8.8529 C   0  0  0  0  0  0  0  0  0  0  0  0
    7.7846    5.7912  -10.0497 O   0  0  0  0  0  0  0  0  0  0  0  0
    9.5185    6.8799  -10.7156 C   0  0  0  0  0  0  0  0  0  0  0  0
    8.4160    6.0446  -11.1078 C   0  0  0  0  0  0  0  0  0  0  0  0
  1  2  1  0
  1  3  1  0
  3  4  1  0
  2  5  1  0
  4  6  1  0
  5  6  1  0
M  END

$$$$

     RDKit          3D

  6  6  0  0  0  0  0  0  0  0999 V2000
    9.0380    6.8696   -8.5657 N   0  0  0  0  0  0  0  0  0  0  0  0
    9.6157    7.5091   -9.4648 C   0  0  0  0  0  0  0  0  0  0  0  0
    9.9874    6.9414  -10.5737 C   0  0  0  0  0  0  0  0  0  0  0  0
    9.5861    5.6699  -10.7687 C   0  0  0  0  0  0  0  0  0  0  0  0
    8.9659    4.9470   -9.8400 C   0  0  0  0  0  0  0  0  0  0  0  0
    8.6857    5.6352   -8.6299 C   0  0  0  0  0  0  0  0  0  0  0  0
  1  2  1  0
  2  3  2  0
  3  4  1  0
  4  5  2  0
  1  6  2  0
  5  6  1  0
M  END

$$$$

     RDKit          3D

  6  6  0  0  0  0  0  0  0  0999 V2000
    9.0380    6.8696   -8.5657 N   0  0  0  0  0  0  0  0  0  0  0  0
    9.6157    7.5091   -9.4648 C   0  0  0  0  0  0  0  0  0  0  0  0
    9.9874    6.9414  -10.5737 C   0  0  0  0  0  0  0  0  0  0  0  0
    8.8339    5.6208   -9.0223 C   0  0  0  0  0  0  0  0  0  0  0  0
   10.4779    7.3577  -11.8913 C   0  0  0  0  0  0  0  0  0  0  0  0
    9.3106    5.4354  -10.4361 C   0  0  0  0  0  0  0  0  0  0  0  0
  1  2  1  0
  2  3  2  0
  1  4  2  0
  3  5  1  0
  3  6  1  0
  4  6  1  0
M  END

$$$$

     RDKit          3D

  6  6  0  0  0  0  0  0  0  0999 V2000
    9.0380    6.8696   -8.5657 N   0  0  0  0  0  0  0  0  0  0  0  0
    9.6157    7.5091   -9.4648 C   0  0  0  0  0  0  0  0  0  0  0  0
    9.9874    6.9414  -10.5737 C   0  0  0  0  0  0  0  0  0  0  0  0
    8.8339    5.6208   -9.0223 C   0  0  0  0  0  0  0  0  0  0  0  0
   10.4779    7.3577  -11.8913 C   0  0  0  0  0  0  0  0  0  0  0  0
    9.3964    5.6284  -10.3675 N   0  0  0  0  0  0  0  0  0  0  0  0
  1  2  1  0
  2  3  2  0
  1  4  2  0
  3  5  1  0
  3  6  1  0
  4  6  1  0
M  END

$$$$

     RDKit          3D

  6  6  0  0  0  0  0  0  0  0999 V2000
    9.0380    6.8696   -8.5657 O   0  0  0  0  0  0  0  0  0  0  0  0
    9.5960    7.4785   -9.4365 C   0  0  0  0  0  0  0  0  0  0  0  0
    8.7874    5.5673   -8.8491 C   0  0  0  0  0  0  0  0  0  0  0  0
    9.8362    6.6641  -10.6201 C   0  0  0  0  0  0  0  0  0  0  0  0
   10.3922    6.9309  -11.8710 C   0  0  0  0  0  0  0  0  0  0  0  0
    9.2154    5.4580  -10.2531 C   0  0  0  0  0  0  0  0  0  0  0  0
  1  2  1  0
  1  3  1  0
  2  4  2  0
  4  5  1  0
  3  6  2  0
  4  6  1  0
M  END

$$$$

     RDKit          3D

  4  3  0  0  0  0  0  0  0  0999 V2000
    9.0380    6.8696   -8.5657 N   0  0  0  0  0  0  0  0  0  0  0  0
    9.6157    7.5091   -9.4648 C   0  0  0  0  0  0  0  0  0  0  0  0
    8.8131    5.5783   -8.7298 C   0  0  0  0  0  0  0  0  0  0  0  0
    9.6833    7.1495   -7.2410 C   0  0  0  0  0  0  0  0  0  0  0  0
  1  2  1  0
  1  3  1  0
  1  4  1  0
M  END

$$$$

     RDKit          3D

  6  6  0  0  0  0  0  0  0  0999 V2000
    9.0380    6.8696   -8.5657 O   0  0  0  0  0  0  0  0  0  0  0  0
    9.5960    7.4785   -9.4365 C   0  0  0  0  0  0  0  0  0  0  0  0
    8.7874    5.5673   -8.8491 C   0  0  0  0  0  0  0  0  0  0  0  0
    9.8362    6.6641  -10.6201 C   0  0  0  0  0  0  0  0  0  0  0  0
   10.3922    6.9309  -11.8710 C   0  0  0  0  0  0  0  0  0  0  0  0
    9.1933    5.3351  -10.3904 C   0  0  0  0  0  0  0  0  0  0  0  0
  1  2  1  0
  1  3  1  0
  2  4  2  0
  4  5  1  0
  3  6  1  0
  4  6  1  0
M  END

$$$$

     RDKit          3D

  7  7  0  0  0  0  0  0  0  0999 V2000
    9.0380    6.8696   -8.5657 N   0  0  0  0  0  0  0  0  0  0  0  0
    9.6157    7.5091   -9.4648 C   0  0  0  0  0  0  0  0  0  0  0  0
    9.9874    6.9414  -10.5737 C   0  0  0  0  0  0  0  0  0  0  0  0
    8.8339    5.6208   -9.0223 C   0  0  0  0  0  0  0  0  0  0  0  0
   10.4779    7.3577  -11.8913 C   0  0  0  0  0  0  0  0  0  0  0  0
    8.1597    4.5153   -8.4671 N   0  0  0  0  0  0  0  0  0  0  0  0
    9.3447    5.5157  -10.4781 C   0  0  0  0  0  0  0  0  0  0  0  0
  1  2  1  0
  2  3  2  0
  1  4  2  0
  3  5  1  0
  4  6  1  0
  3  7  1  0
  4  7  1  0
M  END

$$$$

     RDKit          3D

  7  7  0  0  0  0  0  0  0  0999 V2000
    9.1846    6.6802   -8.4911 C   0  0  0  0  0  0  0  0  0  0  0  0
    9.4594    7.4203   -9.5710 O   0  0  0  0  0  0  0  0  0  0  0  0
   10.0701    6.9349  -10.4785 C   0  0  0  0  0  0  0  0  0  0  0  0
    9.3023    6.2494  -11.4633 C   0  0  0  0  0  0  0  0  0  0  0  0
    9.8333    5.6974  -12.5151 O   0  0  0  0  0  0  0  0  0  0  0  0
    9.4692    5.3345   -8.7644 C   0  0  0  0  0  0  0  0  0  0  0  0
    9.3985    5.2515  -10.2764 C   0  0  0  0  0  0  0  0  0  0  0  0
  1  2  1  0
  2  3  1  0
  3  4  1  0
  4  5  1  0
  1  6  1  0
  4  7  1  0
  6  7  1  0
M  END

$$$$

     RDKit          3D

  7  7  0  0  0  0  0  0  0  0999 V2000
    9.1846    6.6802   -8.4911 C   0  0  0  0  0  0  0  0  0  0  0  0
    9.4594    7.4203   -9.5710 O   0  0  0  0  0  0  0  0  0  0  0  0
    8.6012    5.4606   -8.8529 C   0  0  0  0  0  0  0  0  0  0  0  0
    7.7846    5.7912  -10.0497 O   0  0  0  0  0  0  0  0  0  0  0  0
   10.3461    7.0448  -10.5214 C   0  0  0  0  0  0  0  0  0  0  0  0
    8.3583    5.3750  -11.2743 C   0  0  0  0  0  0  0  0  0  0  0  0
    9.4897    6.4805  -11.7449 C   0  0  0  0  0  0  0  0  0  0  0  0
  1  2  1  0
  1  3  1  0
  3  4  1  0
  2  5  1  0
  4  6  1  0
  5  7  1  0
  6  7  1  0
M  END

$$$$

     RDKit          3D

  7  7  0  0  0  0  0  0  0  0999 V2000
    9.1846    6.6802   -8.4911 C   0  0  0  0  0  0  0  0  0  0  0  0
    9.4594    7.4203   -9.5710 O   0  0  0  0  0  0  0  0  0  0  0  0
   10.0701    6.9349  -10.4785 C   0  0  0  0  0  0  0  0  0  0  0  0
   11.2447    7.5102  -10.7232 C   0  0  0  0  0  0  0  0  0  0  0  0
    9.2072    6.9215  -11.5793 C   0  0  0  0  0  0  0  0  0  0  0  0
    9.0263    5.4400   -8.8529 C   0  0  0  0  0  0  0  0  0  0  0  0
   10.1246    5.4781   -9.9707 C   0  0  0  0  0  0  0  0  0  0  0  0
  1  2  1  0
  2  3  1  0
  3  4  1  0
  3  5  1  0
  1  6  1  0
  3  7  1  0
  6  7  1  0
M  END

$$$$

     RDKit          3D

  7  7  0  0  0  0  0  0  0  0999 V2000
    9.0380    6.8696   -8.5657 N   0  0  0  0  0  0  0  0  0  0  0  0
    9.6157    7.5091   -9.4648 C   0  0  0  0  0  0  0  0  0  0  0  0
    9.9874    6.9414  -10.5737 C   0  0  0  0  0  0  0  0  0  0  0  0
    9.5861    5.6699  -10.7687 C   0  0  0  0  0  0  0  0  0  0  0  0
    9.7483    5.0042  -12.0487 O   0  0  0  0  0  0  0  0  0  0  0  0
    8.6858    5.5887   -8.7016 C   0  0  0  0  0  0  0  0  0  0  0  0
    8.9419    5.0020   -9.8576 C   0  0  0  0  0  0  0  0  0  0  0  0
  1  2  1  0
  2  3  2  0
  3  4  1  0
  4  5  1  0
  1  6  2  0
  4  7  2  0
  6  7  1  0
M  END

$$$$

     RDKit          3D

  7  7  0  0  0  0  0  0  0  0999 V2000
    9.1846    6.6802   -8.4911 C   0  0  0  0  0  0  0  0  0  0  0  0
    9.4594    7.4203   -9.5710 O   0  0  0  0  0  0  0  0  0  0  0  0
   10.0701    6.9349  -10.4785 C   0  0  0  0  0  0  0  0  0  0  0  0
    9.3023    6.2494  -11.4633 C   0  0  0  0  0  0  0  0  0  0  0  0
    8.8437    4.9445  -10.7129 O   0  0  0  0  0  0  0  0  0  0  0  0
    8.0636    5.2373   -9.5423 C   0  0  0  0  0  0  0  0  0  0  0  0
    8.5848    5.4797   -8.5510 C   0  0  0  0  0  0  0  0  0  0  0  0
  1  2  1  0
  2  3  1  0
  3  4  1  0
  4  5  1  0
  5  6  1  0
  1  7  2  0
  6  7  1  0
M  END

$$$$

     RDKit          3D

  7  7  0  0  0  0  0  0  0  0999 V2000
    9.0380    6.8696   -8.5657 N   0  0  0  0  0  0  0  0  0  0  0  0
    9.6157    7.5091   -9.4648 C   0  0  0  0  0  0  0  0  0  0  0  0
    9.9874    6.9414  -10.5737 C   0  0  0  0  0  0  0  0  0  0  0  0
    9.5861    5.6699  -10.7687 C   0  0  0  0  0  0  0  0  0  0  0  0
    9.7483    5.0042  -12.0487 N   0  0  0  0  0  0  0  0  0  0  0  0
    8.9122    5.1606   -9.6987 C   0  0  0  0  0  0  0  0  0  0  0  0
    8.7944    5.6393   -8.6765 C   0  0  0  0  0  0  0  0  0  0  0  0
  1  2  1  0
  2  3  2  0
  3  4  1  0
  4  5  1  0
  4  6  2  0
  1  7  2  0
  6  7  1  0
M  END

$$$$

     RDKit          3D

  7  7  0  0  0  0  0  0  0  0999 V2000
    9.0380    6.8696   -8.5657 N   0  0  0  0  0  0  0  0  0  0  0  0
    9.6157    7.5091   -9.4648 C   0  0  0  0  0  0  0  0  0  0  0  0
    9.9874    6.9414  -10.5737 C   0  0  0  0  0  0  0  0  0  0  0  0
    8.6673    5.5986   -8.7586 C   0  0  0  0  0  0  0  0  0  0  0  0
   10.6273    7.6981  -11.7578 O   0  0  0  0  0  0  0  0  0  0  0  0
    9.7818    5.6438  -10.9793 C   0  0  0  0  0  0  0  0  0  0  0  0
    9.0285    4.9890  -10.0553 C   0  0  0  0  0  0  0  0  0  0  0  0
  1  2  1  0
  2  3  2  0
  1  4  2  0
  3  5  1  0
  3  6  1  0
  4  7  1  0
  6  7  2  0
M  END

$$$$

     RDKit          3D

  7  7  0  0  0  0  0  0  0  0999 V2000
    9.0380    6.8696   -8.5657 N   0  0  0  0  0  0  0  0  0  0  0  0
    9.6157    7.5091   -9.4648 C   0  0  0  0  0  0  0  0  0  0  0  0
    9.9874    6.9414  -10.5737 C   0  0  0  0  0  0  0  0  0  0  0  0
    9.5861    5.6699  -10.7687 C   0  0  0  0  0  0  0  0  0  0  0  0
    9.7483    5.0042  -12.0487 N   0  0  0  0  0  0  0  0  0  0  0  0
    9.0291    4.8455   -9.9487 N   0  0  0  0  0  0  0  0  0  0  0  0
    8.8134    5.5404   -8.7177 C   0  0  0  0  0  0  0  0  0  0  0  0
  1  2  1  0
  2  3  2  0
  3  4  1  0
  4  5  1  0
  4  6  2  0
  1  7  2  0
  6  7  1  0
M  END

$$$$

     RDKit          3D

  5  5  0  0  0  0  0  0  0  0999 V2000
    9.1846    6.6802   -8.4911 C   0  0  0  0  0  0  0  0  0  0  0  0
    9.4594    7.4203   -9.5710 O   0  0  0  0  0  0  0  0  0  0  0  0
    9.2734    6.8144  -10.7282 C   0  0  0  0  0  0  0  0  0  0  0  0
    8.5846    5.4819   -8.7646 C   0  0  0  0  0  0  0  0  0  0  0  0
    8.5844    5.5532  -10.3551 C   0  0  0  0  0  0  0  0  0  0  0  0
  1  2  1  0
  2  3  1  0
  1  4  2  0
  3  5  2  0
  4  5  1  0
M  END

$$$$

     RDKit          3D

  7  7  0  0  0  0  0  0  0  0999 V2000
    9.0380    6.8696   -8.5657 N   0  0  0  0  0  0  0  0  0  0  0  0
    9.6157    7.5091   -9.4648 C   0  0  0  0  0  0  0  0  0  0  0  0
    9.9874    6.9414  -10.5737 C   0  0  0  0  0  0  0  0  0  0  0  0
    8.6673    5.5986   -8.7586 C   0  0  0  0  0  0  0  0  0  0  0  0
    8.9194    4.9828   -9.8914 C   0  0  0  0  0  0  0  0  0  0  0  0
   10.6829    7.6397  -11.7399 F   0  0  0  0  0  0  0  0  0  0  0  0
    9.5427    5.7176  -10.9296 C   0  0  0  0  0  0  0  0  0  0  0  0
  1  2  1  0
  2  3  2  0
  1  4  2  0
  4  5  1  0
  3  6  1  0
  3  7  1  0
  5  7  2  0
M  END

$$$$

     RDKit          3D

  7  8  0  0  0  0  0  0  0  0999 V2000
    9.1846    6.6802   -8.4911 C   0  0  0  0  0  0  0  0  0  0  0  0
    9.4594    7.4203   -9.5710 O   0  0  0  0  0  0  0  0  0  0  0  0
   10.0701    6.9349  -10.4785 C   0  0  0  0  0  0  0  0  0  0  0  0
    9.3023    6.2494  -11.4633 C   0  0  0  0  0  0  0  0  0  0  0  0
    9.8333    5.6974  -12.5151 O   0  0  0  0  0  0  0  0  0  0  0  0
    9.4692    5.3345   -8.7644 C   0  0  0  0  0  0  0  0  0  0  0  0
    9.3985    5.2515  -10.2764 C   0  0  0  0  0  0  0  0  0  0  0  0
  1  2  1  0
  2  3  1  0
  3  4  1  0
  4  5  1  0
  1  6  1  0
  3  7  1  0
  4  7  1  0
  6  7  1  0
M  END

$$$$

     RDKit          3D

  7  7  0  0  0  0  0  0  0  0999 V2000
    9.0380    6.8696   -8.5657 N   0  0  0  0  0  0  0  0  0  0  0  0
    9.6157    7.5091   -9.4648 C   0  0  0  0  0  0  0  0  0  0  0  0
    9.9874    6.9414  -10.5737 C   0  0  0  0  0  0  0  0  0  0  0  0
    8.8339    5.6208   -9.0223 C   0  0  0  0  0  0  0  0  0  0  0  0
   10.4779    7.3577  -11.8913 C   0  0  0  0  0  0  0  0  0  0  0  0
    8.1597    4.5153   -8.4671 N   0  0  0  0  0  0  0  0  0  0  0  0
    9.3685    5.6112  -10.3514 N   0  0  0  0  0  0  0  0  0  0  0  0
  1  2  1  0
  2  3  2  0
  1  4  2  0
  3  5  1  0
  4  6  1  0
  3  7  1  0
  4  7  1  0
M  END

$$$$

     RDKit          3D

  7  7  0  0  0  0  0  0  0  0999 V2000
    9.1846    6.6802   -8.4911 C   0  0  0  0  0  0  0  0  0  0  0  0
    9.4594    7.4203   -9.5710 O   0  0  0  0  0  0  0  0  0  0  0  0
   10.0701    6.9349  -10.4785 C   0  0  0  0  0  0  0  0  0  0  0  0
    9.3023    6.2494  -11.4633 C   0  0  0  0  0  0  0  0  0  0  0  0
    9.8333    5.6974  -12.5151 O   0  0  0  0  0  0  0  0  0  0  0  0
    8.6444    5.4016   -8.8193 C   0  0  0  0  0  0  0  0  0  0  0  0
    8.6569    5.1540  -10.3471 C   0  0  0  0  0  0  0  0  0  0  0  0
  1  2  1  0
  2  3  1  0
  3  4  1  0
  4  5  1  0
  1  6  1  0
  4  7  1  0
  6  7  2  0
M  END

$$$$

     RDKit          3D

  7  7  0  0  0  0  0  0  0  0999 V2000
    9.1846    6.6802   -8.4911 C   0  0  0  0  0  0  0  0  0  0  0  0
    9.4594    7.4203   -9.5710 O   0  0  0  0  0  0  0  0  0  0  0  0
   10.0701    6.9349  -10.4785 C   0  0  0  0  0  0  0  0  0  0  0  0
   11.2447    7.5102  -10.7232 C   0  0  0  0  0  0  0  0  0  0  0  0
    8.7371    5.4171   -8.7480 C   0  0  0  0  0  0  0  0  0  0  0  0
    9.9239    5.6567  -10.8424 C   0  0  0  0  0  0  0  0  0  0  0  0
    9.0040    4.8503  -10.1148 C   0  0  0  0  0  0  0  0  0  0  0  0
  1  2  1  0
  2  3  1  0
  3  4  1  0
  1  5  1  0
  3  6  2  0
  5  7  2  0
  6  7  1  0
M  END

$$$$

     RDKit          3D

  8  8  0  0  0  0  0  0  0  0999 V2000
    9.0380    6.8696   -8.5657 N   0  0  0  0  0  0  0  0  0  0  0  0
    9.6157    7.5091   -9.4648 C   0  0  0  0  0  0  0  0  0  0  0  0
    9.9874    6.9414  -10.5737 C   0  0  0  0  0  0  0  0  0  0  0  0
    8.6673    5.5986   -8.7586 C   0  0  0  0  0  0  0  0  0  0  0  0
   10.6273    7.6981  -11.7578 O   0  0  0  0  0  0  0  0  0  0  0  0
    9.5414    5.6683  -10.9046 C   0  0  0  0  0  0  0  0  0  0  0  0
    9.8191    5.1252  -12.2124 O   0  0  0  0  0  0  0  0  0  0  0  0
    8.9084    4.9897   -9.9725 C   0  0  0  0  0  0  0  0  0  0  0  0
  1  2  1  0
  2  3  2  0
  1  4  2  0
  3  5  1  0
  3  6  1  0
  6  7  1  0
  4  8  1  0
  6  8  2  0
M  END

$$$$

     RDKit          3D

  8  8  0  0  0  0  0  0  0  0999 V2000
    9.1846    6.6802   -8.4911 C   0  0  0  0  0  0  0  0  0  0  0  0
    9.4594    7.4203   -9.5710 O   0  0  0  0  0  0  0  0  0  0  0  0
   10.0701    6.9349  -10.4785 C   0  0  0  0  0  0  0  0  0  0  0  0
    9.3023    6.2494  -11.4633 C   0  0  0  0  0  0  0  0  0  0  0  0
    9.8333    5.6974  -12.5151 O   0  0  0  0  0  0  0  0  0  0  0  0
    9.4692    5.3345   -8.7644 C   0  0  0  0  0  0  0  0  0  0  0  0
    8.6452    4.9502  -10.5934 C   0  0  0  0  0  0  0  0  0  0  0  0
    8.0571    5.2262   -9.3941 O   0  0  0  0  0  0  0  0  0  0  0  0
  1  2  1  0
  2  3  1  0
  3  4  1  0
  4  5  1  0
  1  6  1  0
  4  7  1  0
  6  8  1  0
  7  8  1  0
M  END

$$$$

     RDKit          3D

  8  8  0  0  0  0  0  0  0  0999 V2000
    9.0380    6.8696   -8.5657 N   0  0  0  0  0  0  0  0  0  0  0  0
    9.6157    7.5091   -9.4648 C   0  0  0  0  0  0  0  0  0  0  0  0
    9.9874    6.9414  -10.5737 C   0  0  0  0  0  0  0  0  0  0  0  0
    9.5861    5.6699  -10.7687 C   0  0  0  0  0  0  0  0  0  0  0  0
    9.7483    5.0042  -12.0487 O   0  0  0  0  0  0  0  0  0  0  0  0
    8.8257    5.4949   -8.9097 C   0  0  0  0  0  0  0  0  0  0  0  0
    9.0439    4.9572   -9.9628 N   0  0  0  0  0  0  0  0  0  0  0  0
    8.6010    4.2703  -12.4752 C   0  0  0  0  0  0  0  0  0  0  0  0
  1  2  1  0
  2  3  2  0
  3  4  1  0
  4  5  1  0
  1  6  2  0
  4  7  2  0
  6  7  1  0
  5  8  1  0
M  END

$$$$

     RDKit          3D

  8  9  0  0  0  0  0  0  0  0999 V2000
    9.1846    6.6802   -8.4911 C   0  0  0  0  0  0  0  0  0  0  0  0
    9.4594    7.4203   -9.5710 O   0  0  0  0  0  0  0  0  0  0  0  0
   10.0701    6.9349  -10.4785 C   0  0  0  0  0  0  0  0  0  0  0  0
   11.2447    7.5102  -10.7232 C   0  0  0  0  0  0  0  0  0  0  0  0
    9.2072    6.9215  -11.5793 C   0  0  0  0  0  0  0  0  0  0  0  0
    8.8192    5.3458   -8.8808 C   0  0  0  0  0  0  0  0  0  0  0  0
    8.5801    5.4991  -11.7957 C   0  0  0  0  0  0  0  0  0  0  0  0
    9.4903    5.2652  -10.3249 C   0  0  0  0  0  0  0  0  0  0  0  0
  1  2  1  0
  2  3  1  0
  3  4  1  0
  3  5  1  0
  1  6  1  0
  5  7  1  0
  3  8  1  0
  6  8  1  0
  7  8  1  0
M  END

$$$$

     RDKit          3D

  9 10  0  0  0  0  0  0  0  0999 V2000
    9.1846    6.6802   -8.4911 C   0  0  0  0  0  0  0  0  0  0  0  0
    9.4594    7.4203   -9.5710 O   0  0  0  0  0  0  0  0  0  0  0  0
    9.2734    6.8144  -10.7282 C   0  0  0  0  0  0  0  0  0  0  0  0
    8.7495    5.5380  -10.6247 C   0  0  0  0  0  0  0  0  0  0  0  0
    8.3845    4.5563  -11.5282 C   0  0  0  0  0  0  0  0  0  0  0  0
    8.6033    5.4140   -9.0605 C   0  0  0  0  0  0  0  0  0  0  0  0
    9.5697    7.1618  -12.0267 C   0  0  0  0  0  0  0  0  0  0  0  0
    9.2703    6.2993  -13.0385 C   0  0  0  0  0  0  0  0  0  0  0  0
    8.6061    4.9499  -12.7524 C   0  0  0  0  0  0  0  0  0  0  0  0
  1  2  1  0
  2  3  1  0
  3  4  2  0
  4  5  1  0
  1  6  1  0
  4  6  1  0
  3  7  1  0
  7  8  2  0
  5  9  2  0
  8  9  1  0
M  END

$$$$

     RDKit          3D

  5  5  0  0  0  0  0  0  0  0999 V2000
    9.0380    6.8696   -8.5657 N   0  0  0  0  0  0  0  0  0  0  0  0
    9.6157    7.5091   -9.4648 C   0  0  0  0  0  0  0  0  0  0  0  0
    9.9874    6.9414  -10.5737 C   0  0  0  0  0  0  0  0  0  0  0  0
    9.2935    5.6377  -10.5027 C   0  0  0  0  0  0  0  0  0  0  0  0
    8.8051    5.6199   -9.1995 C   0  0  0  0  0  0  0  0  0  0  0  0
  1  2  1  0
  2  3  2  0
  3  4  1  0
  1  5  1  0
  4  5  1  0
M  END

$$$$

     RDKit          3D

  9 10  0  0  0  0  0  0  0  0999 V2000
    9.1846    6.6802   -8.4911 C   0  0  0  0  0  0  0  0  0  0  0  0
    9.4594    7.4203   -9.5710 O   0  0  0  0  0  0  0  0  0  0  0  0
   10.0701    6.9349  -10.4785 C   0  0  0  0  0  0  0  0  0  0  0  0
   11.2447    7.5102  -10.7232 C   0  0  0  0  0  0  0  0  0  0  0  0
    9.2072    6.9215  -11.5793 C   0  0  0  0  0  0  0  0  0  0  0  0
    9.0263    5.4400   -8.8529 C   0  0  0  0  0  0  0  0  0  0  0  0
    8.6847    5.4656  -11.8399 C   0  0  0  0  0  0  0  0  0  0  0  0
   10.1116    5.4232  -10.0094 C   0  0  0  0  0  0  0  0  0  0  0  0
    9.3784    4.6839  -11.0309 O   0  0  0  0  0  0  0  0  0  0  0  0
  1  2  1  0
  2  3  1  0
  3  4  1  0
  3  5  1  0
  1  6  1  0
  5  7  1  0
  3  8  1  0
  6  8  1  0
  7  9  1  0
  8  9  1  0
M  END

$$$$

     RDKit          3D

  9 10  0  0  0  0  0  0  0  0999 V2000
    9.1846    6.6802   -8.4911 C   0  0  0  0  0  0  0  0  0  0  0  0
    9.4594    7.4203   -9.5710 O   0  0  0  0  0  0  0  0  0  0  0  0
    9.2734    6.8144  -10.7282 C   0  0  0  0  0  0  0  0  0  0  0  0
    8.7495    5.5380  -10.6247 C   0  0  0  0  0  0  0  0  0  0  0  0
    8.3845    4.5563  -11.5282 C   0  0  0  0  0  0  0  0  0  0  0  0
    8.8698    4.8692  -12.8331 N   0  0  0  0  0  0  0  0  0  0  0  0
    9.4515    6.0848  -12.9781 C   0  0  0  0  0  0  0  0  0  0  0  0
    9.6842    7.0082  -11.9922 C   0  0  0  0  0  0  0  0  0  0  0  0
    8.3712    5.3176   -9.1420 C   0  0  0  0  0  0  0  0  0  0  0  0
  1  2  1  0
  2  3  1  0
  3  4  2  0
  4  5  1  0
  5  6  2  0
  6  7  1  0
  3  8  1  0
  7  8  2  0
  1  9  1  0
  4  9  1  0
M  END

$$$$

     RDKit          3D

  9 10  0  0  0  0  0  0  0  0999 V2000
    9.1846    6.6802   -8.4911 C   0  0  0  0  0  0  0  0  0  0  0  0
    9.4594    7.4203   -9.5710 O   0  0  0  0  0  0  0  0  0  0  0  0
    9.2734    6.8144  -10.7282 C   0  0  0  0  0  0  0  0  0  0  0  0
    8.7495    5.5380  -10.6247 C   0  0  0  0  0  0  0  0  0  0  0  0
    8.3845    4.5563  -11.5282 C   0  0  0  0  0  0  0  0  0  0  0  0
    8.8698    4.8692  -12.8331 C   0  0  0  0  0  0  0  0  0  0  0  0
    9.4990    6.1341  -13.0049 C   0  0  0  0  0  0  0  0  0  0  0  0
    9.7375    7.1173  -11.9530 C   0  0  0  0  0  0  0  0  0  0  0  0
    8.3712    5.5712   -9.0451 O   0  0  0  0  0  0  0  0  0  0  0  0
  1  2  1  0
  2  3  1  0
  3  4  2  0
  4  5  1  0
  5  6  2  0
  6  7  1  0
  3  8  1  0
  7  8  2  0
  1  9  1  0
  4  9  1  0
M  END

$$$$

     RDKit          3D

  9 10  0  0  0  0  0  0  0  0999 V2000
    9.1846    6.6802   -8.4911 C   0  0  0  0  0  0  0  0  0  0  0  0
    9.4594    7.4203   -9.5710 O   0  0  0  0  0  0  0  0  0  0  0  0
    9.2734    6.8144  -10.7282 C   0  0  0  0  0  0  0  0  0  0  0  0
    8.7495    5.5380  -10.6247 C   0  0  0  0  0  0  0  0  0  0  0  0
    8.3845    4.5563  -11.5282 C   0  0  0  0  0  0  0  0  0  0  0  0
    9.5208    7.2969  -12.0420 C   0  0  0  0  0  0  0  0  0  0  0  0
    8.6375    5.3849   -9.0257 C   0  0  0  0  0  0  0  0  0  0  0  0
    8.8794    6.4157  -12.9131 C   0  0  0  0  0  0  0  0  0  0  0  0
    8.1310    5.0739  -12.7158 C   0  0  0  0  0  0  0  0  0  0  0  0
  1  2  1  0
  2  3  1  0
  3  4  2  0
  4  5  1  0
  3  6  1  0
  1  7  2  0
  4  7  1  0
  6  8  1  0
  5  9  1  0
  8  9  2  0
M  END

$$$$

     RDKit          3D

  9 10  0  0  0  0  0  0  0  0999 V2000
    9.1846    6.6802   -8.4911 C   0  0  0  0  0  0  0  0  0  0  0  0
    9.4594    7.4203   -9.5710 O   0  0  0  0  0  0  0  0  0  0  0  0
    9.2734    6.8144  -10.7282 C   0  0  0  0  0  0  0  0  0  0  0  0
    8.7495    5.5380  -10.6247 C   0  0  0  0  0  0  0  0  0  0  0  0
    8.3845    4.5563  -11.5282 C   0  0  0  0  0  0  0  0  0  0  0  0
    9.5208    7.2969  -12.0420 C   0  0  0  0  0  0  0  0  0  0  0  0
    8.7044    5.2996   -9.0821 C   0  0  0  0  0  0  0  0  0  0  0  0
    8.8900    6.4251  -12.9031 C   0  0  0  0  0  0  0  0  0  0  0  0
    8.3983    5.1604  -12.7210 C   0  0  0  0  0  0  0  0  0  0  0  0
  1  2  1  0
  2  3  1  0
  3  4  2  0
  4  5  1  0
  3  6  1  0
  1  7  2  0
  4  7  1  0
  6  8  2  0
  5  9  2  0
  8  9  1  0
M  END

$$$$

     RDKit          3D

  9 10  0  0  0  0  0  0  0  0999 V2000
    9.1846    6.6802   -8.4911 C   0  0  0  0  0  0  0  0  0  0  0  0
    9.4594    7.4203   -9.5710 O   0  0  0  0  0  0  0  0  0  0  0  0
    9.2734    6.8144  -10.7282 C   0  0  0  0  0  0  0  0  0  0  0  0
    8.7495    5.5380  -10.6247 C   0  0  0  0  0  0  0  0  0  0  0  0
    8.3845    4.5563  -11.5282 C   0  0  0  0  0  0  0  0  0  0  0  0
    9.6469    7.1224  -12.0247 C   0  0  0  0  0  0  0  0  0  0  0  0
    8.5734    5.2184   -9.0933 C   0  0  0  0  0  0  0  0  0  0  0  0
    8.8106    4.9938  -12.8290 N   0  0  0  0  0  0  0  0  0  0  0  0
    9.2622    6.2484  -12.9343 C   0  0  0  0  0  0  0  0  0  0  0  0
  1  2  1  0
  2  3  1  0
  3  4  2  0
  4  5  1  0
  3  6  1  0
  1  7  2  0
  4  7  1  0
  5  8  2  0
  6  9  2  0
  8  9  1  0
M  END

$$$$

     RDKit          3D

  9  9  0  0  0  0  0  0  0  0999 V2000
    9.1846    6.6802   -8.4911 C   0  0  0  0  0  0  0  0  0  0  0  0
    9.4594    7.4203   -9.5710 O   0  0  0  0  0  0  0  0  0  0  0  0
   10.0701    6.9349  -10.4785 C   0  0  0  0  0  0  0  0  0  0  0  0
    8.4260    5.5139   -8.8199 C   0  0  0  0  0  0  0  0  0  0  0  0
    8.3737    5.4361  -10.2958 O   0  0  0  0  0  0  0  0  0  0  0  0
    9.4338    5.7143  -10.9192 C   0  0  0  0  0  0  0  0  0  0  0  0
    9.6812    5.1164  -12.1265 C   0  0  0  0  0  0  0  0  0  0  0  0
    8.9727    4.0143  -12.5728 O   0  0  0  0  0  0  0  0  0  0  0  0
   10.3763    5.5317  -12.8982 O   0  0  0  0  0  0  0  0  0  0  0  0
  1  2  1  0
  2  3  1  0
  1  4  1  0
  4  5  1  0
  3  6  2  0
  5  6  1  0
  6  7  1  0
  7  8  1  0
  7  9  2  0
M  END

$$$$

     RDKit          3D

  9 10  0  0  0  0  0  0  0  0999 V2000
    9.1846    6.6802   -8.4911 C   0  0  0  0  0  0  0  0  0  0  0  0
    9.4594    7.4203   -9.5710 O   0  0  0  0  0  0  0  0  0  0  0  0
    9.2734    6.8144  -10.7282 C   0  0  0  0  0  0  0  0  0  0  0  0
    8.7495    5.5380  -10.6247 C   0  0  0  0  0  0  0  0  0  0  0  0
    8.3845    4.5563  -11.5282 C   0  0  0  0  0  0  0  0  0  0  0  0
    9.5208    7.2969  -12.0420 C   0  0  0  0  0  0  0  0  0  0  0  0
    9.1902    6.3274  -12.9561 C   0  0  0  0  0  0  0  0  0  0  0  0
    8.4213    5.0728   -9.0653 S   0  0  0  0  0  0  0  0  0  0  0  0
    8.7010    5.1060  -12.8559 C   0  0  0  0  0  0  0  0  0  0  0  0
  1  2  1  0
  2  3  1  0
  3  4  2  0
  4  5  1  0
  3  6  1  0
  6  7  2  0
  1  8  1  0
  4  8  1  0
  5  9  2  0
  7  9  1  0
M  END

$$$$

     RDKit          3D

  9 10  0  0  0  0  0  0  0  0999 V2000
    9.1846    6.6802   -8.4911 C   0  0  0  0  0  0  0  0  0  0  0  0
    9.4594    7.4203   -9.5710 O   0  0  0  0  0  0  0  0  0  0  0  0
   10.0701    6.9349  -10.4785 C   0  0  0  0  0  0  0  0  0  0  0  0
   11.2447    7.5102  -10.7232 C   0  0  0  0  0  0  0  0  0  0  0  0
    9.2072    6.9215  -11.5793 C   0  0  0  0  0  0  0  0  0  0  0  0
    9.0263    5.4400   -8.8529 C   0  0  0  0  0  0  0  0  0  0  0  0
    8.6847    5.4656  -11.8399 C   0  0  0  0  0  0  0  0  0  0  0  0
   10.1116    5.4232  -10.0094 C   0  0  0  0  0  0  0  0  0  0  0  0
    9.5428    4.6073  -11.0982 C   0  0  0  0  0  0  0  0  0  0  0  0
  1  2  1  0
  2  3  1  0
  3  4  1  0
  3  5  1  0
  1  6  1  0
  5  7  1  0
  3  8  1  0
  6  8  1  0
  7  9  1  0
  8  9  1  0
M  END

$$$$

     RDKit          3D

  9 10  0  0  0  0  0  0  0  0999 V2000
    9.1846    6.6802   -8.4911 C   0  0  0  0  0  0  0  0  0  0  0  0
    9.4594    7.4203   -9.5710 O   0  0  0  0  0  0  0  0  0  0  0  0
    9.2734    6.8144  -10.7282 C   0  0  0  0  0  0  0  0  0  0  0  0
    8.7495    5.5380  -10.6247 C   0  0  0  0  0  0  0  0  0  0  0  0
    8.3845    4.5563  -11.5282 C   0  0  0  0  0  0  0  0  0  0  0  0
    9.8657    7.0063  -11.9792 C   0  0  0  0  0  0  0  0  0  0  0  0
    9.8048    6.0817  -12.8574 C   0  0  0  0  0  0  0  0  0  0  0  0
    9.0882    4.9438  -12.7814 C   0  0  0  0  0  0  0  0  0  0  0  0
    8.0487    5.3608   -9.1468 N   0  0  0  0  0  0  0  0  0  0  0  0
  1  2  1  0
  2  3  1  0
  3  4  2  0
  4  5  1  0
  3  6  1  0
  6  7  2  0
  5  8  2  0
  7  8  1  0
  1  9  1  0
  4  9  1  0
M  END

$$$$

     RDKit          3D

  5  5  0  0  0  0  0  0  0  0999 V2000
    9.0380    6.8696   -8.5657 N   0  0  0  0  0  0  0  0  0  0  0  0
    9.6157    7.5091   -9.4648 C   0  0  0  0  0  0  0  0  0  0  0  0
    9.9874    6.9414  -10.5737 C   0  0  0  0  0  0  0  0  0  0  0  0
    8.6673    5.5986   -8.7586 C   0  0  0  0  0  0  0  0  0  0  0  0
    9.3329    5.4640  -10.5312 S   0  0  0  0  0  0  0  0  0  0  0  0
  1  2  1  0
  2  3  2  0
  1  4  2  0
  3  5  1  0
  4  5  1  0
M  END

$$$$

     RDKit          3D

  9 10  0  0  0  0  0  0  0  0999 V2000
    9.1846    6.6802   -8.4911 C   0  0  0  0  0  0  0  0  0  0  0  0
    9.4594    7.4203   -9.5710 O   0  0  0  0  0  0  0  0  0  0  0  0
    9.2734    6.8144  -10.7282 C   0  0  0  0  0  0  0  0  0  0  0  0
    8.7495    5.5380  -10.6247 C   0  0  0  0  0  0  0  0  0  0  0  0
    8.3845    4.5563  -11.5282 C   0  0  0  0  0  0  0  0  0  0  0  0
    8.8698    4.8692  -12.8331 N   0  0  0  0  0  0  0  0  0  0  0  0
    9.4515    6.0848  -12.9781 C   0  0  0  0  0  0  0  0  0  0  0  0
    9.6929    7.0146  -12.0036 C   0  0  0  0  0  0  0  0  0  0  0  0
    8.3470    5.5744   -9.0169 O   0  0  0  0  0  0  0  0  0  0  0  0
  1  2  1  0
  2  3  1  0
  3  4  2  0
  4  5  1  0
  5  6  2  0
  6  7  1  0
  3  8  1  0
  7  8  2  0
  1  9  1  0
  4  9  1  0
M  END

$$$$

     RDKit          3D

  5  5  0  0  0  0  0  0  0  0999 V2000
    9.0380    6.8696   -8.5657 O   0  0  0  0  0  0  0  0  0  0  0  0
    9.5960    7.4785   -9.4365 C   0  0  0  0  0  0  0  0  0  0  0  0
    9.8881    6.8213  -10.6001 C   0  0  0  0  0  0  0  0  0  0  0  0
    9.0543    5.6612   -8.7119 C   0  0  0  0  0  0  0  0  0  0  0  0
    9.7070    5.5619  -10.0445 C   0  0  0  0  0  0  0  0  0  0  0  0
  1  2  1  0
  2  3  1  0
  1  4  1  0
  3  5  1  0
  4  5  1  0
M  END

$$$$

     RDKit          3D

  5  5  0  0  0  0  0  0  0  0999 V2000
    9.0380    6.8696   -8.5657 N   0  0  0  0  0  0  0  0  0  0  0  0
    9.6157    7.5091   -9.4648 C   0  0  0  0  0  0  0  0  0  0  0  0
    9.9874    6.9414  -10.5737 C   0  0  0  0  0  0  0  0  0  0  0  0
    9.2935    5.6377  -10.5027 C   0  0  0  0  0  0  0  0  0  0  0  0
    8.8553    5.6055   -8.9878 C   0  0  0  0  0  0  0  0  0  0  0  0
  1  2  1  0
  2  3  2  0
  3  4  1  0
  1  5  2  0
  4  5  2  0
M  END

$$$$

     RDKit          3D

  5  5  0  0  0  0  0  0  0  0999 V2000
    9.1846    6.6802   -8.4911 C   0  0  0  0  0  0  0  0  0  0  0  0
    9.4594    7.4203   -9.5710 O   0  0  0  0  0  0  0  0  0  0  0  0
    8.6012    5.4606   -8.8529 C   0  0  0  0  0  0  0  0  0  0  0  0
    8.5641    5.3350  -10.3409 C   0  0  0  0  0  0  0  0  0  0  0  0
    8.8948    6.7382  -10.6911 C   0  0  0  0  0  0  0  0  0  0  0  0
  1  2  1  0
  1  3  1  0
  3  4  1  0
  2  5  1  0
  4  5  2  0
M  END

$$$$

     RDKit          3D

  5  4  0  0  0  0  0  0  0  0999 V2000
    9.1846    6.6802   -8.4911 C   0  0  0  0  0  0  0  0  0  0  0  0
    9.4594    7.4203   -9.5710 O   0  0  0  0  0  0  0  0  0  0  0  0
   10.0701    6.9349  -10.4785 C   0  0  0  0  0  0  0  0  0  0  0  0
   11.2447    7.5102  -10.7232 C   0  0  0  0  0  0  0  0  0  0  0  0
   12.0198    7.2584  -11.8675 O   0  0  0  0  0  0  0  0  0  0  0  0
  1  2  1  0
  2  3  1  0
  3  4  1  0
  4  5  1  0
M  END

$$$$

     RDKit          3D

  5  5  0  0  0  0  0  0  0  0999 V2000
    9.0380    6.8696   -8.5657 O   0  0  0  0  0  0  0  0  0  0  0  0
    9.5960    7.4785   -9.4365 C   0  0  0  0  0  0  0  0  0  0  0  0
    9.8881    6.8213  -10.6001 C   0  0  0  0  0  0  0  0  0  0  0  0
    8.9557    5.5481   -8.7528 C   0  0  0  0  0  0  0  0  0  0  0  0
    9.6245    5.4837  -10.1281 O   0  0  0  0  0  0  0  0  0  0  0  0
  1  2  1  0
  2  3  1  0
  1  4  1  0
  3  5  1  0
  4  5  1  0
M  END

$$$$
