DiffSBDD_0
     RDKit          3D

 18 20  0  0  0  0  0  0  0  0999 V2000
   11.5250    7.6600   -4.8090 N   0  0  0  0  0  0  0  0  0  0  0  0
   13.5320    8.8060   -0.9170 C   0  0  0  0  0  0  0  0  0  0  0  0
   11.9210    9.9070   -4.4670 C   0  0  0  0  0  0  0  0  0  0  0  0
   11.2090    9.3750   -6.8440 C   0  0  0  0  0  0  0  0  0  0  0  0
    7.8600    5.6000   -8.6220 O   0  0  0  0  0  0  0  0  0  0  0  0
   12.4160    6.5670   -1.3490 C   0  0  0  0  0  0  0  0  0  0  0  0
   12.8550    8.0020   -1.6510 N   0  0  0  0  0  0  0  0  0  0  0  0
   10.1520    7.8980   -9.3340 C   0  0  0  0  0  0  0  0  0  0  0  0
   12.0610    6.2800   -2.7410 C   0  0  0  0  0  0  0  0  0  0  0  0
   12.4060    8.4760   -2.7650 C   0  0  0  0  0  0  0  0  0  0  0  0
   11.9320    7.4970   -3.6120 C   0  0  0  0  0  0  0  0  0  0  0  0
   12.2890    9.6700   -3.2010 C   0  0  0  0  0  0  0  0  0  0  0  0
   11.5190    8.9050   -5.3460 C   0  0  0  0  0  0  0  0  0  0  0  0
   10.1380    6.4160   -9.4330 C   0  0  0  0  0  0  0  0  0  0  0  0
    8.8310    5.4730   -7.6600 C   0  0  0  0  0  0  0  0  0  0  0  0
    9.9890    8.2790   -7.5670 S   0  0  1  0  0  0  0  0  0  0  0  0
   10.8010    6.6420   -7.0990 C   0  0  0  0  0  0  0  0  0  0  0  0
   10.0570    5.9800   -8.2100 C   0  0  2  0  0  0  0  0  0  0  0  0
  1 11  1  0
  3 12  2  0
  4 13  1  0
  5 15  1  0
  7  6  1  0
  7  2  1  0
  8 16  1  0
  9  6  1  0
 10  7  1  0
 11 10  2  0
 11  9  1  0
 12 10  1  0
 13  1  2  0
 13  3  1  0
 14  8  1  0
 14 18  1  0
 16 17  1  0
 16  4  1  6
 18 15  1  1
 18 17  1  0
M  END
>  <GenAI_Model>  (1) 
DiffSBDD

>  <Protein>  (1) 
generic_title2

>  <num_sample>  (1) 
100

$$$$
DiffSBDD_1
     RDKit          3D

 35 37  0  0  0  0  0  0  0  0999 V2000
   12.0590    8.2980   -0.3540 F   0  0  0  0  0  0  0  0  0  0  0  0
    7.7990    3.8280  -12.1610 C   0  0  0  0  0  0  0  0  0  0  0  0
   12.3100    6.5170   -2.8940 C   0  0  0  0  0  0  0  0  0  0  0  0
   12.1680    8.3580   -1.6500 C   0  0  0  0  0  0  0  0  0  0  0  0
    9.3380    5.4790   -8.0630 C   0  0  1  0  0  0  0  0  0  0  0  0
   13.0030    9.1220   -4.2820 C   0  0  0  0  0  0  0  0  0  0  0  0
   13.4130    6.6390   -1.0770 F   0  0  0  0  0  0  0  0  0  0  0  0
    5.1880    4.0620  -13.0970 C   0  0  0  0  0  0  0  0  0  0  0  0
   11.7480    8.1980   -4.6620 C   0  0  2  0  0  0  0  0  0  0  0  0
   11.1640    7.1710   -3.9230 C   0  0  0  0  0  0  0  0  0  0  0  0
    8.7160    4.9970   -9.5870 C   0  0  0  0  0  0  0  0  0  0  0  0
   10.6970    8.8360   -5.6310 C   0  0  1  0  0  0  0  0  0  0  0  0
    9.3770    8.0620  -10.5600 C   0  0  0  0  0  0  0  0  0  0  0  0
    9.8580    5.3320  -11.8930 O   0  0  0  0  0  0  0  0  0  0  0  0
   10.7430    7.5490   -7.6470 C   0  0  0  0  0  0  0  0  0  0  0  0
    9.9950    6.7910   -8.5720 C   0  0  2  0  0  0  0  0  0  0  0  0
    7.7640    5.3850  -12.0300 C   0  0  0  0  0  0  0  0  0  0  0  0
    6.7000    6.1390  -13.0040 C   0  0  0  0  0  0  0  0  0  0  0  0
   11.7030    9.3930   -2.3690 N   0  0  0  0  0  0  0  0  0  0  0  0
    8.6360    8.0530  -11.7400 C   0  0  0  0  0  0  0  0  0  0  0  0
   12.2730    6.2180  -14.1380 O   0  0  0  0  0  0  0  0  0  0  0  0
   10.9930    9.9220   -6.0680 O   0  0  0  0  0  0  0  0  0  0  0  0
    9.0220    7.5800  -13.0100 C   0  0  0  0  0  0  0  0  0  0  0  0
   12.9400    7.4890   -2.0500 C   0  0  1  0  0  0  0  0  0  0  0  0
   11.5200    6.9360  -13.1150 C   0  0  0  0  0  0  0  0  0  0  0  0
    8.9900    5.7120  -10.9700 C   0  0  1  0  0  0  0  0  0  0  0  0
   10.1950    7.1140  -13.4220 C   0  0  0  0  0  0  0  0  0  0  0  0
   11.9960    7.8790   -7.9230 O   0  0  0  0  0  0  0  0  0  0  0  0
   11.9370    9.5050   -3.7550 C   0  0  1  0  0  0  0  0  0  0  0  0
    8.1180    5.7580   -7.2690 O   0  0  0  0  0  0  0  0  0  0  0  0
    5.8070    2.6240  -13.3110 C   0  0  0  0  0  0  0  0  0  0  0  0
   10.2330    7.7530   -6.4220 N   0  0  0  0  0  0  0  0  0  0  0  0
    5.6570    5.1450  -13.5600 C   0  0  0  0  0  0  0  0  0  0  0  0
    7.2480    2.6650  -12.9780 C   0  0  0  0  0  0  0  0  0  0  0  0
    9.0680    7.4970   -9.4510 O   0  0  0  0  0  0  0  0  0  0  0  0
  2 17  2  0
  3 24  1  0
  4  1  1  0
  5 30  1  1
  9 12  1  0
  9  6  1  1
  9 10  1  0
  9 29  1  0
 10  3  1  0
 11  5  1  0
 12 22  1  6
 13 35  1  0
 15 32  1  0
 16 35  1  1
 16  5  1  0
 16 15  1  0
 17 26  1  0
 18 17  1  0
 19  4  2  0
 20 13  1  0
 21 25  1  0
 23 20  1  0
 24  4  1  0
 24  7  1  1
 26 14  1  6
 26 11  1  0
 27 25  1  0
 27 23  2  3
 28 15  2  0
 29  6  1  1
 29 19  1  0
 31  8  1  0
 31 34  1  0
 32 12  1  0
 33  8  1  0
 33 18  1  0
 34  2  1  0
M  END
>  <GenAI_Model>  (2) 
DiffSBDD

>  <Protein>  (2) 
generic_title2

>  <num_sample>  (2) 
100

$$$$
DiffSBDD_2
     RDKit          3D

 35 39  0  0  0  0  0  0  0  0999 V2000
   11.4930    8.9930   -5.1890 C   0  0  0  0  0  0  0  0  0  0  0  0
    9.1220    6.0730  -10.6780 N   0  0  0  0  0  0  0  0  0  0  0  0
    7.6690    4.0090  -13.0680 C   0  0  0  0  0  0  0  0  0  0  0  0
    6.8150    7.1400  -15.3890 C   0  0  0  0  0  0  0  0  0  0  0  0
    5.1050    4.1710  -12.3260 C   0  0  0  0  0  0  0  0  0  0  0  0
   11.9610    7.5070   -1.7870 C   0  0  1  0  0  0  0  0  0  0  0  0
    5.6980    6.6610  -13.0730 C   0  0  0  0  0  0  0  0  0  0  0  0
   11.9170    8.0220  -10.0170 O   0  0  0  0  0  0  0  0  0  0  0  0
   11.7530    7.6610   -3.3110 C   0  0  0  0  0  0  0  0  0  0  0  0
    9.4350    6.2340   -8.2890 C   0  0  2  0  0  0  0  0  0  0  0  0
    8.2730    6.5680  -13.0450 C   0  0  0  0  0  0  0  0  0  0  0  0
   10.9030    7.4850   -9.7330 C   0  0  0  0  0  0  0  0  0  0  0  0
    8.6560    4.1810  -11.0150 C   0  0  0  0  0  0  0  0  0  0  0  0
   11.8270    6.1690   -1.1330 C   0  0  0  0  0  0  0  0  0  0  0  0
   13.1220    6.6280   -1.5720 O   0  0  0  0  0  0  0  0  0  0  0  0
    8.6280    6.5440   -7.1700 O   0  0  0  0  0  0  0  0  0  0  0  0
    9.3680    6.4880  -13.4960 O   0  0  0  0  0  0  0  0  0  0  0  0
   11.6120   10.1160   -2.9960 C   0  0  0  0  0  0  0  0  0  0  0  0
   11.6310    9.9980   -1.6620 C   0  0  0  0  0  0  0  0  0  0  0  0
    5.0270    5.2690  -13.4030 C   0  0  0  0  0  0  0  0  0  0  0  0
    5.4360    7.7480  -15.7940 C   0  0  0  0  0  0  0  0  0  0  0  0
   11.5010    8.5970    0.1530 F   0  0  0  0  0  0  0  0  0  0  0  0
   11.4500    6.4100   -5.5870 C   0  0  0  0  0  0  0  0  0  0  0  0
    9.8410    7.3000  -10.7640 C   0  0  0  0  0  0  0  0  0  0  0  0
   11.5750    8.8900   -3.8670 C   0  0  0  0  0  0  0  0  0  0  0  0
    7.4630    4.6820  -11.7550 C   0  0  0  0  0  0  0  0  0  0  0  0
    6.9620    7.0880  -13.7830 C   0  0  1  0  0  0  0  0  0  0  0  0
   11.3980    7.7920   -6.0930 C   0  0  0  0  0  0  0  0  0  0  0  0
   11.7620    6.3820   -4.0760 C   0  0  0  0  0  0  0  0  0  0  0  0
    7.9880    6.2410  -11.6310 C   0  0  1  0  0  0  0  0  0  0  0  0
   11.2960    7.9330   -7.5170 C   0  0  0  0  0  0  0  0  0  0  0  0
   10.6140    7.2140   -8.3110 N   0  0  0  0  0  0  0  0  0  0  0  0
   11.7690    8.7260   -1.1010 C   0  0  0  0  0  0  0  0  0  0  0  0
    6.0690    4.3570  -11.1840 C   0  0  0  0  0  0  0  0  0  0  0  0
    8.6550    6.0910   -9.3550 C   0  0  0  0  0  0  0  0  0  0  0  0
  1 25  1  0
  2 24  1  0
  2 35  1  0
  3 26  1  0
  5 34  1  0
  6 15  1  0
  6 14  1  1
  6 33  1  0
  8 12  2  0
  9  6  1  0
 10 16  1  1
 12 32  1  0
 15 14  1  0
 17 11  2  0
 18 19  1  0
 19 33  2  0
 20  7  1  0
 20  5  2  0
 21  4  1  0
 23 29  2  0
 24 12  1  0
 25  9  2  0
 25 18  1  0
 26 30  1  0
 26 34  1  0
 26 13  1  0
 27  4  1  6
 27  7  1  0
 27 11  1  0
 28 23  1  0
 28  1  2  0
 29  9  1  0
 30 11  1  0
 30  2  1  1
 31 28  1  0
 32 10  1  0
 32 31  1  0
 33 22  1  0
 35 10  1  0
M  END
>  <GenAI_Model>  (3) 
DiffSBDD

>  <Protein>  (3) 
generic_title2

>  <num_sample>  (3) 
100

$$$$
DiffSBDD_3
     RDKit          3D

 37 45  0  0  0  0  0  0  0  0999 V2000
    9.5460    3.8190  -11.6270 C   0  0  0  0  0  0  0  0  0  0  0  0
   11.4250    7.5950  -10.8430 O   0  0  0  0  0  0  0  0  0  0  0  0
   11.7110    7.7740    0.0600 C   0  0  0  0  0  0  0  0  0  0  0  0
   11.8390    8.8120   -5.8650 C   0  0  0  0  0  0  0  0  0  0  0  0
    5.9550    6.4070  -13.1480 C   0  0  0  0  0  0  0  0  0  0  0  0
   10.7900    7.8630   -8.4860 C   0  0  2  0  0  0  0  0  0  0  0  0
    5.5180    7.3450  -14.1370 C   0  0  0  0  0  0  0  0  0  0  0  0
   12.2600    9.1780   -1.9880 C   0  0  2  0  0  0  0  0  0  0  0  0
   11.8910    8.7270   -8.4180 O   0  0  0  0  0  0  0  0  0  0  0  0
   13.6140    9.2580   -1.6690 C   0  0  0  0  0  0  0  0  0  0  0  0
   10.3350    6.5480   -6.1670 C   0  0  2  0  0  0  0  0  0  0  0  0
    7.6470    3.4100  -13.3230 C   0  0  0  0  0  0  0  0  0  0  0  0
   11.1950    7.0710  -12.2190 C   0  0  0  0  0  0  0  0  0  0  0  0
    7.8390    4.9570  -14.6740 C   0  0  0  0  0  0  0  0  0  0  0  0
   10.3380    7.5370   -9.8960 C   0  0  2  0  0  0  0  0  0  0  0  0
    6.6700    4.1150  -14.4080 C   0  0  2  0  0  0  0  0  0  0  0  0
   13.0360    6.7230   -1.5530 C   0  0  2  0  0  0  0  0  0  0  0  0
    8.2650    4.2590  -12.3320 C   0  0  1  0  0  0  0  0  0  0  0  0
    9.4090    6.3580  -10.4060 C   0  0  0  0  0  0  0  0  0  0  0  0
    6.5860    7.6030  -13.4440 C   0  0  0  0  0  0  0  0  0  0  0  0
    9.6210    8.6710   -9.0630 C   0  0  0  0  0  0  0  0  0  0  0  0
   12.1530    7.1920   -3.7420 C   0  0  2  0  0  0  0  0  0  0  0  0
   10.8100    7.9320   -5.8340 C   0  0  1  0  0  0  0  0  0  0  0  0
    5.6940    5.1830  -12.2110 C   0  0  2  0  0  0  0  0  0  0  0  0
    8.2660    6.0080  -14.0940 C   0  0  0  0  0  0  0  0  0  0  0  0
   13.8020    5.9010   -0.4680 C   0  0  0  0  0  0  0  0  0  0  0  0
   11.1630    6.7410   -4.8250 C   0  0  1  0  0  0  0  0  0  0  0  0
    6.5590    4.1820  -11.3980 C   0  0  0  0  0  0  0  0  0  0  0  0
   12.6900    8.0480   -0.9120 C   0  0  1  0  0  0  0  0  0  0  0  0
    8.4360    5.7310  -12.6500 C   0  0  1  0  0  0  0  0  0  0  0  0
    8.5950    6.7860  -11.5840 C   0  0  0  0  0  0  0  0  0  0  0  0
   10.9530    7.0010   -0.8520 F   0  0  0  0  0  0  0  0  0  0  0  0
    5.9580    4.9560  -13.6160 C   0  0  1  0  0  0  0  0  0  0  0  0
   10.4990    6.4790   -7.8320 C   0  0  0  0  0  0  0  0  0  0  0  0
   12.3710    9.5650   -4.5160 C   0  0  0  0  0  0  0  0  0  0  0  0
   12.2000    6.2380   -2.6650 C   0  0  0  0  0  0  0  0  0  0  0  0
   11.8270    8.7590   -3.3990 C   0  0  2  0  0  0  0  0  0  0  0  0
  2 15  1  0
  4 35  1  0
  5 24  1  0
  6  9  1  6
  6 34  1  0
  7 20  1  0
  7  5  1  0
  8 10  1  6
  8 29  1  0
 10 29  1  0
 11 34  1  6
 11 23  1  0
 27 11  1  6
 12 18  1  0
 13  2  1  0
 14 25  1  0
 15 19  1  1
 15 21  1  0
 15  6  1  0
 16 14  1  6
 16 33  1  0
 16 12  1  0
 17 29  1  0
 17 26  1  1
 18  1  1  1
 18 28  1  0
 20  5  1  0
 21  6  1  0
 22 37  1  0
 22 36  1  1
 23  4  1  6
 23 27  1  0
 24 28  1  1
 25 30  1  0
 27 22  1  0
 29  3  1  1
 30 18  1  0
 30 31  1  1
 31 19  1  0
 32  3  1  0
 33  5  1  1
 33 24  1  0
 37 35  1  6
 36 17  1  0
 37  8  1  0
M  END
>  <GenAI_Model>  (4) 
DiffSBDD

>  <Protein>  (4) 
generic_title2

>  <num_sample>  (4) 
100

$$$$
DiffSBDD_4
     RDKit          3D

 34 38  0  0  0  0  0  0  0  0999 V2000
    9.4030    6.3410   -9.7990 C   0  0  1  0  0  0  0  0  0  0  0  0
   10.3670    7.9940   -7.3640 C   0  0  2  0  0  0  0  0  0  0  0  0
   11.7050    5.9560   -4.5270 C   0  0  0  0  0  0  0  0  0  0  0  0
   13.1240    8.5100   -2.1890 O   0  0  0  0  0  0  0  0  0  0  0  0
   12.0840    6.8830   -2.0750 C   0  0  1  0  0  0  0  0  0  0  0  0
   10.7370    6.0910  -12.4170 O   0  0  0  0  0  0  0  0  0  0  0  0
    9.1440    5.9000   -8.3160 C   0  0  2  0  0  0  0  0  0  0  0  0
    6.1670    5.2220  -14.5270 C   0  0  2  0  0  0  0  0  0  0  0  0
   11.9250    7.2530   -5.4950 C   0  0  2  0  0  0  0  0  0  0  0  0
    8.9290    5.4930  -10.7210 C   0  0  2  0  0  0  0  0  0  0  0  0
   11.8050    8.9920   -0.5250 C   0  0  0  0  0  0  0  0  0  0  0  0
    7.3230    4.3440  -14.2870 O   0  0  0  0  0  0  0  0  0  0  0  0
   11.6410    9.8050   -4.3510 C   0  0  0  0  0  0  0  0  0  0  0  0
   13.2450    6.7930   -1.2890 C   0  0  0  0  0  0  0  0  0  0  0  0
    6.4930    6.7910  -14.7480 C   0  0  0  0  0  0  0  0  0  0  0  0
   12.3880    7.9240   -2.9780 C   0  0  0  0  0  0  0  0  0  0  0  0
    5.8050    6.7350  -12.5130 O   0  0  0  0  0  0  0  0  0  0  0  0
    9.5820    7.7590   -9.6030 C   0  0  0  0  0  0  0  0  0  0  0  0
    8.4500    7.6720  -12.4330 C   0  0  0  0  0  0  0  0  0  0  0  0
    6.9600    5.7910  -12.4390 C   0  0  0  0  0  0  0  0  0  0  0  0
    8.4440    5.0120  -13.9160 O   0  0  0  0  0  0  0  0  0  0  0  0
   13.0300    8.9130   -0.1000 C   0  0  0  0  0  0  0  0  0  0  0  0
    6.1190    6.3540  -13.5470 C   0  0  1  0  0  0  0  0  0  0  0  0
   12.1170    5.9520   -3.2900 C   0  0  0  0  0  0  0  0  0  0  0  0
    9.2120    4.5750  -11.5430 C   0  0  0  0  0  0  0  0  0  0  0  0
   11.9440    8.2810   -4.3510 C   0  0  2  0  0  0  0  0  0  0  0  0
    7.7750    5.4260   -8.1600 O   0  0  0  0  0  0  0  0  0  0  0  0
   11.6080   10.4400   -2.9310 C   0  0  0  0  0  0  0  0  0  0  0  0
   11.4340    8.3250   -6.3960 C   0  0  0  0  0  0  0  0  0  0  0  0
    8.3660    5.9330  -12.8320 C   0  0  1  0  0  0  0  0  0  0  0  0
    9.6850    6.5660   -7.0790 C   0  0  0  0  0  0  0  0  0  0  0  0
    9.4200    5.6160  -12.0870 C   0  0  2  0  0  0  0  0  0  0  0  0
   10.9780    7.7770   -1.0770 O   0  0  0  0  0  0  0  0  0  0  0  0
   10.7830    8.1850   -8.7500 C   0  0  0  0  0  0  0  0  0  0  0  0
  1 18  1  6
  1  7  1  0
  2 31  1  0
  2 29  1  1
  3 24  1  0
  5 14  1  1
  5 33  1  0
  7 27  1  1
  7 31  1  0
  8 15  1  6
  8 12  1  0
  8 23  1  0
  9 29  1  6
  9  3  1  0
  9 26  1  0
 10 25  1  1
 10  1  1  0
 11 22  2  0
 12 21  1  0
 13 28  1  0
 16  4  2  0
 16  5  1  0
 17 20  1  0
 18 34  1  0
 21 30  1  0
 23 15  1  6
 23 17  1  0
 24  5  1  0
 26 13  1  6
 26 16  1  0
 30 20  1  0
 30 19  1  6
 30 32  1  0
 32  6  1  1
 32 25  1  0
 32 10  1  0
 33 11  1  0
 34  2  1  0
M  END
>  <GenAI_Model>  (5) 
DiffSBDD

>  <Protein>  (5) 
generic_title2

>  <num_sample>  (5) 
100

$$$$
DiffSBDD_5
     RDKit          3D

 34 37  0  0  0  0  0  0  0  0999 V2000
    9.2870    5.8110   -9.1690 C   0  0  2  0  0  0  0  0  0  0  0  0
   11.5720    8.3430   -4.8030 C   0  0  0  0  0  0  0  0  0  0  0  0
    7.9980    8.2560  -11.9550 O   0  0  0  0  0  0  0  0  0  0  0  0
    8.3120    5.6880  -10.3640 C   0  0  1  0  0  0  0  0  0  0  0  0
    5.9790    6.6520  -16.1530 C   0  0  0  0  0  0  0  0  0  0  0  0
   12.8730    6.5240   -1.8280 O   0  0  0  0  0  0  0  0  0  0  0  0
    7.2320    7.2570  -12.5530 S   0  0  1  0  0  0  0  0  0  0  0  0
   10.2320    6.3590  -13.2320 O   0  0  0  0  0  0  0  0  0  0  0  0
    9.8060    6.3740  -12.0450 C   0  0  0  0  0  0  0  0  0  0  0  0
   11.6300    9.6280   -4.2160 C   0  0  0  0  0  0  0  0  0  0  0  0
    8.0100    5.2140   -8.4440 O   0  0  0  0  0  0  0  0  0  0  0  0
    9.7030    7.9920   -7.8890 C   0  0  0  0  0  0  0  0  0  0  0  0
    6.0000    5.0500  -11.0340 C   0  0  0  0  0  0  0  0  0  0  0  0
    8.3870    5.7660  -11.6610 C   0  0  1  0  0  0  0  0  0  0  0  0
    6.7000    6.6390  -15.0150 C   0  0  0  0  0  0  0  0  0  0  0  0
    6.4700    5.9400  -12.1190 C   0  0  0  0  0  0  0  0  0  0  0  0
   11.3780    8.0980   -6.1490 O   0  0  0  0  0  0  0  0  0  0  0  0
    7.8190    5.7720  -14.8590 C   0  0  0  0  0  0  0  0  0  0  0  0
   13.1940    7.1780   -0.7240 C   0  0  0  0  0  0  0  0  0  0  0  0
   11.8260    7.2340   -4.0260 C   0  0  0  0  0  0  0  0  0  0  0  0
    7.4780    4.9830  -17.1540 C   0  0  0  0  0  0  0  0  0  0  0  0
    8.1880    4.9930  -15.9440 C   0  0  0  0  0  0  0  0  0  0  0  0
    6.3290    7.5830  -13.9920 N   0  0  0  0  0  0  0  0  0  0  0  0
   10.4660    7.1200  -11.2860 O   0  0  0  0  0  0  0  0  0  0  0  0
   12.4080    8.6290   -2.1750 C   0  0  0  0  0  0  0  0  0  0  0  0
   12.0110    9.7600   -2.8970 C   0  0  0  0  0  0  0  0  0  0  0  0
   10.0100    6.3520   -8.0180 C   0  0  0  0  0  0  0  0  0  0  0  0
   12.2720    7.3330   -2.7260 C   0  0  0  0  0  0  0  0  0  0  0  0
   12.9140    8.4550   -0.9160 N   0  0  0  0  0  0  0  0  0  0  0  0
    7.2030    4.6280  -10.2520 O   0  0  0  0  0  0  0  0  0  0  0  0
    6.3710    5.8060  -17.3120 C   0  0  0  0  0  0  0  0  0  0  0  0
   13.8020    6.6430    0.4470 N   0  0  0  0  0  0  0  0  0  0  0  0
   11.5710    5.9570   -4.6030 C   0  0  0  0  0  0  0  0  0  0  0  0
   10.6660    8.9260   -7.1210 C   0  0  0  0  0  0  0  0  0  0  0  0
  1 11  1  1
  1 27  1  0
  2 10  1  0
  2 20  2  0
  4 30  1  6
  4  1  1  0
  5 15  1  0
  6 19  1  0
  7 16  1  0
  7  3  1  1
  7 14  1  0
  8  9  2  0
  9 24  1  0
 10 26  2  0
 12 34  1  0
 13 30  1  0
 14  9  1  1
 14  4  1  0
 15 18  2  0
 15 23  1  0
 16 13  1  0
 17  2  1  0
 19 32  1  0
 20 28  1  0
 21 22  2  0
 22 18  1  0
 23  7  1  0
 25 29  1  0
 26 25  1  0
 27 12  1  0
 28 25  2  0
 28  6  1  0
 29 19  2  0
 31 21  1  0
 31  5  2  0
 33 20  1  0
 34 17  1  0
M  END
>  <GenAI_Model>  (6) 
DiffSBDD

>  <Protein>  (6) 
generic_title2

>  <num_sample>  (6) 
100

$$$$
DiffSBDD_6
     RDKit          3D

 29 30  0  0  0  0  0  0  0  0999 V2000
    5.5800    5.1510  -13.6550 C   0  0  0  0  0  0  0  0  0  0  0  0
   13.3800    8.5990   -1.0970 O   0  0  0  0  0  0  0  0  0  0  0  0
   11.9920    7.3410   -3.2480 C   0  0  1  0  0  0  0  0  0  0  0  0
    5.6910    7.0690  -15.0340 C   0  0  0  0  0  0  0  0  0  0  0  0
   11.2420    8.1700   -9.2960 C   0  0  0  0  0  0  0  0  0  0  0  0
    8.6040    5.7370   -7.7050 C   0  0  0  0  0  0  0  0  0  0  0  0
    9.0190    5.9450  -10.0190 C   0  0  1  0  0  0  0  0  0  0  0  0
   10.9520    7.9940   -6.2390 C   0  0  0  0  0  0  0  0  0  0  0  0
   11.0960    6.3360   -1.1220 C   0  0  0  0  0  0  0  0  0  0  0  0
   11.8720    8.1560   -8.0800 C   0  0  0  0  0  0  0  0  0  0  0  0
   10.4460    7.9730   -9.9530 C   0  0  0  0  0  0  0  0  0  0  0  0
   12.1700    6.6100   -2.0160 C   0  0  0  0  0  0  0  0  0  0  0  0
    8.1070    5.0160  -10.9730 C   0  0  0  0  0  0  0  0  0  0  0  0
    7.0470    7.8150  -13.2710 O   0  0  0  0  0  0  0  0  0  0  0  0
   11.8840    9.8370   -2.4160 F   0  0  0  0  0  0  0  0  0  0  0  0
    7.3670    5.6130  -12.0450 C   0  0  1  0  0  0  0  0  0  0  0  0
    9.6280    6.9860  -10.7500 C   0  0  2  0  0  0  0  0  0  0  0  0
   11.6300    7.0540   -4.3490 O   0  0  0  0  0  0  0  0  0  0  0  0
   12.0820    8.8850   -1.2540 C   0  0  0  0  0  0  0  0  0  0  0  0
   12.2800    9.1490   -4.7660 C   0  0  0  0  0  0  0  0  0  0  0  0
   11.6200    9.0520   -7.2420 C   0  0  0  0  0  0  0  0  0  0  0  0
    6.8970    3.2140  -12.7730 C   0  0  0  0  0  0  0  0  0  0  0  0
    7.8430    6.8140  -12.5510 C   0  0  2  0  0  0  0  0  0  0  0  0
    6.2730    5.7330  -14.7730 O   0  0  0  0  0  0  0  0  0  0  0  0
    6.3170    4.6190  -12.5570 C   0  0  2  0  0  0  0  0  0  0  0  0
    8.8110    7.6960  -11.8000 C   0  0  0  0  0  0  0  0  0  0  0  0
   11.9170    7.8070   -5.2820 C   0  0  2  0  0  0  0  0  0  0  0  0
    9.5850    6.3010   -8.3820 O   0  0  0  0  0  0  0  0  0  0  0  0
   12.0230    8.9740   -3.0330 C   0  0  1  0  0  0  0  0  0  0  0  0
  1 25  1  0
  3 29  1  0
  3 12  1  1
  4 24  1  0
  5 10  1  0
  7 28  1  1
 10 21  1  0
 11  5  1  0
 12  9  1  0
 13  7  1  0
 16 25  1  0
 16 13  1  6
 17  7  1  0
 17 11  1  1
 18  3  1  0
 19  2  1  0
 20 29  1  0
 21  8  1  0
 23 14  1  1
 23 16  1  0
 23 26  1  0
 24  1  1  0
 25 22  1  6
 26 17  1  0
 27  8  1  6
 27 20  1  0
 27 18  1  0
 28  6  1  0
 29 15  1  1
 29 19  1  0
M  END
>  <GenAI_Model>  (7) 
DiffSBDD

>  <Protein>  (7) 
generic_title2

>  <num_sample>  (7) 
100

$$$$
DiffSBDD_7
     RDKit          3D

 30 32  0  0  0  0  0  0  0  0999 V2000
   11.2890    8.2310   -5.2490 C   0  0  0  0  0  0  0  0  0  0  0  0
   11.7110    7.5510   -4.1640 C   0  0  0  0  0  0  0  0  0  0  0  0
   12.4320    7.3170   -1.7200 C   0  0  0  0  0  0  0  0  0  0  0  0
    6.5870    6.9180  -15.6330 C   0  0  0  0  0  0  0  0  0  0  0  0
   13.0740    6.1750   -2.1330 F   0  0  0  0  0  0  0  0  0  0  0  0
    7.9990    5.5030  -13.9440 C   0  0  0  0  0  0  0  0  0  0  0  0
    8.7020    5.7390   -9.4810 N   0  0  0  0  0  0  0  0  0  0  0  0
    5.4510    5.0180  -14.4120 C   0  0  1  0  0  0  0  0  0  0  0  0
    6.5480    3.7330  -13.1160 C   0  0  2  0  0  0  0  0  0  0  0  0
   10.5860    7.5090   -9.6640 C   0  0  0  0  0  0  0  0  0  0  0  0
   12.2080    8.8650   -8.4360 C   0  0  0  0  0  0  0  0  0  0  0  0
   11.6660    7.9280   -7.5250 C   0  0  0  0  0  0  0  0  0  0  0  0
    7.8250    4.4220  -13.0020 C   0  0  2  0  0  0  0  0  0  0  0  0
    5.3670    4.6270  -13.1100 C   0  0  0  0  0  0  0  0  0  0  0  0
    4.3590    5.4200  -15.0780 F   0  0  0  0  0  0  0  0  0  0  0  0
   12.1450    8.1510   -2.9590 C   0  0  0  0  0  0  0  0  0  0  0  0
    8.9740    4.4980   -8.5420 C   0  0  0  0  0  0  0  0  0  0  0  0
   11.3220    6.9970   -1.1740 F   0  0  0  0  0  0  0  0  0  0  0  0
    6.9070    5.4290  -15.0220 C   0  0  1  0  0  0  0  0  0  0  0  0
    9.4910    7.1390   -7.2200 S   0  0  0  0  0  0  0  0  0  0  0  0
    7.7120    5.0620  -11.4790 C   0  0  0  0  0  0  0  0  0  0  0  0
   11.1880    8.5750   -9.1120 C   0  0  0  0  0  0  0  0  0  0  0  0
    9.0340    5.4230  -10.8940 C   0  0  0  0  0  0  0  0  0  0  0  0
   10.8570    7.7730   -6.5580 C   0  0  2  0  0  0  0  0  0  0  0  0
    6.2730    2.2830  -12.8980 C   0  0  0  0  0  0  0  0  0  0  0  0
   11.3150    9.6450   -5.1400 C   0  0  0  0  0  0  0  0  0  0  0  0
   11.7730   10.2520   -3.9840 C   0  0  0  0  0  0  0  0  0  0  0  0
   13.2170    7.9750   -0.9370 F   0  0  0  0  0  0  0  0  0  0  0  0
    9.5490    6.7120   -8.8530 C   0  0  0  0  0  0  0  0  0  0  0  0
   12.1830    9.5120   -2.9280 C   0  0  0  0  0  0  0  0  0  0  0  0
  1 26  1  0
  1  2  2  0
  2 16  1  0
  3 18  1  0
  3 28  1  0
  5  3  1  0
  6 13  1  0
  7 29  1  0
  7 17  1  0
  8 15  1  1
  8 14  1  0
  9 14  1  0
  9 13  1  0
  9 25  1  1
 10 22  1  0
 10 29  2  0
 11 12  1  0
 12 24  1  0
 13 21  1  1
 16 30  2  0
 16  3  1  0
 19  4  1  1
 19  8  1  0
 19  6  1  0
 20 24  1  0
 21 23  1  0
 22 11  1  0
 23  7  1  0
 24  1  1  6
 26 27  2  0
 27 30  1  0
 29 20  1  0
M  END
>  <GenAI_Model>  (8) 
DiffSBDD

>  <Protein>  (8) 
generic_title2

>  <num_sample>  (8) 
100

$$$$
DiffSBDD_8
     RDKit          3D

 29 31  0  0  0  0  0  0  0  0999 V2000
   11.6550    8.1020   -3.8010 C   0  0  0  0  0  0  0  0  0  0  0  0
   13.6420    7.6040   -0.9800 O   0  0  0  0  0  0  0  0  0  0  0  0
   12.5820    7.8370  -10.7770 C   0  0  0  0  0  0  0  0  0  0  0  0
   12.2800    9.1380   -1.2480 N   0  0  0  0  0  0  0  0  0  0  0  0
    8.2720    6.2940  -10.2900 C   0  0  2  0  0  0  0  0  0  0  0  0
   10.9400    7.7970   -8.5500 C   0  0  0  0  0  0  0  0  0  0  0  0
   10.2810    7.0540   -1.5080 N   0  0  0  0  0  0  0  0  0  0  0  0
    5.8880    4.3160  -11.5630 C   0  0  0  0  0  0  0  0  0  0  0  0
    7.9790    3.6670  -12.9700 C   0  0  0  0  0  0  0  0  0  0  0  0
    8.0540    6.9310  -12.5620 O   0  0  0  0  0  0  0  0  0  0  0  0
   11.1960    7.5970  -10.8330 C   0  0  0  0  0  0  0  0  0  0  0  0
    5.3660    4.0360  -12.9050 C   0  0  0  0  0  0  0  0  0  0  0  0
    8.9500    7.5810  -10.1500 O   0  0  0  0  0  0  0  0  0  0  0  0
   10.4190    8.5710   -6.2980 S   0  0  0  0  0  0  0  0  0  0  0  0
    8.7900    5.3720   -9.1520 C   0  0  0  0  0  0  0  0  0  0  0  0
    9.9150    7.6020   -7.6240 C   0  0  2  0  0  0  0  0  0  0  0  0
   11.2960    7.7520   -5.1770 N   0  0  0  0  0  0  0  0  0  0  0  0
   13.3220    7.8050  -11.8570 F   0  0  0  0  0  0  0  0  0  0  0  0
    6.9790    7.5890  -13.1560 C   0  0  0  0  0  0  0  0  0  0  0  0
   11.6870    6.3820   -5.0110 C   0  0  0  0  0  0  0  0  0  0  0  0
    9.0690    6.1850   -7.7670 C   0  0  0  0  0  0  0  0  0  0  0  0
   11.8700    6.7100   -3.2840 C   0  0  0  0  0  0  0  0  0  0  0  0
    7.4630    4.3580  -11.7780 C   0  0  1  0  0  0  0  0  0  0  0  0
    8.2420    5.6980  -11.6860 N   0  0  0  0  0  0  0  0  0  0  0  0
   12.5610    7.9380   -1.2760 C   0  0  0  0  0  0  0  0  0  0  0  0
   13.1310    8.0310   -9.4920 C   0  0  0  0  0  0  0  0  0  0  0  0
   12.2640    8.0500   -8.3500 C   0  0  0  0  0  0  0  0  0  0  0  0
   10.3470    7.5990   -9.7750 C   0  0  0  0  0  0  0  0  0  0  0  0
   11.6210    6.8890   -1.7020 C   0  0  1  0  0  0  0  0  0  0  0  0
  1 22  1  0
  3 26  1  0
  5 24  1  6
  5 13  1  0
  5 15  1  0
  6 27  1  0
  6 16  1  0
 10 24  1  0
 11  3  2  0
 11 28  1  0
 12  8  1  0
 13 28  1  0
 14 17  1  0
 15 21  1  0
 16 14  1  1
 17 20  1  0
 17  1  1  0
 18  3  1  0
 19 10  1  0
 20 22  1  0
 21 16  1  0
 22 29  1  0
 23  9  1  6
 23 24  1  0
 23  8  1  0
 25  4  1  0
 25  2  2  0
 26 27  2  0
 28  6  2  0
 29  7  1  6
 29 25  1  0
M  END
>  <GenAI_Model>  (9) 
DiffSBDD

>  <Protein>  (9) 
generic_title2

>  <num_sample>  (9) 
100

$$$$
DiffSBDD_9
     RDKit          3D

 32 37  0  0  0  0  0  0  0  0999 V2000
   11.8930    5.9340   -3.2170 C   0  0  0  0  0  0  0  0  0  0  0  0
   12.3800    8.9190   -1.3030 O   0  0  0  0  0  0  0  0  0  0  0  0
   11.6460    6.4700   -4.4940 C   0  0  0  0  0  0  0  0  0  0  0  0
    7.2780    4.7860  -14.8200 C   0  0  2  0  0  0  0  0  0  0  0  0
    5.9150    6.9630  -15.1210 C   0  0  0  0  0  0  0  0  0  0  0  0
    8.9970    6.2890   -9.0050 C   0  0  0  0  0  0  0  0  0  0  0  0
   12.3900    9.3250   -6.7350 C   0  0  2  0  0  0  0  0  0  0  0  0
   11.3580   10.2370   -6.1950 C   0  0  0  0  0  0  0  0  0  0  0  0
    5.8620    6.9150  -17.4320 C   0  0  0  0  0  0  0  0  0  0  0  0
    8.6040    6.4870  -11.8610 O   0  0  0  0  0  0  0  0  0  0  0  0
   12.2720    6.7250   -2.1910 C   0  0  0  0  0  0  0  0  0  0  0  0
    8.2920    5.4900  -13.9790 C   0  0  0  0  0  0  0  0  0  0  0  0
   10.0090    6.0790   -7.8840 C   0  0  0  0  0  0  0  0  0  0  0  0
    7.9450    5.4980   -9.1970 O   0  0  0  0  0  0  0  0  0  0  0  0
    6.5890    5.8230  -15.6720 C   0  0  2  0  0  0  0  0  0  0  0  0
    6.4430    5.8120  -17.0200 N   0  0  0  0  0  0  0  0  0  0  0  0
   10.7610    7.3620   -8.1180 N   0  0  0  0  0  0  0  0  0  0  0  0
    9.0810    7.7050  -11.2940 C   0  0  0  0  0  0  0  0  0  0  0  0
    5.3750    7.4790  -16.2800 C   0  0  0  0  0  0  0  0  0  0  0  0
   10.4770    8.3670   -9.1830 C   0  0  0  0  0  0  0  0  0  0  0  0
   11.9640    8.6130   -3.6190 C   0  0  0  0  0  0  0  0  0  0  0  0
   11.3250   10.5650   -5.0110 C   0  0  0  0  0  0  0  0  0  0  0  0
    8.4100    5.3600  -11.3930 O   0  0  0  0  0  0  0  0  0  0  0  0
    9.2630    7.6220   -9.7270 C   0  0  0  0  0  0  0  0  0  0  0  0
    7.4800    3.3810  -12.9470 C   0  0  0  0  0  0  0  0  0  0  0  0
   11.7810   10.0050   -3.8310 C   0  0  0  0  0  0  0  0  0  0  0  0
   11.9050    7.6040   -7.3610 C   0  0  2  0  0  0  0  0  0  0  0  0
   11.9280    8.3030   -5.9560 C   0  0  1  0  0  0  0  0  0  0  0  0
    8.3260    4.5800  -12.6740 C   0  0  1  0  0  0  0  0  0  0  0  0
   11.8600    7.7730   -4.7570 C   0  0  0  0  0  0  0  0  0  0  0  0
    6.7340    3.7250  -14.1690 O   0  0  0  0  0  0  0  0  0  0  0  0
   12.2140    8.0520   -2.3410 C   0  0  0  0  0  0  0  0  0  0  0  0
  1 11  2  0
  3  1  1  0
  4 31  1  0
  4 12  1  1
  6 13  2  0
  7  8  1  6
  7 28  1  0
  8 22  1  0
  9 16  1  0
  9 19  1  0
 10 23  1  0
 10 18  1  0
 12 29  1  0
 14  6  1  0
 15  5  1  1
 15  4  1  0
 16 15  1  0
 17 13  1  0
 18 24  1  0
 19  5  1  0
 20 17  1  0
 21 32  2  0
 22 26  1  0
 24 20  2  0
 24  6  1  0
 25 29  1  0
 26 21  1  0
 27 17  1  6
 27  7  1  0
 27 28  1  0
 28 30  1  1
 29 23  1  1
 30  3  2  0
 30 21  1  0
 31 25  1  0
 32 11  1  0
 32  2  1  0
M  END
>  <GenAI_Model>  (10) 
DiffSBDD

>  <Protein>  (10) 
generic_title2

>  <num_sample>  (10) 
100

$$$$
DiffSBDD_10
     RDKit          3D

 28 32  0  0  0  0  0  0  0  0999 V2000
   10.1300    7.6070  -10.3390 S   0  0  0  0  0  0  0  0  0  0  0  0
   11.2760    7.1440   -8.0090 C   0  0  0  0  0  0  0  0  0  0  0  0
    8.4990    5.7390  -11.5800 C   0  0  1  0  0  0  0  0  0  0  0  0
   11.3660    8.0210   -5.2010 C   0  0  0  0  0  0  0  0  0  0  0  0
    6.8960    4.2900  -10.3700 C   0  0  0  0  0  0  0  0  0  0  0  0
   11.9190    7.8360   -3.6350 C   0  0  0  0  0  0  0  0  0  0  0  0
   11.5710    7.5470  -10.8130 O   0  0  0  0  0  0  0  0  0  0  0  0
    6.1720    4.1240  -11.7500 C   0  0  0  0  0  0  0  0  0  0  0  0
   12.2160    6.6280   -1.5880 C   0  0  0  0  0  0  0  0  0  0  0  0
    6.0050    5.6800  -13.8040 C   0  0  0  0  0  0  0  0  0  0  0  0
    6.8850    6.7120  -14.2450 C   0  0  0  0  0  0  0  0  0  0  0  0
    9.6480    6.7150  -11.5770 N   0  0  0  0  0  0  0  0  0  0  0  0
    9.0120    4.3810  -11.6350 C   0  0  0  0  0  0  0  0  0  0  0  0
    6.4090    5.2370  -12.6690 C   0  0  1  0  0  0  0  0  0  0  0  0
    9.1620    8.8770  -10.2420 O   0  0  0  0  0  0  0  0  0  0  0  0
   11.7550    6.6680   -2.8740 C   0  0  0  0  0  0  0  0  0  0  0  0
   10.2330    7.0230   -8.8930 N   0  0  0  0  0  0  0  0  0  0  0  0
    8.4000    4.8450  -10.3610 C   0  0  1  0  0  0  0  0  0  0  0  0
   12.3740    8.9850   -3.0960 C   0  0  0  0  0  0  0  0  0  0  0  0
   11.2530    9.5110   -5.3170 C   0  0  0  0  0  0  0  0  0  0  0  0
   12.7040    7.8440   -0.9960 C   0  0  0  0  0  0  0  0  0  0  0  0
   12.5440    7.7090   -8.2040 O   0  0  0  0  0  0  0  0  0  0  0  0
    7.3980    7.3570  -13.0580 O   0  0  0  0  0  0  0  0  0  0  0  0
   11.7150    6.6460   -5.7850 C   0  0  0  0  0  0  0  0  0  0  0  0
   12.7420    8.8900   -1.7780 C   0  0  0  0  0  0  0  0  0  0  0  0
   10.8440    6.2850   -6.9400 C   0  0  0  0  0  0  0  0  0  0  0  0
   10.3450    8.6620   -6.1790 C   0  0  0  0  0  0  0  0  0  0  0  0
    7.2700    6.3430  -12.1290 C   0  0  2  0  0  0  0  0  0  0  0  0
  1 15  2  0
  1 17  1  0
  2 26  1  0
  3 12  1  1
  3 18  1  0
  4  6  1  0
 18  5  1  6
  6 19  1  0
  6 16  2  0
  7  1  2  0
  8  5  1  0
  9 21  2  0
 11 10  1  0
 11 23  1  0
 12  1  1  0
 13  3  1  0
 14 10  1  1
 14 28  1  0
 14  8  1  0
 16  9  1  0
 17  2  1  0
 18 13  1  0
 19 25  2  0
 20  4  1  0
 22  2  2  0
 24  4  1  0
 25 21  1  0
 26 24  1  0
 27 20  1  0
 27  4  1  0
 28 23  1  6
 28  3  1  0
M  END
>  <GenAI_Model>  (11) 
DiffSBDD

>  <Protein>  (11) 
generic_title2

>  <num_sample>  (11) 
100

$$$$
DiffSBDD_11
     RDKit          3D

 16 16  0  0  0  0  0  0  0  0999 V2000
    9.0460    7.7860  -11.6370 C   0  0  1  0  0  0  0  0  0  0  0  0
   11.1310    6.3270   -4.1310 C   0  0  0  0  0  0  0  0  0  0  0  0
   10.0330    6.8630  -10.8470 C   0  0  0  0  0  0  0  0  0  0  0  0
   10.7920    8.4290   -7.3100 C   0  0  0  0  0  0  0  0  0  0  0  0
   12.7530    8.1770   -1.2890 C   0  0  0  0  0  0  0  0  0  0  0  0
   11.2300    7.9860   -5.9750 C   0  0  1  0  0  0  0  0  0  0  0  0
   12.0320    8.4870   -3.6310 C   0  0  0  0  0  0  0  0  0  0  0  0
   10.8950    7.8340   -8.5410 C   0  0  0  0  0  0  0  0  0  0  0  0
   11.5280    8.9160   -4.9640 C   0  0  0  0  0  0  0  0  0  0  0  0
    7.9750    7.0320  -12.5420 C   0  0  0  0  0  0  0  0  0  0  0  0
    8.5450    8.9040  -10.9790 N   0  0  0  0  0  0  0  0  0  0  0  0
   12.1680    7.1210   -3.4420 N   0  0  0  0  0  0  0  0  0  0  0  0
   12.3070    6.9260   -2.0250 C   0  0  0  0  0  0  0  0  0  0  0  0
   11.3490   10.3900   -5.2240 C   0  0  0  0  0  0  0  0  0  0  0  0
   11.2860    6.5570   -5.6100 C   0  0  0  0  0  0  0  0  0  0  0  0
    9.6260    6.7690   -9.1390 S   0  0  0  0  0  0  0  0  0  0  0  0
  1 10  1  1
  1 11  1  0
  1  3  1  0
  2 12  1  0
  3 16  1  0
  6  4  1  1
  6 15  1  0
  6  9  1  0
  7 12  1  0
  8  4  1  0
  9  7  2  0
 12 13  1  0
 13  5  1  0
 14  9  1  0
 15  2  1  0
 16  8  1  0
M  END
>  <GenAI_Model>  (12) 
DiffSBDD

>  <Protein>  (12) 
generic_title2

>  <num_sample>  (12) 
100

$$$$
DiffSBDD_12
     RDKit          3D

 11 12  0  0  0  0  0  0  0  0999 V2000
    9.4720    6.1350   -6.4320 C   0  0  0  0  0  0  0  0  0  0  0  0
   10.8660    5.7690   -7.0450 C   0  0  0  0  0  0  0  0  0  0  0  0
   11.8890    9.2500   -4.8320 C   0  0  0  0  0  0  0  0  0  0  0  0
   12.4590    7.8110   -2.8360 N   0  0  0  0  0  0  0  0  0  0  0  0
   11.8650    8.0230   -4.1850 C   0  0  0  0  0  0  0  0  0  0  0  0
   11.2930    9.3860   -6.0780 C   0  0  0  0  0  0  0  0  0  0  0  0
   12.6590    6.7080   -2.3230 O   0  0  0  0  0  0  0  0  0  0  0  0
   10.7270    6.9720   -6.1590 C   0  0  0  0  0  0  0  0  0  0  0  0
   11.2770    6.8380   -4.8160 C   0  0  0  0  0  0  0  0  0  0  0  0
   12.8200    8.7970   -2.2200 O   0  0  0  0  0  0  0  0  0  0  0  0
   10.8070    8.3150   -6.7110 C   0  0  0  0  0  0  0  0  0  0  0  0
  1  8  1  0
  2  1  1  0
  2  8  1  0
  3  5  2  0
  4  7  1  0
  4 10  2  0
  5  4  1  0
  6  3  1  0
  8  9  1  0
  9  5  1  0
 11  8  1  0
 11  6  2  0
M  CHG  2   4   1   7  -1
M  END
>  <GenAI_Model>  (13) 
DiffSBDD

>  <Protein>  (13) 
generic_title2

>  <num_sample>  (13) 
100

$$$$
DiffSBDD_13
     RDKit          3D

 31 34  0  0  0  0  0  0  0  0999 V2000
   11.0920    8.1650   -5.8250 C   0  0  0  0  0  0  0  0  0  0  0  0
    6.3040    4.5230  -10.5420 N   0  0  0  0  0  0  0  0  0  0  0  0
   10.9950    8.1790   -7.0510 N   0  0  0  0  0  0  0  0  0  0  0  0
    9.5680    6.8920   -7.9620 C   0  0  1  0  0  0  0  0  0  0  0  0
    8.6710    5.8460   -7.7260 N   0  0  0  0  0  0  0  0  0  0  0  0
    7.9450    5.1000  -12.4630 C   0  0  2  0  0  0  0  0  0  0  0  0
   11.2490    7.1240   -5.0590 N   0  0  0  0  0  0  0  0  0  0  0  0
    4.9910    3.9230  -13.2640 C   0  0  0  0  0  0  0  0  0  0  0  0
   11.1600    7.0090  -12.5490 C   0  0  0  0  0  0  0  0  0  0  0  0
    9.0830    5.7720  -12.0720 C   0  0  0  0  0  0  0  0  0  0  0  0
   11.8550    7.6170   -3.9210 C   0  0  0  0  0  0  0  0  0  0  0  0
   11.3590    7.5510   -1.4000 F   0  0  0  0  0  0  0  0  0  0  0  0
   11.5910    9.3880   -5.4350 C   0  0  0  0  0  0  0  0  0  0  0  0
    5.0530    5.2760  -12.3870 C   0  0  0  0  0  0  0  0  0  0  0  0
   10.8410    6.7240   -7.3070 C   0  0  0  0  0  0  0  0  0  0  0  0
    6.3350    3.3500  -13.5340 C   0  0  0  0  0  0  0  0  0  0  0  0
   11.9470    9.0010   -4.0560 C   0  0  0  0  0  0  0  0  0  0  0  0
   11.5790   10.2290   -6.5190 C   0  0  0  0  0  0  0  0  0  0  0  0
    9.2470    6.0610  -10.6500 C   0  0  0  0  0  0  0  0  0  0  0  0
   12.5210    6.7440   -3.1120 O   0  0  0  0  0  0  0  0  0  0  0  0
    6.5580    5.3480  -11.6340 C   0  0  1  0  0  0  0  0  0  0  0  0
   13.4160    8.1470   -1.5440 F   0  0  0  0  0  0  0  0  0  0  0  0
   12.9800    6.1130   -1.1380 F   0  0  0  0  0  0  0  0  0  0  0  0
   11.2290    9.4360   -7.6530 C   0  0  0  0  0  0  0  0  0  0  0  0
   12.5340    7.1660   -1.8250 C   0  0  0  0  0  0  0  0  0  0  0  0
   12.4690    8.0040  -10.7200 O   0  0  0  0  0  0  0  0  0  0  0  0
    7.7590    3.5780  -12.9540 C   0  0  0  0  0  0  0  0  0  0  0  0
   11.3860    7.3400  -11.1730 C   0  0  0  0  0  0  0  0  0  0  0  0
   10.3120    7.2410   -8.9490 O   0  0  0  0  0  0  0  0  0  0  0  0
   10.0360    6.2110  -12.9760 C   0  0  0  0  0  0  0  0  0  0  0  0
   10.3340    6.8210  -10.2960 C   0  0  0  0  0  0  0  0  0  0  0  0
  1 13  2  0
  1  7  1  0
  3  1  1  0
  4  5  1  6
  4 15  1  0
  6 10  1  1
  6 21  1  0
  7 11  2  0
  8 14  1  0
  9 28  1  0
 10 19  2  0
 11 20  1  0
 13 17  1  0
 14 21  1  0
 15  3  1  0
 16  8  1  0
 16 27  1  0
 17 11  1  0
 18 13  1  0
 19 31  1  0
 20 25  1  0
 21  2  1  1
 24  3  1  0
 24 18  2  0
 25 22  1  0
 25 12  1  0
 25 23  1  0
 27  6  1  0
 28 26  1  0
 28 31  2  0
 29  4  1  0
 30  9  2  0
 30 10  1  0
 31 29  1  0
M  END
>  <GenAI_Model>  (14) 
DiffSBDD

>  <Protein>  (14) 
generic_title2

>  <num_sample>  (14) 
100

$$$$
DiffSBDD_14
     RDKit          3D

 22 23  0  0  0  0  0  0  0  0999 V2000
    9.2640    6.6320   -9.9670 N   0  0  0  0  0  0  0  0  0  0  0  0
    5.9840    6.8250  -13.1610 C   0  0  0  0  0  0  0  0  0  0  0  0
    7.3430    7.2230  -12.9060 N   0  0  0  0  0  0  0  0  0  0  0  0
   11.0290    7.1190   -5.4250 C   0  0  0  0  0  0  0  0  0  0  0  0
    9.0320    6.9710  -11.2940 C   0  0  0  0  0  0  0  0  0  0  0  0
    6.0380    5.2230  -13.0450 C   0  0  0  0  0  0  0  0  0  0  0  0
    9.9160    7.5940   -7.7790 C   0  0  0  0  0  0  0  0  0  0  0  0
    8.0990    3.9820  -13.0400 C   0  0  0  0  0  0  0  0  0  0  0  0
   11.4970    6.8960   -4.0950 C   0  0  0  0  0  0  0  0  0  0  0  0
   11.2000    8.3530   -5.8830 C   0  0  0  0  0  0  0  0  0  0  0  0
   12.1100    7.8710   -3.2820 C   0  0  0  0  0  0  0  0  0  0  0  0
   12.3480    9.0920   -3.8500 C   0  0  0  0  0  0  0  0  0  0  0  0
   11.8530    9.3600   -5.1800 C   0  0  0  0  0  0  0  0  0  0  0  0
    9.5020    7.7050   -9.0850 C   0  0  0  0  0  0  0  0  0  0  0  0
    9.5390    7.9770  -11.7810 O   0  0  0  0  0  0  0  0  0  0  0  0
    6.6230    4.5380  -10.9240 C   0  0  0  0  0  0  0  0  0  0  0  0
   10.5400    8.7920   -7.1830 C   0  0  0  0  0  0  0  0  0  0  0  0
   12.6830    8.6140   -1.2540 N   0  0  0  0  0  0  0  0  0  0  0  0
   12.4970    7.6590   -2.0490 N   0  0  0  0  0  0  0  0  0  0  0  0
    8.0160    6.2030  -11.9980 C   0  0  1  0  0  0  0  0  0  0  0  0
    7.2390    5.0130  -12.2790 C   0  0  0  0  0  0  0  0  0  0  0  0
   12.7150    6.3540   -1.7730 O   0  0  0  0  0  0  0  0  0  0  0  0
  1 14  2  3
  2  6  1  0
  2  3  1  0
  3 20  1  0
  4  9  2  0
  5  1  1  0
  6 21  1  0
  7 17  1  0
  8 21  1  0
  9 11  1  0
 10  4  1  0
 10 13  2  0
 11 19  1  0
 12 11  2  0
 13 12  1  0
 14  7  1  0
 15  5  2  0
 17 10  1  0
 19 22  1  0
 19 18  1  0
 20  5  1  1
 21 20  1  0
 21 16  1  0
M  END
>  <GenAI_Model>  (15) 
DiffSBDD

>  <Protein>  (15) 
generic_title2

>  <num_sample>  (15) 
100

$$$$
DiffSBDD_15
     RDKit          3D

 40 41  0  0  0  0  0  0  0  0999 V2000
    5.4730    1.8220  -13.7480 F   0  0  0  0  0  0  0  0  0  0  0  0
   12.8980    9.2610   -4.1510 C   0  0  0  0  0  0  0  0  0  0  0  0
    6.3990    5.4260  -13.2470 C   0  0  0  0  0  0  0  0  0  0  0  0
    5.7510    4.2710  -13.7050 C   0  0  0  0  0  0  0  0  0  0  0  0
   10.7130    7.5350  -10.6430 C   0  0  1  0  0  0  0  0  0  0  0  0
    8.8450    6.4250  -10.5790 N   0  0  0  0  0  0  0  0  0  0  0  0
   11.6140   10.5340   -2.3720 O   0  0  0  0  0  0  0  0  0  0  0  0
    7.8050    3.8860  -12.2220 C   0  0  0  0  0  0  0  0  0  0  0  0
   13.9010    9.7260   -3.8350 F   0  0  0  0  0  0  0  0  0  0  0  0
   12.2610    9.9680   -1.6860 C   0  0  0  0  0  0  0  0  0  0  0  0
    9.4620    7.3820   -9.8100 C   0  0  0  0  0  0  0  0  0  0  0  0
    8.0870    7.5400  -12.2810 O   0  0  0  0  0  0  0  0  0  0  0  0
   11.6160    8.4820   -9.6180 C   0  0  0  0  0  0  0  0  0  0  0  0
    4.1080    6.2030  -16.6620 C   0  0  0  0  0  0  0  0  0  0  0  0
    5.4980    6.4110  -16.2400 C   0  0  1  0  0  0  0  0  0  0  0  0
   12.9650    7.6180   -2.4800 C   0  0  0  0  0  0  0  0  0  0  0  0
   11.3490    6.5130  -12.8530 C   0  0  0  0  0  0  0  0  0  0  0  0
    7.4440    5.2650  -12.3550 C   0  0  0  0  0  0  0  0  0  0  0  0
    3.8940    6.5970  -17.9870 O   0  0  0  0  0  0  0  0  0  0  0  0
    6.2630    7.1770  -17.1320 O   0  0  0  0  0  0  0  0  0  0  0  0
   15.6740    6.7880    1.5540 C   0  0  0  0  0  0  0  0  0  0  0  0
   12.3880    8.1370   -3.7800 C   0  0  0  0  0  0  0  0  0  0  0  0
   13.4020    6.6970   -1.2080 C   0  0  0  0  0  0  0  0  0  0  0  0
   12.2850    8.5320   -8.3890 C   0  0  0  0  0  0  0  0  0  0  0  0
    7.2060    2.8720  -12.6350 C   0  0  0  0  0  0  0  0  0  0  0  0
   13.0120    7.2940  -11.3190 O   0  0  0  0  0  0  0  0  0  0  0  0
   11.3920    7.5650   -6.0580 C   0  0  0  0  0  0  0  0  0  0  0  0
   14.4640    7.8450    1.8260 C   0  0  0  0  0  0  0  0  0  0  0  0
    9.1350    8.0550   -8.8910 O   0  0  0  0  0  0  0  0  0  0  0  0
   14.0540    8.0790    0.5650 C   0  0  0  0  0  0  0  0  0  0  0  0
   11.6770    6.9880  -11.5380 C   0  0  1  0  0  0  0  0  0  0  0  0
    6.0820    3.0320  -13.2860 C   0  0  0  0  0  0  0  0  0  0  0  0
    8.1300    6.5000  -11.8290 C   0  0  0  0  0  0  0  0  0  0  0  0
   12.8830    7.5330   -0.0940 C   0  0  1  0  0  0  0  0  0  0  0  0
    6.5630    7.0320  -13.7580 S   0  0  0  0  0  0  0  0  0  0  0  0
   11.6050    7.2790   -4.6450 C   0  0  0  0  0  0  0  0  0  0  0  0
    5.5860    7.2490  -14.9700 C   0  0  0  0  0  0  0  0  0  0  0  0
   12.5130    9.5550   -5.4800 C   0  0  0  0  0  0  0  0  0  0  0  0
   12.1430    8.7070   -6.7900 C   0  0  0  0  0  0  0  0  0  0  0  0
   12.2590    8.8840   -0.6830 C   0  0  0  0  0  0  0  0  0  0  0  0
  1 32  1  0
  2  9  1  0
  2 22  2  0
  3 18  2  0
  4 32  2  0
  4  3  1  0
  5 11  1  0
  5 13  1  1
  6 11  1  0
  7 10  2  0
 10 40  1  0
 11 29  2  0
 12 33  2  0
 13 24  1  0
 14 15  1  0
 15 20  1  6
 15 37  1  0
 16 23  1  0
 18  8  1  0
 18 33  1  0
 19 14  1  0
 21 28  1  0
 22 16  1  0
 24 39  1  0
 25  8  2  0
 27 36  2  0
 30 28  1  0
 31 17  1  6
 31 26  1  0
 31  5  1  0
 32 25  1  0
 33  6  1  0
 34 23  1  6
 34 30  1  0
 35  3  1  0
 36 22  1  0
 37 35  1  0
 38  2  1  0
 39 27  1  0
 39 38  2  0
 40 34  1  0
M  END
>  <GenAI_Model>  (16) 
DiffSBDD

>  <Protein>  (16) 
generic_title2

>  <num_sample>  (16) 
100

$$$$
DiffSBDD_16
     RDKit          3D

 32 36  0  0  0  0  0  0  0  0999 V2000
   12.0000    9.5820   -3.1260 N   0  0  0  0  0  0  0  0  0  0  0  0
   11.0850    8.0390   -8.8250 C   0  0  0  0  0  0  0  0  0  0  0  0
    8.3040    5.5450  -10.9070 C   0  0  1  0  0  0  0  0  0  0  0  0
    7.7120    4.8010   -9.6520 C   0  0  0  0  0  0  0  0  0  0  0  0
   11.8390    9.6690   -7.0720 N   0  0  0  0  0  0  0  0  0  0  0  0
   12.1280    9.2820   -1.8190 N   0  0  0  0  0  0  0  0  0  0  0  0
   12.1440    9.6800   -5.8890 C   0  0  0  0  0  0  0  0  0  0  0  0
   10.9010    7.8420   -6.1670 C   0  0  0  0  0  0  0  0  0  0  0  0
   11.1340    8.4860   -7.3510 C   0  0  0  0  0  0  0  0  0  0  0  0
    9.2370    6.3210   -8.0240 C   0  0  0  0  0  0  0  0  0  0  0  0
   13.2100    7.3880    0.7310 Cl  0  0  0  0  0  0  0  0  0  0  0  0
   12.7670    7.0170   -0.8230 C   0  0  0  0  0  0  0  0  0  0  0  0
    5.3360    4.3660  -12.7380 C   0  0  0  0  0  0  0  0  0  0  0  0
   12.0740    8.5280   -9.6690 O   0  0  0  0  0  0  0  0  0  0  0  0
    7.5820    5.3700  -12.3400 C   0  0  1  0  0  0  0  0  0  0  0  0
   12.3700    7.9320   -1.7980 C   0  0  0  0  0  0  0  0  0  0  0  0
   12.3940    6.0650   -2.9420 C   0  0  0  0  0  0  0  0  0  0  0  0
    5.9180    7.5100  -15.2660 N   0  0  0  0  0  0  0  0  0  0  0  0
   12.3110    8.4220   -3.8440 C   0  0  1  0  0  0  0  0  0  0  0  0
   12.1420    7.3500   -3.0670 C   0  0  2  0  0  0  0  0  0  0  0  0
    6.1160    5.6260  -15.0350 N   0  0  0  0  0  0  0  0  0  0  0  0
    6.2440    5.5200  -12.3250 C   0  0  1  0  0  0  0  0  0  0  0  0
    9.9350    7.2060   -9.0710 N   0  0  0  0  0  0  0  0  0  0  0  0
    8.3960    6.2720  -12.8410 O   0  0  0  0  0  0  0  0  0  0  0  0
    6.1060    6.3410  -13.8210 C   0  0  0  0  0  0  0  0  0  0  0  0
    9.9160    7.7930  -10.7960 C   0  0  0  0  0  0  0  0  0  0  0  0
    5.7800    6.3810  -15.9950 N   0  0  0  0  0  0  0  0  0  0  0  0
   12.6360    5.6450   -1.3520 N   0  0  0  0  0  0  0  0  0  0  0  0
    5.7660    7.5070  -14.2000 N   0  0  0  0  0  0  0  0  0  0  0  0
   11.7200    8.6320   -5.2330 C   0  0  0  0  0  0  0  0  0  0  0  0
    8.8060    5.0330   -8.5860 C   0  0  0  0  0  0  0  0  0  0  0  0
    8.8590    6.9270  -10.6020 C   0  0  0  0  0  0  0  0  0  0  0  0
  1  6  1  0
  2  9  1  0
  3 15  1  0
  3 32  1  1
  3  4  1  0
  4 31  1  0
  5  7  1  0
  6 16  1  0
  7 30  1  0
  8 30  2  0
  9  5  2  0
  9  8  1  0
 12 11  1  0
 14  2  2  0
 15 24  1  6
 15 22  1  0
 16 12  2  0
 17 28  1  0
 18 29  1  0
 19 30  1  6
 19  1  1  0
 19 20  1  0
 20 17  1  6
 20 16  1  0
 21 25  2  0
 22 13  1  6
 23  2  1  0
 23 10  1  0
 25 22  1  0
 26 32  1  0
 26 23  1  0
 27 18  1  0
 27 21  1  0
 28 12  1  0
 29 25  1  0
 31 10  1  0
M  END
>  <GenAI_Model>  (17) 
DiffSBDD

>  <Protein>  (17) 
generic_title2

>  <num_sample>  (17) 
100

$$$$
DiffSBDD_17
     RDKit          3D

 24 25  0  0  0  0  0  0  0  0999 V2000
   10.8350   10.1820   -4.7710 Cl  0  0  0  0  0  0  0  0  0  0  0  0
   11.7840    8.3500   -6.4830 C   0  0  0  0  0  0  0  0  0  0  0  0
   11.8180    8.7260   -4.9420 C   0  0  2  0  0  0  0  0  0  0  0  0
    6.1470    4.6990  -13.4950 C   0  0  0  0  0  0  0  0  0  0  0  0
   12.6860    8.6390   -2.7150 C   0  0  0  0  0  0  0  0  0  0  0  0
   10.9450    7.2170   -6.6120 O   0  0  0  0  0  0  0  0  0  0  0  0
   10.2870    7.3350  -10.3440 C   0  0  0  0  0  0  0  0  0  0  0  0
    8.0190    4.1790   -9.4180 Cl  0  0  0  0  0  0  0  0  0  0  0  0
   11.6760    6.5510   -1.7960 C   0  0  0  0  0  0  0  0  0  0  0  0
    7.3240    5.9150  -11.6950 O   0  0  0  0  0  0  0  0  0  0  0  0
    8.0380    3.5440  -14.5360 O   0  0  0  0  0  0  0  0  0  0  0  0
   10.5020    6.8660   -7.9110 C   0  0  0  0  0  0  0  0  0  0  0  0
   12.6570    5.8250   -1.4590 O   0  0  0  0  0  0  0  0  0  0  0  0
    8.7840    5.8450  -11.7960 C   0  0  0  0  0  0  0  0  0  0  0  0
    9.6210    5.7650   -8.0160 C   0  0  0  0  0  0  0  0  0  0  0  0
    9.1060    5.5530   -9.2430 C   0  0  0  0  0  0  0  0  0  0  0  0
   11.9640    7.5000   -2.9210 C   0  0  0  0  0  0  0  0  0  0  0  0
   10.8860    7.6230   -9.0980 C   0  0  0  0  0  0  0  0  0  0  0  0
   11.5810    7.3460   -4.3100 C   0  0  0  0  0  0  0  0  0  0  0  0
   10.6310    6.5470   -1.1640 O   0  0  0  0  0  0  0  0  0  0  0  0
    6.5480    6.0900  -12.8600 C   0  0  0  0  0  0  0  0  0  0  0  0
   13.0030    9.0360   -3.9820 C   0  0  0  0  0  0  0  0  0  0  0  0
    9.3960    6.2050  -10.4500 C   0  0  0  0  0  0  0  0  0  0  0  0
    7.1600    4.2560  -14.5610 N   0  0  0  0  0  0  0  0  0  0  0  0
  2  3  1  0
  3  1  1  6
  3 19  1  0
  3 22  1  0
  4 21  1  0
  6  2  1  0
  7 18  2  0
  8 16  1  0
  9 13  2  0
  9 20  1  0
 12  6  1  0
 14 10  1  0
 14 23  1  0
 15 12  2  0
 16 15  1  0
 17  5  1  0
 17  9  1  0
 18 12  1  0
 19 17  1  0
 21 10  1  0
 22  5  1  0
 23  7  1  0
 23 16  2  0
 24 11  2  0
 24  4  1  0
M  END
>  <GenAI_Model>  (18) 
DiffSBDD

>  <Protein>  (18) 
generic_title2

>  <num_sample>  (18) 
100

$$$$
DiffSBDD_18
     RDKit          3D

 20 21  0  0  0  0  0  0  0  0999 V2000
   11.7450    6.7720   -3.6170 C   0  0  0  0  0  0  0  0  0  0  0  0
   12.1700    6.4440   -2.3390 C   0  0  0  0  0  0  0  0  0  0  0  0
   11.9980    9.4290   -5.8080 O   0  0  0  0  0  0  0  0  0  0  0  0
   10.7440    8.0790   -9.0320 S   0  0  0  0  0  0  0  0  0  0  0  0
    5.6980    4.6660  -11.4400 C   0  0  0  0  0  0  0  0  0  0  0  0
    9.7550    6.7800   -9.4450 C   0  0  0  0  0  0  0  0  0  0  0  0
    9.7070    6.1960  -10.7360 N   0  0  0  0  0  0  0  0  0  0  0  0
    6.6860    3.7840  -12.2770 C   0  0  0  0  0  0  0  0  0  0  0  0
   11.4480    8.3900   -5.3940 C   0  0  0  0  0  0  0  0  0  0  0  0
    8.1110    5.7300  -12.4710 C   0  0  0  0  0  0  0  0  0  0  0  0
   12.0790    9.1120   -3.1830 C   0  0  0  0  0  0  0  0  0  0  0  0
    8.4550    5.4300  -10.9930 C   0  0  1  0  0  0  0  0  0  0  0  0
   10.7480    7.7100   -6.3580 N   0  0  0  0  0  0  0  0  0  0  0  0
   11.7450    8.0620   -4.0640 C   0  0  0  0  0  0  0  0  0  0  0  0
   12.5430    8.7450   -1.9230 C   0  0  0  0  0  0  0  0  0  0  0  0
   12.6040    7.4730   -1.4770 C   0  0  0  0  0  0  0  0  0  0  0  0
    9.1270    6.1120   -8.3620 O   0  0  0  0  0  0  0  0  0  0  0  0
   10.2310    8.4050   -7.4690 C   0  0  0  0  0  0  0  0  0  0  0  0
    8.2720    4.2080  -12.1550 C   0  0  1  0  0  0  0  0  0  0  0  0
    7.7380    5.8700  -13.9180 O   0  0  0  0  0  0  0  0  0  0  0  0
  1  2  1  0
  2 16  2  0
  3  9  2  0
  4 18  1  0
  6  4  1  0
  6 17  2  0
  7  6  1  0
  8  5  1  0
  9 14  1  0
 10 20  1  0
 10 19  1  0
 10 12  1  0
 11 15  2  0
 12  7  1  6
 13  9  1  0
 14  1  2  0
 14 11  1  0
 15 16  1  0
 18 13  1  0
 19  8  1  1
 19 12  1  0
M  END
>  <GenAI_Model>  (19) 
DiffSBDD

>  <Protein>  (19) 
generic_title2

>  <num_sample>  (19) 
100

$$$$
DiffSBDD_19
     RDKit          3D

 21 24  0  0  0  0  0  0  0  0999 V2000
    9.6170    6.4830  -10.2500 C   0  0  1  0  0  0  0  0  0  0  0  0
   11.7140    8.3850   -4.5920 C   0  0  1  0  0  0  0  0  0  0  0  0
   10.9210    7.6400   -7.6500 N   0  0  0  0  0  0  0  0  0  0  0  0
   12.6710    8.7490   -1.1720 C   0  0  2  0  0  0  0  0  0  0  0  0
    8.4860    6.8610  -11.0240 O   0  0  0  0  0  0  0  0  0  0  0  0
   12.3230    8.1790   -5.8700 C   0  0  1  0  0  0  0  0  0  0  0  0
   10.5510    8.1300   -8.7090 C   0  0  0  0  0  0  0  0  0  0  0  0
   11.6260    6.9770   -2.6640 C   0  0  0  0  0  0  0  0  0  0  0  0
   11.9910    7.5780   -1.4910 C   0  0  0  0  0  0  0  0  0  0  0  0
    8.8070    5.7470  -10.7700 C   0  0  0  0  0  0  0  0  0  0  0  0
    8.4000    5.5040   -7.9470 F   0  0  0  0  0  0  0  0  0  0  0  0
   11.3780    7.1000   -5.4400 C   0  0  2  0  0  0  0  0  0  0  0  0
    9.6950    7.9380   -9.5610 C   0  0  0  0  0  0  0  0  0  0  0  0
   11.8870    9.2710   -3.5040 C   0  0  0  0  0  0  0  0  0  0  0  0
   12.3340    9.5520   -2.2590 C   0  0  0  0  0  0  0  0  0  0  0  0
    9.4130    5.5110   -8.7260 C   0  0  0  0  0  0  0  0  0  0  0  0
   10.1100    7.1930   -6.3240 C   0  0  0  0  0  0  0  0  0  0  0  0
   13.5590    8.5310   -0.1800 F   0  0  0  0  0  0  0  0  0  0  0  0
   11.2490    6.4410   -3.5910 C   0  0  0  0  0  0  0  0  0  0  0  0
   11.9020    8.7250   -7.1100 C   0  0  0  0  0  0  0  0  0  0  0  0
   11.1210    8.9690  -10.0660 O   0  0  0  0  0  0  0  0  0  0  0  0
  1 13  1  6
  1 16  1  0
  2 14  1  1
  3 20  1  0
  3 17  1  0
  4 18  1  6
  5 10  1  0
  5  1  1  0
  6 20  1  6
  6 12  1  0
  6  2  1  0
  7  3  1  0
  8  9  2  0
  9  4  1  0
 10  1  1  0
 12 17  1  6
 12  2  1  0
 12 19  1  0
 13  7  1  0
 14 15  1  0
 15  4  1  0
 16 11  1  0
 19  8  2  0
 21  7  2  0
M  END
>  <GenAI_Model>  (20) 
DiffSBDD

>  <Protein>  (20) 
generic_title2

>  <num_sample>  (20) 
100

$$$$
DiffSBDD_20
     RDKit          3D

 30 33  0  0  0  0  0  0  0  0999 V2000
    8.3620    4.1600  -14.8080 C   0  0  0  0  0  0  0  0  0  0  0  0
   11.2970    7.3140   -5.8200 C   0  0  2  0  0  0  0  0  0  0  0  0
   11.7410   10.7530   -3.1540 O   0  0  0  0  0  0  0  0  0  0  0  0
    8.9600    5.6600   -8.6760 O   0  0  0  0  0  0  0  0  0  0  0  0
   11.5450    7.2200   -4.6550 C   0  0  0  0  0  0  0  0  0  0  0  0
   12.9560    9.0400   -1.4930 O   0  0  0  0  0  0  0  0  0  0  0  0
   11.6630    8.2810   -6.8390 C   0  0  2  0  0  0  0  0  0  0  0  0
    6.0640    5.8730  -14.6940 C   0  0  0  0  0  0  0  0  0  0  0  0
   10.2610    7.5620   -8.7970 N   0  0  0  0  0  0  0  0  0  0  0  0
   11.3200   10.2770   -5.3590 C   0  0  0  0  0  0  0  0  0  0  0  0
   12.4630    5.8130   -1.7460 C   0  0  0  0  0  0  0  0  0  0  0  0
    8.0020    4.9810  -15.9620 C   0  0  0  0  0  0  0  0  0  0  0  0
    6.7820    5.7750  -15.9360 C   0  0  0  0  0  0  0  0  0  0  0  0
    9.6580    7.8170  -10.1610 C   0  0  0  0  0  0  0  0  0  0  0  0
    6.3690    6.2110  -17.2630 C   0  0  0  0  0  0  0  0  0  0  0  0
   10.9080    9.5970   -6.6170 C   0  0  0  0  0  0  0  0  0  0  0  0
    9.4110    6.8410   -7.8150 C   0  0  2  0  0  0  0  0  0  0  0  0
   11.8370    8.4400   -3.7110 C   0  0  0  0  0  0  0  0  0  0  0  0
   12.4710    8.1420   -2.3650 C   0  0  1  0  0  0  0  0  0  0  0  0
   10.3290    6.4670   -6.6330 C   0  0  0  0  0  0  0  0  0  0  0  0
    6.6960    5.3140  -13.4140 C   0  0  2  0  0  0  0  0  0  0  0  0
   11.7130    7.7810   -8.2450 C   0  0  0  0  0  0  0  0  0  0  0  0
   11.6760    9.8260   -4.0620 C   0  0  0  0  0  0  0  0  0  0  0  0
    6.9970    5.8670  -12.0720 C   0  0  2  0  0  0  0  0  0  0  0  0
   12.5930    6.7840   -2.0910 C   0  0  0  0  0  0  0  0  0  0  0  0
    7.4940    3.9710  -13.7100 C   0  0  0  0  0  0  0  0  0  0  0  0
    9.0930    6.5790  -11.2710 S   0  0  0  0  0  0  0  0  0  0  0  0
    8.7170    4.6610   -8.0630 C   0  0  0  0  0  0  0  0  0  0  0  0
    7.9510    5.1820  -11.0090 C   0  0  0  0  0  0  0  0  0  0  0  0
    5.7350    5.0910  -12.2590 C   0  0  0  0  0  0  0  0  0  0  0  0
  1 26  1  0
  2 20  1  1
  2  5  1  0
  4 28  1  0
  5 18  2  0
  7 22  1  6
  7 16  1  0
  7  2  1  0
  9 22  1  0
  9 17  1  0
 10 23  2  0
 12 13  1  0
 12  1  2  0
 13  8  2  0
 14  9  1  0
 15 13  1  0
 16 10  1  0
 17  4  1  6
 17 20  1  0
 18 19  1  0
 19 25  1  0
 19  6  1  6
 21  8  1  0
 21 30  1  1
 21 24  1  0
 23 18  1  0
 23  3  1  0
 24 29  1  1
 25 11  3  0
 26 21  1  0
 27 29  1  0
 27 14  1  0
 30 24  1  0
M  END
>  <GenAI_Model>  (21) 
DiffSBDD

>  <Protein>  (21) 
generic_title2

>  <num_sample>  (21) 
100

$$$$
DiffSBDD_21
     RDKit          3D

 37 41  0  0  0  0  0  0  0  0999 V2000
   12.1990    7.3510   -9.7530 F   0  0  0  0  0  0  0  0  0  0  0  0
    9.5800    7.1530   -7.5260 O   0  0  0  0  0  0  0  0  0  0  0  0
   12.6790    7.9250   -0.7400 O   0  0  0  0  0  0  0  0  0  0  0  0
   10.8160    6.3680   -3.3150 C   0  0  1  0  0  0  0  0  0  0  0  0
   11.9650    7.1300   -2.7510 C   0  0  2  0  0  0  0  0  0  0  0  0
   11.4690    8.2810   -6.5650 C   0  0  2  0  0  0  0  0  0  0  0  0
    6.6020    4.6640  -11.4120 C   0  0  0  0  0  0  0  0  0  0  0  0
    7.8300    7.3770  -11.4950 N   0  0  0  0  0  0  0  0  0  0  0  0
   12.2510    5.9760   -3.4920 C   0  0  0  0  0  0  0  0  0  0  0  0
    7.1400    5.3770  -12.6970 C   0  0  1  0  0  0  0  0  0  0  0  0
   11.2820    8.6120   -8.0730 C   0  0  1  0  0  0  0  0  0  0  0  0
    6.8150    5.0810  -14.0820 C   0  0  2  0  0  0  0  0  0  0  0  0
    6.2880    6.1820  -14.6540 C   0  0  1  0  0  0  0  0  0  0  0  0
   11.8320    8.6970   -9.5030 C   0  0  0  0  0  0  0  0  0  0  0  0
    7.2360    6.8120  -12.8170 C   0  0  1  0  0  0  0  0  0  0  0  0
    5.3230    6.3590  -15.5350 O   0  0  0  0  0  0  0  0  0  0  0  0
   12.4340    9.4570   -3.8850 C   0  0  0  0  0  0  0  0  0  0  0  0
   10.3970    6.6430   -0.8890 C   0  0  1  0  0  0  0  0  0  0  0  0
   10.1220    6.9430  -12.2340 C   0  0  0  0  0  0  0  0  0  0  0  0
    8.4640    3.1090  -13.1880 O   0  0  0  0  0  0  0  0  0  0  0  0
   11.3720   10.1150   -4.7870 C   0  0  0  0  0  0  0  0  0  0  0  0
    5.5190    7.5750  -16.2680 C   0  0  0  0  0  0  0  0  0  0  0  0
    6.7190    7.6120  -13.9420 S   0  0  0  0  0  0  0  0  0  0  0  0
   10.2950    7.9450   -8.4310 C   0  0  0  0  0  0  0  0  0  0  0  0
   11.0030    6.5450    0.0670 C   0  0  0  0  0  0  0  0  0  0  0  0
   10.2930    7.2260   -6.2230 C   0  0  0  0  0  0  0  0  0  0  0  0
    7.5170    2.7440  -13.9210 C   0  0  0  0  0  0  0  0  0  0  0  0
    6.6420    3.7490  -14.4500 N   0  0  0  0  0  0  0  0  0  0  0  0
   11.9320    6.8650   -1.2910 C   0  0  2  0  0  0  0  0  0  0  0  0
   10.7730    9.2750   -5.8040 O   0  0  0  0  0  0  0  0  0  0  0  0
    7.3910    1.6270  -14.5660 O   0  0  0  0  0  0  0  0  0  0  0  0
    9.2560    7.2200  -11.1280 C   0  0  0  0  0  0  0  0  0  0  0  0
    9.8570    6.1790   -2.0960 C   0  0  0  0  0  0  0  0  0  0  0  0
    9.5610    7.4450   -9.7000 C   0  0  0  0  0  0  0  0  0  0  0  0
   12.2380    9.1470   -1.3810 C   0  0  0  0  0  0  0  0  0  0  0  0
    7.3600    4.6480  -10.4690 C   0  0  0  0  0  0  0  0  0  0  0  0
   11.7280    8.7280   -2.7350 C   0  0  2  0  0  0  0  0  0  0  0  0
  1 14  1  0
  2 26  1  0
  4  9  1  1
  4  5  1  0
  4 33  1  0
  5  9  1  6
  5 37  1  0
  5 29  1  0
  6 26  1  0
  6 30  1  1
  7 36  2  0
  8 32  1  0
 10  7  1  1
 11 14  1  6
 11  6  1  0
 12 28  1  1
 12 10  1  0
 13 16  1  1
 13 12  1  0
 13 23  1  0
 15 10  1  0
 15  8  1  1
 18 25  1  1
 19 32  1  0
 21 17  1  0
 22 16  1  0
 23 15  1  0
 24 11  1  0
 24  2  1  0
 27 20  1  0
 28 27  1  0
 29 18  1  0
 29  3  1  1
 30 21  1  0
 31 27  2  0
 32 34  2  0
 33 18  1  0
 34 24  2  0
 35  3  1  0
 37 17  1  6
 37 35  1  0
M  END
>  <GenAI_Model>  (22) 
DiffSBDD

>  <Protein>  (22) 
generic_title2

>  <num_sample>  (22) 
100

$$$$
DiffSBDD_22
     RDKit          3D

 13 14  0  0  0  0  0  0  0  0999 V2000
    9.6470    7.1860   -9.8390 C   0  0  1  0  0  0  0  0  0  0  0  0
    8.2530    6.6600   -9.5880 N   0  0  0  0  0  0  0  0  0  0  0  0
    6.7700    5.0280  -10.0600 C   0  0  0  0  0  0  0  0  0  0  0  0
   11.8430    9.2790   -4.7300 C   0  0  0  0  0  0  0  0  0  0  0  0
   10.4030    6.7470   -8.7440 C   0  0  2  0  0  0  0  0  0  0  0  0
   11.3880    9.1500   -6.2650 C   0  0  0  0  0  0  0  0  0  0  0  0
    8.2020    5.2370   -9.6770 C   0  0  0  0  0  0  0  0  0  0  0  0
    9.7960    6.8550   -7.3790 C   0  0  0  0  0  0  0  0  0  0  0  0
   11.0030    7.6440   -6.6930 C   0  0  0  0  0  0  0  0  0  0  0  0
    9.8510    7.4030  -11.3110 O   0  0  0  0  0  0  0  0  0  0  0  0
   10.6110    8.1860   -9.0050 C   0  0  0  0  0  0  0  0  0  0  0  0
   11.6970    7.5960   -4.0860 S   0  0  0  0  0  0  0  0  0  0  0  0
   11.1900    6.7760   -5.4660 C   0  0  0  0  0  0  0  0  0  0  0  0
  1 10  1  6
  1  2  1  0
  1 11  1  0
  1  5  1  0
  3  7  1  0
  4 12  1  0
  5  8  1  1
  6  4  2  0
  7  2  1  0
  8  9  1  0
  9  6  1  0
  9 13  2  0
 11  5  1  0
 13 12  1  0
M  END
>  <GenAI_Model>  (23) 
DiffSBDD

>  <Protein>  (23) 
generic_title2

>  <num_sample>  (23) 
100

$$$$
DiffSBDD_23
     RDKit          3D

 35 37  0  0  0  0  0  0  0  0999 V2000
   12.3930    8.3090   -4.4230 O   0  0  0  0  0  0  0  0  0  0  0  0
   12.1900    7.0630   -2.3580 C   0  0  2  0  0  0  0  0  0  0  0  0
    5.9740    6.1420  -14.1820 C   0  0  0  0  0  0  0  0  0  0  0  0
    9.2340    5.7620  -11.7370 C   0  0  1  0  0  0  0  0  0  0  0  0
    8.1550    6.1270  -10.6090 C   0  0  1  0  0  0  0  0  0  0  0  0
   11.9770    7.7490  -10.3590 C   0  0  0  0  0  0  0  0  0  0  0  0
   10.9550    7.0520   -2.5190 F   0  0  0  0  0  0  0  0  0  0  0  0
    5.8420    4.0120  -12.3670 C   0  0  0  0  0  0  0  0  0  0  0  0
   11.8640    5.8710   -4.4830 C   0  0  0  0  0  0  0  0  0  0  0  0
    6.7880    6.1070  -13.0700 C   0  0  0  0  0  0  0  0  0  0  0  0
   12.1970    9.6950   -2.4290 C   0  0  0  0  0  0  0  0  0  0  0  0
   10.1020    8.8240  -11.2100 C   0  0  0  0  0  0  0  0  0  0  0  0
    7.0550    5.2270  -10.6060 O   0  0  0  0  0  0  0  0  0  0  0  0
   12.5640    8.2100   -0.7770 F   0  0  0  0  0  0  0  0  0  0  0  0
   12.7180    6.0620   -1.6840 O   0  0  0  0  0  0  0  0  0  0  0  0
    9.2590    5.8510   -6.7070 F   0  0  0  0  0  0  0  0  0  0  0  0
   10.5460    6.5440  -11.6450 C   0  0  2  0  0  0  0  0  0  0  0  0
   12.6690    8.3540   -2.0620 C   0  0  1  0  0  0  0  0  0  0  0  0
   10.8500    9.0150   -6.5140 C   0  0  0  0  0  0  0  0  0  0  0  0
    9.8470    7.0510   -9.4300 N   0  0  0  0  0  0  0  0  0  0  0  0
   11.3470    5.8630   -7.3690 F   0  0  0  0  0  0  0  0  0  0  0  0
    5.1250    5.0490  -14.4290 C   0  0  0  0  0  0  0  0  0  0  0  0
    9.8350    7.7790   -8.2170 C   0  0  2  0  0  0  0  0  0  0  0  0
   11.6930    7.2090   -4.9200 C   0  0  1  0  0  0  0  0  0  0  0  0
   10.5720    7.6600   -5.9040 C   0  0  2  0  0  0  0  0  0  0  0  0
   10.5200    7.5780  -10.5750 C   0  0  0  0  0  0  0  0  0  0  0  0
    5.0360    4.0330  -13.5320 C   0  0  0  0  0  0  0  0  0  0  0  0
    6.6180    5.2160  -12.0520 C   0  0  0  0  0  0  0  0  0  0  0  0
    5.7620    3.0750  -11.5060 O   0  0  0  0  0  0  0  0  0  0  0  0
   11.1130    6.9770  -12.7420 F   0  0  0  0  0  0  0  0  0  0  0  0
   10.7020    9.0370   -8.0130 C   0  0  0  0  0  0  0  0  0  0  0  0
    9.4260    4.3310  -11.7820 O   0  0  0  0  0  0  0  0  0  0  0  0
    8.7180    6.1730   -9.3160 C   0  0  0  0  0  0  0  0  0  0  0  0
   10.2090    6.7070   -7.0550 C   0  0  0  0  0  0  0  0  0  0  0  0
   11.6430    9.4620   -3.8510 C   0  0  0  0  0  0  0  0  0  0  0  0
  1 35  1  0
  2  7  1  0
  2 18  1  0
  2 15  1  1
  3 10  2  0
  4 32  1  1
  4 17  1  0
  4  5  1  0
  5 13  1  1
  5 33  1  0
  8 28  1  0
  8 29  2  0
 10 28  1  0
 11 18  1  0
 12 26  1  0
 17 30  1  6
 17 26  1  0
 18 14  1  1
 25 19  1  6
 20 33  1  0
 23 20  1  6
 21 34  1  0
 22  3  1  0
 22 27  2  0
 23 31  1  0
 23 34  1  0
 24  9  1  1
 24  1  1  0
 25 24  1  0
 26  6  1  0
 26 20  1  0
 27  8  1  0
 28 13  1  0
 31 19  1  0
 34 16  1  0
 34 25  1  0
 35 11  1  0
M  END
>  <GenAI_Model>  (24) 
DiffSBDD

>  <Protein>  (24) 
generic_title2

>  <num_sample>  (24) 
100

$$$$
DiffSBDD_24
     RDKit          3D

 28 29  0  0  0  0  0  0  0  0999 V2000
   10.0510    6.5930  -12.5540 C   0  0  0  0  0  0  0  0  0  0  0  0
   12.7200    8.1870   -1.6860 C   0  0  0  0  0  0  0  0  0  0  0  0
   11.2400    9.1320   -5.7340 C   0  0  0  0  0  0  0  0  0  0  0  0
   11.9900    9.5790   -2.1080 O   0  0  0  0  0  0  0  0  0  0  0  0
   10.5560    7.5640   -7.5330 C   0  0  0  0  0  0  0  0  0  0  0  0
    5.8910    6.0320  -13.8140 C   0  0  0  0  0  0  0  0  0  0  0  0
    7.7950    5.3760  -12.3580 C   0  0  2  0  0  0  0  0  0  0  0  0
   11.3960    8.5030   -4.3410 C   0  0  0  0  0  0  0  0  0  0  0  0
   12.4400    7.1700   -2.1010 C   0  0  0  0  0  0  0  0  0  0  0  0
   10.7540    8.7550   -6.6030 C   0  0  0  0  0  0  0  0  0  0  0  0
    9.0400    5.3740   -9.0830 C   0  0  1  0  0  0  0  0  0  0  0  0
   10.9610    7.9940  -10.6340 C   0  0  0  0  0  0  0  0  0  0  0  0
   12.4050    7.9590   -9.9920 C   0  0  0  0  0  0  0  0  0  0  0  0
   11.3980    6.8590   -4.2720 C   0  0  0  0  0  0  0  0  0  0  0  0
    6.3250    5.1550  -12.6630 C   0  0  0  0  0  0  0  0  0  0  0  0
    7.8290    5.5460  -11.0070 O   0  0  0  0  0  0  0  0  0  0  0  0
   11.4410    9.7990   -3.7360 C   0  0  0  0  0  0  0  0  0  0  0  0
   10.1350    6.7350  -11.0910 C   0  0  1  0  0  0  0  0  0  0  0  0
    9.3570    6.9570   -8.3720 C   0  0  0  0  0  0  0  0  0  0  0  0
   10.3740    6.4160   -8.4960 C   0  0  0  0  0  0  0  0  0  0  0  0
   11.6880    6.5050   -3.1430 C   0  0  0  0  0  0  0  0  0  0  0  0
   11.1060    6.3130   -5.2270 C   0  0  0  0  0  0  0  0  0  0  0  0
    8.6280    6.4170  -13.2080 C   0  0  0  0  0  0  0  0  0  0  0  0
    5.5590    5.4950  -11.5730 O   0  0  0  0  0  0  0  0  0  0  0  0
   11.2020    6.3020   -6.1350 C   0  0  0  0  0  0  0  0  0  0  0  0
    8.2190    5.4240   -7.8300 O   0  0  0  0  0  0  0  0  0  0  0  0
    8.6930    6.4470  -10.3440 C   0  0  2  0  0  0  0  0  0  0  0  0
    6.0530    3.6530  -12.9700 C   0  0  0  0  0  0  0  0  0  0  0  0
  1 18  1  0
  3  8  1  0
  4  2  1  0
  5 10  1  0
  6 15  1  0
  7 15  1  6
  7 16  1  0
  8 14  2  0
  8 17  1  0
  9  2  2  0
 10  3  1  0
 11 19  1  0
 11 26  1  1
 12 13  1  0
 14 21  1  0
 15 24  1  0
 27 16  1  6
 17  4  1  0
 18 12  1  6
 18 27  1  0
 20 19  1  0
 20  5  1  0
 21  9  1  0
 22 14  1  0
 23  1  1  0
 23  7  1  0
 25 22  2  0
 27 11  1  0
 28 15  1  0
M  END
>  <GenAI_Model>  (25) 
DiffSBDD

>  <Protein>  (25) 
generic_title2

>  <num_sample>  (25) 
100

$$$$
DiffSBDD_25
     RDKit          3D

 32 35  0  0  0  0  0  0  0  0999 V2000
    5.5140    6.7940  -15.7020 C   0  0  0  0  0  0  0  0  0  0  0  0
   12.0250    9.2950   -4.2030 C   0  0  0  0  0  0  0  0  0  0  0  0
   10.5320    7.5740  -10.3110 C   0  0  0  0  0  0  0  0  0  0  0  0
    9.6970    7.4950   -7.7780 C   0  0  0  0  0  0  0  0  0  0  0  0
    9.7440    6.8110   -9.1540 N   0  0  0  0  0  0  0  0  0  0  0  0
   11.9870    6.3150   -1.8620 C   0  0  0  0  0  0  0  0  0  0  0  0
    9.0090    4.9440   -8.4700 C   0  0  0  0  0  0  0  0  0  0  0  0
   11.8160    7.0820   -3.1260 C   0  0  0  0  0  0  0  0  0  0  0  0
    9.8250    6.9570  -11.6270 C   0  0  1  0  0  0  0  0  0  0  0  0
    6.5500    5.4320  -13.5860 C   0  0  0  0  0  0  0  0  0  0  0  0
    7.4450    5.7240   -9.9760 C   0  0  0  0  0  0  0  0  0  0  0  0
   11.0600    9.4540   -6.3620 O   0  0  0  0  0  0  0  0  0  0  0  0
    5.5680    4.1730  -11.7180 C   0  0  1  0  0  0  0  0  0  0  0  0
   12.1040    7.3580  -12.4450 C   0  0  0  0  0  0  0  0  0  0  0  0
   11.2320    6.5300   -4.2720 C   0  0  0  0  0  0  0  0  0  0  0  0
   12.2480    8.4570   -3.1370 C   0  0  0  0  0  0  0  0  0  0  0  0
    8.3160    6.7970  -12.3010 C   0  0  0  0  0  0  0  0  0  0  0  0
   11.0020    7.3200   -5.3900 C   0  0  0  0  0  0  0  0  0  0  0  0
    6.5490    6.4540  -14.7640 C   0  0  0  0  0  0  0  0  0  0  0  0
   12.6630    7.2070  -13.5120 O   0  0  0  0  0  0  0  0  0  0  0  0
    6.9070    4.6500  -10.9620 C   0  0  0  0  0  0  0  0  0  0  0  0
    5.4180    4.6120  -13.1100 C   0  0  2  0  0  0  0  0  0  0  0  0
   12.5450    6.9130   -0.8180 C   0  0  0  0  0  0  0  0  0  0  0  0
   11.3640    8.7950   -5.3640 C   0  0  0  0  0  0  0  0  0  0  0  0
    8.7920    5.8350   -9.4500 C   0  0  0  0  0  0  0  0  0  0  0  0
   10.9410    6.7170  -12.4500 C   0  0  0  0  0  0  0  0  0  0  0  0
    5.8220    3.2140  -12.9160 C   0  0  0  0  0  0  0  0  0  0  0  0
   13.0990    8.2680   -0.8500 C   0  0  0  0  0  0  0  0  0  0  0  0
   12.9430    9.1230   -1.9750 C   0  0  0  0  0  0  0  0  0  0  0  0
   10.4440    6.9120   -6.6470 C   0  0  0  0  0  0  0  0  0  0  0  0
    7.7240    5.3800  -12.5760 N   0  0  0  0  0  0  0  0  0  0  0  0
   12.6470    8.0300  -11.5660 O   0  0  0  0  0  0  0  0  0  0  0  0
  1 19  1  0
  2 16  1  0
  3  5  1  0
  4 30  1  0
  5  4  1  0
  6 23  1  0
  8  6  2  0
  9 26  1  6
  9  3  1  0
 10 22  1  0
 10 31  1  0
 11 25  1  0
 12 24  2  0
 13 27  1  6
 13 21  1  0
 14 32  1  0
 15  8  1  0
 16  8  1  0
 16 29  2  0
 17  9  1  0
 18 24  1  0
 18 15  2  0
 19 10  2  3
 20 14  2  0
 21 11  2  0
 22 27  1  6
 22 13  1  0
 24  2  1  0
 25  5  1  0
 25  7  2  0
 26 14  1  0
 28 23  2  0
 29 28  1  0
 30 18  1  0
 31 17  1  0
M  END
>  <GenAI_Model>  (26) 
DiffSBDD

>  <Protein>  (26) 
generic_title2

>  <num_sample>  (26) 
100

$$$$
DiffSBDD_26
     RDKit          3D

 24 26  0  0  0  0  0  0  0  0999 V2000
   11.4910    8.3500   -6.6350 C   0  0  0  0  0  0  0  0  0  0  0  0
    6.4470    2.9070  -12.9610 O   0  0  0  0  0  0  0  0  0  0  0  0
   11.8460    7.5950   -3.8220 C   0  0  1  0  0  0  0  0  0  0  0  0
    9.5790    5.7710  -12.0770 C   0  0  0  0  0  0  0  0  0  0  0  0
   13.0690    6.0590   -2.0610 C   0  0  0  0  0  0  0  0  0  0  0  0
   10.2240    6.8760   -6.9680 C   0  0  0  0  0  0  0  0  0  0  0  0
    9.6980    6.3910   -9.6700 C   0  0  2  0  0  0  0  0  0  0  0  0
    9.8840    7.1800  -12.1080 C   0  0  0  0  0  0  0  0  0  0  0  0
   12.3620    7.6310   -9.3650 C   0  0  0  0  0  0  0  0  0  0  0  0
   10.2060    7.5540  -10.7530 N   0  0  0  0  0  0  0  0  0  0  0  0
    7.4850    5.4570  -10.6260 N   0  0  0  0  0  0  0  0  0  0  0  0
   11.9120    8.9280   -4.2320 C   0  0  0  0  0  0  0  0  0  0  0  0
    6.5690    4.3780  -11.1060 C   0  0  0  0  0  0  0  0  0  0  0  0
   11.6240    7.7630  -10.7470 C   0  0  0  0  0  0  0  0  0  0  0  0
   11.9470    7.1030   -2.5140 C   0  0  0  0  0  0  0  0  0  0  0  0
   11.6650    8.4500   -8.5080 C   0  0  1  0  0  0  0  0  0  0  0  0
   10.8410    8.1260   -6.0860 C   0  0  1  0  0  0  0  0  0  0  0  0
    8.9980    5.2840  -10.8770 C   0  0  1  0  0  0  0  0  0  0  0  0
   11.4520    9.7280   -5.0790 O   0  0  0  0  0  0  0  0  0  0  0  0
   11.1390    6.8880   -4.6900 C   0  0  0  0  0  0  0  0  0  0  0  0
    8.4720    3.3360  -12.4430 O   0  0  0  0  0  0  0  0  0  0  0  0
   10.0430    7.5390   -8.5280 C   0  0  2  0  0  0  0  0  0  0  0  0
   12.3270    8.2220   -1.4210 C   0  0  0  0  0  0  0  0  0  0  0  0
    7.1710    3.5980  -12.3190 C   0  0  0  0  0  0  0  0  0  0  0  0
  1 17  1  0
  2 24  2  0
  3 20  1  1
  3 15  1  0
  4 18  1  0
  6 17  1  0
  7 22  1  0
  8  4  1  0
  8 10  1  0
 16  9  1  6
 10 14  1  0
  7 10  1  6
 12  3  1  0
 13 11  1  0
 14  9  1  0
 15  5  1  0
 15 23  1  0
 16  1  1  0
 17 20  1  1
 18 11  1  6
 18  7  1  0
 19 12  2  0
 21 24  1  0
 22 16  1  0
 22  6  1  1
 24 13  1  0
M  END
>  <GenAI_Model>  (27) 
DiffSBDD

>  <Protein>  (27) 
generic_title2

>  <num_sample>  (27) 
100

$$$$
DiffSBDD_27
     RDKit          3D

 40 45  0  0  0  0  0  0  0  0999 V2000
   13.1130    9.6520   -0.3280 O   0  0  0  0  0  0  0  0  0  0  0  0
   11.3120    7.1180   -7.1540 C   0  0  0  0  0  0  0  0  0  0  0  0
    5.5340    7.6220  -16.8040 C   0  0  0  0  0  0  0  0  0  0  0  0
    7.3360    1.6300  -14.3400 C   0  0  0  0  0  0  0  0  0  0  0  0
   12.5590    8.3040   -2.4210 C   0  0  0  0  0  0  0  0  0  0  0  0
    6.8170    4.8270  -13.2270 C   0  0  1  0  0  0  0  0  0  0  0  0
    6.5180    3.9810  -14.2090 O   0  0  0  0  0  0  0  0  0  0  0  0
    6.1800    6.2590  -13.4600 C   0  0  1  0  0  0  0  0  0  0  0  0
   10.4660    8.1920  -10.1950 C   0  0  0  0  0  0  0  0  0  0  0  0
    8.2920    5.4810   -8.8060 O   0  0  0  0  0  0  0  0  0  0  0  0
    7.0000    3.9000  -10.4650 C   0  0  0  0  0  0  0  0  0  0  0  0
    8.8600    4.1320  -12.1460 N   0  0  0  0  0  0  0  0  0  0  0  0
    9.1230    8.1960   -7.0390 C   0  0  0  0  0  0  0  0  0  0  0  0
   11.0800    6.0550  -11.7020 O   0  0  0  0  0  0  0  0  0  0  0  0
    9.4750    6.2140   -8.8460 C   0  0  2  0  0  0  0  0  0  0  0  0
    8.5880    6.6450  -11.2160 C   0  0  2  0  0  0  0  0  0  0  0  0
   12.0300    7.6340   -7.9340 O   0  0  0  0  0  0  0  0  0  0  0  0
    9.7060    5.8840  -13.5640 O   0  0  0  0  0  0  0  0  0  0  0  0
   12.9540    7.6310   -1.4150 C   0  0  1  0  0  0  0  0  0  0  0  0
   13.6350    8.1290   -0.3050 C   0  0  0  0  0  0  0  0  0  0  0  0
    6.5430    7.3240  -12.5440 O   0  0  0  0  0  0  0  0  0  0  0  0
    7.4110    4.1360  -11.9380 C   0  0  0  0  0  0  0  0  0  0  0  0
    6.5270    6.6570  -14.9380 C   0  0  0  0  0  0  0  0  0  0  0  0
   11.6430    6.6280   -5.7640 C   0  0  0  0  0  0  0  0  0  0  0  0
   12.4260    8.8630   -5.1820 C   0  0  0  0  0  0  0  0  0  0  0  0
   11.7130    6.0710   -2.6270 O   0  0  0  0  0  0  0  0  0  0  0  0
    9.8480    6.8650   -7.4180 C   0  0  1  0  0  0  0  0  0  0  0  0
   11.9610    7.6900   -4.8270 C   0  0  0  0  0  0  0  0  0  0  0  0
    8.0110    7.6610  -12.1950 C   0  0  0  0  0  0  0  0  0  0  0  0
    7.2450    2.9220  -14.7560 C   0  0  0  0  0  0  0  0  0  0  0  0
   12.0080    6.9570   -0.1820 C   0  0  2  0  0  0  0  0  0  0  0  0
   11.9420    7.3640   -3.4210 C   0  0  0  0  0  0  0  0  0  0  0  0
   12.2210    5.2600   -0.5910 C   0  0  0  0  0  0  0  0  0  0  0  0
   13.1030    9.5230   -2.9690 C   0  0  0  0  0  0  0  0  0  0  0  0
    9.2620    7.3000   -9.9670 C   0  0  2  0  0  0  0  0  0  0  0  0
   12.8040    6.1650   -1.6060 C   0  0  1  0  0  0  0  0  0  0  0  0
    9.6140    5.6180  -12.0880 S   0  0  0  0  0  0  0  0  0  0  0  0
    5.2830    6.8560  -15.7270 C   0  0  0  0  0  0  0  0  0  0  0  0
    6.5320    2.9560  -11.5180 C   0  0  0  0  0  0  0  0  0  0  0  0
   12.9650    9.8130   -4.2710 C   0  0  0  0  0  0  0  0  0  0  0  0
  1 20  1  0
  2 24  1  0
  3 38  1  0
  5 19  1  0
  6  7  1  1
  6 22  1  0
  8 23  1  6
  8  6  1  0
  8 21  1  0
 12 37  1  0
 12 22  1  0
 15 10  1  1
 15 27  1  0
 16 35  1  0
 17  2  2  0
 18 37  2  0
 19 20  1  1
 19 31  1  0
 21 29  1  0
 22 39  1  0
 22 11  1  0
 24 28  1  0
 25 28  1  0
 25 40  2  0
 26 36  1  0
 27  2  1  0
 27 13  1  6
 28 32  2  0
 16 29  1  6
 30  4  2  0
 30  7  1  0
 31 33  1  1
 32 26  1  0
 32  5  1  0
 34  5  2  0
 35  9  1  6
 35 15  1  0
 36 19  1  0
 36 33  1  6
 36 31  1  0
 37 14  2  0
 37 16  1  0
 38 23  1  0
 39 11  1  0
 40 34  1  0
M  END
>  <GenAI_Model>  (28) 
DiffSBDD

>  <Protein>  (28) 
generic_title2

>  <num_sample>  (28) 
100

$$$$
DiffSBDD_28
     RDKit          3D

 34 38  0  0  0  0  0  0  0  0999 V2000
   11.4450    7.7250   -8.3550 C   0  0  1  0  0  0  0  0  0  0  0  0
   11.3990   10.2690   -3.5780 F   0  0  0  0  0  0  0  0  0  0  0  0
   11.7140    7.9650   -4.3220 C   0  0  0  0  0  0  0  0  0  0  0  0
    9.3520    8.3000  -11.0820 C   0  0  0  0  0  0  0  0  0  0  0  0
    8.8310    6.4510  -11.4690 C   0  0  0  0  0  0  0  0  0  0  0  0
   12.3180    6.5250   -2.4830 C   0  0  0  0  0  0  0  0  0  0  0  0
    6.2580    6.1950  -14.7330 C   0  0  2  0  0  0  0  0  0  0  0  0
    7.0700    4.4150  -14.2090 O   0  0  0  0  0  0  0  0  0  0  0  0
    7.4740    5.9600  -14.8630 C   0  0  0  0  0  0  0  0  0  0  0  0
   12.6910    7.7320   -1.7030 C   0  0  0  0  0  0  0  0  0  0  0  0
    7.6580    6.3420  -12.3580 C   0  0  0  0  0  0  0  0  0  0  0  0
    6.5720    4.3970  -11.1680 C   0  0  0  0  0  0  0  0  0  0  0  0
   12.7190    7.5920   -8.6490 C   0  0  0  0  0  0  0  0  0  0  0  0
   10.5320    7.6250   -9.5920 C   0  0  1  0  0  0  0  0  0  0  0  0
   13.4590    7.6970   -0.2940 Cl  0  0  0  0  0  0  0  0  0  0  0  0
    9.8860    5.8870   -5.7760 O   0  0  0  0  0  0  0  0  0  0  0  0
    9.4580    5.9010   -8.1700 C   0  0  1  0  0  0  0  0  0  0  0  0
    5.9760    7.4810  -14.5290 O   0  0  0  0  0  0  0  0  0  0  0  0
   12.4290    8.9640   -2.1990 C   0  0  0  0  0  0  0  0  0  0  0  0
    9.7770    7.2800  -12.3130 C   0  0  0  0  0  0  0  0  0  0  0  0
   10.1490    6.4630   -6.8960 C   0  0  0  0  0  0  0  0  0  0  0  0
    9.3980    5.7470  -10.5950 O   0  0  0  0  0  0  0  0  0  0  0  0
    8.1380    5.5900   -7.9810 O   0  0  0  0  0  0  0  0  0  0  0  0
   11.0970    7.3150   -6.8920 N   0  0  0  0  0  0  0  0  0  0  0  0
   11.8700    9.1020   -3.4370 C   0  0  0  0  0  0  0  0  0  0  0  0
    6.5790    5.4460  -12.3350 C   0  0  0  0  0  0  0  0  0  0  0  0
    5.3430    6.4330  -11.9340 C   0  0  0  0  0  0  0  0  0  0  0  0
    7.8520    6.7360  -13.0600 O   0  0  0  0  0  0  0  0  0  0  0  0
    6.6460    5.3280  -13.8770 C   0  0  2  0  0  0  0  0  0  0  0  0
    9.4800    6.7470   -9.4620 C   0  0  2  0  0  0  0  0  0  0  0  0
   11.5350    8.1550   -5.8120 C   0  0  0  0  0  0  0  0  0  0  0  0
   11.0260    8.8110   -8.8140 C   0  0  0  0  0  0  0  0  0  0  0  0
   11.8870    6.6360   -3.7360 C   0  0  0  0  0  0  0  0  0  0  0  0
   11.7250    9.4700   -6.1500 O   0  0  0  0  0  0  0  0  0  0  0  0
  1 13  1  6
  1 24  1  0
  2 25  1  0
  3 33  1  0
  3 25  2  0
  5  4  1  0
  5 22  1  0
  6 10  1  0
  7 18  1  1
  7 29  1  0
  9  7  1  0
  9 29  1  0
 10 15  1  0
 11 26  1  0
 11  5  1  0
 14 30  1  0
 14 32  1  1
 14  1  1  0
 17 23  1  1
 17 21  1  0
 19 10  2  0
 20  5  1  0
 20  4  1  0
 21 24  1  0
 21 16  2  0
 24 31  1  0
 25 19  1  0
 26 27  1  0
 26 12  1  0
 28 11  2  0
 29  8  1  6
 29 26  1  0
 30 22  1  6
 30 17  1  0
 31  3  1  0
 32  1  1  0
 33  6  2  0
 34 31  2  0
M  END
>  <GenAI_Model>  (29) 
DiffSBDD

>  <Protein>  (29) 
generic_title2

>  <num_sample>  (29) 
100

$$$$
DiffSBDD_29
     RDKit          3D

 26 27  0  0  0  0  0  0  0  0999 V2000
   11.7220    6.8360   -7.7890 C   0  0  0  0  0  0  0  0  0  0  0  0
    8.9320    4.1760  -10.4580 C   0  0  0  0  0  0  0  0  0  0  0  0
   10.9190    7.8780   -8.7330 C   0  0  0  0  0  0  0  0  0  0  0  0
   11.3890   10.3300   -5.1250 O   0  0  0  0  0  0  0  0  0  0  0  0
   11.4100    9.0630   -5.0260 C   0  0  0  0  0  0  0  0  0  0  0  0
   10.4540    6.4470   -1.3810 F   0  0  0  0  0  0  0  0  0  0  0  0
    6.7410    5.1920  -11.1910 C   0  0  0  0  0  0  0  0  0  0  0  0
   12.4240    6.7530   -1.7780 C   0  0  0  0  0  0  0  0  0  0  0  0
    5.5960    4.9160  -12.1510 C   0  0  0  0  0  0  0  0  0  0  0  0
    7.5870    3.9420  -11.0590 C   0  0  0  0  0  0  0  0  0  0  0  0
    9.5140    5.5110  -10.9170 N   0  0  0  0  0  0  0  0  0  0  0  0
   13.0520    8.5880   -3.1030 C   0  0  0  0  0  0  0  0  0  0  0  0
    9.9020    5.6990  -12.0630 O   0  0  0  0  0  0  0  0  0  0  0  0
    6.2590    6.4460  -13.9780 C   0  0  0  0  0  0  0  0  0  0  0  0
    6.0500    4.9370  -13.5740 C   0  0  0  0  0  0  0  0  0  0  0  0
   10.8100    7.3890  -10.2410 C   0  0  0  0  0  0  0  0  0  0  0  0
   11.0600    7.1310   -2.1530 C   0  0  0  0  0  0  0  0  0  0  0  0
    9.5750    7.9670   -8.1040 C   0  0  0  0  0  0  0  0  0  0  0  0
   11.8500    8.6140   -3.6720 C   0  0  2  0  0  0  0  0  0  0  0  0
   13.0180    7.7600   -1.6860 C   0  0  0  0  0  0  0  0  0  0  0  0
   11.0400    8.4920   -6.1370 N   0  0  0  0  0  0  0  0  0  0  0  0
   10.9600    8.1360   -3.0010 N   0  0  0  0  0  0  0  0  0  0  0  0
    9.6620    6.4590  -10.1450 N   0  0  0  0  0  0  0  0  0  0  0  0
   11.3920    7.0050   -6.2770 C   0  0  0  0  0  0  0  0  0  0  0  0
    9.6440    8.6810   -6.7690 C   0  0  0  0  0  0  0  0  0  0  0  0
    6.1760    6.4800  -15.5070 C   0  0  0  0  0  0  0  0  0  0  0  0
  1 24  1  0
  3 16  1  0
  3 18  1  0
  3  1  1  0
  4  5  2  0
  7 10  1  0
  8 20  1  0
  9  7  1  0
 10  2  1  0
 11  2  1  0
 11 23  1  0
 12 20  1  0
 13 11  1  0
 14 15  1  0
 15  9  1  0
 16 23  1  0
 17  8  1  0
 17  6  1  0
 18 25  1  0
 19  5  1  6
 19 12  1  0
 19 22  1  0
 21  5  1  0
 22 17  2  0
 24 21  1  0
 25 21  1  0
 26 14  1  0
M  END
>  <GenAI_Model>  (30) 
DiffSBDD

>  <Protein>  (30) 
generic_title2

>  <num_sample>  (30) 
100

$$$$
DiffSBDD_30
     RDKit          3D

 18 18  0  0  0  0  0  0  0  0999 V2000
   11.6820    7.7350   -4.5980 C   0  0  0  0  0  0  0  0  0  0  0  0
    9.5740    8.0860  -10.0890 C   0  0  0  0  0  0  0  0  0  0  0  0
   11.3560    7.6490   -8.3000 C   0  0  0  0  0  0  0  0  0  0  0  0
    6.3970    5.4200  -10.7950 N   0  0  0  0  0  0  0  0  0  0  0  0
   11.4230    6.6450   -3.8650 C   0  0  0  0  0  0  0  0  0  0  0  0
    6.0080    5.2090  -13.2570 C   0  0  0  0  0  0  0  0  0  0  0  0
   11.2470    6.9420   -6.9230 C   0  0  0  0  0  0  0  0  0  0  0  0
   10.0380    7.9360   -8.8000 N   0  0  0  0  0  0  0  0  0  0  0  0
    7.0770    4.9270  -12.0060 C   0  0  1  0  0  0  0  0  0  0  0  0
    8.7690    8.9480  -10.3740 O   0  0  0  0  0  0  0  0  0  0  0  0
   11.8620    6.5610   -2.5930 C   0  0  0  0  0  0  0  0  0  0  0  0
   12.2790    8.7740   -3.9550 C   0  0  0  0  0  0  0  0  0  0  0  0
    8.2370    5.8780  -12.3080 C   0  0  0  0  0  0  0  0  0  0  0  0
    9.8420    7.2130  -11.2660 C   0  0  0  0  0  0  0  0  0  0  0  0
   12.4680    7.6230   -1.9210 C   0  0  0  0  0  0  0  0  0  0  0  0
   12.7450    8.7470   -2.6750 C   0  0  0  0  0  0  0  0  0  0  0  0
   11.2770    7.8440   -5.9200 O   0  0  0  0  0  0  0  0  0  0  0  0
    8.3910    6.9070  -11.7590 N   0  0  0  0  0  0  0  0  0  0  0  0
  1 12  1  0
  1  5  2  0
  2  8  1  0
  3  7  1  0
  5 11  1  0
  7 17  1  0
  8  3  1  0
  9  6  1  6
  9  4  1  0
 10  2  2  0
 11 15  2  0
 12 16  2  0
 13  9  1  0
 13 18  1  0
 14  2  1  0
 16 15  1  0
 17  1  1  0
 18 14  1  0
M  END
>  <GenAI_Model>  (31) 
DiffSBDD

>  <Protein>  (31) 
generic_title2

>  <num_sample>  (31) 
100

$$$$
DiffSBDD_31
     RDKit          3D

 43 49  0  0  0  0  0  0  0  0999 V2000
   13.3630    6.9360   -4.6180 C   0  0  0  0  0  0  0  0  0  0  0  0
   10.9910    7.3510  -10.3690 C   0  0  0  0  0  0  0  0  0  0  0  0
    4.6660    6.8030  -16.9800 C   0  0  2  0  0  0  0  0  0  0  0  0
   10.9650    6.2880   -5.0640 C   0  0  0  0  0  0  0  0  0  0  0  0
   11.0840    6.5820  -12.5640 O   0  0  0  0  0  0  0  0  0  0  0  0
   14.7250    7.8860    1.3490 C   0  0  0  0  0  0  0  0  0  0  0  0
   12.9330    6.9660   -5.8780 C   0  0  0  0  0  0  0  0  0  0  0  0
    6.7140    4.0330  -13.0410 C   0  0  0  0  0  0  0  0  0  0  0  0
   12.3860    7.2310   -3.6240 C   0  0  1  0  0  0  0  0  0  0  0  0
   12.1140    8.2370   -6.0660 C   0  0  2  0  0  0  0  0  0  0  0  0
   14.5540    8.9110    0.1410 C   0  0  1  0  0  0  0  0  0  0  0  0
   10.9500    7.3530   -5.6600 C   0  0  1  0  0  0  0  0  0  0  0  0
   10.7630    8.2000   -9.2310 C   0  0  0  0  0  0  0  0  0  0  0  0
    9.7870    6.3790   -8.4920 C   0  0  1  0  0  0  0  0  0  0  0  0
   15.7880    8.4010    2.2570 C   0  0  0  0  0  0  0  0  0  0  0  0
   10.7440    8.3010   -6.8860 C   0  0  2  0  0  0  0  0  0  0  0  0
    7.8480    7.9000  -12.0490 C   0  0  0  0  0  0  0  0  0  0  0  0
   13.7960    8.7530   -1.1700 C   0  0  1  0  0  0  0  0  0  0  0  0
    8.5650    5.5290  -12.5830 C   0  0  0  0  0  0  0  0  0  0  0  0
    5.4080    4.5790  -12.2610 C   0  0  0  0  0  0  0  0  0  0  0  0
    5.8930    5.9320  -17.2120 C   0  0  0  0  0  0  0  0  0  0  0  0
    6.2370    4.1500  -15.7180 O   0  0  0  0  0  0  0  0  0  0  0  0
   11.1330    6.4840   -3.8870 O   0  0  0  0  0  0  0  0  0  0  0  0
   12.3520    8.5230   -1.0900 N   0  0  0  0  0  0  0  0  0  0  0  0
   10.3780    7.7820   -8.4050 C   0  0  1  0  0  0  0  0  0  0  0  0
    5.9950    5.2860  -15.8500 C   0  0  0  0  0  0  0  0  0  0  0  0
    8.7750    6.7530  -11.8520 C   0  0  1  0  0  0  0  0  0  0  0  0
   12.0640    8.8890    0.4210 C   0  0  0  0  0  0  0  0  0  0  0  0
    5.5440    6.0540  -12.2970 C   0  0  0  0  0  0  0  0  0  0  0  0
    7.4120    5.2360  -13.6080 C   0  0  2  0  0  0  0  0  0  0  0  0
   11.9440    7.1190   -1.2030 C   0  0  0  0  0  0  0  0  0  0  0  0
    5.5350    6.1530  -14.8060 C   0  0  1  0  0  0  0  0  0  0  0  0
   10.3540    5.0540   -8.1700 C   0  0  0  0  0  0  0  0  0  0  0  0
   12.8140    6.6020   -2.3560 C   0  0  0  0  0  0  0  0  0  0  0  0
   13.3030    9.7220    0.3540 C   0  0  1  0  0  0  0  0  0  0  0  0
    6.3290    7.9080  -15.8470 O   0  0  0  0  0  0  0  0  0  0  0  0
    7.0530    7.8120  -13.3880 C   0  0  0  0  0  0  0  0  0  0  0  0
    8.4350    6.0160   -7.7500 O   0  0  0  0  0  0  0  0  0  0  0  0
    6.4120    6.4070  -13.5280 C   0  0  1  0  0  0  0  0  0  0  0  0
   10.2740    7.0400  -11.7560 C   0  0  0  0  0  0  0  0  0  0  0  0
    4.1900    7.8580  -18.0600 C   0  0  0  0  0  0  0  0  0  0  0  0
   14.8640    6.4010    0.8170 C   0  0  0  0  0  0  0  0  0  0  0  0
    5.1100    7.3400  -15.6890 C   0  0  1  0  0  0  0  0  0  0  0  0
  1  9  1  0
  2 13  1  0
  3 41  1  6
  3 43  1  0
  4 23  1  0
  5 40  2  0
  6 15  1  0
  7  1  1  0
  8 20  1  0
  9 34  1  1
 10  7  1  6
 10 12  1  0
 11 35  1  0
 11  6  1  1
 12  4  1  6
 14 25  1  0
 14 33  1  1
 14 38  1  0
 16 25  1  6
 16 10  1  0
 16 12  1  0
 17 27  1  0
 18 24  1  1
 18 11  1  0
 18 35  1  0
 19 27  1  0
 21  3  1  0
 21 26  1  0
 23  9  1  0
 24 28  1  0
 25 13  1  6
 26 22  2  0
 27 40  1  6
 29 20  1  0
 30 39  1  0
 30  8  1  1
 30 19  1  0
 31 24  1  0
 32 26  1  6
 32 39  1  0
 34 31  1  0
 35 28  1  1
 37 17  1  0
 39 37  1  1
 39 29  1  0
 40  2  1  0
 42  6  1  0
 43 36  1  6
 43 32  1  0
M  END
>  <GenAI_Model>  (32) 
DiffSBDD

>  <Protein>  (32) 
generic_title2

>  <num_sample>  (32) 
100

$$$$
DiffSBDD_32
     RDKit          3D

 37 40  0  0  0  0  0  0  0  0999 V2000
    9.4670    6.2920   -7.0440 O   0  0  0  0  0  0  0  0  0  0  0  0
    6.2660    6.6100  -14.0600 C   0  0  1  0  0  0  0  0  0  0  0  0
   13.0830    9.1330   -3.8170 F   0  0  0  0  0  0  0  0  0  0  0  0
   11.0730    7.4730   -9.6400 O   0  0  0  0  0  0  0  0  0  0  0  0
    6.5810    4.4900  -10.2020 O   0  0  0  0  0  0  0  0  0  0  0  0
    6.2980    4.0810  -14.0840 C   0  0  0  0  0  0  0  0  0  0  0  0
   12.8450    7.0720   -7.3690 C   0  0  0  0  0  0  0  0  0  0  0  0
   10.4800    9.0580   -7.2300 C   0  0  1  0  0  0  0  0  0  0  0  0
   11.9150    7.5750   -5.3310 O   0  0  0  0  0  0  0  0  0  0  0  0
   10.7120    6.3790   -3.8500 O   0  0  0  0  0  0  0  0  0  0  0  0
    9.8340    7.6800   -9.5170 C   0  0  1  0  0  0  0  0  0  0  0  0
    7.7750    4.4540  -12.1040 C   0  0  0  0  0  0  0  0  0  0  0  0
    5.7310    5.4290  -13.6750 C   0  0  0  0  0  0  0  0  0  0  0  0
    8.6370    6.1350   -8.1140 O   0  0  0  0  0  0  0  0  0  0  0  0
   10.7880    9.9010   -5.8220 S   0  0  0  0  0  0  0  0  0  0  0  0
    7.2090    3.5650  -12.8970 C   0  0  0  0  0  0  0  0  0  0  0  0
   14.2090    7.4030   -1.3390 C   0  0  0  0  0  0  0  0  0  0  0  0
    5.7900    6.3740  -15.6410 C   0  0  0  0  0  0  0  0  0  0  0  0
   10.4200    7.3580   -7.2750 C   0  0  2  0  0  0  0  0  0  0  0  0
   12.8410    8.0930   -0.7270 C   0  0  2  0  0  0  0  0  0  0  0  0
   13.6480    6.9740   -2.6560 O   0  0  0  0  0  0  0  0  0  0  0  0
    7.3440    2.5270  -13.2490 C   0  0  0  0  0  0  0  0  0  0  0  0
   12.8660    5.9310   -2.3850 F   0  0  0  0  0  0  0  0  0  0  0  0
    7.6260    8.0460  -12.5960 C   0  0  0  0  0  0  0  0  0  0  0  0
   11.7110    6.2020   -1.9040 O   0  0  0  0  0  0  0  0  0  0  0  0
   11.7660    7.8000   -1.8340 C   0  0  2  0  0  0  0  0  0  0  0  0
    7.6790    6.4020  -10.5920 C   0  0  1  0  0  0  0  0  0  0  0  0
    8.9960    5.9990   -9.4720 C   0  0  1  0  0  0  0  0  0  0  0  0
   12.4860    7.9270   -3.1340 C   0  0  1  0  0  0  0  0  0  0  0  0
    5.1180    7.6190  -15.9020 C   0  0  0  0  0  0  0  0  0  0  0  0
   12.2910    9.1210   -1.1530 N   0  0  0  0  0  0  0  0  0  0  0  0
    9.5730    8.5030   -8.2760 C   0  0  1  0  0  0  0  0  0  0  0  0
    6.3150    7.7340  -13.4250 C   0  0  0  0  0  0  0  0  0  0  0  0
   11.6390    7.1580   -4.1370 C   0  0  0  0  0  0  0  0  0  0  0  0
   11.7630    6.8850   -6.5080 C   0  0  1  0  0  0  0  0  0  0  0  0
    7.8850    7.7270  -11.1570 C   0  0  0  0  0  0  0  0  0  0  0  0
    7.0910    5.3020  -11.3930 C   0  0  2  0  0  0  0  0  0  0  0  0
  2 18  1  6
  2 13  1  0
  2 33  1  0
  6 13  1  0
  6 16  1  0
 35  7  1  6
  8 15  1  1
  9 34  1  0
 11  4  1  1
 11 28  1  0
 32 11  1  6
 12 37  1  0
 14  1  1  0
 16 12  1  0
 19  8  1  0
 19  1  1  1
 19 35  1  0
 20 17  1  6
 21 17  1  0
 22 16  2  0
 23 25  1  0
 24 36  1  0
 26 25  1  1
 26 31  1  0
 26 20  1  0
 27 36  1  6
 27 28  1  0
 28 14  1  1
 29  3  1  6
 29 26  1  0
 30 18  1  0
 31 20  1  0
 32 19  1  0
 32  8  1  0
 33 24  1  0
 34 10  2  0
 34 29  1  0
 35  9  1  0
 37 27  1  0
 37  5  1  1
M  END
>  <GenAI_Model>  (33) 
DiffSBDD

>  <Protein>  (33) 
generic_title2

>  <num_sample>  (33) 
100

$$$$
DiffSBDD_33
     RDKit          3D

 24 26  0  0  0  0  0  0  0  0999 V2000
    9.2260    7.4490  -10.3270 C   0  0  0  0  0  0  0  0  0  0  0  0
   12.6360    9.2690   -2.3850 C   0  0  0  0  0  0  0  0  0  0  0  0
    9.3730    5.8190  -10.8710 C   0  0  1  0  0  0  0  0  0  0  0  0
   11.1750    7.5060   -3.4630 C   0  0  0  0  0  0  0  0  0  0  0  0
    9.7900    5.8930   -9.0590 N   0  0  0  0  0  0  0  0  0  0  0  0
   10.0130    7.2990   -8.8050 C   0  0  1  0  0  0  0  0  0  0  0  0
   12.4530    6.8240   -1.4620 C   0  0  0  0  0  0  0  0  0  0  0  0
   10.2540    5.4570   -7.1950 O   0  0  0  0  0  0  0  0  0  0  0  0
    8.6210    4.8270  -11.3790 C   0  0  1  0  0  0  0  0  0  0  0  0
   12.0040    8.7490   -3.5940 C   0  0  0  0  0  0  0  0  0  0  0  0
   11.2690    9.8680   -4.2120 N   0  0  0  0  0  0  0  0  0  0  0  0
   10.6650    9.0510   -8.6860 S   0  0  0  0  0  0  0  0  0  0  0  0
   10.9950    9.6440   -5.6130 C   0  0  0  0  0  0  0  0  0  0  0  0
    7.4310    4.3280  -10.6280 C   0  0  0  0  0  0  0  0  0  0  0  0
   13.0810    8.2500   -1.3920 C   0  0  0  0  0  0  0  0  0  0  0  0
   11.0440    6.9150   -2.0720 C   0  0  0  0  0  0  0  0  0  0  0  0
   12.3350    9.2650   -6.4310 C   0  0  0  0  0  0  0  0  0  0  0  0
    9.3540    5.1540  -12.0860 O   0  0  0  0  0  0  0  0  0  0  0  0
    9.4240    3.8550   -8.6930 O   0  0  0  0  0  0  0  0  0  0  0  0
   13.2260    6.0630   -2.2460 F   0  0  0  0  0  0  0  0  0  0  0  0
   12.3620    6.4070   -0.1800 F   0  0  0  0  0  0  0  0  0  0  0  0
   12.1220    8.5040   -7.7240 C   0  0  0  0  0  0  0  0  0  0  0  0
    8.8630    8.4610  -10.5650 C   0  0  0  0  0  0  0  0  0  0  0  0
    9.8290    5.0460   -8.3460 C   0  0  0  0  0  0  0  0  0  0  0  0
  1  6  1  0
  2 15  1  0
  3 18  1  6
  3  1  1  0
  3  5  1  0
  4 16  1  0
  5  6  1  0
  5 24  1  0
  6 12  1  6
  7 15  1  0
  7 21  1  0
  9  3  1  0
  9 14  1  6
 10  4  1  0
 10  2  1  0
 11 10  1  0
 12 22  1  0
 13 11  1  0
 16  7  1  0
 17 13  1  0
 18  9  1  0
 19 24  2  0
 20  7  1  0
 22 17  1  0
 23  1  2  0
 24  8  1  0
M  END
>  <GenAI_Model>  (34) 
DiffSBDD

>  <Protein>  (34) 
generic_title2

>  <num_sample>  (34) 
100

$$$$
DiffSBDD_34
     RDKit          3D

 25 27  0  0  0  0  0  0  0  0999 V2000
   11.6800    6.9000   -2.6970 O   0  0  0  0  0  0  0  0  0  0  0  0
    7.5270    5.7830  -11.7840 C   0  0  0  0  0  0  0  0  0  0  0  0
    5.3750    4.3080  -13.1990 C   0  0  0  0  0  0  0  0  0  0  0  0
   11.9890    8.1120   -3.3680 C   0  0  2  0  0  0  0  0  0  0  0  0
   12.7460    8.3120   -1.2160 C   0  0  0  0  0  0  0  0  0  0  0  0
    9.9040    6.7760   -9.1370 C   0  0  0  0  0  0  0  0  0  0  0  0
   12.3270    9.1850   -2.3460 C   0  0  0  0  0  0  0  0  0  0  0  0
   12.5060    6.8300   -1.5790 C   0  0  0  0  0  0  0  0  0  0  0  0
   11.0530    7.2480   -9.8620 C   0  0  0  0  0  0  0  0  0  0  0  0
    8.8050    6.4080   -9.8560 N   0  0  0  0  0  0  0  0  0  0  0  0
    6.9890    7.8910  -13.2260 C   0  0  0  0  0  0  0  0  0  0  0  0
    5.8610    5.6330  -13.7000 C   0  0  0  0  0  0  0  0  0  0  0  0
    9.9520    6.6600  -11.9510 C   0  0  0  0  0  0  0  0  0  0  0  0
    8.7470    6.3510  -11.2100 C   0  0  0  0  0  0  0  0  0  0  0  0
   11.6020    9.8300   -5.2110 C   0  0  0  0  0  0  0  0  0  0  0  0
   11.0640    6.1720   -5.2500 O   0  0  0  0  0  0  0  0  0  0  0  0
   11.0910    7.2140  -11.2300 C   0  0  0  0  0  0  0  0  0  0  0  0
    9.9450    6.6270   -7.6990 C   0  0  0  0  0  0  0  0  0  0  0  0
    6.7800    6.4100  -12.8830 C   0  0  0  0  0  0  0  0  0  0  0  0
   11.1780    7.3620   -5.6870 C   0  0  0  0  0  0  0  0  0  0  0  0
   11.6070    8.3900   -4.7130 C   0  0  0  0  0  0  0  0  0  0  0  0
    5.8180    3.8090  -11.7900 C   0  0  0  0  0  0  0  0  0  0  0  0
    7.0590    4.5610  -11.1070 C   0  0  0  0  0  0  0  0  0  0  0  0
   10.8370    7.6480   -7.0640 N   0  0  0  0  0  0  0  0  0  0  0  0
   12.4030    7.6860  -12.2220 Cl  0  0  0  0  0  0  0  0  0  0  0  0
  1  8  1  0
  2 14  1  0
  2 23  2  0
  3 22  2  0
  4 21  1  1
  4  1  1  0
  4  7  1  0
  6 18  1  0
  7  5  1  0
  8  5  1  0
  9  6  1  0
 10  6  2  0
 11 19  1  0
 12  3  1  0
 12 19  2  0
 13 17  1  0
 13 14  2  0
 14 10  1  0
 17  9  2  0
 18 24  1  0
 19  2  1  0
 20 16  2  0
 20 21  1  0
 21 15  1  0
 22 23  1  0
 24 20  1  0
 25 17  1  0
M  END
>  <GenAI_Model>  (35) 
DiffSBDD

>  <Protein>  (35) 
generic_title2

>  <num_sample>  (35) 
100

$$$$
DiffSBDD_35
     RDKit          3D

 31 33  0  0  0  0  0  0  0  0999 V2000
    6.7970    5.1200  -17.1600 O   0  0  0  0  0  0  0  0  0  0  0  0
   12.1160    9.1120   -3.0590 N   0  0  0  0  0  0  0  0  0  0  0  0
   12.4130    7.0280   -1.3020 C   0  0  0  0  0  0  0  0  0  0  0  0
   11.7770    8.3450   -5.8170 C   0  0  0  0  0  0  0  0  0  0  0  0
    5.6550    4.6120  -13.2370 C   0  0  0  0  0  0  0  0  0  0  0  0
    7.2200    5.7400  -16.1050 C   0  0  0  0  0  0  0  0  0  0  0  0
   11.4720    6.2430   -4.7820 C   0  0  0  0  0  0  0  0  0  0  0  0
    6.6260    4.3130  -11.2900 C   0  0  0  0  0  0  0  0  0  0  0  0
   12.4990    9.3150   -1.8460 C   0  0  0  0  0  0  0  0  0  0  0  0
    8.9070    4.3610  -10.0190 Cl  0  0  0  0  0  0  0  0  0  0  0  0
    6.0790    5.6950  -15.2790 O   0  0  0  0  0  0  0  0  0  0  0  0
   10.3300    6.7300   -9.1970 C   0  0  0  0  0  0  0  0  0  0  0  0
    8.0770    6.0290  -12.0880 C   0  0  0  0  0  0  0  0  0  0  0  0
   11.9570    6.7750   -2.5480 C   0  0  0  0  0  0  0  0  0  0  0  0
    9.2330    7.4590  -11.7910 S   0  0  0  0  0  0  0  0  0  0  0  0
    5.6190    4.2620  -12.0520 C   0  0  0  0  0  0  0  0  0  0  0  0
   11.2680    7.3940   -6.8430 C   0  0  2  0  0  0  0  0  0  0  0  0
   10.8280    5.9610   -6.3900 C   0  0  2  0  0  0  0  0  0  0  0  0
    6.4270    5.4750  -13.8590 C   0  0  0  0  0  0  0  0  0  0  0  0
   12.6220    8.1090   -8.9860 C   0  0  0  0  0  0  0  0  0  0  0  0
   11.3840    7.4480   -8.3940 C   0  0  1  0  0  0  0  0  0  0  0  0
   11.5790    7.5060   -4.6220 N   0  0  0  0  0  0  0  0  0  0  0  0
    7.7390    5.0160  -11.2280 C   0  0  0  0  0  0  0  0  0  0  0  0
    8.2870    8.5860  -12.0770 O   0  0  0  0  0  0  0  0  0  0  0  0
   11.8710    7.8170   -3.3610 C   0  0  0  0  0  0  0  0  0  0  0  0
    9.2290    8.7210   -9.5040 O   0  0  0  0  0  0  0  0  0  0  0  0
    9.5160    7.6700  -10.0360 C   0  0  0  0  0  0  0  0  0  0  0  0
    7.2250    4.9340  -18.2740 C   0  0  0  0  0  0  0  0  0  0  0  0
    9.6770    5.9530   -6.6610 F   0  0  0  0  0  0  0  0  0  0  0  0
    7.4350    6.0190  -13.2760 C   0  0  0  0  0  0  0  0  0  0  0  0
   12.7160    8.3010   -0.8880 C   0  0  0  0  0  0  0  0  0  0  0  0
  1  6  1  0
  2  9  2  0
  3 31  2  0
  4 22  1  0
  5 16  1  0
  6 11  1  0
  7 22  1  0
  8 23  2  0
  9 31  1  0
 11 19  1  0
 12 21  1  0
 13 15  1  0
 13 23  1  0
 14  3  1  0
 15 24  2  0
 15 27  1  1
 16  8  1  0
 17 21  1  0
 17 18  1  0
 17  4  1  1
 18 29  1  1
 18  7  1  0
 19 30  1  0
 19  5  2  0
 21 20  1  1
 22 25  1  0
 23 10  1  0
 25  2  1  0
 25 14  2  0
 27 26  2  0
 27 12  1  0
 28  1  1  0
 30 13  2  0
M  END
>  <GenAI_Model>  (36) 
DiffSBDD

>  <Protein>  (36) 
generic_title2

>  <num_sample>  (36) 
100

$$$$
DiffSBDD_36
     RDKit          3D

 25 27  0  0  0  0  0  0  0  0999 V2000
    7.8440    3.7450  -12.4960 C   0  0  0  0  0  0  0  0  0  0  0  0
   11.1400    7.6150   -5.6360 C   0  0  0  0  0  0  0  0  0  0  0  0
    9.4440    5.3500  -10.1770 N   0  0  0  0  0  0  0  0  0  0  0  0
   11.3320    7.6750   -8.3920 O   0  0  0  0  0  0  0  0  0  0  0  0
   11.8510    9.7460   -4.9590 C   0  0  0  0  0  0  0  0  0  0  0  0
    7.4220    7.5050  -12.0000 O   0  0  0  0  0  0  0  0  0  0  0  0
    8.0350    6.2800  -12.4210 C   0  0  2  0  0  0  0  0  0  0  0  0
   12.0040    8.8000   -3.9230 C   0  0  0  0  0  0  0  0  0  0  0  0
   11.2760    9.0530   -6.0730 C   0  0  0  0  0  0  0  0  0  0  0  0
   10.1090    5.7860   -8.9990 C   0  0  2  0  0  0  0  0  0  0  0  0
   12.5800    7.9160   -1.8010 C   0  0  0  0  0  0  0  0  0  0  0  0
    7.5100    5.8640  -13.7590 C   0  0  0  0  0  0  0  0  0  0  0  0
   11.6570    6.4450   -3.4270 C   0  0  0  0  0  0  0  0  0  0  0  0
   10.5920    6.4900   -6.5390 C   0  0  0  0  0  0  0  0  0  0  0  0
    7.8300    4.0870   -9.2780 O   0  0  0  0  0  0  0  0  0  0  0  0
    9.4220    6.1690   -7.5980 C   0  0  0  0  0  0  0  0  0  0  0  0
    7.9030    4.3900  -13.8260 C   0  0  0  0  0  0  0  0  0  0  0  0
    5.9500    5.0080  -11.3730 C   0  0  0  0  0  0  0  0  0  0  0  0
   10.5680    7.1730   -9.3760 C   0  0  0  0  0  0  0  0  0  0  0  0
    8.2930    4.7790  -10.2680 C   0  0  0  0  0  0  0  0  0  0  0  0
   12.1450    6.6550   -2.1910 C   0  0  0  0  0  0  0  0  0  0  0  0
   10.0260    7.8390  -10.2810 O   0  0  0  0  0  0  0  0  0  0  0  0
   11.5440    7.5120   -4.3700 C   0  0  0  0  0  0  0  0  0  0  0  0
    7.4900    4.9330  -11.5700 C   0  0  1  0  0  0  0  0  0  0  0  0
   12.4790    9.0090   -2.6510 C   0  0  0  0  0  0  0  0  0  0  0  0
  1 24  1  0
  2 23  1  0
  3 10  1  0
  5  8  2  0
  7  6  1  1
  7 24  1  0
  8 25  1  0
  9  2  2  0
  9  5  1  0
 10 16  1  1
 12  7  1  0
 13 21  2  0
 14  2  1  0
 16 14  1  0
 17 12  1  0
 17  1  1  0
 19 10  1  0
 19  4  1  0
 20  3  1  0
 20 15  2  0
 21 11  1  0
 22 19  2  0
 23  8  1  0
 23 13  1  0
 24 18  1  1
 24 20  1  0
 25 11  2  0
M  END
>  <GenAI_Model>  (37) 
DiffSBDD

>  <Protein>  (37) 
generic_title2

>  <num_sample>  (37) 
100

$$$$
DiffSBDD_37
     RDKit          3D

 24 26  0  0  0  0  0  0  0  0999 V2000
   11.6670    8.5550   -9.0360 C   0  0  0  0  0  0  0  0  0  0  0  0
   11.9440   11.0790   -6.3930 O   0  0  0  0  0  0  0  0  0  0  0  0
   11.0350    7.7980   -6.7040 C   0  0  1  0  0  0  0  0  0  0  0  0
   12.3170    8.4950   -3.9160 C   0  0  0  0  0  0  0  0  0  0  0  0
   11.1330    6.9040   -5.3970 C   0  0  0  0  0  0  0  0  0  0  0  0
    8.1040    4.8560  -10.0380 C   0  0  0  0  0  0  0  0  0  0  0  0
   10.8290    7.1650   -9.1200 C   0  0  2  0  0  0  0  0  0  0  0  0
   12.5310    9.2490   -4.9930 O   0  0  0  0  0  0  0  0  0  0  0  0
   13.5080    7.8680   -0.5830 O   0  0  0  0  0  0  0  0  0  0  0  0
   11.2130    6.5850   -3.0250 C   0  0  0  0  0  0  0  0  0  0  0  0
   11.8290    6.8140   -1.8120 C   0  0  0  0  0  0  0  0  0  0  0  0
   15.1050    7.6950    1.2540 C   0  0  0  0  0  0  0  0  0  0  0  0
    8.9560    5.7950   -9.3590 C   0  0  2  0  0  0  0  0  0  0  0  0
   12.9450    8.7280   -2.7030 C   0  0  0  0  0  0  0  0  0  0  0  0
   11.5470    7.3560   -4.0920 C   0  0  0  0  0  0  0  0  0  0  0  0
   11.8370   10.5320   -5.2450 C   0  0  0  0  0  0  0  0  0  0  0  0
    9.4180    8.0100  -10.8410 C   0  0  0  0  0  0  0  0  0  0  0  0
   12.2430    8.4350   -7.5780 C   0  0  0  0  0  0  0  0  0  0  0  0
    9.2000    5.6980   -7.5680 S   0  0  0  0  0  0  0  0  0  0  0  0
   14.2290    7.7900    0.3340 C   0  0  0  0  0  0  0  0  0  0  0  0
   11.1180   11.0440   -4.3530 O   0  0  0  0  0  0  0  0  0  0  0  0
    9.6110    6.9660   -9.8710 N   0  0  0  0  0  0  0  0  0  0  0  0
   10.2420    6.9100   -7.7010 C   0  0  1  0  0  0  0  0  0  0  0  0
   12.7260    7.8290   -1.7080 C   0  0  0  0  0  0  0  0  0  0  0  0
  1 18  1  0
  2 16  2  0
  3  5  1  1
  4 14  1  0
  5 15  1  0
  7  1  1  1
  7 23  1  0
  8  4  1  0
  9 20  1  0
 10 11  2  0
 11 24  1  0
 13  6  1  1
 13 19  1  0
 14 24  2  0
 15  4  2  0
 15 10  1  0
 16  8  1  0
 16 21  1  0
 17 22  1  0
 18  3  1  0
 20 12  3  0
 22 13  1  0
 22  7  1  0
 23 19  1  1
 23  3  1  0
 24  9  1  0
M  END
>  <GenAI_Model>  (38) 
DiffSBDD

>  <Protein>  (38) 
generic_title2

>  <num_sample>  (38) 
100

$$$$
DiffSBDD_38
     RDKit          3D

 42 46  0  0  0  0  0  0  0  0999 V2000
   11.1400    8.6810   -7.7840 C   0  0  2  0  0  0  0  0  0  0  0  0
    9.4930    5.7730  -11.8440 C   0  0  0  0  0  0  0  0  0  0  0  0
   12.1100   10.0500   -3.8980 C   0  0  0  0  0  0  0  0  0  0  0  0
    9.0260    6.0830   -9.0560 C   0  0  0  0  0  0  0  0  0  0  0  0
    5.9770    4.6720  -11.8410 C   0  0  1  0  0  0  0  0  0  0  0  0
   11.4730    9.6160   -5.2620 C   0  0  2  0  0  0  0  0  0  0  0  0
   11.6520    7.1040   -1.9490 C   0  0  0  0  0  0  0  0  0  0  0  0
    6.1760    7.0930  -12.5200 F   0  0  0  0  0  0  0  0  0  0  0  0
    8.0760    5.4190   -9.8760 C   0  0  0  0  0  0  0  0  0  0  0  0
   10.8340    6.5620  -12.1970 C   0  0  2  0  0  0  0  0  0  0  0  0
   10.1920    6.5710   -9.4290 C   0  0  0  0  0  0  0  0  0  0  0  0
   12.1610    6.3930   -0.7250 O   0  0  0  0  0  0  0  0  0  0  0  0
   10.5250    8.4630   -5.6140 C   0  0  0  0  0  0  0  0  0  0  0  0
   11.6850    7.2740  -11.2520 C   0  0  0  0  0  0  0  0  0  0  0  0
    9.7840    6.3180   -6.5360 C   0  0  0  0  0  0  0  0  0  0  0  0
    8.7760    4.3760   -7.4610 O   0  0  0  0  0  0  0  0  0  0  0  0
    5.3430    5.6870  -10.9200 C   0  0  0  0  0  0  0  0  0  0  0  0
    9.7960    9.1370   -9.8310 C   0  0  0  0  0  0  0  0  0  0  0  0
   10.7430    7.5040   -6.8180 C   0  0  1  0  0  0  0  0  0  0  0  0
   12.8430    7.2030    0.1600 C   0  0  0  0  0  0  0  0  0  0  0  0
    8.6780    5.7950   -7.5590 C   0  0  2  0  0  0  0  0  0  0  0  0
    9.1800    2.9430  -11.7220 O   0  0  0  0  0  0  0  0  0  0  0  0
   10.6380    8.0060   -9.1640 C   0  0  1  0  0  0  0  0  0  0  0  0
   11.4770    9.3620   -2.8650 O   0  0  0  0  0  0  0  0  0  0  0  0
   11.0970    6.5400  -13.6730 C   0  0  0  0  0  0  0  0  0  0  0  0
   13.6840    8.1010   -0.2360 C   0  0  0  0  0  0  0  0  0  0  0  0
   12.0420    6.8070   -6.6880 O   0  0  0  0  0  0  0  0  0  0  0  0
   11.8710    6.3840   -3.0070 F   0  0  0  0  0  0  0  0  0  0  0  0
    5.5080    5.9450  -12.4330 C   0  0  0  0  0  0  0  0  0  0  0  0
   10.2980    7.1370   -1.7750 F   0  0  0  0  0  0  0  0  0  0  0  0
    7.3270    4.6170  -11.8920 N   0  0  0  0  0  0  0  0  0  0  0  0
   11.6980    7.9460  -10.0970 C   0  0  2  0  0  0  0  0  0  0  0  0
   12.6910    9.6330   -6.1470 C   0  0  0  0  0  0  0  0  0  0  0  0
    5.4760    5.7440  -13.8980 F   0  0  0  0  0  0  0  0  0  0  0  0
   13.3580    8.7360   -1.4330 C   0  0  0  0  0  0  0  0  0  0  0  0
    8.2110    5.3090  -11.2390 N   0  0  0  0  0  0  0  0  0  0  0  0
   12.8290    8.8860   -9.8970 O   0  0  0  0  0  0  0  0  0  0  0  0
    7.3500    3.6320  -12.9230 C   0  0  2  0  0  0  0  0  0  0  0  0
   12.2120    8.4470   -1.9970 C   0  0  2  0  0  0  0  0  0  0  0  0
    6.1650    2.8920  -13.3380 C   0  0  0  0  0  0  0  0  0  0  0  0
   12.4510    9.1400   -7.3640 C   0  0  0  0  0  0  0  0  0  0  0  0
    8.5360    3.0960  -12.8880 O   0  0  0  0  0  0  0  0  0  0  0  0
  1 41  1  6
  1 19  1  0
  2 36  1  0
  3 24  1  0
  4 21  1  0
  5 31  1  1
  5 17  1  0
  6  3  1  1
  7 30  1  0
  7 12  1  0
  8 29  1  0
  9  4  2  0
 10 25  1  6
 10  2  1  0
 10 14  1  0
 11 23  1  0
 11  4  1  0
 12 20  1  0
 13  6  1  0
 14 32  1  0
 19 27  1  1
 19 15  1  0
 19 13  1  0
 21 16  1  6
 21 15  1  0
 23 18  1  6
 23  1  1  0
 26 20  1  0
 28  7  1  0
 29  5  1  0
 29 17  1  0
 31 36  1  0
 32 37  1  6
 32 23  1  0
 33  6  1  0
 34 29  1  0
 35 26  2  0
 36  9  1  0
 38 40  1  1
 38 42  1  0
 38 31  1  0
 39 24  1  6
 39  7  1  0
 39 35  1  0
 41 33  1  0
 42 22  1  0
M  END
>  <GenAI_Model>  (39) 
DiffSBDD

>  <Protein>  (39) 
generic_title2

>  <num_sample>  (39) 
100

$$$$
DiffSBDD_39
     RDKit          3D

 20 21  0  0  0  0  0  0  0  0999 V2000
   10.9120    7.3300   -5.4110 C   0  0  0  0  0  0  0  0  0  0  0  0
   11.9340    9.1110   -2.6900 C   0  0  0  0  0  0  0  0  0  0  0  0
    5.9390    7.4390  -13.8450 O   0  0  0  0  0  0  0  0  0  0  0  0
    6.3670    6.3170  -14.3550 C   0  0  0  0  0  0  0  0  0  0  0  0
    6.7990    4.8270  -13.8560 C   0  0  0  0  0  0  0  0  0  0  0  0
    8.7910    5.3430   -8.4610 C   0  0  0  0  0  0  0  0  0  0  0  0
   11.5100    9.5080   -4.0150 C   0  0  0  0  0  0  0  0  0  0  0  0
   12.4360    7.7570   -2.3930 C   0  0  0  0  0  0  0  0  0  0  0  0
   10.6660    5.8200   -7.5440 C   0  0  0  0  0  0  0  0  0  0  0  0
   11.4430    6.3880   -4.4540 C   0  0  0  0  0  0  0  0  0  0  0  0
   12.3630    6.5910   -3.2550 C   0  0  0  0  0  0  0  0  0  0  0  0
    6.8340    4.2350  -11.5690 C   0  0  0  0  0  0  0  0  0  0  0  0
   11.0270    8.7990   -5.2550 C   0  0  0  0  0  0  0  0  0  0  0  0
    5.9420    5.5650  -13.1780 C   0  0  1  0  0  0  0  0  0  0  0  0
    9.9620    6.6720   -6.4450 C   0  0  0  0  0  0  0  0  0  0  0  0
    9.8740    6.2930   -8.9310 C   0  0  0  0  0  0  0  0  0  0  0  0
    7.6900    5.3590   -9.4720 N   0  0  0  0  0  0  0  0  0  0  0  0
    6.5360    6.4800  -15.4690 O   0  0  0  0  0  0  0  0  0  0  0  0
    6.1550    5.5450  -11.7010 C   0  0  0  0  0  0  0  0  0  0  0  0
    7.4590    4.1280  -10.2500 C   0  0  0  0  0  0  0  0  0  0  0  0
  1 13  2  0
  1 10  1  0
  2  8  1  0
  4  5  1  0
  4  3  1  0
  4 14  1  0
  5 14  1  0
  7  2  2  0
  9 15  1  0
 10 11  1  0
 11  8  2  0
 12 20  1  0
 13  7  1  0
 14 19  1  1
 15  1  1  0
 16  6  1  0
 16  9  1  0
 17  6  1  0
 18  4  1  0
 19 12  1  0
 20 17  1  0
M  END
>  <GenAI_Model>  (40) 
DiffSBDD

>  <Protein>  (40) 
generic_title2

>  <num_sample>  (40) 
100

$$$$
DiffSBDD_40
     RDKit          3D

 43 49  0  0  0  0  0  0  0  0999 V2000
   12.4700    8.3880   -1.0090 N   0  0  0  0  0  0  0  0  0  0  0  0
   12.8680    6.2070   -1.6010 C   0  0  0  0  0  0  0  0  0  0  0  0
    9.7460    6.5440  -11.2350 C   0  0  0  0  0  0  0  0  0  0  0  0
    6.1170    4.6630  -15.7380 C   0  0  0  0  0  0  0  0  0  0  0  0
   10.5790    6.8860  -10.1080 C   0  0  0  0  0  0  0  0  0  0  0  0
   11.9220    7.2690   -1.7680 C   0  0  2  0  0  0  0  0  0  0  0  0
   12.3890    7.7010  -11.5080 C   0  0  0  0  0  0  0  0  0  0  0  0
    6.9570    5.6760  -13.5080 C   0  0  1  0  0  0  0  0  0  0  0  0
   11.5950    8.7440   -4.1550 O   0  0  0  0  0  0  0  0  0  0  0  0
    8.1530    6.2860  -11.3680 C   0  0  1  0  0  0  0  0  0  0  0  0
   10.1550    6.6090   -8.6780 C   0  0  1  0  0  0  0  0  0  0  0  0
   12.2470   10.3210   -5.5250 N   0  0  0  0  0  0  0  0  0  0  0  0
   10.9400    6.6990   -2.7990 C   0  0  1  0  0  0  0  0  0  0  0  0
    8.6680    4.7860   -9.4930 C   0  0  0  0  0  0  0  0  0  0  0  0
    6.2910    3.5130  -16.9840 N   0  0  0  0  0  0  0  0  0  0  0  0
   11.2760    9.7630   -4.8520 C   0  0  0  0  0  0  0  0  0  0  0  0
    7.0250    7.8300  -12.8180 O   0  0  0  0  0  0  0  0  0  0  0  0
   13.7800    6.6200   -0.5820 C   0  0  0  0  0  0  0  0  0  0  0  0
    6.2290    6.5230  -14.5110 C   0  0  0  0  0  0  0  0  0  0  0  0
   10.9860    6.5510   -5.4180 C   0  0  0  0  0  0  0  0  0  0  0  0
   14.3970    8.7110    0.5460 C   0  0  0  0  0  0  0  0  0  0  0  0
   13.5020    7.9760   -0.3510 C   0  0  0  0  0  0  0  0  0  0  0  0
    7.4110    6.4890  -12.6250 N   0  0  0  0  0  0  0  0  0  0  0  0
    5.7430    5.7860  -15.8800 C   0  0  0  0  0  0  0  0  0  0  0  0
   10.0960   10.1630   -4.9550 O   0  0  0  0  0  0  0  0  0  0  0  0
   10.4030    6.6890  -12.4870 C   0  0  0  0  0  0  0  0  0  0  0  0
    6.7570    2.8980  -15.6800 N   0  0  0  0  0  0  0  0  0  0  0  0
    6.7630    4.2050  -13.6360 C   0  0  0  0  0  0  0  0  0  0  0  0
   11.8460    7.5120  -10.2280 C   0  0  0  0  0  0  0  0  0  0  0  0
    7.7670    5.0150  -10.6480 C   0  0  1  0  0  0  0  0  0  0  0  0
   11.7130    7.3250  -12.6260 C   0  0  0  0  0  0  0  0  0  0  0  0
   14.7600    5.9470    0.1350 C   0  0  0  0  0  0  0  0  0  0  0  0
   10.5060    6.7040   -1.3590 C   0  0  0  0  0  0  0  0  0  0  0  0
   15.5850    6.6630    1.0210 C   0  0  0  0  0  0  0  0  0  0  0  0
    6.4910    2.2750  -16.4230 C   0  0  0  0  0  0  0  0  0  0  0  0
    6.3030    4.9420  -10.3660 C   0  0  0  0  0  0  0  0  0  0  0  0
    8.8090    5.8800   -8.3190 C   0  0  0  0  0  0  0  0  0  0  0  0
   11.1820    7.3740   -4.0230 C   0  0  0  0  0  0  0  0  0  0  0  0
   15.4540    8.0060    1.2070 C   0  0  0  0  0  0  0  0  0  0  0  0
   10.9980    6.8570   -7.7430 O   0  0  0  0  0  0  0  0  0  0  0  0
    6.3700    8.0200  -14.0380 C   0  0  0  0  0  0  0  0  0  0  0  0
   11.2340    7.4660   -6.5690 C   0  0  0  0  0  0  0  0  0  0  0  0
    6.2810    3.8710  -14.8210 C   0  0  1  0  0  0  0  0  0  0  0  0
  1 22  1  0
  2 18  1  0
  3  5  1  0
  4 43  1  0
  5 11  1  0
  6  2  1  1
  6 33  1  0
  6  1  1  0
  7 29  1  0
  8 28  1  1
  8 23  1  0
  9 38  1  0
 10  3  1  0
 10 30  1  0
 11 37  1  0
 11 40  1  6
 12 16  1  0
 13 38  1  6
 13  6  1  0
 13 33  1  0
 14 37  1  0
 15 35  1  0
 16  9  1  0
 18 22  1  0
 18 32  2  0
 19 41  2  0
 19  8  1  0
 21 39  1  0
 22 21  2  0
 23 17  1  0
 10 23  1  6
 24  4  1  0
 24 19  1  0
 25 16  2  0
 26  3  2  0
 29  5  2  0
 30 36  1  1
 30 14  1  0
 31 26  1  0
 31  7  2  0
 32 34  1  0
 34 39  2  0
 35 27  1  0
 38 20  1  0
 40 42  1  0
 41 17  1  0
 42 20  1  0
 43 27  1  6
 43 28  1  0
M  END
>  <GenAI_Model>  (41) 
DiffSBDD

>  <Protein>  (41) 
generic_title2

>  <num_sample>  (41) 
100

$$$$
DiffSBDD_41
     RDKit          3D

 35 40  0  0  0  0  0  0  0  0999 V2000
   11.6530    8.9790   -5.7810 C   0  0  0  0  0  0  0  0  0  0  0  0
    9.0250    4.3630  -11.2720 C   0  0  1  0  0  0  0  0  0  0  0  0
    9.4530    6.1360   -7.9410 C   0  0  2  0  0  0  0  0  0  0  0  0
    9.8840    5.9590  -11.5480 S   0  0  2  0  0  0  0  0  0  0  0  0
   10.2830    6.9350   -7.1810 C   0  0  0  0  0  0  0  0  0  0  0  0
    5.5590    4.8620  -13.2650 C   0  0  0  0  0  0  0  0  0  0  0  0
   11.9680    6.4790   -3.1190 C   0  0  0  0  0  0  0  0  0  0  0  0
    6.8820    5.1930  -15.4160 C   0  0  1  0  0  0  0  0  0  0  0  0
    9.2940    6.1070  -13.2980 C   0  0  0  0  0  0  0  0  0  0  0  0
    9.3010    6.9200   -9.2430 C   0  0  1  0  0  0  0  0  0  0  0  0
   12.4740    5.2950   -1.1540 F   0  0  0  0  0  0  0  0  0  0  0  0
   11.8610    7.7260   -3.7550 C   0  0  0  0  0  0  0  0  0  0  0  0
   11.1190    7.0410  -11.7860 O   0  0  0  0  0  0  0  0  0  0  0  0
    8.2200    5.6790   -7.4460 O   0  0  0  0  0  0  0  0  0  0  0  0
    5.6910    3.3440  -13.3780 C   0  0  0  0  0  0  0  0  0  0  0  0
   10.7830    6.5750   -5.7620 C   0  0  0  0  0  0  0  0  0  0  0  0
    8.2930    5.0960  -13.4230 N   0  0  0  0  0  0  0  0  0  0  0  0
   12.3880    6.3990   -1.6950 C   0  0  0  0  0  0  0  0  0  0  0  0
   10.6490    8.1130   -7.7710 N   0  0  0  0  0  0  0  0  0  0  0  0
   11.9440   10.1790   -3.6230 C   0  0  0  0  0  0  0  0  0  0  0  0
    9.9390    8.3140   -9.0260 C   0  0  0  0  0  0  0  0  0  0  0  0
   11.8140   10.1340   -5.0250 C   0  0  0  0  0  0  0  0  0  0  0  0
   11.7720    8.9770   -7.2950 C   0  0  0  0  0  0  0  0  0  0  0  0
   11.4100    7.7710   -5.1170 C   0  0  0  0  0  0  0  0  0  0  0  0
   12.1380    8.9090   -2.9850 C   0  0  0  0  0  0  0  0  0  0  0  0
    6.4680    6.6130  -15.2770 C   0  0  0  0  0  0  0  0  0  0  0  0
   12.5680    8.8580   -1.7000 C   0  0  0  0  0  0  0  0  0  0  0  0
   13.0750    8.3170   -7.6540 C   0  0  0  0  0  0  0  0  0  0  0  0
    8.4800    4.3970  -10.0730 F   0  0  0  0  0  0  0  0  0  0  0  0
    8.9090    6.7650  -10.5020 N   0  0  0  0  0  0  0  0  0  0  0  0
    8.2660    3.9840  -12.3760 C   0  0  0  0  0  0  0  0  0  0  0  0
    8.1230    4.8310  -14.6900 C   0  0  0  0  0  0  0  0  0  0  0  0
   12.7350    7.6070   -1.0810 C   0  0  0  0  0  0  0  0  0  0  0  0
   11.6550   10.3400   -7.9370 C   0  0  0  0  0  0  0  0  0  0  0  0
    5.6630    5.5020  -14.6530 C   0  0  2  0  0  0  0  0  0  0  0  0
  1 24  1  0
  1 22  2  0
  2 29  1  1
  3 14  1  1
  3  5  1  0
  4 13  1  0
  4  2  1  0
  4 30  1  0
  5 16  1  0
  7 18  2  0
  8 26  1  0
  8 32  1  1
  8 35  1  0
  9  4  1  0
 10 30  1  6
 10 21  1  0
 10  3  1  0
 12  7  1  0
 12 25  1  0
 15  6  1  0
 16 24  1  0
 17  9  1  0
 17 31  1  0
 18 11  1  0
 18 33  1  0
 19 21  1  0
 19 23  1  0
 19  5  1  0
 20 25  2  0
 22 20  1  0
 23  1  1  0
 24 12  2  0
 25 27  1  0
 26 35  1  0
 27 33  2  0
 28 23  1  0
 31  2  1  0
 32 17  1  0
 34 23  1  0
 35  6  1  1
M  END
>  <GenAI_Model>  (42) 
DiffSBDD

>  <Protein>  (42) 
generic_title2

>  <num_sample>  (42) 
100

$$$$
DiffSBDD_42
     RDKit          3D

 33 38  0  0  0  0  0  0  0  0999 V2000
    6.7330    5.4690  -11.6430 C   0  0  0  0  0  0  0  0  0  0  0  0
    9.4740    6.0470   -9.8020 C   0  0  2  0  0  0  0  0  0  0  0  0
    6.8810    5.0890  -14.2530 C   0  0  2  0  0  0  0  0  0  0  0  0
    8.4160    5.4670  -14.3100 C   0  0  0  0  0  0  0  0  0  0  0  0
    7.9340    6.3780  -11.9850 C   0  0  1  0  0  0  0  0  0  0  0  0
   11.7460    7.9690   -4.3540 N   0  0  0  0  0  0  0  0  0  0  0  0
   10.0820    8.3690   -8.5670 C   0  0  2  0  0  0  0  0  0  0  0  0
    6.2280    6.2810  -13.6670 C   0  0  0  0  0  0  0  0  0  0  0  0
    8.5610    4.0910  -11.0630 C   0  0  0  0  0  0  0  0  0  0  0  0
   10.5050    7.1920   -7.8840 C   0  0  2  0  0  0  0  0  0  0  0  0
   13.2970    9.6490   -6.6530 F   0  0  0  0  0  0  0  0  0  0  0  0
    9.6790    5.8360   -8.5340 C   0  0  1  0  0  0  0  0  0  0  0  0
    9.6150    7.8500  -10.1080 S   0  0  0  0  0  0  0  0  0  0  0  0
   10.2790    6.2350  -12.7750 O   0  0  0  0  0  0  0  0  0  0  0  0
    7.1840    7.2460  -12.9030 C   0  0  0  0  0  0  0  0  0  0  0  0
   12.2550    9.7510   -5.8540 C   0  0  0  0  0  0  0  0  0  0  0  0
   10.6790    7.2690   -6.5270 C   0  0  0  0  0  0  0  0  0  0  0  0
   13.2820    8.5120   -1.6420 C   0  0  0  0  0  0  0  0  0  0  0  0
   11.3250    8.3420   -6.2730 C   0  0  0  0  0  0  0  0  0  0  0  0
    6.8050    3.8160  -13.3880 C   0  0  0  0  0  0  0  0  0  0  0  0
    8.6390    5.5230  -10.8760 C   0  0  1  0  0  0  0  0  0  0  0  0
   11.9340    8.6640   -5.2060 C   0  0  0  0  0  0  0  0  0  0  0  0
    8.5030    5.6510   -7.6320 C   0  0  0  0  0  0  0  0  0  0  0  0
   13.0140    7.3690   -0.8940 C   0  0  0  0  0  0  0  0  0  0  0  0
    7.2190    4.0530  -11.8980 C   0  0  2  0  0  0  0  0  0  0  0  0
   12.2190    6.3300   -1.3720 C   0  0  0  0  0  0  0  0  0  0  0  0
   10.5340    6.3630   -5.7510 O   0  0  0  0  0  0  0  0  0  0  0  0
   11.9700    7.6280   -3.2730 C   0  0  0  0  0  0  0  0  0  0  0  0
    8.9670    5.7680  -12.9220 C   0  0  2  0  0  0  0  0  0  0  0  0
   12.6530    8.7630   -2.8620 C   0  0  0  0  0  0  0  0  0  0  0  0
   11.8360   10.7760   -5.6210 F   0  0  0  0  0  0  0  0  0  0  0  0
   11.3080    9.3110   -8.5160 C   0  0  0  0  0  0  0  0  0  0  0  0
   11.6460    6.5150   -2.4940 C   0  0  0  0  0  0  0  0  0  0  0  0
  2 13  1  1
  2 12  1  0
  3  4  1  1
  3  8  1  0
  3 20  1  0
  4 29  1  0
  5 15  1  1
  5  1  1  0
  5 21  1  0
  6 28  1  0
  7 32  1  6
  7 10  1  0
  8 15  1  0
 10 17  1  1
 11 16  1  0
 12 10  1  0
 12 23  1  1
 13  7  1  0
 16 31  1  0
 16 22  1  0
 17 19  1  0
 17 27  2  0
 18 24  2  0
 19 16  1  0
 19 22  2  0
 21  9  1  6
 21  2  1  0
 22  6  1  0
 25 20  1  0
 25  1  1  0
 25  9  1  6
 26 24  1  0
 28 30  2  0
 28 33  1  0
 29 14  1  6
 29  5  1  0
 30 18  1  0
 33 26  2  0
M  END
>  <GenAI_Model>  (43) 
DiffSBDD

>  <Protein>  (43) 
generic_title2

>  <num_sample>  (43) 
100

$$$$
DiffSBDD_43
     RDKit          3D

 35 42  0  0  0  0  0  0  0  0999 V2000
    8.8630    7.4650  -10.6620 C   0  0  1  0  0  0  0  0  0  0  0  0
    8.7270    8.7380  -11.3940 C   0  0  2  0  0  0  0  0  0  0  0  0
    8.2440    7.2050  -13.0410 C   0  0  1  0  0  0  0  0  0  0  0  0
    5.9200    3.3500  -12.9820 C   0  0  0  0  0  0  0  0  0  0  0  0
   10.2970    8.6430   -7.5310 C   0  0  0  0  0  0  0  0  0  0  0  0
   10.4370    7.5210   -6.5490 C   0  0  0  0  0  0  0  0  0  0  0  0
    9.0640    6.5790  -11.9560 C   0  0  0  0  0  0  0  0  0  0  0  0
   13.3770    5.2960   -2.1290 S   0  0  0  0  0  0  0  0  0  0  0  0
   12.0380    7.4210   -3.3840 C   0  0  1  0  0  0  0  0  0  0  0  0
   13.0930    7.1280   -2.3140 C   0  0  2  0  0  0  0  0  0  0  0  0
    7.8700    4.5040  -14.6310 C   0  0  0  0  0  0  0  0  0  0  0  0
   12.4360   10.0440   -3.3350 C   0  0  0  0  0  0  0  0  0  0  0  0
    7.0290    6.6790  -13.3900 C   0  0  0  0  0  0  0  0  0  0  0  0
   12.0560    8.6370   -4.1200 C   0  0  0  0  0  0  0  0  0  0  0  0
   13.8370    6.6740   -0.0960 C   0  0  0  0  0  0  0  0  0  0  0  0
    6.4560    4.9240  -14.8250 C   0  0  1  0  0  0  0  0  0  0  0  0
   11.0430    7.6350   -5.3960 N   0  0  0  0  0  0  0  0  0  0  0  0
    6.8480    3.5030  -14.1810 C   0  0  2  0  0  0  0  0  0  0  0  0
   13.1140    8.2860   -1.3100 O   0  0  0  0  0  0  0  0  0  0  0  0
    9.7380    6.2750   -6.9420 C   0  0  0  0  0  0  0  0  0  0  0  0
    5.4710    4.7760  -12.8590 C   0  0  0  0  0  0  0  0  0  0  0  0
    8.8830    4.9120   -8.7090 C   0  0  0  0  0  0  0  0  0  0  0  0
   12.2100    9.7860   -1.8680 C   0  0  0  0  0  0  0  0  0  0  0  0
   11.3860    6.4180   -4.7080 C   0  0  0  0  0  0  0  0  0  0  0  0
    9.8430    7.1630   -9.5190 C   0  0  1  0  0  0  0  0  0  0  0  0
   10.5570    8.4520   -9.0160 C   0  0  0  0  0  0  0  0  0  0  0  0
   12.7680    6.2310   -0.9210 C   0  0  2  0  0  0  0  0  0  0  0  0
    7.7500    8.6100  -12.4600 C   0  0  2  0  0  0  0  0  0  0  0  0
    8.9050    9.5400  -12.5080 C   0  0  0  0  0  0  0  0  0  0  0  0
    8.1090    4.3160   -7.7270 F   0  0  0  0  0  0  0  0  0  0  0  0
   11.8320    8.8480   -5.2150 O   0  0  0  0  0  0  0  0  0  0  0  0
    8.1320    4.8930   -9.8790 F   0  0  0  0  0  0  0  0  0  0  0  0
   10.0210    4.1830   -8.7390 F   0  0  0  0  0  0  0  0  0  0  0  0
    5.9250    5.8240  -13.9020 C   0  0  1  0  0  0  0  0  0  0  0  0
    9.1640    6.2860   -8.2790 C   0  0  2  0  0  0  0  0  0  0  0  0
  1  7  1  6
  1 25  1  0
  2 29  1  6
  2  1  1  0
  3 13  1  1
  3 28  1  0
  3  7  1  0
  4 21  1  0
  5  6  1  0
  6 17  1  0
  8 27  1  0
  9 24  1  6
  9 10  1  0
 10  8  1  0
 10 19  1  6
 10 27  1  0
 12 23  1  0
 14  9  1  0
 14 12  1  0
 16 11  1  1
 16 18  1  0
 16 34  1  0
 17 31  1  0
 17 24  1  0
 18 11  1  1
 18  4  1  0
 20  6  2  0
 22 30  1  0
 23 19  1  0
 25 26  1  1
 25 35  1  0
 26  5  1  0
 27 15  1  1
 28 29  1  6
 28  2  1  0
 31 14  1  0
 32 22  1  0
 33 22  1  0
 34 13  1  1
 34 21  1  0
 35 22  1  6
 35 20  1  0
M  END
>  <GenAI_Model>  (44) 
DiffSBDD

>  <Protein>  (44) 
generic_title2

>  <num_sample>  (44) 
100

$$$$
DiffSBDD_44
     RDKit          3D

 24 26  0  0  0  0  0  0  0  0999 V2000
    8.4320    6.9910  -12.8370 C   0  0  2  0  0  0  0  0  0  0  0  0
   11.2020    7.2100   -6.3700 C   0  0  0  0  0  0  0  0  0  0  0  0
   11.6650    7.2940   -3.9500 C   0  0  0  0  0  0  0  0  0  0  0  0
    7.2710    6.3820  -13.3950 C   0  0  1  0  0  0  0  0  0  0  0  0
   11.1540    8.1580   -8.5820 O   0  0  0  0  0  0  0  0  0  0  0  0
   12.6280    8.6130   -1.6520 C   0  0  0  0  0  0  0  0  0  0  0  0
   11.8300    6.6270   -2.7190 C   0  0  0  0  0  0  0  0  0  0  0  0
    8.8890    5.8430  -10.6620 C   0  0  0  0  0  0  0  0  0  0  0  0
   11.8570    9.3640   -5.0540 O   0  0  0  0  0  0  0  0  0  0  0  0
    6.0100    4.2990  -10.8670 O   0  0  0  0  0  0  0  0  0  0  0  0
   11.1170    6.7000   -5.1650 C   0  0  0  0  0  0  0  0  0  0  0  0
   11.9510    8.6480   -3.9260 C   0  0  0  0  0  0  0  0  0  0  0  0
    5.5370    5.3050  -13.7070 O   0  0  0  0  0  0  0  0  0  0  0  0
    5.7710    5.5160  -11.5270 C   0  0  0  0  0  0  0  0  0  0  0  0
   10.0390    6.2130   -8.4030 C   0  0  0  0  0  0  0  0  0  0  0  0
    9.0590    3.5200  -12.1440 N   0  0  0  0  0  0  0  0  0  0  0  0
    9.6870    6.5440   -9.7450 C   0  0  0  0  0  0  0  0  0  0  0  0
    7.4380    7.4010  -14.1730 O   0  0  0  0  0  0  0  0  0  0  0  0
    8.5990    5.6920  -12.1950 C   0  0  2  0  0  0  0  0  0  0  0  0
    6.3230    5.6150  -12.8270 C   0  0  0  0  0  0  0  0  0  0  0  0
   12.3220    7.2860   -1.5950 C   0  0  0  0  0  0  0  0  0  0  0  0
   10.7870    7.2570   -7.8100 C   0  0  0  0  0  0  0  0  0  0  0  0
    8.6070    4.7710  -12.3880 C   0  0  0  0  0  0  0  0  0  0  0  0
   12.4270    9.3220   -2.8500 C   0  0  0  0  0  0  0  0  0  0  0  0
  1 18  1  6
  1 19  1  0
  2 11  2  3
  3 12  1  0
  3  7  2  0
  4  1  1  0
  4 20  1  1
  4 19  1  0
  5 22  2  0
  6 21  2  0
  7 21  1  0
  8 17  1  0
  9 12  1  0
 11  3  1  0
 12 24  2  0
 13 20  2  0
 14 10  1  0
 15 22  1  0
 17 15  1  0
 18  4  1  0
 19 23  1  6
 19  8  1  0
 20 14  1  0
 22  2  1  0
 23 16  1  0
 24  6  1  0
M  END
>  <GenAI_Model>  (45) 
DiffSBDD

>  <Protein>  (45) 
generic_title2

>  <num_sample>  (45) 
100

$$$$
DiffSBDD_45
     RDKit          3D

 31 34  0  0  0  0  0  0  0  0999 V2000
   11.8120    8.7630   -3.8000 C   0  0  2  0  0  0  0  0  0  0  0  0
   14.2890    6.7890   -0.8180 C   0  0  0  0  0  0  0  0  0  0  0  0
    8.7580    5.7770  -12.2380 C   0  0  2  0  0  0  0  0  0  0  0  0
   11.5790    7.4290   -4.1940 C   0  0  0  0  0  0  0  0  0  0  0  0
   12.2730    9.3840   -2.4400 C   0  0  2  0  0  0  0  0  0  0  0  0
    6.3260    5.0690  -14.1810 C   0  0  0  0  0  0  0  0  0  0  0  0
   11.1100    6.0280   -6.2890 C   0  0  0  0  0  0  0  0  0  0  0  0
   11.4550    9.5290   -4.5730 O   0  0  0  0  0  0  0  0  0  0  0  0
   12.8460    8.4760   -1.4540 C   0  0  0  0  0  0  0  0  0  0  0  0
    7.8310    4.9530  -12.4200 N   0  0  0  0  0  0  0  0  0  0  0  0
    5.8390    3.9120  -12.2850 C   0  0  0  0  0  0  0  0  0  0  0  0
   10.2000    8.0160   -9.1480 C   0  0  0  0  0  0  0  0  0  0  0  0
   10.8570    7.6160   -7.9800 C   0  0  0  0  0  0  0  0  0  0  0  0
    9.4760    5.4040   -8.5380 C   0  0  0  0  0  0  0  0  0  0  0  0
    6.7540    2.7980  -12.7130 C   0  0  0  0  0  0  0  0  0  0  0  0
   10.4400    6.2280   -7.5900 N   0  0  0  0  0  0  0  0  0  0  0  0
   10.5880    7.3600  -12.1840 O   0  0  0  0  0  0  0  0  0  0  0  0
    6.3260    5.2100  -12.7770 C   0  0  2  0  0  0  0  0  0  0  0  0
    9.2080    7.3020  -10.1240 N   0  0  0  0  0  0  0  0  0  0  0  0
   12.1330   10.6790   -2.0120 O   0  0  0  0  0  0  0  0  0  0  0  0
    8.1050    3.5690  -12.8300 C   0  0  0  0  0  0  0  0  0  0  0  0
   11.2020    6.6820   -1.2930 C   0  0  0  0  0  0  0  0  0  0  0  0
   12.6290    6.9320   -1.4970 C   0  0  0  0  0  0  0  0  0  0  0  0
   11.3930    8.0850   -6.6950 C   0  0  0  0  0  0  0  0  0  0  0  0
   11.3610   10.9770   -4.9910 C   0  0  0  0  0  0  0  0  0  0  0  0
    9.2390    5.1390  -10.9310 C   0  0  0  0  0  0  0  0  0  0  0  0
   11.2570    7.0970   -5.6580 C   0  0  0  0  0  0  0  0  0  0  0  0
    8.4630    8.4820  -12.1930 O   0  0  0  0  0  0  0  0  0  0  0  0
    9.2590    7.5030  -11.7140 S   0  0  0  0  0  0  0  0  0  0  0  0
    8.9610    5.8800   -9.6840 C   0  0  0  0  0  0  0  0  0  0  0  0
   11.5550    6.4930   -3.2850 C   0  0  0  0  0  0  0  0  0  0  0  0
  1  8  1  1
  1  5  1  0
  3 29  1  0
  3 26  1  0
  4  1  1  0
  4 31  1  0
  5 20  1  1
  5  9  1  0
  7 27  1  0
 10 21  1  0
  3 10  1  1
 12 13  2  0
 13 16  1  0
 13 24  1  0
 14 16  1  0
 15 11  1  0
 16  7  1  0
 17 29  2  0
 18  6  1  6
 18 10  1  0
 18 11  1  0
 19 30  1  0
 19 12  1  0
 21 15  1  0
 23  9  1  0
 23 22  1  0
 23  2  1  0
 24 27  1  0
 25  8  1  0
 26 30  1  0
 27  4  2  3
 28 29  2  0
 29 19  1  0
 30 14  2  0
M  END
>  <GenAI_Model>  (46) 
DiffSBDD

>  <Protein>  (46) 
generic_title2

>  <num_sample>  (46) 
100

$$$$
DiffSBDD_46
     RDKit          3D

 24 26  0  0  0  0  0  0  0  0999 V2000
   12.2940    8.7830  -10.0990 O   0  0  0  0  0  0  0  0  0  0  0  0
   12.0780    9.4420   -3.0210 C   0  0  0  0  0  0  0  0  0  0  0  0
   11.4100    8.0570   -9.9020 C   0  0  0  0  0  0  0  0  0  0  0  0
   13.7990    7.7670   -1.6280 F   0  0  0  0  0  0  0  0  0  0  0  0
    9.2390    7.0170   -7.0460 C   0  0  0  0  0  0  0  0  0  0  0  0
   11.2640    8.6500   -7.5210 O   0  0  0  0  0  0  0  0  0  0  0  0
    8.0720    4.8090   -8.2340 O   0  0  0  0  0  0  0  0  0  0  0  0
    9.2450    5.1960  -10.3390 C   0  0  0  0  0  0  0  0  0  0  0  0
   10.6260    7.1770  -10.9420 C   0  0  0  0  0  0  0  0  0  0  0  0
    9.2060    5.7680   -9.2400 C   0  0  2  0  0  0  0  0  0  0  0  0
   11.7830    8.0910   -3.0490 C   0  0  0  0  0  0  0  0  0  0  0  0
   12.4870    7.2930   -1.4650 C   0  0  0  0  0  0  0  0  0  0  0  0
   11.6260    9.4970   -5.2930 C   0  0  0  0  0  0  0  0  0  0  0  0
   10.7090    6.7140   -6.1970 S   0  0  0  0  0  0  0  0  0  0  0  0
   12.4540    8.2130   -0.5320 F   0  0  0  0  0  0  0  0  0  0  0  0
   12.6640    8.4850   -7.6400 C   0  0  0  0  0  0  0  0  0  0  0  0
   11.3380    8.1230   -5.2390 C   0  0  0  0  0  0  0  0  0  0  0  0
   10.8530    7.8560   -8.6930 C   0  0  1  0  0  0  0  0  0  0  0  0
   11.2740    7.0830   -1.9460 O   0  0  0  0  0  0  0  0  0  0  0  0
   12.0110   10.1480   -4.1830 C   0  0  0  0  0  0  0  0  0  0  0  0
    9.9000    6.2530  -10.7340 C   0  0  2  0  0  0  0  0  0  0  0  0
   11.6570    7.5260   -4.0500 C   0  0  0  0  0  0  0  0  0  0  0  0
   12.9480    6.0030   -1.0680 F   0  0  0  0  0  0  0  0  0  0  0  0
    9.7060    6.9180   -8.4050 C   0  0  2  0  0  0  0  0  0  0  0  0
  1  3  2  0
  3 18  1  0
  4 12  1  0
  5 14  1  0
  8 10  1  0
 21  9  1  1
  9  3  1  0
 10 24  1  0
 10  7  1  6
 11  2  1  0
 11 19  1  0
 12 23  1  0
 12 15  1  0
 13 17  2  0
 13 20  1  0
 14 17  1  0
 16  6  1  0
 17 22  1  0
 18 24  1  0
 18  6  1  6
 19 12  1  0
 20  2  2  0
 21  8  1  0
 21 10  1  0
 22 11  2  0
 24  5  1  1
M  END
>  <GenAI_Model>  (47) 
DiffSBDD

>  <Protein>  (47) 
generic_title2

>  <num_sample>  (47) 
100

$$$$
DiffSBDD_47
     RDKit          3D

 27 29  0  0  0  0  0  0  0  0999 V2000
    9.7840    6.6930  -10.4990 C   0  0  0  0  0  0  0  0  0  0  0  0
    5.8380    5.4980  -14.2340 C   0  0  0  0  0  0  0  0  0  0  0  0
    9.6460    6.3800  -12.7650 O   0  0  0  0  0  0  0  0  0  0  0  0
   10.8440    8.3110   -6.3400 C   0  0  2  0  0  0  0  0  0  0  0  0
   12.0030    8.4420   -4.0530 C   0  0  2  0  0  0  0  0  0  0  0  0
    8.0640    5.3880  -11.6730 N   0  0  0  0  0  0  0  0  0  0  0  0
   10.1160    7.2060   -8.0940 C   0  0  0  0  0  0  0  0  0  0  0  0
   11.5480    6.1450   -4.4470 O   0  0  0  0  0  0  0  0  0  0  0  0
   10.0250    7.2530   -6.6640 C   0  0  0  0  0  0  0  0  0  0  0  0
   10.9840    7.4600  -10.7720 C   0  0  0  0  0  0  0  0  0  0  0  0
   12.7840    7.9660   -1.6710 C   0  0  0  0  0  0  0  0  0  0  0  0
   11.1230    8.0840   -8.4760 C   0  0  0  0  0  0  0  0  0  0  0  0
    8.8870    4.1990  -14.6920 O   0  0  0  0  0  0  0  0  0  0  0  0
   13.3960    8.2620   -0.6250 O   0  0  0  0  0  0  0  0  0  0  0  0
   11.5190    7.1290   -3.4890 C   0  0  1  0  0  0  0  0  0  0  0  0
   12.2390    6.7830   -2.1980 C   0  0  0  0  0  0  0  0  0  0  0  0
    9.1130    6.2670  -11.6670 C   0  0  0  0  0  0  0  0  0  0  0  0
    9.3540    6.5840   -9.1330 C   0  0  0  0  0  0  0  0  0  0  0  0
   11.6360    8.1140   -9.7720 C   0  0  0  0  0  0  0  0  0  0  0  0
    7.9580    3.7990  -13.6040 C   0  0  0  0  0  0  0  0  0  0  0  0
   11.4690    8.8700   -7.4700 O   0  0  0  0  0  0  0  0  0  0  0  0
    5.5260    4.5820  -11.7170 C   0  0  0  0  0  0  0  0  0  0  0  0
   12.6220    9.1620   -2.7090 S   0  0  0  0  0  0  0  0  0  0  0  0
    8.3170    5.7880   -8.7770 O   0  0  0  0  0  0  0  0  0  0  0  0
   11.5400    9.0130   -5.2090 C   0  0  0  0  0  0  0  0  0  0  0  0
    6.2560    5.2190  -12.7370 C   0  0  0  0  0  0  0  0  0  0  0  0
    7.4900    4.8240  -12.6970 C   0  0  1  0  0  0  0  0  0  0  0  0
  1 18  2  0
  2 26  1  0
  3 17  2  0
  4 25  1  1
  5 25  1  1
  5 15  1  0
  5 23  1  0
  6 17  1  0
  7  9  1  0
  9  4  1  0
 10  1  1  0
 10 19  2  0
 11 14  2  0
 12  7  2  0
 12 21  1  0
 13 20  1  0
 15  8  1  6
 15 16  1  0
 16 11  1  0
 17  1  1  0
 18 24  1  0
 18  7  1  0
 19 12  1  0
 21  4  1  0
 23 11  1  0
 26 27  1  0
 26 22  1  0
 27 20  1  1
 27  6  1  0
M  END
>  <GenAI_Model>  (48) 
DiffSBDD

>  <Protein>  (48) 
generic_title2

>  <num_sample>  (48) 
100

$$$$
DiffSBDD_48
     RDKit          3D

 27 28  0  0  0  0  0  0  0  0999 V2000
   11.0090    6.5490   -1.7190 C   0  0  0  0  0  0  0  0  0  0  0  0
    8.7080    5.5340  -10.0460 S   0  0  0  0  0  0  0  0  0  0  0  0
    9.9170    6.4260   -0.9190 O   0  0  0  0  0  0  0  0  0  0  0  0
    6.3340    6.2420  -14.8320 N   0  0  0  0  0  0  0  0  0  0  0  0
   12.2780    8.1590   -7.3400 C   0  0  0  0  0  0  0  0  0  0  0  0
   10.2610    8.0040   -6.1300 C   0  0  0  0  0  0  0  0  0  0  0  0
    9.5700    4.5070  -10.5350 O   0  0  0  0  0  0  0  0  0  0  0  0
   12.6180    8.4000   -1.2000 C   0  0  0  0  0  0  0  0  0  0  0  0
   12.4340    8.0710   -4.2950 O   0  0  0  0  0  0  0  0  0  0  0  0
    7.8620    5.2060   -8.9960 O   0  0  0  0  0  0  0  0  0  0  0  0
    9.6510    6.7820   -9.6430 N   0  0  0  0  0  0  0  0  0  0  0  0
    9.7800    7.4890  -12.0230 C   0  0  0  0  0  0  0  0  0  0  0  0
   12.5770    7.7840   -3.1640 C   0  0  2  0  0  0  0  0  0  0  0  0
   11.7130    7.7180   -8.4530 C   0  0  0  0  0  0  0  0  0  0  0  0
    6.0350    6.5460  -16.0380 C   0  0  0  0  0  0  0  0  0  0  0  0
    7.8880    6.0790  -11.2150 N   0  0  0  0  0  0  0  0  0  0  0  0
   10.3730    7.3390   -8.4300 C   0  0  0  0  0  0  0  0  0  0  0  0
   12.1860    9.1830   -5.0270 C   0  0  0  0  0  0  0  0  0  0  0  0
   12.1740    6.5840   -2.0820 C   0  0  0  0  0  0  0  0  0  0  0  0
    9.6860    7.4520   -7.2520 C   0  0  0  0  0  0  0  0  0  0  0  0
    9.4980    8.0040  -10.5770 C   0  0  0  0  0  0  0  0  0  0  0  0
    5.6530    5.9200  -12.6360 O   0  0  0  0  0  0  0  0  0  0  0  0
   11.6060    8.4400   -6.2140 C   0  0  0  0  0  0  0  0  0  0  0  0
    6.4160    6.5570  -13.4510 C   0  0  0  0  0  0  0  0  0  0  0  0
    7.4500    7.5970  -13.0000 C   0  0  0  0  0  0  0  0  0  0  0  0
    8.4550    6.8240  -12.3490 C   0  0  1  0  0  0  0  0  0  0  0  0
   12.3770    8.8660   -2.2450 C   0  0  0  0  0  0  0  0  0  0  0  0
  1  3  2  0
  2 11  1  0
  2 10  2  0
  4 24  1  0
  5 23  1  0
  7  2  2  0
  9 13  1  0
 11 17  1  0
 12 21  1  0
 13 27  1  1
 13 19  1  0
 14 17  1  0
 14  5  2  0
 15  4  2  0
 16  2  1  0
 17 20  2  0
 18  9  1  0
 19  1  2  0
 20  6  1  0
 21 11  1  0
 23  6  2  0
 23 18  1  0
 24 25  1  0
 24 22  2  0
 26 25  1  1
 26 12  1  0
 26 16  1  0
 27  8  1  0
M  END
>  <GenAI_Model>  (49) 
DiffSBDD

>  <Protein>  (49) 
generic_title2

>  <num_sample>  (49) 
100

$$$$
DiffSBDD_49
     RDKit          3D

 33 34  0  0  0  0  0  0  0  0999 V2000
   11.4880    7.3440   -4.7670 C   0  0  0  0  0  0  0  0  0  0  0  0
   11.7810    8.6750   -4.4470 C   0  0  0  0  0  0  0  0  0  0  0  0
   12.3620    9.0840   -3.0680 C   0  0  0  0  0  0  0  0  0  0  0  0
    5.6010    6.9610  -14.6430 C   0  0  0  0  0  0  0  0  0  0  0  0
    9.0950    5.8230   -9.1020 N   0  0  0  0  0  0  0  0  0  0  0  0
    8.0420    3.7390  -11.8610 C   0  0  0  0  0  0  0  0  0  0  0  0
    8.9790    3.0150  -12.2250 O   0  0  0  0  0  0  0  0  0  0  0  0
   12.3930   10.3800   -2.8950 F   0  0  0  0  0  0  0  0  0  0  0  0
    9.8710    8.4260   -6.8360 C   0  0  0  0  0  0  0  0  0  0  0  0
   11.7210    8.5570   -8.2850 C   0  0  0  0  0  0  0  0  0  0  0  0
    7.0390    4.6200  -15.0360 O   0  0  0  0  0  0  0  0  0  0  0  0
   12.7770    8.1150   -2.2510 C   0  0  0  0  0  0  0  0  0  0  0  0
   12.1920    6.6900   -2.3880 C   0  0  0  0  0  0  0  0  0  0  0  0
   11.5680    9.6690   -5.6940 C   0  0  0  0  0  0  0  0  0  0  0  0
    5.6070    6.5670  -16.0810 C   0  0  0  0  0  0  0  0  0  0  0  0
    8.0450    3.9660  -10.4020 C   0  0  0  0  0  0  0  0  0  0  0  0
    9.1830    4.7590  -10.0690 C   0  0  0  0  0  0  0  0  0  0  0  0
    7.6070    5.4020  -13.9980 S   0  0  0  0  0  0  0  0  0  0  0  0
   13.1930    8.6790   -0.9350 C   0  0  0  0  0  0  0  0  0  0  0  0
    8.0510    5.7660   -8.4380 O   0  0  0  0  0  0  0  0  0  0  0  0
   11.6000    7.6340  -10.6670 C   0  0  0  0  0  0  0  0  0  0  0  0
    7.1720    4.7020  -12.5650 N   0  0  0  0  0  0  0  0  0  0  0  0
   11.9890    7.4090  -11.7460 N   0  0  0  0  0  0  0  0  0  0  0  0
    9.8530    7.0440   -8.7900 C   0  0  2  0  0  0  0  0  0  0  0  0
   12.3310    9.5780   -0.6520 F   0  0  0  0  0  0  0  0  0  0  0  0
   11.0850    7.7950   -9.2640 C   0  0  1  0  0  0  0  0  0  0  0  0
    9.0400    5.4860  -14.0270 O   0  0  0  0  0  0  0  0  0  0  0  0
   11.2300    9.0420   -7.0540 C   0  0  0  0  0  0  0  0  0  0  0  0
   11.6240    6.3360   -3.6530 C   0  0  0  0  0  0  0  0  0  0  0  0
   12.2460    6.3950   -1.3980 F   0  0  0  0  0  0  0  0  0  0  0  0
    5.8910    7.6620  -17.0580 C   0  0  0  0  0  0  0  0  0  0  0  0
    9.7660    7.0640   -7.2530 C   0  0  0  0  0  0  0  0  0  0  0  0
    6.9030    7.0070  -14.0490 C   0  0  0  0  0  0  0  0  0  0  0  0
  1  2  1  0
  1 29  2  0
  2  3  2  0
  3  8  1  0
  3 12  1  0
  4 33  1  0
  5 20  1  0
  6 16  1  0
  7  6  2  0
 10 28  2  0
 11 18  2  0
 12 19  1  0
 13 12  2  0
 13 30  1  0
 14  2  1  0
 15  4  1  0
 16 17  1  0
 17  5  1  0
 18 22  1  0
 19 25  1  0
 22  6  1  0
 23 21  3  0
 24  5  1  1
 24 32  1  0
 26 21  1  1
 26 24  1  0
 26 10  1  0
 27 18  2  0
 28  9  1  0
 28 14  1  0
 29 13  1  0
 31 15  1  0
 32  9  1  0
 33 18  1  0
M  END
>  <GenAI_Model>  (50) 
DiffSBDD

>  <Protein>  (50) 
generic_title2

>  <num_sample>  (50) 
100

$$$$
DiffSBDD_50
     RDKit          3D

 27 29  0  0  0  0  0  0  0  0999 V2000
   11.5600    8.1880   -5.6900 C   0  0  0  0  0  0  0  0  0  0  0  0
    9.5920    4.9460  -12.3430 O   0  0  0  0  0  0  0  0  0  0  0  0
   10.5310    6.3480   -5.7220 N   0  0  0  0  0  0  0  0  0  0  0  0
    9.7440    5.7630   -7.9650 C   0  0  1  0  0  0  0  0  0  0  0  0
    6.8860    6.0420  -13.4870 C   0  0  2  0  0  0  0  0  0  0  0  0
   11.2210    7.0260   -5.1250 C   0  0  0  0  0  0  0  0  0  0  0  0
    5.4450    5.4820  -13.7660 C   0  0  2  0  0  0  0  0  0  0  0  0
    8.8910    8.0820   -9.0560 C   0  0  0  0  0  0  0  0  0  0  0  0
    5.5300    3.9730  -13.5500 C   0  0  0  0  0  0  0  0  0  0  0  0
   12.4560    9.1840   -3.3110 C   0  0  0  0  0  0  0  0  0  0  0  0
   11.7820    6.8870   -3.8780 N   0  0  0  0  0  0  0  0  0  0  0  0
   12.0640    7.9140   -2.9820 C   0  0  0  0  0  0  0  0  0  0  0  0
    5.9840    3.5880  -12.0950 C   0  0  0  0  0  0  0  0  0  0  0  0
   13.0100    8.6840   -0.6760 O   0  0  0  0  0  0  0  0  0  0  0  0
    9.6170    6.6980   -9.4080 C   0  0  1  0  0  0  0  0  0  0  0  0
    7.0470    4.4800  -11.4060 C   0  0  0  0  0  0  0  0  0  0  0  0
    9.0540    6.0840  -11.8120 S   0  0  0  0  0  0  0  0  0  0  0  0
    7.3470    5.7450  -12.1060 C   0  0  1  0  0  0  0  0  0  0  0  0
   10.8770    6.4490   -7.1320 C   0  0  1  0  0  0  0  0  0  0  0  0
   12.3840    7.5860   -1.5740 C   0  0  2  0  0  0  0  0  0  0  0  0
   11.4250    7.8910   -7.2820 S   0  0  0  0  0  0  0  0  0  0  0  0
   10.0850    6.2070  -10.5960 O   0  0  0  0  0  0  0  0  0  0  0  0
    9.2400    7.3120  -12.5510 O   0  0  0  0  0  0  0  0  0  0  0  0
    6.9820    7.3740  -13.8740 O   0  0  0  0  0  0  0  0  0  0  0  0
   12.8630    6.2610   -1.2180 C   0  0  0  0  0  0  0  0  0  0  0  0
    8.6040    5.4980   -8.9640 C   0  0  0  0  0  0  0  0  0  0  0  0
    5.0890    5.9170  -15.0960 F   0  0  0  0  0  0  0  0  0  0  0  0
  1  6  1  0
  2 17  1  0
  3  6  2  0
  4 26  1  1
  4 19  1  0
  5 24  1  1
  5 18  1  0
  6 11  1  0
  7 27  1  6
  7  9  1  0
  7  5  1  0
  9 13  1  0
 10 12  2  0
 11 12  1  0
 12 20  1  0
 13 16  1  0
 15  8  1  1
 15 26  1  0
 15  4  1  0
 17 22  1  0
 18 17  1  6
 18 16  1  0
 19 21  1  6
 19  3  1  0
 20 25  1  6
 20 14  1  0
 21  1  1  0
 22 15  1  0
 23 17  1  0
M  END
>  <GenAI_Model>  (51) 
DiffSBDD

>  <Protein>  (51) 
generic_title2

>  <num_sample>  (51) 
100

$$$$
DiffSBDD_51
     RDKit          3D

 34 37  0  0  0  0  0  0  0  0999 V2000
    7.4590    4.7310  -17.8310 C   0  0  0  0  0  0  0  0  0  0  0  0
    8.7820    4.7130  -12.5220 C   0  0  0  0  0  0  0  0  0  0  0  0
    7.4640    4.6020  -15.3260 C   0  0  0  0  0  0  0  0  0  0  0  0
    7.2500    4.5770  -12.8140 C   0  0  1  0  0  0  0  0  0  0  0  0
   11.6120    6.5600   -3.8010 C   0  0  0  0  0  0  0  0  0  0  0  0
   11.7530    6.8250   -1.3440 N   0  0  0  0  0  0  0  0  0  0  0  0
    9.0100    5.8350   -7.4770 C   0  0  0  0  0  0  0  0  0  0  0  0
    9.1240    5.2380  -11.1950 N   0  0  0  0  0  0  0  0  0  0  0  0
   11.6090    9.4000   -6.3480 C   0  0  0  0  0  0  0  0  0  0  0  0
    7.1030    5.1650  -16.5310 C   0  0  0  0  0  0  0  0  0  0  0  0
   11.7820    8.6340   -5.1170 C   0  0  0  0  0  0  0  0  0  0  0  0
   12.2320    8.6680   -2.7300 C   0  0  0  0  0  0  0  0  0  0  0  0
   12.1770    9.3350   -3.9810 C   0  0  0  0  0  0  0  0  0  0  0  0
    9.4780    6.5430  -10.9950 C   0  0  0  0  0  0  0  0  0  0  0  0
    8.3200    8.2490  -12.1350 C   0  0  0  0  0  0  0  0  0  0  0  0
   10.8820    7.3320   -7.3930 N   0  0  0  0  0  0  0  0  0  0  0  0
    6.2630    4.9750  -11.7480 C   0  0  0  0  0  0  0  0  0  0  0  0
    8.5850    4.3760  -10.0800 C   0  0  0  0  0  0  0  0  0  0  0  0
   11.3190    8.6420   -7.6470 C   0  0  2  0  0  0  0  0  0  0  0  0
   11.5920    7.2370   -5.0960 C   0  0  0  0  0  0  0  0  0  0  0  0
    5.9990    6.1270  -14.1970 C   0  0  0  0  0  0  0  0  0  0  0  0
   11.8290   10.5530   -6.4300 O   0  0  0  0  0  0  0  0  0  0  0  0
   11.3140    6.4710   -6.2780 C   0  0  0  0  0  0  0  0  0  0  0  0
   12.5990    7.4020   -0.4890 C   0  0  0  0  0  0  0  0  0  0  0  0
   13.3350    7.8980    0.2830 N   0  0  0  0  0  0  0  0  0  0  0  0
    9.4520    7.4480  -11.8380 O   0  0  0  0  0  0  0  0  0  0  0  0
    9.9150    6.7030   -8.1000 N   0  0  0  0  0  0  0  0  0  0  0  0
    6.1840    6.2760  -16.6050 C   0  0  0  0  0  0  0  0  0  0  0  0
   11.5400    9.1690   -8.9230 C   0  0  0  0  0  0  0  0  0  0  0  0
    6.8970    5.1420  -14.1420 C   0  0  0  0  0  0  0  0  0  0  0  0
    8.5980    4.8120   -8.5510 C   0  0  0  0  0  0  0  0  0  0  0  0
    5.5880    6.7020  -15.4420 C   0  0  0  0  0  0  0  0  0  0  0  0
    9.8810    6.8490   -9.5790 C   0  0  0  0  0  0  0  0  0  0  0  0
   11.8620    7.2960   -2.7310 C   0  0  0  0  0  0  0  0  0  0  0  0
  1 10  1  0
  2  8  1  0
  3 30  1  0
  4  2  1  0
  4 17  1  1
  5 34  2  0
  6 24  1  0
  8 14  1  0
  8 18  1  0
  9 11  1  0
 10  3  2  0
 11 20  2  0
 11 13  1  0
 13 12  2  0
 14 26  1  0
 14 33  1  0
 15 26  1  0
 16 23  1  0
 18 31  2  0
 19 29  1  6
 19 16  1  0
 19  9  1  0
 20  5  1  0
 21 30  2  0
 22  9  2  0
 23 20  1  0
 24 25  3  0
 27 33  1  0
 27  7  1  0
 27 16  1  0
 28 10  1  0
 28 32  2  0
 30  4  1  0
 31  7  1  0
 32 21  1  0
 34 12  1  0
 34  6  1  0
M  END
>  <GenAI_Model>  (52) 
DiffSBDD

>  <Protein>  (52) 
generic_title2

>  <num_sample>  (52) 
100

$$$$
DiffSBDD_52
     RDKit          3D

 22 25  0  0  0  0  0  0  0  0999 V2000
   12.4370    6.5910   -2.2120 C   0  0  0  0  0  0  0  0  0  0  0  0
   13.2180    7.8480   -0.4870 F   0  0  0  0  0  0  0  0  0  0  0  0
    7.5560    7.3750  -11.7180 C   0  0  1  0  0  0  0  0  0  0  0  0
    9.1460    4.7660  -10.7870 C   0  0  0  0  0  0  0  0  0  0  0  0
    8.9150    5.9370   -9.7800 C   0  0  2  0  0  0  0  0  0  0  0  0
   12.6320    9.0950   -2.3870 C   0  0  0  0  0  0  0  0  0  0  0  0
   11.3440    8.4820   -6.5900 C   0  0  0  0  0  0  0  0  0  0  0  0
    6.6150    4.2150  -11.2750 C   0  0  0  0  0  0  0  0  0  0  0  0
   12.7510    7.8420   -1.6820 C   0  0  0  0  0  0  0  0  0  0  0  0
    8.7810    7.2900  -10.7050 N   0  0  0  0  0  0  0  0  0  0  0  0
   11.9560    7.7380   -4.3990 C   0  0  2  0  0  0  0  0  0  0  0  0
    7.4450    8.4310  -12.5390 O   0  0  0  0  0  0  0  0  0  0  0  0
    5.7360    4.4950  -12.5190 C   0  0  0  0  0  0  0  0  0  0  0  0
   10.9320    7.8230   -5.4210 O   0  0  0  0  0  0  0  0  0  0  0  0
   11.6010    6.6430   -3.4530 C   0  0  0  0  0  0  0  0  0  0  0  0
    7.9460    4.7800  -11.7530 C   0  0  1  0  0  0  0  0  0  0  0  0
    6.2390    5.7160  -13.1780 C   0  0  0  0  0  0  0  0  0  0  0  0
   11.3520    7.5350   -7.7460 C   0  0  0  0  0  0  0  0  0  0  0  0
   12.1390    9.1090   -3.7280 C   0  0  0  0  0  0  0  0  0  0  0  0
    9.9940    7.0110   -9.8210 C   0  0  1  0  0  0  0  0  0  0  0  0
    9.9990    7.6320   -8.4050 C   0  0  0  0  0  0  0  0  0  0  0  0
    7.8310    6.0690  -12.6280 C   0  0  1  0  0  0  0  0  0  0  0  0
  1  9  1  0
  3 12  1  6
  3 10  1  0
  5  4  1  6
  6  9  2  0
  7 14  1  0
  9  2  1  0
 10 20  1  0
 10  5  1  0
 11 19  1  0
 11 15  1  0
 13  8  1  0
 11 14  1  6
 15  1  1  0
 16  8  1  1
 16  4  1  0
 22 17  1  6
 17 13  1  0
 18  7  1  0
 19  6  1  0
 20  5  1  0
 20 21  1  1
 21 18  1  0
 22 16  1  0
 22  3  1  0
M  END
>  <GenAI_Model>  (53) 
DiffSBDD

>  <Protein>  (53) 
generic_title2

>  <num_sample>  (53) 
100

$$$$
DiffSBDD_53
     RDKit          3D

 30 32  0  0  0  0  0  0  0  0999 V2000
   12.1210    9.6330   -2.3720 C   0  0  0  0  0  0  0  0  0  0  0  0
    8.9860    4.8780   -8.3830 C   0  0  0  0  0  0  0  0  0  0  0  0
   11.6860   10.6240   -2.6220 O   0  0  0  0  0  0  0  0  0  0  0  0
    8.7230    5.4350   -6.7490 S   0  0  0  0  0  0  0  0  0  0  0  0
    8.5090    6.1320  -12.4390 C   0  0  0  0  0  0  0  0  0  0  0  0
   10.4520    7.6400   -6.5930 C   0  0  0  0  0  0  0  0  0  0  0  0
   12.4420    9.7640   -6.8310 C   0  0  0  0  0  0  0  0  0  0  0  0
    9.2510    7.2600   -7.1090 C   0  0  0  0  0  0  0  0  0  0  0  0
   10.3310    6.0050  -11.3300 C   0  0  0  0  0  0  0  0  0  0  0  0
    8.7100    6.4730  -10.7630 C   0  0  0  0  0  0  0  0  0  0  0  0
   13.7680    7.1670   -0.0110 C   0  0  0  0  0  0  0  0  0  0  0  0
   10.0470    7.9300  -10.0640 C   0  0  0  0  0  0  0  0  0  0  0  0
   12.7830    8.1570   -0.5510 C   0  0  1  0  0  0  0  0  0  0  0  0
   13.2890    9.0460   -1.5290 C   0  0  0  0  0  0  0  0  0  0  0  0
   12.2140    8.6570   -2.9300 N   0  0  0  0  0  0  0  0  0  0  0  0
   11.0830    7.0260  -11.8480 C   0  0  0  0  0  0  0  0  0  0  0  0
   12.5270   10.0390   -5.4740 C   0  0  0  0  0  0  0  0  0  0  0  0
   12.0400    8.6450   -7.4370 C   0  0  1  0  0  0  0  0  0  0  0  0
   11.8840    7.3070   -5.4700 C   0  0  2  0  0  0  0  0  0  0  0  0
   10.2030    7.6760   -9.1950 C   0  0  0  0  0  0  0  0  0  0  0  0
    9.1380    5.6930  -11.3500 C   0  0  0  0  0  0  0  0  0  0  0  0
   12.1860    6.0880   -3.1790 C   0  0  0  0  0  0  0  0  0  0  0  0
    8.5220    5.9490   -9.1710 C   0  0  0  0  0  0  0  0  0  0  0  0
   12.4990    8.6100   -4.5980 C   0  0  2  0  0  0  0  0  0  0  0  0
   12.1660    7.1680   -1.9810 C   0  0  1  0  0  0  0  0  0  0  0  0
    9.2140    5.0000  -11.6470 C   0  0  0  0  0  0  0  0  0  0  0  0
   11.8770    7.2260  -12.9140 C   0  0  0  0  0  0  0  0  0  0  0  0
   11.1130    7.7180   -6.3140 C   0  0  0  0  0  0  0  0  0  0  0  0
   11.5020    8.1370   -8.7950 C   0  0  0  0  0  0  0  0  0  0  0  0
   11.1550    6.4730   -4.1160 C   0  0  0  0  0  0  0  0  0  0  0  0
  1 14  1  0
  2  4  1  0
  3  1  2  0
  5 21  1  0
  6 28  2  0
  7 17  1  0
  8  4  1  0
  8  6  2  0
 10 23  1  0
 12 20  1  0
 13 11  1  6
 14 13  1  0
 15  1  1  0
 15 25  1  0
 16  9  1  0
 18 29  1  6
 18  7  1  0
 18 28  1  0
 19 24  1  0
 19 30  1  1
 20 29  1  0
 21  9  1  0
 21 10  1  0
 23  2  1  0
 24 17  1  6
 24 15  1  0
 25 22  1  6
 25 13  1  0
 26 21  1  0
 27 16  2  0
 28 19  1  0
 30 22  1  0
M  END
>  <GenAI_Model>  (54) 
DiffSBDD

>  <Protein>  (54) 
generic_title2

>  <num_sample>  (54) 
100

$$$$
DiffSBDD_54
     RDKit          3D

 18 20  0  0  0  0  0  0  0  0999 V2000
    9.0960    6.1660   -7.4220 C   0  0  0  0  0  0  0  0  0  0  0  0
    7.2350    3.5830  -10.5510 C   0  0  0  0  0  0  0  0  0  0  0  0
   11.8390    8.5890   -8.0730 C   0  0  0  0  0  0  0  0  0  0  0  0
   10.1570    6.8770  -11.7850 C   0  0  1  0  0  0  0  0  0  0  0  0
    5.9140    3.5120  -12.6490 C   0  0  0  0  0  0  0  0  0  0  0  0
   11.4120    8.9340   -9.5050 C   0  0  0  0  0  0  0  0  0  0  0  0
   11.1290    5.5770   -7.0960 F   0  0  0  0  0  0  0  0  0  0  0  0
    6.8400    4.4700  -11.8590 C   0  0  0  0  0  0  0  0  0  0  0  0
    9.3890    6.5830  -10.4890 C   0  0  2  0  0  0  0  0  0  0  0  0
   10.1800    5.6410   -7.9520 C   0  0  0  0  0  0  0  0  0  0  0  0
    9.4260    6.0840  -12.8930 C   0  0  0  0  0  0  0  0  0  0  0  0
    8.6720    5.6380  -10.9480 C   0  0  0  0  0  0  0  0  0  0  0  0
    9.2380    8.0140  -11.2500 C   0  0  0  0  0  0  0  0  0  0  0  0
   10.5610    8.1350   -8.7200 C   0  0  0  0  0  0  0  0  0  0  0  0
    5.7170    5.4850  -11.2130 C   0  0  0  0  0  0  0  0  0  0  0  0
    8.3240    5.1410  -12.1080 C   0  0  1  0  0  0  0  0  0  0  0  0
    9.7760    4.5430   -8.5200 F   0  0  0  0  0  0  0  0  0  0  0  0
   10.5840    6.6040   -9.2620 C   0  0  2  0  0  0  0  0  0  0  0  0
  4 11  1  6
  4 13  1  0
  4  9  1  0
  5  8  1  0
  6 14  1  0
  6  3  1  0
  8 15  1  0
  8  2  1  0
  9 18  1  0
 10  1  1  0
 10  7  1  0
 11 16  1  0
  9 12  1  6
 13  9  1  0
 14  3  1  0
 16  8  1  6
 16 12  1  0
 17 10  1  0
 18 14  1  0
 18 10  1  1
M  END
>  <GenAI_Model>  (55) 
DiffSBDD

>  <Protein>  (55) 
generic_title2

>  <num_sample>  (55) 
100

$$$$
DiffSBDD_55
     RDKit          3D

 15 16  0  0  0  0  0  0  0  0999 V2000
   12.3080    6.9080   -1.9220 C   0  0  0  0  0  0  0  0  0  0  0  0
   11.8480    7.7990   -4.0960 C   0  0  0  0  0  0  0  0  0  0  0  0
   12.6680    9.2410   -2.3040 C   0  0  0  0  0  0  0  0  0  0  0  0
   11.7950    8.1250   -6.4480 C   0  0  2  0  0  0  0  0  0  0  0  0
    8.2470    5.8940   -8.5080 O   0  0  0  0  0  0  0  0  0  0  0  0
   11.7470    7.4070   -8.1010 S   0  0  0  0  0  0  0  0  0  0  0  0
    9.5620    5.7640   -8.3410 N   0  0  0  0  0  0  0  0  0  0  0  0
   11.4740    7.3850   -5.4300 N   0  0  0  0  0  0  0  0  0  0  0  0
   11.8530    6.7170   -3.1450 C   0  0  0  0  0  0  0  0  0  0  0  0
   10.1080    6.9110   -5.9630 C   0  0  0  0  0  0  0  0  0  0  0  0
   11.8400    9.4550   -5.9940 C   0  0  0  0  0  0  0  0  0  0  0  0
   12.7830    8.0980   -1.5010 C   0  0  0  0  0  0  0  0  0  0  0  0
   13.3160    8.2620   -0.3200 F   0  0  0  0  0  0  0  0  0  0  0  0
   12.1780    9.0280   -3.6310 C   0  0  0  0  0  0  0  0  0  0  0  0
   10.4330    6.3640   -7.4460 C   0  0  2  0  0  0  0  0  0  0  0  0
  1 12  1  0
  2 14  2  0
  2  9  1  0
  3 12  2  0
  4 11  1  6
  4  8  1  0
  5  7  1  0
  6 15  1  0
  6  4  1  0
  8  2  1  0
  9  1  2  0
 10  8  1  0
 12 13  1  0
 14  3  1  0
 15  7  1  6
 15 10  1  0
M  END
>  <GenAI_Model>  (56) 
DiffSBDD

>  <Protein>  (56) 
generic_title2

>  <num_sample>  (56) 
100

$$$$
DiffSBDD_56
     RDKit          3D

 43 46  0  0  0  0  0  0  0  0999 V2000
    7.5160    4.1400  -13.8840 C   0  0  1  0  0  0  0  0  0  0  0  0
   10.5360    6.5510  -13.3320 C   0  0  0  0  0  0  0  0  0  0  0  0
   11.3750   10.2850   -5.1290 C   0  0  0  0  0  0  0  0  0  0  0  0
   12.6200    8.5170   -2.6150 C   0  0  0  0  0  0  0  0  0  0  0  0
    9.4730    5.6430  -12.5460 C   0  0  1  0  0  0  0  0  0  0  0  0
   13.3260    7.4960   -1.7030 C   0  0  0  0  0  0  0  0  0  0  0  0
    5.6360    6.5500  -17.1190 F   0  0  0  0  0  0  0  0  0  0  0  0
    5.7300    5.7170  -13.4770 C   0  0  0  0  0  0  0  0  0  0  0  0
    9.7130    6.9950   -7.8690 C   0  0  2  0  0  0  0  0  0  0  0  0
    8.4200    5.8260  -15.7830 O   0  0  0  0  0  0  0  0  0  0  0  0
   12.0510    7.7440   -7.5500 C   0  0  0  0  0  0  0  0  0  0  0  0
   12.0220    9.5020   -2.0880 F   0  0  0  0  0  0  0  0  0  0  0  0
   11.8630    6.2790  -12.8410 O   0  0  0  0  0  0  0  0  0  0  0  0
    8.6580    5.7740   -9.9460 C   0  0  2  0  0  0  0  0  0  0  0  0
   12.9440    5.2220   -2.1100 F   0  0  0  0  0  0  0  0  0  0  0  0
    9.7080    7.7280  -11.3060 O   0  0  0  0  0  0  0  0  0  0  0  0
    9.3210    8.4150   -8.3830 C   0  0  0  0  0  0  0  0  0  0  0  0
    5.2930    6.6980  -15.7600 C   0  0  0  0  0  0  0  0  0  0  0  0
    7.1820    4.8570  -15.2880 S   0  0  0  0  0  0  0  0  0  0  0  0
   11.5740    7.7530   -3.2720 C   0  0  2  0  0  0  0  0  0  0  0  0
   11.3150    7.2010   -2.1680 N   0  0  0  0  0  0  0  0  0  0  0  0
    6.9860    3.8520  -16.3570 O   0  0  0  0  0  0  0  0  0  0  0  0
   13.4930    9.0000   -3.4700 F   0  0  0  0  0  0  0  0  0  0  0  0
   10.3000    5.2460   -1.1650 C   0  0  0  0  0  0  0  0  0  0  0  0
    9.2820    6.4750  -11.0870 C   0  0  2  0  0  0  0  0  0  0  0  0
    6.8330    6.1880  -12.7520 C   0  0  0  0  0  0  0  0  0  0  0  0
    7.5040    3.7750  -10.0660 O   0  0  0  0  0  0  0  0  0  0  0  0
   11.6760    6.5340   -4.3200 C   0  0  0  0  0  0  0  0  0  0  0  0
   11.1190    6.3710   -1.3410 C   0  0  1  0  0  0  0  0  0  0  0  0
    8.8490    5.9750   -8.4570 O   0  0  0  0  0  0  0  0  0  0  0  0
    7.6270    2.7550  -13.4210 C   0  0  0  0  0  0  0  0  0  0  0  0
    7.9320    5.1650  -12.8750 C   0  0  1  0  0  0  0  0  0  0  0  0
    8.8390    4.2940  -10.1300 C   0  0  0  0  0  0  0  0  0  0  0  0
    3.9000    6.4340  -15.4900 F   0  0  0  0  0  0  0  0  0  0  0  0
    6.0250    5.7430  -14.8660 C   0  0  1  0  0  0  0  0  0  0  0  0
    8.6070    2.7150  -12.4180 O   0  0  0  0  0  0  0  0  0  0  0  0
    9.7550    6.3840   -6.3340 C   0  0  0  0  0  0  0  0  0  0  0  0
   11.7270    7.8770   -6.1610 N   0  0  0  0  0  0  0  0  0  0  0  0
   11.0650    6.6180   -5.7440 C   0  0  1  0  0  0  0  0  0  0  0  0
   12.3030    6.4380   -1.8860 C   0  0  2  0  0  0  0  0  0  0  0  0
   11.1870    6.9220   -8.3710 C   0  0  0  0  0  0  0  0  0  0  0  0
    4.9670    8.0090  -15.5200 F   0  0  0  0  0  0  0  0  0  0  0  0
   10.8480    9.0540   -5.8870 C   0  0  0  0  0  0  0  0  0  0  0  0
  1 31  1  6
  1 32  1  0
  2 13  1  0
  4 12  1  0
  4  6  1  0
  5  2  1  6
  5 25  1  0
  7 18  1  0
  8 26  1  0
  9 17  1  1
  9 37  1  0
 10 19  2  0
 11 38  1  0
 14 33  1  6
 14 30  1  0
 40 15  1  6
 25 16  1  6
 18 42  1  0
 18 34  1  0
 35 18  1  1
 19 35  1  0
 19  1  1  0
 20 28  1  6
 20  4  1  0
 20 21  1  0
 21 40  1  0
 21 29  1  0
 22 19  2  0
 23  4  1  0
 25 14  1  0
 29 24  1  6
 30  9  1  0
 31 36  1  0
 32 26  1  6
 32  5  1  0
 33 27  1  0
 35  8  1  0
 37 39  1  0
 38 43  1  0
 38 39  1  0
 39 28  1  1
 40  6  1  0
 40 29  1  0
 41  9  1  0
 41 11  1  0
 43  3  1  0
M  END
>  <GenAI_Model>  (57) 
DiffSBDD

>  <Protein>  (57) 
generic_title2

>  <num_sample>  (57) 
100

$$$$
DiffSBDD_57
     RDKit          3D

 32 36  0  0  0  0  0  0  0  0999 V2000
    6.0900    3.3860  -12.4340 C   0  0  0  0  0  0  0  0  0  0  0  0
    9.0840    7.3120  -11.0890 C   0  0  0  0  0  0  0  0  0  0  0  0
   11.8980    6.1340   -3.2980 C   0  0  0  0  0  0  0  0  0  0  0  0
   11.7870   11.0850   -3.3720 N   0  0  0  0  0  0  0  0  0  0  0  0
   10.4850    7.3750  -10.7910 C   0  0  2  0  0  0  0  0  0  0  0  0
   11.2330    6.5370  -12.8140 C   0  0  0  0  0  0  0  0  0  0  0  0
    7.7780    5.0000  -12.6770 C   0  0  2  0  0  0  0  0  0  0  0  0
   11.5180    7.2920  -11.6660 C   0  0  0  0  0  0  0  0  0  0  0  0
    9.9600    6.3070   -8.6810 C   0  0  0  0  0  0  0  0  0  0  0  0
    5.0980    4.4650  -12.6520 C   0  0  0  0  0  0  0  0  0  0  0  0
   13.5080    8.2270   -0.9400 C   0  0  0  0  0  0  0  0  0  0  0  0
   13.9590    9.2110   -0.3460 F   0  0  0  0  0  0  0  0  0  0  0  0
   10.0480    6.1130   -7.3670 C   0  0  0  0  0  0  0  0  0  0  0  0
   13.7520    7.8520    0.0180 F   0  0  0  0  0  0  0  0  0  0  0  0
   10.8250    7.0420   -6.6270 C   0  0  0  0  0  0  0  0  0  0  0  0
   10.8160    6.7540   -5.3730 O   0  0  0  0  0  0  0  0  0  0  0  0
   12.2860    8.7820   -2.8980 C   0  0  0  0  0  0  0  0  0  0  0  0
    6.3930    6.7590  -13.6940 C   0  0  0  0  0  0  0  0  0  0  0  0
    5.4250    5.4280  -13.8180 C   0  0  0  0  0  0  0  0  0  0  0  0
   12.4760    6.5350   -2.2460 C   0  0  0  0  0  0  0  0  0  0  0  0
    8.2670    4.2110  -13.8960 C   0  0  0  0  0  0  0  0  0  0  0  0
   11.5800    7.9460   -7.3130 C   0  0  0  0  0  0  0  0  0  0  0  0
   11.5800    8.0770   -8.6250 C   0  0  0  0  0  0  0  0  0  0  0  0
   11.6730    8.4550   -4.0500 N   0  0  0  0  0  0  0  0  0  0  0  0
    7.3640    4.0360  -11.6610 C   0  0  0  0  0  0  0  0  0  0  0  0
   12.4860   10.2560   -2.8210 N   0  0  0  0  0  0  0  0  0  0  0  0
   10.0780    5.9840  -12.8950 N   0  0  0  0  0  0  0  0  0  0  0  0
    7.2780    6.3520  -12.5380 C   0  0  2  0  0  0  0  0  0  0  0  0
   12.7740    7.9380   -2.0510 C   0  0  0  0  0  0  0  0  0  0  0  0
   10.7020    7.2900   -9.3650 C   0  0  0  0  0  0  0  0  0  0  0  0
   11.4750    7.1430   -4.2430 C   0  0  0  0  0  0  0  0  0  0  0  0
    8.6950    6.1930  -12.3300 C   0  0  2  0  0  0  0  0  0  0  0  0
  1 25  1  0
  2  5  1  0
  3 20  2  0
  4 26  2  0
  5 30  1  1
  6  8  1  0
  7 21  1  6
  7 28  1  0
  7 32  1  0
  7 25  1  0
  8  5  1  0
  9 13  2  0
 10  1  1  0
 11 12  1  0
 11 14  1  0
 13 15  1  0
 15 16  1  0
 16 31  1  0
 17 26  1  0
 17 29  2  0
 19 18  1  0
 19 10  1  0
 20 29  1  0
 22 15  2  0
 23 22  1  0
 24 17  1  0
 27  6  1  0
 27 32  1  0
 28 18  1  6
 28 32  1  0
 29 11  1  0
 30  9  1  0
 30 23  2  0
 31 24  2  0
 31  3  1  0
 32  2  1  1
M  END
>  <GenAI_Model>  (58) 
DiffSBDD

>  <Protein>  (58) 
generic_title2

>  <num_sample>  (58) 
100

$$$$
DiffSBDD_58
     RDKit          3D

 30 33  0  0  0  0  0  0  0  0999 V2000
    6.1770    5.2130  -13.6210 C   0  0  0  0  0  0  0  0  0  0  0  0
    8.3460    4.8750  -10.8500 C   0  0  0  0  0  0  0  0  0  0  0  0
    7.3950    7.9190  -13.6610 O   0  0  0  0  0  0  0  0  0  0  0  0
    6.3630    4.2420  -14.3970 F   0  0  0  0  0  0  0  0  0  0  0  0
    5.6030    6.2270  -14.2450 F   0  0  0  0  0  0  0  0  0  0  0  0
    5.4680    4.8770  -12.6420 F   0  0  0  0  0  0  0  0  0  0  0  0
    7.5720    5.4350  -13.2440 C   0  0  1  0  0  0  0  0  0  0  0  0
   11.3820    6.7650   -5.0860 C   0  0  0  0  0  0  0  0  0  0  0  0
   12.2130    9.1240   -4.2510 C   0  0  0  0  0  0  0  0  0  0  0  0
   12.5520    8.2400   -1.9820 C   0  0  0  0  0  0  0  0  0  0  0  0
   11.8890    8.2380   -5.3080 C   0  0  2  0  0  0  0  0  0  0  0  0
   10.2230    7.5500   -9.1970 C   0  0  2  0  0  0  0  0  0  0  0  0
   12.1200    6.8590   -2.3970 C   0  0  0  0  0  0  0  0  0  0  0  0
    8.4780    6.4350  -10.6870 C   0  0  1  0  0  0  0  0  0  0  0  0
    7.7370    6.9830  -12.9500 C   0  0  0  0  0  0  0  0  0  0  0  0
   12.9260    8.5200   -0.8540 O   0  0  0  0  0  0  0  0  0  0  0  0
    9.0640    6.6280   -9.2750 C   0  0  1  0  0  0  0  0  0  0  0  0
   10.1410    6.5860  -12.6930 C   0  0  0  0  0  0  0  0  0  0  0  0
    8.9130    7.1060  -12.0240 C   0  0  2  0  0  0  0  0  0  0  0  0
    9.8970    7.1580   -6.7220 C   0  0  0  0  0  0  0  0  0  0  0  0
   11.5250    8.9530   -7.7900 C   0  0  1  0  0  0  0  0  0  0  0  0
   11.8900    9.2270   -6.3450 O   0  0  0  0  0  0  0  0  0  0  0  0
   11.7500    6.4500   -3.6460 C   0  0  0  0  0  0  0  0  0  0  0  0
   12.3620    8.7630   -9.0530 C   0  0  0  0  0  0  0  0  0  0  0  0
   11.3810    7.9830   -9.9940 C   0  0  0  0  0  0  0  0  0  0  0  0
   12.4860    9.2360   -2.9350 C   0  0  0  0  0  0  0  0  0  0  0  0
    8.1650    4.3980  -12.3120 C   0  0  0  0  0  0  0  0  0  0  0  0
    9.3870    5.6970   -6.9180 C   0  0  0  0  0  0  0  0  0  0  0  0
   10.4090    8.0290   -7.8040 C   0  0  1  0  0  0  0  0  0  0  0  0
    8.8810    5.3980   -8.3390 C   0  0  0  0  0  0  0  0  0  0  0  0
  1  6  1  0
  3 15  2  0
  4  1  1  0
  5  1  1  0
  7  1  1  1
  7 15  1  0
  7 27  1  0
  8 23  1  0
  9 26  2  0
 10 16  2  0
 11 22  1  6
 11  8  1  0
 11  9  1  0
 12 25  1  1
 12 29  1  0
 13 10  1  0
 14  2  1  6
 14 17  1  0
 15 19  1  0
 17 12  1  0
 17 30  1  6
 19 18  1  6
 19 14  1  0
 21 22  1  1
 23 13  2  0
 24 21  1  0
 25 24  1  0
 26 10  1  0
 27  2  1  0
 28 20  1  0
 29 21  1  0
 29 20  1  1
 30 28  1  0
M  END
>  <GenAI_Model>  (59) 
DiffSBDD

>  <Protein>  (59) 
generic_title2

>  <num_sample>  (59) 
100

$$$$
DiffSBDD_59
     RDKit          3D

 36 39  0  0  0  0  0  0  0  0999 V2000
    7.9050    6.5720  -12.8990 C   0  0  2  0  0  0  0  0  0  0  0  0
    7.2600    3.3010  -14.3560 C   0  0  0  0  0  0  0  0  0  0  0  0
   12.8700    8.0940   -0.8790 C   0  0  0  0  0  0  0  0  0  0  0  0
    8.8020    5.9020  -11.6280 P   0  0  2  0  0  0  0  0  0  0  0  0
   13.6260    9.6170    0.7490 C   0  0  0  0  0  0  0  0  0  0  0  0
    8.8230    7.6310   -7.4530 O   0  0  0  0  0  0  0  0  0  0  0  0
   11.1000    8.6770   -7.0970 C   0  0  0  0  0  0  0  0  0  0  0  0
   11.5860    7.8780   -4.9070 C   0  0  0  0  0  0  0  0  0  0  0  0
    7.8280    8.0890  -12.7610 C   0  0  0  0  0  0  0  0  0  0  0  0
   12.0430    9.0530   -4.3350 C   0  0  0  0  0  0  0  0  0  0  0  0
   12.2940    9.1060   -3.0050 C   0  0  0  0  0  0  0  0  0  0  0  0
    5.5190    6.8590  -15.0290 C   0  0  0  0  0  0  0  0  0  0  0  0
   11.3590    7.8270   -6.2130 N   0  0  0  0  0  0  0  0  0  0  0  0
    7.2390    5.4960  -13.6640 C   0  0  1  0  0  0  0  0  0  0  0  0
    7.8950    2.0470  -14.5580 O   0  0  0  0  0  0  0  0  0  0  0  0
   12.2550    7.9580   -2.2490 C   0  0  0  0  0  0  0  0  0  0  0  0
    5.1390    4.5710  -14.0630 O   0  0  0  0  0  0  0  0  0  0  0  0
    8.1230    4.7360  -10.6290 C   0  0  0  0  0  0  0  0  0  0  0  0
   12.8070    9.2890   -0.2300 C   0  0  0  0  0  0  0  0  0  0  0  0
    5.2070    2.9290  -15.7960 C   0  0  0  0  0  0  0  0  0  0  0  0
    7.9720    4.2670  -13.5420 O   0  0  0  0  0  0  0  0  0  0  0  0
    8.9480    4.8670   -9.3030 C   0  0  2  0  0  0  0  0  0  0  0  0
   11.0860    7.2680   -7.8710 C   0  0  1  0  0  0  0  0  0  0  0  0
   14.3820    7.4520    0.7910 C   0  0  0  0  0  0  0  0  0  0  0  0
    8.3460    4.5060   -8.0660 O   0  0  0  0  0  0  0  0  0  0  0  0
   11.4180    6.7110   -4.1760 C   0  0  0  0  0  0  0  0  0  0  0  0
    9.6370    7.1250   -8.2360 C   0  0  0  0  0  0  0  0  0  0  0  0
    9.4090    6.2850   -9.3340 C   0  0  2  0  0  0  0  0  0  0  0  0
   11.6920    6.7550   -2.7520 C   0  0  0  0  0  0  0  0  0  0  0  0
    8.9670    7.0400  -10.5350 N   0  0  0  0  0  0  0  0  0  0  0  0
   10.1450    5.4830  -12.1250 O   0  0  0  0  0  0  0  0  0  0  0  0
   13.6040    7.1520   -0.2750 N   0  0  0  0  0  0  0  0  0  0  0  0
   14.4390    8.6830    1.3120 N   0  0  0  0  0  0  0  0  0  0  0  0
    5.9690    5.5860  -14.3680 C   0  0  1  0  0  0  0  0  0  0  0  0
    5.6900    3.3010  -14.4330 C   0  0  1  0  0  0  0  0  0  0  0  0
   11.8240    7.4590   -9.1130 N   0  0  0  0  0  0  0  0  0  0  0  0
  1  9  1  1
  1  4  1  0
  2 21  1  0
  3 32  2  0
  3 19  1  0
  4 31  2  0
  4 18  1  1
  4 30  1  0
  5 33  1  0
  7 13  1  0
  8 10  1  0
  8 26  2  0
 10 11  2  0
 11 16  1  0
 13  8  1  0
 14 21  1  1
 14  1  1  0
 15  2  2  0
 16  3  1  0
 18 22  1  0
 19  5  2  0
 22 25  1  1
 23 36  1  6
 23  7  1  0
 24 33  2  0
 26 29  1  0
 27 23  1  0
 27  6  2  0
 28 22  1  0
 28 27  1  1
 29 16  2  0
 30 28  1  0
 32 24  1  0
 34 12  1  1
 34 17  1  0
 34 14  1  0
 35 20  1  6
 35  2  1  0
 35 17  1  0
M  END
>  <GenAI_Model>  (60) 
DiffSBDD

>  <Protein>  (60) 
generic_title2

>  <num_sample>  (60) 
100

$$$$
DiffSBDD_60
     RDKit          3D

 35 38  0  0  0  0  0  0  0  0999 V2000
   11.0900    6.1280   -6.1680 C   0  0  0  0  0  0  0  0  0  0  0  0
   12.1470    7.9740   -3.1590 C   0  0  0  0  0  0  0  0  0  0  0  0
    7.7980    4.8290  -14.3850 C   0  0  1  0  0  0  0  0  0  0  0  0
   10.2150    7.1610  -11.1710 C   0  0  0  0  0  0  0  0  0  0  0  0
   12.3560    6.6400   -3.4860 C   0  0  0  0  0  0  0  0  0  0  0  0
    7.8610    5.2250  -11.9290 O   0  0  0  0  0  0  0  0  0  0  0  0
   11.8390    8.9960   -4.2350 C   0  0  0  0  0  0  0  0  0  0  0  0
   12.7490    5.7780   -2.5160 C   0  0  0  0  0  0  0  0  0  0  0  0
   11.6740    8.5710   -5.6000 N   0  0  0  0  0  0  0  0  0  0  0  0
    6.3360    7.2830  -13.8720 C   0  0  0  0  0  0  0  0  0  0  0  0
   12.1140    9.7980   -1.5990 C   0  0  0  0  0  0  0  0  0  0  0  0
   12.5690    8.6970   -8.1990 C   0  0  0  0  0  0  0  0  0  0  0  0
    7.9290    3.7560  -12.9930 S   0  0  0  0  0  0  0  0  0  0  0  0
    7.5650    3.9940  -15.6350 C   0  0  0  0  0  0  0  0  0  0  0  0
   11.7140   10.2650   -3.9210 C   0  0  0  0  0  0  0  0  0  0  0  0
    5.8630    7.2300  -12.4920 O   0  0  0  0  0  0  0  0  0  0  0  0
   12.3030    8.4880   -1.8850 C   0  0  0  0  0  0  0  0  0  0  0  0
    9.3950    6.6690  -13.3740 C   0  0  0  0  0  0  0  0  0  0  0  0
    8.9250    5.1140  -10.9420 C   0  0  2  0  0  0  0  0  0  0  0  0
    9.7340    7.5490   -9.8180 C   0  0  0  0  0  0  0  0  0  0  0  0
    5.3970    5.2300  -13.7460 O   0  0  0  0  0  0  0  0  0  0  0  0
    8.6620    5.1820   -9.4470 C   0  0  0  0  0  0  0  0  0  0  0  0
    8.7510    7.3740   -6.8670 O   0  0  0  0  0  0  0  0  0  0  0  0
   12.6460    7.5530   -0.9340 C   0  0  0  0  0  0  0  0  0  0  0  0
   11.9460    7.5780   -8.9080 C   0  0  2  0  0  0  0  0  0  0  0  0
    8.9920    6.2350  -11.9900 C   0  0  1  0  0  0  0  0  0  0  0  0
   10.8870    7.6470   -6.4200 C   0  0  2  0  0  0  0  0  0  0  0  0
    7.5330    5.2380   -9.1180 O   0  0  0  0  0  0  0  0  0  0  0  0
    6.5770    5.8300  -14.1850 C   0  0  2  0  0  0  0  0  0  0  0  0
   12.9170    6.2180   -1.2290 C   0  0  0  0  0  0  0  0  0  0  0  0
   11.9230   10.6950   -2.5620 C   0  0  0  0  0  0  0  0  0  0  0  0
   12.4310    8.3130   -9.7740 O   0  0  0  0  0  0  0  0  0  0  0  0
    9.8830    8.2020   -7.3360 C   0  0  1  0  0  0  0  0  0  0  0  0
    8.9590    5.7690  -14.4220 C   0  0  0  0  0  0  0  0  0  0  0  0
   10.4780    7.6910   -8.6360 N   0  0  0  0  0  0  0  0  0  0  0  0
  2 17  1  0
  3 14  1  6
  3 29  1  0
  3 13  1  0
  4 20  1  0
  5  2  2  0
  5  8  1  0
  6 19  1  0
  7 15  2  0
  7  2  1  0
  8 30  2  0
  9  7  1  0
 10 16  1  0
 15 31  1  0
 17 11  1  0
 17 24  2  0
 19 22  1  1
 20 35  1  0
 22 28  2  0
 25 35  1  6
 25 12  1  0
 26 18  1  1
 26  6  1  0
 26  4  1  0
 26 19  1  0
 27  1  1  1
 27  9  1  0
 29 10  1  0
 29 21  1  1
 30 24  1  0
 31 11  2  0
 32 25  1  0
 32 12  1  0
 33 23  1  1
 33 27  1  0
 34  3  1  0
 34 18  1  0
 35 33  1  0
M  END
>  <GenAI_Model>  (61) 
DiffSBDD

>  <Protein>  (61) 
generic_title2

>  <num_sample>  (61) 
100

$$$$
DiffSBDD_61
     RDKit          3D

 28 29  0  0  0  0  0  0  0  0999 V2000
   11.6580    7.1020  -11.4650 C   0  0  0  0  0  0  0  0  0  0  0  0
    7.4450    5.1390   -9.6290 O   0  0  0  0  0  0  0  0  0  0  0  0
    8.4150    4.8360  -17.1230 C   0  0  0  0  0  0  0  0  0  0  0  0
    8.8050    6.3280  -11.2610 O   0  0  0  0  0  0  0  0  0  0  0  0
   10.5070    7.5810   -9.3230 N   0  0  0  0  0  0  0  0  0  0  0  0
    9.6700    4.9960  -17.1420 O   0  0  0  0  0  0  0  0  0  0  0  0
    6.1870    2.1940  -13.1200 C   0  0  0  0  0  0  0  0  0  0  0  0
   10.7050    7.9600  -10.7190 C   0  0  2  0  0  0  0  0  0  0  0  0
    9.1210    7.7470  -11.4580 P   0  0  2  0  0  0  0  0  0  0  0  0
    6.5490    5.5950  -14.6350 F   0  0  0  0  0  0  0  0  0  0  0  0
    9.5190    6.8640   -7.6320 C   0  0  0  0  0  0  0  0  0  0  0  0
    7.9700    4.0350  -16.2320 N   0  0  0  0  0  0  0  0  0  0  0  0
    8.4060    4.1180  -11.7960 O   0  0  0  0  0  0  0  0  0  0  0  0
    7.9630    8.5120  -10.8370 O   0  0  0  0  0  0  0  0  0  0  0  0
    7.2980    2.0140  -15.2070 C   0  0  0  0  0  0  0  0  0  0  0  0
    6.4220    5.5170  -11.6480 O   0  0  0  0  0  0  0  0  0  0  0  0
   11.2510    5.5720   -6.8890 F   0  0  0  0  0  0  0  0  0  0  0  0
    7.7580    5.2560  -11.0600 P   0  0  1  0  0  0  0  0  0  0  0  0
    7.3820    3.4080  -15.3140 C   0  0  0  0  0  0  0  0  0  0  0  0
    6.6430    4.2440  -14.3600 C   0  0  0  0  0  0  0  0  0  0  0  0
   11.4440    7.2440   -8.6270 C   0  0  0  0  0  0  0  0  0  0  0  0
    9.3840    7.4390   -8.6160 C   0  0  0  0  0  0  0  0  0  0  0  0
   10.9250    6.8230   -7.4660 C   0  0  1  0  0  0  0  0  0  0  0  0
    6.0730    3.6130  -13.2110 C   0  0  0  0  0  0  0  0  0  0  0  0
    7.6250    5.2370  -17.9480 O   0  0  0  0  0  0  0  0  0  0  0  0
    5.5050    4.4650  -12.1430 C   0  0  0  0  0  0  0  0  0  0  0  0
    6.7180    1.4040  -14.0720 C   0  0  0  0  0  0  0  0  0  0  0  0
    9.1170    8.2740  -12.8420 O   0  0  0  0  0  0  0  0  0  0  0  0
  3 12  1  0
  4 18  1  0
  5 21  1  0
  5 22  1  0
  6  3  1  0
  8  1  1  6
  8  5  1  0
  9 28  2  0
  9  4  1  0
  9 14  1  1
  9  8  1  0
 10 20  1  0
 11 23  1  0
 12 19  1  0
 15 27  1  0
 16 18  1  0
 18 13  2  0
 18  2  1  1
 19 15  2  0
 19 20  1  0
 20 24  2  0
 21 23  1  0
 22 11  1  0
 23 17  1  6
 24  7  1  0
 24 26  1  0
 25  3  2  0
 26 16  1  0
 27  7  2  0
M  END
>  <GenAI_Model>  (62) 
DiffSBDD

>  <Protein>  (62) 
generic_title2

>  <num_sample>  (62) 
100

$$$$
DiffSBDD_62
     RDKit          3D

 29 31  0  0  0  0  0  0  0  0999 V2000
   10.9030    8.3340   -8.1820 C   0  0  0  0  0  0  0  0  0  0  0  0
    7.7970    4.3530  -12.2540 C   0  0  1  0  0  0  0  0  0  0  0  0
    6.4630    6.8200  -14.3370 C   0  0  0  0  0  0  0  0  0  0  0  0
    7.1840    5.3210  -14.6620 C   0  0  2  0  0  0  0  0  0  0  0  0
   12.9590    8.1480   -3.0290 C   0  0  0  0  0  0  0  0  0  0  0  0
    9.2280    5.9630  -10.5760 C   0  0  0  0  0  0  0  0  0  0  0  0
    9.3310    6.7750   -9.0930 C   0  0  1  0  0  0  0  0  0  0  0  0
   12.3360    8.3470   -1.7040 C   0  0  1  0  0  0  0  0  0  0  0  0
   11.3090    9.4020   -1.8940 O   0  0  0  0  0  0  0  0  0  0  0  0
    9.9830    5.9860  -11.5040 O   0  0  0  0  0  0  0  0  0  0  0  0
    7.8960    5.2460  -10.8170 C   0  0  0  0  0  0  0  0  0  0  0  0
   11.6570    7.0240   -1.3250 C   0  0  0  0  0  0  0  0  0  0  0  0
    8.9120    3.5290  -12.0980 C   0  0  0  0  0  0  0  0  0  0  0  0
   11.3130    6.6450   -3.7390 O   0  0  0  0  0  0  0  0  0  0  0  0
    9.4540    5.8920   -7.8040 C   0  0  1  0  0  0  0  0  0  0  0  0
   10.0250    6.5370   -6.5660 C   0  0  0  0  0  0  0  0  0  0  0  0
   11.7750    8.7190   -4.8280 N   0  0  0  0  0  0  0  0  0  0  0  0
    6.8000    3.7760  -14.6650 C   0  0  0  0  0  0  0  0  0  0  0  0
   11.5760   10.4420   -3.0590 C   0  0  0  0  0  0  0  0  0  0  0  0
   11.4690    8.5310   -5.9910 C   0  0  0  0  0  0  0  0  0  0  0  0
   11.6390    9.8970   -4.1650 C   0  0  0  0  0  0  0  0  0  0  0  0
    6.4540    3.7400  -12.2110 C   0  0  0  0  0  0  0  0  0  0  0  0
    7.8560    4.9520  -13.4570 O   0  0  0  0  0  0  0  0  0  0  0  0
   12.1600    7.6860   -4.0590 C   0  0  0  0  0  0  0  0  0  0  0  0
    8.1580    5.4370   -7.5130 O   0  0  0  0  0  0  0  0  0  0  0  0
    6.2430    3.2360  -13.5790 C   0  0  0  0  0  0  0  0  0  0  0  0
   10.3840    7.9360   -9.3370 C   0  0  0  0  0  0  0  0  0  0  0  0
   10.6680    7.8180   -6.8400 C   0  0  0  0  0  0  0  0  0  0  0  0
   12.5380    5.9600   -1.3540 O   0  0  0  0  0  0  0  0  0  0  0  0
  1 28  2  0
  2 22  1  0
  2 13  1  6
  2 11  1  0
  4  3  1  1
  4 23  1  0
  5  8  1  0
  7  6  1  6
  7 15  1  0
  8 12  1  6
  9  8  1  0
 10  6  2  0
 11  6  1  0
 15 25  1  1
 15 16  1  0
 17 21  1  0
 17 24  1  0
 18  4  1  0
 18 26  1  0
 19  9  1  0
 20 17  1  0
 21 19  1  0
 23  2  1  0
 24 14  2  0
 24  5  1  0
 26 22  1  0
 27  7  1  0
 27  1  1  0
 28 16  1  0
 28 20  1  0
 29 12  1  0
M  END
>  <GenAI_Model>  (63) 
DiffSBDD

>  <Protein>  (63) 
generic_title2

>  <num_sample>  (63) 
100

$$$$
DiffSBDD_63
     RDKit          3D

 26 27  0  0  0  0  0  0  0  0999 V2000
   12.6510    8.1040   -1.9050 C   0  0  0  0  0  0  0  0  0  0  0  0
   11.7080    7.6340   -4.4720 C   0  0  0  0  0  0  0  0  0  0  0  0
    7.4320    6.6790  -12.8460 C   0  0  0  0  0  0  0  0  0  0  0  0
    7.7690    7.8670  -12.2420 C   0  0  0  0  0  0  0  0  0  0  0  0
   11.7220    6.6240   -3.5570 C   0  0  0  0  0  0  0  0  0  0  0  0
    8.4550    5.3860   -9.0110 C   0  0  0  0  0  0  0  0  0  0  0  0
    5.2590    7.2140  -16.0250 C   0  0  0  0  0  0  0  0  0  0  0  0
   13.1820    8.3030   -0.7010 F   0  0  0  0  0  0  0  0  0  0  0  0
   10.2710    6.3980   -7.5220 C   0  0  0  0  0  0  0  0  0  0  0  0
    7.7930    4.5190  -11.4520 C   0  0  0  0  0  0  0  0  0  0  0  0
    6.4470    6.3080  -14.0550 C   0  0  0  0  0  0  0  0  0  0  0  0
    6.0390    5.2230  -14.1200 O   0  0  0  0  0  0  0  0  0  0  0  0
   10.5970    6.3780   -6.0700 N   0  0  0  0  0  0  0  0  0  0  0  0
   10.3960    7.7770   -9.6420 C   0  0  0  0  0  0  0  0  0  0  0  0
    6.0000    6.4060  -17.2820 S   0  0  0  0  0  0  0  0  0  0  0  0
   12.1700    6.7960   -2.2270 C   0  0  0  0  0  0  0  0  0  0  0  0
   11.9260    9.9030   -4.9390 F   0  0  0  0  0  0  0  0  0  0  0  0
   12.5950    9.2180   -2.8040 C   0  0  0  0  0  0  0  0  0  0  0  0
   11.7470    8.2680   -7.2590 S   0  0  0  0  0  0  0  0  0  0  0  0
   10.7460    7.4030   -8.2740 C   0  0  1  0  0  0  0  0  0  0  0  0
    9.6900    5.4430   -8.2170 O   0  0  0  0  0  0  0  0  0  0  0  0
    8.8190    4.6890  -10.2550 C   0  0  0  0  0  0  0  0  0  0  0  0
    7.7550    5.4930  -12.2960 N   0  0  0  0  0  0  0  0  0  0  0  0
    5.9380    7.3320  -14.8540 N   0  0  0  0  0  0  0  0  0  0  0  0
   11.3600    7.4020   -5.8550 C   0  0  0  0  0  0  0  0  0  0  0  0
   12.0910    8.9260   -4.0750 C   0  0  0  0  0  0  0  0  0  0  0  0
  1  8  1  0
  2 26  2  0
  2  5  1  0
  3 23  1  0
  3  4  2  0
  5 16  2  0
  6 21  1  0
  7 24  1  0
  9 13  2  0
 10 22  1  0
 11  3  1  0
 12 11  2  0
 13 25  1  0
 15  7  1  0
 16  1  1  0
 17 26  1  0
 18  1  2  0
 19 25  1  0
 20 14  1  1
 20  9  1  0
 20 19  1  0
 21  9  1  0
 22  6  1  0
 23 10  1  0
 24 11  1  0
 25  2  1  0
 26 18  1  0
M  END
>  <GenAI_Model>  (64) 
DiffSBDD

>  <Protein>  (64) 
generic_title2

>  <num_sample>  (64) 
100

$$$$
DiffSBDD_64
     RDKit          3D

 29 32  0  0  0  0  0  0  0  0999 V2000
    9.0680    6.2650  -13.0150 C   0  0  0  0  0  0  0  0  0  0  0  0
   11.9030    6.2250   -3.3990 C   0  0  0  0  0  0  0  0  0  0  0  0
    7.4780    4.2280  -12.8120 C   0  0  2  0  0  0  0  0  0  0  0  0
    9.3710    7.1510   -7.9080 C   0  0  0  0  0  0  0  0  0  0  0  0
   12.9710    8.8000   -0.5690 C   0  0  0  0  0  0  0  0  0  0  0  0
    5.3970    5.3000  -11.6140 C   0  0  0  0  0  0  0  0  0  0  0  0
    9.8430    7.7350   -9.1350 C   0  0  0  0  0  0  0  0  0  0  0  0
   11.1060    6.4270   -1.1900 O   0  0  0  0  0  0  0  0  0  0  0  0
    5.5990    5.1900  -14.0080 C   0  0  0  0  0  0  0  0  0  0  0  0
    8.2070    3.8860  -11.5290 C   0  0  0  0  0  0  0  0  0  0  0  0
    9.5060    8.0770   -6.5530 C   0  0  0  0  0  0  0  0  0  0  0  0
   13.8700    7.5620   -0.3400 C   0  0  0  0  0  0  0  0  0  0  0  0
   13.5640    6.5170   -1.3910 C   0  0  0  0  0  0  0  0  0  0  0  0
    6.2340    7.6200  -13.6650 C   0  0  0  0  0  0  0  0  0  0  0  0
    7.7710    5.5960  -13.3850 N   0  0  0  0  0  0  0  0  0  0  0  0
    8.5410    8.2750  -11.6520 C   0  0  0  0  0  0  0  0  0  0  0  0
   12.2100    6.9690   -2.0420 C   0  0  1  0  0  0  0  0  0  0  0  0
    5.9400    4.3490  -12.7350 C   0  0  1  0  0  0  0  0  0  0  0  0
    6.7160    6.1700  -14.1270 C   0  0  1  0  0  0  0  0  0  0  0  0
   11.1340    8.4730   -8.8710 C   0  0  0  0  0  0  0  0  0  0  0  0
   11.7470    7.7480   -7.7260 C   0  0  0  0  0  0  0  0  0  0  0  0
   11.1340    6.6000   -4.5910 C   0  0  0  0  0  0  0  0  0  0  0  0
   11.8100    9.0690   -4.1400 C   0  0  0  0  0  0  0  0  0  0  0  0
   12.0120    9.4800   -2.6910 C   0  0  0  0  0  0  0  0  0  0  0  0
   12.2150    8.5340   -1.8840 C   0  0  2  0  0  0  0  0  0  0  0  0
    9.9530    6.5210  -10.3160 S   0  0  0  0  0  0  0  0  0  0  0  0
   10.9150    8.3580   -6.3130 N   0  0  0  0  0  0  0  0  0  0  0  0
   10.9260    8.1300   -4.7670 C   0  0  1  0  0  0  0  0  0  0  0  0
    8.9530    6.9250  -11.7000 C   0  0  2  0  0  0  0  0  0  0  0  0
  1 29  1  0
  2 17  1  0
  3 18  1  0
  3 10  1  1
  4 11  1  0
  5 12  1  0
  7 26  1  0
  7 20  1  0
  7  4  1  0
  9 18  1  0
 11 27  1  0
 13 12  1  0
 15  1  1  0
 15  3  1  0
 17 25  1  0
 17 13  1  0
 17  8  1  1
 18  6  1  1
 19  9  1  0
 19 14  1  1
 19 15  1  0
 20 21  1  0
 22  2  1  0
 23 24  1  0
 25 24  1  6
 25  5  1  0
 27 21  1  0
 28 27  1  6
 28 22  1  0
 28 23  1  0
 29 16  1  6
 29 26  1  0
M  END
>  <GenAI_Model>  (65) 
DiffSBDD

>  <Protein>  (65) 
generic_title2

>  <num_sample>  (65) 
100

$$$$
DiffSBDD_65
     RDKit          3D

 34 36  0  0  0  0  0  0  0  0999 V2000
   11.5790    7.3210   -3.0560 C   0  0  2  0  0  0  0  0  0  0  0  0
    9.1760    6.5510   -7.5910 N   0  0  0  0  0  0  0  0  0  0  0  0
   12.2220    7.1660   -1.6620 C   0  0  0  0  0  0  0  0  0  0  0  0
    9.3210    5.1100  -11.7960 C   0  0  0  0  0  0  0  0  0  0  0  0
    6.1020    4.0020  -14.4040 C   0  0  0  0  0  0  0  0  0  0  0  0
    7.3020    5.7310  -13.3190 C   0  0  1  0  0  0  0  0  0  0  0  0
   11.4590    6.3420   -4.1930 O   0  0  0  0  0  0  0  0  0  0  0  0
    9.9350    4.4970   -8.3840 O   0  0  0  0  0  0  0  0  0  0  0  0
    8.7160    5.9810  -10.8510 O   0  0  0  0  0  0  0  0  0  0  0  0
   13.3350    8.8590   -3.5310 O   0  0  0  0  0  0  0  0  0  0  0  0
   12.0370    8.5730   -3.5770 C   0  0  1  0  0  0  0  0  0  0  0  0
    7.2280    6.8740  -12.3570 C   0  0  0  0  0  0  0  0  0  0  0  0
   12.7850    8.5650   -1.2320 C   0  0  0  0  0  0  0  0  0  0  0  0
    5.1700    5.4290  -11.2140 O   0  0  0  0  0  0  0  0  0  0  0  0
    5.5190    6.3100  -15.0030 C   0  0  0  0  0  0  0  0  0  0  0  0
   10.2130    7.6790   -8.0880 C   0  0  0  0  0  0  0  0  0  0  0  0
   13.0120    6.0750   -1.9050 F   0  0  0  0  0  0  0  0  0  0  0  0
   13.0560    9.5960   -5.9690 C   0  0  0  0  0  0  0  0  0  0  0  0
    9.4340    6.4860   -9.7940 C   0  0  0  0  0  0  0  0  0  0  0  0
   11.9200    8.5690   -6.0440 C   0  0  2  0  0  0  0  0  0  0  0  0
   11.5870    8.4920   -7.5100 C   0  0  0  0  0  0  0  0  0  0  0  0
   12.6290    8.7890   -8.4260 N   0  0  0  0  0  0  0  0  0  0  0  0
   11.3140    8.6890   -4.9060 O   0  0  0  0  0  0  0  0  0  0  0  0
    7.3130    8.2940  -12.6390 C   0  0  0  0  0  0  0  0  0  0  0  0
   11.0160    7.0750   -1.0020 F   0  0  0  0  0  0  0  0  0  0  0  0
   11.0760    7.9930  -10.1830 C   0  0  0  0  0  0  0  0  0  0  0  0
    6.7820    5.3560  -14.8340 C   0  0  2  0  0  0  0  0  0  0  0  0
   10.2310    7.5170   -9.3740 C   0  0  0  0  0  0  0  0  0  0  0  0
    5.6180    4.1610  -11.8910 C   0  0  0  0  0  0  0  0  0  0  0  0
   12.0450    9.7850   -1.3110 O   0  0  0  0  0  0  0  0  0  0  0  0
    9.4240    5.5910   -8.5970 C   0  0  0  0  0  0  0  0  0  0  0  0
    8.7610    5.2860  -13.1700 O   0  0  0  0  0  0  0  0  0  0  0  0
   12.3500    8.4780   -9.7730 C   0  0  0  0  0  0  0  0  0  0  0  0
    6.6790    4.3480  -13.0120 C   0  0  1  0  0  0  0  0  0  0  0  0
  1  7  1  6
  1  3  1  0
  3 13  1  0
  3 25  1  0
  4  9  1  0
  5 34  1  0
  6 32  1  0
  6 34  1  0
  6 12  1  1
 11 10  1  6
 11  1  1  0
 16  2  1  0
 16 21  1  0
 17  3  1  0
 19  9  1  0
 19 28  1  0
 19 31  1  0
 20 18  1  6
 20 23  1  0
 21 20  1  0
 22 21  2  0
 23 11  1  0
 24 12  1  0
 26 33  2  0
 26 28  1  0
 27 15  1  1
 27  5  1  0
 27  6  1  0
 28 16  2  0
 29 14  1  0
 30 13  1  0
 31  8  2  0
 31  2  1  0
 32  4  1  0
 33 22  1  0
 34 29  1  1
M  END
>  <GenAI_Model>  (66) 
DiffSBDD

>  <Protein>  (66) 
generic_title2

>  <num_sample>  (66) 
100

$$$$
DiffSBDD_66
     RDKit          3D

 21 23  0  0  0  0  0  0  0  0999 V2000
   13.1320    5.6420   -2.3410 F   0  0  0  0  0  0  0  0  0  0  0  0
   12.4570    9.1620   -2.9010 C   0  0  0  0  0  0  0  0  0  0  0  0
    8.8740    6.5300  -10.0260 N   0  0  0  0  0  0  0  0  0  0  0  0
   12.0720    7.7990   -3.1550 C   0  0  2  0  0  0  0  0  0  0  0  0
   12.3300    6.7970   -2.0470 C   0  0  0  0  0  0  0  0  0  0  0  0
   11.5190    9.5630   -6.1550 C   0  0  0  0  0  0  0  0  0  0  0  0
   12.2210    9.8100   -3.8910 N   0  0  0  0  0  0  0  0  0  0  0  0
   11.1980    6.2570   -1.6650 F   0  0  0  0  0  0  0  0  0  0  0  0
   10.5730    6.3960   -7.9650 C   0  0  1  0  0  0  0  0  0  0  0  0
   10.8480    6.7660   -5.5700 C   0  0  0  0  0  0  0  0  0  0  0  0
    7.3520    4.7160  -10.1560 O   0  0  0  0  0  0  0  0  0  0  0  0
   10.3600    7.4730   -6.9100 C   0  0  1  0  0  0  0  0  0  0  0  0
    8.9630    6.4650  -11.2260 C   0  0  2  0  0  0  0  0  0  0  0  0
   11.2040    8.6600   -7.3270 C   0  0  0  0  0  0  0  0  0  0  0  0
   12.9840    7.4230   -0.9570 F   0  0  0  0  0  0  0  0  0  0  0  0
    8.6240    5.1820  -10.5800 C   0  0  1  0  0  0  0  0  0  0  0  0
   11.5850    7.7690   -4.5930 C   0  0  0  0  0  0  0  0  0  0  0  0
    9.9750    5.0940   -8.0630 O   0  0  0  0  0  0  0  0  0  0  0  0
   10.0100    6.8490   -9.1820 N   0  0  0  0  0  0  0  0  0  0  0  0
    9.8070    6.6490  -12.2170 O   0  0  0  0  0  0  0  0  0  0  0  0
   11.8350    9.0530   -4.8860 C   0  0  0  0  0  0  0  0  0  0  0  0
  1  5  1  0
  3 19  1  0
  4  2  1  0
  4  5  1  6
  5  8  1  0
  5 15  1  0
  6 21  1  0
  7  2  2  0
  9 18  1  1
 10 17  1  0
 12  9  1  0
 12 10  1  1
 13 20  1  1
 13 16  1  0
 13  3  1  0
 14 12  1  0
 14  6  1  0
 16 11  1  6
 16  3  1  0
 17  4  1  0
 19  9  1  0
 21 17  2  0
 21  7  1  0
M  END
>  <GenAI_Model>  (67) 
DiffSBDD

>  <Protein>  (67) 
generic_title2

>  <num_sample>  (67) 
100

$$$$
DiffSBDD_67
     RDKit          3D

 30 32  0  0  0  0  0  0  0  0999 V2000
   11.8370    8.1850   -4.0240 C   0  0  0  0  0  0  0  0  0  0  0  0
   10.5520    7.0030   -7.4420 C   0  0  0  0  0  0  0  0  0  0  0  0
   11.9390    6.4810   -1.9850 C   0  0  0  0  0  0  0  0  0  0  0  0
    9.7280    6.5960  -11.6490 C   0  0  0  0  0  0  0  0  0  0  0  0
   12.1560   10.4100   -3.5980 F   0  0  0  0  0  0  0  0  0  0  0  0
    8.3590    4.3160  -11.2410 C   0  0  0  0  0  0  0  0  0  0  0  0
    6.5010    5.0000  -13.8280 C   0  0  0  0  0  0  0  0  0  0  0  0
    6.2400    7.2200  -14.9170 C   0  0  0  0  0  0  0  0  0  0  0  0
    6.9460    4.5980  -11.4600 C   0  0  2  0  0  0  0  0  0  0  0  0
    7.0300    6.5220  -12.8510 C   0  0  0  0  0  0  0  0  0  0  0  0
   11.5970    8.8160   -6.7350 C   0  0  0  0  0  0  0  0  0  0  0  0
   11.0610    7.6980   -6.3550 C   0  0  0  0  0  0  0  0  0  0  0  0
    6.4050    7.5020  -13.5800 C   0  0  0  0  0  0  0  0  0  0  0  0
    9.1930    8.4300   -9.9920 C   0  0  0  0  0  0  0  0  0  0  0  0
   11.9200    9.8950   -5.7660 C   0  0  0  0  0  0  0  0  0  0  0  0
    6.1210    3.2130  -12.4900 C   0  0  0  0  0  0  0  0  0  0  0  0
   11.9950    9.5180   -4.4050 C   0  0  0  0  0  0  0  0  0  0  0  0
   10.1160    7.2590   -9.7870 C   0  0  2  0  0  0  0  0  0  0  0  0
    8.9510    7.9480  -11.4300 C   0  0  0  0  0  0  0  0  0  0  0  0
    9.7890    6.0000   -7.3630 O   0  0  0  0  0  0  0  0  0  0  0  0
   11.2500    7.2640   -5.0030 C   0  0  0  0  0  0  0  0  0  0  0  0
    9.8680    6.0780  -10.3750 N   0  0  0  0  0  0  0  0  0  0  0  0
   13.1590    6.0120   -1.9090 F   0  0  0  0  0  0  0  0  0  0  0  0
   12.6490    8.7210   -1.5000 C   0  0  0  0  0  0  0  0  0  0  0  0
    9.1090    4.9900  -10.0250 C   0  0  0  0  0  0  0  0  0  0  0  0
   12.0240    7.8370   -2.5180 C   0  0  0  0  0  0  0  0  0  0  0  0
    6.4270    5.4350  -12.4410 C   0  0  0  0  0  0  0  0  0  0  0  0
   11.1160    7.7060   -8.7590 C   0  0  0  0  0  0  0  0  0  0  0  0
   12.9840    8.1210   -0.4060 F   0  0  0  0  0  0  0  0  0  0  0  0
    6.0320    5.8250  -14.8390 C   0  0  0  0  0  0  0  0  0  0  0  0
  1 26  1  0
  2 20  2  0
  2 12  1  0
  3 23  1  0
  4 19  1  0
  4 22  1  0
  6 25  1  0
  7 27  1  0
  8 30  1  0
  8 13  1  0
  9 16  1  6
  9  6  1  0
 10 27  1  0
 11 12  1  0
 11 15  2  0
 12 21  2  0
 13 10  1  0
 14 18  1  0
 15 17  1  0
 17  1  2  0
 17  5  1  0
 18 28  1  1
 19 14  1  0
 21  1  1  0
 22 25  1  0
 22 18  1  0
 24 29  1  0
 26  3  1  0
 26 24  1  0
 27  9  1  0
 28  2  1  0
 30  7  1  0
M  END
>  <GenAI_Model>  (68) 
DiffSBDD

>  <Protein>  (68) 
generic_title2

>  <num_sample>  (68) 
100

$$$$
DiffSBDD_68
     RDKit          3D

 19 21  0  0  0  0  0  0  0  0999 V2000
   11.8620    6.9280   -3.3180 C   0  0  0  0  0  0  0  0  0  0  0  0
    9.3510    6.0530  -10.2610 C   0  0  0  0  0  0  0  0  0  0  0  0
   12.4710    6.4770   -2.4020 C   0  0  0  0  0  0  0  0  0  0  0  0
   10.7440    7.7600   -6.5200 C   0  0  0  0  0  0  0  0  0  0  0  0
   12.0900    9.8270   -3.1710 C   0  0  0  0  0  0  0  0  0  0  0  0
    8.2640    5.6200   -9.4190 N   0  0  0  0  0  0  0  0  0  0  0  0
   11.5940    7.7760   -4.2650 C   0  0  0  0  0  0  0  0  0  0  0  0
    9.7590    7.4960  -10.0550 C   0  0  0  0  0  0  0  0  0  0  0  0
    8.7190    5.0930   -8.1240 C   0  0  0  0  0  0  0  0  0  0  0  0
   12.9430    7.7580   -0.3350 F   0  0  0  0  0  0  0  0  0  0  0  0
   11.0820    7.0650   -5.4450 C   0  0  0  0  0  0  0  0  0  0  0  0
   12.7290    8.0370   -1.5260 C   0  0  2  0  0  0  0  0  0  0  0  0
   10.9210    9.1680   -6.5720 C   0  0  0  0  0  0  0  0  0  0  0  0
   12.3550    9.1630   -2.1240 C   0  0  0  0  0  0  0  0  0  0  0  0
   10.1280    5.5480   -7.7500 C   0  0  0  0  0  0  0  0  0  0  0  0
   10.3980    6.9390   -7.7590 N   0  0  0  0  0  0  0  0  0  0  0  0
   10.8260    7.6250   -8.9300 C   0  0  0  0  0  0  0  0  0  0  0  0
   11.6370    9.1150   -4.2940 C   0  0  0  0  0  0  0  0  0  0  0  0
   11.3450    9.8300   -5.4790 C   0  0  0  0  0  0  0  0  0  0  0  0
  1  3  1  0
  2  8  1  0
  2  6  1  0
  3 12  1  0
  4 11  2  0
  5 14  1  0
  6  9  1  0
  7  1  1  0
  8 17  1  0
  9 15  1  0
 11  7  1  0
 12 10  1  1
 13  4  1  0
 13 19  2  0
 14 12  1  0
 16 15  1  0
 16  4  1  0
 17 16  1  0
 18  7  2  0
 18  5  1  0
 19 18  1  0
M  END
>  <GenAI_Model>  (69) 
DiffSBDD

>  <Protein>  (69) 
generic_title2

>  <num_sample>  (69) 
100

$$$$
DiffSBDD_69
     RDKit          3D

 32 35  0  0  0  0  0  0  0  0999 V2000
   11.3210    7.4810   -5.0070 C   0  0  0  0  0  0  0  0  0  0  0  0
    9.4390    7.0520  -11.6150 C   0  0  1  0  0  0  0  0  0  0  0  0
    5.6540    6.4410  -13.8850 C   0  0  0  0  0  0  0  0  0  0  0  0
   10.5480    7.3310   -8.0860 C   0  0  1  0  0  0  0  0  0  0  0  0
   11.8230    6.6550   -2.8250 C   0  0  0  0  0  0  0  0  0  0  0  0
   11.6980    7.4310  -10.6430 C   0  0  0  0  0  0  0  0  0  0  0  0
   13.1700    5.9880   -1.4260 F   0  0  0  0  0  0  0  0  0  0  0  0
   11.8300    7.7340   -3.7570 C   0  0  1  0  0  0  0  0  0  0  0  0
   10.3050    7.0360  -10.4130 C   0  0  1  0  0  0  0  0  0  0  0  0
   10.1390    6.4650   -6.9320 C   0  0  0  0  0  0  0  0  0  0  0  0
    6.7430    7.2960  -13.3010 C   0  0  0  0  0  0  0  0  0  0  0  0
   11.7600    8.4400   -7.6280 S   0  0  0  0  0  0  0  0  0  0  0  0
   12.3400    9.5560   -4.9380 C   0  0  0  0  0  0  0  0  0  0  0  0
   12.3930    7.0850   -1.6220 C   0  0  0  0  0  0  0  0  0  0  0  0
    6.1130    5.2060  -13.2530 C   0  0  0  0  0  0  0  0  0  0  0  0
   11.7330    8.6970   -5.9850 C   0  0  0  0  0  0  0  0  0  0  0  0
    6.9910    4.6080  -16.3310 C   0  0  0  0  0  0  0  0  0  0  0  0
    7.3950    5.9830  -12.8770 C   0  0  0  0  0  0  0  0  0  0  0  0
   12.3710    8.9850   -3.5820 C   0  0  0  0  0  0  0  0  0  0  0  0
   13.1740    8.1410   -1.3380 F   0  0  0  0  0  0  0  0  0  0  0  0
    9.7850    7.8430  -12.9040 C   0  0  0  0  0  0  0  0  0  0  0  0
    7.7540    4.2270  -14.9760 C   0  0  0  0  0  0  0  0  0  0  0  0
    6.9870    4.3210  -17.8020 C   0  0  0  0  0  0  0  0  0  0  0  0
    8.7460    6.0760   -8.7980 C   0  0  0  0  0  0  0  0  0  0  0  0
    8.0330    4.9470  -10.7430 C   0  0  0  0  0  0  0  0  0  0  0  0
   11.3020    7.2530   -0.8560 F   0  0  0  0  0  0  0  0  0  0  0  0
    8.1270    4.9920   -9.5250 N   0  0  0  0  0  0  0  0  0  0  0  0
    8.4520    5.9660  -11.6950 C   0  0  2  0  0  0  0  0  0  0  0  0
    9.7600    6.7170   -9.1070 C   0  0  2  0  0  0  0  0  0  0  0  0
    8.3020    5.5130  -14.2550 C   0  0  0  0  0  0  0  0  0  0  0  0
    7.5780    3.8430  -11.2360 O   0  0  0  0  0  0  0  0  0  0  0  0
   10.5650    6.5220   -5.5140 C   0  0  0  0  0  0  0  0  0  0  0  0
  1  8  1  0
  2 21  1  6
  2  9  1  0
  3 11  1  0
  3 15  1  0
  4 12  1  6
  4 10  1  0
  5 14  1  0
  8 19  1  0
  8  5  1  6
  9  6  1  1
  9 29  1  0
 10 32  2  0
 11 18  1  0
 12 16  1  0
 13 19  2  0
 14  7  1  0
 14 20  1  0
 14 26  1  0
 15 18  1  0
 16  1  2  0
 16 13  1  0
 17 22  1  0
 22 30  1  0
 23 17  1  0
 25 27  1  0
 27 24  1  0
 28 18  1  1
 28  2  1  0
 28 25  1  0
 29 24  1  6
 29  4  1  0
 30 18  1  0
 31 25  2  0
 32  1  1  0
M  END
>  <GenAI_Model>  (70) 
DiffSBDD

>  <Protein>  (70) 
generic_title2

>  <num_sample>  (70) 
100

$$$$
DiffSBDD_70
     RDKit          3D

 36 40  0  0  0  0  0  0  0  0999 V2000
   11.4930    7.3820  -12.1280 C   0  0  0  0  0  0  0  0  0  0  0  0
    5.8050    7.4920  -15.5460 C   0  0  0  0  0  0  0  0  0  0  0  0
   10.3800    7.8460   -9.0230 C   0  0  0  0  0  0  0  0  0  0  0  0
    6.2370    6.8250  -14.4090 C   0  0  0  0  0  0  0  0  0  0  0  0
   12.8800    8.8060   -0.9490 C   0  0  0  0  0  0  0  0  0  0  0  0
   12.0100   10.4030   -2.5580 N   0  0  0  0  0  0  0  0  0  0  0  0
    6.6600    1.9400  -13.7870 C   0  0  0  0  0  0  0  0  0  0  0  0
    7.0610    4.3150  -14.7300 C   0  0  2  0  0  0  0  0  0  0  0  0
    8.3450    4.1390  -15.6580 C   0  0  0  0  0  0  0  0  0  0  0  0
    9.0160    8.7570  -10.7470 C   0  0  0  0  0  0  0  0  0  0  0  0
    6.9170    3.4850  -13.4850 C   0  0  2  0  0  0  0  0  0  0  0  0
   11.3730    7.1780   -5.2260 O   0  0  0  0  0  0  0  0  0  0  0  0
    7.5790    5.2710  -15.7120 C   0  0  2  0  0  0  0  0  0  0  0  0
    8.4240    4.9460  -12.2340 C   0  0  0  0  0  0  0  0  0  0  0  0
    7.0820    4.0500  -12.3260 C   0  0  0  0  0  0  0  0  0  0  0  0
    9.8610    7.4970  -10.2790 C   0  0  1  0  0  0  0  0  0  0  0  0
   12.5400    6.4060   -1.3730 C   0  0  0  0  0  0  0  0  0  0  0  0
   11.4450    7.5080   -6.5470 C   0  0  0  0  0  0  0  0  0  0  0  0
   11.1080    7.0330  -10.9530 O   0  0  0  0  0  0  0  0  0  0  0  0
   13.8750    7.0600    0.8450 Cl  0  0  0  0  0  0  0  0  0  0  0  0
    9.0690    5.0280  -10.7980 C   0  0  0  0  0  0  0  0  0  0  0  0
    9.1090    6.1580   -8.4080 C   0  0  2  0  0  0  0  0  0  0  0  0
   13.0430    7.4290   -0.6300 C   0  0  0  0  0  0  0  0  0  0  0  0
    6.1570    4.0540  -11.3810 C   0  0  0  0  0  0  0  0  0  0  0  0
    8.4000    5.0340   -7.9120 C   0  0  0  0  0  0  0  0  0  0  0  0
    9.8730    7.3090   -8.0900 N   0  0  0  0  0  0  0  0  0  0  0  0
   12.0620    6.6470   -2.6600 C   0  0  0  0  0  0  0  0  0  0  0  0
   10.0980    8.0000   -6.8790 C   0  0  0  0  0  0  0  0  0  0  0  0
   12.2830    9.1290   -2.1890 C   0  0  0  0  0  0  0  0  0  0  0  0
   11.4670    9.7010   -4.8100 N   0  0  0  0  0  0  0  0  0  0  0  0
   11.5250   10.6960   -3.7920 C   0  0  0  0  0  0  0  0  0  0  0  0
    7.1670    5.6910  -14.3850 N   0  0  0  0  0  0  0  0  0  0  0  0
   11.3080    8.5300   -8.9680 O   0  0  0  0  0  0  0  0  0  0  0  0
    8.8690    6.3320   -9.9900 C   0  0  1  0  0  0  0  0  0  0  0  0
   11.6800    8.3820   -4.4250 C   0  0  0  0  0  0  0  0  0  0  0  0
   12.0040    8.0410   -3.0690 C   0  0  0  0  0  0  0  0  0  0  0  0
  1 19  1  0
  2  4  1  0
  3 33  2  0
  3 26  1  0
  4 32  1  0
  5 23  2  0
  6 29  2  0
  8 32  1  0
  8 11  1  0
  8  9  1  1
 11  7  1  6
 11 15  1  0
 12 35  1  0
 13  9  1  1
 13  8  1  0
 13 32  1  0
 14 21  1  0
 15 14  1  0
 15 24  2  0
 16 10  1  6
 16 34  1  0
 16  3  1  0
 17 23  1  0
 18 12  1  0
 19 16  1  0
 22 26  1  0
 22 25  1  1
 23 20  1  0
 26 28  1  0
 27 17  2  0
 28 18  1  0
 29  5  1  0
 30 35  1  0
 30 31  2  0
 31  6  1  0
 34 21  1  6
 34 22  1  0
 35 36  2  0
 36 27  1  0
 36 29  1  0
M  END
>  <GenAI_Model>  (71) 
DiffSBDD

>  <Protein>  (71) 
generic_title2

>  <num_sample>  (71) 
100

$$$$
DiffSBDD_71
     RDKit          3D

 28 30  0  0  0  0  0  0  0  0999 V2000
    9.6910    6.6640   -8.0390 C   0  0  0  0  0  0  0  0  0  0  0  0
    9.6050    8.5190  -11.3580 O   0  0  0  0  0  0  0  0  0  0  0  0
    8.0620    3.9700  -13.9830 C   0  0  1  0  0  0  0  0  0  0  0  0
    7.7040    4.5240  -10.8470 C   0  0  0  0  0  0  0  0  0  0  0  0
    9.8570    8.2660   -9.9940 C   0  0  0  0  0  0  0  0  0  0  0  0
   11.9570    6.4870   -3.1640 C   0  0  0  0  0  0  0  0  0  0  0  0
    7.8640    6.1970  -12.7380 C   0  0  0  0  0  0  0  0  0  0  0  0
    9.2480    7.0370   -9.3930 N   0  0  0  0  0  0  0  0  0  0  0  0
   12.1700    9.4550   -3.5850 C   0  0  0  0  0  0  0  0  0  0  0  0
   12.8740    7.0400   -1.0860 O   0  0  0  0  0  0  0  0  0  0  0  0
    6.7730    3.9460  -14.5990 O   0  0  0  0  0  0  0  0  0  0  0  0
    9.4900    5.9050  -10.2940 C   0  0  0  0  0  0  0  0  0  0  0  0
    8.9130    5.5580   -7.4800 C   0  0  0  0  0  0  0  0  0  0  0  0
    7.1370    3.5760  -11.8530 C   0  0  2  0  0  0  0  0  0  0  0  0
   12.4000    8.7450   -2.5250 C   0  0  0  0  0  0  0  0  0  0  0  0
   11.4560    6.7040   -4.4070 C   0  0  0  0  0  0  0  0  0  0  0  0
   12.3660    7.3800   -2.2660 C   0  0  1  0  0  0  0  0  0  0  0  0
    8.3470    5.4170  -13.8980 C   0  0  0  0  0  0  0  0  0  0  0  0
    8.0670    3.2210  -12.8200 O   0  0  0  0  0  0  0  0  0  0  0  0
    5.3490    5.6730  -14.1710 O   0  0  0  0  0  0  0  0  0  0  0  0
   10.8050    7.3640   -7.4240 C   0  0  0  0  0  0  0  0  0  0  0  0
    8.3640    5.7320  -11.3840 C   0  0  2  0  0  0  0  0  0  0  0  0
    5.7500    4.3580  -13.7310 C   0  0  0  0  0  0  0  0  0  0  0  0
   11.7420    9.0290   -4.7960 C   0  0  0  0  0  0  0  0  0  0  0  0
   11.3330    7.8160   -5.1410 C   0  0  0  0  0  0  0  0  0  0  0  0
   10.4780    7.7110   -6.2060 O   0  0  0  0  0  0  0  0  0  0  0  0
    5.7210    4.0980  -12.3660 C   0  0  0  0  0  0  0  0  0  0  0  0
   11.9500    7.5270   -7.8500 O   0  0  0  0  0  0  0  0  0  0  0  0
  1 13  1  0
  1 21  1  0
  2  5  1  0
  3 18  1  1
  3 19  1  0
  5  8  1  0
  6 17  1  0
  7 22  1  0
  8  1  1  0
  9 15  2  0
 11  3  1  0
 11 23  1  0
 12  8  1  0
 14 27  1  6
 14  4  1  0
 15 17  1  0
 16  6  2  0
 17 10  1  6
 18  7  1  0
 19 14  1  0
 20 23  2  0
 21 26  1  0
 22  4  1  0
 22 12  1  6
 23 27  1  0
 24  9  1  0
 25 24  2  0
 25 16  1  0
 26 25  1  0
 28 21  2  0
M  END
>  <GenAI_Model>  (72) 
DiffSBDD

>  <Protein>  (72) 
generic_title2

>  <num_sample>  (72) 
100

$$$$
DiffSBDD_72
     RDKit          3D

 21 23  0  0  0  0  0  0  0  0999 V2000
   12.2060    7.5830   -2.6900 C   0  0  0  0  0  0  0  0  0  0  0  0
   11.1650    6.5300   -6.3050 C   0  0  0  0  0  0  0  0  0  0  0  0
   11.0580    9.0160   -7.4860 C   0  0  0  0  0  0  0  0  0  0  0  0
   11.7750    8.5160   -4.8870 C   0  0  0  0  0  0  0  0  0  0  0  0
   12.4640    6.7000   -1.4170 C   0  0  0  0  0  0  0  0  0  0  0  0
   11.8890    9.6630   -4.1950 C   0  0  0  0  0  0  0  0  0  0  0  0
    5.9870    5.6560  -12.6130 C   0  0  0  0  0  0  0  0  0  0  0  0
    6.2470    4.1890  -12.7790 C   0  0  0  0  0  0  0  0  0  0  0  0
   11.5160    8.0310   -6.2980 C   0  0  1  0  0  0  0  0  0  0  0  0
   12.0030    7.3470   -3.9680 N   0  0  0  0  0  0  0  0  0  0  0  0
    8.9600    5.3430  -10.7290 C   0  0  0  0  0  0  0  0  0  0  0  0
   10.2070    7.0120   -9.1760 C   0  0  2  0  0  0  0  0  0  0  0  0
    9.9540    8.4200   -8.3340 C   0  0  0  0  0  0  0  0  0  0  0  0
    8.0660    5.4180  -11.9840 C   0  0  1  0  0  0  0  0  0  0  0  0
    7.6770    4.0840  -12.5600 C   0  0  0  0  0  0  0  0  0  0  0  0
   12.2440    9.4040   -2.5580 S   0  0  0  0  0  0  0  0  0  0  0  0
    6.8340    6.0030  -11.6460 O   0  0  0  0  0  0  0  0  0  0  0  0
    9.5130    7.5710  -11.5560 O   0  0  0  0  0  0  0  0  0  0  0  0
    9.4250    6.6910  -10.4080 N   0  0  0  0  0  0  0  0  0  0  0  0
    9.7640    5.8780   -8.1610 C   0  0  0  0  0  0  0  0  0  0  0  0
    9.7070    6.2500   -6.7120 C   0  0  0  0  0  0  0  0  0  0  0  0
  1 16  1  0
  1  5  1  0
  2  9  1  0
  3  9  1  0
  4  6  2  0
  4 10  1  0
  6 16  1  0
  7 17  1  0
  8  7  1  0
  8 15  1  0
  9  4  1  1
 10  1  2  0
 11 19  1  0
 12 19  1  6
 12 13  1  0
 12 20  1  0
 13  3  1  0
 14 17  1  0
 14 11  1  1
 15 14  1  0
 18 19  1  0
 20 21  1  0
 21  2  1  0
M  END
>  <GenAI_Model>  (73) 
DiffSBDD

>  <Protein>  (73) 
generic_title2

>  <num_sample>  (73) 
100

$$$$
DiffSBDD_73
     RDKit          3D

 37 43  0  0  0  0  0  0  0  0999 V2000
    8.8480    5.8710   -8.2110 O   0  0  0  0  0  0  0  0  0  0  0  0
    6.0520    5.1420  -11.5670 C   0  0  0  0  0  0  0  0  0  0  0  0
    9.7620    8.4420   -8.5890 C   0  0  0  0  0  0  0  0  0  0  0  0
    9.1250    6.1410   -9.5100 C   0  0  0  0  0  0  0  0  0  0  0  0
   10.8000    7.3880  -10.8450 O   0  0  0  0  0  0  0  0  0  0  0  0
   10.7110    7.8340   -7.5810 C   0  0  0  0  0  0  0  0  0  0  0  0
    6.2100    3.9890  -14.3480 C   0  0  0  0  0  0  0  0  0  0  0  0
   11.7120    6.2600   -3.9830 C   0  0  2  0  0  0  0  0  0  0  0  0
   11.5840    8.3530   -2.8390 O   0  0  0  0  0  0  0  0  0  0  0  0
    9.8350    7.4190   -9.6880 C   0  0  2  0  0  0  0  0  0  0  0  0
   10.7070    6.3280   -1.0160 C   0  0  0  0  0  0  0  0  0  0  0  0
    5.9710    6.1830  -12.8910 C   0  0  1  0  0  0  0  0  0  0  0  0
   12.9840    8.0440   -4.5730 F   0  0  0  0  0  0  0  0  0  0  0  0
    7.1090    3.3200  -13.3110 C   0  0  1  0  0  0  0  0  0  0  0  0
   13.8170    9.0590   -0.5520 F   0  0  0  0  0  0  0  0  0  0  0  0
    8.5400    5.1510  -12.8390 C   0  0  1  0  0  0  0  0  0  0  0  0
   12.4260    8.0280   -1.7200 C   0  0  2  0  0  0  0  0  0  0  0  0
   11.8480    7.7840   -4.0790 C   0  0  1  0  0  0  0  0  0  0  0  0
    8.2450    5.9110  -14.1910 C   0  0  0  0  0  0  0  0  0  0  0  0
   10.7050    8.2080   -4.9180 C   0  0  1  0  0  0  0  0  0  0  0  0
   12.2410    6.5160   -1.4940 C   0  0  1  0  0  0  0  0  0  0  0  0
   10.6870    9.3150   -5.8510 C   0  0  0  0  0  0  0  0  0  0  0  0
   12.0560    8.6310    0.4750 F   0  0  0  0  0  0  0  0  0  0  0  0
    6.7390    6.4870  -14.1420 C   0  0  1  0  0  0  0  0  0  0  0  0
    8.9470    4.0690  -10.7630 C   0  0  0  0  0  0  0  0  0  0  0  0
   13.0950    6.0670   -0.5950 F   0  0  0  0  0  0  0  0  0  0  0  0
   12.5820    8.9370   -0.7970 C   0  0  0  0  0  0  0  0  0  0  0  0
    8.3150    6.2860  -11.8090 C   0  0  1  0  0  0  0  0  0  0  0  0
    8.8710    5.4570  -10.5790 C   0  0  1  0  0  0  0  0  0  0  0  0
   10.9360    8.0850   -6.4860 C   0  0  2  0  0  0  0  0  0  0  0  0
    8.1940    3.8200  -12.2540 C   0  0  2  0  0  0  0  0  0  0  0  0
    7.9540    7.5990  -11.6830 O   0  0  0  0  0  0  0  0  0  0  0  0
   12.0340    9.9240   -1.3050 F   0  0  0  0  0  0  0  0  0  0  0  0
   12.8230    5.8710   -2.9270 C   0  0  0  0  0  0  0  0  0  0  0  0
   12.0460    5.8130   -5.3530 F   0  0  0  0  0  0  0  0  0  0  0  0
    6.7490    3.8830  -11.8590 C   0  0  1  0  0  0  0  0  0  0  0  0
    5.6550    5.4750  -14.1510 C   0  0  1  0  0  0  0  0  0  0  0  0
  3  6  1  0
  4  1  1  0
  8 35  1  6
  8 34  1  0
  9 17  1  0
 10  5  1  1
 10  4  1  0
 10  3  1  0
 12  2  1  1
 14  7  1  6
 14 31  1  0
 14 36  1  0
 16 19  1  6
 16 31  1  0
 16 28  1  0
 17 21  1  0
 17 27  1  1
 18 13  1  6
 18  8  1  0
 18  9  1  0
 20 22  1  6
 20 18  1  0
 21 11  1  1
 21 26  1  0
 24 19  1  1
 24 12  1  0
 25 29  1  0
 27 15  1  0
 27 23  1  0
 28 32  1  6
 28 29  1  0
 29  4  1  1
 30  6  1  6
 30 22  1  0
 30 20  1  0
 31 36  1  0
 31 25  1  1
 33 27  1  0
 34 21  1  0
 36  2  1  6
 37  7  1  1
 37 24  1  0
 37 12  1  0
M  END
>  <GenAI_Model>  (74) 
DiffSBDD

>  <Protein>  (74) 
generic_title2

>  <num_sample>  (74) 
100

$$$$
DiffSBDD_74
     RDKit          3D

 47 54  0  0  0  0  0  0  0  0999 V2000
    6.4580    3.6060  -12.8520 C   0  0  2  0  0  0  0  0  0  0  0  0
   11.6330    7.5660   -4.9430 N   0  0  0  0  0  0  0  0  0  0  0  0
   11.8580    9.2410   -3.4630 C   0  0  0  0  0  0  0  0  0  0  0  0
   10.8160    6.5300   -5.1760 C   0  0  0  0  0  0  0  0  0  0  0  0
    9.4530    3.9470   -9.7250 F   0  0  0  0  0  0  0  0  0  0  0  0
    5.4240    5.3220  -14.0870 O   0  0  0  0  0  0  0  0  0  0  0  0
    9.2370    9.3140  -10.2690 O   0  0  0  0  0  0  0  0  0  0  0  0
   12.0340    8.4130   -6.0450 C   0  0  0  0  0  0  0  0  0  0  0  0
   13.2010   10.3810   -0.4000 C   0  0  0  0  0  0  0  0  0  0  0  0
    6.6340    5.0020  -13.4760 C   0  0  1  0  0  0  0  0  0  0  0  0
    9.1990    6.5970  -13.9850 C   0  0  2  0  0  0  0  0  0  0  0  0
   11.9680    7.9010   -3.6190 C   0  0  0  0  0  0  0  0  0  0  0  0
   13.3730    8.2580   -9.9950 C   0  0  0  0  0  0  0  0  0  0  0  0
    8.0970    6.1930  -11.5760 C   0  0  1  0  0  0  0  0  0  0  0  0
   12.7950    9.3810   -1.2700 C   0  0  0  0  0  0  0  0  0  0  0  0
    8.3610    4.6920   -9.4760 C   0  0  0  0  0  0  0  0  0  0  0  0
    9.4310    6.5920   -8.4550 C   0  0  2  0  0  0  0  0  0  0  0  0
    9.0080    8.3630  -11.8420 C   0  0  2  0  0  0  0  0  0  0  0  0
    7.5030    4.8970  -11.0360 C   0  0  1  0  0  0  0  0  0  0  0  0
   10.9180    6.0580   -6.4160 O   0  0  0  0  0  0  0  0  0  0  0  0
   11.6950    5.8610  -12.8810 O   0  0  0  0  0  0  0  0  0  0  0  0
    8.2990    4.8470  -15.5460 O   0  0  0  0  0  0  0  0  0  0  0  0
   10.7780    6.2680  -14.0530 C   0  0  1  0  0  0  0  0  0  0  0  0
   12.0130    8.5790   -9.0770 S   0  0  1  0  0  0  0  0  0  0  0  0
    8.7730    9.3270  -12.6670 C   0  0  0  0  0  0  0  0  0  0  0  0
   11.3860    5.8750  -15.5040 C   0  0  0  0  0  0  0  0  0  0  0  0
    6.3210    2.4220  -13.7170 C   0  0  0  0  0  0  0  0  0  0  0  0
   13.5890   11.1320    0.2930 N   0  0  0  0  0  0  0  0  0  0  0  0
   11.2390   10.0570   -4.4300 C   0  0  0  0  0  0  0  0  0  0  0  0
   12.3420    6.8420   -2.8070 C   0  0  0  0  0  0  0  0  0  0  0  0
    6.3610    7.2000  -12.9430 C   0  0  0  0  0  0  0  0  0  0  0  0
    7.3540    6.2000  -12.7750 C   0  0  2  0  0  0  0  0  0  0  0  0
   10.1110    6.0220   -4.3320 O   0  0  0  0  0  0  0  0  0  0  0  0
    9.1030    7.9430   -7.9960 C   0  0  0  0  0  0  0  0  0  0  0  0
   10.7990    7.9300  -10.1130 C   0  0  0  0  0  0  0  0  0  0  0  0
    6.3420    4.4760  -11.3040 C   0  0  0  0  0  0  0  0  0  0  0  0
    7.6050    4.3240   -8.6010 F   0  0  0  0  0  0  0  0  0  0  0  0
    8.7490    6.2800   -9.7210 C   0  0  2  0  0  0  0  0  0  0  0  0
   12.9940    8.2060   -0.8950 C   0  0  0  0  0  0  0  0  0  0  0  0
    9.7280    5.6670   -7.3180 C   0  0  0  0  0  0  0  0  0  0  0  0
    9.3830    7.8850  -10.5510 C   0  0  1  0  0  0  0  0  0  0  0  0
   11.8010    9.8970   -5.7930 C   0  0  0  0  0  0  0  0  0  0  0  0
    9.1960    7.5900  -12.8950 O   0  0  0  0  0  0  0  0  0  0  0  0
   12.6350    8.1260   -7.3720 C   0  0  0  0  0  0  0  0  0  0  0  0
   12.2280    9.7950   -2.4130 C   0  0  0  0  0  0  0  0  0  0  0  0
    8.0880    5.7260  -14.2800 C   0  0  1  0  0  0  0  0  0  0  0  0
   12.8760    7.0160   -1.5500 C   0  0  0  0  0  0  0  0  0  0  0  0
  1 27  1  6
  1 36  1  0
  2 12  1  0
  3 45  1  0
  4  2  1  0
  4 33  2  0
  5 16  1  0
  8 44  1  0
  8 42  1  0
  8  2  1  0
  9 28  3  0
 10  6  1  6
 10  1  1  0
 10 32  1  0
 11 23  1  0
 11 43  1  1
 12  3  2  0
 12 30  1  0
 24 13  1  6
 14 19  1  1
 14 38  1  0
 15 39  2  0
 15  9  1  0
 16 37  1  0
 17 34  1  1
 17 40  1  0
 18 41  1  0
 18  7  1  0
 19 16  1  0
 20  4  1  0
 46 22  1  6
 23 21  1  0
 24 44  1  0
 18 25  1  6
 23 26  1  6
 29  3  1  0
 30 47  2  0
 32 31  1  6
 32 14  1  0
 35 24  1  0
 19 36  1  1
 38 16  1  1
 38 17  1  0
 40 20  1  0
 41  7  1  0
 41 35  1  6
 41 38  1  0
 42 29  1  0
 43 18  1  0
 45 15  1  0
 46 11  1  0
 46 10  1  0
 46 32  1  0
 47 39  1  0
M  END
>  <GenAI_Model>  (75) 
DiffSBDD

>  <Protein>  (75) 
generic_title2

>  <num_sample>  (75) 
100

$$$$
DiffSBDD_75
     RDKit          3D

 31 35  0  0  0  0  0  0  0  0999 V2000
   10.7310    8.5840   -7.1610 C   0  0  0  0  0  0  0  0  0  0  0  0
    9.9470    7.3760  -10.8920 C   0  0  0  0  0  0  0  0  0  0  0  0
    7.9330    5.6380  -11.1610 C   0  0  1  0  0  0  0  0  0  0  0  0
    5.6280    4.2440  -12.7370 C   0  0  0  0  0  0  0  0  0  0  0  0
    6.6160    4.7180  -11.0200 C   0  0  0  0  0  0  0  0  0  0  0  0
   11.8840    6.0380   -4.1240 C   0  0  0  0  0  0  0  0  0  0  0  0
   13.6830    7.5890    0.0500 F   0  0  0  0  0  0  0  0  0  0  0  0
    6.8880    6.3260  -13.1360 C   0  0  1  0  0  0  0  0  0  0  0  0
   12.7130    9.0520   -1.4650 C   0  0  0  0  0  0  0  0  0  0  0  0
   11.4030    7.4150   -0.4750 F   0  0  0  0  0  0  0  0  0  0  0  0
   10.4870    8.3740   -9.8090 C   0  0  0  0  0  0  0  0  0  0  0  0
   10.3990    6.4210   -8.3150 C   0  0  0  0  0  0  0  0  0  0  0  0
   11.9150   10.6620   -2.4340 F   0  0  0  0  0  0  0  0  0  0  0  0
   12.9850    6.8410   -2.1580 C   0  0  0  0  0  0  0  0  0  0  0  0
    9.0860    6.4460  -10.4250 N   0  0  0  0  0  0  0  0  0  0  0  0
   12.2300    9.5310   -2.4550 C   0  0  1  0  0  0  0  0  0  0  0  0
   12.1810    7.9900   -4.3760 C   0  0  0  0  0  0  0  0  0  0  0  0
   11.8530    7.8020   -6.9240 C   0  0  0  0  0  0  0  0  0  0  0  0
   11.2910    6.8400   -5.2940 C   0  0  0  0  0  0  0  0  0  0  0  0
    8.3070    5.4490   -8.3230 N   0  0  0  0  0  0  0  0  0  0  0  0
   10.0790    7.9170   -8.4160 C   0  0  1  0  0  0  0  0  0  0  0  0
    8.4490    5.1230  -12.7620 S   0  0  0  0  0  0  0  0  0  0  0  0
    6.1460    7.3050  -15.4830 C   0  0  0  0  0  0  0  0  0  0  0  0
    6.0920    7.4140  -13.9570 C   0  0  0  0  0  0  0  0  0  0  0  0
   12.1940    7.0240   -3.3120 C   0  0  1  0  0  0  0  0  0  0  0  0
    8.1240    4.5640   -9.4750 C   0  0  0  0  0  0  0  0  0  0  0  0
   12.1920    9.2750   -3.9120 C   0  0  0  0  0  0  0  0  0  0  0  0
    5.6980    5.4400  -12.3860 C   0  0  1  0  0  0  0  0  0  0  0  0
    9.2220    5.7110   -9.1610 C   0  0  2  0  0  0  0  0  0  0  0  0
   12.7470    7.6310   -0.9350 C   0  0  0  0  0  0  0  0  0  0  0  0
   11.9500    7.4790   -5.6070 C   0  0  2  0  0  0  0  0  0  0  0  0
  1 18  1  0
  2 11  1  0
  3  5  1  0
  3 15  1  1
  8 24  1  6
  8 22  1  0
  8 28  1  0
  9 30  1  0
 11 21  1  0
 14 30  1  0
 15  2  1  0
 15 29  1  0
 16 13  1  6
 16  9  1  0
 17 27  2  0
 17 25  1  0
 19  6  1  0
 21 12  1  0
 21  1  1  1
 22  3  1  0
 23 24  1  0
 25  6  1  6
 25 14  1  0
 26 20  1  0
 27 16  1  0
 28  4  1  6
 28  5  1  0
 29 26  1  6
 29 20  1  0
 29 12  1  0
 30 10  1  0
 30  7  1  0
 31 18  1  6
 31 19  1  0
 31 17  1  0
M  END
>  <GenAI_Model>  (76) 
DiffSBDD

>  <Protein>  (76) 
generic_title2

>  <num_sample>  (76) 
100

$$$$
DiffSBDD_76
     RDKit          3D

 29 32  0  0  0  0  0  0  0  0999 V2000
   10.2320    6.6880  -10.4330 N   0  0  0  0  0  0  0  0  0  0  0  0
   12.3730    7.2430   -2.8220 N   0  0  0  0  0  0  0  0  0  0  0  0
    8.7380    6.8260  -12.1220 C   0  0  0  0  0  0  0  0  0  0  0  0
   12.1380    6.3180   -3.9220 C   0  0  0  0  0  0  0  0  0  0  0  0
    9.6060    5.4050   -8.8530 F   0  0  0  0  0  0  0  0  0  0  0  0
   12.2650    8.6980   -2.8490 C   0  0  0  0  0  0  0  0  0  0  0  0
    7.6480    5.8680  -12.1700 C   0  0  0  0  0  0  0  0  0  0  0  0
   10.1480    6.3720  -11.8120 C   0  0  0  0  0  0  0  0  0  0  0  0
   11.4200    8.1540   -6.3250 C   0  0  0  0  0  0  0  0  0  0  0  0
   11.1490    7.7130  -10.1700 C   0  0  0  0  0  0  0  0  0  0  0  0
    5.6240    3.9830  -12.5020 C   0  0  0  0  0  0  0  0  0  0  0  0
   12.9540    6.8200   -1.5880 N   0  0  0  0  0  0  0  0  0  0  0  0
    5.5360    5.1990  -13.1820 C   0  0  0  0  0  0  0  0  0  0  0  0
    6.6020    3.7550  -11.5630 C   0  0  0  0  0  0  0  0  0  0  0  0
    6.4020    7.4400  -13.6980 C   0  0  0  0  0  0  0  0  0  0  0  0
   11.6590    9.4940   -3.7580 N   0  0  0  0  0  0  0  0  0  0  0  0
    7.2060    8.5720  -13.2100 C   0  0  0  0  0  0  0  0  0  0  0  0
    7.6070    4.6920  -11.4420 C   0  0  0  0  0  0  0  0  0  0  0  0
   10.7820    6.9790   -5.8980 C   0  0  0  0  0  0  0  0  0  0  0  0
    8.4330    8.3300  -12.3770 C   0  0  0  0  0  0  0  0  0  0  0  0
    5.6880    7.4980  -14.6680 O   0  0  0  0  0  0  0  0  0  0  0  0
   10.1230    6.1500   -6.7730 C   0  0  0  0  0  0  0  0  0  0  0  0
   12.8520    9.0670   -1.7000 N   0  0  0  0  0  0  0  0  0  0  0  0
   10.7430    6.3620   -4.5150 C   0  0  0  0  0  0  0  0  0  0  0  0
   11.4530    8.4730   -7.6750 C   0  0  0  0  0  0  0  0  0  0  0  0
   10.1390    6.4430   -8.1190 C   0  0  0  0  0  0  0  0  0  0  0  0
   10.9000    7.5460   -8.5940 C   0  0  0  0  0  0  0  0  0  0  0  0
   13.3610    7.9260   -0.9530 C   0  0  0  0  0  0  0  0  0  0  0  0
    6.5100    6.1220  -12.9980 C   0  0  0  0  0  0  0  0  0  0  0  0
  1 10  1  0
  2 12  1  0
  3  8  1  0
  4  2  1  0
  5 26  1  0
  6  2  1  0
  6 23  2  0
  7  3  1  0
  7 18  2  0
  8  1  1  0
  9 19  1  0
 10 27  1  0
 11 14  2  0
 12 28  2  0
 13 29  2  0
 13 11  1  0
 14 18  1  0
 15 17  1  0
 15 29  1  0
 16  6  1  0
 17 20  1  0
 19 24  1  0
 20  3  1  0
 21 15  2  0
 22 19  2  0
 23 28  1  0
 24  4  1  0
 25  9  2  0
 26 22  1  0
 27 26  2  0
 27 25  1  0
 29  7  1  0
M  END
>  <GenAI_Model>  (77) 
DiffSBDD

>  <Protein>  (77) 
generic_title2

>  <num_sample>  (77) 
100

$$$$
DiffSBDD_77
     RDKit          3D

 28 31  0  0  0  0  0  0  0  0999 V2000
   12.9770    8.6840   -1.1960 N   0  0  0  0  0  0  0  0  0  0  0  0
   10.1460    6.1860  -12.3520 C   0  0  0  0  0  0  0  0  0  0  0  0
    5.7930    5.8400  -14.6130 C   0  0  0  0  0  0  0  0  0  0  0  0
   10.7310    6.9980   -6.7130 C   0  0  0  0  0  0  0  0  0  0  0  0
   11.4420    9.4770   -5.7330 C   0  0  0  0  0  0  0  0  0  0  0  0
    6.8110    7.5670  -13.1850 C   0  0  0  0  0  0  0  0  0  0  0  0
   12.8290    5.7370   -1.5690 C   0  0  0  0  0  0  0  0  0  0  0  0
   11.0790    7.6640   -8.1340 N   0  0  0  0  0  0  0  0  0  0  0  0
    9.7750    6.6220   -9.8090 C   0  0  1  0  0  0  0  0  0  0  0  0
   12.5760    8.2070   -2.4200 C   0  0  0  0  0  0  0  0  0  0  0  0
    5.5970    4.6270  -11.8830 C   0  0  0  0  0  0  0  0  0  0  0  0
   11.9160    8.6560   -7.8970 C   0  0  0  0  0  0  0  0  0  0  0  0
   10.8570    7.4170   -9.4170 C   0  0  0  0  0  0  0  0  0  0  0  0
   11.4140    7.5880   -4.3840 N   0  0  0  0  0  0  0  0  0  0  0  0
    9.2330    6.5470   -8.6410 C   0  0  2  0  0  0  0  0  0  0  0  0
   10.9420    8.0880   -5.5940 C   0  0  2  0  0  0  0  0  0  0  0  0
   12.0250    8.7160   -3.5370 C   0  0  0  0  0  0  0  0  0  0  0  0
   11.4810    6.3580   -3.7050 C   0  0  0  0  0  0  0  0  0  0  0  0
    6.7930    6.1090  -13.4660 C   0  0  0  0  0  0  0  0  0  0  0  0
    9.2100    6.4220  -11.1790 C   0  0  2  0  0  0  0  0  0  0  0  0
    9.0050    5.4380   -7.7020 C   0  0  0  0  0  0  0  0  0  0  0  0
   12.0220    9.8010   -4.3610 C   0  0  0  0  0  0  0  0  0  0  0  0
   12.3450    6.7040   -2.5290 C   0  0  0  0  0  0  0  0  0  0  0  0
   11.5810    7.7980  -10.3050 O   0  0  0  0  0  0  0  0  0  0  0  0
    8.0860    5.5280  -11.1010 C   0  0  1  0  0  0  0  0  0  0  0  0
    7.2750    4.8300  -12.4830 S   0  0  1  0  0  0  0  0  0  0  0  0
    7.9070    4.4920  -10.0870 C   0  0  0  0  0  0  0  0  0  0  0  0
    8.1820    5.1410   -8.6810 C   0  0  2  0  0  0  0  0  0  0  0  0
  3 19  1  0
  5 16  1  0
  5 22  2  0
  8 12  1  0
  8  4  1  0
  9 13  1  6
  9 15  1  0
 10  1  1  0
 13  8  1  0
 14 18  1  0
 14 17  1  0
 15 21  1  1
 16  4  1  6
 16 14  1  0
 17 10  2  0
 18 23  2  0
 19  6  1  0
 19 26  1  0
 20  2  1  6
 20 25  1  0
 20  9  1  0
 22 17  1  0
 23 10  1  0
 23  7  1  0
 24 13  2  0
 25 26  1  0
 25 27  1  1
 26 11  1  1
 28 27  1  6
 28 15  1  0
 28 21  1  0
M  END
>  <GenAI_Model>  (78) 
DiffSBDD

>  <Protein>  (78) 
generic_title2

>  <num_sample>  (78) 
100

$$$$
DiffSBDD_78
     RDKit          3D

 33 37  0  0  0  0  0  0  0  0999 V2000
    6.3030    3.9180  -12.6080 C   0  0  2  0  0  0  0  0  0  0  0  0
    5.4880    4.4310  -11.4370 C   0  0  0  0  0  0  0  0  0  0  0  0
   11.1340    8.6290   -8.9140 C   0  0  1  0  0  0  0  0  0  0  0  0
   11.2070    8.7370   -6.6420 C   0  0  2  0  0  0  0  0  0  0  0  0
    5.9460    2.8110  -13.5410 C   0  0  0  0  0  0  0  0  0  0  0  0
   11.6560   10.1770   -4.8610 N   0  0  0  0  0  0  0  0  0  0  0  0
   11.5670    7.6040   -6.6570 C   0  0  1  0  0  0  0  0  0  0  0  0
   10.2100    6.8730   -8.7850 C   0  0  1  0  0  0  0  0  0  0  0  0
    7.4210    4.4230  -12.8010 N   0  0  0  0  0  0  0  0  0  0  0  0
    8.1810    3.5770  -13.6450 C   0  0  0  0  0  0  0  0  0  0  0  0
    9.1280    5.8420   -8.6740 N   0  0  0  0  0  0  0  0  0  0  0  0
    8.9490    8.8760   -9.8390 C   0  0  0  0  0  0  0  0  0  0  0  0
   11.8490    9.6240   -6.0760 C   0  0  0  0  0  0  0  0  0  0  0  0
   11.5950    7.8750   -4.1410 C   0  0  0  0  0  0  0  0  0  0  0  0
    9.9600    8.4990   -7.1360 O   0  0  0  0  0  0  0  0  0  0  0  0
    8.7120    5.1350   -7.7420 C   0  0  0  0  0  0  0  0  0  0  0  0
   11.9330    7.0530   -2.8120 C   0  0  1  0  0  0  0  0  0  0  0  0
   12.0070    7.6950   -9.1870 C   0  0  0  0  0  0  0  0  0  0  0  0
    9.8030    8.3130   -8.6530 C   0  0  2  0  0  0  0  0  0  0  0  0
   12.6450    5.9410   -3.1660 F   0  0  0  0  0  0  0  0  0  0  0  0
    7.1160    2.9560  -14.5070 C   0  0  0  0  0  0  0  0  0  0  0  0
    8.7520    8.8260  -11.2210 C   0  0  0  0  0  0  0  0  0  0  0  0
   11.5020    9.7300   -2.7380 O   0  0  0  0  0  0  0  0  0  0  0  0
   11.0520    6.3590   -7.4120 C   0  0  0  0  0  0  0  0  0  0  0  0
   12.8440    7.9060   -2.0460 C   0  0  1  0  0  0  0  0  0  0  0  0
    8.9080    4.4610  -11.0500 C   0  0  0  0  0  0  0  0  0  0  0  0
   11.6770    9.2580   -3.9240 C   0  0  2  0  0  0  0  0  0  0  0  0
    8.2180    5.2250  -11.9200 C   0  0  0  0  0  0  0  0  0  0  0  0
    9.1250    4.6990   -9.8200 C   0  0  0  0  0  0  0  0  0  0  0  0
   10.6900    6.6440   -2.0860 C   0  0  0  0  0  0  0  0  0  0  0  0
   12.2450    9.2950   -1.6840 C   0  0  0  0  0  0  0  0  0  0  0  0
   12.2580    8.4600   -8.1160 C   0  0  1  0  0  0  0  0  0  0  0  0
   13.4080    7.4030   -0.8930 F   0  0  0  0  0  0  0  0  0  0  0  0
  1  2  1  1
  3 18  1  6
  3 19  1  0
  3 32  1  0
  4 13  1  1
  5  1  1  0
  7 24  1  6
  7  4  1  0
  8 11  1  1
  8 19  1  0
  8 24  1  0
  9  1  1  0
  9 28  1  0
 10  9  1  0
 11 16  1  0
 13  6  1  0
 14 27  1  0
 14 17  1  0
 15  4  1  0
 17 30  1  1
 17 25  1  0
 19 12  1  6
 19 15  1  0
 20 17  1  0
 21 10  1  0
 21  5  1  0
 22 12  1  0
 23 31  1  0
 25 31  1  0
 25 33  1  1
 26 29  1  0
 27  6  1  6
 27 23  1  0
 28 26  1  0
 29 11  1  0
 32 18  1  6
 32  7  1  0
M  END
>  <GenAI_Model>  (79) 
DiffSBDD

>  <Protein>  (79) 
generic_title2

>  <num_sample>  (79) 
100

$$$$
DiffSBDD_79
     RDKit          3D

 24 27  0  0  0  0  0  0  0  0999 V2000
   11.7630    8.2980   -3.2000 C   0  0  0  0  0  0  0  0  0  0  0  0
    8.4790    6.9850  -12.5490 C   0  0  2  0  0  0  0  0  0  0  0  0
   12.8100    8.0380   -0.9530 C   0  0  0  0  0  0  0  0  0  0  0  0
   10.0770    6.8420   -7.7390 C   0  0  0  0  0  0  0  0  0  0  0  0
    8.3980    6.3630  -11.0200 C   0  0  0  0  0  0  0  0  0  0  0  0
   11.9120    6.8210   -2.9080 C   0  0  0  0  0  0  0  0  0  0  0  0
   12.3310    6.6760   -1.3950 C   0  0  0  0  0  0  0  0  0  0  0  0
    9.2880    6.8730  -10.0260 N   0  0  0  0  0  0  0  0  0  0  0  0
   11.1860    6.8280   -5.5660 C   0  0  0  0  0  0  0  0  0  0  0  0
    9.5010    6.1060   -8.8620 C   0  0  0  0  0  0  0  0  0  0  0  0
    7.3580    6.0990  -15.3660 C   0  0  0  0  0  0  0  0  0  0  0  0
    7.4560    7.6500  -13.1360 C   0  0  0  0  0  0  0  0  0  0  0  0
   10.8430    8.8920   -6.7470 C   0  0  0  0  0  0  0  0  0  0  0  0
    7.4940    4.5460  -12.3500 C   0  0  0  0  0  0  0  0  0  0  0  0
   11.3960    8.1740   -5.6580 C   0  0  0  0  0  0  0  0  0  0  0  0
   10.2180    8.2780   -7.8070 C   0  0  0  0  0  0  0  0  0  0  0  0
    6.5330    5.3320  -13.0400 C   0  0  1  0  0  0  0  0  0  0  0  0
   12.2140    8.9200   -4.6110 C   0  0  0  0  0  0  0  0  0  0  0  0
    7.8880    5.0020  -11.1100 C   0  0  0  0  0  0  0  0  0  0  0  0
    7.3230    6.3030  -13.8140 C   0  0  2  0  0  0  0  0  0  0  0  0
   12.5240    9.0910   -2.1300 C   0  0  0  0  0  0  0  0  0  0  0  0
   10.4440    6.1670   -6.6150 C   0  0  0  0  0  0  0  0  0  0  0  0
    9.3580    4.9250   -8.7720 O   0  0  0  0  0  0  0  0  0  0  0  0
    5.2630    4.6870  -13.6510 C   0  0  0  0  0  0  0  0  0  0  0  0
  1  6  1  0
  1 21  1  0
  2 12  1  1
  2  5  1  0
  4 22  1  0
  5  8  2  3
  6  7  1  0
  7  3  1  0
  8 10  1  0
 10 23  2  0
 10  4  1  0
 13 15  2  0
 14 19  1  0
 15  9  1  0
 15 18  1  0
 16  4  2  0
 16 13  1  0
 17 24  1  6
 17 14  1  0
 18  1  1  0
 19  5  1  0
 20 11  1  6
 20 12  1  0
 20 17  1  0
 20  2  1  0
 21  3  1  0
 22  9  2  0
M  END
>  <GenAI_Model>  (80) 
DiffSBDD

>  <Protein>  (80) 
generic_title2

>  <num_sample>  (80) 
100

$$$$
DiffSBDD_80
     RDKit          3D

 39 45  0  0  0  0  0  0  0  0999 V2000
   10.0730    5.7580  -10.2990 C   0  0  0  0  0  0  0  0  0  0  0  0
   10.8280    6.9190   -0.1370 C   0  0  0  0  0  0  0  0  0  0  0  0
   11.5090    7.6140   -6.5450 C   0  0  0  0  0  0  0  0  0  0  0  0
    8.6550    6.1820   -0.7810 O   0  0  0  0  0  0  0  0  0  0  0  0
    7.5380    3.5970  -12.3680 N   0  0  0  0  0  0  0  0  0  0  0  0
   11.9730   10.3270   -6.0610 C   0  0  0  0  0  0  0  0  0  0  0  0
   11.7480    8.4260   -7.6890 C   0  0  0  0  0  0  0  0  0  0  0  0
    9.8610    6.5860   -1.1470 C   0  0  0  0  0  0  0  0  0  0  0  0
   12.0620    8.2500  -10.3040 C   0  0  0  0  0  0  0  0  0  0  0  0
    5.9950    6.0410  -12.4220 C   0  0  2  0  0  0  0  0  0  0  0  0
    6.0090    3.3990  -12.0590 C   0  0  2  0  0  0  0  0  0  0  0  0
   11.5400    6.6350   -2.9360 C   0  0  0  0  0  0  0  0  0  0  0  0
    8.2750    6.6440  -12.0490 C   0  0  2  0  0  0  0  0  0  0  0  0
    7.8540    5.5700   -9.5860 O   0  0  0  0  0  0  0  0  0  0  0  0
   12.5970    6.3750   -1.9370 C   0  0  0  0  0  0  0  0  0  0  0  0
   10.2600    6.5810   -2.4880 C   0  0  0  0  0  0  0  0  0  0  0  0
   11.1510    6.3640   -6.6310 N   0  0  0  0  0  0  0  0  0  0  0  0
    8.2970    9.0720  -12.8170 O   0  0  0  0  0  0  0  0  0  0  0  0
    7.8380    4.6170  -13.4790 C   0  0  0  0  0  0  0  0  0  0  0  0
   11.8540    9.8200   -7.4380 C   0  0  0  0  0  0  0  0  0  0  0  0
    7.1840    6.8440  -14.1560 O   0  0  0  0  0  0  0  0  0  0  0  0
   10.1980    6.9140   -9.1160 C   0  0  2  0  0  0  0  0  0  0  0  0
    9.4730    4.5010   -8.2680 C   0  0  0  0  0  0  0  0  0  0  0  0
   11.6550    7.5930   -8.9280 C   0  0  2  0  0  0  0  0  0  0  0  0
   11.9420    9.4090   -4.9250 C   0  0  0  0  0  0  0  0  0  0  0  0
    5.6120    2.6650  -13.3370 O   0  0  0  0  0  0  0  0  0  0  0  0
   11.6750    6.9220   -4.3480 C   0  0  0  0  0  0  0  0  0  0  0  0
    7.3080    6.0510  -12.9390 C   0  0  1  0  0  0  0  0  0  0  0  0
   11.7760    8.0290   -5.2470 C   0  0  0  0  0  0  0  0  0  0  0  0
   11.2520    6.1070   -5.2560 N   0  0  0  0  0  0  0  0  0  0  0  0
    8.5600    6.1640   -6.8820 C   0  0  0  0  0  0  0  0  0  0  0  0
   12.1600    6.9080   -0.6670 C   0  0  0  0  0  0  0  0  0  0  0  0
    5.3500    4.7700  -11.8680 C   0  0  2  0  0  0  0  0  0  0  0  0
    8.6670    5.7520  -10.6840 C   0  0  2  0  0  0  0  0  0  0  0  0
    9.9930    6.0930   -7.7350 C   0  0  1  0  0  0  0  0  0  0  0  0
   12.1980    9.8390   -3.4290 C   0  0  0  0  0  0  0  0  0  0  0  0
    5.0810    5.2760  -13.2090 O   0  0  0  0  0  0  0  0  0  0  0  0
    8.4770    7.9320  -11.9030 C   0  0  0  0  0  0  0  0  0  0  0  0
    8.4140    4.5400   -8.8240 C   0  0  0  0  0  0  0  0  0  0  0  0
  3 29  1  0
  5 11  1  0
  6 25  1  0
  7 20  1  0
  7  3  2  0
  8  4  1  0
  8  2  1  0
 10 37  1  6
 10 33  1  0
 11 26  1  6
 11 33  1  0
 12 27  1  0
 12 16  1  0
 12 15  1  0
 13 38  1  1
 14 39  1  0
 15 32  1  0
 16  8  2  0
 17  3  1  0
 17 30  1  0
 18 38  1  0
 19 28  1  0
 19  5  1  0
 20  6  2  0
 22  1  1  6
 22 24  1  0
 22 35  1  0
 23 35  1  0
 24  9  1  6
 24  7  1  0
 25 36  1  0
 28 21  1  6
 28 10  1  0
 28 13  1  0
 29 25  2  0
 29 27  1  0
 30 27  2  0
 32  2  1  0
 33 37  1  6
 34 13  1  0
 34  1  1  1
 34 14  1  0
 35 31  1  1
 35 17  1  0
 39 23  1  0
M  END
>  <GenAI_Model>  (81) 
DiffSBDD

>  <Protein>  (81) 
generic_title2

>  <num_sample>  (81) 
100

$$$$
DiffSBDD_81
     RDKit          3D

 32 35  0  0  0  0  0  0  0  0999 V2000
   10.4680    7.1190   -7.4630 C   0  0  1  0  0  0  0  0  0  0  0  0
    8.7060    6.3060  -12.4110 C   0  0  0  0  0  0  0  0  0  0  0  0
    5.5500    3.7010  -11.5400 O   0  0  0  0  0  0  0  0  0  0  0  0
    6.4220    3.7590  -12.6180 C   0  0  0  0  0  0  0  0  0  0  0  0
   11.4790    7.3730   -4.8370 C   0  0  0  0  0  0  0  0  0  0  0  0
   12.3540    7.7800   -2.8120 C   0  0  0  0  0  0  0  0  0  0  0  0
   11.9540    6.7130   -3.6530 C   0  0  0  0  0  0  0  0  0  0  0  0
   10.1240    5.8840   -8.2380 C   0  0  0  0  0  0  0  0  0  0  0  0
    6.0120    7.2280  -12.7930 O   0  0  0  0  0  0  0  0  0  0  0  0
   11.8850    5.5050   -6.2160 O   0  0  0  0  0  0  0  0  0  0  0  0
   10.9510    8.5040   -9.7470 C   0  0  2  0  0  0  0  0  0  0  0  0
   13.0180    5.9800   -1.4020 C   0  0  0  0  0  0  0  0  0  0  0  0
   10.6030    9.6490   -5.3900 C   0  0  1  0  0  0  0  0  0  0  0  0
   11.2660    8.1440   -8.3540 C   0  0  0  0  0  0  0  0  0  0  0  0
   11.5550    9.5590   -4.1930 C   0  0  0  0  0  0  0  0  0  0  0  0
    7.4350    6.5550  -14.4480 O   0  0  0  0  0  0  0  0  0  0  0  0
    9.5080    8.1970   -6.6380 N   0  0  0  0  0  0  0  0  0  0  0  0
    7.7620    4.9160  -10.3030 C   0  0  0  0  0  0  0  0  0  0  0  0
   11.1870    8.6160   -4.9350 C   0  0  0  0  0  0  0  0  0  0  0  0
    7.0330    5.0340  -12.8860 C   0  0  1  0  0  0  0  0  0  0  0  0
    9.8990    9.4750   -6.2260 O   0  0  0  0  0  0  0  0  0  0  0  0
   11.2010    6.6390   -6.0220 C   0  0  2  0  0  0  0  0  0  0  0  0
    9.4110    8.3420   -9.7350 C   0  0  0  0  0  0  0  0  0  0  0  0
   12.3270    9.1160   -3.0060 C   0  0  0  0  0  0  0  0  0  0  0  0
    9.0210    7.7360  -12.0890 C   0  0  2  0  0  0  0  0  0  0  0  0
    8.8350    8.1400  -10.7350 C   0  0  2  0  0  0  0  0  0  0  0  0
   11.4910    7.5000  -10.6510 O   0  0  0  0  0  0  0  0  0  0  0  0
   12.8530    8.3630   -0.7550 O   0  0  0  0  0  0  0  0  0  0  0  0
    8.0420    8.8580  -11.7880 C   0  0  0  0  0  0  0  0  0  0  0  0
    6.4270    6.2170  -13.6560 C   0  0  0  0  0  0  0  0  0  0  0  0
   12.7100    7.3910   -1.6460 N   0  0  0  0  0  0  0  0  0  0  0  0
    7.6250    5.6070  -11.6250 N   0  0  0  0  0  0  0  0  0  0  0  0
  1  8  1  6
  1 17  1  0
  1 22  1  0
  2 32  1  0
  4  3  1  0
  5  7  2  0
  6 31  1  0
  7  6  1  0
 11 27  1  6
 11 23  1  0
 11 14  1  0
 13 21  1  1
 13 19  1  0
 13 15  1  0
 14  1  1  0
 15 24  1  0
 16 30  1  0
 17 21  1  0
 19  5  1  0
 19 15  2  0
 20  4  1  1
 20 32  1  0
 22 10  1  6
 22  5  1  0
 24  6  2  0
 25  2  1  1
 25 29  1  0
 25 26  1  0
 26 23  1  6
 29 26  1  0
 30 20  1  0
 30  9  1  0
 31 12  1  0
 31 28  1  0
 32 18  1  0
M  END
>  <GenAI_Model>  (82) 
DiffSBDD

>  <Protein>  (82) 
generic_title2

>  <num_sample>  (82) 
100

$$$$
DiffSBDD_82
     RDKit          3D

 36 42  0  0  0  0  0  0  0  0999 V2000
    9.1470    6.5040   -8.4460 N   0  0  0  0  0  0  0  0  0  0  0  0
   11.1400    6.4820   -7.0990 C   0  0  0  0  0  0  0  0  0  0  0  0
   11.6900    8.2230  -10.5390 N   0  0  0  0  0  0  0  0  0  0  0  0
    8.4230    9.1300  -13.7770 O   0  0  0  0  0  0  0  0  0  0  0  0
    8.1860    6.3070  -14.4950 O   0  0  0  0  0  0  0  0  0  0  0  0
   12.0560    8.6620   -4.0720 C   0  0  0  0  0  0  0  0  0  0  0  0
   11.2080    7.7550   -6.3010 C   0  0  1  0  0  0  0  0  0  0  0  0
   10.6480    6.6980   -8.4640 C   0  0  2  0  0  0  0  0  0  0  0  0
    6.6590    5.1110  -10.6890 C   0  0  0  0  0  0  0  0  0  0  0  0
    8.0020    4.9320  -10.3040 N   0  0  0  0  0  0  0  0  0  0  0  0
    9.3960    7.3640  -12.8070 C   0  0  0  0  0  0  0  0  0  0  0  0
    8.4290    5.3290   -8.9250 C   0  0  2  0  0  0  0  0  0  0  0  0
   11.4460    7.3680  -11.4250 C   0  0  0  0  0  0  0  0  0  0  0  0
   12.4180    9.9520   -4.3620 C   0  0  0  0  0  0  0  0  0  0  0  0
   11.7560    7.3530   -2.0800 C   0  0  0  0  0  0  0  0  0  0  0  0
   12.0200    8.7860   -8.4200 C   0  0  0  0  0  0  0  0  0  0  0  0
    8.7750    4.2980  -11.3260 C   0  0  0  0  0  0  0  0  0  0  0  0
    8.9920    5.3110   -7.6710 C   0  0  1  0  0  0  0  0  0  0  0  0
   11.2140    6.3270   -2.8450 C   0  0  0  0  0  0  0  0  0  0  0  0
   11.8580    7.2990   -0.7530 O   0  0  0  0  0  0  0  0  0  0  0  0
    7.5360    8.4490  -13.3270 C   0  0  0  0  0  0  0  0  0  0  0  0
   11.4860    7.6520   -4.8120 C   0  0  0  0  0  0  0  0  0  0  0  0
   11.0830    6.4400   -4.1690 C   0  0  0  0  0  0  0  0  0  0  0  0
    6.5160    6.3960  -12.9450 C   0  0  0  0  0  0  0  0  0  0  0  0
    8.0070    4.3930  -12.5830 C   0  0  0  0  0  0  0  0  0  0  0  0
    7.8880    6.9610  -13.2170 C   0  0  1  0  0  0  0  0  0  0  0  0
    8.9980    7.8690  -10.6410 O   0  0  0  0  0  0  0  0  0  0  0  0
   13.0570    9.4790   -2.3260 N   0  0  0  0  0  0  0  0  0  0  0  0
    6.6670    5.0730  -12.1170 C   0  0  1  0  0  0  0  0  0  0  0  0
   12.3000    8.4320   -2.7440 C   0  0  0  0  0  0  0  0  0  0  0  0
    8.3850    4.0320   -8.1600 C   0  0  0  0  0  0  0  0  0  0  0  0
   13.6440    9.5500   -1.1840 O   0  0  0  0  0  0  0  0  0  0  0  0
   13.0990   10.5160   -3.2390 C   0  0  0  0  0  0  0  0  0  0  0  0
    9.8290    7.4040  -11.5630 C   0  0  1  0  0  0  0  0  0  0  0  0
   12.1920    8.7140   -6.9760 C   0  0  0  0  0  0  0  0  0  0  0  0
   11.2860    7.9810   -9.1620 C   0  0  0  0  0  0  0  0  0  0  0  0
  1 18  1  0
  2  7  1  0
  3 36  2  0
  4 21  1  0
 26  5  1  6
  6 30  1  0
  7 22  1  1
  8  1  1  0
  8  2  1  1
  9 10  1  0
 10 12  1  0
 11 34  1  0
 12  1  1  0
 12 31  1  6
 12 18  1  0
 13  3  1  0
 14  6  1  0
 14 33  1  0
 15 20  1  0
 16 35  1  0
 17 10  1  0
 19 15  1  0
 21 26  1  0
 22 23  1  0
 22  6  2  0
 23 19  2  0
 29 24  1  6
 25 29  1  0
 25 17  1  0
 26 24  1  0
 26 11  1  0
 28 32  1  0
 29  9  1  0
 30 28  1  0
 30 15  2  0
 18 31  1  6
 33 28  1  0
 34 13  1  0
 34 27  1  6
 35  7  1  0
 36  8  1  0
 36 16  1  0
M  END
>  <GenAI_Model>  (83) 
DiffSBDD

>  <Protein>  (83) 
generic_title2

>  <num_sample>  (83) 
100

$$$$
DiffSBDD_83
     RDKit          3D

 22 24  0  0  0  0  0  0  0  0999 V2000
    8.6460    5.3330  -13.5120 C   0  0  0  0  0  0  0  0  0  0  0  0
   12.3380    8.3470   -2.5100 C   0  0  0  0  0  0  0  0  0  0  0  0
   12.0530    8.3570   -4.8780 C   0  0  0  0  0  0  0  0  0  0  0  0
   11.3860    6.6170   -7.0630 C   0  0  0  0  0  0  0  0  0  0  0  0
   11.4860    6.5780   -1.1520 F   0  0  0  0  0  0  0  0  0  0  0  0
   12.4240    9.0400   -3.6770 C   0  0  0  0  0  0  0  0  0  0  0  0
   11.3570    6.4200   -3.5470 C   0  0  0  0  0  0  0  0  0  0  0  0
    7.9710    5.1680  -11.2690 C   0  0  1  0  0  0  0  0  0  0  0  0
   11.7270    7.1390   -2.3800 C   0  0  0  0  0  0  0  0  0  0  0  0
    7.2890    5.0060  -13.4180 N   0  0  0  0  0  0  0  0  0  0  0  0
    8.8870    6.4840   -9.2190 N   0  0  0  0  0  0  0  0  0  0  0  0
    9.1070    5.5370  -12.1540 C   0  0  2  0  0  0  0  0  0  0  0  0
   11.4810    7.0660   -4.8340 C   0  0  0  0  0  0  0  0  0  0  0  0
    9.6160    7.1220  -12.0210 C   0  0  0  0  0  0  0  0  0  0  0  0
    8.9200    5.5970   -8.3720 C   0  0  0  0  0  0  0  0  0  0  0  0
   10.9070    6.4750   -5.8190 O   0  0  0  0  0  0  0  0  0  0  0  0
   10.5230    7.5920   -7.9020 C   0  0  0  0  0  0  0  0  0  0  0  0
   12.7200    8.9280   -1.3110 F   0  0  0  0  0  0  0  0  0  0  0  0
    5.6670    4.0440  -11.9430 C   0  0  0  0  0  0  0  0  0  0  0  0
   10.3090    7.1060   -9.2900 C   0  0  0  0  0  0  0  0  0  0  0  0
    8.2010    5.2660   -9.6160 C   0  0  2  0  0  0  0  0  0  0  0  0
    6.8900    4.8720  -12.1720 C   0  0  1  0  0  0  0  0  0  0  0  0
  1 10  2  0
  1 12  1  0
  2  9  2  0
  2 18  1  0
  3 13  1  0
  3  6  2  0
  4 16  1  0
  6  2  1  0
  7  9  1  0
  8 21  1  1
  9  5  1  0
 10 22  1  0
 11 15  1  0
 12 14  1  6
 12  8  1  0
 13  7  2  0
 16 13  1  0
 17  4  1  0
 20 11  1  0
 20 17  1  0
 21 11  1  0
 21 15  1  6
 22 19  1  6
 22  8  1  0
M  END
>  <GenAI_Model>  (84) 
DiffSBDD

>  <Protein>  (84) 
generic_title2

>  <num_sample>  (84) 
100

$$$$
DiffSBDD_84
     RDKit          3D

 21 22  0  0  0  0  0  0  0  0999 V2000
   12.3790    8.6030   -2.9480 C   0  0  0  0  0  0  0  0  0  0  0  0
    7.6190    6.1530  -12.7930 C   0  0  0  0  0  0  0  0  0  0  0  0
   12.1570    7.2540   -3.0890 C   0  0  0  0  0  0  0  0  0  0  0  0
    9.8170    7.1580   -9.9050 C   0  0  0  0  0  0  0  0  0  0  0  0
   10.1560    7.6230  -10.9860 O   0  0  0  0  0  0  0  0  0  0  0  0
    6.5420    4.4320  -11.4070 C   0  0  0  0  0  0  0  0  0  0  0  0
    8.8710    6.2190   -9.6660 N   0  0  0  0  0  0  0  0  0  0  0  0
    6.6490    6.0360  -13.7240 C   0  0  0  0  0  0  0  0  0  0  0  0
    5.5480    5.2020  -13.5680 C   0  0  0  0  0  0  0  0  0  0  0  0
   12.0620    9.5490   -3.9590 C   0  0  0  0  0  0  0  0  0  0  0  0
   12.5780    6.3120   -1.9970 C   0  0  0  0  0  0  0  0  0  0  0  0
    5.5060    4.5460  -12.3110 C   0  0  0  0  0  0  0  0  0  0  0  0
   12.8170    9.0330   -1.7650 O   0  0  0  0  0  0  0  0  0  0  0  0
    8.7480    5.1000  -10.5530 C   0  0  0  0  0  0  0  0  0  0  0  0
   11.1530    7.6640   -5.3120 C   0  0  0  0  0  0  0  0  0  0  0  0
   11.5120    6.7930   -4.2200 C   0  0  0  0  0  0  0  0  0  0  0  0
    7.6410    5.2610  -11.6290 C   0  0  0  0  0  0  0  0  0  0  0  0
   10.3570    7.7090   -8.5920 C   0  0  0  0  0  0  0  0  0  0  0  0
   10.3700    7.2010   -6.2570 C   0  0  0  0  0  0  0  0  0  0  0  0
   11.5160    9.0210   -5.1560 C   0  0  0  0  0  0  0  0  0  0  0  0
   10.3400    6.5940   -7.4950 C   0  0  0  0  0  0  0  0  0  0  0  0
  1 13  1  0
  2 17  2  0
  3  1  2  0
  3 11  1  0
  4  7  1  0
  4 18  1  0
  5  4  2  0
  8  9  2  0
  8  2  1  0
  9 12  1  0
 10  1  1  0
 12  6  2  0
 14  7  1  0
 15 20  1  0
 15 16  2  0
 16  3  1  0
 17  6  1  0
 17 14  1  0
 18 21  1  0
 19 15  1  0
 20 10  2  0
 21 19  1  0
M  END
>  <GenAI_Model>  (85) 
DiffSBDD

>  <Protein>  (85) 
generic_title2

>  <num_sample>  (85) 
100

$$$$
DiffSBDD_85
     RDKit          3D

 25 27  0  0  0  0  0  0  0  0999 V2000
    6.4560    6.3190  -13.6700 S   0  0  0  0  0  0  0  0  0  0  0  0
    8.0190    5.7880  -13.2350 C   0  0  0  0  0  0  0  0  0  0  0  0
   11.7230    8.4390   -4.2750 C   0  0  0  0  0  0  0  0  0  0  0  0
   12.3560    6.7480   -2.1520 C   0  0  0  0  0  0  0  0  0  0  0  0
   12.6240    8.1290   -2.0660 C   0  0  0  0  0  0  0  0  0  0  0  0
   11.3910    7.9050   -8.3120 S   0  0  0  0  0  0  0  0  0  0  0  0
    8.9920    3.8730  -10.5640 O   0  0  0  0  0  0  0  0  0  0  0  0
    8.0930    5.0490  -10.7500 S   0  0  0  0  0  0  0  0  0  0  0  0
   10.6370    7.9760   -6.6110 C   0  0  2  0  0  0  0  0  0  0  0  0
   10.3120    7.8540   -9.5340 C   0  0  2  0  0  0  0  0  0  0  0  0
   11.4830    7.1000   -4.4400 C   0  0  0  0  0  0  0  0  0  0  0  0
   12.2810    8.9960   -3.0930 C   0  0  0  0  0  0  0  0  0  0  0  0
   13.1710    8.7100   -1.0020 O   0  0  0  0  0  0  0  0  0  0  0  0
   11.8060    6.2310   -3.3980 C   0  0  0  0  0  0  0  0  0  0  0  0
    6.1430    7.1840  -15.0970 C   0  0  0  0  0  0  0  0  0  0  0  0
    8.5970    6.0370  -11.9480 N   0  0  0  0  0  0  0  0  0  0  0  0
   10.1790    6.6850  -10.2440 O   0  0  0  0  0  0  0  0  0  0  0  0
   11.2740    9.3620   -5.7080 S   0  0  0  0  0  0  0  0  0  0  0  0
    8.7490    8.3540  -11.2930 C   0  0  0  0  0  0  0  0  0  0  0  0
    8.1290    5.7590   -9.4830 O   0  0  0  0  0  0  0  0  0  0  0  0
    5.3880    6.8670  -16.0340 C   0  0  0  0  0  0  0  0  0  0  0  0
    9.4670    8.9350  -10.0610 C   0  0  0  0  0  0  0  0  0  0  0  0
    6.7120    4.6170  -10.9500 O   0  0  0  0  0  0  0  0  0  0  0  0
    9.5730    7.0180  -11.5110 C   0  0  2  0  0  0  0  0  0  0  0  0
   10.9900    6.7460   -5.8280 C   0  0  0  0  0  0  0  0  0  0  0  0
  1  2  1  0
  2 16  1  0
  3 12  1  0
  4  5  1  0
  5 13  1  0
  8  7  1  0
  8 20  1  0
  9  6  1  6
  9 25  1  0
  9 18  1  0
 10  6  1  6
 11  3  2  0
 11 14  1  0
 12  5  2  0
 14  4  2  0
 15  1  1  0
 16  8  1  0
 17 10  1  0
 18  3  1  0
 19 22  1  0
 21 15  2  0
 22 10  1  0
 23  8  1  0
 24 16  1  1
 24 19  1  0
 24 17  1  0
 25 11  1  0
M  END
>  <GenAI_Model>  (86) 
DiffSBDD

>  <Protein>  (86) 
generic_title2

>  <num_sample>  (86) 
100

$$$$
DiffSBDD_86
     RDKit          3D

 49 52  0  0  0  0  0  0  0  0999 V2000
    7.4440    2.0510  -13.7230 C   0  0  0  0  0  0  0  0  0  0  0  0
    6.8000    1.9260  -15.2280 C   0  0  1  0  0  0  0  0  0  0  0  0
    9.1460    6.4640   -0.1670 C   0  0  0  0  0  0  0  0  0  0  0  0
    9.4390   12.5420   -3.5680 C   0  0  0  0  0  0  0  0  0  0  0  0
    9.9630    6.0780  -12.0370 C   0  0  2  0  0  0  0  0  0  0  0  0
   11.3640    6.8910   -5.2090 C   0  0  0  0  0  0  0  0  0  0  0  0
    7.6870    5.3610  -11.3640 O   0  0  0  0  0  0  0  0  0  0  0  0
    9.0780    6.7460  -10.0460 C   0  0  2  0  0  0  0  0  0  0  0  0
    7.8270    5.5840   -7.3900 O   0  0  0  0  0  0  0  0  0  0  0  0
    8.2320    5.6450   -9.8400 C   0  0  2  0  0  0  0  0  0  0  0  0
   10.9940    6.7520  -12.9530 C   0  0  0  0  0  0  0  0  0  0  0  0
    6.2200    0.5430  -15.0470 O   0  0  0  0  0  0  0  0  0  0  0  0
   11.1060    6.9170   -1.5580 N   0  0  0  0  0  0  0  0  0  0  0  0
    5.3000    6.7130  -15.4470 C   0  0  0  0  0  0  0  0  0  0  0  0
    6.5700    4.0610  -13.0590 C   0  0  1  0  0  0  0  0  0  0  0  0
   10.9430    8.5490   -6.6680 C   0  0  2  0  0  0  0  0  0  0  0  0
    4.3020    4.5550  -14.4900 O   0  0  0  0  0  0  0  0  0  0  0  0
    9.9290   10.1900   -4.4190 C   0  0  0  0  0  0  0  0  0  0  0  0
    8.4870    6.4580  -12.2300 C   0  0  1  0  0  0  0  0  0  0  0  0
    8.0820    7.7920  -11.9530 C   0  0  0  0  0  0  0  0  0  0  0  0
    6.6360    5.4690  -13.4640 C   0  0  2  0  0  0  0  0  0  0  0  0
   13.5060    8.8710   -0.8150 O   0  0  0  0  0  0  0  0  0  0  0  0
   11.5610    5.9180   -6.1080 O   0  0  0  0  0  0  0  0  0  0  0  0
   11.9860    8.3920   -2.6750 N   0  0  0  0  0  0  0  0  0  0  0  0
    8.3250    5.6850  -13.4320 C   0  0  0  0  0  0  0  0  0  0  0  0
   10.2240    5.9780  -10.5550 C   0  0  0  0  0  0  0  0  0  0  0  0
    6.9560    5.5490   -0.5430 C   0  0  0  0  0  0  0  0  0  0  0  0
   11.6550    8.1350   -5.4810 O   0  0  0  0  0  0  0  0  0  0  0  0
    5.9090    4.3430  -14.6950 P   0  0  1  0  0  0  0  0  0  0  0  0
   11.2200   10.8740   -4.3820 C   0  0  2  0  0  0  0  0  0  0  0  0
    5.7650    2.7530  -15.2470 C   0  0  0  0  0  0  0  0  0  0  0  0
    8.5080    9.0620  -12.9850 C   0  0  0  0  0  0  0  0  0  0  0  0
   10.2240   11.7520   -4.3250 C   0  0  2  0  0  0  0  0  0  0  0  0
   13.8720    7.4650   -0.6160 F   0  0  0  0  0  0  0  0  0  0  0  0
   12.2160   10.7810   -5.3560 C   0  0  0  0  0  0  0  0  0  0  0  0
    8.9560    5.7750  -14.6350 C   0  0  0  0  0  0  0  0  0  0  0  0
    6.1400    6.6530  -14.2510 C   0  0  0  0  0  0  0  0  0  0  0  0
   11.4700    7.2820   -2.7580 C   0  0  0  0  0  0  0  0  0  0  0  0
    7.8300    3.0490  -13.1650 C   0  0  0  0  0  0  0  0  0  0  0  0
   10.0300    7.4830   -7.3230 C   0  0  2  0  0  0  0  0  0  0  0  0
   11.3660    6.4770   -3.8180 C   0  0  0  0  0  0  0  0  0  0  0  0
   10.2380    6.9580   -0.9440 C   0  0  0  0  0  0  0  0  0  0  0  0
    8.5880    5.0070   -8.5180 C   0  0  0  0  0  0  0  0  0  0  0  0
    9.4820    7.3930   -8.4170 C   0  0  0  0  0  0  0  0  0  0  0  0
    9.5820    6.5550   -6.4750 O   0  0  0  0  0  0  0  0  0  0  0  0
   12.0860   10.6250   -6.8240 C   0  0  0  0  0  0  0  0  0  0  0  0
   11.8650    9.3030   -7.5450 C   0  0  0  0  0  0  0  0  0  0  0  0
    8.2910    5.3980   -0.8110 C   0  0  0  0  0  0  0  0  0  0  0  0
   12.4340    9.1750   -1.7400 C   0  0  0  0  0  0  0  0  0  0  0  0
  1 39  1  0
  2 12  1  1
  2  1  1  0
  5 11  1  1
  5 26  1  0
  6 41  1  0
  7 10  1  0
  8 10  1  0
  8 44  1  1
 10 43  1  6
 13 42  1  0
 14 37  1  0
 15 39  1  6
 16 47  1  6
 16 28  1  0
 18 30  1  0
 18 33  1  0
 19  5  1  0
 19 20  1  6
 19  7  1  0
 21 37  1  6
 21 25  1  0
 21 15  1  0
 22 34  1  0
 23  6  2  0
 24 49  1  0
 25 19  1  0
 26  8  1  0
 28  6  1  0
 29 17  2  0
 29 21  1  0
 29 15  1  0
 30 35  1  6
 30 33  1  0
 31  2  1  0
 29 31  1  6
 32 20  1  0
 33  4  1  1
 36 25  2  0
 38 24  2  3
 38 13  1  0
 40 16  1  0
 40 45  1  1
 41 38  1  0
 42  3  1  0
 43  9  1  0
 44 40  1  0
 46 35  1  0
 47 46  1  0
 48 27  1  0
 48  3  1  0
 49 22  1  0
M  END
>  <GenAI_Model>  (87) 
DiffSBDD

>  <Protein>  (87) 
generic_title2

>  <num_sample>  (87) 
100

$$$$
DiffSBDD_87
     RDKit          3D

 35 38  0  0  0  0  0  0  0  0999 V2000
   11.5450    6.8990   -2.0780 S   0  0  0  0  0  0  0  0  0  0  0  0
    6.0120    0.3970  -14.4060 C   0  0  0  0  0  0  0  0  0  0  0  0
    6.4180    6.5570  -12.7450 C   0  0  0  0  0  0  0  0  0  0  0  0
    7.6000    4.3780  -12.7920 C   0  0  0  0  0  0  0  0  0  0  0  0
    8.8260    6.0690    0.2340 O   0  0  0  0  0  0  0  0  0  0  0  0
   10.7330    6.7390   -6.3390 C   0  0  0  0  0  0  0  0  0  0  0  0
    9.4390    6.4070   -8.9990 C   0  0  0  0  0  0  0  0  0  0  0  0
    8.8920    6.0660   -0.9230 C   0  0  0  0  0  0  0  0  0  0  0  0
   12.7690    9.2600   -1.4940 C   0  0  0  0  0  0  0  0  0  0  0  0
   10.9080    7.5830   -7.5010 C   0  0  0  0  0  0  0  0  0  0  0  0
    6.9050    3.9690  -15.2700 C   0  0  0  0  0  0  0  0  0  0  0  0
    9.5710    6.9890   -0.0010 C   0  0  2  0  0  0  0  0  0  0  0  0
   12.0260    8.7980   -3.6650 O   0  0  0  0  0  0  0  0  0  0  0  0
    8.9660    6.1890  -10.2050 C   0  0  0  0  0  0  0  0  0  0  0  0
   10.3920    7.6110   -0.8840 C   0  0  0  0  0  0  0  0  0  0  0  0
   12.1720    8.4450   -2.4950 C   0  0  2  0  0  0  0  0  0  0  0  0
    7.6300    5.8190  -12.9490 N   0  0  0  0  0  0  0  0  0  0  0  0
   11.5430    9.2160   -5.9000 C   0  0  0  0  0  0  0  0  0  0  0  0
   11.3710    8.8860   -7.2230 C   0  0  0  0  0  0  0  0  0  0  0  0
    6.7290    1.3970  -13.6180 C   0  0  0  0  0  0  0  0  0  0  0  0
   11.5020    8.3160   -4.8380 C   0  0  0  0  0  0  0  0  0  0  0  0
   11.0810    7.0580   -5.1180 C   0  0  0  0  0  0  0  0  0  0  0  0
   11.3690    7.5220   -9.9970 C   0  0  0  0  0  0  0  0  0  0  0  0
    5.1260    4.5330  -12.9030 C   0  0  0  0  0  0  0  0  0  0  0  0
    5.9720    2.4900  -13.3990 N   0  0  0  0  0  0  0  0  0  0  0  0
    6.4030    3.8750  -13.6450 C   0  0  2  0  0  0  0  0  0  0  0  0
    5.2090    5.9920  -13.4580 C   0  0  0  0  0  0  0  0  0  0  0  0
    7.7860    1.3270  -13.1040 O   0  0  0  0  0  0  0  0  0  0  0  0
    8.7390    7.9080  -13.3310 C   0  0  0  0  0  0  0  0  0  0  0  0
   13.7620    8.4740    0.7770 C   0  0  0  0  0  0  0  0  0  0  0  0
    8.9140    6.5320  -12.7600 C   0  0  1  0  0  0  0  0  0  0  0  0
   10.6630    7.1610   -8.8070 C   0  0  0  0  0  0  0  0  0  0  0  0
    9.5120    6.6730  -11.3430 C   0  0  0  0  0  0  0  0  0  0  0  0
   13.3620    8.9470   -0.4730 C   0  0  0  0  0  0  0  0  0  0  0  0
   10.7700    7.2970  -11.1310 C   0  0  0  0  0  0  0  0  0  0  0  0
  1 15  1  0
  2 20  1  0
  6 22  1  0
  7 32  1  0
  8 12  1  0
  8  5  1  0
  9 34  1  0
 10 19  1  0
 10  6  2  0
 12 15  1  1
 12  5  1  0
 13 16  1  0
 14  7  2  0
 16  1  1  0
 16  9  1  1
 17  4  1  0
 17 31  1  0
 17  3  1  0
 18 21  1  0
 19 18  2  0
 20 25  1  0
 20 28  2  0
 21 13  1  0
 22 21  2  0
 23 32  2  0
 26 11  1  6
 26 25  1  0
 26 24  1  0
 26  4  1  0
 27 24  1  0
 27  3  1  0
 31 29  1  1
 31 33  1  0
 32 10  1  0
 33 35  2  0
 33 14  1  0
 34 30  1  0
 35 23  1  0
M  END
>  <GenAI_Model>  (88) 
DiffSBDD

>  <Protein>  (88) 
generic_title2

>  <num_sample>  (88) 
100

$$$$
DiffSBDD_88
     RDKit          3D

 19 20  0  0  0  0  0  0  0  0999 V2000
   12.5520    7.9560   -4.1740 C   0  0  1  0  0  0  0  0  0  0  0  0
   11.7140    9.5510   -2.4830 F   0  0  0  0  0  0  0  0  0  0  0  0
   10.0960    4.7770   -7.9290 C   0  0  0  0  0  0  0  0  0  0  0  0
    9.1200    4.6240   -8.9650 C   0  0  0  0  0  0  0  0  0  0  0  0
   11.8260    7.8110   -7.6540 O   0  0  0  0  0  0  0  0  0  0  0  0
    9.1290    5.9730  -10.9390 O   0  0  0  0  0  0  0  0  0  0  0  0
   12.2520    9.0170   -5.2190 O   0  0  0  0  0  0  0  0  0  0  0  0
    8.7690    5.9820   -9.5880 C   0  0  2  0  0  0  0  0  0  0  0  0
   11.1590    6.5120   -3.4500 C   0  0  0  0  0  0  0  0  0  0  0  0
   10.3180    6.2250   -7.9260 N   0  0  0  0  0  0  0  0  0  0  0  0
   12.7030    8.5520   -2.8800 C   0  0  1  0  0  0  0  0  0  0  0  0
   10.4110    7.2100   -1.2880 F   0  0  0  0  0  0  0  0  0  0  0  0
   11.4440    6.7350   -1.9630 C   0  0  2  0  0  0  0  0  0  0  0  0
   11.1450    6.9570   -7.1320 C   0  0  0  0  0  0  0  0  0  0  0  0
   13.0470    8.0920   -0.4570 C   0  0  0  0  0  0  0  0  0  0  0  0
   11.1700    6.6720   -5.7950 N   0  0  0  0  0  0  0  0  0  0  0  0
   11.6370    7.0740   -4.4920 C   0  0  0  0  0  0  0  0  0  0  0  0
    9.4490    6.9700   -8.7300 C   0  0  0  0  0  0  0  0  0  0  0  0
   12.6680    7.4910   -1.8360 C   0  0  2  0  0  0  0  0  0  0  0  0
  1  7  1  6
  1 11  1  0
  3 10  1  0
  4  3  1  0
  5 14  2  0
  8  6  1  6
  8  4  1  0
  8 18  1  0
  9 13  1  0
 10 14  1  0
 11  2  1  1
 11 19  1  0
 13 19  1  0
 13 12  1  6
 14 16  1  0
 16 17  2  3
 17  1  1  0
 17  9  1  0
 18 10  1  0
 19 15  1  1
M  END
>  <GenAI_Model>  (89) 
DiffSBDD

>  <Protein>  (89) 
generic_title2

>  <num_sample>  (89) 
100

$$$$
DiffSBDD_89
     RDKit          3D

 40 43  0  0  0  0  0  0  0  0999 V2000
   12.1190    9.1450   -1.8730 C   0  0  0  0  0  0  0  0  0  0  0  0
    5.5490    5.3600  -14.3480 O   0  0  0  0  0  0  0  0  0  0  0  0
    5.7600    2.2860  -13.5930 C   0  0  0  0  0  0  0  0  0  0  0  0
    5.5710    5.6860  -11.9970 C   0  0  0  0  0  0  0  0  0  0  0  0
    6.1910    5.2730  -13.3290 C   0  0  0  0  0  0  0  0  0  0  0  0
    7.1560    4.3220  -13.0550 C   0  0  0  0  0  0  0  0  0  0  0  0
   11.4850    6.4460   -0.5250 F   0  0  0  0  0  0  0  0  0  0  0  0
   11.5190   10.6470   -5.2930 C   0  0  0  0  0  0  0  0  0  0  0  0
    8.9410    8.1890   -8.0030 C   0  0  0  0  0  0  0  0  0  0  0  0
   11.6910    6.2910   -6.2190 C   0  0  0  0  0  0  0  0  0  0  0  0
   13.2810    7.6840   -0.2160 F   0  0  0  0  0  0  0  0  0  0  0  0
   13.2690    5.7880   -1.3180 F   0  0  0  0  0  0  0  0  0  0  0  0
    8.1190    2.0490  -13.2950 C   0  0  0  0  0  0  0  0  0  0  0  0
    8.6380    5.8690   -9.8540 C   0  0  2  0  0  0  0  0  0  0  0  0
   11.7800    8.1970   -4.4870 C   0  0  0  0  0  0  0  0  0  0  0  0
    7.8100    5.3740  -10.9890 N   0  0  0  0  0  0  0  0  0  0  0  0
    8.4800    9.5970  -11.7480 C   0  0  0  0  0  0  0  0  0  0  0  0
    7.1180    3.0110  -13.7700 C   0  0  0  0  0  0  0  0  0  0  0  0
   12.1470    9.7210   -0.6400 O   0  0  0  0  0  0  0  0  0  0  0  0
   11.1090    8.5890   -6.7780 C   0  0  0  0  0  0  0  0  0  0  0  0
   11.6190    7.6970   -5.7190 C   0  0  0  0  0  0  0  0  0  0  0  0
   10.3860    7.6830   -7.8560 C   0  0  1  0  0  0  0  0  0  0  0  0
   12.1240    7.2950   -3.4010 C   0  0  0  0  0  0  0  0  0  0  0  0
   12.3000    7.7920   -2.1650 C   0  0  0  0  0  0  0  0  0  0  0  0
   11.0030   10.0560   -6.6250 C   0  0  0  0  0  0  0  0  0  0  0  0
    8.2170    4.6300  -12.0860 C   0  0  0  0  0  0  0  0  0  0  0  0
    9.3910    4.3950  -12.4610 O   0  0  0  0  0  0  0  0  0  0  0  0
    9.8810    6.5900  -10.1370 C   0  0  1  0  0  0  0  0  0  0  0  0
    9.0690    4.7460   -8.8920 C   0  0  0  0  0  0  0  0  0  0  0  0
   11.8740   10.0630   -2.9290 C   0  0  0  0  0  0  0  0  0  0  0  0
   12.5930    6.9230   -1.0370 C   0  0  0  0  0  0  0  0  0  0  0  0
    9.5190    7.2880  -11.5050 C   0  0  2  0  0  0  0  0  0  0  0  0
   10.6510    7.7880  -12.2300 F   0  0  0  0  0  0  0  0  0  0  0  0
    7.1450    3.6820  -15.0990 O   0  0  0  0  0  0  0  0  0  0  0  0
    6.3680    5.3930  -10.7850 C   0  0  0  0  0  0  0  0  0  0  0  0
   10.4530    6.2620   -7.1420 C   0  0  0  0  0  0  0  0  0  0  0  0
   10.8690    7.5180   -9.2960 C   0  0  1  0  0  0  0  0  0  0  0  0
   11.3020    8.8990   -9.7870 C   0  0  0  0  0  0  0  0  0  0  0  0
    8.3260    8.1500  -11.6570 C   0  0  0  0  0  0  0  0  0  0  0  0
   11.7470    9.5610   -4.1980 C   0  0  0  0  0  0  0  0  0  0  0  0
  1 19  1  0
  2  5  2  0
  4 35  1  0
  5  6  1  0
  5  4  1  0
  6 18  1  0
  6 26  1  0
  8 40  1  0
 10 21  1  0
 12 31  1  0
 14 29  1  1
 15 40  1  0
 15 23  2  0
 16 35  1  0
 16 14  1  0
 17 39  1  0
 18  3  1  0
 18 13  1  0
 20 25  1  0
 20 21  2  0
 21 15  1  0
 22  9  1  6
 22 36  1  0
 22 20  1  0
 23 24  1  0
 24  1  2  0
 24 31  1  0
 25  8  2  0
 26 16  1  0
 27 26  2  0
 28 32  1  6
 28 14  1  0
 28 37  1  0
 30  1  1  0
 31  7  1  0
 31 11  1  0
 32 33  1  1
 34 18  1  0
 36 10  1  0
 37 38  1  6
 37 22  1  0
 39 32  1  0
 40 30  2  0
M  END
>  <GenAI_Model>  (90) 
DiffSBDD

>  <Protein>  (90) 
generic_title2

>  <num_sample>  (90) 
100

$$$$
DiffSBDD_90
     RDKit          3D

 41 45  0  0  0  0  0  0  0  0999 V2000
    8.8370    6.0560   -7.0870 C   0  0  0  0  0  0  0  0  0  0  0  0
    9.8770    6.9850   -6.7370 C   0  0  1  0  0  0  0  0  0  0  0  0
   11.9700    8.1480   -3.9040 C   0  0  0  0  0  0  0  0  0  0  0  0
    8.0260    4.4930  -12.3410 C   0  0  2  0  0  0  0  0  0  0  0  0
   10.9900    5.9560   -4.5270 C   0  0  0  0  0  0  0  0  0  0  0  0
   13.1610    8.2290   -2.8310 C   0  0  2  0  0  0  0  0  0  0  0  0
   10.1050    6.9610  -10.2730 C   0  0  2  0  0  0  0  0  0  0  0  0
    7.8890    4.9390   -9.1650 O   0  0  0  0  0  0  0  0  0  0  0  0
    9.0210    5.6750   -8.6130 C   0  0  1  0  0  0  0  0  0  0  0  0
    5.5820    4.1930  -11.9720 C   0  0  0  0  0  0  0  0  0  0  0  0
    7.5680    1.9890  -15.5310 O   0  0  0  0  0  0  0  0  0  0  0  0
   10.6680    7.0350   -5.3470 C   0  0  0  0  0  0  0  0  0  0  0  0
   12.2210    7.7670   -7.4760 C   0  0  2  0  0  0  0  0  0  0  0  0
    7.3600    1.3290  -13.7110 O   0  0  0  0  0  0  0  0  0  0  0  0
    9.0020    3.4340  -11.9710 O   0  0  0  0  0  0  0  0  0  0  0  0
    8.9950    6.7430  -11.3280 C   0  0  2  0  0  0  0  0  0  0  0  0
    7.5080    5.8870  -11.5290 N   0  0  0  0  0  0  0  0  0  0  0  0
    9.5110    6.7530   -9.1670 N   0  0  0  0  0  0  0  0  0  0  0  0
    6.4760    5.9000  -15.0720 C   0  0  0  0  0  0  0  0  0  0  0  0
    9.7210    6.4590  -12.5450 C   0  0  0  0  0  0  0  0  0  0  0  0
   12.9960    9.0050   -7.2580 O   0  0  0  0  0  0  0  0  0  0  0  0
   11.0140    6.4050  -12.6870 O   0  0  0  0  0  0  0  0  0  0  0  0
   13.4180    8.3720   -9.6570 O   0  0  0  0  0  0  0  0  0  0  0  0
   11.1490    8.2830   -8.4610 C   0  0  1  0  0  0  0  0  0  0  0  0
    7.2700    2.2650  -14.4650 C   0  0  0  0  0  0  0  0  0  0  0  0
   11.0380    8.0780  -10.6610 C   0  0  0  0  0  0  0  0  0  0  0  0
   11.8470    6.5830   -3.7200 N   0  0  0  0  0  0  0  0  0  0  0  0
    7.1520    6.7790  -14.5250 O   0  0  0  0  0  0  0  0  0  0  0  0
   13.1480    6.9910   -1.9150 C   0  0  0  0  0  0  0  0  0  0  0  0
   11.2350    8.2340   -5.0660 N   0  0  0  0  0  0  0  0  0  0  0  0
    6.8210    4.2160  -12.6530 C   0  0  2  0  0  0  0  0  0  0  0  0
   11.3160   10.4040   -3.1600 O   0  0  0  0  0  0  0  0  0  0  0  0
   13.0420    9.4230   -2.0600 O   0  0  0  0  0  0  0  0  0  0  0  0
   12.2210   10.4060   -2.7690 C   0  0  0  0  0  0  0  0  0  0  0  0
    5.4750    6.5750  -16.0520 C   0  0  0  0  0  0  0  0  0  0  0  0
    6.7970    3.6180  -14.2030 C   0  0  0  0  0  0  0  0  0  0  0  0
   11.8630    8.5940   -9.7280 C   0  0  2  0  0  0  0  0  0  0  0  0
   12.1340    9.9180   -4.0620 C   0  0  0  0  0  0  0  0  0  0  0  0
    6.5890    4.5570  -15.1820 N   0  0  0  0  0  0  0  0  0  0  0  0
   12.5830    5.9250   -2.7650 C   0  0  0  0  0  0  0  0  0  0  0  0
   10.8890    7.0450   -7.9010 C   0  0  1  0  0  0  0  0  0  0  0  0
  1  2  1  0
  2 12  1  1
  3 27  1  0
  3  6  1  0
  4 15  1  1
  4 17  1  0
  5 27  1  0
  6 33  1  1
  6 29  1  0
  7 16  1  0
  7 18  1  0
  9  8  1  6
  9  1  1  0
 11 25  2  0
 12 30  1  0
 12  5  2  0
 13 21  1  1
 16 20  1  6
 17 16  1  0
 18  9  1  0
 41 18  1  6
 19 28  2  0
 22 20  1  0
 24 41  1  0
 24 13  1  0
 25 36  1  0
 25 14  1  0
  7 26  1  1
 26 37  1  0
 27 40  1  0
 30  3  2  0
 31  4  1  0
 31 10  1  1
 32 34  1  0
 34 33  1  0
 35 19  1  0
 36 31  1  0
 37 23  1  1
 24 37  1  6
 38 32  1  0
 39 19  1  0
 39 36  2  3
 40 29  1  0
 41 13  1  0
 41  2  1  0
M  END
>  <GenAI_Model>  (91) 
DiffSBDD

>  <Protein>  (91) 
generic_title2

>  <num_sample>  (91) 
100

$$$$
DiffSBDD_91
     RDKit          3D

 29 29  0  0  0  0  0  0  0  0999 V2000
   12.6070    9.3240   -4.8860 O   0  0  0  0  0  0  0  0  0  0  0  0
    6.5360    6.8250  -13.8150 C   0  0  0  0  0  0  0  0  0  0  0  0
    9.6560    6.6610  -12.3870 O   0  0  0  0  0  0  0  0  0  0  0  0
    6.6390    7.6850  -12.7240 F   0  0  0  0  0  0  0  0  0  0  0  0
    7.7600    4.9670  -15.0600 C   0  0  0  0  0  0  0  0  0  0  0  0
    8.9350    5.9550  -11.7420 C   0  0  0  0  0  0  0  0  0  0  0  0
    9.5490    8.6660  -10.4610 O   0  0  0  0  0  0  0  0  0  0  0  0
   12.2820    8.2830   -4.2860 C   0  0  0  0  0  0  0  0  0  0  0  0
   11.4130    7.2040   -4.8510 C   0  0  1  0  0  0  0  0  0  0  0  0
   12.4370    7.8560   -7.2150 C   0  0  0  0  0  0  0  0  0  0  0  0
   12.0650    8.3300   -2.8070 C   0  0  2  0  0  0  0  0  0  0  0  0
    7.7310    5.2540  -12.4240 C   0  0  2  0  0  0  0  0  0  0  0  0
   12.3020    6.2350   -1.6270 O   0  0  0  0  0  0  0  0  0  0  0  0
   10.2450    8.3990   -8.0590 N   0  0  0  0  0  0  0  0  0  0  0  0
   10.0920    6.3710   -9.6510 C   0  0  0  0  0  0  0  0  0  0  0  0
   12.1940    9.5810   -2.0260 C   0  0  0  0  0  0  0  0  0  0  0  0
    5.4290    5.8830  -13.7070 F   0  0  0  0  0  0  0  0  0  0  0  0
   12.6030    9.1580   -0.6610 C   0  0  0  0  0  0  0  0  0  0  0  0
   11.7970    6.7330   -6.2490 C   0  0  0  0  0  0  0  0  0  0  0  0
    7.7710    5.8510  -13.7870 C   0  0  2  0  0  0  0  0  0  0  0  0
   11.8360    6.8730   -2.5190 C   0  0  0  0  0  0  0  0  0  0  0  0
   11.2770    6.2090   -3.7390 O   0  0  0  0  0  0  0  0  0  0  0  0
    8.9410    5.6830  -10.2910 N   0  0  0  0  0  0  0  0  0  0  0  0
    8.8770    4.2130   -9.9350 C   0  0  0  0  0  0  0  0  0  0  0  0
   13.9490    8.5090   -0.8280 O   0  0  0  0  0  0  0  0  0  0  0  0
   11.5640    8.6280   -8.2050 C   0  0  0  0  0  0  0  0  0  0  0  0
    9.0900    8.5340   -7.2940 O   0  0  0  0  0  0  0  0  0  0  0  0
    6.7160    5.3650  -11.4110 O   0  0  0  0  0  0  0  0  0  0  0  0
    9.8980    7.7900   -9.5180 C   0  0  0  0  0  0  0  0  0  0  0  0
  1  8  2  0
  2 20  1  0
  2 17  1  0
  2  4  1  0
  3  6  2  0
  6 23  1  0
  7 29  2  0
  8 11  1  0
  9 19  1  6
  9  8  1  0
  9 22  1  0
 10 19  1  0
 11 21  1  0
 11 16  1  1
 12  6  1  0
 12 28  1  1
 14 27  1  0
 15 29  1  0
 16 18  1  0
 20  5  1  6
 20 12  1  0
 21 13  2  0
 22 21  1  0
 23 24  1  0
 23 15  1  0
 25 18  1  0
 26 14  1  0
 26 10  1  0
 29 14  1  0
M  END
>  <GenAI_Model>  (92) 
DiffSBDD

>  <Protein>  (92) 
generic_title2

>  <num_sample>  (92) 
100

$$$$
DiffSBDD_92
     RDKit          3D

 23 24  0  0  0  0  0  0  0  0999 V2000
    9.7180    7.3820  -11.7620 O   0  0  0  0  0  0  0  0  0  0  0  0
    9.9770    6.5910   -9.6980 N   0  0  0  0  0  0  0  0  0  0  0  0
    9.7650    6.5000  -10.9590 C   0  0  0  0  0  0  0  0  0  0  0  0
   12.5290    8.8070   -4.0560 C   0  0  0  0  0  0  0  0  0  0  0  0
    6.1150    6.7700  -13.7310 Cl  0  0  0  0  0  0  0  0  0  0  0  0
    7.1670    5.5440  -11.0240 O   0  0  0  0  0  0  0  0  0  0  0  0
   12.0300    6.5230   -3.0640 C   0  0  0  0  0  0  0  0  0  0  0  0
    5.5530    4.3910  -12.6000 C   0  0  0  0  0  0  0  0  0  0  0  0
    6.5370    5.0600  -13.5030 C   0  0  2  0  0  0  0  0  0  0  0  0
   11.9540    7.1920   -1.6270 C   0  0  0  0  0  0  0  0  0  0  0  0
   12.7380    8.5190   -1.6000 C   0  0  0  0  0  0  0  0  0  0  0  0
    9.6190    5.0560  -11.3560 C   0  0  0  0  0  0  0  0  0  0  0  0
    9.7590    7.3800   -7.2640 C   0  0  0  0  0  0  0  0  0  0  0  0
    8.1290    4.6970  -11.6700 C   0  0  2  0  0  0  0  0  0  0  0  0
    7.8880    4.7390  -13.1110 O   0  0  0  0  0  0  0  0  0  0  0  0
   10.0230    7.7410   -8.7240 C   0  0  1  0  0  0  0  0  0  0  0  0
   11.1390    7.0960   -5.2560 N   0  0  0  0  0  0  0  0  0  0  0  0
    5.9120    4.8400  -11.2030 C   0  0  0  0  0  0  0  0  0  0  0  0
   10.5680    7.9330   -6.1700 C   0  0  0  0  0  0  0  0  0  0  0  0
   11.8300    7.4680   -4.1720 C   0  0  0  0  0  0  0  0  0  0  0  0
   10.6700    9.1720   -6.0590 O   0  0  0  0  0  0  0  0  0  0  0  0
   12.2310    9.4370   -2.7350 C   0  0  0  0  0  0  0  0  0  0  0  0
   11.1610    8.6650   -8.9920 C   0  0  0  0  0  0  0  0  0  0  0  0
  1  3  2  0
  2 16  1  0
  3  2  1  0
  4 22  1  0
  7 10  1  0
  8 18  1  0
  9  5  1  1
  9 15  1  0
  9  8  1  0
 10 11  1  0
 12  3  1  0
 13 19  1  0
 14 12  1  6
 14  6  1  0
 15 14  1  0
 16 23  1  1
 16 13  1  0
 17 20  1  0
 18  6  1  0
 19 21  2  0
 19 17  1  0
 20  4  1  0
 20  7  1  0
 22 11  1  0
M  END
>  <GenAI_Model>  (93) 
DiffSBDD

>  <Protein>  (93) 
generic_title2

>  <num_sample>  (93) 
100

$$$$
DiffSBDD_93
     RDKit          3D

 33 37  0  0  0  0  0  0  0  0999 V2000
    9.3580    6.7070  -11.3430 C   0  0  1  0  0  0  0  0  0  0  0  0
   11.6500    6.7770   -3.5990 C   0  0  0  0  0  0  0  0  0  0  0  0
    6.5730    4.7440  -14.0710 C   0  0  0  0  0  0  0  0  0  0  0  0
   13.5640    8.7950    0.0150 O   0  0  0  0  0  0  0  0  0  0  0  0
    8.9010    5.1810   -9.5440 C   0  0  0  0  0  0  0  0  0  0  0  0
    8.2440    5.2190   -8.2090 C   0  0  0  0  0  0  0  0  0  0  0  0
   12.3860    9.2920   -2.7220 C   0  0  0  0  0  0  0  0  0  0  0  0
   11.8100    7.0400  -10.6310 C   0  0  0  0  0  0  0  0  0  0  0  0
    8.9130    6.6310   -9.9730 N   0  0  0  0  0  0  0  0  0  0  0  0
   11.8880    9.1390   -4.0220 C   0  0  0  0  0  0  0  0  0  0  0  0
   12.0040    6.9950   -2.3580 C   0  0  0  0  0  0  0  0  0  0  0  0
    6.4300    5.1680  -11.3920 C   0  0  0  0  0  0  0  0  0  0  0  0
    8.1030    7.4890  -11.8320 C   0  0  1  0  0  0  0  0  0  0  0  0
   12.9200    8.0580   -0.6150 C   0  0  0  0  0  0  0  0  0  0  0  0
    7.0890    5.9290  -13.4880 C   0  0  0  0  0  0  0  0  0  0  0  0
   12.2110    7.5250   -9.2390 C   0  0  0  0  0  0  0  0  0  0  0  0
    8.6180    8.6360  -12.4850 O   0  0  0  0  0  0  0  0  0  0  0  0
   10.4630    7.7760  -10.4990 C   0  0  2  0  0  0  0  0  0  0  0  0
   11.5530    7.8870   -4.4550 C   0  0  0  0  0  0  0  0  0  0  0  0
   12.4700    8.2570   -1.9150 C   0  0  0  0  0  0  0  0  0  0  0  0
    5.9210    3.8560  -13.3040 C   0  0  0  0  0  0  0  0  0  0  0  0
   12.4840    6.8430   -0.2590 N   0  0  0  0  0  0  0  0  0  0  0  0
   11.9940    6.0210   -1.2470 C   0  0  0  0  0  0  0  0  0  0  0  0
   10.8070    6.8550   -6.3950 C   0  0  0  0  0  0  0  0  0  0  0  0
   11.1370    7.7940   -5.7080 N   0  0  0  0  0  0  0  0  0  0  0  0
    9.5600    8.0110   -9.5470 C   0  0  2  0  0  0  0  0  0  0  0  0
    9.7270    6.8270   -7.3370 C   0  0  2  0  0  0  0  0  0  0  0  0
    7.1390    6.2430  -12.1310 C   0  0  0  0  0  0  0  0  0  0  0  0
    9.3580    7.8790   -7.9870 C   0  0  0  0  0  0  0  0  0  0  0  0
    7.5350    6.8840  -14.4120 O   0  0  0  0  0  0  0  0  0  0  0  0
   10.1430    6.2010  -12.4740 C   0  0  0  0  0  0  0  0  0  0  0  0
    8.8800    5.6770   -7.0470 C   0  0  0  0  0  0  0  0  0  0  0  0
    5.7880    4.0710  -12.0010 C   0  0  0  0  0  0  0  0  0  0  0  0
  1 31  1  6
  1 18  1  0
  1  9  1  0
  2 11  1  0
  3 15  2  0
  3 21  1  0
  5  6  1  0
  6 32  1  0
  7 20  1  0
  8 16  1  0
  9 26  1  0
  9  5  1  0
 10  7  2  0
 11 20  2  0
 11 23  1  0
 13 17  1  6
 13  1  1  0
 14 22  1  0
 14  4  2  0
 15 28  1  0
 18  8  1  1
 18 26  1  0
 19 10  1  0
 19  2  2  0
 20 14  1  0
 21 33  2  0
 23 22  1  0
 24 25  1  0
 25 19  1  0
 26 29  1  1
 27 32  1  0
 27 24  1  1
 28 13  1  0
 28 12  2  0
 29 27  1  0
 30 15  1  0
 33 12  1  0
M  END
>  <GenAI_Model>  (94) 
DiffSBDD

>  <Protein>  (94) 
generic_title2

>  <num_sample>  (94) 
100

$$$$
DiffSBDD_94
     RDKit          3D

 33 37  0  0  0  0  0  0  0  0999 V2000
   10.6720    7.3760  -10.9440 C   0  0  0  0  0  0  0  0  0  0  0  0
   10.1740    7.2570   -6.2030 C   0  0  0  0  0  0  0  0  0  0  0  0
   10.6990    8.1850   -0.4090 O   0  0  0  0  0  0  0  0  0  0  0  0
   11.1540    7.8030   -9.6470 C   0  0  0  0  0  0  0  0  0  0  0  0
   12.1000    7.8700   -0.7910 C   0  0  1  0  0  0  0  0  0  0  0  0
    6.0080    7.3530  -12.7300 N   0  0  0  0  0  0  0  0  0  0  0  0
    5.6910    7.7240  -13.9620 C   0  0  0  0  0  0  0  0  0  0  0  0
    9.4340    6.5260  -11.0760 C   0  0  2  0  0  0  0  0  0  0  0  0
    6.8670    5.3710  -13.6400 C   0  0  0  0  0  0  0  0  0  0  0  0
   12.4440    9.1260   -1.2830 C   0  0  1  0  0  0  0  0  0  0  0  0
    8.2160    4.4400  -10.1370 Cl  0  0  0  0  0  0  0  0  0  0  0  0
   13.5290    8.1980   -0.9070 C   0  0  0  0  0  0  0  0  0  0  0  0
    7.7120    4.1500  -13.3590 C   0  0  2  0  0  0  0  0  0  0  0  0
   12.0460    7.8800   -7.0010 C   0  0  0  0  0  0  0  0  0  0  0  0
   10.5680    7.9770   -7.3050 C   0  0  0  0  0  0  0  0  0  0  0  0
    9.3580    5.8580   -9.8040 C   0  0  2  0  0  0  0  0  0  0  0  0
   11.3270    8.5090   -3.4120 C   0  0  1  0  0  0  0  0  0  0  0  0
    7.2650    2.7180  -13.0460 C   0  0  0  0  0  0  0  0  0  0  0  0
    5.8580    6.9580  -15.0700 C   0  0  0  0  0  0  0  0  0  0  0  0
    8.2940    6.0810   -7.5900 O   0  0  0  0  0  0  0  0  0  0  0  0
    6.6130    6.1890  -12.5370 N   0  0  0  0  0  0  0  0  0  0  0  0
   11.5380    7.7270   -5.6220 N   0  0  0  0  0  0  0  0  0  0  0  0
   11.7530    9.6640   -2.4750 C   0  0  0  0  0  0  0  0  0  0  0  0
   10.2180    7.3410   -8.6490 N   0  0  0  0  0  0  0  0  0  0  0  0
   12.4720   10.2810   -0.3570 F   0  0  0  0  0  0  0  0  0  0  0  0
   11.3710    8.9870   -4.8380 C   0  0  0  0  0  0  0  0  0  0  0  0
    6.5260    5.6860  -14.9020 C   0  0  0  0  0  0  0  0  0  0  0  0
   11.9160    6.6390   -1.7050 C   0  0  0  0  0  0  0  0  0  0  0  0
   12.1920    6.3050   -3.9150 O   0  0  0  0  0  0  0  0  0  0  0  0
    9.2390    6.2630   -8.5510 C   0  0  0  0  0  0  0  0  0  0  0  0
    8.7120    4.2880  -12.1530 C   0  0  0  0  0  0  0  0  0  0  0  0
   11.9140    7.2070   -3.1200 C   0  0  0  0  0  0  0  0  0  0  0  0
    9.4900    5.5410  -12.2490 N   0  0  0  0  0  0  0  0  0  0  0  0
  1  4  1  0
  2 22  1  0
  4 24  1  0
  5  3  1  1
  6 21  2  0
  7  6  1  0
  8 33  1  6
  8  1  1  0
  8 16  1  0
  9 13  1  0
  9 21  1  0
 10 12  1  0
 10  5  1  0
 10 25  1  1
 12  5  1  0
 13 18  1  1
 13 31  1  0
 14 22  1  0
 15 24  1  0
 15 14  1  0
 15  2  1  0
 16 11  1  6
 16 30  1  0
 17 26  1  6
 17 32  1  0
 17 23  1  0
 19 27  1  0
 19  7  2  0
 22 26  1  0
 23 10  1  0
 24 30  1  0
 27  9  2  0
 28  5  1  0
 29 32  2  0
 30 20  2  0
 32 28  1  0
 33 31  1  0
M  END
>  <GenAI_Model>  (95) 
DiffSBDD

>  <Protein>  (95) 
generic_title2

>  <num_sample>  (95) 
100

$$$$
DiffSBDD_95
     RDKit          3D

 30 35  0  0  0  0  0  0  0  0999 V2000
    6.7240    7.3080  -13.8950 C   0  0  0  0  0  0  0  0  0  0  0  0
    6.1610    2.3020  -13.6980 C   0  0  0  0  0  0  0  0  0  0  0  0
    7.0580    2.4700  -15.0340 C   0  0  0  0  0  0  0  0  0  0  0  0
    7.2530    5.7780  -13.9180 C   0  0  1  0  0  0  0  0  0  0  0  0
   10.8870    5.8030   -7.0370 C   0  0  0  0  0  0  0  0  0  0  0  0
   11.4110    9.8800   -5.6340 O   0  0  0  0  0  0  0  0  0  0  0  0
   11.4530    7.7740   -5.8230 N   0  0  0  0  0  0  0  0  0  0  0  0
   10.3590    7.2240   -9.0950 C   0  0  0  0  0  0  0  0  0  0  0  0
    6.2500    4.7240  -14.0810 C   0  0  2  0  0  0  0  0  0  0  0  0
    8.3740    5.4950   -8.4740 N   0  0  0  0  0  0  0  0  0  0  0  0
   12.8450    9.3200   -1.3830 C   0  0  0  0  0  0  0  0  0  0  0  0
    8.6840    6.7840   -7.7820 C   0  0  0  0  0  0  0  0  0  0  0  0
    8.5510    5.2210  -15.1960 S   0  0  0  0  0  0  0  0  0  0  0  0
   11.9810    8.4850   -3.4980 C   0  0  0  0  0  0  0  0  0  0  0  0
    8.1890    5.6130   -9.9440 C   0  0  0  0  0  0  0  0  0  0  0  0
    5.4630    3.6000  -13.4260 C   0  0  0  0  0  0  0  0  0  0  0  0
    7.5280    4.8120  -12.9270 C   0  0  1  0  0  0  0  0  0  0  0  0
    9.0940    4.9590  -12.2800 C   0  0  1  0  0  0  0  0  0  0  0  0
   12.0630    7.1280   -2.9870 C   0  0  0  0  0  0  0  0  0  0  0  0
    9.5780    6.4650  -11.9360 C   0  0  0  0  0  0  0  0  0  0  0  0
   11.6540    8.7300   -4.9240 C   0  0  2  0  0  0  0  0  0  0  0  0
   11.6420    6.2560   -5.7850 C   0  0  0  0  0  0  0  0  0  0  0  0
   10.8780    9.4770   -6.8730 N   0  0  0  0  0  0  0  0  0  0  0  0
   10.7540    8.2180   -6.8360 C   0  0  1  0  0  0  0  0  0  0  0  0
   10.1350    7.1360   -7.7570 C   0  0  1  0  0  0  0  0  0  0  0  0
    8.4100    3.3570  -15.0330 C   0  0  0  0  0  0  0  0  0  0  0  0
   12.2080    9.3880   -2.5650 C   0  0  0  0  0  0  0  0  0  0  0  0
    9.4000    5.4120  -10.8850 C   0  0  1  0  0  0  0  0  0  0  0  0
   12.8770    7.8840   -0.8730 C   0  0  0  0  0  0  0  0  0  0  0  0
   12.4250    6.8530   -1.6600 C   0  0  0  0  0  0  0  0  0  0  0  0
  2 16  1  0
  3 26  1  0
  3  2  1  0
  4  1  1  1
  4 17  1  0
  5 22  2  0
  6 21  1  0
  7 22  1  0
  7 21  1  0
  9  4  1  0
  9 16  1  1
  9 17  1  0
 10 12  1  0
 11 29  2  0
 12 25  1  0
 13 26  1  0
 13  4  1  0
 14 19  1  0
 14 27  2  0
 15 10  1  0
 17 18  1  6
 18 20  1  6
 18 28  1  0
 19 30  2  0
 20 28  1  0
 21 14  1  1
 23  6  1  0
 24 23  1  6
 24  7  1  0
 25  8  1  6
 25  5  1  0
 25 24  1  0
 27 11  1  0
 28 15  1  1
 30 29  1  0
M  END
>  <GenAI_Model>  (96) 
DiffSBDD

>  <Protein>  (96) 
generic_title2

>  <num_sample>  (96) 
100

$$$$
DiffSBDD_96
     RDKit          3D

 21 24  0  0  0  0  0  0  0  0999 V2000
    5.3290    6.2470  -12.4300 C   0  0  0  0  0  0  0  0  0  0  0  0
    9.3530    5.1110   -8.8220 C   0  0  0  0  0  0  0  0  0  0  0  0
   11.5260    7.8080  -10.2690 C   0  0  0  0  0  0  0  0  0  0  0  0
   10.6220    7.1070  -11.1220 C   0  0  0  0  0  0  0  0  0  0  0  0
   11.9420    8.5320   -7.9900 C   0  0  0  0  0  0  0  0  0  0  0  0
    9.8430    6.4560   -9.0010 C   0  0  2  0  0  0  0  0  0  0  0  0
    9.7190    6.3250  -10.7570 C   0  0  0  0  0  0  0  0  0  0  0  0
    6.0300    3.8420  -11.7380 C   0  0  0  0  0  0  0  0  0  0  0  0
    6.6770    8.1930  -14.3990 O   0  0  0  0  0  0  0  0  0  0  0  0
    6.8950    4.2230  -13.2160 S   0  0  0  0  0  0  0  0  0  0  0  0
    8.7000    5.5300  -11.0810 N   0  0  0  0  0  0  0  0  0  0  0  0
   11.0830    7.5000   -8.9140 N   0  0  0  0  0  0  0  0  0  0  0  0
    5.2390    5.1890  -11.3670 C   0  0  0  0  0  0  0  0  0  0  0  0
    7.7550    6.3130  -12.2110 C   0  0  0  0  0  0  0  0  0  0  0  0
    8.2030    4.9530   -9.7750 C   0  0  0  0  0  0  0  0  0  0  0  0
   11.0100    7.2790  -12.3690 F   0  0  0  0  0  0  0  0  0  0  0  0
    6.5000    6.0090  -13.2230 C   0  0  2  0  0  0  0  0  0  0  0  0
    5.9070    7.8160  -15.8710 C   0  0  0  0  0  0  0  0  0  0  0  0
   12.5380    8.3470  -10.3740 O   0  0  0  0  0  0  0  0  0  0  0  0
    7.5720    5.9490  -15.5060 O   0  0  0  0  0  0  0  0  0  0  0  0
    6.6540    6.8680  -14.7600 P   0  0  1  0  0  0  0  0  0  0  0  0
  1 13  1  0
  3 12  1  0
  4  7  2  0
  4  3  1  0
  6 12  1  0
  6  2  1  1
  7  6  1  0
  8 13  1  0
 10  8  1  0
 11  7  1  0
 11 15  1  0
 12  5  1  0
 14 11  1  0
 15  2  1  0
 16  4  1  0
 17 10  1  0
 17  1  1  0
 17 14  1  1
 21 18  1  6
 18  9  1  0
 19  3  2  0
 21 20  2  0
 21  9  1  0
 21 17  1  0
M  END
>  <GenAI_Model>  (97) 
DiffSBDD

>  <Protein>  (97) 
generic_title2

>  <num_sample>  (97) 
100

$$$$
