DiffSBDD_0_num_sample_100
     RDKit          3D

 62 64  0  0  0  0  0  0  0  0999 V2000
   37.1490   24.2210   55.8510 C   0  0  0  0  0  0  0  0  0  0  0  0
   37.4610   25.6880   55.2950 C   0  0  0  0  0  0  0  0  0  0  0  0
   38.2540   26.1220   56.4730 C   0  0  2  0  0  0  0  0  0  0  0  0
   39.0360   25.3040   57.3760 C   0  0  0  0  0  0  0  0  0  0  0  0
   37.9000   27.5360   56.7920 N   0  0  0  0  0  0  0  0  0  0  0  0
   37.8090   28.6280   55.9070 C   0  0  1  0  0  0  0  0  0  0  0  0
   37.7010   29.9860   56.7680 C   0  0  0  0  0  0  0  0  0  0  0  0
   37.5980   30.6180   57.6150 N   0  0  0  0  0  0  0  0  0  0  0  0
   38.4230   31.2700   58.6690 C   0  0  0  0  0  0  0  0  0  0  0  0
   37.6340   32.4170   59.3100 C   0  0  0  0  0  0  0  0  0  0  0  0
   38.3340   33.7260   59.5570 C   0  0  0  0  0  0  0  0  0  0  0  0
   37.8330   34.8310   60.4900 C   0  0  2  0  0  0  0  0  0  0  0  0
   37.2890   35.8730   59.8030 C   0  0  0  0  0  0  0  0  0  0  0  0
   36.8960   36.7630   59.2220 N   0  0  0  0  0  0  0  0  0  0  0  0
   38.8980   35.1240   61.3060 C   0  0  0  0  0  0  0  0  0  0  0  0
   38.9070   36.3880   61.9250 C   0  0  0  0  0  0  0  0  0  0  0  0
   39.9520   36.8220   62.8010 C   0  0  0  0  0  0  0  0  0  0  0  0
   40.9800   35.9300   63.0070 C   0  0  0  0  0  0  0  0  0  0  0  0
   42.0000   36.3790   63.7170 O   0  0  0  0  0  0  0  0  0  0  0  0
   40.9110   34.6670   62.4990 C   0  0  0  0  0  0  0  0  0  0  0  0
   41.9410   33.7710   62.8200 F   0  0  0  0  0  0  0  0  0  0  0  0
   39.9620   34.1540   61.5820 C   0  0  0  0  0  0  0  0  0  0  0  0
   38.9510   29.2350   55.4020 C   0  0  2  0  0  0  0  0  0  0  0  0
   39.4440   30.8600   54.7380 S   0  0  0  0  0  0  0  0  0  0  0  0
   39.5820   30.0850   53.4280 C   0  0  0  0  0  0  0  0  0  0  0  0
   39.9070   30.4300   52.2310 C   0  0  0  0  0  0  0  0  0  0  0  0
   39.8790   29.5030   51.1300 C   0  0  0  0  0  0  0  0  0  0  0  0
   40.3780   30.0490   49.5560 Cl  0  0  0  0  0  0  0  0  0  0  0  0
   39.4070   28.1870   51.3990 C   0  0  0  0  0  0  0  0  0  0  0  0
   39.0040   27.7840   52.6550 C   0  0  0  0  0  0  0  0  0  0  0  0
   39.1350   28.7780   53.8140 N   0  0  1  0  0  0  0  0  0  0  0  0
   37.1525   24.2373   56.9509 H   0  0  0  0  0  0  0  0  0  0  0  0
   36.1615   23.8953   55.4922 H   0  0  0  0  0  0  0  0  0  0  0  0
   37.9185   23.5216   55.4922 H   0  0  0  0  0  0  0  0  0  0  0  0
   38.0491   25.6761   54.3655 H   0  0  0  0  0  0  0  0  0  0  0  0
   36.6032   26.3122   55.0044 H   0  0  0  0  0  0  0  0  0  0  0  0
   39.2627   25.7277   56.2802 H   0  0  0  0  0  0  0  0  0  0  0  0
   38.7871   25.5644   58.4153 H   0  0  0  0  0  0  0  0  0  0  0  0
   38.8083   24.2424   57.1994 H   0  0  0  0  0  0  0  0  0  0  0  0
   40.1068   25.4837   57.1994 H   0  0  0  0  0  0  0  0  0  0  0  0
   38.5970   27.8270   57.4930 H   0  0  0  0  0  0  0  0  0  0  0  0
   36.8970   27.4060   56.9840 H   0  0  0  0  0  0  0  0  0  0  0  0
   37.0879   28.1844   55.2047 H   0  0  0  0  0  0  0  0  0  0  0  0
   38.6454   30.4234   56.4121 H   0  0  0  0  0  0  0  0  0  0  0  0
   36.6214   29.7903   56.8463 H   0  0  0  0  0  0  0  0  0  0  0  0
   36.9290   30.0810   58.1870 H   0  0  0  0  0  0  0  0  0  0  0  0
   37.5950   31.4670   57.0330 H   0  0  0  0  0  0  0  0  0  0  0  0
   38.6823   30.5295   59.4400 H   0  0  0  0  0  0  0  0  0  0  0  0
   39.3419   31.6700   58.2155 H   0  0  0  0  0  0  0  0  0  0  0  0
   36.5768   32.2859   59.5841 H   0  0  0  0  0  0  0  0  0  0  0  0
   39.2805   33.9026   59.0250 H   0  0  0  0  0  0  0  0  0  0  0  0
   36.9843   34.5212   61.1175 H   0  0  0  0  0  0  0  0  0  0  0  0
   38.0711   37.0748   61.7260 H   0  0  0  0  0  0  0  0  0  0  0  0
   39.9348   37.8111   63.2819 H   0  0  0  0  0  0  0  0  0  0  0  0
   42.7780   35.7930   63.8920 H   0  0  0  0  0  0  0  0  0  0  0  0
   40.0164   33.1516   61.1323 H   0  0  0  0  0  0  0  0  0  0  0  0
   39.4058   29.0504   56.3864 H   0  0  0  0  0  0  0  0  0  0  0  0
   40.2167   31.4687   52.0431 H   0  0  0  0  0  0  0  0  0  0  0  0
   39.3619   27.4628   50.5722 H   0  0  0  0  0  0  0  0  0  0  0  0
   37.9421   27.5062   52.5827 H   0  0  0  0  0  0  0  0  0  0  0  0
   39.6981   26.9712   52.9149 H   0  0  0  0  0  0  0  0  0  0  0  0
   38.1580   29.0710   53.6740 H   0  0  0  0  0  0  0  0  0  0  0  0
  1  2  1  0
  2  3  1  0
  3  4  1  0
  3  5  1  0
  5  6  1  0
  6  7  1  0
  7  8  1  0
  8  9  1  0
  9 10  1  0
 10 11  2  3
 11 12  1  0
 12 13  1  0
 13 14  3  0
 12 15  1  0
 15 16  2  0
 16 17  1  0
 17 18  2  0
 18 19  1  0
 18 20  1  0
 20 21  1  0
 20 22  2  0
  6 23  1  0
 23 24  1  0
 24 25  1  0
 25 26  2  0
 26 27  1  0
 27 28  1  0
 27 29  2  0
 29 30  1  0
 30 31  1  0
 22 15  1  0
 31 23  1  0
 31 25  1  0
  1 32  1  0
  1 33  1  0
  1 34  1  0
  2 35  1  0
  2 36  1  0
  3 37  1  6
  4 38  1  0
  4 39  1  0
  4 40  1  0
  5 41  1  0
  5 42  1  0
  6 43  1  6
  7 44  1  0
  7 45  1  0
  8 46  1  0
  8 47  1  0
  9 48  1  0
  9 49  1  0
 10 50  1  0
 11 51  1  0
 12 52  1  1
 16 53  1  0
 17 54  1  0
 19 55  1  0
 22 56  1  0
 23 57  1  1
 26 58  1  0
 29 59  1  0
 30 60  1  0
 30 61  1  0
 31 62  1  1
M  CHG  3   5   1   8   1  31   1
M  END

>  <ID>
DiffSBDD_0_num_sample_100

>  <docking_score>
-10.185

$$$$
DiffSBDD_10_num_sample_100
     RDKit          3D

 89 92  0  0  0  0  0  0  0  0999 V2000
   38.3590   33.2280   56.0420 C   0  0  0  0  0  0  0  0  0  0  0  0
   38.5830   31.9530   55.3670 O   0  0  0  0  0  0  0  0  0  0  0  0
   38.9550   31.0480   56.3550 C   0  0  0  0  0  0  0  0  0  0  0  0
   39.0890   31.4110   57.6640 O   0  0  0  0  0  0  0  0  0  0  0  0
   38.4180   29.5850   56.4170 C   0  0  2  0  0  0  0  0  0  0  0  0
   36.8950   29.3730   56.3500 C   0  0  0  0  0  0  0  0  0  0  0  0
   38.9540   29.0500   57.6710 C   0  0  1  0  0  0  0  0  0  0  0  0
   38.3460   29.2120   59.1440 C   0  0  0  0  0  0  0  0  0  0  0  0
   39.0520   28.7660   60.3910 C   0  0  0  0  0  0  0  0  0  0  0  0
   40.1490   29.7280   60.9230 C   0  0  0  0  0  0  0  0  0  0  0  0
   39.7540   31.1000   60.7040 N   0  0  0  0  0  0  0  0  0  0  0  0
   38.9470   31.6920   61.6070 C   0  0  0  0  0  0  0  0  0  0  0  0
   38.6560   31.2150   62.6480 O   0  0  0  0  0  0  0  0  0  0  0  0
   38.2000   32.5720   61.0520 N   0  0  0  0  0  0  0  0  0  0  0  0
   38.1520   33.8480   60.7310 C   0  0  2  0  0  0  0  0  0  0  0  0
   39.5460   34.4790   60.7650 C   0  0  0  0  0  0  0  0  0  0  0  0
   40.0110   35.1150   62.0870 C   0  0  0  0  0  0  0  0  0  0  0  0
   40.2990   36.6570   61.9740 C   0  0  0  0  0  0  0  0  0  0  0  0
   38.9100   37.3110   62.2400 C   0  0  0  0  0  0  0  0  0  0  0  0
   37.9010   37.5040   60.9770 C   0  0  0  0  0  0  0  0  0  0  0  0
   37.6180   36.3050   60.0630 C   0  0  2  0  0  0  0  0  0  0  0  0
   36.5440   36.7180   59.2190 O   0  0  0  0  0  0  0  0  0  0  0  0
   37.1610   34.9840   60.8490 C   0  0  1  0  0  0  0  0  0  0  0  0
   36.0520   34.4670   60.1970 O   0  0  0  0  0  0  0  0  0  0  0  0
   39.2880   27.4400   57.5970 C   0  0  0  0  0  0  0  0  0  0  0  0
   38.8450   26.5470   56.4070 C   0  0  0  0  0  0  0  0  0  0  0  0
   38.9050   27.2770   55.0940 C   0  0  1  0  0  0  0  0  0  0  0  0
   38.8960   26.5760   53.8140 N   0  0  0  0  0  0  0  0  0  0  0  0
   39.2620   27.4710   52.8970 C   0  0  1  0  0  0  0  0  0  0  0  0
   39.0890   27.3350   51.4230 C   0  0  0  0  0  0  0  0  0  0  0  0
   40.0190   28.2640   50.6940 C   0  0  0  0  0  0  0  0  0  0  0  0
   40.0890   29.6940   51.2380 C   0  0  1  0  0  0  0  0  0  0  0  0
   39.8800   30.7970   50.3260 C   0  0  0  0  0  0  0  0  0  0  0  0
   40.1240   30.5590   52.4880 C   0  0  0  0  0  0  0  0  0  0  0  0
   39.0330   30.4290   53.1980 C   0  0  0  0  0  0  0  0  0  0  0  0
   38.7680   28.8810   53.3930 C   0  0  2  0  0  0  0  0  0  0  0  0
   39.0780   28.7350   55.0950 C   0  0  1  0  0  0  0  0  0  0  0  0
   38.3857   33.0760   57.1311 H   0  0  0  0  0  0  0  0  0  0  0  0
   39.1459   33.9398   55.7517 H   0  0  0  0  0  0  0  0  0  0  0  0
   37.3767   33.6289   55.7517 H   0  0  0  0  0  0  0  0  0  0  0  0
   36.4875   29.3163   57.3701 H   0  0  0  0  0  0  0  0  0  0  0  0
   36.4307   30.2152   55.8160 H   0  0  0  0  0  0  0  0  0  0  0  0
   36.6784   28.4360   55.8160 H   0  0  0  0  0  0  0  0  0  0  0  0
   39.7539   29.8046   57.6435 H   0  0  0  0  0  0  0  0  0  0  0  0
   38.1594   30.2882   59.2742 H   0  0  0  0  0  0  0  0  0  0  0  0
   37.5094   28.4987   59.1075 H   0  0  0  0  0  0  0  0  0  0  0  0
   38.2971   28.6436   61.1817 H   0  0  0  0  0  0  0  0  0  0  0  0
   39.5729   27.8345   60.1245 H   0  0  0  0  0  0  0  0  0  0  0  0
   40.2910   29.5577   62.0004 H   0  0  0  0  0  0  0  0  0  0  0  0
   41.0895   29.5338   60.3865 H   0  0  0  0  0  0  0  0  0  0  0  0
   40.0830   31.6150   59.8750 H   0  0  0  0  0  0  0  0  0  0  0  0
   37.3250   32.1200   60.7480 H   0  0  0  0  0  0  0  0  0  0  0  0
   37.4985   33.4127   59.9606 H   0  0  0  0  0  0  0  0  0  0  0  0
   40.2695   33.6916   60.5068 H   0  0  0  0  0  0  0  0  0  0  0  0
   39.4883   35.3191   60.0573 H   0  0  0  0  0  0  0  0  0  0  0  0
   39.2260   34.9618   62.8422 H   0  0  0  0  0  0  0  0  0  0  0  0
   40.9576   34.6285   62.3648 H   0  0  0  0  0  0  0  0  0  0  0  0
   41.0337   36.9754   62.7282 H   0  0  0  0  0  0  0  0  0  0  0  0
   40.7254   36.9414   61.0007 H   0  0  0  0  0  0  0  0  0  0  0  0
   38.3906   36.6855   62.9809 H   0  0  0  0  0  0  0  0  0  0  0  0
   39.1463   38.3360   62.5617 H   0  0  0  0  0  0  0  0  0  0  0  0
   36.9341   37.8346   61.3841 H   0  0  0  0  0  0  0  0  0  0  0  0
   38.4276   38.2157   60.3242 H   0  0  0  0  0  0  0  0  0  0  0  0
   38.5411   36.0374   59.5279 H   0  0  0  0  0  0  0  0  0  0  0  0
   36.3210   37.6640   59.4070 H   0  0  0  0  0  0  0  0  0  0  0  0
   37.0193   35.2871   61.8969 H   0  0  0  0  0  0  0  0  0  0  0  0
   36.2690   34.3260   59.2410 H   0  0  0  0  0  0  0  0  0  0  0  0
   40.3832   27.3530   57.6522 H   0  0  0  0  0  0  0  0  0  0  0  0
   38.6691   27.0449   58.4161 H   0  0  0  0  0  0  0  0  0  0  0  0
   39.5084   25.6711   56.3556 H   0  0  0  0  0  0  0  0  0  0  0  0
   37.8002   26.2493   56.5797 H   0  0  0  0  0  0  0  0  0  0  0  0
   40.0035   27.2245   55.1150 H   0  0  0  0  0  0  0  0  0  0  0  0
   37.9520   26.2200   53.6080 H   0  0  0  0  0  0  0  0  0  0  0  0
   39.5350   25.7680   53.8240 H   0  0  0  0  0  0  0  0  0  0  0  0
   40.3427   27.2673   52.8753 H   0  0  0  0  0  0  0  0  0  0  0  0
   39.3081   26.2984   51.1273 H   0  0  0  0  0  0  0  0  0  0  0  0
   38.0522   27.5937   51.1619 H   0  0  0  0  0  0  0  0  0  0  0  0
   41.0307   27.8347   50.7404 H   0  0  0  0  0  0  0  0  0  0  0  0
   39.6179   28.3504   49.6734 H   0  0  0  0  0  0  0  0  0  0  0  0
   40.4875   28.7458   51.6280 H   0  0  0  0  0  0  0  0  0  0  0  0
   39.7053   31.7191   50.8998 H   0  0  0  0  0  0  0  0  0  0  0  0
   40.7703   30.9226   49.6923 H   0  0  0  0  0  0  0  0  0  0  0  0
   39.0054   30.5882   49.6923 H   0  0  0  0  0  0  0  0  0  0  0  0
   40.9866   30.2622   53.1027 H   0  0  0  0  0  0  0  0  0  0  0  0
   40.2056   31.6103   52.1748 H   0  0  0  0  0  0  0  0  0  0  0  0
   39.1632   30.9131   54.1771 H   0  0  0  0  0  0  0  0  0  0  0  0
   38.1822   30.9045   52.6880 H   0  0  0  0  0  0  0  0  0  0  0  0
   37.9180   28.8831   52.6948 H   0  0  0  0  0  0  0  0  0  0  0  0
   39.9913   29.2832   55.3695 H   0  0  0  0  0  0  0  0  0  0  0  0
  1  2  1  0
  2  3  1  0
  3  4  2  0
  3  5  1  0
  5  6  1  1
  5  7  1  0
  7  8  1  0
  8  9  1  0
  9 10  1  0
 10 11  1  0
 11 12  1  0
 12 13  2  0
 12 14  1  0
 14 15  1  0
 15 16  1  0
 16 17  1  0
 17 18  1  0
 18 19  1  0
 19 20  1  0
 20 21  1  0
 21 22  1  0
 21 23  1  0
 23 24  1  0
  7 25  1  0
 25 26  1  0
 26 27  1  0
 27 28  1  0
 28 29  1  0
 29 30  1  0
 30 31  1  0
 31 32  1  0
 32 33  1  0
 32 34  1  0
 34 35  1  0
 35 36  1  0
 36 37  1  0
 37  5  1  0
 23 15  1  0
 37 27  1  0
 36 29  1  0
  1 38  1  0
  1 39  1  0
  1 40  1  0
  6 41  1  0
  6 42  1  0
  6 43  1  0
  7 44  1  1
  8 45  1  0
  8 46  1  0
  9 47  1  0
  9 48  1  0
 10 49  1  0
 10 50  1  0
 11 51  1  0
 14 52  1  0
 15 53  1  6
 16 54  1  0
 16 55  1  0
 17 56  1  0
 17 57  1  0
 18 58  1  0
 18 59  1  0
 19 60  1  0
 19 61  1  0
 20 62  1  0
 20 63  1  0
 21 64  1  6
 22 65  1  0
 23 66  1  1
 24 67  1  0
 25 68  1  0
 25 69  1  0
 26 70  1  0
 26 71  1  0
 27 72  1  6
 28 73  1  0
 28 74  1  0
 29 75  1  6
 30 76  1  0
 30 77  1  0
 31 78  1  0
 31 79  1  0
 32 80  1  6
 33 81  1  0
 33 82  1  0
 33 83  1  0
 34 84  1  0
 34 85  1  0
 35 86  1  0
 35 87  1  0
 36 88  1  1
 37 89  1  6
M  CHG  1  28   1
M  END

>  <ID>
DiffSBDD_10_num_sample_100

>  <docking_score>
-11.61

$$$$
DiffSBDD_11_num_sample_100
     RDKit          3D

 76 80  0  0  0  0  0  0  0  0999 V2000
   37.9340   38.3080   60.7670 C   0  0  0  0  0  0  0  0  0  0  0  0
   37.5540   37.3090   61.9010 C   0  0  1  0  0  0  0  0  0  0  0  0
   36.2440   37.6590   62.3110 C   0  0  0  0  0  0  0  0  0  0  0  0
   35.6450   38.8130   62.3090 C   0  0  0  0  0  0  0  0  0  0  0  0
   35.6330   37.8950   63.3490 C   0  0  0  0  0  0  0  0  0  0  0  0
   37.8010   36.0410   61.4460 N   0  0  1  0  0  0  0  0  0  0  0  0
   36.8550   35.5070   60.5030 C   0  0  0  0  0  0  0  0  0  0  0  0
   37.4630   34.3300   59.6900 C   0  0  0  0  0  0  0  0  0  0  0  0
   38.5440   33.5800   60.4220 C   0  0  1  0  0  0  0  0  0  0  0  0
   38.9770   32.3310   60.2740 N   0  0  0  0  0  0  0  0  0  0  0  0
   38.7150   31.2660   61.0930 C   0  0  0  0  0  0  0  0  0  0  0  0
   37.5800   31.1830   61.6220 O   0  0  0  0  0  0  0  0  0  0  0  0
   39.4770   30.0870   60.6990 O   0  0  0  0  0  0  0  0  0  0  0  0
   40.2010   28.6600   60.3270 S   0  0  0  0  0  0  0  0  0  0  0  0
   41.3150   28.6130   59.1060 O   0  0  0  0  0  0  0  0  0  0  0  0
   41.0430   28.2560   61.4220 O   0  0  0  0  0  0  0  0  0  0  0  0
   39.1380   27.5690   59.7530 O   0  0  0  0  0  0  0  0  0  0  0  0
   39.6880   26.9300   58.5120 C   0  0  1  0  0  0  0  0  0  0  0  0
   39.0740   25.5220   57.9840 C   0  0  2  0  0  0  0  0  0  0  0  0
   39.9230   24.8370   57.0600 O   0  0  0  0  0  0  0  0  0  0  0  0
   38.3770   26.6900   57.8820 C   0  0  2  0  0  0  0  0  0  0  0  0
   37.9200   28.0390   57.3890 C   0  0  0  0  0  0  0  0  0  0  0  0
   38.8280   28.8480   56.6020 C   0  0  2  0  0  0  0  0  0  0  0  0
   38.5800   30.5020   56.4850 S   0  0  0  0  0  0  0  0  0  0  0  0
   38.2920   31.4680   55.1470 C   0  0  0  0  0  0  0  0  0  0  0  0
   39.1330   31.0810   54.0130 C   0  0  0  0  0  0  0  0  0  0  0  0
   39.1940   29.5100   53.7960 C   0  0  2  0  0  0  0  0  0  0  0  0
   39.3830   29.0590   52.3890 C   0  0  0  0  0  0  0  0  0  0  0  0
   39.6100   29.9390   51.6320 O   0  0  0  0  0  0  0  0  0  0  0  0
   39.4650   27.6530   51.9950 C   0  0  0  0  0  0  0  0  0  0  0  0
   39.5810   26.6250   53.0340 C   0  0  0  0  0  0  0  0  0  0  0  0
   38.5130   27.0550   54.0070 C   0  0  0  0  0  0  0  0  0  0  0  0
   38.1320   28.5820   54.8540 S   0  0  1  0  0  4  0  0  0  0  0  0
   39.5340   34.3750   61.1960 C   0  0  0  0  0  0  0  0  0  0  0  0
   38.9190   35.4140   62.0470 C   0  0  0  0  0  0  0  0  0  0  0  0
   38.2917   39.2484   61.2115 H   0  0  0  0  0  0  0  0  0  0  0  0
   38.7287   37.8711   60.1445 H   0  0  0  0  0  0  0  0  0  0  0  0
   37.0498   38.5097   60.1445 H   0  0  0  0  0  0  0  0  0  0  0  0
   38.1528   37.3540   62.8227 H   0  0  0  0  0  0  0  0  0  0  0  0
   36.2811   36.7440   61.7015 H   0  0  0  0  0  0  0  0  0  0  0  0
   36.2191   39.7480   62.3869 H   0  0  0  0  0  0  0  0  0  0  0  0
   34.9080   39.3421   61.6870 H   0  0  0  0  0  0  0  0  0  0  0  0
   36.1834   38.1058   64.2778 H   0  0  0  0  0  0  0  0  0  0  0  0
   34.8528   37.3827   63.9310 H   0  0  0  0  0  0  0  0  0  0  0  0
   37.2460   35.6530   62.2230 H   0  0  0  0  0  0  0  0  0  0  0  0
   35.9714   35.1452   61.0492 H   0  0  0  0  0  0  0  0  0  0  0  0
   36.5804   36.3067   59.7994 H   0  0  0  0  0  0  0  0  0  0  0  0
   36.6557   33.6239   59.4455 H   0  0  0  0  0  0  0  0  0  0  0  0
   37.9269   34.7663   58.7931 H   0  0  0  0  0  0  0  0  0  0  0  0
   37.5386   33.2350   60.7050 H   0  0  0  0  0  0  0  0  0  0  0  0
   39.5730   32.1450   59.4550 H   0  0  0  0  0  0  0  0  0  0  0  0
   42.1620   29.0220   59.4150 H   0  0  0  0  0  0  0  0  0  0  0  0
   40.7850   28.7540   62.2380 H   0  0  0  0  0  0  0  0  0  0  0  0
   40.7189   27.3109   58.4648 H   0  0  0  0  0  0  0  0  0  0  0  0
   38.7078   24.5336   58.2987 H   0  0  0  0  0  0  0  0  0  0  0  0
   40.3620   24.0760   57.5160 H   0  0  0  0  0  0  0  0  0  0  0  0
   37.3082   26.4937   57.7115 H   0  0  0  0  0  0  0  0  0  0  0  0
   37.0243   27.8697   56.7733 H   0  0  0  0  0  0  0  0  0  0  0  0
   37.7824   28.6221   58.3115 H   0  0  0  0  0  0  0  0  0  0  0  0
   39.8252   28.5962   56.9921 H   0  0  0  0  0  0  0  0  0  0  0  0
   37.2352   31.3712   54.8574 H   0  0  0  0  0  0  0  0  0  0  0  0
   38.5318   32.5076   55.4147 H   0  0  0  0  0  0  0  0  0  0  0  0
   38.7286   31.5456   53.1016 H   0  0  0  0  0  0  0  0  0  0  0  0
   40.1556   31.4240   54.2287 H   0  0  0  0  0  0  0  0  0  0  0  0
   40.1735   29.2037   54.1920 H   0  0  0  0  0  0  0  0  0  0  0  0
   38.5554   27.4269   51.4192 H   0  0  0  0  0  0  0  0  0  0  0  0
   40.4208   27.5879   51.4545 H   0  0  0  0  0  0  0  0  0  0  0  0
   39.3765   25.6221   52.6309 H   0  0  0  0  0  0  0  0  0  0  0  0
   40.5849   26.5480   53.4770 H   0  0  0  0  0  0  0  0  0  0  0  0
   37.5824   26.8373   53.4624 H   0  0  0  0  0  0  0  0  0  0  0  0
   38.9723   26.5687   54.8803 H   0  0  0  0  0  0  0  0  0  0  0  0
   36.7900   28.7960   55.0300 H   0  0  0  0  0  0  0  0  0  0  0  0
   40.1038   33.6894   61.8404 H   0  0  0  0  0  0  0  0  0  0  0  0
   40.1753   34.8917   60.4668 H   0  0  0  0  0  0  0  0  0  0  0  0
   38.5931   34.9467   62.9880 H   0  0  0  0  0  0  0  0  0  0  0  0
   39.6791   36.1919   62.2118 H   0  0  0  0  0  0  0  0  0  0  0  0
  1  2  1  0
  2  3  1  0
  3  4  1  0
  4  5  1  0
  2  6  1  0
  6  7  1  0
  7  8  1  0
  8  9  1  0
  9 10  1  0
 10 11  1  0
 11 12  2  0
 11 13  1  0
 13 14  1  0
 14 15  1  0
 14 16  1  0
 14 17  1  0
 17 18  1  0
 18 19  1  0
 19 20  1  0
 19 21  1  0
 21 22  1  0
 22 23  1  0
 23 24  1  0
 24 25  1  0
 25 26  1  0
 26 27  1  0
 27 28  1  0
 28 29  2  0
 28 30  1  0
 30 31  1  0
 31 32  1  0
 32 33  1  0
  9 34  1  0
 34 35  1  0
  5  3  1  0
 35  6  1  0
 21 18  1  0
 33 23  1  0
 33 27  1  0
  1 36  1  0
  1 37  1  0
  1 38  1  0
  2 39  1  1
  3 40  1  0
  4 41  1  0
  4 42  1  0
  5 43  1  0
  5 44  1  0
  6 45  1  1
  7 46  1  0
  7 47  1  0
  8 48  1  0
  8 49  1  0
  9 50  1  6
 10 51  1  0
 15 52  1  0
 16 53  1  0
 18 54  1  6
 19 55  1  1
 20 56  1  0
 21 57  1  1
 22 58  1  0
 22 59  1  0
 23 60  1  6
 25 61  1  0
 25 62  1  0
 26 63  1  0
 26 64  1  0
 27 65  1  1
 30 66  1  0
 30 67  1  0
 31 68  1  0
 31 69  1  0
 32 70  1  0
 32 71  1  0
 33 72  1  1
 34 73  1  0
 34 74  1  0
 35 75  1  0
 35 76  1  0
M  CHG  1   6   1
M  END

>  <ID>
DiffSBDD_11_num_sample_100

>  <docking_score>
-9.859

$$$$
DiffSBDD_12_num_sample_100
     RDKit          3D

 31 30  0  0  0  0  0  0  0  0999 V2000
   40.3770   30.0800   50.0310 C   0  0  0  0  0  0  0  0  0  0  0  0
   40.2730   30.5250   51.4700 C   0  0  0  0  0  0  0  0  0  0  0  0
   39.3880   29.5350   52.5470 C   0  0  0  0  0  0  0  0  0  0  0  0
   39.7320   30.6190   53.8220 C   0  0  0  0  0  0  0  0  0  0  0  0
   38.4480   30.7930   54.5710 C   0  0  0  0  0  0  0  0  0  0  0  0
   37.9340   30.0290   55.7320 C   0  0  0  0  0  0  0  0  0  0  0  0
   39.3570   29.0740   56.6420 S   0  0  0  0  0  0  0  0  0  0  0  0
   40.5880   27.8730   57.1310 C   0  0  1  0  0  0  0  0  0  0  0  0
   41.7710   27.7780   58.0830 C   0  0  0  0  0  0  0  0  0  0  0  0
   40.5000   26.6900   56.3750 N   0  0  0  0  0  0  0  0  0  0  0  0
   39.5840   25.6700   56.3410 C   0  0  0  0  0  0  0  0  0  0  0  0
   39.0660   24.9140   55.5950 O   0  0  0  0  0  0  0  0  0  0  0  0
   40.6272   29.0094   49.9954 H   0  0  0  0  0  0  0  0  0  0  0  0
   39.4152   30.2488   49.5246 H   0  0  0  0  0  0  0  0  0  0  0  0
   41.1644   30.6576   49.5246 H   0  0  0  0  0  0  0  0  0  0  0  0
   41.2970   30.6051   51.8638 H   0  0  0  0  0  0  0  0  0  0  0  0
   39.7061   31.4668   51.4291 H   0  0  0  0  0  0  0  0  0  0  0  0
   38.3183   29.4513   52.3045 H   0  0  0  0  0  0  0  0  0  0  0  0
   39.6263   28.4656   52.6449 H   0  0  0  0  0  0  0  0  0  0  0  0
   40.5060   30.2001   54.4819 H   0  0  0  0  0  0  0  0  0  0  0  0
   40.1119   31.5795   53.4437 H   0  0  0  0  0  0  0  0  0  0  0  0
   38.4745   31.8358   54.9202 H   0  0  0  0  0  0  0  0  0  0  0  0
   37.7669   30.3906   53.8067 H   0  0  0  0  0  0  0  0  0  0  0  0
   37.4632   30.7276   56.4394 H   0  0  0  0  0  0  0  0  0  0  0  0
   37.2044   29.2924   55.3645 H   0  0  0  0  0  0  0  0  0  0  0  0
   41.2567   28.2348   56.3361 H   0  0  0  0  0  0  0  0  0  0  0  0
   41.4093   27.8070   59.1214 H   0  0  0  0  0  0  0  0  0  0  0  0
   42.3076   26.8339   57.9079 H   0  0  0  0  0  0  0  0  0  0  0  0
   42.4514   28.6244   57.9079 H   0  0  0  0  0  0  0  0  0  0  0  0
   41.2800   26.5640   55.7140 H   0  0  0  0  0  0  0  0  0  0  0  0
   39.1995   25.4958   57.3568 H   0  0  0  0  0  0  0  0  0  0  0  0
  1  2  1  0
  2  3  1  0
  3  4  1  0
  4  5  1  0
  5  6  1  0
  6  7  1  0
  7  8  1  0
  8  9  1  0
  8 10  1  0
 10 11  1  0
 11 12  2  0
  1 13  1  0
  1 14  1  0
  1 15  1  0
  2 16  1  0
  2 17  1  0
  3 18  1  0
  3 19  1  0
  4 20  1  0
  4 21  1  0
  5 22  1  0
  5 23  1  0
  6 24  1  0
  6 25  1  0
  8 26  1  1
  9 27  1  0
  9 28  1  0
  9 29  1  0
 10 30  1  0
 11 31  1  0
M  END

>  <ID>
DiffSBDD_12_num_sample_100

>  <docking_score>
-5.87

$$$$
DiffSBDD_13_num_sample_100
     RDKit          3D

 69 72  0  0  0  0  0  0  0  0999 V2000
   37.3980   24.6540   55.9260 C   0  0  0  0  0  0  0  0  0  0  0  0
   38.8860   25.1900   55.5970 C   0  0  0  0  0  0  0  0  0  0  0  0
   39.9230   25.1440   56.5560 O   0  0  0  0  0  0  0  0  0  0  0  0
   39.4700   25.5990   57.8480 C   0  0  0  0  0  0  0  0  0  0  0  0
   39.8710   27.0010   57.8280 C   0  0  0  0  0  0  0  0  0  0  0  0
   38.9330   28.2480   57.9020 C   0  0  2  0  0  0  0  0  0  0  0  0
   37.8360   28.3210   57.0310 C   0  0  0  0  0  0  0  0  0  0  0  0
   37.4520   29.5120   56.3140 C   0  0  0  0  0  0  0  0  0  0  0  0
   37.9080   29.7640   54.8260 C   0  0  1  0  0  0  0  0  0  0  0  0
   38.6380   30.9940   54.4330 N   0  0  0  0  0  0  0  0  0  0  0  0
   39.3240   30.8670   53.2580 C   0  0  0  0  0  0  0  0  0  0  0  0
   39.3040   29.7120   52.4340 C   0  0  0  0  0  0  0  0  0  0  0  0
   38.6150   28.6030   52.7180 C   0  0  0  0  0  0  0  0  0  0  0  0
   38.8110   27.3810   51.7590 C   0  0  0  0  0  0  0  0  0  0  0  0
   39.7110   27.9540   50.6490 C   0  0  0  0  0  0  0  0  0  0  0  0
   40.1210   29.4850   51.0700 N   0  0  0  0  0  0  0  0  0  0  0  0
   40.9740   30.3680   50.2970 C   0  0  0  0  0  0  0  0  0  0  0  0
   37.7410   28.5410   53.9200 C   0  0  0  0  0  0  0  0  0  0  0  0
   36.8800   27.6300   53.9920 O   0  0  0  0  0  0  0  0  0  0  0  0
   39.2740   29.5930   58.6800 C   0  0  2  0  0  0  0  0  0  0  0  0
   40.2590   29.3750   59.5780 O   0  0  0  0  0  0  0  0  0  0  0  0
   38.2920   30.6070   59.2280 C   0  0  0  0  0  0  0  0  0  0  0  0
   37.1020   30.3940   59.8940 C   0  0  0  0  0  0  0  0  0  0  0  0
   36.2400   31.2490   60.5360 C   0  0  0  0  0  0  0  0  0  0  0  0
   36.5520   32.5530   60.4860 C   0  0  0  0  0  0  0  0  0  0  0  0
   35.6560   33.6230   61.4380 Cl  0  0  0  0  0  0  0  0  0  0  0  0
   37.7050   32.9650   59.6910 C   0  0  0  0  0  0  0  0  0  0  0  0
   37.8990   34.5580   59.6410 C   0  0  1  0  0  0  0  0  0  0  0  0
   36.9430   35.7780   59.6590 C   0  0  0  0  0  0  0  0  0  0  0  0
   37.7480   36.8790   60.4710 C   0  0  0  0  0  0  0  0  0  0  0  0
   38.7440   36.2440   61.2570 C   0  0  2  0  0  0  0  0  0  0  0  0
   39.5050   36.9630   62.1950 C   0  0  0  0  0  0  0  0  0  0  0  0
   40.1010   37.5210   62.9690 N   0  0  0  0  0  0  0  0  0  0  0  0
   38.9130   34.8960   60.7780 C   0  0  0  0  0  0  0  0  0  0  0  0
   38.4600   31.9210   59.0500 C   0  0  0  0  0  0  0  0  0  0  0  0
   37.2590   24.6039   57.0160 H   0  0  0  0  0  0  0  0  0  0  0  0
   36.6565   25.3415   55.4930 H   0  0  0  0  0  0  0  0  0  0  0  0
   37.2653   23.6516   55.4930 H   0  0  0  0  0  0  0  0  0  0  0  0
   39.2392   24.6094   54.7320 H   0  0  0  0  0  0  0  0  0  0  0  0
   38.7238   26.2717   55.4807 H   0  0  0  0  0  0  0  0  0  0  0  0
   38.3796   25.4957   57.9493 H   0  0  0  0  0  0  0  0  0  0  0  0
   39.8855   25.0288   58.6919 H   0  0  0  0  0  0  0  0  0  0  0  0
   40.5574   27.1117   58.6804 H   0  0  0  0  0  0  0  0  0  0  0  0
   40.1870   27.0795   56.7773 H   0  0  0  0  0  0  0  0  0  0  0  0
   38.7596   27.7217   58.8523 H   0  0  0  0  0  0  0  0  0  0  0  0
   38.0146   27.5549   56.2621 H   0  0  0  0  0  0  0  0  0  0  0  0
   37.0002   28.2257   57.7398 H   0  0  0  0  0  0  0  0  0  0  0  0
   36.3521   29.5289   56.3080 H   0  0  0  0  0  0  0  0  0  0  0  0
   37.9901   30.2998   56.8615 H   0  0  0  0  0  0  0  0  0  0  0  0
   37.3410   30.5457   54.2993 H   0  0  0  0  0  0  0  0  0  0  0  0
   39.9347   31.7202   52.9277 H   0  0  0  0  0  0  0  0  0  0  0  0
   38.4053   26.3630   51.8548 H   0  0  0  0  0  0  0  0  0  0  0  0
   40.0239   27.4289   49.7345 H   0  0  0  0  0  0  0  0  0  0  0  0
   41.5735   30.9886   50.9793 H   0  0  0  0  0  0  0  0  0  0  0  0
   41.6436   29.7684   49.6628 H   0  0  0  0  0  0  0  0  0  0  0  0
   40.3517   31.0165   49.6628 H   0  0  0  0  0  0  0  0  0  0  0  0
   39.5005   30.1649   57.7681 H   0  0  0  0  0  0  0  0  0  0  0  0
   41.0800   29.0910   59.1040 H   0  0  0  0  0  0  0  0  0  0  0  0
   36.7841   29.3411   59.9144 H   0  0  0  0  0  0  0  0  0  0  0  0
   35.3446   30.8854   61.0614 H   0  0  0  0  0  0  0  0  0  0  0  0
   38.0234   34.5417   58.5482 H   0  0  0  0  0  0  0  0  0  0  0  0
   36.7294   36.1234   58.6367 H   0  0  0  0  0  0  0  0  0  0  0  0
   35.9668   35.5464   60.1099 H   0  0  0  0  0  0  0  0  0  0  0  0
   38.2244   37.5789   59.7688 H   0  0  0  0  0  0  0  0  0  0  0  0
   37.0588   37.4332   61.1251 H   0  0  0  0  0  0  0  0  0  0  0  0
   38.9560   36.1300   62.3303 H   0  0  0  0  0  0  0  0  0  0  0  0
   39.9358   34.7809   60.3898 H   0  0  0  0  0  0  0  0  0  0  0  0
   38.7308   34.2079   61.6167 H   0  0  0  0  0  0  0  0  0  0  0  0
   39.2480   32.2331   58.3489 H   0  0  0  0  0  0  0  0  0  0  0  0
  1  2  1  0
  2  3  1  0
  3  4  1  0
  4  5  1  0
  5  6  1  0
  6  7  1  0
  7  8  1  0
  8  9  1  0
  9 10  1  0
 10 11  2  0
 11 12  1  0
 12 13  2  0
 13 14  1  0
 14 15  2  0
 15 16  1  0
 16 17  1  0
 13 18  1  0
 18 19  2  0
  6 20  1  0
 20 21  1  0
 20 22  1  0
 22 23  2  0
 23 24  1  0
 24 25  2  0
 25 26  1  0
 25 27  1  0
 27 28  1  0
 28 29  1  0
 29 30  1  0
 30 31  1  0
 31 32  1  0
 32 33  3  0
 31 34  1  0
 27 35  2  0
 18  9  1  0
 35 22  1  0
 16 12  1  0
 34 28  1  0
  1 36  1  0
  1 37  1  0
  1 38  1  0
  2 39  1  0
  2 40  1  0
  4 41  1  0
  4 42  1  0
  5 43  1  0
  5 44  1  0
  6 45  1  1
  7 46  1  0
  7 47  1  0
  8 48  1  0
  8 49  1  0
  9 50  1  6
 11 51  1  0
 14 52  1  0
 15 53  1  0
 17 54  1  0
 17 55  1  0
 17 56  1  0
 20 57  1  6
 21 58  1  0
 23 59  1  0
 24 60  1  0
 28 61  1  6
 29 62  1  0
 29 63  1  0
 30 64  1  0
 30 65  1  0
 31 66  1  1
 34 67  1  0
 34 68  1  0
 35 69  1  0
M  END

>  <ID>
DiffSBDD_13_num_sample_100

>  <docking_score>
-10.396

$$$$
DiffSBDD_14_num_sample_100
     RDKit          3D

 76 78  0  0  0  0  0  0  0  0999 V2000
   40.7340   30.4440   50.2620 C   0  0  0  0  0  0  0  0  0  0  0  0
   39.5950   29.7970   51.1180 C   0  0  1  0  0  0  0  0  0  0  0  0
   39.5860   28.2970   50.7380 C   0  0  0  0  0  0  0  0  0  0  0  0
   38.7930   27.3800   51.7140 C   0  0  0  0  0  0  0  0  0  0  0  0
   39.1630   27.6520   53.1160 C   0  0  0  0  0  0  0  0  0  0  0  0
   39.6380   27.0970   53.9840 O   0  0  0  0  0  0  0  0  0  0  0  0
   39.9040   25.8830   54.7050 C   0  0  0  0  0  0  0  0  0  0  0  0
   38.9870   25.4830   55.8850 C   0  0  1  0  0  0  0  0  0  0  0  0
   39.1630   25.3460   57.6040 C   0  0  0  0  0  0  0  0  0  0  0  0
   38.0390   24.3710   57.7300 C   0  0  0  0  0  0  0  0  0  0  0  0
   37.1150   24.5840   56.6410 O   0  0  0  0  0  0  0  0  0  0  0  0
   37.5680   25.0400   55.5130 C   0  0  0  0  0  0  0  0  0  0  0  0
   38.7050   29.1650   53.3070 C   0  0  1  0  0  0  0  0  0  0  0  0
   38.1310   29.2310   54.7470 C   0  0  0  0  0  0  0  0  0  0  0  0
   39.0320   29.9900   55.7120 C   0  0  2  0  0  0  0  0  0  0  0  0
   39.8830   29.0370   56.2140 O   0  0  0  0  0  0  0  0  0  0  0  0
   37.9710   30.6100   56.6440 C   0  0  0  0  0  0  0  0  0  0  0  0
   38.7020   31.6500   57.6210 C   0  0  1  0  0  0  0  0  0  0  0  0
   38.3640   33.1170   57.0440 C   0  0  0  0  0  0  0  0  0  0  0  0
   38.2200   33.3730   58.4460 C   0  0  1  0  0  0  0  0  0  0  0  0
   37.8380   34.3580   59.5400 C   0  0  1  0  0  0  0  0  0  0  0  0
   36.0400   34.1670   59.6550 C   0  0  0  0  0  0  0  0  0  0  0  0
   38.4260   34.2950   60.8700 C   0  0  0  0  0  0  0  0  0  0  0  0
   39.3200   35.2710   60.9150 C   0  0  0  0  0  0  0  0  0  0  0  0
   39.0170   36.4310   61.6780 C   0  0  0  0  0  0  0  0  0  0  0  0
   37.9400   37.3690   61.4560 C   0  0  0  0  0  0  0  0  0  0  0  0
   37.1770   36.9960   62.7530 O   0  0  0  0  0  0  0  0  0  0  0  0
   37.8680   38.4800   60.9090 N   0  0  0  0  0  0  0  0  0  0  0  0
   36.6430   37.5710   60.4180 O   0  0  0  0  0  0  0  0  0  0  0  0
   38.2640   31.9610   59.0010 N   0  0  0  0  0  0  0  0  0  0  0  0
   39.8510   29.9840   52.5660 C   0  0  0  0  0  0  0  0  0  0  0  0
   41.4942   30.8758   50.9296 H   0  0  0  0  0  0  0  0  0  0  0  0
   41.1979   29.6746   49.6273 H   0  0  0  0  0  0  0  0  0  0  0  0
   40.3106   31.2364   49.6273 H   0  0  0  0  0  0  0  0  0  0  0  0
   38.6201   30.2652   50.9172 H   0  0  0  0  0  0  0  0  0  0  0  0
   39.1382   28.2003   49.7379 H   0  0  0  0  0  0  0  0  0  0  0  0
   40.6326   27.9612   50.7799 H   0  0  0  0  0  0  0  0  0  0  0  0
   37.7162   27.5634   51.5844 H   0  0  0  0  0  0  0  0  0  0  0  0
   39.0367   26.3321   51.4850 H   0  0  0  0  0  0  0  0  0  0  0  0
   38.1689   27.3140   53.4439 H   0  0  0  0  0  0  0  0  0  0  0  0
   39.8630   25.0613   53.9748 H   0  0  0  0  0  0  0  0  0  0  0  0
   40.8751   26.0743   55.1850 H   0  0  0  0  0  0  0  0  0  0  0  0
   39.2963   24.4337   55.7697 H   0  0  0  0  0  0  0  0  0  0  0  0
   40.1350   24.9324   57.9108 H   0  0  0  0  0  0  0  0  0  0  0  0
   39.1346   26.2631   58.2107 H   0  0  0  0  0  0  0  0  0  0  0  0
   38.4328   23.3449   57.6856 H   0  0  0  0  0  0  0  0  0  0  0  0
   37.5241   24.5158   58.6912 H   0  0  0  0  0  0  0  0  0  0  0  0
   37.5851   24.2539   54.7437 H   0  0  0  0  0  0  0  0  0  0  0  0
   36.9533   25.8458   55.0853 H   0  0  0  0  0  0  0  0  0  0  0  0
   37.8534   29.6899   52.8496 H   0  0  0  0  0  0  0  0  0  0  0  0
   37.1529   29.7332   54.7119 H   0  0  0  0  0  0  0  0  0  0  0  0
   38.0490   28.1981   55.1164 H   0  0  0  0  0  0  0  0  0  0  0  0
   39.7019   30.7929   55.3705 H   0  0  0  0  0  0  0  0  0  0  0  0
   39.8880   29.0880   57.2020 H   0  0  0  0  0  0  0  0  0  0  0  0
   37.2110   31.1336   56.0454 H   0  0  0  0  0  0  0  0  0  0  0  0
   37.4771   29.8221   57.2317 H   0  0  0  0  0  0  0  0  0  0  0  0
   39.6892   31.1661   57.6573 H   0  0  0  0  0  0  0  0  0  0  0  0
   39.1881   33.6407   56.5374 H   0  0  0  0  0  0  0  0  0  0  0  0
   37.6103   33.3410   56.2747 H   0  0  0  0  0  0  0  0  0  0  0  0
   38.4938   34.4112   58.2069 H   0  0  0  0  0  0  0  0  0  0  0  0
   38.2491   35.3287   59.2257 H   0  0  0  0  0  0  0  0  0  0  0  0
   35.7416   34.1353   60.7133 H   0  0  0  0  0  0  0  0  0  0  0  0
   35.5485   35.0180   59.1608 H   0  0  0  0  0  0  0  0  0  0  0  0
   35.7383   33.2317   59.1608 H   0  0  0  0  0  0  0  0  0  0  0  0
   37.6535   34.4472   61.6381 H   0  0  0  0  0  0  0  0  0  0  0  0
   38.8861   33.3148   61.0636 H   0  0  0  0  0  0  0  0  0  0  0  0
   40.2467   34.8443   61.3262 H   0  0  0  0  0  0  0  0  0  0  0  0
   39.3741   35.6358   59.8787 H   0  0  0  0  0  0  0  0  0  0  0  0
   38.8626   36.0619   62.7027 H   0  0  0  0  0  0  0  0  0  0  0  0
   39.8637   37.0642   61.3745 H   0  0  0  0  0  0  0  0  0  0  0  0
   38.3140   39.4050   60.8250 H   0  0  0  0  0  0  0  0  0  0  0  0
   36.2100   37.1490   61.2020 H   0  0  0  0  0  0  0  0  0  0  0  0
   37.3580   31.5620   59.2850 H   0  0  0  0  0  0  0  0  0  0  0  0
   38.7750   31.6840   59.8520 H   0  0  0  0  0  0  0  0  0  0  0  0
   39.7958   31.0499   52.8321 H   0  0  0  0  0  0  0  0  0  0  0  0
   40.8540   29.6348   52.8526 H   0  0  0  0  0  0  0  0  0  0  0  0
  1  2  1  0
  2  3  1  0
  3  4  1  0
  4  5  1  0
  5  6  1  0
  6  7  1  0
  7  8  1  0
  8  9  1  0
  9 10  1  0
 10 11  1  0
 11 12  1  0
  5 13  1  0
 13 14  1  0
 14 15  1  0
 15 16  1  0
 15 17  1  0
 17 18  1  0
 18 19  1  0
 19 20  1  0
 20 21  1  0
 21 22  1  0
 21 23  1  0
 23 24  1  0
 24 25  1  0
 25 26  1  0
 26 27  2  0
 26 28  1  0
 28 29  1  0
 20 30  1  0
 13 31  1  0
 31  2  1  0
 12  8  1  0
 30 18  1  0
  1 32  1  0
  1 33  1  0
  1 34  1  0
  2 35  1  6
  3 36  1  0
  3 37  1  0
  4 38  1  0
  4 39  1  0
  5 40  1  0
  7 41  1  0
  7 42  1  0
  8 43  1  1
  9 44  1  0
  9 45  1  0
 10 46  1  0
 10 47  1  0
 12 48  1  0
 12 49  1  0
 13 50  1  6
 14 51  1  0
 14 52  1  0
 15 53  1  6
 16 54  1  0
 17 55  1  0
 17 56  1  0
 18 57  1  1
 19 58  1  0
 19 59  1  0
 20 60  1  1
 21 61  1  6
 22 62  1  0
 22 63  1  0
 22 64  1  0
 23 65  1  0
 23 66  1  0
 24 67  1  0
 24 68  1  0
 25 69  1  0
 25 70  1  0
 28 71  1  0
 29 72  1  0
 30 73  1  0
 30 74  1  0
 31 75  1  0
 31 76  1  0
M  CHG  1  30   1
M  END

>  <ID>
DiffSBDD_14_num_sample_100

>  <docking_score>
-9.188

$$$$
DiffSBDD_15_num_sample_100
     RDKit          3D

 76 81  0  0  0  0  0  0  0  0999 V2000
   41.0190   32.4480   65.6000 C   0  0  0  0  0  0  0  0  0  0  0  0
   42.4240   33.0320   65.5190 C   0  0  0  0  0  0  0  0  0  0  0  0
   42.3920   34.5720   65.2730 C   0  0  0  0  0  0  0  0  0  0  0  0
   40.9850   35.6900   65.6810 S   0  0  0  0  0  0  0  0  0  0  0  0
   40.1760   35.9540   64.1850 C   0  0  0  0  0  0  0  0  0  0  0  0
   39.2270   36.8490   63.8750 N   0  0  0  0  0  0  0  0  0  0  0  0
   38.8970   36.5970   62.6620 C   0  0  0  0  0  0  0  0  0  0  0  0
   37.8010   37.2890   61.9740 C   0  0  1  0  0  0  0  0  0  0  0  0
   36.6180   37.3670   62.7470 C   0  0  0  0  0  0  0  0  0  0  0  0
   38.2420   38.6020   61.3200 C   0  0  0  0  0  0  0  0  0  0  0  0
   37.6250   37.6000   60.5870 N   0  0  0  0  0  0  0  0  0  0  0  0
   39.7270   35.5450   62.1550 N   0  0  0  0  0  0  0  0  0  0  0  0
   39.6750   34.7260   60.9250 S   0  0  0  0  0  0  0  0  0  0  0  0
   38.4090   34.8810   60.3000 O   0  0  0  0  0  0  0  0  0  0  0  0
   41.0120   35.1520   60.3190 O   0  0  0  0  0  0  0  0  0  0  0  0
   39.9410   33.0830   61.2440 C   0  0  0  0  0  0  0  0  0  0  0  0
   39.0820   31.9100   61.4330 C   0  0  2  0  0  0  0  0  0  0  0  0
   39.1510   30.7820   62.3180 C   0  0  0  0  0  0  0  0  0  0  0  0
   39.5690   29.5160   61.5060 C   0  0  0  0  0  0  0  0  0  0  0  0
   39.3520   29.8660   60.1370 N   0  0  1  0  0  0  0  0  0  0  0  0
   39.7360   29.0610   58.9460 C   0  0  0  0  0  0  0  0  0  0  0  0
   38.9400   29.1630   57.6830 C   0  0  1  0  0  0  0  0  0  0  0  0
   38.2040   27.8100   56.6270 S   0  0  0  0  0  0  0  0  0  0  0  0
   38.6450   28.3490   54.9970 C   0  0  0  0  0  0  0  0  0  0  0  0
   39.0300   29.5140   54.6250 N   0  0  0  0  0  0  0  0  0  0  0  0
   39.3160   29.4920   53.3250 C   0  0  0  0  0  0  0  0  0  0  0  0
   38.9480   28.2480   53.0310 C   0  0  0  0  0  0  0  0  0  0  0  0
   38.6650   27.4690   54.0780 O   0  0  0  0  0  0  0  0  0  0  0  0
   38.9800   27.6150   51.4430 S   0  0  0  0  0  0  0  0  0  0  0  0
   39.9670   28.7200   50.6050 C   0  0  0  0  0  0  0  0  0  0  0  0
   40.0520   30.1860   50.9890 C   0  0  0  0  0  0  0  0  0  0  0  0
   39.8430   30.6300   52.6070 C   0  0  0  0  0  0  0  0  0  0  0  0
   37.9050   30.2160   58.0550 C   0  0  2  0  0  0  0  0  0  0  0  0
   36.9040   30.2150   56.9060 O   0  0  0  0  0  0  0  0  0  0  0  0
   38.3880   31.4620   58.6660 C   0  0  0  0  0  0  0  0  0  0  0  0
   38.8160   31.2220   59.9900 C   0  0  1  0  0  0  0  0  0  0  0  0
   40.4940   35.2480   63.2000 N   0  0  0  0  0  0  0  0  0  0  0  0
   40.7318   32.3286   66.6551 H   0  0  0  0  0  0  0  0  0  0  0  0
   40.3107   33.1262   65.1017 H   0  0  0  0  0  0  0  0  0  0  0  0
   41.0002   31.4675   65.1017 H   0  0  0  0  0  0  0  0  0  0  0  0
   42.9487   32.8324   66.4649 H   0  0  0  0  0  0  0  0  0  0  0  0
   42.9451   32.5591   64.6735 H   0  0  0  0  0  0  0  0  0  0  0  0
   43.2530   34.9734   65.8275 H   0  0  0  0  0  0  0  0  0  0  0  0
   42.3425   34.5916   64.1743 H   0  0  0  0  0  0  0  0  0  0  0  0
   38.1918   35.8294   63.0133 H   0  0  0  0  0  0  0  0  0  0  0  0
   36.8767   37.3499   63.8160 H   0  0  0  0  0  0  0  0  0  0  0  0
   36.0880   38.3020   62.5129 H   0  0  0  0  0  0  0  0  0  0  0  0
   35.9698   36.5096   62.5129 H   0  0  0  0  0  0  0  0  0  0  0  0
   37.7067   39.5375   61.5396 H   0  0  0  0  0  0  0  0  0  0  0  0
   39.1838   39.1653   61.2444 H   0  0  0  0  0  0  0  0  0  0  0  0
   38.1750   37.0830   59.8860 H   0  0  0  0  0  0  0  0  0  0  0  0
   36.7980   37.5970   59.9730 H   0  0  0  0  0  0  0  0  0  0  0  0
   40.5909   32.7762   60.4112 H   0  0  0  0  0  0  0  0  0  0  0  0
   40.1407   33.2268   62.3161 H   0  0  0  0  0  0  0  0  0  0  0  0
   38.3860   32.5179   62.0297 H   0  0  0  0  0  0  0  0  0  0  0  0
   39.8950   30.9766   63.1045 H   0  0  0  0  0  0  0  0  0  0  0  0
   38.1672   30.6154   62.7810 H   0  0  0  0  0  0  0  0  0  0  0  0
   40.6284   29.2771   61.6807 H   0  0  0  0  0  0  0  0  0  0  0  0
   38.9927   28.6269   61.8014 H   0  0  0  0  0  0  0  0  0  0  0  0
   40.2680   30.3370   60.1130 H   0  0  0  0  0  0  0  0  0  0  0  0
   40.7691   29.3417   58.6932 H   0  0  0  0  0  0  0  0  0  0  0  0
   39.5574   28.0261   59.2733 H   0  0  0  0  0  0  0  0  0  0  0  0
   39.7246   29.3094   56.9260 H   0  0  0  0  0  0  0  0  0  0  0  0
   39.1070   30.3390   55.2380 H   0  0  0  0  0  0  0  0  0  0  0  0
   40.9920   28.3262   50.6709 H   0  0  0  0  0  0  0  0  0  0  0  0
   39.4704   28.7703   49.6248 H   0  0  0  0  0  0  0  0  0  0  0  0
   41.0480   30.5403   50.6849 H   0  0  0  0  0  0  0  0  0  0  0  0
   39.1885   30.6394   50.4804 H   0  0  0  0  0  0  0  0  0  0  0  0
   40.8099   30.9272   53.0391 H   0  0  0  0  0  0  0  0  0  0  0  0
   39.1481   31.4795   52.6803 H   0  0  0  0  0  0  0  0  0  0  0  0
   37.3509   29.9705   58.9730 H   0  0  0  0  0  0  0  0  0  0  0  0
   37.3110   30.6470   56.1130 H   0  0  0  0  0  0  0  0  0  0  0  0
   39.2308   31.8527   58.0769 H   0  0  0  0  0  0  0  0  0  0  0  0
   37.5684   32.1955   58.6812 H   0  0  0  0  0  0  0  0  0  0  0  0
   39.8527   31.4409   59.6945 H   0  0  0  0  0  0  0  0  0  0  0  0
   41.2410   34.5390   63.2000 H   0  0  0  0  0  0  0  0  0  0  0  0
  1  2  1  0
  2  3  1  0
  3  4  1  0
  4  5  1  0
  5  6  2  0
  6  7  1  0
  7  8  1  0
  8  9  1  1
  8 10  1  0
 10 11  1  0
  7 12  1  0
 12 13  1  0
 13 14  2  0
 13 15  2  0
 13 16  1  0
 16 17  1  0
 17 18  1  0
 18 19  1  0
 19 20  1  0
 20 21  1  0
 21 22  1  0
 22 23  1  0
 23 24  1  0
 24 25  2  0
 25 26  1  0
 26 27  2  0
 27 28  1  0
 27 29  1  0
 29 30  1  0
 30 31  1  0
 31 32  1  0
 22 33  1  0
 33 34  1  0
 33 35  1  0
 35 36  1  0
 12 37  1  0
 37  5  1  0
 11  8  1  0
 36 17  1  0
 36 20  1  0
 28 24  1  0
 32 26  1  0
  1 38  1  0
  1 39  1  0
  1 40  1  0
  2 41  1  0
  2 42  1  0
  3 43  1  0
  3 44  1  0
  7 45  1  0
  9 46  1  0
  9 47  1  0
  9 48  1  0
 10 49  1  0
 10 50  1  0
 11 51  1  0
 11 52  1  0
 16 53  1  0
 16 54  1  0
 17 55  1  1
 18 56  1  0
 18 57  1  0
 19 58  1  0
 19 59  1  0
 20 60  1  1
 21 61  1  0
 21 62  1  0
 22 63  1  6
 25 64  1  0
 30 65  1  0
 30 66  1  0
 31 67  1  0
 31 68  1  0
 32 69  1  0
 32 70  1  0
 33 71  1  1
 34 72  1  0
 35 73  1  0
 35 74  1  0
 36 75  1  1
 37 76  1  0
M  CHG  3  11   1  20   1  25   1
M  END

>  <ID>
DiffSBDD_15_num_sample_100

>  <docking_score>
-9.655

$$$$
DiffSBDD_16_num_sample_100
     RDKit          3D

 58 60  0  0  0  0  0  0  0  0999 V2000
   36.0010   31.4180   60.4270 C   0  0  0  0  0  0  0  0  0  0  0  0
   37.4860   31.1120   60.4890 C   0  0  0  0  0  0  0  0  0  0  0  0
   38.1010   31.2020   61.8650 C   0  0  0  0  0  0  0  0  0  0  0  0
   38.1590   31.6360   59.3440 C   0  0  2  0  0  0  0  0  0  0  0  0
   38.0030   33.1480   59.0400 C   0  0  1  0  0  0  0  0  0  0  0  0
   37.7950   34.3830   60.0440 C   0  0  0  0  0  0  0  0  0  0  0  0
   38.9600   34.8780   60.8090 C   0  0  0  0  0  0  0  0  0  0  0  0
   40.0150   33.9510   60.8320 C   0  0  0  0  0  0  0  0  0  0  0  0
   41.1290   34.2790   61.6480 C   0  0  0  0  0  0  0  0  0  0  0  0
   41.3440   35.4530   62.1870 C   0  0  0  0  0  0  0  0  0  0  0  0
   40.4310   36.4140   62.1470 C   0  0  0  0  0  0  0  0  0  0  0  0
   40.6550   37.6440   62.6780 O   0  0  0  0  0  0  0  0  0  0  0  0
   39.2110   36.1470   61.5080 C   0  0  0  0  0  0  0  0  0  0  0  0
   37.9030   33.3190   57.4670 C   0  0  0  0  0  0  0  0  0  0  0  0
   38.8520   33.0880   56.4570 C   0  0  0  0  0  0  0  0  0  0  0  0
   38.7420   32.2850   55.2550 C   0  0  0  0  0  0  0  0  0  0  0  0
   39.0170   30.7720   55.3070 C   0  0  0  0  0  0  0  0  0  0  0  0
   39.4090   29.7880   54.3140 C   0  0  1  0  0  0  0  0  0  0  0  0
   38.7080   28.3630   54.4930 C   0  0  0  0  0  0  0  0  0  0  0  0
   39.5920   30.1710   52.9090 C   0  0  0  0  0  0  0  0  0  0  0  0
   40.1760   30.3490   51.6820 C   0  0  0  0  0  0  0  0  0  0  0  0
   40.4610   30.4730   50.4760 C   0  0  0  0  0  0  0  0  0  0  0  0
   39.5500   31.2350   49.5950 O   0  0  0  0  0  0  0  0  0  0  0  0
   38.9710   30.4280   56.7970 C   0  0  0  0  0  0  0  0  0  0  0  0
   38.9970   29.7010   58.0170 C   0  0  0  0  0  0  0  0  0  0  0  0
   38.6980   30.9260   58.1870 C   0  0  2  0  0  0  0  0  0  0  0  0
   35.6007   31.5005   61.4482 H   0  0  0  0  0  0  0  0  0  0  0  0
   35.8442   32.3673   59.8939 H   0  0  0  0  0  0  0  0  0  0  0  0
   35.4817   30.6080   59.8939 H   0  0  0  0  0  0  0  0  0  0  0  0
   37.6578   30.0319   60.3712 H   0  0  0  0  0  0  0  0  0  0  0  0
   37.3152   31.0870   62.6261 H   0  0  0  0  0  0  0  0  0  0  0  0
   38.8480   30.4036   61.9857 H   0  0  0  0  0  0  0  0  0  0  0  0
   38.5879   32.1810   61.9857 H   0  0  0  0  0  0  0  0  0  0  0  0
   38.8997   31.1898   60.0239 H   0  0  0  0  0  0  0  0  0  0  0  0
   36.9126   33.0214   58.9698 H   0  0  0  0  0  0  0  0  0  0  0  0
   37.4173   35.2261   59.4469 H   0  0  0  0  0  0  0  0  0  0  0  0
   37.1155   33.9903   60.8148 H   0  0  0  0  0  0  0  0  0  0  0  0
   39.9797   33.0194   60.2481 H   0  0  0  0  0  0  0  0  0  0  0  0
   41.8676   33.4873   61.8424 H   0  0  0  0  0  0  0  0  0  0  0  0
   42.3054   35.6467   62.6851 H   0  0  0  0  0  0  0  0  0  0  0  0
   40.6550   38.4430   62.0940 H   0  0  0  0  0  0  0  0  0  0  0  0
   38.4186   36.9096   61.5306 H   0  0  0  0  0  0  0  0  0  0  0  0
   37.0547   32.6782   57.1846 H   0  0  0  0  0  0  0  0  0  0  0  0
   37.9450   34.4180   57.4457 H   0  0  0  0  0  0  0  0  0  0  0  0
   39.1064   34.0930   56.0892 H   0  0  0  0  0  0  0  0  0  0  0  0
   39.5157   32.4191   57.0245 H   0  0  0  0  0  0  0  0  0  0  0  0
   37.7131   32.4072   54.8857 H   0  0  0  0  0  0  0  0  0  0  0  0
   39.5578   32.6664   54.6233 H   0  0  0  0  0  0  0  0  0  0  0  0
   40.4661   29.7029   54.6060 H   0  0  0  0  0  0  0  0  0  0  0  0
   38.5984   28.1403   55.5646 H   0  0  0  0  0  0  0  0  0  0  0  0
   37.7156   28.3804   54.0188 H   0  0  0  0  0  0  0  0  0  0  0  0
   39.3274   27.5875   54.0188 H   0  0  0  0  0  0  0  0  0  0  0  0
   41.4431   30.9661   50.4267 H   0  0  0  0  0  0  0  0  0  0  0  0
   40.4041   29.4459   50.0863 H   0  0  0  0  0  0  0  0  0  0  0  0
   38.6120   31.0320   49.8360 H   0  0  0  0  0  0  0  0  0  0  0  0
   38.2235   28.9392   58.1943 H   0  0  0  0  0  0  0  0  0  0  0  0
   39.7716   29.0676   58.4739 H   0  0  0  0  0  0  0  0  0  0  0  0
   38.6364   31.9688   58.5317 H   0  0  0  0  0  0  0  0  0  0  0  0
  1  2  1  0
  2  3  1  0
  2  4  1  0
  4  5  1  0
  5  6  1  0
  6  7  1  0
  7  8  2  0
  8  9  1  0
  9 10  2  0
 10 11  1  0
 11 12  1  0
 11 13  2  0
  5 14  1  0
 14 15  1  0
 15 16  1  0
 16 17  1  0
 17 18  1  0
 18 19  1  0
 18 20  1  0
 20 21  3  0
 21 22  1  0
 22 23  1  0
 17 24  2  0
 24 25  1  0
 25 26  1  0
 26  4  1  0
 13  7  1  0
 26 24  1  0
  1 27  1  0
  1 28  1  0
  1 29  1  0
  2 30  1  0
  3 31  1  0
  3 32  1  0
  3 33  1  0
  4 34  1  1
  5 35  1  6
  6 36  1  0
  6 37  1  0
  8 38  1  0
  9 39  1  0
 10 40  1  0
 12 41  1  0
 13 42  1  0
 14 43  1  0
 14 44  1  0
 15 45  1  0
 15 46  1  0
 16 47  1  0
 16 48  1  0
 18 49  1  1
 19 50  1  0
 19 51  1  0
 19 52  1  0
 22 53  1  0
 22 54  1  0
 23 55  1  0
 25 56  1  0
 25 57  1  0
 26 58  1  1
M  END

>  <ID>
DiffSBDD_16_num_sample_100

>  <docking_score>
-10.249

$$$$
DiffSBDD_17_num_sample_100
     RDKit          3D

106113  0  0  0  0  0  0  0  0999 V2000
   38.8810   33.0890   57.2970 C   0  0  0  0  0  0  0  0  0  0  0  0
   38.3260   32.4840   58.3940 C   0  0  0  0  0  0  0  0  0  0  0  0
   37.2670   31.5620   58.2020 O   0  0  0  0  0  0  0  0  0  0  0  0
   38.5300   32.9020   59.7830 C   0  0  2  0  0  0  0  0  0  0  0  0
   39.4190   31.5110   60.2150 O   0  0  0  0  0  0  0  0  0  0  0  0
   39.0420   30.6390   61.2050 C   0  0  1  0  0  0  0  0  0  0  0  0
   38.9340   30.7580   62.4440 C   0  0  0  0  0  0  0  0  0  0  0  0
   39.7320   31.2480   63.5880 C   0  0  0  0  0  0  0  0  0  0  0  0
   40.4250   32.5610   63.9970 C   0  0  0  0  0  0  0  0  0  0  0  0
   41.8490   32.5770   63.7840 N   0  0  0  0  0  0  0  0  0  0  0  0
   42.4910   31.1990   63.7380 C   0  0  0  0  0  0  0  0  0  0  0  0
   42.7290   31.0320   65.1970 C   0  0  2  0  0  0  0  0  0  0  0  0
   42.6840   30.1010   65.8600 C   0  0  1  0  0  0  0  0  0  0  0  0
   41.2360   29.3170   66.6080 S   0  0  0  0  0  0  0  0  0  0  0  0
   42.1630   27.9090   66.6250 C   0  0  0  0  0  0  0  0  0  0  0  0
   41.8350   26.9130   67.3740 O   0  0  0  0  0  0  0  0  0  0  0  0
   43.4510   27.9440   65.6890 C   0  0  0  0  0  0  0  0  0  0  0  0
   44.1100   27.1900   64.9460 N   0  0  0  0  0  0  0  0  0  0  0  0
   45.0580   28.1100   64.4180 C   0  0  0  0  0  0  0  0  0  0  0  0
   44.7310   29.3500   64.7480 N   0  0  0  0  0  0  0  0  0  0  0  0
   43.7650   29.2300   65.6180 N   0  0  0  0  0  0  0  0  0  0  0  0
   43.1940   32.2750   65.8630 C   0  0  2  0  0  0  0  0  0  0  0  0
   42.2340   32.7650   66.8800 N   0  0  0  0  0  0  0  0  0  0  0  0
   42.8900   33.0740   67.9830 O   0  0  0  0  0  0  0  0  0  0  0  0
   42.6330   33.3060   64.9280 C   0  0  0  0  0  0  0  0  0  0  0  0
   42.8600   34.5960   65.2780 O   0  0  0  0  0  0  0  0  0  0  0  0
   38.4870   29.4260   60.2720 C   0  0  2  0  0  0  0  0  0  0  0  0
   38.9330   28.3690   60.9870 O   0  0  0  0  0  0  0  0  0  0  0  0
   40.1790   28.5940   61.4090 C   0  0  0  0  0  0  0  0  0  0  0  0
   40.5580   28.5000   62.5380 O   0  0  0  0  0  0  0  0  0  0  0  0
   41.6850   28.0140   63.0560 O   0  0  0  0  0  0  0  0  0  0  0  0
   41.0480   28.9100   60.4950 O   0  0  0  0  0  0  0  0  0  0  0  0
   40.6880   29.5480   59.4710 C   0  0  0  0  0  0  0  0  0  0  0  0
   39.2520   29.4940   58.9420 C   0  0  1  0  0  0  0  0  0  0  0  0
   38.9110   28.4290   58.1320 C   0  0  2  0  0  0  0  0  0  0  0  0
   39.1110   27.0190   58.2110 C   0  0  0  0  0  0  0  0  0  0  0  0
   38.2180   26.4140   57.2150 C   0  0  0  0  0  0  0  0  0  0  0  0
   38.8130   25.7930   56.0200 C   0  0  1  0  0  0  0  0  0  0  0  0
   37.8310   24.8760   55.2020 C   0  0  0  0  0  0  0  0  0  0  0  0
   39.7770   26.6000   55.2850 C   0  0  1  0  0  0  0  0  0  0  0  0
   39.7840   25.3150   54.1840 C   0  0  0  0  0  0  0  0  0  0  0  0
   38.9920   27.7460   54.5890 O   0  0  0  0  0  0  0  0  0  0  0  0
   38.3060   28.2550   55.5650 C   0  0  2  0  0  0  0  0  0  0  0  0
   38.4750   29.6270   55.8320 C   0  0  0  0  0  0  0  0  0  0  0  0
   39.2040   28.7430   56.6770 C   0  0  1  0  0  0  0  0  0  0  0  0
   37.1140   33.8440   59.2280 C   0  0  0  0  0  0  0  0  0  0  0  0
   36.3080   34.3540   60.3130 C   0  0  0  0  0  0  0  0  0  0  0  0
   36.8540   34.7400   61.4710 C   0  0  0  0  0  0  0  0  0  0  0  0
   38.2000   34.6920   61.8230 C   0  0  0  0  0  0  0  0  0  0  0  0
   39.1770   34.6220   61.0430 C   0  0  0  0  0  0  0  0  0  0  0  0
   40.3460   34.7900   60.7580 C   0  0  1  0  0  0  0  0  0  0  0  0
   41.3110   35.2440   61.6940 C   0  0  0  0  0  0  0  0  0  0  0  0
   39.3100   34.1850   60.0660 C   0  0  1  0  0  0  0  0  0  0  0  0
   39.7040   33.8079   57.4229 H   0  0  0  0  0  0  0  0  0  0  0  0
   38.5036   32.8558   56.2904 H   0  0  0  0  0  0  0  0  0  0  0  0
   36.4720   31.8260   57.6750 H   0  0  0  0  0  0  0  0  0  0  0  0
   39.5364   30.6856   62.1865 H   0  0  0  0  0  0  0  0  0  0  0  0
   38.0214   31.3658   62.5314 H   0  0  0  0  0  0  0  0  0  0  0  0
   39.2049   29.7079   62.6282 H   0  0  0  0  0  0  0  0  0  0  0  0
   39.0572   31.0664   64.4375 H   0  0  0  0  0  0  0  0  0  0  0  0
   40.6626   30.7768   63.2386 H   0  0  0  0  0  0  0  0  0  0  0  0
   39.9811   33.3802   63.4123 H   0  0  0  0  0  0  0  0  0  0  0  0
   40.2698   32.6719   65.0803 H   0  0  0  0  0  0  0  0  0  0  0  0
   41.8089   30.4348   63.3371 H   0  0  0  0  0  0  0  0  0  0  0  0
   43.3747   31.0998   63.0905 H   0  0  0  0  0  0  0  0  0  0  0  0
   43.7945   30.8412   65.0013 H   0  0  0  0  0  0  0  0  0  0  0  0
   42.6685   30.7339   66.7595 H   0  0  0  0  0  0  0  0  0  0  0  0
   45.9381   27.8308   63.8202 H   0  0  0  0  0  0  0  0  0  0  0  0
   44.2420   32.1332   66.1655 H   0  0  0  0  0  0  0  0  0  0  0  0
   41.5440   32.0280   67.0850 H   0  0  0  0  0  0  0  0  0  0  0  0
   43.8040   33.3760   67.7480 H   0  0  0  0  0  0  0  0  0  0  0  0
   37.4088   29.4191   60.0542 H   0  0  0  0  0  0  0  0  0  0  0  0
   39.9299   29.6516   61.5807 H   0  0  0  0  0  0  0  0  0  0  0  0
   42.3340   28.7520   63.1840 H   0  0  0  0  0  0  0  0  0  0  0  0
   40.8996   30.6073   59.6786 H   0  0  0  0  0  0  0  0  0  0  0  0
   41.2464   29.0364   58.6732 H   0  0  0  0  0  0  0  0  0  0  0  0
   39.0438   30.3371   58.2669 H   0  0  0  0  0  0  0  0  0  0  0  0
   37.9458   28.4461   58.6594 H   0  0  0  0  0  0  0  0  0  0  0  0
   40.1580   26.7705   57.9831 H   0  0  0  0  0  0  0  0  0  0  0  0
   38.8926   26.6426   59.2213 H   0  0  0  0  0  0  0  0  0  0  0  0
   37.6378   25.6346   57.7307 H   0  0  0  0  0  0  0  0  0  0  0  0
   37.6440   27.2642   56.8178 H   0  0  0  0  0  0  0  0  0  0  0  0
   39.5104   25.0452   56.4255 H   0  0  0  0  0  0  0  0  0  0  0  0
   37.2079   24.2942   55.8972 H   0  0  0  0  0  0  0  0  0  0  0  0
   37.1862   25.5027   54.5684 H   0  0  0  0  0  0  0  0  0  0  0  0
   38.4122   24.1899   54.5684 H   0  0  0  0  0  0  0  0  0  0  0  0
   40.6734   27.0439   55.7427 H   0  0  0  0  0  0  0  0  0  0  0  0
   39.7892   24.3618   54.7330 H   0  0  0  0  0  0  0  0  0  0  0  0
   38.8855   25.3691   53.5517 H   0  0  0  0  0  0  0  0  0  0  0  0
   40.6818   25.3788   53.5517 H   0  0  0  0  0  0  0  0  0  0  0  0
   37.4223   27.6117   55.4418 H   0  0  0  0  0  0  0  0  0  0  0  0
   39.0207   30.2517   55.1095 H   0  0  0  0  0  0  0  0  0  0  0  0
   37.7678   30.4452   56.0334 H   0  0  0  0  0  0  0  0  0  0  0  0
   40.2594   28.6692   56.9780 H   0  0  0  0  0  0  0  0  0  0  0  0
   37.4728   34.6944   58.6295 H   0  0  0  0  0  0  0  0  0  0  0  0
   36.4790   33.1639   58.6413 H   0  0  0  0  0  0  0  0  0  0  0  0
   35.2181   34.4266   60.1834 H   0  0  0  0  0  0  0  0  0  0  0  0
   36.1637   35.1393   62.2287 H   0  0  0  0  0  0  0  0  0  0  0  0
   38.3723   35.6039   62.4135 H   0  0  0  0  0  0  0  0  0  0  0  0
   38.2377   33.6783   62.2485 H   0  0  0  0  0  0  0  0  0  0  0  0
   38.9384   35.6230   60.6543 H   0  0  0  0  0  0  0  0  0  0  0  0
   41.3468   35.0379   60.3747 H   0  0  0  0  0  0  0  0  0  0  0  0
   40.9413   35.0701   62.7153 H   0  0  0  0  0  0  0  0  0  0  0  0
   42.2522   34.6942   61.5461 H   0  0  0  0  0  0  0  0  0  0  0  0
   41.4875   36.3196   61.5461 H   0  0  0  0  0  0  0  0  0  0  0  0
   39.2075   34.1829   58.9708 H   0  0  0  0  0  0  0  0  0  0  0  0
  1  2  2  0
  2  3  1  0
  2  4  1  0
  4  5  1  1
  5  6  1  0
  6  7  1  0
  7  8  1  0
  8  9  1  0
  9 10  1  0
 10 11  1  0
 11 12  1  0
 12 13  1  0
 13 14  1  0
 14 15  1  0
 15 16  2  0
 15 17  1  0
 17 18  2  0
 18 19  1  0
 19 20  2  0
 20 21  1  0
 12 22  1  0
 22 23  1  0
 23 24  1  0
 22 25  1  0
 25 26  2  0
  6 27  1  0
 27 28  1  0
 28 29  1  0
 29 30  1  0
 30 31  1  0
 29 32  1  0
 32 33  1  0
 33 34  1  0
 34 35  1  0
 35 36  1  0
 36 37  1  0
 37 38  1  0
 38 39  1  0
 38 40  1  0
 40 41  1  0
 40 42  1  0
 42 43  1  0
 43 44  1  0
 44 45  1  0
  4 46  1  0
 46 47  1  0
 47 48  2  0
 48 49  1  0
 49 50  1  0
 50 51  1  0
 51 52  1  0
 51 53  1  0
 53  4  1  0
 25 10  1  0
 34 27  1  0
 45 35  1  0
 53 50  1  0
 21 13  1  0
 45 43  1  0
 21 17  1  0
  1 54  1  0
  1 55  1  0
  3 56  1  0
  6 57  1  1
  7 58  1  0
  7 59  1  0
  8 60  1  0
  8 61  1  0
  9 62  1  0
  9 63  1  0
 11 64  1  0
 11 65  1  0
 12 66  1  1
 13 67  1  1
 19 68  1  0
 22 69  1  1
 23 70  1  0
 24 71  1  0
 27 72  1  6
 29 73  1  0
 31 74  1  0
 33 75  1  0
 33 76  1  0
 34 77  1  6
 35 78  1  6
 36 79  1  0
 36 80  1  0
 37 81  1  0
 37 82  1  0
 38 83  1  1
 39 84  1  0
 39 85  1  0
 39 86  1  0
 40 87  1  1
 41 88  1  0
 41 89  1  0
 41 90  1  0
 43 91  1  1
 44 92  1  0
 44 93  1  0
 45 94  1  6
 46 95  1  0
 46 96  1  0
 47 97  1  0
 48 98  1  0
 49 99  1  0
 49100  1  0
 50101  1  0
 51102  1  6
 52103  1  0
 52104  1  0
 52105  1  0
 53106  1  6
M  END

>  <ID>
DiffSBDD_17_num_sample_100

>  <docking_score>
-10.652

$$$$
DiffSBDD_18_num_sample_100
     RDKit          3D

 71 73  0  0  0  0  0  0  0  0999 V2000
   37.0600   36.8580   59.6780 C   0  0  0  0  0  0  0  0  0  0  0  0
   37.5420   37.0060   61.0490 C   0  0  0  0  0  0  0  0  0  0  0  0
   36.6870   37.6950   61.9260 C   0  0  0  0  0  0  0  0  0  0  0  0
   36.1070   38.7230   61.6490 O   0  0  0  0  0  0  0  0  0  0  0  0
   36.4900   37.2250   63.1100 O   0  0  0  0  0  0  0  0  0  0  0  0
   38.8410   36.4330   61.4340 C   0  0  1  0  0  0  0  0  0  0  0  0
   38.8550   34.9370   61.2720 C   0  0  0  0  0  0  0  0  0  0  0  0
   39.6790   34.0230   61.7380 C   0  0  0  0  0  0  0  0  0  0  0  0
   40.7120   34.1280   62.7210 C   0  0  0  0  0  0  0  0  0  0  0  0
   41.1600   32.9860   63.5390 C   0  0  0  0  0  0  0  0  0  0  0  0
   40.7090   31.6480   63.2840 C   0  0  2  0  0  0  0  0  0  0  0  0
   40.7300   30.6580   64.3540 C   0  0  0  0  0  0  0  0  0  0  0  0
   40.9490   31.1930   61.9810 O   0  0  0  0  0  0  0  0  0  0  0  0
   40.5640   29.8990   61.5550 C   0  0  0  0  0  0  0  0  0  0  0  0
   39.1240   29.5840   61.2200 C   0  0  0  0  0  0  0  0  0  0  0  0
   38.3430   30.7980   60.7820 C   0  0  0  0  0  0  0  0  0  0  0  0
   37.4490   31.2290   61.4390 O   0  0  0  0  0  0  0  0  0  0  0  0
   38.6850   31.3730   59.6730 N   0  0  0  0  0  0  0  0  0  0  0  0
   37.9870   32.1320   58.6710 C   0  0  0  0  0  0  0  0  0  0  0  0
   38.6550   31.6790   56.9800 C   0  0  2  0  0  0  0  0  0  0  0  0
   38.6630   32.9920   56.2410 C   0  0  0  0  0  0  0  0  0  0  0  0
   38.9000   30.5620   55.7340 C   0  0  1  0  0  0  0  0  0  0  0  0
   39.1270   30.9520   54.3760 C   0  0  0  0  0  0  0  0  0  0  0  0
   39.3380   29.7130   53.5930 N   0  0  0  0  0  0  0  0  0  0  0  0
   39.0000   28.7020   54.3080 N   0  0  0  0  0  0  0  0  0  0  0  0
   38.8070   29.1040   55.6770 C   0  0  1  0  0  0  0  0  0  0  0  0
   38.9620   27.9710   56.5130 N   0  0  0  0  0  0  0  0  0  0  0  0
   38.7460   27.9980   57.9470 C   0  0  0  0  0  0  0  0  0  0  0  0
   39.0790   26.5890   58.4030 C   0  0  0  0  0  0  0  0  0  0  0  0
   39.4840   25.9030   57.1890 C   0  0  0  0  0  0  0  0  0  0  0  0
   39.7510   24.5870   57.1810 O   0  0  0  0  0  0  0  0  0  0  0  0
   39.4460   26.7630   55.9290 C   0  0  0  0  0  0  0  0  0  0  0  0
   41.2700   35.3360   62.9700 C   0  0  0  0  0  0  0  0  0  0  0  0
   40.9570   36.5060   62.6720 N   0  0  0  0  0  0  0  0  0  0  0  0
   39.9050   37.2010   62.0030 C   0  0  0  0  0  0  0  0  0  0  0  0
   39.9100   38.4720   62.0410 O   0  0  0  0  0  0  0  0  0  0  0  0
   36.0085   36.5351   59.6918 H   0  0  0  0  0  0  0  0  0  0  0  0
   37.1406   37.8223   59.1549 H   0  0  0  0  0  0  0  0  0  0  0  0
   37.6679   36.1051   59.1549 H   0  0  0  0  0  0  0  0  0  0  0  0
   38.0268   37.9549   60.7761 H   0  0  0  0  0  0  0  0  0  0  0  0
   38.4837   36.3177   62.4679 H   0  0  0  0  0  0  0  0  0  0  0  0
   38.0342   34.5385   60.6576 H   0  0  0  0  0  0  0  0  0  0  0  0
   39.5534   33.0206   61.3029 H   0  0  0  0  0  0  0  0  0  0  0  0
   41.8600   33.1649   64.3685 H   0  0  0  0  0  0  0  0  0  0  0  0
   39.6208   31.8032   63.3242 H   0  0  0  0  0  0  0  0  0  0  0  0
   40.7191   31.1700   65.3275 H   0  0  0  0  0  0  0  0  0  0  0  0
   39.8454   30.0095   64.2709 H   0  0  0  0  0  0  0  0  0  0  0  0
   41.6413   30.0476   64.2709 H   0  0  0  0  0  0  0  0  0  0  0  0
   41.1501   29.6808   60.6501 H   0  0  0  0  0  0  0  0  0  0  0  0
   40.7423   29.2871   62.4516 H   0  0  0  0  0  0  0  0  0  0  0  0
   39.1069   28.8437   60.4066 H   0  0  0  0  0  0  0  0  0  0  0  0
   38.6494   29.1991   62.1346 H   0  0  0  0  0  0  0  0  0  0  0  0
   39.6870   31.2610   59.4600 H   0  0  0  0  0  0  0  0  0  0  0  0
   36.9125   31.9009   58.7163 H   0  0  0  0  0  0  0  0  0  0  0  0
   38.1350   33.2070   58.8514 H   0  0  0  0  0  0  0  0  0  0  0  0
   39.0370   30.8408   57.5812 H   0  0  0  0  0  0  0  0  0  0  0  0
   38.6680   33.8202   56.9649 H   0  0  0  0  0  0  0  0  0  0  0  0
   39.5615   33.0517   55.6093 H   0  0  0  0  0  0  0  0  0  0  0  0
   37.7653   33.0627   55.6093 H   0  0  0  0  0  0  0  0  0  0  0  0
   37.8167   30.5350   55.5452 H   0  0  0  0  0  0  0  0  0  0  0  0
   38.2534   31.4976   53.9897 H   0  0  0  0  0  0  0  0  0  0  0  0
   40.0021   31.6143   54.3015 H   0  0  0  0  0  0  0  0  0  0  0  0
   38.7600   29.7410   52.7410 H   0  0  0  0  0  0  0  0  0  0  0  0
   39.7430   27.9910   54.2640 H   0  0  0  0  0  0  0  0  0  0  0  0
   38.0600   29.3030   56.4595 H   0  0  0  0  0  0  0  0  0  0  0  0
   38.4159   28.8467   58.5640 H   0  0  0  0  0  0  0  0  0  0  0  0
   39.0256   26.1800   59.4227 H   0  0  0  0  0  0  0  0  0  0  0  0
   39.7170   24.0700   58.0240 H   0  0  0  0  0  0  0  0  0  0  0  0
   39.7109   26.5243   54.8884 H   0  0  0  0  0  0  0  0  0  0  0  0
   42.1959   35.2722   63.5604 H   0  0  0  0  0  0  0  0  0  0  0  0
   41.6710   37.1680   63.0090 H   0  0  0  0  0  0  0  0  0  0  0  0
  1  2  1  0
  2  3  1  0
  3  4  2  0
  3  5  1  0
  2  6  1  0
  6  7  1  0
  7  8  2  0
  8  9  1  0
  9 10  2  3
 10 11  1  0
 11 12  1  0
 11 13  1  0
 13 14  1  0
 14 15  1  0
 15 16  1  0
 16 17  2  0
 16 18  1  0
 18 19  1  0
 19 20  1  0
 20 21  1  0
 20 22  1  0
 22 23  1  0
 23 24  1  0
 24 25  1  0
 25 26  1  0
 26 27  1  0
 27 28  1  0
 28 29  2  0
 29 30  1  0
 30 31  1  0
 30 32  2  0
  9 33  1  0
 33 34  2  0
 34 35  1  0
 35 36  2  0
 35  6  1  0
 26 22  1  0
 32 27  1  0
  1 37  1  0
  1 38  1  0
  1 39  1  0
  2 40  1  0
  6 41  1  6
  7 42  1  0
  8 43  1  0
 10 44  1  0
 11 45  1  6
 12 46  1  0
 12 47  1  0
 12 48  1  0
 14 49  1  0
 14 50  1  0
 15 51  1  0
 15 52  1  0
 18 53  1  0
 19 54  1  0
 19 55  1  0
 20 56  1  1
 21 57  1  0
 21 58  1  0
 21 59  1  0
 22 60  1  1
 23 61  1  0
 23 62  1  0
 24 63  1  0
 25 64  1  0
 26 65  1  6
 28 66  1  0
 29 67  1  0
 31 68  1  0
 32 69  1  0
 33 70  1  0
 34 71  1  0
M  CHG  2   5  -1  34   1
M  END

>  <ID>
DiffSBDD_18_num_sample_100

>  <docking_score>
-10.69

$$$$
DiffSBDD_19_num_sample_100
     RDKit          3D

 70 71  0  0  0  0  0  0  0  0999 V2000
   39.0740   33.7240   59.8940 C   0  0  0  0  0  0  0  0  0  0  0  0
   38.1400   32.5570   60.3040 C   0  0  0  0  0  0  0  0  0  0  0  0
   38.6240   31.3740   59.4360 C   0  0  0  0  0  0  0  0  0  0  0  0
   37.8560   30.0940   59.6440 C   0  0  0  0  0  0  0  0  0  0  0  0
   38.1700   29.1360   58.5480 N   0  0  2  0  0  0  0  0  0  0  0  0
   37.4130   29.2950   57.3960 C   0  0  0  0  0  0  0  0  0  0  0  0
   37.8110   30.1050   56.2470 C   0  0  2  0  0  0  0  0  0  0  0  0
   36.6760   30.1180   55.3090 O   0  0  0  0  0  0  0  0  0  0  0  0
   39.1390   29.7590   55.5450 C   0  0  0  0  0  0  0  0  0  0  0  0
   39.3780   30.6360   54.3030 C   0  0  2  0  0  0  0  0  0  0  0  0
   38.5940   31.7760   54.4080 O   0  0  0  0  0  0  0  0  0  0  0  0
   39.4080   29.9980   53.0100 C   0  0  0  0  0  0  0  0  0  0  0  0
   40.2180   30.6150   52.0520 C   0  0  0  0  0  0  0  0  0  0  0  0
   40.5460   30.3080   50.7500 C   0  0  0  0  0  0  0  0  0  0  0  0
   40.1510   29.1290   50.1000 C   0  0  0  0  0  0  0  0  0  0  0  0
   39.4010   28.1420   50.6450 C   0  0  0  0  0  0  0  0  0  0  0  0
   38.8080   27.9690   51.7490 C   0  0  0  0  0  0  0  0  0  0  0  0
   38.2260   26.7080   51.8060 O   0  0  0  0  0  0  0  0  0  0  0  0
   38.7650   28.8180   52.8170 C   0  0  0  0  0  0  0  0  0  0  0  0
   38.6810   27.8620   58.9900 C   0  0  0  0  0  0  0  0  0  0  0  0
   39.8130   27.2440   58.2840 C   0  0  2  0  0  0  0  0  0  0  0  0
   39.8960   25.6970   58.1580 C   0  0  0  0  0  0  0  0  0  0  0  0
   38.9600   25.4080   57.0350 C   0  0  0  0  0  0  0  0  0  0  0  0
   37.8860   24.4890   57.2630 C   0  0  0  0  0  0  0  0  0  0  0  0
   36.8400   24.3380   56.2820 C   0  0  0  0  0  0  0  0  0  0  0  0
   36.8230   25.1910   55.2290 C   0  0  0  0  0  0  0  0  0  0  0  0
   37.8280   26.1180   54.9530 C   0  0  0  0  0  0  0  0  0  0  0  0
   38.9940   25.9440   55.7100 C   0  0  0  0  0  0  0  0  0  0  0  0
   40.2010   26.2790   55.0760 C   0  0  0  0  0  0  0  0  0  0  0  0
   41.1690   27.9310   58.3650 C   0  0  0  0  0  0  0  0  0  0  0  0
   42.1360   27.6060   57.7200 O   0  0  0  0  0  0  0  0  0  0  0  0
   41.1590   28.8840   59.2830 O   0  0  0  0  0  0  0  0  0  0  0  0
   39.4664   34.2143   60.7972 H   0  0  0  0  0  0  0  0  0  0  0  0
   39.9105   33.3318   59.2969 H   0  0  0  0  0  0  0  0  0  0  0  0
   38.5080   34.4542   59.2969 H   0  0  0  0  0  0  0  0  0  0  0  0
   38.2471   32.3271   61.3744 H   0  0  0  0  0  0  0  0  0  0  0  0
   37.0760   32.7899   60.1499 H   0  0  0  0  0  0  0  0  0  0  0  0
   38.5316   31.6627   58.3786 H   0  0  0  0  0  0  0  0  0  0  0  0
   39.6625   31.1692   59.7354 H   0  0  0  0  0  0  0  0  0  0  0  0
   38.1396   29.6503   60.6098 H   0  0  0  0  0  0  0  0  0  0  0  0
   36.7777   30.3115   59.6396 H   0  0  0  0  0  0  0  0  0  0  0  0
   39.0480   29.4080   58.0850 H   0  0  0  0  0  0  0  0  0  0  0  0
   37.2581   28.2797   57.0020 H   0  0  0  0  0  0  0  0  0  0  0  0
   36.5754   29.8927   57.7848 H   0  0  0  0  0  0  0  0  0  0  0  0
   38.0466   31.1035   56.6438 H   0  0  0  0  0  0  0  0  0  0  0  0
   36.8430   29.4690   54.5800 H   0  0  0  0  0  0  0  0  0  0  0  0
   39.9663   29.9130   56.2535 H   0  0  0  0  0  0  0  0  0  0  0  0
   39.0876   28.7104   55.2167 H   0  0  0  0  0  0  0  0  0  0  0  0
   40.4391   30.9251   54.3241 H   0  0  0  0  0  0  0  0  0  0  0  0
   38.3660   32.1040   53.5020 H   0  0  0  0  0  0  0  0  0  0  0  0
   40.6927   31.5390   52.4138 H   0  0  0  0  0  0  0  0  0  0  0  0
   41.1541   31.0305   50.1859 H   0  0  0  0  0  0  0  0  0  0  0  0
   40.4786   28.9949   49.0585 H   0  0  0  0  0  0  0  0  0  0  0  0
   39.2780   27.2860   49.9652 H   0  0  0  0  0  0  0  0  0  0  0  0
   37.6993   29.0707   52.9191 H   0  0  0  0  0  0  0  0  0  0  0  0
   39.3571   28.2090   53.5160 H   0  0  0  0  0  0  0  0  0  0  0  0
   38.9903   27.9891   60.0379 H   0  0  0  0  0  0  0  0  0  0  0  0
   37.8487   27.1707   58.7917 H   0  0  0  0  0  0  0  0  0  0  0  0
   39.4298   27.5159   57.2894 H   0  0  0  0  0  0  0  0  0  0  0  0
   40.9188   25.3733   57.9149 H   0  0  0  0  0  0  0  0  0  0  0  0
   39.6376   25.1693   59.0879 H   0  0  0  0  0  0  0  0  0  0  0  0
   37.8587   23.8964   58.1893 H   0  0  0  0  0  0  0  0  0  0  0  0
   36.0771   23.5523   56.3854 H   0  0  0  0  0  0  0  0  0  0  0  0
   35.9605   25.1496   54.5476 H   0  0  0  0  0  0  0  0  0  0  0  0
   38.0921   26.0337   53.8885 H   0  0  0  0  0  0  0  0  0  0  0  0
   37.4257   27.1076   55.2154 H   0  0  0  0  0  0  0  0  0  0  0  0
   39.0833   24.9136   55.3356 H   0  0  0  0  0  0  0  0  0  0  0  0
   40.9675   26.4917   55.8357 H   0  0  0  0  0  0  0  0  0  0  0  0
   40.5308   25.4384   54.4478 H   0  0  0  0  0  0  0  0  0  0  0  0
   40.0504   27.1693   54.4478 H   0  0  0  0  0  0  0  0  0  0  0  0
  1  2  1  0
  2  3  1  0
  3  4  1  0
  4  5  1  0
  5  6  1  0
  6  7  1  0
  7  8  1  0
  7  9  1  0
  9 10  1  0
 10 11  1  0
 10 12  1  0
 12 13  2  0
 13 14  1  0
 14 15  2  0
 15 16  1  0
 16 17  2  0
 17 18  1  0
 17 19  1  0
  5 20  1  0
 20 21  1  0
 21 22  1  0
 22 23  1  0
 23 24  2  0
 24 25  1  0
 25 26  2  0
 26 27  1  0
 27 28  1  0
 28 29  1  0
 21 30  1  0
 30 31  2  0
 30 32  1  0
 19 12  1  0
 28 23  1  0
  1 33  1  0
  1 34  1  0
  1 35  1  0
  2 36  1  0
  2 37  1  0
  3 38  1  0
  3 39  1  0
  4 40  1  0
  4 41  1  0
  5 42  1  6
  6 43  1  0
  6 44  1  0
  7 45  1  1
  8 46  1  0
  9 47  1  0
  9 48  1  0
 10 49  1  1
 11 50  1  0
 13 51  1  0
 14 52  1  0
 15 53  1  0
 16 54  1  0
 19 55  1  0
 19 56  1  0
 20 57  1  0
 20 58  1  0
 21 59  1  6
 22 60  1  0
 22 61  1  0
 24 62  1  0
 25 63  1  0
 26 64  1  0
 27 65  1  0
 27 66  1  0
 28 67  1  0
 29 68  1  0
 29 69  1  0
 29 70  1  0
M  CHG  3   5   1  18  -1  32  -1
M  END

>  <ID>
DiffSBDD_19_num_sample_100

>  <docking_score>
-9.145

$$$$
DiffSBDD_1_num_sample_100
     RDKit          3D

 64 67  0  0  0  0  0  0  0  0999 V2000
   39.7980   28.2080   50.0670 C   0  0  0  0  0  0  0  0  0  0  0  0
   39.6070   29.0210   51.2510 C   0  0  2  0  0  0  0  0  0  0  0  0
   40.2460   30.3710   51.1690 C   0  0  0  0  0  0  0  0  0  0  0  0
   39.8220   30.9580   49.9710 O   0  0  0  0  0  0  0  0  0  0  0  0
   39.3760   28.3400   52.4850 C   0  0  0  0  0  0  0  0  0  0  0  0
   39.7670   27.0600   52.6120 N   0  0  0  0  0  0  0  0  0  0  0  0
   39.3840   26.6200   54.0080 C   0  0  0  0  0  0  0  0  0  0  0  0
   38.3890   27.5890   54.5400 C   0  0  0  0  0  0  0  0  0  0  0  0
   38.7300   28.7700   53.7290 C   0  0  0  0  0  0  0  0  0  0  0  0
   38.5100   30.0970   54.0390 C   0  0  0  0  0  0  0  0  0  0  0  0
   37.9400   30.4890   55.3240 C   0  0  1  0  0  0  0  0  0  0  0  0
   38.8660   30.1530   56.6060 C   0  0  0  0  0  0  0  0  0  0  0  0
   38.6490   31.0450   57.7670 N   0  0  2  0  0  0  0  0  0  0  0  0
   38.4580   30.5780   59.1590 C   0  0  0  0  0  0  0  0  0  0  0  0
   38.4660   31.9060   60.0370 C   0  0  0  0  0  0  0  0  0  0  0  0
   38.7680   33.0010   59.2700 C   0  0  2  0  0  0  0  0  0  0  0  0
   38.2340   34.3290   59.8030 C   0  0  0  0  0  0  0  0  0  0  0  0
   36.9400   34.7790   60.4960 C   0  0  0  0  0  0  0  0  0  0  0  0
   36.0620   34.2520   60.1080 O   0  0  0  0  0  0  0  0  0  0  0  0
   37.2990   36.1390   61.2080 C   0  0  0  0  0  0  0  0  0  0  0  0
   37.5060   36.8140   60.1690 C   0  0  0  0  0  0  0  0  0  0  0  0
   37.6000   38.3440   60.3420 O   0  0  0  0  0  0  0  0  0  0  0  0
   37.7770   38.2420   61.6060 C   0  0  0  0  0  0  0  0  0  0  0  0
   37.5050   37.2750   62.2190 C   0  0  0  0  0  0  0  0  0  0  0  0
   38.3690   32.4660   57.6790 C   0  0  2  0  0  0  0  0  0  0  0  0
   37.5900   33.7790   57.6180 O   0  0  0  0  0  0  0  0  0  0  0  0
   38.6590   32.6170   56.0780 C   0  0  0  0  0  0  0  0  0  0  0  0
   37.5800   31.9640   55.4460 N   0  0  0  0  0  0  0  0  0  0  0  0
   40.0402   27.1772   50.3651 H   0  0  0  0  0  0  0  0  0  0  0  0
   38.8751   28.2094   49.4685 H   0  0  0  0  0  0  0  0  0  0  0  0
   40.6238   28.6202   49.4685 H   0  0  0  0  0  0  0  0  0  0  0  0
   38.5660   29.3759   51.2719 H   0  0  0  0  0  0  0  0  0  0  0  0
   39.9321   30.9890   52.0232 H   0  0  0  0  0  0  0  0  0  0  0  0
   41.3424   30.2861   51.1954 H   0  0  0  0  0  0  0  0  0  0  0  0
   40.1440   31.8930   49.9290 H   0  0  0  0  0  0  0  0  0  0  0  0
   38.3957   28.0040   52.1160 H   0  0  0  0  0  0  0  0  0  0  0  0
   39.2890   26.4730   51.9120 H   0  0  0  0  0  0  0  0  0  0  0  0
   40.7810   26.9680   52.4610 H   0  0  0  0  0  0  0  0  0  0  0  0
   38.9427   25.6130   53.9738 H   0  0  0  0  0  0  0  0  0  0  0  0
   40.2724   26.5908   54.6560 H   0  0  0  0  0  0  0  0  0  0  0  0
   37.3564   27.2545   54.3614 H   0  0  0  0  0  0  0  0  0  0  0  0
   38.4278   27.7452   55.6282 H   0  0  0  0  0  0  0  0  0  0  0  0
   38.7691   30.8733   53.3040 H   0  0  0  0  0  0  0  0  0  0  0  0
   37.0290   29.8726   55.3334 H   0  0  0  0  0  0  0  0  0  0  0  0
   38.6556   29.1204   56.9213 H   0  0  0  0  0  0  0  0  0  0  0  0
   39.9086   30.2998   56.2876 H   0  0  0  0  0  0  0  0  0  0  0  0
   39.5150   30.7390   57.3010 H   0  0  0  0  0  0  0  0  0  0  0  0
   37.4983   30.0505   59.2627 H   0  0  0  0  0  0  0  0  0  0  0  0
   39.2393   29.8691   59.4705 H   0  0  0  0  0  0  0  0  0  0  0  0
   37.4721   32.0454   60.4872 H   0  0  0  0  0  0  0  0  0  0  0  0
   39.2329   31.8041   60.8190 H   0  0  0  0  0  0  0  0  0  0  0  0
   39.8218   33.3160   59.2878 H   0  0  0  0  0  0  0  0  0  0  0  0
   39.0117   34.6341   60.5186 H   0  0  0  0  0  0  0  0  0  0  0  0
   37.9533   34.7216   58.8145 H   0  0  0  0  0  0  0  0  0  0  0  0
   37.6149   36.3372   59.1837 H   0  0  0  0  0  0  0  0  0  0  0  0
   38.8499   38.4153   61.7757 H   0  0  0  0  0  0  0  0  0  0  0  0
   37.0346   38.9581   61.9883 H   0  0  0  0  0  0  0  0  0  0  0  0
   38.3248   37.0225   62.9076 H   0  0  0  0  0  0  0  0  0  0  0  0
   36.5956   37.4349   62.8169 H   0  0  0  0  0  0  0  0  0  0  0  0
   38.2240   34.5380   57.5840 H   0  0  0  0  0  0  0  0  0  0  0  0
   38.6907   33.6781   55.7896 H   0  0  0  0  0  0  0  0  0  0  0  0
   39.6283   32.1827   55.7919 H   0  0  0  0  0  0  0  0  0  0  0  0
   37.4270   32.3670   54.5090 H   0  0  0  0  0  0  0  0  0  0  0  0
   36.7160   32.0820   55.9930 H   0  0  0  0  0  0  0  0  0  0  0  0
  1  2  1  0
  2  3  1  0
  3  4  1  0
  2  5  1  0
  5  6  1  0
  6  7  1  0
  7  8  1  0
  8  9  1  0
  9 10  2  3
 10 11  1  0
 11 12  1  0
 12 13  1  0
 13 14  1  0
 14 15  1  0
 15 16  1  0
 16 17  1  0
 17 18  1  0
 18 19  2  0
 18 20  1  0
 20 21  2  0
 21 22  1  0
 22 23  1  0
 23 24  1  0
 16 25  1  0
 25 26  1  6
 25 27  1  0
 27 28  1  0
  9  5  1  0
 28 11  1  0
 25 13  1  0
 24 20  1  0
  1 29  1  0
  1 30  1  0
  1 31  1  0
  2 32  1  6
  3 33  1  0
  3 34  1  0
  4 35  1  0
  5 36  1  0
  6 37  1  0
  6 38  1  0
  7 39  1  0
  7 40  1  0
  8 41  1  0
  8 42  1  0
 10 43  1  0
 11 44  1  1
 12 45  1  0
 12 46  1  0
 13 47  1  1
 14 48  1  0
 14 49  1  0
 15 50  1  0
 15 51  1  0
 16 52  1  6
 17 53  1  0
 17 54  1  0
 21 55  1  0
 23 56  1  0
 23 57  1  0
 24 58  1  0
 24 59  1  0
 26 60  1  0
 27 61  1  0
 27 62  1  0
 28 63  1  0
 28 64  1  0
M  CHG  3   6   1  13   1  28   1
M  END

>  <ID>
DiffSBDD_1_num_sample_100

>  <docking_score>
-9.768

$$$$
DiffSBDD_20_num_sample_100
     RDKit          3D

 55 55  0  0  0  0  0  0  0  0999 V2000
   40.1440   30.5610   51.1490 C   0  0  0  0  0  0  0  0  0  0  0  0
   39.7920   29.5450   51.8780 C   0  0  0  0  0  0  0  0  0  0  0  0
   39.1420   29.6250   53.1100 N   0  0  0  0  0  0  0  0  0  0  0  0
   38.7400   30.1740   54.2460 C   0  0  2  0  0  0  0  0  0  0  0  0
   39.1310   31.3060   55.1020 C   0  0  0  0  0  0  0  0  0  0  0  0
   38.7250   31.0140   56.5750 C   0  0  1  0  0  0  0  0  0  0  0  0
   37.9280   32.1710   57.1130 N   0  0  0  0  0  0  0  0  0  0  0  0
   37.9800   32.8790   58.3490 C   0  0  0  0  0  0  0  0  0  0  0  0
   38.5770   32.4060   59.3200 O   0  0  0  0  0  0  0  0  0  0  0  0
   37.4220   34.1330   58.5840 N   0  0  0  0  0  0  0  0  0  0  0  0
   37.2440   34.6950   59.9640 C   0  0  0  0  0  0  0  0  0  0  0  0
   36.8200   36.1630   59.8820 C   0  0  0  0  0  0  0  0  0  0  0  0
   37.5310   37.2170   60.6590 C   0  0  0  0  0  0  0  0  0  0  0  0
   36.7250   37.7870   61.8220 C   0  0  0  0  0  0  0  0  0  0  0  0
   36.0950   38.9280   61.6060 O   0  0  0  0  0  0  0  0  0  0  0  0
   36.6610   37.2120   62.8520 O   0  0  0  0  0  0  0  0  0  0  0  0
   38.4250   29.4460   56.6310 C   0  0  2  0  0  0  0  0  0  0  0  0
   37.5280   29.2210   57.8000 C   0  0  0  0  0  0  0  0  0  0  0  0
   39.8670   28.7990   56.7830 C   0  0  0  0  0  0  0  0  0  0  0  0
   40.0810   27.3650   56.3050 C   0  0  0  0  0  0  0  0  0  0  0  0
   37.6100   29.0980   55.0360 S   0  0  0  0  0  0  0  0  0  0  0  0
   40.0810   28.3170   51.3660 C   0  0  2  0  0  0  0  0  0  0  0  0
   39.9540   28.5730   49.9930 C   0  0  0  0  0  0  0  0  0  0  0  0
   39.2840   27.3150   52.0960 C   0  0  0  0  0  0  0  0  0  0  0  0
   37.9540   27.4500   51.8040 O   0  0  0  0  0  0  0  0  0  0  0  0
   40.6540   30.3981   50.1881 H   0  0  0  0  0  0  0  0  0  0  0  0
   39.9320   31.5842   51.4926 H   0  0  0  0  0  0  0  0  0  0  0  0
   38.7170   28.6890   53.1760 H   0  0  0  0  0  0  0  0  0  0  0  0
   39.0015   31.0608   53.6500 H   0  0  0  0  0  0  0  0  0  0  0  0
   40.2202   31.4489   55.0444 H   0  0  0  0  0  0  0  0  0  0  0  0
   38.6202   32.2171   54.7570 H   0  0  0  0  0  0  0  0  0  0  0  0
   39.4240   31.0520   57.4235 H   0  0  0  0  0  0  0  0  0  0  0  0
   37.2070   32.5180   56.4640 H   0  0  0  0  0  0  0  0  0  0  0  0
   37.1180   34.6970   57.7780 H   0  0  0  0  0  0  0  0  0  0  0  0
   36.4691   34.1213   60.4935 H   0  0  0  0  0  0  0  0  0  0  0  0
   38.1978   34.6250   60.5076 H   0  0  0  0  0  0  0  0  0  0  0  0
   36.8972   36.4510   58.8232 H   0  0  0  0  0  0  0  0  0  0  0  0
   35.8246   36.1511   60.3499 H   0  0  0  0  0  0  0  0  0  0  0  0
   38.4579   36.7826   61.0617 H   0  0  0  0  0  0  0  0  0  0  0  0
   37.7172   38.0499   59.9651 H   0  0  0  0  0  0  0  0  0  0  0  0
   38.0963   29.3635   58.7310 H   0  0  0  0  0  0  0  0  0  0  0  0
   36.6944   29.9379   57.7658 H   0  0  0  0  0  0  0  0  0  0  0  0
   37.1314   28.1956   57.7658 H   0  0  0  0  0  0  0  0  0  0  0  0
   40.5680   29.4351   56.2227 H   0  0  0  0  0  0  0  0  0  0  0  0
   40.0218   28.7440   57.8707 H   0  0  0  0  0  0  0  0  0  0  0  0
   40.1803   26.6994   57.1751 H   0  0  0  0  0  0  0  0  0  0  0  0
   39.2201   27.0486   55.6977 H   0  0  0  0  0  0  0  0  0  0  0  0
   40.9967   27.3137   55.6977 H   0  0  0  0  0  0  0  0  0  0  0  0
   41.0663   27.8444   51.4917 H   0  0  0  0  0  0  0  0  0  0  0  0
   39.4696   29.5495   49.8454 H   0  0  0  0  0  0  0  0  0  0  0  0
   40.9510   28.5843   49.5284 H   0  0  0  0  0  0  0  0  0  0  0  0
   39.3418   27.7860   49.5284 H   0  0  0  0  0  0  0  0  0  0  0  0
   39.6171   26.3075   51.8061 H   0  0  0  0  0  0  0  0  0  0  0  0
   39.4266   27.4676   53.1760 H   0  0  0  0  0  0  0  0  0  0  0  0
   37.5600   26.5560   51.6420 H   0  0  0  0  0  0  0  0  0  0  0  0
  1  2  2  0
  2  3  1  0
  3  4  1  0
  4  5  1  0
  5  6  1  0
  6  7  1  0
  7  8  1  0
  8  9  2  0
  8 10  1  0
 10 11  1  0
 11 12  1  0
 12 13  1  0
 13 14  1  0
 14 15  2  0
 14 16  1  0
  6 17  1  0
 17 18  1  1
 17 19  1  0
 19 20  1  0
 17 21  1  0
  2 22  1  0
 22 23  1  0
 22 24  1  0
 24 25  1  0
 21  4  1  0
  1 26  1  0
  1 27  1  0
  3 28  1  0
  4 29  1  6
  5 30  1  0
  5 31  1  0
  6 32  1  1
  7 33  1  0
 10 34  1  0
 11 35  1  0
 11 36  1  0
 12 37  1  0
 12 38  1  0
 13 39  1  0
 13 40  1  0
 18 41  1  0
 18 42  1  0
 18 43  1  0
 19 44  1  0
 19 45  1  0
 20 46  1  0
 20 47  1  0
 20 48  1  0
 22 49  1  6
 23 50  1  0
 23 51  1  0
 23 52  1  0
 24 53  1  0
 24 54  1  0
 25 55  1  0
M  CHG  1  16  -1
M  END

>  <ID>
DiffSBDD_20_num_sample_100

>  <docking_score>
-8.325

$$$$
DiffSBDD_21_num_sample_100
     RDKit          3D

 41 41  0  0  0  0  0  0  0  0999 V2000
   40.2150   30.4840   50.0330 C   0  0  0  0  0  0  0  0  0  0  0  0
   40.3060   29.5920   51.1900 C   0  0  0  0  0  0  0  0  0  0  0  0
   39.8290   30.4500   52.4270 C   0  0  0  0  0  0  0  0  0  0  0  0
   39.4970   28.3990   51.3540 C   0  0  0  0  0  0  0  0  0  0  0  0
   38.4280   28.1640   52.1120 C   0  0  0  0  0  0  0  0  0  0  0  0
   37.8560   27.1500   52.9070 N   0  0  0  0  0  0  0  0  0  0  0  0
   37.7560   27.2250   54.2140 C   0  0  2  0  0  0  0  0  0  0  0  0
   37.5050   28.6820   54.5680 C   0  0  0  0  0  0  0  0  0  0  0  0
   38.1520   26.0680   55.0050 N   0  0  1  0  0  0  0  0  0  0  0  0
   39.5030   26.3390   55.7340 C   0  0  0  0  0  0  0  0  0  0  0  0
   39.3880   25.3180   56.8100 C   0  0  0  0  0  0  0  0  0  0  0  0
   38.1570   24.4660   56.8440 C   0  0  0  0  0  0  0  0  0  0  0  0
   36.7890   25.0170   56.2060 C   0  0  0  0  0  0  0  0  0  0  0  0
   37.5320   25.9440   55.0280 N   0  0  0  0  0  0  0  0  0  0  0  0
   40.1090   31.5230   50.3785 H   0  0  0  0  0  0  0  0  0  0  0  0
   41.1273   30.3908   49.4255 H   0  0  0  0  0  0  0  0  0  0  0  0
   39.3403   30.2085   49.4255 H   0  0  0  0  0  0  0  0  0  0  0  0
   41.3355   29.2231   51.0717 H   0  0  0  0  0  0  0  0  0  0  0  0
   40.1130   29.9392   53.3589 H   0  0  0  0  0  0  0  0  0  0  0  0
   40.3059   31.4406   52.3919 H   0  0  0  0  0  0  0  0  0  0  0  0
   38.7359   30.5678   52.3919 H   0  0  0  0  0  0  0  0  0  0  0  0
   39.1510   28.1738   50.3344 H   0  0  0  0  0  0  0  0  0  0  0  0
   40.2180   27.8309   51.9601 H   0  0  0  0  0  0  0  0  0  0  0  0
   38.4925   28.9910   52.8345 H   0  0  0  0  0  0  0  0  0  0  0  0
   37.8181   27.8843   51.2404 H   0  0  0  0  0  0  0  0  0  0  0  0
   36.8950   27.0280   52.5570 H   0  0  0  0  0  0  0  0  0  0  0  0
   38.5490   26.3960   52.8010 H   0  0  0  0  0  0  0  0  0  0  0  0
   37.0963   26.8397   55.0054 H   0  0  0  0  0  0  0  0  0  0  0  0
   37.4855   28.7954   55.6620 H   0  0  0  0  0  0  0  0  0  0  0  0
   38.3091   29.3049   54.1491 H   0  0  0  0  0  0  0  0  0  0  0  0
   36.5389   28.9999   54.1491 H   0  0  0  0  0  0  0  0  0  0  0  0
   38.6100   25.1470   55.0510 H   0  0  0  0  0  0  0  0  0  0  0  0
   40.3692   26.1560   55.0811 H   0  0  0  0  0  0  0  0  0  0  0  0
   39.6607   27.3730   56.0744 H   0  0  0  0  0  0  0  0  0  0  0  0
   40.2505   24.6423   56.7129 H   0  0  0  0  0  0  0  0  0  0  0  0
   39.3416   25.9038   57.7399 H   0  0  0  0  0  0  0  0  0  0  0  0
   38.4011   23.5318   56.3170 H   0  0  0  0  0  0  0  0  0  0  0  0
   37.9270   24.3913   57.9171 H   0  0  0  0  0  0  0  0  0  0  0  0
   36.1593   24.2178   55.7879 H   0  0  0  0  0  0  0  0  0  0  0  0
   36.0806   25.5219   56.8793 H   0  0  0  0  0  0  0  0  0  0  0  0
   37.0680   26.8630   55.0670 H   0  0  0  0  0  0  0  0  0  0  0  0
  1  2  1  0
  2  3  1  0
  2  4  1  0
  4  5  1  0
  5  6  1  0
  6  7  1  0
  7  8  1  0
  7  9  1  0
  9 10  1  0
 10 11  1  0
 11 12  1  0
 12 13  1  0
 13 14  1  0
 14  9  1  0
  1 15  1  0
  1 16  1  0
  1 17  1  0
  2 18  1  0
  3 19  1  0
  3 20  1  0
  3 21  1  0
  4 22  1  0
  4 23  1  0
  5 24  1  0
  5 25  1  0
  6 26  1  0
  6 27  1  0
  7 28  1  6
  8 29  1  0
  8 30  1  0
  8 31  1  0
  9 32  1  6
 10 33  1  0
 10 34  1  0
 11 35  1  0
 11 36  1  0
 12 37  1  0
 12 38  1  0
 13 39  1  0
 13 40  1  0
 14 41  1  0
M  CHG  2   6   1   9   1
M  END

>  <ID>
DiffSBDD_21_num_sample_100

>  <docking_score>
-7.223

$$$$
DiffSBDD_22_num_sample_100
     RDKit          3D

 91 95  0  0  0  0  0  0  0  0999 V2000
   41.5560   25.6140   67.1910 C   0  0  0  0  0  0  0  0  0  0  0  0
   43.0770   25.7080   66.9660 C   0  0  0  0  0  0  0  0  0  0  0  0
   43.9580   26.8180   67.6810 C   0  0  1  0  0  0  0  0  0  0  0  0
   44.9920   25.9230   68.4410 C   0  0  0  0  0  0  0  0  0  0  0  0
   44.6490   25.1540   69.3600 O   0  0  0  0  0  0  0  0  0  0  0  0
   46.3710   25.9420   67.8840 O   0  0  0  0  0  0  0  0  0  0  0  0
   44.8830   28.0050   67.3380 N   0  0  2  0  0  0  0  0  0  0  0  0
   44.8070   28.9720   68.3910 C   0  0  0  0  0  0  0  0  0  0  0  0
   43.8580   29.8480   67.8780 C   0  0  0  0  0  0  0  0  0  0  0  0
   43.0100   28.9790   66.9300 C   0  0  1  0  0  0  0  0  0  0  0  0
   42.3530   30.0910   66.2830 N   0  0  0  0  0  0  0  0  0  0  0  0
   42.3440   30.6150   64.9550 C   0  0  1  0  0  0  0  0  0  0  0  0
   41.1540   29.7990   64.2830 C   0  0  2  0  0  0  0  0  0  0  0  0
   40.9210   28.4740   64.6930 O   0  0  0  0  0  0  0  0  0  0  0  0
   41.5350   29.6320   62.8600 C   0  0  0  0  0  0  0  0  0  0  0  0
   40.4610   29.0700   62.1420 O   0  0  0  0  0  0  0  0  0  0  0  0
   39.7100   29.8570   61.0400 S   0  0  0  0  0  0  0  0  0  0  0  0
   38.9500   29.0160   60.2730 O   0  0  0  0  0  0  0  0  0  0  0  0
   40.8900   30.7370   60.2930 O   0  0  0  0  0  0  0  0  0  0  0  0
   38.6020   30.8420   61.7290 C   0  0  0  0  0  0  0  0  0  0  0  0
   37.7070   31.5150   60.7270 C   0  0  0  0  0  0  0  0  0  0  0  0
   36.3520   30.7080   60.4330 C   0  0  0  0  0  0  0  0  0  0  0  0
   38.4490   31.7420   59.4600 C   0  0  0  0  0  0  0  0  0  0  0  0
   37.1680   32.8210   61.2880 C   0  0  0  0  0  0  0  0  0  0  0  0
   38.1300   33.9240   61.0150 O   0  0  0  0  0  0  0  0  0  0  0  0
   39.1440   34.3190   62.0040 C   0  0  0  0  0  0  0  0  0  0  0  0
   39.8820   33.2590   62.6880 C   0  0  0  0  0  0  0  0  0  0  0  0
   40.8160   33.6160   63.6080 C   0  0  0  0  0  0  0  0  0  0  0  0
   41.1370   34.9710   63.7460 C   0  0  0  0  0  0  0  0  0  0  0  0
   40.4490   35.9970   63.0620 C   0  0  0  0  0  0  0  0  0  0  0  0
   39.4290   35.6860   62.2310 C   0  0  0  0  0  0  0  0  0  0  0  0
   38.5140   36.6100   61.5270 C   0  0  0  0  0  0  0  0  0  0  0  0
   38.7730   37.1630   60.4660 O   0  0  0  0  0  0  0  0  0  0  0  0
   37.4300   37.1240   62.1760 N   0  0  0  0  0  0  0  0  0  0  0  0
   36.8860   38.3310   61.5730 C   0  0  0  0  0  0  0  0  0  0  0  0
   35.6270   38.7730   62.2370 C   0  0  0  0  0  0  0  0  0  0  0  0
   35.1460   38.0000   63.3870 O   0  0  0  0  0  0  0  0  0  0  0  0
   36.1250   37.3440   64.1740 C   0  0  0  0  0  0  0  0  0  0  0  0
   36.8290   36.3300   63.3070 C   0  0  0  0  0  0  0  0  0  0  0  0
   40.8570   32.6850   64.7220 N   0  0  0  0  0  0  0  0  0  0  0  0
   42.1460   32.1560   65.0440 C   0  0  2  0  0  0  0  0  0  0  0  0
   43.3820   33.0590   65.2190 C   0  0  0  0  0  0  0  0  0  0  0  0
   42.6270   32.7160   66.2960 O   0  0  0  0  0  0  0  0  0  0  0  0
   44.2880   28.5880   66.2020 C   0  0  0  0  0  0  0  0  0  0  0  0
   41.3452   25.6010   68.2705 H   0  0  0  0  0  0  0  0  0  0  0  0
   41.0630   26.4834   66.7316 H   0  0  0  0  0  0  0  0  0  0  0  0
   41.1738   24.6905   66.7316 H   0  0  0  0  0  0  0  0  0  0  0  0
   43.4955   24.7373   67.2702 H   0  0  0  0  0  0  0  0  0  0  0  0
   43.1399   26.0038   65.9084 H   0  0  0  0  0  0  0  0  0  0  0  0
   43.0822   27.4418   67.9131 H   0  0  0  0  0  0  0  0  0  0  0  0
   45.8610   27.7140   67.2010 H   0  0  0  0  0  0  0  0  0  0  0  0
   44.4690   28.5170   69.3338 H   0  0  0  0  0  0  0  0  0  0  0  0
   45.7683   29.4425   68.6450 H   0  0  0  0  0  0  0  0  0  0  0  0
   43.2368   30.2652   68.6843 H   0  0  0  0  0  0  0  0  0  0  0  0
   44.3138   30.7076   67.3648 H   0  0  0  0  0  0  0  0  0  0  0  0
   42.3052   28.1676   67.1642 H   0  0  0  0  0  0  0  0  0  0  0  0
   42.6590   30.8980   66.8460 H   0  0  0  0  0  0  0  0  0  0  0  0
   41.4390   29.6240   66.2040 H   0  0  0  0  0  0  0  0  0  0  0  0
   43.2608   30.4983   64.3584 H   0  0  0  0  0  0  0  0  0  0  0  0
   40.2569   30.3787   64.5462 H   0  0  0  0  0  0  0  0  0  0  0  0
   40.0290   28.1830   64.3770 H   0  0  0  0  0  0  0  0  0  0  0  0
   41.7871   30.6133   62.4317 H   0  0  0  0  0  0  0  0  0  0  0  0
   42.4063   28.9639   62.7929 H   0  0  0  0  0  0  0  0  0  0  0  0
   38.1010   29.4650   60.0330 H   0  0  0  0  0  0  0  0  0  0  0  0
   41.1630   30.2810   59.4580 H   0  0  0  0  0  0  0  0  0  0  0  0
   37.9780   30.2446   62.4100 H   0  0  0  0  0  0  0  0  0  0  0  0
   39.1518   31.6326   62.2607 H   0  0  0  0  0  0  0  0  0  0  0  0
   35.8790   30.4263   61.3853 H   0  0  0  0  0  0  0  0  0  0  0  0
   35.6644   31.3438   59.8560 H   0  0  0  0  0  0  0  0  0  0  0  0
   36.5835   29.8005   59.8560 H   0  0  0  0  0  0  0  0  0  0  0  0
   39.4778   32.0568   59.6890 H   0  0  0  0  0  0  0  0  0  0  0  0
   38.4720   30.8098   58.8765 H   0  0  0  0  0  0  0  0  0  0  0  0
   37.9465   32.5275   58.8765 H   0  0  0  0  0  0  0  0  0  0  0  0
   36.2034   33.0520   60.8123 H   0  0  0  0  0  0  0  0  0  0  0  0
   37.0313   32.7198   62.3748 H   0  0  0  0  0  0  0  0  0  0  0  0
   39.6864   32.2000   62.4639 H   0  0  0  0  0  0  0  0  0  0  0  0
   41.9625   35.2494   64.4176 H   0  0  0  0  0  0  0  0  0  0  0  0
   40.7424   37.0474   63.2051 H   0  0  0  0  0  0  0  0  0  0  0  0
   37.6316   39.1355   61.6557 H   0  0  0  0  0  0  0  0  0  0  0  0
   36.6532   38.1081   60.5213 H   0  0  0  0  0  0  0  0  0  0  0  0
   35.7837   39.8063   62.5801 H   0  0  0  0  0  0  0  0  0  0  0  0
   34.8500   38.6365   61.4704 H   0  0  0  0  0  0  0  0  0  0  0  0
   36.8515   38.0784   64.5520 H   0  0  0  0  0  0  0  0  0  0  0  0
   35.6496   36.8446   65.0310 H   0  0  0  0  0  0  0  0  0  0  0  0
   37.6162   35.8153   63.8775 H   0  0  0  0  0  0  0  0  0  0  0  0
   36.1408   35.5531   62.9427 H   0  0  0  0  0  0  0  0  0  0  0  0
   40.0110   32.4240   65.2480 H   0  0  0  0  0  0  0  0  0  0  0  0
   44.3918   32.6397   65.0984 H   0  0  0  0  0  0  0  0  0  0  0  0
   43.7236   34.0065   64.7769 H   0  0  0  0  0  0  0  0  0  0  0  0
   44.1180   27.8694   65.3867 H   0  0  0  0  0  0  0  0  0  0  0  0
   44.8443   29.3760   65.6733 H   0  0  0  0  0  0  0  0  0  0  0  0
  1  2  1  0
  2  3  1  0
  3  4  1  0
  4  5  2  0
  4  6  1  0
  3  7  1  0
  7  8  1  0
  8  9  1  0
  9 10  1  0
 10 11  1  0
 11 12  1  0
 12 13  1  0
 13 14  1  0
 13 15  1  0
 15 16  1  0
 16 17  1  0
 17 18  1  0
 17 19  1  0
 17 20  1  0
 20 21  1  0
 21 22  1  0
 21 23  1  0
 21 24  1  0
 24 25  1  0
 25 26  1  0
 26 27  2  0
 27 28  1  0
 28 29  2  0
 29 30  1  0
 30 31  2  0
 31 32  1  0
 32 33  2  0
 32 34  1  0
 34 35  1  0
 35 36  1  0
 36 37  1  0
 37 38  1  0
 38 39  1  0
 28 40  1  0
 40 41  1  0
 41 42  1  0
 42 43  1  0
 10 44  1  0
 44  7  1  0
 41 12  1  0
 31 26  1  0
 39 34  1  0
 41 43  1  1
  1 45  1  0
  1 46  1  0
  1 47  1  0
  2 48  1  0
  2 49  1  0
  3 50  1  1
  7 51  1  6
  8 52  1  0
  8 53  1  0
  9 54  1  0
  9 55  1  0
 10 56  1  1
 11 57  1  0
 11 58  1  0
 12 59  1  6
 13 60  1  6
 14 61  1  0
 15 62  1  0
 15 63  1  0
 18 64  1  0
 19 65  1  0
 20 66  1  0
 20 67  1  0
 22 68  1  0
 22 69  1  0
 22 70  1  0
 23 71  1  0
 23 72  1  0
 23 73  1  0
 24 74  1  0
 24 75  1  0
 27 76  1  0
 29 77  1  0
 30 78  1  0
 35 79  1  0
 35 80  1  0
 36 81  1  0
 36 82  1  0
 38 83  1  0
 38 84  1  0
 39 85  1  0
 39 86  1  0
 40 87  1  0
 42 88  1  0
 42 89  1  0
 44 90  1  0
 44 91  1  0
M  CHG  3   6  -1   7   1  11   1
M  END

>  <ID>
DiffSBDD_22_num_sample_100

>  <docking_score>
-7.959

$$$$
DiffSBDD_23_num_sample_100
     RDKit          3D

 83 87  0  0  0  0  0  0  0  0999 V2000
   40.1500   37.6170   62.2840 C   0  0  0  0  0  0  0  0  0  0  0  0
   41.0700   36.7390   62.9020 O   0  0  0  0  0  0  0  0  0  0  0  0
   41.0650   35.3980   63.2960 C   0  0  0  0  0  0  0  0  0  0  0  0
   41.6960   34.9220   64.4730 C   0  0  0  0  0  0  0  0  0  0  0  0
   41.7490   33.5120   64.7160 C   0  0  0  0  0  0  0  0  0  0  0  0
   41.2090   32.6370   63.8340 C   0  0  0  0  0  0  0  0  0  0  0  0
   40.5460   33.1050   62.7100 C   0  0  0  0  0  0  0  0  0  0  0  0
   40.0080   32.2610   61.5850 N   0  0  0  0  0  0  0  0  0  0  0  0
   40.5900   31.1360   61.2310 C   0  0  0  0  0  0  0  0  0  0  0  0
   40.5510   29.7120   61.4940 C   0  0  2  0  0  0  0  0  0  0  0  0
   40.9300   29.0630   62.8140 C   0  0  0  0  0  0  0  0  0  0  0  0
   40.4030   28.7480   60.2710 C   0  0  0  0  0  0  0  0  0  0  0  0
   39.5230   28.8180   59.0970 N   0  0  0  0  0  0  0  0  0  0  0  0
   38.3580   29.7280   58.9830 C   0  0  0  0  0  0  0  0  0  0  0  0
   38.4330   30.6090   57.8150 C   0  0  0  0  0  0  0  0  0  0  0  0
   38.7120   29.8810   56.4190 C   0  0  0  0  0  0  0  0  0  0  0  0
   39.5880   28.5250   56.6590 C   0  0  2  0  0  0  0  0  0  0  0  0
   39.2580   27.8770   55.3000 C   0  0  0  0  0  0  0  0  0  0  0  0
   38.9130   27.8380   53.7480 C   0  0  2  0  0  0  0  0  0  0  0  0
   37.2340   27.3560   53.7430 C   0  0  0  0  0  0  0  0  0  0  0  0
   39.6000   26.7940   52.8450 C   0  0  0  0  0  0  0  0  0  0  0  0
   40.0720   27.3940   51.5650 C   0  0  0  0  0  0  0  0  0  0  0  0
   38.9130   28.6080   51.4410 C   0  0  0  0  0  0  0  0  0  0  0  0
   39.0400   29.3230   52.9480 C   0  0  2  0  0  0  0  0  0  0  0  0
   39.4700   29.9870   54.0800 C   0  0  0  0  0  0  0  0  0  0  0  0
   38.3490   30.2700   55.1230 N   0  0  2  0  0  0  0  0  0  0  0  0
   37.9300   31.7680   55.0510 C   0  0  0  0  0  0  0  0  0  0  0  0
   40.0760   28.0930   57.9270 C   0  0  0  0  0  0  0  0  0  0  0  0
   41.0060   27.2880   58.0850 O   0  0  0  0  0  0  0  0  0  0  0  0
   38.9770   32.8280   60.7470 C   0  0  0  0  0  0  0  0  0  0  0  0
   39.1490   33.2390   59.7080 O   0  0  0  0  0  0  0  0  0  0  0  0
   37.5110   32.7330   61.0690 C   0  0  0  0  0  0  0  0  0  0  0  0
   36.7560   31.5610   61.2080 N   0  0  0  0  0  0  0  0  0  0  0  0
   35.3010   31.9530   61.2310 C   0  0  0  0  0  0  0  0  0  0  0  0
   35.2600   33.3090   61.1010 C   0  0  0  0  0  0  0  0  0  0  0  0
   36.6220   33.7310   61.0700 C   0  0  0  0  0  0  0  0  0  0  0  0
   36.9700   35.2360   61.2050 C   0  0  0  0  0  0  0  0  0  0  0  0
   40.5090   34.4900   62.4200 C   0  0  0  0  0  0  0  0  0  0  0  0
   39.5835   38.1576   63.0565 H   0  0  0  0  0  0  0  0  0  0  0  0
   40.6955   38.3380   61.6573 H   0  0  0  0  0  0  0  0  0  0  0  0
   39.4553   37.0385   61.6573 H   0  0  0  0  0  0  0  0  0  0  0  0
   42.1396   35.6276   65.1909 H   0  0  0  0  0  0  0  0  0  0  0  0
   42.2335   33.1351   65.6288 H   0  0  0  0  0  0  0  0  0  0  0  0
   41.2966   31.5547   64.0097 H   0  0  0  0  0  0  0  0  0  0  0  0
   40.4368   31.1533   60.1419 H   0  0  0  0  0  0  0  0  0  0  0  0
   41.4056   31.2859   61.9537 H   0  0  0  0  0  0  0  0  0  0  0  0
   39.6147   30.0236   61.9800 H   0  0  0  0  0  0  0  0  0  0  0  0
   40.5670   29.6846   63.6458 H   0  0  0  0  0  0  0  0  0  0  0  0
   40.4732   28.0643   62.8761 H   0  0  0  0  0  0  0  0  0  0  0  0
   42.0243   28.9701   62.8761 H   0  0  0  0  0  0  0  0  0  0  0  0
   41.4149   28.7078   59.8415 H   0  0  0  0  0  0  0  0  0  0  0  0
   39.8691   27.9417   60.7952 H   0  0  0  0  0  0  0  0  0  0  0  0
   37.4445   29.1202   58.9057 H   0  0  0  0  0  0  0  0  0  0  0  0
   38.3507   30.3675   59.8780 H   0  0  0  0  0  0  0  0  0  0  0  0
   37.4755   31.1442   57.7324 H   0  0  0  0  0  0  0  0  0  0  0  0
   39.2964   31.2679   57.9893 H   0  0  0  0  0  0  0  0  0  0  0  0
   39.6401   30.4599   56.3026 H   0  0  0  0  0  0  0  0  0  0  0  0
   40.5983   28.2594   57.0036 H   0  0  0  0  0  0  0  0  0  0  0  0
   40.1385   27.2193   55.2532 H   0  0  0  0  0  0  0  0  0  0  0  0
   38.2061   28.1434   55.4803 H   0  0  0  0  0  0  0  0  0  0  0  0
   36.8787   27.2540   54.7790 H   0  0  0  0  0  0  0  0  0  0  0  0
   36.6352   28.1185   53.2234 H   0  0  0  0  0  0  0  0  0  0  0  0
   37.1308   26.3920   53.2234 H   0  0  0  0  0  0  0  0  0  0  0  0
   40.4636   26.3732   53.3807 H   0  0  0  0  0  0  0  0  0  0  0  0
   38.8641   26.0123   52.6052 H   0  0  0  0  0  0  0  0  0  0  0  0
   41.0923   27.7974   51.6442 H   0  0  0  0  0  0  0  0  0  0  0  0
   40.1498   26.7087   50.7081 H   0  0  0  0  0  0  0  0  0  0  0  0
   39.1548   29.3170   50.6355 H   0  0  0  0  0  0  0  0  0  0  0  0
   37.9035   28.2484   51.1926 H   0  0  0  0  0  0  0  0  0  0  0  0
   38.8497   30.3016   52.4830 H   0  0  0  0  0  0  0  0  0  0  0  0
   40.2447   29.3748   54.5648 H   0  0  0  0  0  0  0  0  0  0  0  0
   39.8443   30.9663   53.7471 H   0  0  0  0  0  0  0  0  0  0  0  0
   37.5320   29.6910   54.8830 H   0  0  0  0  0  0  0  0  0  0  0  0
   37.8184   32.1669   56.0700 H   0  0  0  0  0  0  0  0  0  0  0  0
   38.7027   32.3396   54.5161 H   0  0  0  0  0  0  0  0  0  0  0  0
   36.9728   31.8557   54.5161 H   0  0  0  0  0  0  0  0  0  0  0  0
   34.7663   31.4756   60.3967 H   0  0  0  0  0  0  0  0  0  0  0  0
   34.8182   31.6297   62.1650 H   0  0  0  0  0  0  0  0  0  0  0  0
   34.3646   33.9445   61.0341 H   0  0  0  0  0  0  0  0  0  0  0  0
   37.0319   35.5039   62.2701 H   0  0  0  0  0  0  0  0  0  0  0  0
   37.9375   35.4335   60.7203 H   0  0  0  0  0  0  0  0  0  0  0  0
   36.1874   35.8382   60.7203 H   0  0  0  0  0  0  0  0  0  0  0  0
   40.0349   34.8432   61.4924 H   0  0  0  0  0  0  0  0  0  0  0  0
  1  2  1  0
  2  3  1  0
  3  4  2  0
  4  5  1  0
  5  6  2  0
  6  7  1  0
  7  8  1  0
  8  9  1  0
  9 10  1  0
 10 11  1  0
 10 12  1  0
 12 13  1  0
 13 14  1  0
 14 15  1  0
 15 16  1  0
 16 17  1  0
 17 18  1  0
 18 19  1  0
 19 20  1  1
 19 21  1  0
 21 22  1  0
 22 23  1  0
 23 24  1  0
 24 25  1  0
 25 26  1  0
 26 27  1  0
 17 28  1  0
 28 29  2  0
  8 30  1  0
 30 31  2  0
 30 32  1  0
 32 33  2  0
 33 34  1  0
 34 35  1  0
 35 36  2  0
 36 37  1  0
  7 38  2  0
 38  3  1  0
 28 13  1  0
 36 32  1  0
 26 16  1  0
 24 19  1  0
  1 39  1  0
  1 40  1  0
  1 41  1  0
  4 42  1  0
  5 43  1  0
  6 44  1  0
  9 45  1  0
  9 46  1  0
 10 47  1  1
 11 48  1  0
 11 49  1  0
 11 50  1  0
 12 51  1  0
 12 52  1  0
 14 53  1  0
 14 54  1  0
 15 55  1  0
 15 56  1  0
 16 57  1  0
 17 58  1  6
 18 59  1  0
 18 60  1  0
 20 61  1  0
 20 62  1  0
 20 63  1  0
 21 64  1  0
 21 65  1  0
 22 66  1  0
 22 67  1  0
 23 68  1  0
 23 69  1  0
 24 70  1  1
 25 71  1  0
 25 72  1  0
 26 73  1  6
 27 74  1  0
 27 75  1  0
 27 76  1  0
 34 77  1  0
 34 78  1  0
 35 79  1  0
 37 80  1  0
 37 81  1  0
 37 82  1  0
 38 83  1  0
M  CHG  1  26   1
M  END

>  <ID>
DiffSBDD_23_num_sample_100

>  <docking_score>
-11.044

$$$$
DiffSBDD_24_num_sample_100
     RDKit          3D

 63 65  0  0  0  0  0  0  0  0999 V2000
   39.0680   26.5640   58.5050 C   0  0  0  0  0  0  0  0  0  0  0  0
   39.9070   27.5920   57.9570 C   0  0  0  0  0  0  0  0  0  0  0  0
   41.1230   27.9320   58.4090 C   0  0  0  0  0  0  0  0  0  0  0  0
   39.0320   28.7710   57.1650 C   0  0  0  0  0  0  0  0  0  0  0  0
   38.8280   29.9060   57.9910 C   0  0  0  0  0  0  0  0  0  0  0  0
   38.6080   31.1840   57.3700 C   0  0  0  0  0  0  0  0  0  0  0  0
   38.5680   32.3870   58.3590 C   0  0  0  0  0  0  0  0  0  0  0  0
   38.2180   32.7670   59.4320 N   0  0  0  0  0  0  0  0  0  0  0  0
   37.3790   34.0280   59.2300 C   0  0  0  0  0  0  0  0  0  0  0  0
   37.4750   34.6090   60.4660 C   0  0  0  0  0  0  0  0  0  0  0  0
   38.3660   35.6130   60.9970 N   0  0  0  0  0  0  0  0  0  0  0  0
   37.6190   36.8730   61.2320 C   0  0  0  0  0  0  0  0  0  0  0  0
   38.5670   37.9580   61.5490 C   0  0  0  0  0  0  0  0  0  0  0  0
   39.7530   37.5640   62.2170 N   0  0  0  0  0  0  0  0  0  0  0  0
   40.3490   36.5230   61.9820 C   0  0  1  0  0  0  0  0  0  0  0  0
   41.2710   35.7100   62.9210 C   0  0  0  0  0  0  0  0  0  0  0  0
   42.0490   36.3160   63.8360 O   0  0  0  0  0  0  0  0  0  0  0  0
   39.6100   35.4910   61.2220 C   0  0  0  0  0  0  0  0  0  0  0  0
   40.3190   34.4280   60.8050 O   0  0  0  0  0  0  0  0  0  0  0  0
   38.4350   31.4150   56.1540 C   0  0  0  0  0  0  0  0  0  0  0  0
   38.8370   30.1550   55.1610 C   0  0  0  0  0  0  0  0  0  0  0  0
   38.8810   30.2880   53.6990 C   0  0  0  0  0  0  0  0  0  0  0  0
   39.1480   29.1190   52.9310 C   0  0  0  0  0  0  0  0  0  0  0  0
   39.2900   29.1900   51.5880 N   0  0  0  0  0  0  0  0  0  0  0  0
   40.2300   30.2940   51.1910 C   0  0  0  0  0  0  0  0  0  0  0  0
   39.5280   27.8740   51.0620 C   0  0  0  0  0  0  0  0  0  0  0  0
   39.3810   27.8780   53.5990 C   0  0  0  0  0  0  0  0  0  0  0  0
   39.4080   27.7570   54.9520 C   0  0  0  0  0  0  0  0  0  0  0  0
   39.1450   28.8480   55.7520 C   0  0  0  0  0  0  0  0  0  0  0  0
   38.0829   26.3622   58.0591 H   0  0  0  0  0  0  0  0  0  0  0  0
   39.4102   25.9782   59.3708 H   0  0  0  0  0  0  0  0  0  0  0  0
   41.1188   27.9308   59.5090 H   0  0  0  0  0  0  0  0  0  0  0  0
   41.8656   27.2070   58.0444 H   0  0  0  0  0  0  0  0  0  0  0  0
   41.3819   28.9370   58.0444 H   0  0  0  0  0  0  0  0  0  0  0  0
   38.8379   29.8102   59.0868 H   0  0  0  0  0  0  0  0  0  0  0  0
   39.6425   32.6144   58.4210 H   0  0  0  0  0  0  0  0  0  0  0  0
   37.6135   32.7190   57.9245 H   0  0  0  0  0  0  0  0  0  0  0  0
   37.6540   32.0400   59.8930 H   0  0  0  0  0  0  0  0  0  0  0  0
   39.0350   32.9680   60.0260 H   0  0  0  0  0  0  0  0  0  0  0  0
   37.8028   34.6735   58.4466 H   0  0  0  0  0  0  0  0  0  0  0  0
   36.3476   33.8371   58.8986 H   0  0  0  0  0  0  0  0  0  0  0  0
   36.4758   35.0402   60.6264 H   0  0  0  0  0  0  0  0  0  0  0  0
   37.9427   33.7503   60.9698 H   0  0  0  0  0  0  0  0  0  0  0  0
   37.0507   37.1359   60.3276 H   0  0  0  0  0  0  0  0  0  0  0  0
   36.9259   36.7352   62.0750 H   0  0  0  0  0  0  0  0  0  0  0  0
   38.8563   38.4406   60.6038 H   0  0  0  0  0  0  0  0  0  0  0  0
   38.0376   38.6234   62.2468 H   0  0  0  0  0  0  0  0  0  0  0  0
   40.4330   38.3200   62.0520 H   0  0  0  0  0  0  0  0  0  0  0  0
   39.3970   37.3800   63.1660 H   0  0  0  0  0  0  0  0  0  0  0  0
   41.0538   37.1926   61.4673 H   0  0  0  0  0  0  0  0  0  0  0  0
   40.6187   35.0196   63.4759 H   0  0  0  0  0  0  0  0  0  0  0  0
   42.0093   35.2888   62.2228 H   0  0  0  0  0  0  0  0  0  0  0  0
   43.0010   36.1940   63.5930 H   0  0  0  0  0  0  0  0  0  0  0  0
   38.0488   32.3734   55.7768 H   0  0  0  0  0  0  0  0  0  0  0  0
   38.7130   31.2602   53.2125 H   0  0  0  0  0  0  0  0  0  0  0  0
   40.6368   30.7718   52.0944 H   0  0  0  0  0  0  0  0  0  0  0  0
   41.0543   29.8767   50.5940 H   0  0  0  0  0  0  0  0  0  0  0  0
   39.6867   31.0413   50.5940 H   0  0  0  0  0  0  0  0  0  0  0  0
   39.6563   27.1647   51.8929 H   0  0  0  0  0  0  0  0  0  0  0  0
   38.6711   27.5652   50.4452 H   0  0  0  0  0  0  0  0  0  0  0  0
   40.4388   27.8848   50.4452 H   0  0  0  0  0  0  0  0  0  0  0  0
   39.5464   26.9777   52.9891 H   0  0  0  0  0  0  0  0  0  0  0  0
   39.6406   26.7846   55.4106 H   0  0  0  0  0  0  0  0  0  0  0  0
  1  2  2  0
  2  3  1  0
  2  4  1  0
  4  5  2  0
  5  6  1  0
  6  7  1  0
  7  8  1  0
  8  9  1  0
  9 10  1  0
 10 11  1  0
 11 12  1  0
 12 13  1  0
 13 14  1  0
 14 15  1  0
 15 16  1  0
 16 17  1  0
 15 18  1  0
 18 19  2  0
  6 20  2  0
 20 21  1  0
 21 22  2  0
 22 23  1  0
 23 24  1  0
 24 25  1  0
 24 26  1  0
 23 27  2  0
 27 28  1  0
 28 29  2  0
 29  4  1  0
 18 11  1  0
 29 21  1  0
  1 30  1  0
  1 31  1  0
  3 32  1  0
  3 33  1  0
  3 34  1  0
  5 35  1  0
  7 36  1  0
  7 37  1  0
  8 38  1  0
  8 39  1  0
  9 40  1  0
  9 41  1  0
 10 42  1  0
 10 43  1  0
 12 44  1  0
 12 45  1  0
 13 46  1  0
 13 47  1  0
 14 48  1  0
 14 49  1  0
 15 50  1  6
 16 51  1  0
 16 52  1  0
 17 53  1  0
 20 54  1  0
 22 55  1  0
 25 56  1  0
 25 57  1  0
 25 58  1  0
 26 59  1  0
 26 60  1  0
 26 61  1  0
 27 62  1  0
 28 63  1  0
M  CHG  2   8   1  14   1
M  END

>  <ID>
DiffSBDD_24_num_sample_100

>  <docking_score>
-9.184

$$$$
DiffSBDD_25_num_sample_100
     RDKit          3D

 57 59  0  0  0  0  0  0  0  0999 V2000
   40.6630   35.5570   61.0520 C   0  0  0  0  0  0  0  0  0  0  0  0
   39.8320   34.8200   60.9550 C   0  0  0  0  0  0  0  0  0  0  0  0
   38.9170   34.6500   60.8240 C   0  0  2  0  0  0  0  0  0  0  0  0
   38.8460   35.9450   61.8610 C   0  0  0  0  0  0  0  0  0  0  0  0
   37.4100   36.6440   61.6870 C   0  0  0  0  0  0  0  0  0  0  0  0
   36.8240   36.8830   60.4600 C   0  0  0  0  0  0  0  0  0  0  0  0
   37.5710   37.9850   60.2980 O   0  0  0  0  0  0  0  0  0  0  0  0
   36.4540   36.8670   59.1930 O   0  0  0  0  0  0  0  0  0  0  0  0
   39.4170   33.0740   61.2980 C   0  0  2  0  0  0  0  0  0  0  0  0
   38.8880   33.6550   62.5320 O   0  0  0  0  0  0  0  0  0  0  0  0
   40.3840   31.9640   61.9450 C   0  0  0  0  0  0  0  0  0  0  0  0
   39.9640   30.4000   61.9830 C   0  0  2  0  0  0  0  0  0  0  0  0
   41.1880   29.7520   62.3790 O   0  0  0  0  0  0  0  0  0  0  0  0
   39.4090   29.5570   60.7760 C   0  0  0  0  0  0  0  0  0  0  0  0
   39.3770   28.1100   60.1730 C   0  0  0  0  0  0  0  0  0  0  0  0
   38.8640   27.6390   58.5280 C   0  0  0  0  0  0  0  0  0  0  0  0
   38.4250   28.7080   57.8540 C   0  0  0  0  0  0  0  0  0  0  0  0
   38.2580   29.4730   58.7820 C   0  0  0  0  0  0  0  0  0  0  0  0
   36.9190   30.1340   58.7190 O   0  0  0  0  0  0  0  0  0  0  0  0
   39.0130   30.5150   59.4440 C   0  0  0  0  0  0  0  0  0  0  0  0
   39.0940   31.8670   59.6410 O   0  0  0  0  0  0  0  0  0  0  0  0
   39.7540   32.9000   59.6030 O   0  0  0  0  0  0  0  0  0  0  0  0
   38.0790   28.5880   56.4810 C   0  0  0  0  0  0  0  0  0  0  0  0
   38.2960   27.3840   55.6200 C   0  0  0  0  0  0  0  0  0  0  0  0
   38.0540   27.6560   54.0960 C   0  0  0  0  0  0  0  0  0  0  0  0
   38.9790   27.4180   53.1290 C   0  0  0  0  0  0  0  0  0  0  0  0
   39.8060   26.7630   53.5500 F   0  0  0  0  0  0  0  0  0  0  0  0
   38.6170   28.1090   51.7660 C   0  0  2  0  0  0  0  0  0  0  0  0
   38.6910   27.3910   50.6810 N   0  0  0  0  0  0  0  0  0  0  0  0
   39.4330   29.1610   51.9600 C   0  0  0  0  0  0  0  0  0  0  0  0
   39.9190   30.2380   51.9980 N   0  0  0  0  0  0  0  0  0  0  0  0
   38.9790   26.5240   56.6110 C   0  0  0  0  0  0  0  0  0  0  0  0
   38.9820   26.1900   57.7840 C   0  0  0  0  0  0  0  0  0  0  0  0
   41.6921   35.2066   61.2198 H   0  0  0  0  0  0  0  0  0  0  0  0
   40.4537   36.6345   60.9799 H   0  0  0  0  0  0  0  0  0  0  0  0
   40.3020   33.8313   61.0629 H   0  0  0  0  0  0  0  0  0  0  0  0
   38.0796   34.6195   60.1114 H   0  0  0  0  0  0  0  0  0  0  0  0
   38.9696   35.5997   62.8981 H   0  0  0  0  0  0  0  0  0  0  0  0
   39.6491   36.6611   61.6327 H   0  0  0  0  0  0  0  0  0  0  0  0
   36.6994   36.0141   62.2422 H   0  0  0  0  0  0  0  0  0  0  0  0
   37.6266   37.6680   62.0252 H   0  0  0  0  0  0  0  0  0  0  0  0
   39.6340   34.0130   63.0750 H   0  0  0  0  0  0  0  0  0  0  0  0
   41.3333   32.0179   61.3919 H   0  0  0  0  0  0  0  0  0  0  0  0
   40.3811   32.2374   63.0105 H   0  0  0  0  0  0  0  0  0  0  0  0
   39.0554   30.4242   62.6026 H   0  0  0  0  0  0  0  0  0  0  0  0
   41.7860   30.4120   62.8130 H   0  0  0  0  0  0  0  0  0  0  0  0
   39.7065   27.2959   60.8353 H   0  0  0  0  0  0  0  0  0  0  0  0
   36.5190   30.3590   57.8420 H   0  0  0  0  0  0  0  0  0  0  0  0
   37.6077   29.4617   56.0071 H   0  0  0  0  0  0  0  0  0  0  0  0
   37.0788   28.0633   53.7910 H   0  0  0  0  0  0  0  0  0  0  0  0
   37.5658   28.3549   51.5549 H   0  0  0  0  0  0  0  0  0  0  0  0
   38.8460   28.0080   49.8710 H   0  0  0  0  0  0  0  0  0  0  0  0
   39.4740   26.7280   50.7610 H   0  0  0  0  0  0  0  0  0  0  0  0
   38.8773   25.5423   56.1254 H   0  0  0  0  0  0  0  0  0  0  0  0
   39.7210   27.3107   56.8123 H   0  0  0  0  0  0  0  0  0  0  0  0
   38.1237   25.5442   58.0212 H   0  0  0  0  0  0  0  0  0  0  0  0
   39.8610   25.5999   58.0827 H   0  0  0  0  0  0  0  0  0  0  0  0
  1  2  2  0
  2  3  1  0
  3  4  1  0
  4  5  1  0
  5  6  1  0
  6  7  2  0
  6  8  1  0
  3  9  1  0
  9 10  1  1
  9 11  1  0
 11 12  1  0
 12 13  1  0
 12 14  1  0
 14 15  2  0
 15 16  1  0
 16 17  2  0
 17 18  1  0
 18 19  1  0
 18 20  2  0
 20 21  1  0
 21 22  1  0
 17 23  1  0
 23 24  2  0
 24 25  1  0
 25 26  2  3
 26 27  1  0
 26 28  1  0
 28 29  1  0
 28 30  1  0
 30 31  3  0
 24 32  1  0
 32 33  1  0
 22  9  1  0
 20 14  1  0
 33 16  1  0
  1 34  1  0
  1 35  1  0
  2 36  1  0
  3 37  1  6
  4 38  1  0
  4 39  1  0
  5 40  1  0
  5 41  1  0
 10 42  1  0
 11 43  1  0
 11 44  1  0
 12 45  1  1
 13 46  1  0
 15 47  1  0
 19 48  1  0
 23 49  1  0
 25 50  1  0
 28 51  1  1
 29 52  1  0
 29 53  1  0
 32 54  1  0
 32 55  1  0
 33 56  1  0
 33 57  1  0
M  CHG  1   8  -1
M  END

>  <ID>
DiffSBDD_25_num_sample_100

>  <docking_score>
-9.871

$$$$
DiffSBDD_26_num_sample_100
     RDKit          3D

 63 66  0  0  0  0  0  0  0  0999 V2000
   35.7480   39.2680   61.8990 N   0  0  0  0  0  0  0  0  0  0  0  0
   36.8320   38.7490   61.3440 O   0  0  0  0  0  0  0  0  0  0  0  0
   36.8000   37.4670   61.1430 C   0  0  0  0  0  0  0  0  0  0  0  0
   36.7730   36.7480   62.3200 C   0  0  0  0  0  0  0  0  0  0  0  0
   36.8860   35.3600   62.2440 C   0  0  0  0  0  0  0  0  0  0  0  0
   37.0070   34.6570   61.1110 C   0  0  0  0  0  0  0  0  0  0  0  0
   37.4430   33.3000   61.0360 C   0  0  0  0  0  0  0  0  0  0  0  0
   36.5440   32.3970   61.0900 O   0  0  0  0  0  0  0  0  0  0  0  0
   38.7150   32.9670   60.6970 N   0  0  0  0  0  0  0  0  0  0  0  0
   39.7360   33.5320   61.2500 C   0  0  0  0  0  0  0  0  0  0  0  0
   40.1920   32.9920   62.4840 C   0  0  0  0  0  0  0  0  0  0  0  0
   41.1170   33.7740   63.2950 C   0  0  0  0  0  0  0  0  0  0  0  0
   41.2930   35.1490   62.9510 C   0  0  0  0  0  0  0  0  0  0  0  0
   40.9230   35.5590   61.6970 C   0  0  0  0  0  0  0  0  0  0  0  0
   40.3030   34.7290   60.7920 C   0  0  0  0  0  0  0  0  0  0  0  0
   38.8490   32.2350   59.5740 C   0  0  2  0  0  0  0  0  0  0  0  0
   38.1970   33.0660   58.4300 C   0  0  0  0  0  0  0  0  0  0  0  0
   38.4260   32.9900   56.8750 C   0  0  0  0  0  0  0  0  0  0  0  0
   38.9370   31.6530   56.3510 C   0  0  2  0  0  0  0  0  0  0  0  0
   38.4870   31.6050   54.8600 C   0  0  0  0  0  0  0  0  0  0  0  0
   37.8540   32.5330   54.4130 O   0  0  0  0  0  0  0  0  0  0  0  0
   38.8620   30.5270   54.1110 N   0  0  0  0  0  0  0  0  0  0  0  0
   39.2980   29.7620   53.0160 C   0  0  0  0  0  0  0  0  0  0  0  0
   39.0580   28.3530   52.9750 C   0  0  0  0  0  0  0  0  0  0  0  0
   38.5270   27.9910   54.2310 O   0  0  0  0  0  0  0  0  0  0  0  0
   39.3300   27.5800   51.8590 C   0  0  0  0  0  0  0  0  0  0  0  0
   39.8540   28.1470   50.7110 C   0  0  0  0  0  0  0  0  0  0  0  0
   40.1450   29.4810   50.6730 C   0  0  0  0  0  0  0  0  0  0  0  0
   40.6110   30.0800   49.6970 O   0  0  0  0  0  0  0  0  0  0  0  0
   39.8660   30.3010   51.8610 C   0  0  0  0  0  0  0  0  0  0  0  0
   38.3520   30.4590   56.9470 C   0  0  0  0  0  0  0  0  0  0  0  0
   37.8080   30.4000   58.3520 C   0  0  0  0  0  0  0  0  0  0  0  0
   36.8120   29.7170   58.6710 O   0  0  0  0  0  0  0  0  0  0  0  0
   38.7230   30.7570   59.5750 C   0  0  0  0  0  0  0  0  0  0  0  0
   36.9460   35.4550   59.9050 C   0  0  0  0  0  0  0  0  0  0  0  0
   36.8070   36.8350   59.8860 C   0  0  0  0  0  0  0  0  0  0  0  0
   35.9400   40.2380   62.1850 H   0  0  0  0  0  0  0  0  0  0  0  0
   34.9750   39.2580   61.2180 H   0  0  0  0  0  0  0  0  0  0  0  0
   36.6655   37.2548   63.2904 H   0  0  0  0  0  0  0  0  0  0  0  0
   36.8748   34.7984   63.1898 H   0  0  0  0  0  0  0  0  0  0  0  0
   39.8526   32.0013   62.8207 H   0  0  0  0  0  0  0  0  0  0  0  0
   41.6586   33.3226   64.1393 H   0  0  0  0  0  0  0  0  0  0  0  0
   41.7152   35.8614   63.6750 H   0  0  0  0  0  0  0  0  0  0  0  0
   41.1309   36.5978   61.4009 H   0  0  0  0  0  0  0  0  0  0  0  0
   40.2531   35.0002   59.7271 H   0  0  0  0  0  0  0  0  0  0  0  0
   39.9250   32.0911   59.3964 H   0  0  0  0  0  0  0  0  0  0  0  0
   37.1176   32.8930   58.5524 H   0  0  0  0  0  0  0  0  0  0  0  0
   38.7300   34.0109   58.6117 H   0  0  0  0  0  0  0  0  0  0  0  0
   37.4669   33.2035   56.3805 H   0  0  0  0  0  0  0  0  0  0  0  0
   39.2142   33.7235   56.6499 H   0  0  0  0  0  0  0  0  0  0  0  0
   40.0155   31.6247   56.5656 H   0  0  0  0  0  0  0  0  0  0  0  0
   38.7550   29.7820   54.8130 H   0  0  0  0  0  0  0  0  0  0  0  0
   38.6560   28.5850   55.0120 H   0  0  0  0  0  0  0  0  0  0  0  0
   39.1265   26.4993   51.8855 H   0  0  0  0  0  0  0  0  0  0  0  0
   40.0370   27.5210   49.8252 H   0  0  0  0  0  0  0  0  0  0  0  0
   40.8283   30.7377   52.1663 H   0  0  0  0  0  0  0  0  0  0  0  0
   39.0672   30.9655   51.4999 H   0  0  0  0  0  0  0  0  0  0  0  0
   37.5154   30.1771   56.2908 H   0  0  0  0  0  0  0  0  0  0  0  0
   39.2383   29.8138   57.0378 H   0  0  0  0  0  0  0  0  0  0  0  0
   38.2600   30.4136   60.5118 H   0  0  0  0  0  0  0  0  0  0  0  0
   39.7058   30.2689   59.4988 H   0  0  0  0  0  0  0  0  0  0  0  0
   37.0144   34.9324   58.9395 H   0  0  0  0  0  0  0  0  0  0  0  0
   36.7084   37.3997   58.9472 H   0  0  0  0  0  0  0  0  0  0  0  0
  1  2  1  0
  2  3  1  0
  3  4  2  0
  4  5  1  0
  5  6  2  0
  6  7  1  0
  7  8  2  0
  7  9  1  0
  9 10  1  0
 10 11  2  0
 11 12  1  0
 12 13  2  0
 13 14  1  0
 14 15  2  0
  9 16  1  0
 16 17  1  0
 17 18  1  0
 18 19  1  0
 19 20  1  0
 20 21  2  0
 20 22  1  0
 22 23  1  0
 23 24  2  0
 24 25  1  0
 24 26  1  0
 26 27  2  0
 27 28  1  0
 28 29  2  0
 28 30  1  0
 19 31  1  0
 31 32  1  0
 32 33  2  0
 32 34  1  0
  6 35  1  0
 35 36  2  0
 36  3  1  0
 15 10  1  0
 34 16  1  0
 30 23  1  0
  1 37  1  0
  1 38  1  0
  4 39  1  0
  5 40  1  0
 11 41  1  0
 12 42  1  0
 13 43  1  0
 14 44  1  0
 15 45  1  0
 16 46  1  6
 17 47  1  0
 17 48  1  0
 18 49  1  0
 18 50  1  0
 19 51  1  6
 22 52  1  0
 25 53  1  0
 26 54  1  0
 27 55  1  0
 30 56  1  0
 30 57  1  0
 31 58  1  0
 31 59  1  0
 34 60  1  0
 34 61  1  0
 35 62  1  0
 36 63  1  0
M  END

>  <ID>
DiffSBDD_26_num_sample_100

>  <docking_score>
-12.091

$$$$
DiffSBDD_27_num_sample_100
     RDKit          3D

 53 55  0  0  0  0  0  0  0  0999 V2000
   42.4530   27.6840   58.0520 C   0  0  0  0  0  0  0  0  0  0  0  0
   41.0090   28.1430   58.5240 C   0  0  0  0  0  0  0  0  0  0  0  0
   40.5730   28.9480   59.6790 N   0  0  0  0  0  0  0  0  0  0  0  0
   39.2050   29.2040   59.4600 C   0  0  0  0  0  0  0  0  0  0  0  0
   38.5330   29.9940   59.8850 C   0  0  0  0  0  0  0  0  0  0  0  0
   37.1730   30.5150   59.6970 C   0  0  0  0  0  0  0  0  0  0  0  0
   36.8110   31.4900   60.3170 O   0  0  0  0  0  0  0  0  0  0  0  0
   35.7580   31.0250   60.6280 F   0  0  0  0  0  0  0  0  0  0  0  0
   36.6560   29.6190   58.6460 C   0  0  0  0  0  0  0  0  0  0  0  0
   37.5060   28.6490   58.0320 C   0  0  0  0  0  0  0  0  0  0  0  0
   38.7610   28.4500   58.2260 C   0  0  0  0  0  0  0  0  0  0  0  0
   39.8830   27.9270   57.6140 C   0  0  2  0  0  0  0  0  0  0  0  0
   39.7360   26.5710   57.0700 C   0  0  0  0  0  0  0  0  0  0  0  0
   40.2050   26.5560   55.7210 C   0  0  0  0  0  0  0  0  0  0  0  0
   39.0270   26.8130   54.8630 C   0  0  1  0  0  0  0  0  0  0  0  0
   38.0010   26.0000   55.1730 O   0  0  0  0  0  0  0  0  0  0  0  0
   38.8130   27.8760   53.9160 C   0  0  1  0  0  0  0  0  0  0  0  0
   38.9820   29.2690   54.2310 C   0  0  0  0  0  0  0  0  0  0  0  0
   39.3850   30.2240   53.0040 C   0  0  0  0  0  0  0  0  0  0  0  0
   39.7920   29.3720   51.8540 C   0  0  2  0  0  0  0  0  0  0  0  0
   40.8380   30.2340   50.9510 C   0  0  0  0  0  0  0  0  0  0  0  0
   39.4130   28.5050   51.0430 C   0  0  0  0  0  0  0  0  0  0  0  0
   38.3360   27.5310   51.3950 N   0  0  0  0  0  0  0  0  0  0  0  0
   38.2690   27.6050   52.5740 C   0  0  0  0  0  0  0  0  0  0  0  0
   43.0806   27.4845   58.9331 H   0  0  0  0  0  0  0  0  0  0  0  0
   42.3676   26.7687   57.4479 H   0  0  0  0  0  0  0  0  0  0  0  0
   42.9117   28.4806   57.4479 H   0  0  0  0  0  0  0  0  0  0  0  0
   41.1470   29.2580   60.4760 H   0  0  0  0  0  0  0  0  0  0  0  0
   39.0481   30.5461   60.6849 H   0  0  0  0  0  0  0  0  0  0  0  0
   35.6049   29.6985   58.3316 H   0  0  0  0  0  0  0  0  0  0  0  0
   37.0241   27.9864   57.2980 H   0  0  0  0  0  0  0  0  0  0  0  0
   40.0770   28.4645   56.6741 H   0  0  0  0  0  0  0  0  0  0  0  0
   40.3266   25.8659   57.6733 H   0  0  0  0  0  0  0  0  0  0  0  0
   38.6775   26.2729   57.0980 H   0  0  0  0  0  0  0  0  0  0  0  0
   40.9613   27.3409   55.5730 H   0  0  0  0  0  0  0  0  0  0  0  0
   40.6740   25.5922   55.4739 H   0  0  0  0  0  0  0  0  0  0  0  0
   39.6767   27.0363   54.0039 H   0  0  0  0  0  0  0  0  0  0  0  0
   37.6820   26.2050   56.0870 H   0  0  0  0  0  0  0  0  0  0  0  0
   37.7577   27.9351   54.2208 H   0  0  0  0  0  0  0  0  0  0  0  0
   38.0327   29.6377   54.6468 H   0  0  0  0  0  0  0  0  0  0  0  0
   39.8281   29.3141   54.9325 H   0  0  0  0  0  0  0  0  0  0  0  0
   38.5228   30.8447   52.7187 H   0  0  0  0  0  0  0  0  0  0  0  0
   40.2161   30.8823   53.2970 H   0  0  0  0  0  0  0  0  0  0  0  0
   39.6729   28.6233   52.6510 H   0  0  0  0  0  0  0  0  0  0  0  0
   41.5172   30.7937   51.6108 H   0  0  0  0  0  0  0  0  0  0  0  0
   41.4228   29.5521   50.3162 H   0  0  0  0  0  0  0  0  0  0  0  0
   40.2804   30.9383   50.3162 H   0  0  0  0  0  0  0  0  0  0  0  0
   39.0648   29.0449   50.1501 H   0  0  0  0  0  0  0  0  0  0  0  0
   40.2988   27.8591   50.9528 H   0  0  0  0  0  0  0  0  0  0  0  0
   38.5910   26.5770   51.1000 H   0  0  0  0  0  0  0  0  0  0  0  0
   37.4410   27.7380   50.9290 H   0  0  0  0  0  0  0  0  0  0  0  0
   37.4111   28.2915   52.6259 H   0  0  0  0  0  0  0  0  0  0  0  0
   38.7403   26.6124   52.6250 H   0  0  0  0  0  0  0  0  0  0  0  0
  1  2  1  0
  2  3  2  0
  3  4  1  0
  4  5  2  0
  5  6  1  0
  6  7  1  0
  7  8  1  0
  6  9  2  0
  9 10  1  0
 10 11  2  0
 11 12  1  0
 12 13  1  0
 13 14  1  0
 14 15  1  0
 15 16  1  0
 15 17  1  0
 17 18  1  0
 18 19  1  0
 19 20  1  0
 20 21  1  0
 20 22  1  0
 22 23  1  0
 23 24  1  0
 12  2  1  0
 24 17  1  0
 11  4  1  0
  1 25  1  0
  1 26  1  0
  1 27  1  0
  3 28  1  0
  5 29  1  0
  9 30  1  0
 10 31  1  0
 12 32  1  6
 13 33  1  0
 13 34  1  0
 14 35  1  0
 14 36  1  0
 15 37  1  6
 16 38  1  0
 17 39  1  6
 18 40  1  0
 18 41  1  0
 19 42  1  0
 19 43  1  0
 20 44  1  1
 21 45  1  0
 21 46  1  0
 21 47  1  0
 22 48  1  0
 22 49  1  0
 23 50  1  0
 23 51  1  0
 24 52  1  0
 24 53  1  0
M  CHG  2   3   1  23   1
M  END

>  <ID>
DiffSBDD_27_num_sample_100

>  <docking_score>
-9.027

$$$$
DiffSBDD_28_num_sample_100
     RDKit          3D

 37 38  0  0  0  0  0  0  0  0999 V2000
   38.4620   29.2380   58.6030 O   0  0  0  0  0  0  0  0  0  0  0  0
   39.2930   29.2220   57.7760 C   0  0  0  0  0  0  0  0  0  0  0  0
   39.1940   30.0390   56.5700 C   0  0  0  0  0  0  0  0  0  0  0  0
   38.3770   31.1880   56.5000 C   0  0  0  0  0  0  0  0  0  0  0  0
   38.3950   31.6390   55.1450 C   0  0  0  0  0  0  0  0  0  0  0  0
   39.2150   30.7320   54.3900 C   0  0  0  0  0  0  0  0  0  0  0  0
   39.4550   30.6260   52.9320 C   0  0  0  0  0  0  0  0  0  0  0  0
   40.4170   30.5490   51.7840 C   0  0  0  0  0  0  0  0  0  0  0  0
   39.8640   29.6640   50.6440 C   0  0  0  0  0  0  0  0  0  0  0  0
   39.7590   28.2350   50.8800 C   0  0  0  0  0  0  0  0  0  0  0  0
   39.1210   27.1360   51.7500 C   0  0  0  0  0  0  0  0  0  0  0  0
   38.1560   27.5190   52.7260 C   0  0  0  0  0  0  0  0  0  0  0  0
   38.3380   27.0060   54.1530 C   0  0  1  0  0  0  0  0  0  0  0  0
   37.4730   26.8790   55.2220 C   0  0  0  0  0  0  0  0  0  0  0  0
   37.8330   26.1420   56.2940 C   0  0  0  0  0  0  0  0  0  0  0  0
   39.0740   25.4630   56.2200 C   0  0  0  0  0  0  0  0  0  0  0  0
   39.6810   24.6850   56.9400 O   0  0  0  0  0  0  0  0  0  0  0  0
   39.7340   26.1090   54.6870 S   0  0  0  0  0  0  0  0  0  0  0  0
   39.8130   29.8380   55.3210 C   0  0  0  0  0  0  0  0  0  0  0  0
   40.1712   28.5738   57.9125 H   0  0  0  0  0  0  0  0  0  0  0  0
   37.8285   31.6501   57.3340 H   0  0  0  0  0  0  0  0  0  0  0  0
   37.3726   31.6450   54.7392 H   0  0  0  0  0  0  0  0  0  0  0  0
   38.7981   32.6608   55.0859 H   0  0  0  0  0  0  0  0  0  0  0  0
   38.8851   29.7060   52.7349 H   0  0  0  0  0  0  0  0  0  0  0  0
   39.5070   31.7235   52.8788 H   0  0  0  0  0  0  0  0  0  0  0  0
   40.5937   31.5632   51.3963 H   0  0  0  0  0  0  0  0  0  0  0  0
   41.3540   30.1013   52.1467 H   0  0  0  0  0  0  0  0  0  0  0  0
   38.8550   30.0311   50.4051 H   0  0  0  0  0  0  0  0  0  0  0  0
   40.6084   29.7556   49.8394 H   0  0  0  0  0  0  0  0  0  0  0  0
   40.3930   27.7336   50.1339 H   0  0  0  0  0  0  0  0  0  0  0  0
   39.4034   26.0807   51.6211 H   0  0  0  0  0  0  0  0  0  0  0  0
   38.1546   28.6181   52.7711 H   0  0  0  0  0  0  0  0  0  0  0  0
   37.2195   27.0543   52.3840 H   0  0  0  0  0  0  0  0  0  0  0  0
   38.1433   27.9587   53.6388 H   0  0  0  0  0  0  0  0  0  0  0  0
   36.4926   27.3774   55.1999 H   0  0  0  0  0  0  0  0  0  0  0  0
   37.1916   26.0718   57.1849 H   0  0  0  0  0  0  0  0  0  0  0  0
   40.6158   29.1180   55.1041 H   0  0  0  0  0  0  0  0  0  0  0  0
  1  2  2  0
  2  3  1  0
  3  4  2  0
  4  5  1  0
  5  6  1  0
  6  7  1  0
  7  8  1  0
  8  9  1  0
  9 10  1  0
 10 11  2  3
 11 12  1  0
 12 13  1  0
 13 14  1  0
 14 15  2  0
 15 16  1  0
 16 17  2  0
 16 18  1  0
  6 19  2  0
 19  3  1  0
 18 13  1  0
  2 20  1  0
  4 21  1  0
  5 22  1  0
  5 23  1  0
  7 24  1  0
  7 25  1  0
  8 26  1  0
  8 27  1  0
  9 28  1  0
  9 29  1  0
 10 30  1  0
 11 31  1  0
 12 32  1  0
 12 33  1  0
 13 34  1  1
 14 35  1  0
 15 36  1  0
 19 37  1  0
M  END

>  <ID>
DiffSBDD_28_num_sample_100

>  <docking_score>
-7.823

$$$$
DiffSBDD_29_num_sample_100
     RDKit          3D

 87 91  0  0  0  0  0  0  0  0999 V2000
   35.7480   33.5520   61.9330 C   0  0  0  0  0  0  0  0  0  0  0  0
   36.1430   33.5640   60.5480 C   0  0  0  0  0  0  0  0  0  0  0  0
   36.0550   34.6130   59.4430 C   0  0  0  0  0  0  0  0  0  0  0  0
   36.4790   32.2850   59.9500 C   0  0  2  0  0  0  0  0  0  0  0  0
   35.3530   31.3120   60.0960 O   0  0  0  0  0  0  0  0  0  0  0  0
   37.7880   31.7980   59.6190 C   0  0  2  0  0  0  0  0  0  0  0  0
   39.0620   31.6090   60.4760 C   0  0  2  0  0  0  0  0  0  0  0  0
   39.3610   30.6480   61.9030 S   0  0  0  0  0  0  0  0  0  0  0  0
   40.2450   32.6570   62.1380 C   0  0  0  0  0  0  0  0  0  0  0  0
   41.1470   33.7450   62.7400 C   0  0  0  0  0  0  0  0  0  0  0  0
   41.3860   34.6830   61.7790 C   0  0  0  0  0  0  0  0  0  0  0  0
   40.3920   35.3960   61.0500 C   0  0  0  0  0  0  0  0  0  0  0  0
   39.3860   34.4880   60.2380 C   0  0  0  0  0  0  0  0  0  0  0  0
   39.4360   32.9970   60.9880 C   0  0  1  0  0  0  0  0  0  0  0  0
   37.9540   31.2290   58.1040 C   0  0  2  0  0  0  0  0  0  0  0  0
   38.2950   32.8190   57.6050 C   0  0  0  0  0  0  0  0  0  0  0  0
   36.8040   30.2750   57.9570 O   0  0  0  0  0  0  0  0  0  0  0  0
   39.0750   30.5310   57.2750 C   0  0  0  0  0  0  0  0  0  0  0  0
   39.4420   29.0690   57.7450 C   0  0  2  0  0  0  0  0  0  0  0  0
   38.7880   28.6650   58.7760 O   0  0  0  0  0  0  0  0  0  0  0  0
   40.6240   28.2490   57.3420 C   0  0  1  0  0  0  0  0  0  0  0  0
   41.7370   27.4710   58.1330 C   0  0  0  0  0  0  0  0  0  0  0  0
   41.1200   26.9480   56.8420 C   0  0  1  0  0  0  0  0  0  0  0  0
   39.8240   26.0640   56.8230 N   0  0  1  0  0  0  0  0  0  0  0  0
   38.8910   25.4310   57.9100 C   0  0  0  0  0  0  0  0  0  0  0  0
   38.0960   24.3360   57.4690 C   0  0  0  0  0  0  0  0  0  0  0  0
   37.0440   25.0030   56.6420 C   0  0  0  0  0  0  0  0  0  0  0  0
   37.8330   25.4810   55.4600 N   0  0  0  0  0  0  0  0  0  0  0  0
   39.0080   26.1760   55.7650 C   0  0  2  0  0  0  0  0  0  0  0  0
   39.7930   26.6350   54.4970 C   0  0  0  0  0  0  0  0  0  0  0  0
   38.8410   26.7210   53.3930 C   0  0  0  0  0  0  0  0  0  0  0  0
   38.6720   28.1810   52.9550 N   0  0  0  0  0  0  0  0  0  0  0  0
   38.9440   29.3750   53.6590 C   0  0  0  0  0  0  0  0  0  0  0  0
   39.7790   30.4330   52.7210 S   0  0  0  0  0  0  0  0  0  0  0  0
   39.6570   29.3940   51.3560 C   0  0  0  0  0  0  0  0  0  0  0  0
   40.1260   29.6180   50.1700 F   0  0  0  0  0  0  0  0  0  0  0  0
   39.0260   28.3030   51.7110 C   0  0  0  0  0  0  0  0  0  0  0  0
   38.7490   27.4520   50.6770 F   0  0  0  0  0  0  0  0  0  0  0  0
   36.6443   33.5792   62.5701 H   0  0  0  0  0  0  0  0  0  0  0  0
   35.1218   34.4315   62.1433 H   0  0  0  0  0  0  0  0  0  0  0  0
   35.1763   32.6361   62.1433 H   0  0  0  0  0  0  0  0  0  0  0  0
   36.5301   34.3437   61.2205 H   0  0  0  0  0  0  0  0  0  0  0  0
   35.9711   35.6133   59.8929 H   0  0  0  0  0  0  0  0  0  0  0  0
   36.9602   34.5660   58.8198 H   0  0  0  0  0  0  0  0  0  0  0  0
   35.1702   34.4158   58.8198 H   0  0  0  0  0  0  0  0  0  0  0  0
   36.7380   32.6731   58.9539 H   0  0  0  0  0  0  0  0  0  0  0  0
   34.4960   31.8040   60.1390 H   0  0  0  0  0  0  0  0  0  0  0  0
   37.4698   30.7745   59.8664 H   0  0  0  0  0  0  0  0  0  0  0  0
   39.5771   31.0000   59.7186 H   0  0  0  0  0  0  0  0  0  0  0  0
   39.4486   32.9244   62.8481 H   0  0  0  0  0  0  0  0  0  0  0  0
   40.6434   34.2124   63.5990 H   0  0  0  0  0  0  0  0  0  0  0  0
   42.0945   33.3045   63.0837 H   0  0  0  0  0  0  0  0  0  0  0  0
   41.9938   35.4556   62.2725 H   0  0  0  0  0  0  0  0  0  0  0  0
   41.7855   34.0410   60.9801 H   0  0  0  0  0  0  0  0  0  0  0  0
   39.8101   35.9976   61.7637 H   0  0  0  0  0  0  0  0  0  0  0  0
   40.9295   36.0033   60.3068 H   0  0  0  0  0  0  0  0  0  0  0  0
   38.3695   34.9064   60.2795 H   0  0  0  0  0  0  0  0  0  0  0  0
   39.6594   34.4219   59.1746 H   0  0  0  0  0  0  0  0  0  0  0  0
   38.6128   33.7260   60.9582 H   0  0  0  0  0  0  0  0  0  0  0  0
   38.4323   33.4592   58.4889 H   0  0  0  0  0  0  0  0  0  0  0  0
   39.2148   32.8247   57.0017 H   0  0  0  0  0  0  0  0  0  0  0  0
   37.4584   33.2013   57.0017 H   0  0  0  0  0  0  0  0  0  0  0  0
   36.3750   30.4090   57.0750 H   0  0  0  0  0  0  0  0  0  0  0  0
   38.7426   30.4792   56.2277 H   0  0  0  0  0  0  0  0  0  0  0  0
   39.9829   31.1358   57.4163 H   0  0  0  0  0  0  0  0  0  0  0  0
   39.2191   28.7896   56.7047 H   0  0  0  0  0  0  0  0  0  0  0  0
   39.2190   27.8530   59.1430 H   0  0  0  0  0  0  0  0  0  0  0  0
   40.3369   29.1884   56.8469 H   0  0  0  0  0  0  0  0  0  0  0  0
   42.7731   27.8402   58.1466 H   0  0  0  0  0  0  0  0  0  0  0  0
   41.8683   27.0973   59.1592 H   0  0  0  0  0  0  0  0  0  0  0  0
   41.6589   26.4783   56.0060 H   0  0  0  0  0  0  0  0  0  0  0  0
   40.6760   25.5160   57.0100 H   0  0  0  0  0  0  0  0  0  0  0  0
   39.5243   25.0790   58.7377 H   0  0  0  0  0  0  0  0  0  0  0  0
   38.1836   26.2218   58.2003 H   0  0  0  0  0  0  0  0  0  0  0  0
   38.6890   23.6337   56.8647 H   0  0  0  0  0  0  0  0  0  0  0  0
   37.6857   23.7353   58.2941 H   0  0  0  0  0  0  0  0  0  0  0  0
   36.2624   24.2907   56.3392 H   0  0  0  0  0  0  0  0  0  0  0  0
   36.5068   25.8046   57.1701 H   0  0  0  0  0  0  0  0  0  0  0  0
   38.0870   24.6590   54.8930 H   0  0  0  0  0  0  0  0  0  0  0  0
   37.2270   26.1520   54.9670 H   0  0  0  0  0  0  0  0  0  0  0  0
   38.3621   26.8564   56.3393 H   0  0  0  0  0  0  0  0  0  0  0  0
   40.2501   27.6195   54.6752 H   0  0  0  0  0  0  0  0  0  0  0  0
   40.5945   25.9199   54.2600 H   0  0  0  0  0  0  0  0  0  0  0  0
   39.2130   26.1275   52.5448 H   0  0  0  0  0  0  0  0  0  0  0  0
   37.8681   26.3301   53.7255 H   0  0  0  0  0  0  0  0  0  0  0  0
   37.9937   29.8372   53.9643 H   0  0  0  0  0  0  0  0  0  0  0  0
   39.5543   29.1309   54.5410 H   0  0  0  0  0  0  0  0  0  0  0  0
  1  2  1  0
  2  3  1  0
  2  4  1  0
  4  5  1  0
  4  6  1  0
  6  7  1  0
  7  8  1  0
  8  9  1  0
  9 10  1  0
 10 11  1  0
 11 12  1  0
 12 13  1  0
 13 14  1  0
  6 15  1  0
 15 16  1  0
 15 17  1  6
 15 18  1  0
 18 19  1  0
 19 20  1  0
 19 21  1  0
 21 22  1  0
 22 23  1  0
 23 24  1  0
 24 25  1  0
 25 26  1  0
 26 27  1  0
 27 28  1  0
 28 29  1  0
 29 30  1  0
 30 31  1  0
 31 32  1  0
 32 33  1  0
 33 34  1  0
 34 35  1  0
 35 36  1  0
 35 37  2  0
 37 38  1  0
 14  7  1  0
 23 21  1  0
 29 24  1  0
 37 32  1  0
 14  9  1  0
  1 39  1  0
  1 40  1  0
  1 41  1  0
  2 42  1  0
  3 43  1  0
  3 44  1  0
  3 45  1  0
  4 46  1  6
  5 47  1  0
  6 48  1  6
  7 49  1  6
  9 50  1  0
 10 51  1  0
 10 52  1  0
 11 53  1  0
 11 54  1  0
 12 55  1  0
 12 56  1  0
 13 57  1  0
 13 58  1  0
 14 59  1  1
 16 60  1  0
 16 61  1  0
 16 62  1  0
 17 63  1  0
 18 64  1  0
 18 65  1  0
 19 66  1  6
 20 67  1  0
 21 68  1  6
 22 69  1  0
 22 70  1  0
 23 71  1  6
 24 72  1  6
 25 73  1  0
 25 74  1  0
 26 75  1  0
 26 76  1  0
 27 77  1  0
 27 78  1  0
 28 79  1  0
 28 80  1  0
 29 81  1  1
 30 82  1  0
 30 83  1  0
 31 84  1  0
 31 85  1  0
 33 86  1  0
 33 87  1  0
M  CHG  2  24   1  28   1
M  END

>  <ID>
DiffSBDD_29_num_sample_100

>  <docking_score>
-10.073

$$$$
DiffSBDD_2_num_sample_100
     RDKit          3D

 51 51  0  0  0  0  0  0  0  0999 V2000
   42.0700   27.8060   58.0130 C   0  0  0  0  0  0  0  0  0  0  0  0
   40.7770   27.4290   57.5480 C   0  0  0  0  0  0  0  0  0  0  0  0
   40.5100   26.4090   56.9050 O   0  0  0  0  0  0  0  0  0  0  0  0
   39.7030   28.5380   57.6700 C   0  0  2  0  0  0  0  0  0  0  0  0
   38.7600   28.6980   56.6450 C   0  0  0  0  0  0  0  0  0  0  0  0
   39.2330   28.9180   55.3330 N   0  0  0  0  0  0  0  0  0  0  0  0
   38.3310   29.4050   54.3550 C   0  0  1  0  0  0  0  0  0  0  0  0
   37.1130   30.0720   54.8070 C   0  0  0  0  0  0  0  0  0  0  0  0
   37.1470   31.4600   54.8660 O   0  0  0  0  0  0  0  0  0  0  0  0
   38.9790   29.6220   53.1920 C   0  0  0  0  0  0  0  0  0  0  0  0
   39.8160   30.5910   52.6940 C   0  0  0  0  0  0  0  0  0  0  0  0
   40.2660   30.3300   51.3570 C   0  0  0  0  0  0  0  0  0  0  0  0
   39.7960   29.0900   50.9800 C   0  0  0  0  0  0  0  0  0  0  0  0
   40.0980   28.5170   49.7790 F   0  0  0  0  0  0  0  0  0  0  0  0
   38.9280   28.4640   51.9740 S   0  0  0  0  0  0  0  0  0  0  0  0
   39.5980   29.3370   58.7570 O   0  0  0  0  0  0  0  0  0  0  0  0
   39.0460   28.7050   60.0120 C   0  0  0  0  0  0  0  0  0  0  0  0
   39.4730   29.4390   61.3300 C   0  0  0  0  0  0  0  0  0  0  0  0
   39.5310   31.0410   60.9660 C   0  0  0  0  0  0  0  0  0  0  0  0
   38.0420   31.6380   61.2640 C   0  0  0  0  0  0  0  0  0  0  0  0
   37.1670   32.1220   60.0750 C   0  0  2  0  0  0  0  0  0  0  0  0
   36.1660   31.1620   59.7780 O   0  0  0  0  0  0  0  0  0  0  0  0
   37.9630   32.7430   58.9360 C   0  0  0  0  0  0  0  0  0  0  0  0
   37.3060   33.9650   58.4470 O   0  0  0  0  0  0  0  0  0  0  0  0
   37.9650   31.7410   57.8630 O   0  0  0  0  0  0  0  0  0  0  0  0
   42.0778   27.8083   59.1130 H   0  0  0  0  0  0  0  0  0  0  0  0
   42.8166   27.0881   57.6425 H   0  0  0  0  0  0  0  0  0  0  0  0
   42.3138   28.8126   57.6425 H   0  0  0  0  0  0  0  0  0  0  0  0
   39.0307   27.8310   58.1781 H   0  0  0  0  0  0  0  0  0  0  0  0
   38.1454   27.7860   56.6217 H   0  0  0  0  0  0  0  0  0  0  0  0
   38.2305   29.6268   56.9037 H   0  0  0  0  0  0  0  0  0  0  0  0
   40.0030   29.5990   55.4000 H   0  0  0  0  0  0  0  0  0  0  0  0
   37.5848   28.6829   53.9921 H   0  0  0  0  0  0  0  0  0  0  0  0
   36.3024   29.7873   54.1200 H   0  0  0  0  0  0  0  0  0  0  0  0
   36.9712   29.7417   55.8466 H   0  0  0  0  0  0  0  0  0  0  0  0
   38.0880   31.7660   54.8970 H   0  0  0  0  0  0  0  0  0  0  0  0
   40.1129   31.4824   53.2661 H   0  0  0  0  0  0  0  0  0  0  0  0
   40.8796   31.0026   50.7397 H   0  0  0  0  0  0  0  0  0  0  0  0
   37.9478   28.7134   59.9505 H   0  0  0  0  0  0  0  0  0  0  0  0
   39.4567   27.6859   60.0651 H   0  0  0  0  0  0  0  0  0  0  0  0
   38.7351   29.2552   62.1248 H   0  0  0  0  0  0  0  0  0  0  0  0
   40.4455   29.0756   61.6937 H   0  0  0  0  0  0  0  0  0  0  0  0
   40.2766   31.5472   61.5967 H   0  0  0  0  0  0  0  0  0  0  0  0
   39.8208   31.2003   59.9169 H   0  0  0  0  0  0  0  0  0  0  0  0
   37.4760   30.8475   61.7785 H   0  0  0  0  0  0  0  0  0  0  0  0
   38.2385   32.5573   61.8351 H   0  0  0  0  0  0  0  0  0  0  0  0
   36.5858   33.0085   60.3689 H   0  0  0  0  0  0  0  0  0  0  0  0
   35.3250   31.4090   60.2400 H   0  0  0  0  0  0  0  0  0  0  0  0
   38.9766   33.0150   59.2657 H   0  0  0  0  0  0  0  0  0  0  0  0
   36.3450   33.7840   58.2930 H   0  0  0  0  0  0  0  0  0  0  0  0
   37.4770   30.9340   58.1640 H   0  0  0  0  0  0  0  0  0  0  0  0
  1  2  1  0
  2  3  2  0
  2  4  1  0
  4  5  1  0
  5  6  1  0
  6  7  1  0
  7  8  1  0
  8  9  1  0
  7 10  1  0
 10 11  2  0
 11 12  1  0
 12 13  2  0
 13 14  1  0
 13 15  1  0
  4 16  1  0
 16 17  1  0
 17 18  1  0
 18 19  1  0
 19 20  1  0
 20 21  1  0
 21 22  1  0
 21 23  1  0
 23 24  1  0
 23 25  1  0
 15 10  1  0
  1 26  1  0
  1 27  1  0
  1 28  1  0
  4 29  1  6
  5 30  1  0
  5 31  1  0
  6 32  1  0
  7 33  1  6
  8 34  1  0
  8 35  1  0
  9 36  1  0
 11 37  1  0
 12 38  1  0
 17 39  1  0
 17 40  1  0
 18 41  1  0
 18 42  1  0
 19 43  1  0
 19 44  1  0
 20 45  1  0
 20 46  1  0
 21 47  1  1
 22 48  1  0
 23 49  1  0
 24 50  1  0
 25 51  1  0
M  END

>  <ID>
DiffSBDD_2_num_sample_100

>  <docking_score>
-6.87

$$$$
DiffSBDD_30_num_sample_100
     RDKit          3D

 71 74  0  0  0  0  0  0  0  0999 V2000
   36.6880   37.0570   62.4190 C   0  0  0  0  0  0  0  0  0  0  0  0
   37.4790   37.4070   61.0170 C   0  0  0  0  0  0  0  0  0  0  0  0
   37.7770   38.4930   60.7040 O   0  0  0  0  0  0  0  0  0  0  0  0
   37.6710   36.1140   60.2780 C   0  0  0  0  0  0  0  0  0  0  0  0
   38.8060   35.5870   60.3530 O   0  0  0  0  0  0  0  0  0  0  0  0
   39.6500   35.2030   61.5680 C   0  0  0  0  0  0  0  0  0  0  0  0
   40.8490   36.2100   61.4350 O   0  0  0  0  0  0  0  0  0  0  0  0
   36.7140   35.3860   59.4560 O   0  0  0  0  0  0  0  0  0  0  0  0
   36.4770   34.1240   59.5980 C   0  0  1  0  0  0  0  0  0  0  0  0
   37.3720   32.8900   59.4770 N   0  0  0  0  0  0  0  0  0  0  0  0
   38.3050   32.7530   58.3310 C   0  0  0  0  0  0  0  0  0  0  0  0
   37.7900   33.6230   57.3800 N   0  0  0  0  0  0  0  0  0  0  0  0
   38.4030   33.1080   56.1780 C   0  0  0  0  0  0  0  0  0  0  0  0
   38.6330   31.7660   56.2610 C   0  0  0  0  0  0  0  0  0  0  0  0
   38.1790   30.8090   55.1940 C   0  0  2  0  0  0  0  0  0  0  0  0
   36.9270   29.9130   55.0000 C   0  0  0  0  0  0  0  0  0  0  0  0
   37.3430   28.8280   53.8320 C   0  0  2  0  0  0  0  0  0  0  0  0
   38.1740   27.6130   54.2650 N   0  0  2  0  0  0  0  0  0  0  0  0
   38.2320   26.9630   55.5610 C   0  0  0  0  0  0  0  0  0  0  0  0
   38.8030   25.6190   55.5540 C   0  0  0  0  0  0  0  0  0  0  0  0
   37.3320   25.8550   55.6970 C   0  0  0  0  0  0  0  0  0  0  0  0
   38.8150   28.7280   53.8830 C   0  0  1  0  0  0  0  0  0  0  0  0
   39.2980   29.0490   52.5230 C   0  0  0  0  0  0  0  0  0  0  0  0
   39.8310   30.2980   52.2270 C   0  0  0  0  0  0  0  0  0  0  0  0
   40.3330   30.6360   50.8970 C   0  0  0  0  0  0  0  0  0  0  0  0
   40.2960   29.5960   49.8780 C   0  0  0  0  0  0  0  0  0  0  0  0
   39.7710   28.3880   50.1330 C   0  0  0  0  0  0  0  0  0  0  0  0
   39.2640   28.0880   51.3800 C   0  0  0  0  0  0  0  0  0  0  0  0
   38.6020   26.9560   51.5420 O   0  0  0  0  0  0  0  0  0  0  0  0
   39.6210   29.7050   55.2020 S   0  0  0  0  0  0  0  0  0  0  0  0
   35.3880   33.5500   60.3990 C   0  0  2  0  0  0  0  0  0  0  0  0
   35.7120   32.4720   61.4610 C   0  0  0  0  0  0  0  0  0  0  0  0
   34.2440   33.1010   59.6490 O   0  0  0  0  0  0  0  0  0  0  0  0
   37.3191   37.3362   63.2756 H   0  0  0  0  0  0  0  0  0  0  0  0
   35.7449   37.6219   62.4588 H   0  0  0  0  0  0  0  0  0  0  0  0
   36.4718   35.9792   62.4588 H   0  0  0  0  0  0  0  0  0  0  0  0
   37.9890   36.6717   59.3848 H   0  0  0  0  0  0  0  0  0  0  0  0
   39.0978   35.3550   62.5071 H   0  0  0  0  0  0  0  0  0  0  0  0
   39.9491   34.1448   61.5945 H   0  0  0  0  0  0  0  0  0  0  0  0
   41.4960   36.0520   62.1680 H   0  0  0  0  0  0  0  0  0  0  0  0
   36.4057   34.7024   58.6651 H   0  0  0  0  0  0  0  0  0  0  0  0
   37.9460   32.8560   60.3320 H   0  0  0  0  0  0  0  0  0  0  0  0
   36.6980   32.1260   59.3230 H   0  0  0  0  0  0  0  0  0  0  0  0
   39.3253   33.0463   58.6189 H   0  0  0  0  0  0  0  0  0  0  0  0
   38.3807   31.7185   57.9650 H   0  0  0  0  0  0  0  0  0  0  0  0
   38.0750   34.5960   57.5630 H   0  0  0  0  0  0  0  0  0  0  0  0
   36.7620   33.6620   57.3510 H   0  0  0  0  0  0  0  0  0  0  0  0
   37.7348   33.3026   55.3262 H   0  0  0  0  0  0  0  0  0  0  0  0
   39.3711   33.6130   56.0449 H   0  0  0  0  0  0  0  0  0  0  0  0
   39.7237   31.6454   56.3379 H   0  0  0  0  0  0  0  0  0  0  0  0
   37.9997   31.4771   57.1127 H   0  0  0  0  0  0  0  0  0  0  0  0
   37.8072   31.5147   54.4365 H   0  0  0  0  0  0  0  0  0  0  0  0
   36.6767   29.3933   55.9366 H   0  0  0  0  0  0  0  0  0  0  0  0
   36.0425   30.5017   54.7154 H   0  0  0  0  0  0  0  0  0  0  0  0
   36.4893   28.9614   53.1512 H   0  0  0  0  0  0  0  0  0  0  0  0
   38.1950   26.6210   53.9900 H   0  0  0  0  0  0  0  0  0  0  0  0
   38.4339   27.8717   56.1471 H   0  0  0  0  0  0  0  0  0  0  0  0
   39.2095   25.1930   54.6249 H   0  0  0  0  0  0  0  0  0  0  0  0
   39.5765   25.0870   56.1273 H   0  0  0  0  0  0  0  0  0  0  0  0
   36.6500   25.5952   54.8740 H   0  0  0  0  0  0  0  0  0  0  0  0
   36.5627   25.5607   56.4260 H   0  0  0  0  0  0  0  0  0  0  0  0
   39.8765   31.0579   53.0210 H   0  0  0  0  0  0  0  0  0  0  0  0
   40.7246   31.6394   50.6735 H   0  0  0  0  0  0  0  0  0  0  0  0
   40.7068   29.8052   48.8792 H   0  0  0  0  0  0  0  0  0  0  0  0
   39.7446   27.6280   49.3382 H   0  0  0  0  0  0  0  0  0  0  0  0
   38.4720   26.3430   50.7750 H   0  0  0  0  0  0  0  0  0  0  0  0
   35.1563   34.4658   60.9626 H   0  0  0  0  0  0  0  0  0  0  0  0
   35.5839   32.8982   62.4670 H   0  0  0  0  0  0  0  0  0  0  0  0
   35.0311   31.6173   61.3355 H   0  0  0  0  0  0  0  0  0  0  0  0
   36.7513   32.1343   61.3355 H   0  0  0  0  0  0  0  0  0  0  0  0
   33.9480   32.2210   59.9930 H   0  0  0  0  0  0  0  0  0  0  0  0
  1  2  1  0
  2  3  2  0
  2  4  1  0
  4  5  1  0
  5  6  1  0
  6  7  1  0
  4  8  1  0
  8  9  1  0
  9 10  1  0
 10 11  1  0
 11 12  1  0
 12 13  1  0
 13 14  1  0
 14 15  1  0
 15 16  1  0
 16 17  1  0
 17 18  1  0
 18 19  1  0
 19 20  1  0
 20 21  1  0
 18 22  1  0
 22 23  1  6
 23 24  2  0
 24 25  1  0
 25 26  2  0
 26 27  1  0
 27 28  2  0
 28 29  1  0
 22 30  1  0
  9 31  1  0
 31 32  1  0
 31 33  1  0
 30 15  1  0
 22 17  1  0
 28 23  1  0
 21 19  1  0
  1 34  1  0
  1 35  1  0
  1 36  1  0
  4 37  1  0
  6 38  1  0
  6 39  1  0
  7 40  1  0
  9 41  1  6
 10 42  1  0
 10 43  1  0
 11 44  1  0
 11 45  1  0
 12 46  1  0
 12 47  1  0
 13 48  1  0
 13 49  1  0
 14 50  1  0
 14 51  1  0
 15 52  1  6
 16 53  1  0
 16 54  1  0
 17 55  1  6
 18 56  1  6
 19 57  1  0
 20 58  1  0
 20 59  1  0
 21 60  1  0
 21 61  1  0
 24 62  1  0
 25 63  1  0
 26 64  1  0
 27 65  1  0
 29 66  1  0
 31 67  1  1
 32 68  1  0
 32 69  1  0
 32 70  1  0
 33 71  1  0
M  CHG  3  10   1  12   1  18   1
M  END

>  <ID>
DiffSBDD_30_num_sample_100

>  <docking_score>
-9.553

$$$$
DiffSBDD_31_num_sample_100
     RDKit          3D

 22 22  0  0  0  0  0  0  0  0999 V2000
   36.8750   28.0550   53.3240 O   0  0  0  0  0  0  0  0  0  0  0  0
   37.3330   28.4820   54.3840 C   0  0  0  0  0  0  0  0  0  0  0  0
   37.7520   27.7220   55.1150 O   0  0  0  0  0  0  0  0  0  0  0  0
   37.3060   29.9520   54.8340 C   0  0  1  0  0  0  0  0  0  0  0  0
   37.1610   30.1490   56.2390 O   0  0  0  0  0  0  0  0  0  0  0  0
   38.4970   30.7720   54.2690 C   0  0  0  0  0  0  0  0  0  0  0  0
   39.7540   30.3680   53.7930 C   0  0  0  0  0  0  0  0  0  0  0  0
   39.8770   30.5810   52.2150 C   0  0  1  0  0  0  0  0  0  0  0  0
   40.6680   30.3150   50.9770 C   0  0  0  0  0  0  0  0  0  0  0  0
   39.5390   29.4130   51.3730 C   0  0  1  0  0  0  0  0  0  0  0  0
   39.5870   27.5930   51.3780 S   0  0  0  0  0  0  0  0  0  0  0  0
   36.3801   30.3447   54.3886 H   0  0  0  0  0  0  0  0  0  0  0  0
   36.2550   30.4960   56.4320 H   0  0  0  0  0  0  0  0  0  0  0  0
   38.0595   31.3206   53.4219 H   0  0  0  0  0  0  0  0  0  0  0  0
   38.8440   31.1809   55.2294 H   0  0  0  0  0  0  0  0  0  0  0  0
   40.5337   30.9592   54.2956 H   0  0  0  0  0  0  0  0  0  0  0  0
   39.8768   29.2962   54.0077 H   0  0  0  0  0  0  0  0  0  0  0  0
   39.6708   31.5935   52.5923 H   0  0  0  0  0  0  0  0  0  0  0  0
   40.5660   30.9764   50.1040 H   0  0  0  0  0  0  0  0  0  0  0  0
   41.7343   30.1775   50.7446 H   0  0  0  0  0  0  0  0  0  0  0  0
   38.5529   29.0296   51.0720 H   0  0  0  0  0  0  0  0  0  0  0  0
   38.3860   27.1030   50.9360 H   0  0  0  0  0  0  0  0  0  0  0  0
  1  2  2  0
  2  3  1  0
  2  4  1  0
  4  5  1  0
  4  6  1  0
  6  7  1  0
  7  8  1  0
  8  9  1  0
  9 10  1  0
 10 11  1  0
 10  8  1  0
  4 12  1  6
  5 13  1  0
  6 14  1  0
  6 15  1  0
  7 16  1  0
  7 17  1  0
  8 18  1  6
  9 19  1  0
  9 20  1  0
 10 21  1  6
 11 22  1  0
M  CHG  1   3  -1
M  END

>  <ID>
DiffSBDD_31_num_sample_100

>  <docking_score>
-5.251

$$$$
DiffSBDD_32_num_sample_100
     RDKit          3D

 83 86  0  0  0  0  0  0  0  0999 V2000
   38.3380   24.0660   57.7300 C   0  0  0  0  0  0  0  0  0  0  0  0
   39.3990   25.2030   57.5230 C   0  0  0  0  0  0  0  0  0  0  0  0
   39.2820   25.5180   56.0650 C   0  0  0  0  0  0  0  0  0  0  0  0
   38.4200   26.6810   55.7440 C   0  0  2  0  0  0  0  0  0  0  0  0
   37.0700   26.4030   56.3390 C   0  0  0  0  0  0  0  0  0  0  0  0
   38.2500   27.0960   54.2490 C   0  0  0  0  0  0  0  0  0  0  0  0
   38.1680   28.3600   53.8580 C   0  0  2  0  0  0  0  0  0  0  0  0
   38.8630   28.8040   52.6980 N   0  0  1  0  0  0  0  0  0  0  0  0
   38.7460   28.0010   51.5450 C   0  0  0  0  0  0  0  0  0  0  0  0
   39.8400   28.3660   50.6300 C   0  0  0  0  0  0  0  0  0  0  0  0
   40.1840   29.7420   51.0200 C   0  0  1  0  0  0  0  0  0  0  0  0
   39.8080   30.8630   50.1170 C   0  0  0  0  0  0  0  0  0  0  0  0
   39.8580   30.3360   48.7810 O   0  0  0  0  0  0  0  0  0  0  0  0
   39.8050   29.9110   52.4550 C   0  0  0  0  0  0  0  0  0  0  0  0
   37.2660   29.3600   54.5970 C   0  0  0  0  0  0  0  0  0  0  0  0
   37.5300   30.8300   54.8390 C   0  0  0  0  0  0  0  0  0  0  0  0
   38.5850   31.8050   55.7660 C   0  0  1  0  0  0  0  0  0  0  0  0
   37.9280   33.1540   56.5910 N   0  0  0  0  0  0  0  0  0  0  0  0
   38.7840   33.6690   57.9440 C   0  0  0  0  0  0  0  0  0  0  0  0
   38.0480   33.3340   59.2540 C   0  0  2  0  0  0  0  0  0  0  0  0
   38.5080   34.5940   60.0800 C   0  0  0  0  0  0  0  0  0  0  0  0
   37.5350   35.7530   59.9350 C   0  0  0  0  0  0  0  0  0  0  0  0
   37.4670   36.7510   60.8750 C   0  0  2  0  0  0  0  0  0  0  0  0
   36.3560   37.7720   60.9290 O   0  0  0  0  0  0  0  0  0  0  0  0
   38.3780   37.2690   61.7500 C   0  0  0  0  0  0  0  0  0  0  0  0
   39.6420   36.7370   62.1140 C   0  0  0  0  0  0  0  0  0  0  0  0
   40.3650   37.4850   62.8890 O   0  0  0  0  0  0  0  0  0  0  0  0
   40.1180   35.5120   61.7780 C   0  0  0  0  0  0  0  0  0  0  0  0
   39.5540   34.5370   60.8750 C   0  0  0  0  0  0  0  0  0  0  0  0
   37.6870   31.7600   59.4760 C   0  0  2  0  0  0  0  0  0  0  0  0
   37.7580   30.9310   60.7780 C   0  0  0  0  0  0  0  0  0  0  0  0
   37.5490   31.3250   61.9390 O   0  0  0  0  0  0  0  0  0  0  0  0
   38.4970   29.7830   60.8020 O   0  0  0  0  0  0  0  0  0  0  0  0
   38.0330   30.8110   58.3170 C   0  0  0  0  0  0  0  0  0  0  0  0
   38.7890   30.6010   56.9570 C   0  0  1  0  0  0  0  0  0  0  0  0
   39.4690   29.3450   55.9150 C   0  0  0  0  0  0  0  0  0  0  0  0
   39.1380   27.9840   56.3690 O   0  0  0  0  0  0  0  0  0  0  0  0
   38.1834   23.9003   58.8064 H   0  0  0  0  0  0  0  0  0  0  0  0
   37.3867   24.3630   57.2644 H   0  0  0  0  0  0  0  0  0  0  0  0
   38.7000   23.1375   57.2644 H   0  0  0  0  0  0  0  0  0  0  0  0
   39.1588   26.0833   58.1373 H   0  0  0  0  0  0  0  0  0  0  0  0
   40.4152   24.9042   57.8197 H   0  0  0  0  0  0  0  0  0  0  0  0
   40.2909   25.7235   55.6779 H   0  0  0  0  0  0  0  0  0  0  0  0
   38.8058   24.6433   55.5980 H   0  0  0  0  0  0  0  0  0  0  0  0
   37.1429   26.4180   57.4365 H   0  0  0  0  0  0  0  0  0  0  0  0
   36.3578   27.1733   56.0082 H   0  0  0  0  0  0  0  0  0  0  0  0
   36.7201   25.4140   56.0082 H   0  0  0  0  0  0  0  0  0  0  0  0
   39.1115   26.6683   53.7153 H   0  0  0  0  0  0  0  0  0  0  0  0
   37.2354   26.7308   54.0319 H   0  0  0  0  0  0  0  0  0  0  0  0
   37.2933   28.1118   53.2389 H   0  0  0  0  0  0  0  0  0  0  0  0
   39.6400   28.2150   53.0290 H   0  0  0  0  0  0  0  0  0  0  0  0
   38.8260   26.9387   51.8190 H   0  0  0  0  0  0  0  0  0  0  0  0
   37.7710   28.1618   51.0619 H   0  0  0  0  0  0  0  0  0  0  0  0
   40.7013   27.6948   50.7626 H   0  0  0  0  0  0  0  0  0  0  0  0
   39.5523   28.2847   49.5714 H   0  0  0  0  0  0  0  0  0  0  0  0
   41.2716   29.8431   50.8899 H   0  0  0  0  0  0  0  0  0  0  0  0
   38.7925   31.2160   50.3499 H   0  0  0  0  0  0  0  0  0  0  0  0
   40.4886   31.7189   50.2359 H   0  0  0  0  0  0  0  0  0  0  0  0
   39.1280   30.7330   48.2420 H   0  0  0  0  0  0  0  0  0  0  0  0
   40.6871   29.8261   53.1067 H   0  0  0  0  0  0  0  0  0  0  0  0
   39.3685   30.8979   52.6681 H   0  0  0  0  0  0  0  0  0  0  0  0
   36.3098   29.3314   54.0539 H   0  0  0  0  0  0  0  0  0  0  0  0
   37.4015   28.9889   55.6236 H   0  0  0  0  0  0  0  0  0  0  0  0
   37.7236   31.1949   53.8195 H   0  0  0  0  0  0  0  0  0  0  0  0
   36.7073   30.9226   55.5632 H   0  0  0  0  0  0  0  0  0  0  0  0
   39.3979   32.2555   55.1776 H   0  0  0  0  0  0  0  0  0  0  0  0
   36.9750   32.9060   56.8950 H   0  0  0  0  0  0  0  0  0  0  0  0
   37.9620   33.9370   55.9220 H   0  0  0  0  0  0  0  0  0  0  0  0
   39.7665   33.1744   57.9521 H   0  0  0  0  0  0  0  0  0  0  0  0
   38.8894   34.7623   57.8835 H   0  0  0  0  0  0  0  0  0  0  0  0
   37.0129   33.2362   59.6132 H   0  0  0  0  0  0  0  0  0  0  0  0
   36.8716   35.7927   59.0585 H   0  0  0  0  0  0  0  0  0  0  0  0
   37.5305   35.6532   60.9021 H   0  0  0  0  0  0  0  0  0  0  0  0
   36.4220   38.2860   61.7730 H   0  0  0  0  0  0  0  0  0  0  0  0
   38.0972   38.2166   62.2328 H   0  0  0  0  0  0  0  0  0  0  0  0
   41.0634   35.2217   62.2596 H   0  0  0  0  0  0  0  0  0  0  0  0
   40.0936   33.5788   60.8471 H   0  0  0  0  0  0  0  0  0  0  0  0
   36.6636   32.1511   59.5746 H   0  0  0  0  0  0  0  0  0  0  0  0
   38.4678   29.9801   58.8919 H   0  0  0  0  0  0  0  0  0  0  0  0
   37.1552   31.1772   57.7644 H   0  0  0  0  0  0  0  0  0  0  0  0
   39.2739   30.3117   57.9010 H   0  0  0  0  0  0  0  0  0  0  0  0
   39.0745   29.4814   54.8973 H   0  0  0  0  0  0  0  0  0  0  0  0
   40.5638   29.4467   55.9461 H   0  0  0  0  0  0  0  0  0  0  0  0
  1  2  1  0
  2  3  1  0
  4  3  1  6
  4  5  1  0
  4  6  1  0
  6  7  1  0
  7  8  1  0
  8  9  1  0
  9 10  1  0
 10 11  1  0
 11 12  1  0
 12 13  1  0
 11 14  1  0
  7 15  1  0
 15 16  1  0
 16 17  1  0
 17 18  1  0
 18 19  1  0
 19 20  1  0
 20 21  1  0
 21 22  2  0
 22 23  1  0
 23 24  1  0
 23 25  1  0
 25 26  2  0
 26 27  1  0
 26 28  1  0
 28 29  2  0
 20 30  1  0
 30 31  1  0
 31 32  2  0
 31 33  1  0
 30 34  1  0
 34 35  1  0
 35 36  1  0
 36 37  1  0
 37  4  1  0
 14  8  1  0
 35 17  1  0
 29 21  1  0
  1 38  1  0
  1 39  1  0
  1 40  1  0
  2 41  1  0
  2 42  1  0
  3 43  1  0
  3 44  1  0
  5 45  1  0
  5 46  1  0
  5 47  1  0
  6 48  1  0
  6 49  1  0
  7 50  1  1
  8 51  1  6
  9 52  1  0
  9 53  1  0
 10 54  1  0
 10 55  1  0
 11 56  1  1
 12 57  1  0
 12 58  1  0
 13 59  1  0
 14 60  1  0
 14 61  1  0
 15 62  1  0
 15 63  1  0
 16 64  1  0
 16 65  1  0
 17 66  1  6
 18 67  1  0
 18 68  1  0
 19 69  1  0
 19 70  1  0
 20 71  1  6
 22 72  1  0
 23 73  1  1
 24 74  1  0
 25 75  1  0
 28 76  1  0
 29 77  1  0
 30 78  1  6
 34 79  1  0
 34 80  1  0
 35 81  1  1
 36 82  1  0
 36 83  1  0
M  CHG  4   8   1  18   1  27  -1  33  -1
M  END

>  <ID>
DiffSBDD_32_num_sample_100

>  <docking_score>
-12.575

$$$$
DiffSBDD_33_num_sample_100
     RDKit          3D

 54 57  0  0  0  0  0  0  0  0999 V2000
   35.2650   31.6300   61.3200 O   0  0  0  0  0  0  0  0  0  0  0  0
   35.9110   32.2120   60.5810 C   0  0  0  0  0  0  0  0  0  0  0  0
   37.3070   31.9270   60.1420 C   0  0  1  0  0  0  0  0  0  0  0  0
   38.4800   32.4070   60.8370 C   0  0  0  0  0  0  0  0  0  0  0  0
   39.0720   33.3290   59.9250 O   0  0  0  0  0  0  0  0  0  0  0  0
   39.3250   34.4750   60.5580 C   0  0  0  0  0  0  0  0  0  0  0  0
   40.4610   34.8700   61.2420 C   0  0  0  0  0  0  0  0  0  0  0  0
   40.5080   36.1840   61.8090 C   0  0  0  0  0  0  0  0  0  0  0  0
   39.5240   37.0540   61.6900 C   0  0  0  0  0  0  0  0  0  0  0  0
   39.8080   38.1830   62.2940 F   0  0  0  0  0  0  0  0  0  0  0  0
   38.3690   36.7400   60.9850 C   0  0  0  0  0  0  0  0  0  0  0  0
   38.2800   35.4310   60.3190 C   0  0  0  0  0  0  0  0  0  0  0  0
   37.3360   35.1940   59.4950 F   0  0  0  0  0  0  0  0  0  0  0  0
   37.5840   30.8660   59.1020 C   0  0  2  0  0  0  0  0  0  0  0  0
   37.7250   31.5820   57.9860 O   0  0  0  0  0  0  0  0  0  0  0  0
   37.5710   29.3330   58.8930 C   0  0  0  0  0  0  0  0  0  0  0  0
   38.6040   28.8420   58.0040 N   0  0  0  0  0  0  0  0  0  0  0  0
   38.6460   27.4290   57.7080 C   0  0  0  0  0  0  0  0  0  0  0  0
   38.8520   26.6010   58.6880 O   0  0  0  0  0  0  0  0  0  0  0  0
   38.5240   27.0540   56.3470 C   0  0  1  0  0  0  0  0  0  0  0  0
   37.5760   26.2180   55.6180 C   0  0  0  0  0  0  0  0  0  0  0  0
   37.5700   26.6320   54.1790 C   0  0  0  0  0  0  0  0  0  0  0  0
   38.4190   27.9210   54.1560 C   0  0  0  0  0  0  0  0  0  0  0  0
   38.9580   28.3180   55.3440 C   0  0  0  0  0  0  0  0  0  0  0  0
   39.5100   29.7000   55.2520 C   0  0  0  0  0  0  0  0  0  0  0  0
   39.7940   30.4040   54.1480 C   0  0  0  0  0  0  0  0  0  0  0  0
   39.5960   29.8860   52.9240 C   0  0  0  0  0  0  0  0  0  0  0  0
   40.2360   30.6680   51.6760 C   0  0  0  0  0  0  0  0  0  0  0  0
   40.1560   29.8370   50.3620 C   0  0  0  0  0  0  0  0  0  0  0  0
   39.5550   28.4760   50.4480 C   0  0  0  0  0  0  0  0  0  0  0  0
   38.9250   27.8680   51.5980 C   0  0  0  0  0  0  0  0  0  0  0  0
   38.4150   26.6900   51.4940 O   0  0  0  0  0  0  0  0  0  0  0  0
   38.9390   28.5700   52.9020 C   0  0  0  0  0  0  0  0  0  0  0  0
   35.4418   33.1006   60.1335 H   0  0  0  0  0  0  0  0  0  0  0  0
   36.9969   32.8757   59.6797 H   0  0  0  0  0  0  0  0  0  0  0  0
   38.1999   32.9102   61.7742 H   0  0  0  0  0  0  0  0  0  0  0  0
   39.1651   31.5942   61.1197 H   0  0  0  0  0  0  0  0  0  0  0  0
   41.3151   34.1850   61.3486 H   0  0  0  0  0  0  0  0  0  0  0  0
   41.4063   36.4815   62.3697 H   0  0  0  0  0  0  0  0  0  0  0  0
   37.5365   37.4566   60.9257 H   0  0  0  0  0  0  0  0  0  0  0  0
   37.8284   30.1601   59.9094 H   0  0  0  0  0  0  0  0  0  0  0  0
   36.9520   31.4190   57.3890 H   0  0  0  0  0  0  0  0  0  0  0  0
   37.7026   28.8509   59.8730 H   0  0  0  0  0  0  0  0  0  0  0  0
   36.6080   29.0884   58.4210 H   0  0  0  0  0  0  0  0  0  0  0  0
   39.2940   29.4860   57.5920 H   0  0  0  0  0  0  0  0  0  0  0  0
   39.1218   26.1723   56.6212 H   0  0  0  0  0  0  0  0  0  0  0  0
   36.9650   25.4142   56.0546 H   0  0  0  0  0  0  0  0  0  0  0  0
   37.0747   26.1327   53.3332 H   0  0  0  0  0  0  0  0  0  0  0  0
   39.7087   30.2041   56.2093 H   0  0  0  0  0  0  0  0  0  0  0  0
   40.1960   31.4233   54.2452 H   0  0  0  0  0  0  0  0  0  0  0  0
   40.6789   31.6728   51.7418 H   0  0  0  0  0  0  0  0  0  0  0  0
   40.5283   30.2385   49.4079 H   0  0  0  0  0  0  0  0  0  0  0  0
   39.5954   27.8657   49.5337 H   0  0  0  0  0  0  0  0  0  0  0  0
   37.7260   26.3900   52.1390 H   0  0  0  0  0  0  0  0  0  0  0  0
  1  2  2  0
  2  3  1  0
  3  4  1  0
  4  5  1  0
  5  6  1  0
  6  7  2  0
  7  8  1  0
  8  9  2  0
  9 10  1  0
  9 11  1  0
 11 12  2  0
 12 13  1  0
  3 14  1  0
 14 15  1  0
 14 16  1  0
 16 17  1  0
 17 18  1  0
 18 19  2  0
 18 20  1  0
 20 21  1  0
 21 22  2  0
 22 23  1  0
 23 24  2  0
 24 25  1  0
 25 26  2  0
 26 27  1  0
 27 28  2  0
 28 29  1  0
 29 30  2  0
 30 31  1  0
 31 32  1  0
 31 33  2  0
 12  6  1  0
 24 20  1  0
 33 27  1  0
 33 23  1  0
  2 34  1  0
  3 35  1  6
  4 36  1  0
  4 37  1  0
  7 38  1  0
  8 39  1  0
 11 40  1  0
 14 41  1  1
 15 42  1  0
 16 43  1  0
 16 44  1  0
 17 45  1  0
 20 46  1  1
 21 47  1  0
 22 48  1  0
 25 49  1  0
 26 50  1  0
 28 51  1  0
 29 52  1  0
 30 53  1  0
 32 54  1  0
M  END

>  <ID>
DiffSBDD_33_num_sample_100

>  <docking_score>
-11.279

$$$$
DiffSBDD_34_num_sample_100
     RDKit          3D

 20 19  0  0  0  0  0  0  0  0999 V2000
   38.4160   25.1300   55.4130 C   0  0  0  0  0  0  0  0  0  0  0  0
   39.9390   26.0020   54.9080 S   0  0  0  0  0  0  0  0  0  0  0  0
   38.8800   27.0670   53.8140 C   0  0  0  0  0  0  0  0  0  0  0  0
   39.5780   27.1960   52.5210 C   0  0  0  0  0  0  0  0  0  0  0  0
   38.8010   28.1970   51.6430 C   0  0  0  0  0  0  0  0  0  0  0  0
   39.7840   28.7800   50.6450 C   0  0  0  0  0  0  0  0  0  0  0  0
   40.0190   30.1900   50.8770 C   0  0  0  0  0  0  0  0  0  0  0  0
   40.0740   30.6540   52.0180 O   0  0  0  0  0  0  0  0  0  0  0  0
   40.1070   30.9410   49.8670 O   0  0  0  0  0  0  0  0  0  0  0  0
   38.3591   25.0974   56.5110 H   0  0  0  0  0  0  0  0  0  0  0  0
   37.5395   25.6631   55.0161 H   0  0  0  0  0  0  0  0  0  0  0  0
   38.4320   24.1042   55.0161 H   0  0  0  0  0  0  0  0  0  0  0  0
   37.8974   26.5952   53.6662 H   0  0  0  0  0  0  0  0  0  0  0  0
   38.7181   28.0548   54.2700 H   0  0  0  0  0  0  0  0  0  0  0  0
   40.6011   27.5643   52.6869 H   0  0  0  0  0  0  0  0  0  0  0  0
   39.6294   26.2174   52.0213 H   0  0  0  0  0  0  0  0  0  0  0  0
   37.9879   27.6800   51.1123 H   0  0  0  0  0  0  0  0  0  0  0  0
   38.3551   28.9913   52.2596 H   0  0  0  0  0  0  0  0  0  0  0  0
   40.7394   28.2416   50.7313 H   0  0  0  0  0  0  0  0  0  0  0  0
   39.3541   28.6678   49.6387 H   0  0  0  0  0  0  0  0  0  0  0  0
  1  2  1  0
  2  3  1  0
  3  4  1  0
  4  5  1  0
  5  6  1  0
  6  7  1  0
  7  8  2  0
  7  9  1  0
  1 10  1  0
  1 11  1  0
  1 12  1  0
  3 13  1  0
  3 14  1  0
  4 15  1  0
  4 16  1  0
  5 17  1  0
  5 18  1  0
  6 19  1  0
  6 20  1  0
M  CHG  1   9  -1
M  END

>  <ID>
DiffSBDD_34_num_sample_100

>  <docking_score>
-4.47

$$$$
DiffSBDD_35_num_sample_100
     RDKit          3D

 23 23  0  0  0  0  0  0  0  0999 V2000
   39.4370   30.8240   54.2930 C   0  0  0  0  0  0  0  0  0  0  0  0
   39.5390   29.9850   53.0530 C   0  0  0  0  0  0  0  0  0  0  0  0
   40.1150   30.5180   51.8710 C   0  0  0  0  0  0  0  0  0  0  0  0
   40.1330   29.7130   50.6610 C   0  0  0  0  0  0  0  0  0  0  0  0
   39.5810   28.4820   50.6730 C   0  0  0  0  0  0  0  0  0  0  0  0
   39.0530   27.9430   51.8110 C   0  0  0  0  0  0  0  0  0  0  0  0
   39.0170   28.6420   53.0250 C   0  0  0  0  0  0  0  0  0  0  0  0
   38.5150   28.0710   54.2130 O   0  0  0  0  0  0  0  0  0  0  0  0
   38.4280   26.6450   54.3800 C   0  0  0  0  0  0  0  0  0  0  0  0
   39.8180   25.9330   54.7870 C   0  0  0  0  0  0  0  0  0  0  0  0
   40.0120   25.9010   56.1620 N   0  0  0  0  0  0  0  0  0  0  0  0
   40.5550   25.5550   53.8900 O   0  0  0  0  0  0  0  0  0  0  0  0
   39.5155   30.1783   55.1801 H   0  0  0  0  0  0  0  0  0  0  0  0
   40.2519   31.5627   54.3039 H   0  0  0  0  0  0  0  0  0  0  0  0
   38.4688   31.3460   54.3039 H   0  0  0  0  0  0  0  0  0  0  0  0
   40.5439   31.5309   51.8704 H   0  0  0  0  0  0  0  0  0  0  0  0
   40.5934   30.1046   49.7420 H   0  0  0  0  0  0  0  0  0  0  0  0
   39.5556   27.8973   49.7416 H   0  0  0  0  0  0  0  0  0  0  0  0
   38.6412   26.9237   51.7735 H   0  0  0  0  0  0  0  0  0  0  0  0
   37.6908   26.4358   55.1692 H   0  0  0  0  0  0  0  0  0  0  0  0
   38.1397   26.2324   53.4019 H   0  0  0  0  0  0  0  0  0  0  0  0
   40.8640   25.4730   56.5520 H   0  0  0  0  0  0  0  0  0  0  0  0
   39.3050   26.3070   56.7920 H   0  0  0  0  0  0  0  0  0  0  0  0
  1  2  1  0
  2  3  2  0
  3  4  1  0
  4  5  2  0
  5  6  1  0
  6  7  2  0
  7  8  1  0
  8  9  1  0
  9 10  1  0
 10 11  1  0
 10 12  2  0
  7  2  1  0
  1 13  1  0
  1 14  1  0
  1 15  1  0
  3 16  1  0
  4 17  1  0
  5 18  1  0
  6 19  1  0
  9 20  1  0
  9 21  1  0
 11 22  1  0
 11 23  1  0
M  END

>  <ID>
DiffSBDD_35_num_sample_100

>  <docking_score>
-6.699

$$$$
DiffSBDD_36_num_sample_100
     RDKit          3D

 51 52  0  0  0  0  0  0  0  0999 V2000
   39.5280   28.0990   59.3280 C   0  0  0  0  0  0  0  0  0  0  0  0
   39.8600   29.0870   58.3210 O   0  0  0  0  0  0  0  0  0  0  0  0
   38.7740   29.8310   57.3990 S   0  0  1  0  0  4  0  0  0  0  0  0
   37.2960   29.3230   57.9080 C   0  0  0  0  0  0  0  0  0  0  0  0
   38.6250   31.6140   57.4190 C   0  0  0  0  0  0  0  0  0  0  0  0
   38.3930   32.1010   58.8410 C   0  0  0  0  0  0  0  0  0  0  0  0
   37.7610   33.4690   58.8940 C   0  0  1  0  0  0  0  0  0  0  0  0
   37.2370   33.9480   57.7250 O   0  0  0  0  0  0  0  0  0  0  0  0
   37.8320   34.3630   60.1750 C   0  0  0  0  0  0  0  0  0  0  0  0
   36.9180   35.5980   60.3960 C   0  0  2  0  0  0  0  0  0  0  0  0
   36.9140   36.4930   59.2760 O   0  0  0  0  0  0  0  0  0  0  0  0
   37.2910   36.3610   61.6810 C   0  0  0  0  0  0  0  0  0  0  0  0
   37.5250   37.7310   61.5550 C   0  0  0  0  0  0  0  0  0  0  0  0
   38.6680   37.9820   61.5240 O   0  0  0  0  0  0  0  0  0  0  0  0
   36.4340   38.4170   61.5640 O   0  0  0  0  0  0  0  0  0  0  0  0
   39.0910   28.8850   56.0180 C   0  0  1  0  0  0  0  0  0  0  0  0
   38.1440   27.8160   55.9330 C   0  0  0  0  0  0  0  0  0  0  0  0
   38.1670   27.2980   54.6170 C   0  0  0  0  0  0  0  0  0  0  0  0
   38.8050   28.2920   53.7810 C   0  0  0  0  0  0  0  0  0  0  0  0
   39.0260   28.3250   52.3280 C   0  0  0  0  0  0  0  0  0  0  0  0
   38.8050   27.2390   51.6580 F   0  0  0  0  0  0  0  0  0  0  0  0
   39.5280   29.4790   51.7250 C   0  0  0  0  0  0  0  0  0  0  0  0
   39.8720   30.5540   52.5070 C   0  0  0  0  0  0  0  0  0  0  0  0
   39.7600   30.4810   53.9020 C   0  0  0  0  0  0  0  0  0  0  0  0
   39.2530   29.3560   54.5820 C   0  0  0  0  0  0  0  0  0  0  0  0
   39.6735   28.5321   60.3286 H   0  0  0  0  0  0  0  0  0  0  0  0
   38.4779   27.7936   59.2098 H   0  0  0  0  0  0  0  0  0  0  0  0
   40.1806   27.2214   59.2098 H   0  0  0  0  0  0  0  0  0  0  0  0
   37.2700   29.3141   59.0077 H   0  0  0  0  0  0  0  0  0  0  0  0
   36.5225   30.0069   57.5285 H   0  0  0  0  0  0  0  0  0  0  0  0
   37.1064   28.3081   57.5285 H   0  0  0  0  0  0  0  0  0  0  0  0
   39.5505   32.0612   57.0273 H   0  0  0  0  0  0  0  0  0  0  0  0
   37.7719   31.9120   56.7917 H   0  0  0  0  0  0  0  0  0  0  0  0
   37.7306   31.3877   59.3532 H   0  0  0  0  0  0  0  0  0  0  0  0
   39.3750   32.1705   59.3318 H   0  0  0  0  0  0  0  0  0  0  0  0
   38.7304   33.9264   58.6469 H   0  0  0  0  0  0  0  0  0  0  0  0
   37.4610   34.9090   57.6320 H   0  0  0  0  0  0  0  0  0  0  0  0
   37.6432   33.6904   61.0247 H   0  0  0  0  0  0  0  0  0  0  0  0
   38.8177   34.8370   60.0580 H   0  0  0  0  0  0  0  0  0  0  0  0
   35.8987   35.1992   60.5059 H   0  0  0  0  0  0  0  0  0  0  0  0
   37.7700   36.4120   58.7860 H   0  0  0  0  0  0  0  0  0  0  0  0
   36.4667   36.2289   62.3973 H   0  0  0  0  0  0  0  0  0  0  0  0
   38.2529   35.9334   62.0001 H   0  0  0  0  0  0  0  0  0  0  0  0
   40.1429   28.7177   56.2927 H   0  0  0  0  0  0  0  0  0  0  0  0
   38.4132   27.0244   56.6478 H   0  0  0  0  0  0  0  0  0  0  0  0
   37.1365   28.1857   56.1744 H   0  0  0  0  0  0  0  0  0  0  0  0
   38.7393   26.3590   54.5908 H   0  0  0  0  0  0  0  0  0  0  0  0
   37.1482   27.0829   54.2624 H   0  0  0  0  0  0  0  0  0  0  0  0
   39.6471   29.5271   50.6325 H   0  0  0  0  0  0  0  0  0  0  0  0
   40.2377   31.4781   52.0356 H   0  0  0  0  0  0  0  0  0  0  0  0
   40.0849   31.3472   54.4971 H   0  0  0  0  0  0  0  0  0  0  0  0
  1  2  1  0
  3  2  1  1
  3  4  1  0
  3  5  1  0
  5  6  1  0
  6  7  1  0
  7  8  1  0
  7  9  1  0
  9 10  1  0
 10 11  1  0
 10 12  1  0
 12 13  1  0
 13 14  2  0
 13 15  1  0
  3 16  1  0
 16 17  1  0
 17 18  1  0
 18 19  1  0
 19 20  2  0
 20 21  1  0
 20 22  1  0
 22 23  2  0
 23 24  1  0
 24 25  2  0
 25 16  1  0
 25 19  1  0
  1 26  1  0
  1 27  1  0
  1 28  1  0
  4 29  1  0
  4 30  1  0
  4 31  1  0
  5 32  1  0
  5 33  1  0
  6 34  1  0
  6 35  1  0
  7 36  1  1
  8 37  1  0
  9 38  1  0
  9 39  1  0
 10 40  1  1
 11 41  1  0
 12 42  1  0
 12 43  1  0
 16 44  1  1
 17 45  1  0
 17 46  1  0
 18 47  1  0
 18 48  1  0
 22 49  1  0
 23 50  1  0
 24 51  1  0
M  CHG  1  15  -1
M  END

>  <ID>
DiffSBDD_36_num_sample_100

>  <docking_score>
-8.085

$$$$
DiffSBDD_37_num_sample_100
     RDKit          3D

 23 23  0  0  0  0  0  0  0  0999 V2000
   37.4930   25.7890   55.0720 C   0  0  0  0  0  0  0  0  0  0  0  0
   37.7390   26.7680   54.2050 C   0  0  1  0  0  0  0  0  0  0  0  0
   39.3670   26.8770   54.2480 C   0  0  0  0  0  0  0  0  0  0  0  0
   39.7730   26.8510   52.8480 O   0  0  0  0  0  0  0  0  0  0  0  0
   40.0910   26.4610   55.1050 O   0  0  0  0  0  0  0  0  0  0  0  0
   36.4490   26.6060   53.6720 O   0  0  0  0  0  0  0  0  0  0  0  0
   37.6280   27.9820   53.5610 C   0  0  2  0  0  0  0  0  0  0  0  0
   37.1800   28.2790   52.3980 O   0  0  0  0  0  0  0  0  0  0  0  0
   38.2400   29.0130   54.2320 C   0  0  1  0  0  0  0  0  0  0  0  0
   39.3900   29.8850   53.5760 O   0  0  0  0  0  0  0  0  0  0  0  0
   37.3250   29.5940   55.2750 C   0  0  0  0  0  0  0  0  0  0  0  0
   36.6260   30.7320   54.6650 N   0  0  0  0  0  0  0  0  0  0  0  0
   37.5899   26.1746   56.0976 H   0  0  0  0  0  0  0  0  0  0  0  0
   36.4718   25.4104   54.9175 H   0  0  0  0  0  0  0  0  0  0  0  0
   38.2139   24.9727   54.9175 H   0  0  0  0  0  0  0  0  0  0  0  0
   37.2400   27.4860   51.8080 H   0  0  0  0  0  0  0  0  0  0  0  0
   39.0775   28.5388   54.7646 H   0  0  0  0  0  0  0  0  0  0  0  0
   39.3630   30.8020   53.9490 H   0  0  0  0  0  0  0  0  0  0  0  0
   36.5967   28.8363   55.5997 H   0  0  0  0  0  0  0  0  0  0  0  0
   37.8985   29.9187   56.1557 H   0  0  0  0  0  0  0  0  0  0  0  0
   35.7080   30.8530   55.1170 H   0  0  0  0  0  0  0  0  0  0  0  0
   37.1860   31.5870   54.7910 H   0  0  0  0  0  0  0  0  0  0  0  0
   36.4920   30.5540   53.6590 H   0  0  0  0  0  0  0  0  0  0  0  0
  2  1  1  1
  2  3  1  0
  3  4  2  0
  3  5  1  0
  2  6  1  0
  6  7  1  0
  7  8  1  6
  7  9  1  0
  9 10  1  0
  9 11  1  0
 11 12  1  0
  7  2  1  0
  1 13  1  0
  1 14  1  0
  1 15  1  0
  8 16  1  0
  9 17  1  1
 10 18  1  0
 11 19  1  0
 11 20  1  0
 12 21  1  0
 12 22  1  0
 12 23  1  0
M  CHG  2   5  -1  12   1
M  END

>  <ID>
DiffSBDD_37_num_sample_100

>  <docking_score>
-4.996

$$$$
DiffSBDD_38_num_sample_100
     RDKit          3D

 81 83  0  0  0  0  0  0  0  0999 V2000
   38.2090   25.0550   58.0900 C   0  0  0  0  0  0  0  0  0  0  0  0
   38.4750   24.7020   56.6550 C   0  0  0  0  0  0  0  0  0  0  0  0
   39.7440   25.1810   56.2410 O   0  0  0  0  0  0  0  0  0  0  0  0
   39.7880   26.0670   55.1270 C   0  0  0  0  0  0  0  0  0  0  0  0
   39.5790   27.5260   55.5650 C   0  0  0  0  0  0  0  0  0  0  0  0
   38.9870   28.2600   54.4270 C   0  0  1  0  0  0  0  0  0  0  0  0
   37.4960   28.6090   54.8080 C   0  0  0  0  0  0  0  0  0  0  0  0
   37.1200   30.0670   55.1140 C   0  0  0  0  0  0  0  0  0  0  0  0
   37.5120   30.6840   56.4200 N   0  0  2  0  0  0  0  0  0  0  0  0
   38.6780   31.4460   56.1400 C   0  0  0  0  0  0  0  0  0  0  0  0
   37.5040   29.7610   57.4930 C   0  0  0  0  0  0  0  0  0  0  0  0
   38.6000   30.0090   58.7500 C   0  0  0  0  0  0  0  0  0  0  0  0
   39.4390   29.0070   59.0760 C   0  0  0  0  0  0  0  0  0  0  0  0
   40.1990   28.8900   60.2130 C   0  0  0  0  0  0  0  0  0  0  0  0
   40.2390   29.9240   61.2800 C   0  0  0  0  0  0  0  0  0  0  0  0
   39.7900   31.2410   61.1230 C   0  0  2  0  0  0  0  0  0  0  0  0
   39.8250   31.8630   62.5990 O   0  0  0  0  0  0  0  0  0  0  0  0
   38.5960   31.9760   60.4350 C   0  0  1  0  0  0  0  0  0  0  0  0
   37.2080   32.2470   61.1800 C   0  0  0  0  0  0  0  0  0  0  0  0
   39.1950   33.4300   60.0630 C   0  0  0  0  0  0  0  0  0  0  0  0
   39.4570   34.6780   60.7540 C   0  0  0  0  0  0  0  0  0  0  0  0
   40.6690   34.9710   61.4280 C   0  0  0  0  0  0  0  0  0  0  0  0
   40.8190   36.1920   62.1790 C   0  0  0  0  0  0  0  0  0  0  0  0
   39.8040   37.1650   62.1080 C   0  0  0  0  0  0  0  0  0  0  0  0
   39.9700   38.3920   62.5690 O   0  0  0  0  0  0  0  0  0  0  0  0
   38.5790   36.8310   61.4680 C   0  0  0  0  0  0  0  0  0  0  0  0
   37.3750   37.7230   61.4170 C   0  0  0  0  0  0  0  0  0  0  0  0
   38.4290   35.6240   60.7670 C   0  0  0  0  0  0  0  0  0  0  0  0
   38.3790   31.2590   59.2200 C   0  0  0  0  0  0  0  0  0  0  0  0
   39.3110   28.7310   52.9360 C   0  0  0  0  0  0  0  0  0  0  0  0
   39.6940   30.1170   52.8710 C   0  0  0  0  0  0  0  0  0  0  0  0
   40.0420   30.6850   51.6590 C   0  0  0  0  0  0  0  0  0  0  0  0
   40.0960   29.9310   50.5400 C   0  0  0  0  0  0  0  0  0  0  0  0
   39.8360   28.5700   50.6800 C   0  0  0  0  0  0  0  0  0  0  0  0
   39.8830   27.8490   49.5790 F   0  0  0  0  0  0  0  0  0  0  0  0
   39.4730   27.9560   51.8770 C   0  0  0  0  0  0  0  0  0  0  0  0
   38.7405   24.3496   58.7457 H   0  0  0  0  0  0  0  0  0  0  0  0
   38.5631   26.0775   58.2878 H   0  0  0  0  0  0  0  0  0  0  0  0
   37.1285   24.9965   58.2878 H   0  0  0  0  0  0  0  0  0  0  0  0
   38.4493   23.6080   56.5429 H   0  0  0  0  0  0  0  0  0  0  0  0
   37.7018   25.1716   56.0293 H   0  0  0  0  0  0  0  0  0  0  0  0
   40.7683   25.9771   54.6362 H   0  0  0  0  0  0  0  0  0  0  0  0
   38.9791   25.7934   54.4336 H   0  0  0  0  0  0  0  0  0  0  0  0
   38.8988   27.5634   56.4287 H   0  0  0  0  0  0  0  0  0  0  0  0
   40.5373   27.9799   55.8577 H   0  0  0  0  0  0  0  0  0  0  0  0
   38.6521   27.3088   53.9877 H   0  0  0  0  0  0  0  0  0  0  0  0
   36.8655   28.2847   53.9670 H   0  0  0  0  0  0  0  0  0  0  0  0
   37.3449   28.0939   55.7681 H   0  0  0  0  0  0  0  0  0  0  0  0
   37.5720   30.6839   54.3233 H   0  0  0  0  0  0  0  0  0  0  0  0
   36.0217   30.0381   55.1683 H   0  0  0  0  0  0  0  0  0  0  0  0
   36.8230   31.3420   56.8090 H   0  0  0  0  0  0  0  0  0  0  0  0
   39.1500   31.7545   57.0845 H   0  0  0  0  0  0  0  0  0  0  0  0
   39.3847   30.8349   55.5594 H   0  0  0  0  0  0  0  0  0  0  0  0
   38.4020   32.3386   55.5594 H   0  0  0  0  0  0  0  0  0  0  0  0
   36.4947   29.7744   57.9301 H   0  0  0  0  0  0  0  0  0  0  0  0
   37.8120   28.8068   57.0405 H   0  0  0  0  0  0  0  0  0  0  0  0
   39.5251   28.1879   58.3469 H   0  0  0  0  0  0  0  0  0  0  0  0
   39.8661   27.9635   60.7038 H   0  0  0  0  0  0  0  0  0  0  0  0
   41.2163   28.9652   59.8013 H   0  0  0  0  0  0  0  0  0  0  0  0
   39.6557   29.5099   62.1156 H   0  0  0  0  0  0  0  0  0  0  0  0
   41.3235   30.0865   61.3668 H   0  0  0  0  0  0  0  0  0  0  0  0
   40.4239   31.3637   60.2324 H   0  0  0  0  0  0  0  0  0  0  0  0
   39.3240   31.2730   63.2170 H   0  0  0  0  0  0  0  0  0  0  0  0
   37.3640   32.2165   62.2685 H   0  0  0  0  0  0  0  0  0  0  0  0
   36.8245   33.2370   60.8921 H   0  0  0  0  0  0  0  0  0  0  0  0
   36.4803   31.4740   60.8921 H   0  0  0  0  0  0  0  0  0  0  0  0
   40.1853   33.1767   59.6566 H   0  0  0  0  0  0  0  0  0  0  0  0
   38.2550   33.7868   59.6167 H   0  0  0  0  0  0  0  0  0  0  0  0
   41.5051   34.2580   61.3773 H   0  0  0  0  0  0  0  0  0  0  0  0
   41.7125   36.3610   62.7979 H   0  0  0  0  0  0  0  0  0  0  0  0
   40.1580   38.5380   63.5290 H   0  0  0  0  0  0  0  0  0  0  0  0
   37.0522   37.9621   62.4410 H   0  0  0  0  0  0  0  0  0  0  0  0
   37.6294   38.6523   60.8863 H   0  0  0  0  0  0  0  0  0  0  0  0
   36.5601   37.2090   60.8863 H   0  0  0  0  0  0  0  0  0  0  0  0
   37.4944   35.4214   60.2235 H   0  0  0  0  0  0  0  0  0  0  0  0
   37.2945   31.3723   59.0751 H   0  0  0  0  0  0  0  0  0  0  0  0
   39.2674   31.6805   58.7269 H   0  0  0  0  0  0  0  0  0  0  0  0
   39.7099   30.7256   53.7871 H   0  0  0  0  0  0  0  0  0  0  0  0
   40.2764   31.7584   51.6061 H   0  0  0  0  0  0  0  0  0  0  0  0
   40.3348   30.3723   49.5611 H   0  0  0  0  0  0  0  0  0  0  0  0
   39.3267   26.8675   51.9386 H   0  0  0  0  0  0  0  0  0  0  0  0
  1  2  1  0
  2  3  1  0
  3  4  1  0
  4  5  1  0
  5  6  1  0
  6  7  1  0
  7  8  1  0
  8  9  1  0
  9 10  1  0
  9 11  1  0
 11 12  1  0
 12 13  2  0
 13 14  1  0
 14 15  1  0
 15 16  1  0
 16 17  1  0
 16 18  1  0
 18 19  1  1
 18 20  1  0
 20 21  1  0
 21 22  2  0
 22 23  1  0
 23 24  2  0
 24 25  1  0
 24 26  1  0
 26 27  1  0
 26 28  2  0
 18 29  1  0
  6 30  1  0
 30 31  2  0
 31 32  1  0
 32 33  2  0
 33 34  1  0
 34 35  1  0
 34 36  2  0
 29 12  1  0
 36 30  1  0
 28 21  1  0
  1 37  1  0
  1 38  1  0
  1 39  1  0
  2 40  1  0
  2 41  1  0
  4 42  1  0
  4 43  1  0
  5 44  1  0
  5 45  1  0
  6 46  1  1
  7 47  1  0
  7 48  1  0
  8 49  1  0
  8 50  1  0
  9 51  1  1
 10 52  1  0
 10 53  1  0
 10 54  1  0
 11 55  1  0
 11 56  1  0
 13 57  1  0
 14 58  1  0
 14 59  1  0
 15 60  1  0
 15 61  1  0
 16 62  1  6
 17 63  1  0
 19 64  1  0
 19 65  1  0
 19 66  1  0
 20 67  1  0
 20 68  1  0
 22 69  1  0
 23 70  1  0
 25 71  1  0
 27 72  1  0
 27 73  1  0
 27 74  1  0
 28 75  1  0
 29 76  1  0
 29 77  1  0
 31 78  1  0
 32 79  1  0
 33 80  1  0
 36 81  1  0
M  CHG  1   9   1
M  END

>  <ID>
DiffSBDD_38_num_sample_100

>  <docking_score>
-10.807

$$$$
DiffSBDD_39_num_sample_100
     RDKit          3D

 60 63  0  0  0  0  0  0  0  0999 V2000
   40.2580   30.7530   49.8960 O   0  0  0  0  0  0  0  0  0  0  0  0
   40.0660   30.1460   50.9990 C   0  0  0  0  0  0  0  0  0  0  0  0
   40.1520   30.7620   52.0700 O   0  0  0  0  0  0  0  0  0  0  0  0
   39.6990   28.6890   50.9860 C   0  0  0  0  0  0  0  0  0  0  0  0
   39.1030   27.6390   51.6090 C   0  0  0  0  0  0  0  0  0  0  0  0
   39.2390   27.4330   53.0370 C   0  0  0  0  0  0  0  0  0  0  0  0
   39.9090   26.2620   53.5520 C   0  0  0  0  0  0  0  0  0  0  0  0
   39.8650   25.9270   54.9590 C   0  0  0  0  0  0  0  0  0  0  0  0
   39.1010   26.8560   55.8520 C   0  0  0  0  0  0  0  0  0  0  0  0
   38.6720   28.0950   55.3580 C   0  0  0  0  0  0  0  0  0  0  0  0
   38.7660   28.3780   53.9530 C   0  0  0  0  0  0  0  0  0  0  0  0
   38.0680   29.1880   56.3930 C   0  0  0  0  0  0  0  0  0  0  0  0
   37.7100   30.1310   55.8910 O   0  0  0  0  0  0  0  0  0  0  0  0
   38.6050   29.6290   57.6370 N   0  0  0  0  0  0  0  0  0  0  0  0
   38.0630   30.8540   58.3800 C   0  0  0  0  0  0  0  0  0  0  0  0
   38.6000   32.1880   58.4110 C   0  0  0  0  0  0  0  0  0  0  0  0
   37.7990   33.1260   59.2870 C   0  0  0  0  0  0  0  0  0  0  0  0
   38.3100   33.4220   60.7260 C   0  0  0  0  0  0  0  0  0  0  0  0
   39.6010   33.0160   60.9900 C   0  0  0  0  0  0  0  0  0  0  0  0
   40.2840   33.2860   62.1940 C   0  0  0  0  0  0  0  0  0  0  0  0
   40.8490   34.6370   62.5450 C   0  0  0  0  0  0  0  0  0  0  0  0
   40.4550   36.2060   61.7810 Cl  0  0  0  0  0  0  0  0  0  0  0  0
   41.6360   34.9290   63.6380 N   0  0  0  0  0  0  0  0  0  0  0  0
   41.8000   33.8850   64.5210 C   0  0  0  0  0  0  0  0  0  0  0  0
   41.0960   32.6690   64.4270 C   0  0  0  0  0  0  0  0  0  0  0  0
   40.4480   32.3150   63.2760 C   0  0  0  0  0  0  0  0  0  0  0  0
   39.9880   30.9690   63.0660 O   0  0  0  0  0  0  0  0  0  0  0  0
   40.8910   32.0000   65.9980 S   0  0  0  0  0  0  0  0  0  0  0  0
   42.3900   32.8620   66.5350 C   0  0  0  0  0  0  0  0  0  0  0  0
   42.6860   33.9630   65.7080 C   0  0  0  0  0  0  0  0  0  0  0  0
   39.5220   28.5970   58.2520 C   0  0  1  0  0  0  0  0  0  0  0  0
   39.8810   28.8630   59.7280 C   0  0  0  0  0  0  0  0  0  0  0  0
   39.0680   28.2800   60.3820 O   0  0  0  0  0  0  0  0  0  0  0  0
   40.8590   29.6050   60.1760 O   0  0  0  0  0  0  0  0  0  0  0  0
   38.7390   27.2470   58.4610 C   0  0  0  0  0  0  0  0  0  0  0  0
   39.0450   26.2550   57.3300 C   0  0  0  0  0  0  0  0  0  0  0  0
   39.1507   28.6578   50.0329 H   0  0  0  0  0  0  0  0  0  0  0  0
   40.6316   28.4622   51.5234 H   0  0  0  0  0  0  0  0  0  0  0  0
   38.0251   27.7299   51.4092 H   0  0  0  0  0  0  0  0  0  0  0  0
   39.6437   26.7767   51.1917 H   0  0  0  0  0  0  0  0  0  0  0  0
   40.4643   25.6113   52.8604 H   0  0  0  0  0  0  0  0  0  0  0  0
   40.3687   25.0325   55.3542 H   0  0  0  0  0  0  0  0  0  0  0  0
   38.4566   29.3679   53.5864 H   0  0  0  0  0  0  0  0  0  0  0  0
   37.0380   30.9770   58.0002 H   0  0  0  0  0  0  0  0  0  0  0  0
   38.3224   30.5504   59.4050 H   0  0  0  0  0  0  0  0  0  0  0  0
   39.6297   32.1428   58.7952 H   0  0  0  0  0  0  0  0  0  0  0  0
   38.5623   32.5825   57.3848 H   0  0  0  0  0  0  0  0  0  0  0  0
   37.7392   34.0896   58.7599 H   0  0  0  0  0  0  0  0  0  0  0  0
   36.8473   32.5974   59.4446 H   0  0  0  0  0  0  0  0  0  0  0  0
   37.6846   33.9208   61.4810 H   0  0  0  0  0  0  0  0  0  0  0  0
   40.1313   32.4459   60.2130 H   0  0  0  0  0  0  0  0  0  0  0  0
   42.2453   33.2195   67.5652 H   0  0  0  0  0  0  0  0  0  0  0  0
   43.2304   32.1547   66.4758 H   0  0  0  0  0  0  0  0  0  0  0  0
   42.5017   34.9009   66.2523 H   0  0  0  0  0  0  0  0  0  0  0  0
   43.7426   33.9431   65.4027 H   0  0  0  0  0  0  0  0  0  0  0  0
   40.3877   28.5990   57.5734 H   0  0  0  0  0  0  0  0  0  0  0  0
   39.0387   26.8019   59.4212 H   0  0  0  0  0  0  0  0  0  0  0  0
   37.6603   27.4623   58.4571 H   0  0  0  0  0  0  0  0  0  0  0  0
   40.0225   25.7974   57.5421 H   0  0  0  0  0  0  0  0  0  0  0  0
   38.2016   25.5488   57.3257 H   0  0  0  0  0  0  0  0  0  0  0  0
  1  2  2  0
  2  3  1  0
  2  4  1  0
  4  5  1  0
  5  6  1  0
  6  7  2  0
  7  8  1  0
  8  9  2  0
  9 10  1  0
 10 11  2  0
 10 12  1  0
 12 13  2  0
 12 14  1  0
 14 15  1  0
 15 16  1  0
 16 17  1  0
 17 18  1  0
 18 19  2  3
 19 20  1  0
 20 21  2  0
 21 22  1  0
 21 23  1  0
 23 24  2  0
 24 25  1  0
 25 26  2  0
 26 27  1  0
 25 28  1  0
 28 29  1  0
 29 30  1  0
 14 31  1  0
 31 32  1  0
 32 33  2  0
 32 34  1  0
 31 35  1  0
 35 36  1  0
 11  6  1  0
 26 20  1  0
 36  9  1  0
 30 24  1  0
  4 37  1  0
  4 38  1  0
  5 39  1  0
  5 40  1  0
  7 41  1  0
  8 42  1  0
 11 43  1  0
 15 44  1  0
 15 45  1  0
 16 46  1  0
 16 47  1  0
 17 48  1  0
 17 49  1  0
 18 50  1  0
 19 51  1  0
 29 52  1  0
 29 53  1  0
 30 54  1  0
 30 55  1  0
 31 56  1  6
 35 57  1  0
 35 58  1  0
 36 59  1  0
 36 60  1  0
M  CHG  3   3  -1  27  -1  34  -1
M  END

>  <ID>
DiffSBDD_39_num_sample_100

>  <docking_score>
-10.596

$$$$
DiffSBDD_3_num_sample_100
     RDKit          3D

 18 17  0  0  0  0  0  0  0  0999 V2000
   39.8290   24.6480   57.2210 O   0  0  0  0  0  0  0  0  0  0  0  0
   38.8350   25.1460   56.2810 C   0  0  0  0  0  0  0  0  0  0  0  0
   39.5230   25.6270   55.0510 C   0  0  0  0  0  0  0  0  0  0  0  0
   39.1890   27.0340   54.7880 O   0  0  0  0  0  0  0  0  0  0  0  0
   37.7710   27.2220   54.7380 C   0  0  0  0  0  0  0  0  0  0  0  0
   37.3440   28.1420   53.5430 C   0  0  0  0  0  0  0  0  0  0  0  0
   38.9090   28.8440   52.9390 S   0  0  0  0  0  0  0  0  0  0  0  0
   39.0880   27.8700   51.2430 S   0  0  0  0  0  0  0  0  0  0  0  0
   40.2680   25.4110   57.6730 H   0  0  0  0  0  0  0  0  0  0  0  0
   38.1374   24.3366   56.0198 H   0  0  0  0  0  0  0  0  0  0  0  0
   38.2748   25.9743   56.7394 H   0  0  0  0  0  0  0  0  0  0  0  0
   40.6107   25.5326   55.1848 H   0  0  0  0  0  0  0  0  0  0  0  0
   39.1903   25.0181   54.1975 H   0  0  0  0  0  0  0  0  0  0  0  0
   37.2863   26.2413   54.6224 H   0  0  0  0  0  0  0  0  0  0  0  0
   37.4593   27.7113   55.6726 H   0  0  0  0  0  0  0  0  0  0  0  0
   36.8503   27.5541   52.7551 H   0  0  0  0  0  0  0  0  0  0  0  0
   36.6233   28.9165   53.8442 H   0  0  0  0  0  0  0  0  0  0  0  0
   38.1560   28.3320   50.3500 H   0  0  0  0  0  0  0  0  0  0  0  0
  1  2  1  0
  2  3  1  0
  3  4  1  0
  4  5  1  0
  5  6  1  0
  6  7  1  0
  7  8  1  0
  1  9  1  0
  2 10  1  0
  2 11  1  0
  3 12  1  0
  3 13  1  0
  5 14  1  0
  5 15  1  0
  6 16  1  0
  6 17  1  0
  8 18  1  0
M  END

>  <ID>
DiffSBDD_3_num_sample_100

>  <docking_score>
-3.531

$$$$
DiffSBDD_40_num_sample_100
     RDKit          3D

 73 75  0  0  0  0  0  0  0  0999 V2000
   39.3670   30.2650   55.0820 C   0  0  0  0  0  0  0  0  0  0  0  0
   38.9780   30.6350   56.3900 C   0  0  0  0  0  0  0  0  0  0  0  0
   39.1300   29.4260   56.8850 N   0  0  1  0  0  0  0  0  0  0  0  0
   40.4160   28.7580   56.6390 C   0  0  0  0  0  0  0  0  0  0  0  0
   40.8910   27.6160   57.3990 C   0  0  1  0  0  0  0  0  0  0  0  0
   42.1620   27.7860   57.9720 C   0  0  0  0  0  0  0  0  0  0  0  0
   39.8480   27.1520   58.3180 C   0  0  2  0  0  0  0  0  0  0  0  0
   39.2230   25.9130   58.1340 C   0  0  0  0  0  0  0  0  0  0  0  0
   38.4210   25.4890   57.0790 C   0  0  0  0  0  0  0  0  0  0  0  0
   37.9080   24.1590   57.0760 C   0  0  0  0  0  0  0  0  0  0  0  0
   37.1880   24.0760   55.9150 N   0  0  0  0  0  0  0  0  0  0  0  0
   37.3080   25.3580   55.2390 C   0  0  0  0  0  0  0  0  0  0  0  0
   36.7620   25.6340   54.1920 N   0  0  0  0  0  0  0  0  0  0  0  0
   38.0770   26.1690   56.0190 N   0  0  0  0  0  0  0  0  0  0  0  0
   39.1080   28.2580   58.9960 C   0  0  0  0  0  0  0  0  0  0  0  0
   39.1210   28.2600   60.4870 C   0  0  0  0  0  0  0  0  0  0  0  0
   40.4170   28.9360   61.0340 C   0  0  0  0  0  0  0  0  0  0  0  0
   40.1660   30.3830   61.2170 C   0  0  0  0  0  0  0  0  0  0  0  0
   39.3210   31.5330   61.8560 C   0  0  1  0  0  0  0  0  0  0  0  0
   38.3390   30.8120   62.6010 O   0  0  0  0  0  0  0  0  0  0  0  0
   39.9740   32.5710   62.6460 C   0  0  0  0  0  0  0  0  0  0  0  0
   40.9570   33.6720   61.7520 S   0  0  0  0  0  0  0  0  0  0  0  0
   39.8450   35.0510   61.3960 C   0  0  0  0  0  0  0  0  0  0  0  0
   39.8200   36.3350   62.7420 S   0  0  0  0  0  0  0  0  0  0  0  0
   38.9400   34.8170   60.3480 C   0  0  0  0  0  0  0  0  0  0  0  0
   37.5020   35.0380   60.6360 C   0  0  2  0  0  0  0  0  0  0  0  0
   36.5130   34.0370   61.2420 C   0  0  0  0  0  0  0  0  0  0  0  0
   37.1040   36.1420   60.0110 C   0  0  0  0  0  0  0  0  0  0  0  0
   37.4360   37.2150   59.8740 N   0  0  0  0  0  0  0  0  0  0  0  0
   36.4480   36.6900   59.1340 O   0  0  0  0  0  0  0  0  0  0  0  0
   38.4550   29.1310   58.1500 C   0  0  2  0  0  0  0  0  0  0  0  0
   37.1960   29.8100   58.6420 C   0  0  0  0  0  0  0  0  0  0  0  0
   40.1631   29.5078   55.1366 H   0  0  0  0  0  0  0  0  0  0  0  0
   38.5013   29.8489   54.5459 H   0  0  0  0  0  0  0  0  0  0  0  0
   39.7393   31.1504   54.5459 H   0  0  0  0  0  0  0  0  0  0  0  0
   39.6502   31.3762   56.8469 H   0  0  0  0  0  0  0  0  0  0  0  0
   38.0034   31.1283   56.5198 H   0  0  0  0  0  0  0  0  0  0  0  0
   38.5290   28.8970   56.2380 H   0  0  0  0  0  0  0  0  0  0  0  0
   40.3858   28.4277   55.5902 H   0  0  0  0  0  0  0  0  0  0  0  0
   41.1235   29.5359   56.9620 H   0  0  0  0  0  0  0  0  0  0  0  0
   41.0768   26.7962   56.6895 H   0  0  0  0  0  0  0  0  0  0  0  0
   42.0744   27.7743   59.0684 H   0  0  0  0  0  0  0  0  0  0  0  0
   42.8226   26.9682   57.6482 H   0  0  0  0  0  0  0  0  0  0  0  0
   42.5844   28.7486   57.6482 H   0  0  0  0  0  0  0  0  0  0  0  0
   40.4528   26.7000   59.1180 H   0  0  0  0  0  0  0  0  0  0  0  0
   40.0458   25.1836   58.1635 H   0  0  0  0  0  0  0  0  0  0  0  0
   38.4373   26.0182   58.8966 H   0  0  0  0  0  0  0  0  0  0  0  0
   38.0570   23.3767   57.8348 H   0  0  0  0  0  0  0  0  0  0  0  0
   36.6600   23.2580   55.5810 H   0  0  0  0  0  0  0  0  0  0  0  0
   37.2720   25.5310   53.3030 H   0  0  0  0  0  0  0  0  0  0  0  0
   35.7890   25.9720   54.1920 H   0  0  0  0  0  0  0  0  0  0  0  0
   38.3400   27.1430   55.8100 H   0  0  0  0  0  0  0  0  0  0  0  0
   38.1963   27.6426   59.0048 H   0  0  0  0  0  0  0  0  0  0  0  0
   38.2442   28.8138   60.8537 H   0  0  0  0  0  0  0  0  0  0  0  0
   39.0937   27.2183   60.8392 H   0  0  0  0  0  0  0  0  0  0  0  0
   40.6893   28.4841   61.9992 H   0  0  0  0  0  0  0  0  0  0  0  0
   41.2416   28.7894   60.3209 H   0  0  0  0  0  0  0  0  0  0  0  0
   41.1586   30.6795   61.5868 H   0  0  0  0  0  0  0  0  0  0  0  0
   39.4512   30.3463   60.3817 H   0  0  0  0  0  0  0  0  0  0  0  0
   38.9512   32.1840   61.0501 H   0  0  0  0  0  0  0  0  0  0  0  0
   37.4350   31.0580   62.2790 H   0  0  0  0  0  0  0  0  0  0  0  0
   39.1916   33.1518   63.1564 H   0  0  0  0  0  0  0  0  0  0  0  0
   40.6540   32.0465   63.3334 H   0  0  0  0  0  0  0  0  0  0  0  0
   39.2173   35.4810   59.5160 H   0  0  0  0  0  0  0  0  0  0  0  0
   39.0254   33.7417   60.1326 H   0  0  0  0  0  0  0  0  0  0  0  0
   37.4017   34.9246   61.7255 H   0  0  0  0  0  0  0  0  0  0  0  0
   36.5646   34.0892   62.3395 H   0  0  0  0  0  0  0  0  0  0  0  0
   35.4933   34.2828   60.9108 H   0  0  0  0  0  0  0  0  0  0  0  0
   36.7711   33.0203   60.9108 H   0  0  0  0  0  0  0  0  0  0  0  0
   39.0575   29.9630   58.5435 H   0  0  0  0  0  0  0  0  0  0  0  0
   37.1877   29.8145   59.7420 H   0  0  0  0  0  0  0  0  0  0  0  0
   37.1687   30.8452   58.2709 H   0  0  0  0  0  0  0  0  0  0  0  0
   36.3160   29.2641   58.2709 H   0  0  0  0  0  0  0  0  0  0  0  0
  1  2  1  0
  2  3  1  0
  3  4  1  0
  4  5  1  0
  5  6  1  0
  5  7  1  0
  7  8  1  0
  8  9  1  0
  9 10  2  0
 10 11  1  0
 11 12  1  0
 12 13  1  0
 12 14  2  0
  7 15  1  0
 15 16  1  0
 16 17  1  0
 17 18  1  0
 18 19  1  0
 19 20  1  0
 19 21  1  0
 21 22  1  0
 22 23  1  0
 23 24  2  0
 23 25  1  0
 25 26  1  0
 26 27  1  0
 26 28  1  0
 28 29  2  0
 29 30  1  0
 15 31  1  0
 31 32  1  0
 31  3  1  0
 14  9  1  0
 30 28  1  0
  1 33  1  0
  1 34  1  0
  1 35  1  0
  2 36  1  0
  2 37  1  0
  3 38  1  6
  4 39  1  0
  4 40  1  0
  5 41  1  6
  6 42  1  0
  6 43  1  0
  6 44  1  0
  7 45  1  1
  8 46  1  0
  8 47  1  0
 10 48  1  0
 11 49  1  0
 13 50  1  0
 13 51  1  0
 14 52  1  0
 15 53  1  0
 16 54  1  0
 16 55  1  0
 17 56  1  0
 17 57  1  0
 18 58  1  0
 18 59  1  0
 19 60  1  6
 20 61  1  0
 21 62  1  0
 21 63  1  0
 25 64  1  0
 25 65  1  0
 26 66  1  1
 27 67  1  0
 27 68  1  0
 27 69  1  0
 31 70  1  6
 32 71  1  0
 32 72  1  0
 32 73  1  0
M  CHG  2   3   1  14   1
M  END

>  <ID>
DiffSBDD_40_num_sample_100

>  <docking_score>
-8.361

$$$$
DiffSBDD_41_num_sample_100
     RDKit          3D

 84 86  0  0  0  0  0  0  0  0999 V2000
   38.7570   33.1630   56.5690 C   0  0  0  0  0  0  0  0  0  0  0  0
   38.3140   31.7610   56.7520 N   0  0  0  0  0  0  0  0  0  0  0  0
   38.2590   31.2650   58.0130 C   0  0  2  0  0  0  0  0  0  0  0  0
   38.0780   32.3200   59.1210 C   0  0  0  0  0  0  0  0  0  0  0  0
   39.2500   32.4090   59.9140 O   0  0  0  0  0  0  0  0  0  0  0  0
   39.2540   33.5060   60.7860 C   0  0  1  0  0  0  0  0  0  0  0  0
   37.9020   33.9960   60.9770 O   0  0  0  0  0  0  0  0  0  0  0  0
   39.8640   32.9490   61.9130 C   0  0  1  0  0  0  0  0  0  0  0  0
   40.4790   31.5670   61.8400 C   0  0  0  0  0  0  0  0  0  0  0  0
   40.2530   30.8340   63.1300 C   0  0  0  0  0  0  0  0  0  0  0  0
   41.4150   31.1970   63.9010 C   0  0  2  0  0  0  0  0  0  0  0  0
   42.2810   29.9190   64.4910 S   0  0  0  0  0  0  0  0  0  0  0  0
   43.3160   29.6400   63.5430 O   0  0  0  0  0  0  0  0  0  0  0  0
   42.9870   30.3380   65.5770 O   0  0  0  0  0  0  0  0  0  0  0  0
   41.2060   28.9590   64.4880 O   0  0  0  0  0  0  0  0  0  0  0  0
   41.9280   32.5390   64.0590 C   0  0  0  0  0  0  0  0  0  0  0  0
   41.0370   33.6210   63.6980 C   0  0  0  0  0  0  0  0  0  0  0  0
   40.9960   33.9960   62.2470 C   0  0  2  0  0  0  0  0  0  0  0  0
   40.7340   35.2810   62.5450 C   0  0  0  0  0  0  0  0  0  0  0  0
   41.0010   36.2510   61.5370 O   0  0  0  0  0  0  0  0  0  0  0  0
   38.8100   30.0320   58.7520 C   0  0  0  0  0  0  0  0  0  0  0  0
   38.1770   29.4480   59.7560 N   0  0  0  0  0  0  0  0  0  0  0  0
   39.0270   28.5360   60.2850 C   0  0  0  0  0  0  0  0  0  0  0  0
   40.1460   28.4150   59.6050 N   0  0  0  0  0  0  0  0  0  0  0  0
   40.0250   29.3220   58.4630 O   0  0  0  0  0  0  0  0  0  0  0  0
   38.0130   30.8880   55.6420 C   0  0  1  0  0  0  0  0  0  0  0  0
   37.2140   31.4560   54.7780 O   0  0  0  0  0  0  0  0  0  0  0  0
   39.4670   30.8290   54.9390 C   0  0  0  0  0  0  0  0  0  0  0  0
   39.4840   30.4360   53.4550 C   0  0  0  0  0  0  0  0  0  0  0  0
   39.2480   29.0370   53.2540 N   0  0  0  0  0  0  0  0  0  0  0  0
   39.6600   28.8260   51.8640 C   0  0  0  0  0  0  0  0  0  0  0  0
   40.0190   30.0950   51.0280 C   0  0  0  0  0  0  0  0  0  0  0  0
   39.9320   29.7860   49.6660 O   0  0  0  0  0  0  0  0  0  0  0  0
   38.8280   28.0440   54.0280 C   0  0  0  0  0  0  0  0  0  0  0  0
   39.5240   27.5810   54.9940 N   0  0  0  0  0  0  0  0  0  0  0  0
   38.7800   26.6640   56.0970 C   0  0  2  0  0  0  0  0  0  0  0  0
   39.5550   25.9560   57.1470 C   0  0  0  0  0  0  0  0  0  0  0  0
   39.7630   24.4730   57.1810 O   0  0  0  0  0  0  0  0  0  0  0  0
   40.5870   26.8140   57.0120 O   0  0  0  0  0  0  0  0  0  0  0  0
   37.6800   26.1030   55.2700 C   0  0  0  0  0  0  0  0  0  0  0  0
   37.2370   27.2700   54.0010 S   0  0  0  0  0  0  0  0  0  0  0  0
   38.9052   33.6321   57.5529 H   0  0  0  0  0  0  0  0  0  0  0  0
   39.7037   33.1783   56.0091 H   0  0  0  0  0  0  0  0  0  0  0  0
   37.9909   33.7195   56.0091 H   0  0  0  0  0  0  0  0  0  0  0  0
   37.5906   30.6712   57.3722 H   0  0  0  0  0  0  0  0  0  0  0  0
   37.8766   33.2985   58.6606 H   0  0  0  0  0  0  0  0  0  0  0  0
   37.2347   32.0236   59.7621 H   0  0  0  0  0  0  0  0  0  0  0  0
   39.7864   34.4074   60.4484 H   0  0  0  0  0  0  0  0  0  0  0  0
   37.9320   34.9190   61.3340 H   0  0  0  0  0  0  0  0  0  0  0  0
   39.0709   32.7762   62.6553 H   0  0  0  0  0  0  0  0  0  0  0  0
   40.0149   31.0052   61.0160 H   0  0  0  0  0  0  0  0  0  0  0  0
   41.5607   31.6627   61.6646 H   0  0  0  0  0  0  0  0  0  0  0  0
   39.3283   31.1703   63.6219 H   0  0  0  0  0  0  0  0  0  0  0  0
   40.1322   29.7481   63.0027 H   0  0  0  0  0  0  0  0  0  0  0  0
   42.0251   31.1879   62.9858 H   0  0  0  0  0  0  0  0  0  0  0  0
   44.0460   30.3010   63.6470 H   0  0  0  0  0  0  0  0  0  0  0  0
   43.8440   30.7370   65.2810 H   0  0  0  0  0  0  0  0  0  0  0  0
   40.9050   28.7980   65.4180 H   0  0  0  0  0  0  0  0  0  0  0  0
   42.2000   32.6697   65.1168 H   0  0  0  0  0  0  0  0  0  0  0  0
   42.7711   32.6114   63.3562 H   0  0  0  0  0  0  0  0  0  0  0  0
   40.0192   33.3301   63.9972 H   0  0  0  0  0  0  0  0  0  0  0  0
   41.4292   34.5077   64.2176 H   0  0  0  0  0  0  0  0  0  0  0  0
   41.7338   33.9612   61.4319 H   0  0  0  0  0  0  0  0  0  0  0  0
   39.6655   35.3510   62.7967 H   0  0  0  0  0  0  0  0  0  0  0  0
   41.4239   35.5278   63.3654 H   0  0  0  0  0  0  0  0  0  0  0  0
   41.5110   35.8290   60.7990 H   0  0  0  0  0  0  0  0  0  0  0  0
   38.8039   27.9550   61.1920 H   0  0  0  0  0  0  0  0  0  0  0  0
   37.5444   29.9420   55.9509 H   0  0  0  0  0  0  0  0  0  0  0  0
   37.7330   31.7310   53.9810 H   0  0  0  0  0  0  0  0  0  0  0  0
   39.9241   31.8256   55.0281 H   0  0  0  0  0  0  0  0  0  0  0  0
   40.0161   30.0322   55.4621 H   0  0  0  0  0  0  0  0  0  0  0  0
   38.7016   31.0044   52.9308 H   0  0  0  0  0  0  0  0  0  0  0  0
   40.4847   30.6657   53.0604 H   0  0  0  0  0  0  0  0  0  0  0  0
   40.5470   28.1755   51.8764 H   0  0  0  0  0  0  0  0  0  0  0  0
   38.7766   28.3985   51.3672 H   0  0  0  0  0  0  0  0  0  0  0  0
   39.3147   30.9053   51.2676 H   0  0  0  0  0  0  0  0  0  0  0  0
   41.0416   30.4206   51.2694 H   0  0  0  0  0  0  0  0  0  0  0  0
   40.8390   29.6170   49.3080 H   0  0  0  0  0  0  0  0  0  0  0  0
   38.3707   27.1487   56.9957 H   0  0  0  0  0  0  0  0  0  0  0  0
   39.0782   25.8026   58.1264 H   0  0  0  0  0  0  0  0  0  0  0  0
   40.0410   24.1580   56.2840 H   0  0  0  0  0  0  0  0  0  0  0  0
   40.9160   27.0780   57.9080 H   0  0  0  0  0  0  0  0  0  0  0  0
   38.0137   25.1640   54.8043 H   0  0  0  0  0  0  0  0  0  0  0  0
   36.8058   25.9056   55.9079 H   0  0  0  0  0  0  0  0  0  0  0  0
  1  2  1  0
  2  3  1  0
  3  4  1  0
  4  5  1  0
  5  6  1  0
  6  7  1  0
  6  8  1  0
  8  9  1  0
  9 10  1  0
 10 11  1  0
 11 12  1  0
 12 13  1  0
 12 14  1  0
 12 15  1  0
 11 16  1  0
 16 17  1  0
 17 18  1  0
 18 19  1  0
 19 20  1  0
  3 21  1  0
 21 22  2  0
 22 23  1  0
 23 24  2  0
 24 25  1  0
  2 26  1  0
 26 27  1  0
 26 28  1  0
 28 29  1  0
 29 30  1  0
 30 31  1  0
 31 32  1  0
 32 33  1  0
 30 34  1  0
 34 35  2  0
 35 36  1  0
 36 37  1  0
 37 38  1  0
 37 39  1  0
 36 40  1  0
 40 41  1  0
 18  8  1  0
 25 21  1  0
 41 34  1  0
  1 42  1  0
  1 43  1  0
  1 44  1  0
  3 45  1  6
  4 46  1  0
  4 47  1  0
  6 48  1  6
  7 49  1  0
  8 50  1  1
  9 51  1  0
  9 52  1  0
 10 53  1  0
 10 54  1  0
 11 55  1  1
 13 56  1  0
 14 57  1  0
 15 58  1  0
 16 59  1  0
 16 60  1  0
 17 61  1  0
 17 62  1  0
 18 63  1  6
 19 64  1  0
 19 65  1  0
 20 66  1  0
 23 67  1  0
 26 68  1  1
 27 69  1  0
 28 70  1  0
 28 71  1  0
 29 72  1  0
 29 73  1  0
 31 74  1  0
 31 75  1  0
 32 76  1  0
 32 77  1  0
 33 78  1  0
 36 79  1  1
 37 80  1  0
 38 81  1  0
 39 82  1  0
 40 83  1  0
 40 84  1  0
M  END

>  <ID>
DiffSBDD_41_num_sample_100

>  <docking_score>
-8.185

$$$$
DiffSBDD_42_num_sample_100
     RDKit          3D

 69 73  0  0  0  0  0  0  0  0999 V2000
   39.2060   37.6650   62.1390 C   0  0  0  0  0  0  0  0  0  0  0  0
   39.9790   36.6270   62.9100 C   0  0  0  0  0  0  0  0  0  0  0  0
   39.8430   36.8410   64.1870 N   0  0  0  0  0  0  0  0  0  0  0  0
   40.5780   35.9850   64.6830 C   0  0  0  0  0  0  0  0  0  0  0  0
   41.3370   35.2840   63.9250 O   0  0  0  0  0  0  0  0  0  0  0  0
   40.9010   35.6160   62.7050 C   0  0  0  0  0  0  0  0  0  0  0  0
   41.3330   34.7380   61.4860 C   0  0  0  0  0  0  0  0  0  0  0  0
   40.4730   33.5100   61.5610 N   0  0  0  0  0  0  0  0  0  0  0  0
   39.0120   33.6010   61.4920 C   0  0  0  0  0  0  0  0  0  0  0  0
   41.0390   32.2000   61.8570 C   0  0  0  0  0  0  0  0  0  0  0  0
   40.0570   30.9740   62.3990 P   0  0  1  0  0  5  0  0  0  0  0  0
   40.3450   31.1730   63.8530 O   0  0  0  0  0  0  0  0  0  0  0  0
   38.8540   30.1230   62.2040 O   0  0  0  0  0  0  0  0  0  0  0  0
   40.1540   29.7510   61.4660 C   0  0  2  0  0  0  0  0  0  0  0  0
   40.6800   28.6510   62.2960 C   0  0  0  0  0  0  0  0  0  0  0  0
   39.7120   30.0790   60.2210 O   0  0  0  0  0  0  0  0  0  0  0  0
   39.6650   29.6400   59.0190 C   0  0  2  0  0  0  0  0  0  0  0  0
   38.4590   30.9750   58.3340 C   0  0  0  0  0  0  0  0  0  0  0  0
   38.3300   31.7670   58.8840 O   0  0  0  0  0  0  0  0  0  0  0  0
   38.5100   30.6330   56.8400 C   0  0  2  0  0  0  0  0  0  0  0  0
   38.0640   31.5730   55.7870 C   0  0  0  0  0  0  0  0  0  0  0  0
   38.7170   31.5380   54.4280 C   0  0  0  0  0  0  0  0  0  0  0  0
   39.1020   30.9000   53.6320 C   0  0  0  0  0  0  0  0  0  0  0  0
   39.3910   30.0440   52.2600 C   0  0  0  0  0  0  0  0  0  0  0  0
   40.2260   30.3110   51.2970 C   0  0  0  0  0  0  0  0  0  0  0  0
   40.4140   29.2590   50.2870 C   0  0  0  0  0  0  0  0  0  0  0  0
   39.8970   27.9470   50.2860 C   0  0  0  0  0  0  0  0  0  0  0  0
   38.9900   27.8190   51.3540 C   0  0  0  0  0  0  0  0  0  0  0  0
   38.7520   28.8490   52.2740 C   0  0  0  0  0  0  0  0  0  0  0  0
   37.4980   28.6150   53.5040 Cl  0  0  0  0  0  0  0  0  0  0  0  0
   37.6520   29.3490   56.7400 O   0  0  0  0  0  0  0  0  0  0  0  0
   38.2790   28.2660   57.1030 C   0  0  0  0  0  0  0  0  0  0  0  0
   39.4740   28.4040   58.2240 C   0  0  0  0  0  0  0  0  0  0  0  0
   40.0610   27.0470   58.4350 C   0  0  0  0  0  0  0  0  0  0  0  0
   39.1820   25.9900   58.5380 C   0  0  0  0  0  0  0  0  0  0  0  0
   38.2700   25.7770   57.5610 C   0  0  0  0  0  0  0  0  0  0  0  0
   37.8970   26.8580   56.6050 C   0  0  0  0  0  0  0  0  0  0  0  0
   38.7008   38.3433   62.8423 H   0  0  0  0  0  0  0  0  0  0  0  0
   39.8967   38.2412   61.5059 H   0  0  0  0  0  0  0  0  0  0  0  0
   38.4560   37.1684   61.5059 H   0  0  0  0  0  0  0  0  0  0  0  0
   40.5824   35.8235   65.7711 H   0  0  0  0  0  0  0  0  0  0  0  0
   41.1571   35.2750   60.5422 H   0  0  0  0  0  0  0  0  0  0  0  0
   42.4047   34.4918   61.5159 H   0  0  0  0  0  0  0  0  0  0  0  0
   38.5977   33.6268   62.5107 H   0  0  0  0  0  0  0  0  0  0  0  0
   38.7267   34.5187   60.9568 H   0  0  0  0  0  0  0  0  0  0  0  0
   38.6150   32.7258   60.9568 H   0  0  0  0  0  0  0  0  0  0  0  0
   41.5123   31.8419   60.9308 H   0  0  0  0  0  0  0  0  0  0  0  0
   41.6959   32.3968   62.7171 H   0  0  0  0  0  0  0  0  0  0  0  0
   40.5590   28.9040   63.3596 H   0  0  0  0  0  0  0  0  0  0  0  0
   40.1264   27.7268   62.0737 H   0  0  0  0  0  0  0  0  0  0  0  0
   41.7469   28.5018   62.0737 H   0  0  0  0  0  0  0  0  0  0  0  0
   40.7218   29.3425   58.9508 H   0  0  0  0  0  0  0  0  0  0  0  0
   39.5831   30.5988   56.6006 H   0  0  0  0  0  0  0  0  0  0  0  0
   36.9908   31.3900   55.6299 H   0  0  0  0  0  0  0  0  0  0  0  0
   38.3522   32.5575   56.1841 H   0  0  0  0  0  0  0  0  0  0  0  0
   38.8652   32.5807   54.1106 H   0  0  0  0  0  0  0  0  0  0  0  0
   40.7611   31.2705   51.2422 H   0  0  0  0  0  0  0  0  0  0  0  0
   41.0373   29.5299   49.4221 H   0  0  0  0  0  0  0  0  0  0  0  0
   39.3788   27.7540   49.3351 H   0  0  0  0  0  0  0  0  0  0  0  0
   40.7157   27.2213   50.4004 H   0  0  0  0  0  0  0  0  0  0  0  0
   38.4449   26.8708   51.4718 H   0  0  0  0  0  0  0  0  0  0  0  0
   40.7297   26.8400   57.5865 H   0  0  0  0  0  0  0  0  0  0  0  0
   40.5559   27.1012   59.4159 H   0  0  0  0  0  0  0  0  0  0  0  0
   39.7898   25.0761   58.6114 H   0  0  0  0  0  0  0  0  0  0  0  0
   38.5654   26.2545   59.4097 H   0  0  0  0  0  0  0  0  0  0  0  0
   38.6516   24.9423   56.9546 H   0  0  0  0  0  0  0  0  0  0  0  0
   37.3400   25.6275   58.1291 H   0  0  0  0  0  0  0  0  0  0  0  0
   38.4110   26.6733   55.6502 H   0  0  0  0  0  0  0  0  0  0  0  0
   36.8027   26.8351   56.4957 H   0  0  0  0  0  0  0  0  0  0  0  0
  1  2  1  0
  2  3  1  0
  3  4  2  0
  4  5  1  0
  5  6  1  0
  6  7  1  0
  7  8  1  0
  8  9  1  0
  8 10  1  0
 11 10  1  6
 11 12  2  0
 11 13  1  0
 13 14  1  0
 14 15  1  0
 14 16  1  6
 16 17  1  0
 17 18  1  0
 18 19  2  0
 18 20  1  0
 20 21  1  0
 21 22  1  0
 22 23  2  0
 23 24  2  0
 24 25  1  0
 25 26  2  0
 26 27  1  0
 27 28  1  0
 28 29  2  0
 29 30  1  0
 20 31  1  0
 31 32  1  0
 32 33  2  0
 33 34  1  0
 34 35  1  0
 35 36  1  0
 36 37  1  0
  6  2  2  0
 14 11  1  0
 33 17  1  0
 29 24  1  0
 37 32  1  0
  1 38  1  0
  1 39  1  0
  1 40  1  0
  4 41  1  0
  7 42  1  0
  7 43  1  0
  9 44  1  0
  9 45  1  0
  9 46  1  0
 10 47  1  0
 10 48  1  0
 15 49  1  0
 15 50  1  0
 15 51  1  0
 17 52  1  6
 20 53  1  6
 21 54  1  0
 21 55  1  0
 22 56  1  0
 25 57  1  0
 26 58  1  0
 27 59  1  0
 27 60  1  0
 28 61  1  0
 34 62  1  0
 34 63  1  0
 35 64  1  0
 35 65  1  0
 36 66  1  0
 36 67  1  0
 37 68  1  0
 37 69  1  0
M  END

>  <ID>
DiffSBDD_42_num_sample_100

>  <docking_score>
-10.692

$$$$
DiffSBDD_43_num_sample_100
     RDKit          3D

 72 75  0  0  0  0  0  0  0  0999 V2000
   35.1650   33.0360   61.4390 C   0  0  0  0  0  0  0  0  0  0  0  0
   36.4860   33.4030   61.4530 C   0  0  0  0  0  0  0  0  0  0  0  0
   37.1520   34.7570   60.9190 C   0  0  2  0  0  0  0  0  0  0  0  0
   36.4060   35.0250   59.6440 C   0  0  0  0  0  0  0  0  0  0  0  0
   38.5660   33.9480   60.5340 C   0  0  2  0  0  0  0  0  0  0  0  0
   38.1090   32.8240   60.2280 C   0  0  0  0  0  0  0  0  0  0  0  0
   39.1650   31.6870   60.1850 C   0  0  1  0  0  0  0  0  0  0  0  0
   39.5670   30.3680   61.0680 C   0  0  2  0  0  0  0  0  0  0  0  0
   39.8770   30.6470   62.5590 C   0  0  0  0  0  0  0  0  0  0  0  0
   39.8550   28.9340   60.5880 C   0  0  2  0  0  0  0  0  0  0  0  0
   41.0070   28.5990   61.2080 O   0  0  0  0  0  0  0  0  0  0  0  0
   39.9110   28.7320   59.0590 C   0  0  1  0  0  0  0  0  0  0  0  0
   39.0430   27.4660   58.8450 N   0  0  0  0  0  0  0  0  0  0  0  0
   38.9040   27.0300   57.1680 S   0  0  0  0  0  0  0  0  0  0  0  0
   37.2890   26.7130   57.3010 O   0  0  0  0  0  0  0  0  0  0  0  0
   40.1810   26.0490   56.9880 O   0  0  0  0  0  0  0  0  0  0  0  0
   38.9280   27.8080   55.5680 C   0  0  0  0  0  0  0  0  0  0  0  0
   38.1760   27.0070   54.8720 C   0  0  0  0  0  0  0  0  0  0  0  0
   37.9210   27.0450   53.5500 N   0  0  0  0  0  0  0  0  0  0  0  0
   38.4180   28.1250   52.8990 C   0  0  0  0  0  0  0  0  0  0  0  0
   38.2400   28.1690   51.5630 O   0  0  0  0  0  0  0  0  0  0  0  0
   39.1420   27.7150   50.6470 C   0  0  0  0  0  0  0  0  0  0  0  0
   39.0710   29.1410   53.5250 C   0  0  0  0  0  0  0  0  0  0  0  0
   39.5970   30.2880   52.7360 C   0  0  0  0  0  0  0  0  0  0  0  0
   39.3030   29.0960   54.8810 C   0  0  0  0  0  0  0  0  0  0  0  0
   39.0600   29.7360   58.3460 C   0  0  1  0  0  0  0  0  0  0  0  0
   37.7140   30.0730   58.8390 O   0  0  0  0  0  0  0  0  0  0  0  0
   39.0330   31.1350   58.7550 C   0  0  1  0  0  0  0  0  0  0  0  0
   39.7200   34.5360   61.3050 C   0  0  0  0  0  0  0  0  0  0  0  0
   40.0820   35.3290   62.5010 C   0  0  0  0  0  0  0  0  0  0  0  0
   39.6880   36.7310   62.6290 C   0  0  0  0  0  0  0  0  0  0  0  0
   39.0230   37.8700   61.9280 C   0  0  0  0  0  0  0  0  0  0  0  0
   38.8570   36.9530   61.2310 C   0  0  0  0  0  0  0  0  0  0  0  0
   37.5930   36.1570   61.2900 C   0  0  1  0  0  0  0  0  0  0  0  0
   36.4990   37.0370   61.2060 F   0  0  0  0  0  0  0  0  0  0  0  0
   34.8606   32.0612   61.8478 H   0  0  0  0  0  0  0  0  0  0  0  0
   34.4096   33.7164   61.0189 H   0  0  0  0  0  0  0  0  0  0  0  0
   37.1802   32.6696   61.8891 H   0  0  0  0  0  0  0  0  0  0  0  0
   35.3949   35.3882   59.8802 H   0  0  0  0  0  0  0  0  0  0  0  0
   36.9419   35.7868   59.0588 H   0  0  0  0  0  0  0  0  0  0  0  0
   36.3346   34.0963   59.0588 H   0  0  0  0  0  0  0  0  0  0  0  0
   39.2986   33.9890   59.7145 H   0  0  0  0  0  0  0  0  0  0  0  0
   37.3422   32.5522   60.9683 H   0  0  0  0  0  0  0  0  0  0  0  0
   37.7095   32.9172   59.2074 H   0  0  0  0  0  0  0  0  0  0  0  0
   39.9112   32.3061   60.7046 H   0  0  0  0  0  0  0  0  0  0  0  0
   38.7401   30.0519   60.4151 H   0  0  0  0  0  0  0  0  0  0  0  0
   39.2080   30.0449   63.1915 H   0  0  0  0  0  0  0  0  0  0  0  0
   40.9224   30.3796   62.7724 H   0  0  0  0  0  0  0  0  0  0  0  0
   39.7208   31.7147   62.7724 H   0  0  0  0  0  0  0  0  0  0  0  0
   39.0156   28.2735   60.8508 H   0  0  0  0  0  0  0  0  0  0  0  0
   41.4180   29.4090   61.6020 H   0  0  0  0  0  0  0  0  0  0  0  0
   40.9577   28.7457   58.7209 H   0  0  0  0  0  0  0  0  0  0  0  0
   38.0990   27.6450   59.2190 H   0  0  0  0  0  0  0  0  0  0  0  0
   37.6870   26.1971   55.4333 H   0  0  0  0  0  0  0  0  0  0  0  0
   40.0070   27.2796   51.1688 H   0  0  0  0  0  0  0  0  0  0  0  0
   38.6696   26.9473   50.0166 H   0  0  0  0  0  0  0  0  0  0  0  0
   39.4772   28.5518   50.0166 H   0  0  0  0  0  0  0  0  0  0  0  0
   39.9558   31.0704   53.4210 H   0  0  0  0  0  0  0  0  0  0  0  0
   40.4284   29.9463   52.1019 H   0  0  0  0  0  0  0  0  0  0  0  0
   38.7956   30.6951   52.1019 H   0  0  0  0  0  0  0  0  0  0  0  0
   39.7349   29.9465   55.4288 H   0  0  0  0  0  0  0  0  0  0  0  0
   39.3774   29.2847   57.3944 H   0  0  0  0  0  0  0  0  0  0  0  0
   39.5066   31.9979   58.2639 H   0  0  0  0  0  0  0  0  0  0  0  0
   40.3193   33.6306   61.4815 H   0  0  0  0  0  0  0  0  0  0  0  0
   39.6880   35.4475   60.6900 H   0  0  0  0  0  0  0  0  0  0  0  0
   40.6584   34.8545   63.3089 H   0  0  0  0  0  0  0  0  0  0  0  0
   40.0017   37.0817   63.6233 H   0  0  0  0  0  0  0  0  0  0  0  0
   38.1338   38.3057   62.4070 H   0  0  0  0  0  0  0  0  0  0  0  0
   39.4520   38.8491   61.6686 H   0  0  0  0  0  0  0  0  0  0  0  0
   38.9438   37.3251   60.1995 H   0  0  0  0  0  0  0  0  0  0  0  0
   39.6097   36.2367   61.5921 H   0  0  0  0  0  0  0  0  0  0  0  0
   38.1138   35.6133   62.0919 H   0  0  0  0  0  0  0  0  0  0  0  0
  1  2  2  0
  2  3  1  0
  3  4  1  6
  3  5  1  0
  5  6  1  0
  6  7  1  0
  7  8  1  0
  8  9  1  0
  8 10  1  0
 10 11  1  0
 10 12  1  0
 12 13  1  0
 13 14  1  0
 14 15  2  0
 14 16  2  0
 14 17  1  0
 17 18  2  0
 18 19  1  0
 19 20  2  0
 20 21  1  0
 21 22  1  0
 20 23  1  0
 23 24  1  0
 23 25  2  0
 12 26  1  0
 26 27  1  0
 27 28  1  0
  5 29  1  0
 29 30  1  0
 30 31  2  0
 31 32  1  0
 32 33  1  0
 33 34  1  0
 34 35  1  0
 34  3  1  0
 28  7  1  0
 25 17  1  0
 28 26  1  0
  1 36  1  0
  1 37  1  0
  2 38  1  0
  4 39  1  0
  4 40  1  0
  4 41  1  0
  5 42  1  6
  6 43  1  0
  6 44  1  0
  7 45  1  6
  8 46  1  1
  9 47  1  0
  9 48  1  0
  9 49  1  0
 10 50  1  1
 11 51  1  0
 12 52  1  6
 13 53  1  0
 18 54  1  0
 22 55  1  0
 22 56  1  0
 22 57  1  0
 24 58  1  0
 24 59  1  0
 24 60  1  0
 25 61  1  0
 26 62  1  6
 28 63  1  6
 29 64  1  0
 29 65  1  0
 30 66  1  0
 31 67  1  0
 32 68  1  0
 32 69  1  0
 33 70  1  0
 33 71  1  0
 34 72  1  1
M  END

>  <ID>
DiffSBDD_43_num_sample_100

>  <docking_score>
-10.934

$$$$
DiffSBDD_44_num_sample_100
     RDKit          3D

 59 60  0  0  0  0  0  0  0  0999 V2000
   42.0420   27.8380   57.9620 C   0  0  0  0  0  0  0  0  0  0  0  0
   40.9000   28.4820   58.5670 O   0  0  0  0  0  0  0  0  0  0  0  0
   39.9370   28.6380   57.6150 C   0  0  0  0  0  0  0  0  0  0  0  0
   39.4300   29.5950   56.8590 N   0  0  0  0  0  0  0  0  0  0  0  0
   38.6830   30.6830   57.1410 C   0  0  0  0  0  0  0  0  0  0  0  0
   38.5900   30.6800   58.7900 C   0  0  0  0  0  0  0  0  0  0  0  0
   38.7110   31.5420   55.8760 C   0  0  2  0  0  0  0  0  0  0  0  0
   38.6750   32.9760   56.0220 C   0  0  0  0  0  0  0  0  0  0  0  0
   37.6570   30.9180   54.8300 C   0  0  2  0  0  0  0  0  0  0  0  0
   36.7080   30.2180   55.6250 O   0  0  0  0  0  0  0  0  0  0  0  0
   38.3650   30.1620   53.8950 N   0  0  2  0  0  0  0  0  0  0  0  0
   39.5310   30.8370   53.3880 C   0  0  0  0  0  0  0  0  0  0  0  0
   39.9950   30.0380   52.3220 C   0  0  0  0  0  0  0  0  0  0  0  0
   39.2430   28.5820   52.3430 C   0  0  2  0  0  0  0  0  0  0  0  0
   38.9790   27.5470   51.3830 C   0  0  0  0  0  0  0  0  0  0  0  0
   38.0550   28.9890   53.2520 C   0  0  1  0  0  0  0  0  0  0  0  0
   37.0740   27.9740   53.7750 C   0  0  0  0  0  0  0  0  0  0  0  0
   38.9870   27.5800   57.0930 C   0  0  0  0  0  0  0  0  0  0  0  0
   39.1810   26.9700   56.2280 C   0  0  0  0  0  0  0  0  0  0  0  0
   39.4500   25.8060   55.2830 C   0  0  0  0  0  0  0  0  0  0  0  0
   38.6880   24.8480   55.1480 C   0  0  0  0  0  0  0  0  0  0  0  0
   37.8010   24.7780   56.1660 C   0  0  0  0  0  0  0  0  0  0  0  0
   37.1670   23.5910   56.1340 F   0  0  0  0  0  0  0  0  0  0  0  0
   37.5740   25.7180   57.0830 C   0  0  0  0  0  0  0  0  0  0  0  0
   37.7260   26.9420   57.6690 C   0  0  0  0  0  0  0  0  0  0  0  0
   42.7105   27.4610   58.7500 H   0  0  0  0  0  0  0  0  0  0  0  0
   41.7016   26.9989   57.3375 H   0  0  0  0  0  0  0  0  0  0  0  0
   42.5839   28.5635   57.3375 H   0  0  0  0  0  0  0  0  0  0  0  0
   39.1994   28.8662   58.3985 H   0  0  0  0  0  0  0  0  0  0  0  0
   39.6043   30.7127   59.2145 H   0  0  0  0  0  0  0  0  0  0  0  0
   38.0229   31.5603   59.1269 H   0  0  0  0  0  0  0  0  0  0  0  0
   38.0809   29.7650   59.1269 H   0  0  0  0  0  0  0  0  0  0  0  0
   39.7305   31.4756   55.4683 H   0  0  0  0  0  0  0  0  0  0  0  0
   38.6685   33.2357   57.0909 H   0  0  0  0  0  0  0  0  0  0  0  0
   39.5624   33.4157   55.5432 H   0  0  0  0  0  0  0  0  0  0  0  0
   37.7667   33.3706   55.5432 H   0  0  0  0  0  0  0  0  0  0  0  0
   37.0996   31.6468   54.2232 H   0  0  0  0  0  0  0  0  0  0  0  0
   37.1260   29.4020   55.9960 H   0  0  0  0  0  0  0  0  0  0  0  0
   38.0210   29.4630   54.5690 H   0  0  0  0  0  0  0  0  0  0  0  0
   39.2672   31.8425   53.0283 H   0  0  0  0  0  0  0  0  0  0  0  0
   40.2984   30.9660   54.1655 H   0  0  0  0  0  0  0  0  0  0  0  0
   39.7826   30.5438   51.3686 H   0  0  0  0  0  0  0  0  0  0  0  0
   41.0790   29.8857   52.4306 H   0  0  0  0  0  0  0  0  0  0  0  0
   40.0619   27.8648   52.5012 H   0  0  0  0  0  0  0  0  0  0  0  0
   38.7403   26.6110   51.9092 H   0  0  0  0  0  0  0  0  0  0  0  0
   38.1270   27.8406   50.7522 H   0  0  0  0  0  0  0  0  0  0  0  0
   39.8675   27.3966   50.7522 H   0  0  0  0  0  0  0  0  0  0  0  0
   37.1606   29.2059   52.6495 H   0  0  0  0  0  0  0  0  0  0  0  0
   37.0855   27.9859   54.8749 H   0  0  0  0  0  0  0  0  0  0  0  0
   36.0640   28.2214   53.4161 H   0  0  0  0  0  0  0  0  0  0  0  0
   37.3557   26.9731   53.4161 H   0  0  0  0  0  0  0  0  0  0  0  0
   40.3755   25.8220   54.6887 H   0  0  0  0  0  0  0  0  0  0  0  0
   38.1388   24.9577   54.2012 H   0  0  0  0  0  0  0  0  0  0  0  0
   39.2873   23.9256   55.1459 H   0  0  0  0  0  0  0  0  0  0  0  0
   37.0239   25.2105   55.5186 H   0  0  0  0  0  0  0  0  0  0  0  0
   36.4804   25.7562   56.9705 H   0  0  0  0  0  0  0  0  0  0  0  0
   38.5182   25.4189   57.5617 H   0  0  0  0  0  0  0  0  0  0  0  0
   36.8527   27.5736   57.4488 H   0  0  0  0  0  0  0  0  0  0  0  0
   37.8116   26.8380   58.7607 H   0  0  0  0  0  0  0  0  0  0  0  0
  1  2  1  0
  2  3  1  0
  3  4  1  0
  4  5  2  3
  5  6  1  0
  5  7  1  0
  7  8  1  0
  7  9  1  0
  9 10  1  0
  9 11  1  0
 11 12  1  0
 12 13  1  0
 13 14  1  0
 14 15  1  0
 14 16  1  0
 16 17  1  0
  3 18  1  0
 18 19  2  0
 19 20  2  0
 20 21  1  0
 21 22  1  0
 22 23  1  0
 22 24  1  0
 24 25  1  0
 16 11  1  0
 25 18  1  0
  1 26  1  0
  1 27  1  0
  1 28  1  0
  3 29  1  0
  6 30  1  0
  6 31  1  0
  6 32  1  0
  7 33  1  6
  8 34  1  0
  8 35  1  0
  8 36  1  0
  9 37  1  6
 10 38  1  0
 11 39  1  1
 12 40  1  0
 12 41  1  0
 13 42  1  0
 13 43  1  0
 14 44  1  1
 15 45  1  0
 15 46  1  0
 15 47  1  0
 16 48  1  6
 17 49  1  0
 17 50  1  0
 17 51  1  0
 20 52  1  0
 21 53  1  0
 21 54  1  0
 22 55  1  0
 24 56  1  0
 24 57  1  0
 25 58  1  0
 25 59  1  0
M  CHG  1  11   1
M  END

>  <ID>
DiffSBDD_44_num_sample_100

>  <docking_score>
-8.586

$$$$
DiffSBDD_45_num_sample_100
     RDKit          3D

 30 30  0  0  0  0  0  0  0  0999 V2000
   39.7230   24.7830   57.0790 O   0  0  0  0  0  0  0  0  0  0  0  0
   39.1840   25.2220   55.7930 C   0  0  0  0  0  0  0  0  0  0  0  0
   37.8790   26.0300   55.7740 C   0  0  0  0  0  0  0  0  0  0  0  0
   38.1240   27.5470   55.9620 C   0  0  0  0  0  0  0  0  0  0  0  0
   38.2620   27.9890   57.2460 C   0  0  0  0  0  0  0  0  0  0  0  0
   37.9820   29.6040   57.3660 C   0  0  0  0  0  0  0  0  0  0  0  0
   37.9810   30.5140   55.8820 S   0  0  0  0  0  0  0  0  0  0  0  0
   39.1450   30.7440   54.2710 S   0  0  0  0  0  0  0  0  0  0  0  0
   39.3620   29.8640   52.7670 C   0  0  0  0  0  0  0  0  0  0  0  0
   38.8540   28.5930   52.5230 C   0  0  0  0  0  0  0  0  0  0  0  0
   39.0980   28.0450   51.3470 C   0  0  0  0  0  0  0  0  0  0  0  0
   39.8230   28.6140   50.3750 C   0  0  0  0  0  0  0  0  0  0  0  0
   40.3520   29.9140   50.6270 C   0  0  0  0  0  0  0  0  0  0  0  0
   40.1110   30.5220   51.8170 C   0  0  0  0  0  0  0  0  0  0  0  0
   40.3940   25.4390   57.3970 H   0  0  0  0  0  0  0  0  0  0  0  0
   39.9555   25.8430   55.3144 H   0  0  0  0  0  0  0  0  0  0  0  0
   38.9232   24.2843   55.2804 H   0  0  0  0  0  0  0  0  0  0  0  0
   37.3778   25.8697   54.8080 H   0  0  0  0  0  0  0  0  0  0  0  0
   37.2566   25.6834   56.6121 H   0  0  0  0  0  0  0  0  0  0  0  0
   39.0448   27.8062   55.4190 H   0  0  0  0  0  0  0  0  0  0  0  0
   37.2151   28.0369   55.5826 H   0  0  0  0  0  0  0  0  0  0  0  0
   37.5449   27.4543   57.8862 H   0  0  0  0  0  0  0  0  0  0  0  0
   39.2965   27.7955   57.5661 H   0  0  0  0  0  0  0  0  0  0  0  0
   36.9974   29.7366   57.8381 H   0  0  0  0  0  0  0  0  0  0  0  0
   38.8289   30.0002   57.9455 H   0  0  0  0  0  0  0  0  0  0  0  0
   38.2671   28.0607   53.2860 H   0  0  0  0  0  0  0  0  0  0  0  0
   38.6751   27.0486   51.1511 H   0  0  0  0  0  0  0  0  0  0  0  0
   40.0032   28.0987   49.4200 H   0  0  0  0  0  0  0  0  0  0  0  0
   40.9536   30.4229   49.8595 H   0  0  0  0  0  0  0  0  0  0  0  0
   40.5090   31.5273   52.0196 H   0  0  0  0  0  0  0  0  0  0  0  0
  1  2  1  0
  2  3  1  0
  3  4  1  0
  4  5  1  0
  5  6  1  0
  6  7  1  0
  7  8  1  0
  8  9  1  0
  9 10  2  0
 10 11  1  0
 11 12  2  0
 12 13  1  0
 13 14  2  0
 14  9  1  0
  1 15  1  0
  2 16  1  0
  2 17  1  0
  3 18  1  0
  3 19  1  0
  4 20  1  0
  4 21  1  0
  5 22  1  0
  5 23  1  0
  6 24  1  0
  6 25  1  0
 10 26  1  0
 11 27  1  0
 12 28  1  0
 13 29  1  0
 14 30  1  0
M  END

>  <ID>
DiffSBDD_45_num_sample_100

>  <docking_score>
-6.123

$$$$
DiffSBDD_46_num_sample_100
     RDKit          3D

 67 70  0  0  0  0  0  0  0  0999 V2000
   35.6680   38.2710   62.8300 O   0  0  0  0  0  0  0  0  0  0  0  0
   36.2670   38.2110   61.9380 C   0  0  0  0  0  0  0  0  0  0  0  0
   37.3430   38.3070   61.2620 N   0  0  0  0  0  0  0  0  0  0  0  0
   38.1610   37.1740   61.1790 C   0  0  0  0  0  0  0  0  0  0  0  0
   37.8230   36.1580   60.4540 N   0  0  0  0  0  0  0  0  0  0  0  0
   38.3310   34.9560   60.3810 C   0  0  0  0  0  0  0  0  0  0  0  0
   39.5040   34.6580   61.1220 C   0  0  0  0  0  0  0  0  0  0  0  0
   40.1620   33.4620   61.2110 N   0  0  0  0  0  0  0  0  0  0  0  0
   39.7200   32.3710   61.9160 C   0  0  0  0  0  0  0  0  0  0  0  0
   38.6090   32.2180   62.2930 O   0  0  0  0  0  0  0  0  0  0  0  0
   40.7990   31.4010   62.1630 C   0  0  1  0  0  0  0  0  0  0  0  0
   41.6470   31.4970   63.5420 C   0  0  0  0  0  0  0  0  0  0  0  0
   41.1960   32.5670   64.2100 O   0  0  0  0  0  0  0  0  0  0  0  0
   40.9400   30.3270   61.4070 N   0  0  0  0  0  0  0  0  0  0  0  0
   40.0640   29.8970   60.2290 C   0  0  0  0  0  0  0  0  0  0  0  0
   40.4350   28.5930   59.5510 C   0  0  0  0  0  0  0  0  0  0  0  0
   39.3100   28.5670   58.6230 N   0  0  0  0  0  0  0  0  0  0  0  0
   37.9770   28.9710   58.4210 C   0  0  0  0  0  0  0  0  0  0  0  0
   39.0180   28.4880   57.5350 C   0  0  2  0  0  0  0  0  0  0  0  0
   38.1170   27.8280   56.5100 C   0  0  0  0  0  0  0  0  0  0  0  0
   37.9380   27.1940   55.0390 C   0  0  2  0  0  0  0  0  0  0  0  0
   37.1100   25.6700   55.4510 C   0  0  0  0  0  0  0  0  0  0  0  0
   38.4100   24.8480   55.6100 C   0  0  0  0  0  0  0  0  0  0  0  0
   39.7630   25.6200   55.3240 C   0  0  0  0  0  0  0  0  0  0  0  0
   39.6500   26.5500   54.1270 C   0  0  0  0  0  0  0  0  0  0  0  0
   38.1810   27.0710   53.7950 C   0  0  2  0  0  0  0  0  0  0  0  0
   38.2260   27.6210   52.5940 N   0  0  0  0  0  0  0  0  0  0  0  0
   39.3130   28.3380   52.0440 C   0  0  0  0  0  0  0  0  0  0  0  0
   39.5610   29.6710   52.5540 C   0  0  0  0  0  0  0  0  0  0  0  0
   39.8770   30.7170   51.7330 C   0  0  0  0  0  0  0  0  0  0  0  0
   40.1160   30.4910   50.3440 C   0  0  0  0  0  0  0  0  0  0  0  0
   40.1840   29.1810   49.9160 C   0  0  0  0  0  0  0  0  0  0  0  0
   39.6540   28.0920   50.6600 C   0  0  0  0  0  0  0  0  0  0  0  0
   40.0190   35.7880   61.9890 C   0  0  0  0  0  0  0  0  0  0  0  0
   39.4110   37.0110   61.8640 C   0  0  0  0  0  0  0  0  0  0  0  0
   40.0390   38.0220   62.4360 F   0  0  0  0  0  0  0  0  0  0  0  0
   37.8563   34.1866   59.7544 H   0  0  0  0  0  0  0  0  0  0  0  0
   41.0570   33.3730   60.7100 H   0  0  0  0  0  0  0  0  0  0  0  0
   41.4369   31.9854   61.4837 H   0  0  0  0  0  0  0  0  0  0  0  0
   41.4961   30.5871   64.1415 H   0  0  0  0  0  0  0  0  0  0  0  0
   42.7229   31.5915   63.3333 H   0  0  0  0  0  0  0  0  0  0  0  0
   40.5490   32.2760   64.9010 H   0  0  0  0  0  0  0  0  0  0  0  0
   39.2097   30.5023   59.8916 H   0  0  0  0  0  0  0  0  0  0  0  0
   41.4064   28.6442   59.0374 H   0  0  0  0  0  0  0  0  0  0  0  0
   40.5664   27.7142   60.1993 H   0  0  0  0  0  0  0  0  0  0  0  0
   37.1252   28.3416   58.7180 H   0  0  0  0  0  0  0  0  0  0  0  0
   37.3244   29.8446   58.5657 H   0  0  0  0  0  0  0  0  0  0  0  0
   39.8549   28.5136   56.8215 H   0  0  0  0  0  0  0  0  0  0  0  0
   37.7753   26.9708   57.1088 H   0  0  0  0  0  0  0  0  0  0  0  0
   37.8846   28.8201   56.0957 H   0  0  0  0  0  0  0  0  0  0  0  0
   38.2337   28.2091   54.7354 H   0  0  0  0  0  0  0  0  0  0  0  0
   36.5278   25.7362   56.3820 H   0  0  0  0  0  0  0  0  0  0  0  0
   36.3510   25.2949   54.7487 H   0  0  0  0  0  0  0  0  0  0  0  0
   38.4478   24.4760   56.6445 H   0  0  0  0  0  0  0  0  0  0  0  0
   38.3544   24.0575   54.8471 H   0  0  0  0  0  0  0  0  0  0  0  0
   40.0262   26.2146   56.2112 H   0  0  0  0  0  0  0  0  0  0  0  0
   40.5380   24.8724   55.0995 H   0  0  0  0  0  0  0  0  0  0  0  0
   40.2847   27.4276   54.3193 H   0  0  0  0  0  0  0  0  0  0  0  0
   39.9627   25.9569   53.2550 H   0  0  0  0  0  0  0  0  0  0  0  0
   37.1725   26.8261   53.4305 H   0  0  0  0  0  0  0  0  0  0  0  0
   37.3900   27.5170   52.0030 H   0  0  0  0  0  0  0  0  0  0  0  0
   39.4928   29.8471   53.6377 H   0  0  0  0  0  0  0  0  0  0  0  0
   39.9473   31.7351   52.1435 H   0  0  0  0  0  0  0  0  0  0  0  0
   40.2411   31.3286   49.6421 H   0  0  0  0  0  0  0  0  0  0  0  0
   40.6717   28.9693   48.9530 H   0  0  0  0  0  0  0  0  0  0  0  0
   39.5091   27.1025   50.2019 H   0  0  0  0  0  0  0  0  0  0  0  0
   40.8500   35.6335   62.6930 H   0  0  0  0  0  0  0  0  0  0  0  0
  1  2  2  0
  2  3  2  0
  3  4  1  0
  4  5  2  0
  5  6  1  0
  6  7  2  0
  7  8  1  0
  8  9  1  0
  9 10  2  0
  9 11  1  0
 11 12  1  0
 12 13  1  0
 11 14  1  0
 14 15  2  3
 15 16  1  0
 16 17  1  0
 17 18  1  0
 18 19  1  0
 19 20  1  0
 20 21  1  0
 21 22  1  0
 22 23  1  0
 23 24  1  0
 24 25  1  0
 25 26  1  0
 26 27  1  0
 27 28  1  0
 28 29  2  0
 29 30  1  0
 30 31  2  0
 31 32  1  0
 32 33  2  0
  7 34  1  0
 34 35  2  0
 35 36  1  0
 35  4  1  0
 19 17  1  0
 26 21  1  0
 33 28  1  0
  6 37  1  0
  8 38  1  0
 11 39  1  6
 12 40  1  0
 12 41  1  0
 13 42  1  0
 15 43  1  0
 16 44  1  0
 16 45  1  0
 18 46  1  0
 18 47  1  0
 19 48  1  6
 20 49  1  0
 20 50  1  0
 21 51  1  6
 22 52  1  0
 22 53  1  0
 23 54  1  0
 23 55  1  0
 24 56  1  0
 24 57  1  0
 25 58  1  0
 25 59  1  0
 26 60  1  6
 27 61  1  0
 29 62  1  0
 30 63  1  0
 31 64  1  0
 32 65  1  0
 33 66  1  0
 34 67  1  0
M  END

>  <ID>
DiffSBDD_46_num_sample_100

>  <docking_score>
-10.174

$$$$
DiffSBDD_47_num_sample_100
     RDKit          3D

 31 31  0  0  0  0  0  0  0  0999 V2000
   38.3520   28.3110   52.3870 O   0  0  0  0  0  0  0  0  0  0  0  0
   38.8320   28.7940   53.0500 C   0  0  0  0  0  0  0  0  0  0  0  0
   39.6460   30.4020   52.6190 O   0  0  0  0  0  0  0  0  0  0  0  0
   40.0020   30.6360   52.5290 O   0  0  0  0  0  0  0  0  0  0  0  0
   39.0970   27.8810   54.7480 C   0  0  2  0  0  0  0  0  0  0  0  0
   37.6520   28.5870   54.7050 C   0  0  0  0  0  0  0  0  0  0  0  0
   37.4090   30.1980   55.0780 S   0  0  0  0  0  0  0  0  0  0  0  0
   38.3480   30.0160   56.7020 C   0  0  0  0  0  0  0  0  0  0  0  0
   38.6260   30.3630   58.1660 N   0  0  0  0  0  0  0  0  0  0  0  0
   38.0590   31.1910   59.2440 C   0  0  1  0  0  0  0  0  0  0  0  0
   38.8910   30.6620   60.6610 S   0  0  0  0  0  0  0  0  0  0  0  0
   38.3340   32.4620   58.5110 C   0  0  0  0  0  0  0  0  0  0  0  0
   38.3740   33.6650   59.2900 C   0  0  0  0  0  0  0  0  0  0  0  0
   37.0540   34.3740   59.4660 C   0  0  0  0  0  0  0  0  0  0  0  0
   37.3060   35.9420   60.0050 S   0  0  0  0  0  4  0  0  0  0  0  0
   38.6700   35.8590   60.7960 O   0  0  0  0  0  0  0  0  0  0  0  0
   36.4700   36.8260   59.1950 O   0  0  0  0  0  0  0  0  0  0  0  0
   39.5570   28.9740   56.0170 C   0  0  0  0  0  0  0  0  0  0  0  0
   39.5870   26.9020   54.8554 H   0  0  0  0  0  0  0  0  0  0  0  0
   37.2822   28.4558   53.6774 H   0  0  0  0  0  0  0  0  0  0  0  0
   37.1417   28.0900   55.5432 H   0  0  0  0  0  0  0  0  0  0  0  0
   37.0317   31.2078   59.6370 H   0  0  0  0  0  0  0  0  0  0  0  0
   38.1630   31.0030   61.7710 H   0  0  0  0  0  0  0  0  0  0  0  0
   39.3099   32.3549   58.0149 H   0  0  0  0  0  0  0  0  0  0  0  0
   37.4801   32.5902   57.8295 H   0  0  0  0  0  0  0  0  0  0  0  0
   38.7557   33.4082   60.2892 H   0  0  0  0  0  0  0  0  0  0  0  0
   39.0171   34.3621   58.7328 H   0  0  0  0  0  0  0  0  0  0  0  0
   36.5251   34.4018   58.5019 H   0  0  0  0  0  0  0  0  0  0  0  0
   36.4515   33.8314   60.2094 H   0  0  0  0  0  0  0  0  0  0  0  0
   40.3510   29.6205   55.6150 H   0  0  0  0  0  0  0  0  0  0  0  0
   39.8404   28.3122   56.8487 H   0  0  0  0  0  0  0  0  0  0  0  0
  1  2  2  0
  2  3  1  0
  3  4  1  0
  2  5  1  0
  5  6  1  0
  6  7  1  0
  7  8  1  0
  8  9  2  3
  9 10  1  0
 10 11  1  0
 10 12  1  0
 12 13  1  0
 13 14  1  0
 14 15  1  0
 15 16  2  0
 15 17  1  6
  8 18  1  0
 18  5  1  0
  5 19  1  6
  6 20  1  0
  6 21  1  0
 10 22  1  1
 11 23  1  0
 12 24  1  0
 12 25  1  0
 13 26  1  0
 13 27  1  0
 14 28  1  0
 14 29  1  0
 18 30  1  0
 18 31  1  0
M  CHG  2   4  -1  17  -1
M  END

>  <ID>
DiffSBDD_47_num_sample_100

>  <docking_score>
-6.584

$$$$
DiffSBDD_48_num_sample_100
     RDKit          3D

 72 76  0  0  0  0  0  0  0  0999 V2000
   41.2420   35.3340   61.4650 C   0  0  0  0  0  0  0  0  0  0  0  0
   39.8140   35.3660   61.3290 C   0  0  1  0  0  0  0  0  0  0  0  0
   39.2270   36.6240   61.6140 C   0  0  0  0  0  0  0  0  0  0  0  0
   39.8020   37.5930   62.0480 O   0  0  0  0  0  0  0  0  0  0  0  0
   37.9730   36.6890   60.7720 C   0  0  0  0  0  0  0  0  0  0  0  0
   37.4720   37.6350   60.2800 O   0  0  0  0  0  0  0  0  0  0  0  0
   37.3280   35.3810   60.9930 C   0  0  2  0  0  0  0  0  0  0  0  0
   36.0970   34.4200   61.3410 C   0  0  0  0  0  0  0  0  0  0  0  0
   36.5440   35.4870   62.1310 O   0  0  0  0  0  0  0  0  0  0  0  0
   37.7900   34.5910   59.8420 C   0  0  2  0  0  0  0  0  0  0  0  0
   37.3070   33.7060   58.8640 C   0  0  0  0  0  0  0  0  0  0  0  0
   37.5710   33.5050   57.8010 N   0  0  0  0  0  0  0  0  0  0  0  0
   38.7170   32.7060   57.0910 C   0  0  0  0  0  0  0  0  0  0  0  0
   38.4630   31.1880   57.1630 C   0  0  2  0  0  0  0  0  0  0  0  0
   38.6950   30.4760   58.4530 C   0  0  0  0  0  0  0  0  0  0  0  0
   38.7700   29.0430   58.0140 C   0  0  0  0  0  0  0  0  0  0  0  0
   39.0800   27.9090   58.7860 C   0  0  0  0  0  0  0  0  0  0  0  0
   39.0640   26.6000   58.2850 C   0  0  0  0  0  0  0  0  0  0  0  0
   38.6050   26.3920   56.9360 C   0  0  0  0  0  0  0  0  0  0  0  0
   38.4400   27.4680   55.9520 C   0  0  0  0  0  0  0  0  0  0  0  0
   38.1340   27.0920   54.4860 C   0  0  0  0  0  0  0  0  0  0  0  0
   37.9340   27.6140   53.3350 C   0  0  0  0  0  0  0  0  0  0  0  0
   38.8680   28.5280   52.5100 C   0  0  0  0  0  0  0  0  0  0  0  0
   39.1510   28.0950   51.0950 C   0  0  0  0  0  0  0  0  0  0  0  0
   38.5810   27.0390   50.6280 O   0  0  0  0  0  0  0  0  0  0  0  0
   39.9330   28.9500   50.1360 C   0  0  0  0  0  0  0  0  0  0  0  0
   39.9830   30.3860   50.5700 C   0  0  0  0  0  0  0  0  0  0  0  0
   40.5170   30.4340   51.9550 C   0  0  0  0  0  0  0  0  0  0  0  0
   39.4000   29.8880   52.9500 C   0  0  0  0  0  0  0  0  0  0  0  0
   38.4130   28.9120   56.5520 C   0  0  0  0  0  0  0  0  0  0  0  0
   37.9820   30.2810   56.2320 N   0  0  0  0  0  0  0  0  0  0  0  0
   37.2160   30.8300   55.1240 C   0  0  0  0  0  0  0  0  0  0  0  0
   39.1030   34.4680   60.3840 C   0  0  2  0  0  0  0  0  0  0  0  0
   39.3510   33.2000   60.6480 O   0  0  0  0  0  0  0  0  0  0  0  0
   41.5086   35.3280   62.5322 H   0  0  0  0  0  0  0  0  0  0  0  0
   41.6359   34.4268   60.9835 H   0  0  0  0  0  0  0  0  0  0  0  0
   41.6762   36.2226   60.9835 H   0  0  0  0  0  0  0  0  0  0  0  0
   39.5589   34.7156   62.1787 H   0  0  0  0  0  0  0  0  0  0  0  0
   35.1519   34.4884   60.7823 H   0  0  0  0  0  0  0  0  0  0  0  0
   35.9233   33.3407   61.4633 H   0  0  0  0  0  0  0  0  0  0  0  0
   37.2780   34.9399   58.9331 H   0  0  0  0  0  0  0  0  0  0  0  0
   37.4290   32.7216   59.3395 H   0  0  0  0  0  0  0  0  0  0  0  0
   36.4021   34.2886   58.6365 H   0  0  0  0  0  0  0  0  0  0  0  0
   37.6670   34.4500   57.4040 H   0  0  0  0  0  0  0  0  0  0  0  0
   36.8500   32.7830   57.6590 H   0  0  0  0  0  0  0  0  0  0  0  0
   38.7675   33.0120   56.0356 H   0  0  0  0  0  0  0  0  0  0  0  0
   39.6651   32.9259   57.6036 H   0  0  0  0  0  0  0  0  0  0  0  0
   37.4193   31.3765   57.4547 H   0  0  0  0  0  0  0  0  0  0  0  0
   39.6354   30.7989   58.9234 H   0  0  0  0  0  0  0  0  0  0  0  0
   37.9188   30.6666   59.2088 H   0  0  0  0  0  0  0  0  0  0  0  0
   39.3501   28.0576   59.8419 H   0  0  0  0  0  0  0  0  0  0  0  0
   39.3934   25.7539   58.9060 H   0  0  0  0  0  0  0  0  0  0  0  0
   38.3636   25.3650   56.6245 H   0  0  0  0  0  0  0  0  0  0  0  0
   38.9737   26.4167   54.2650 H   0  0  0  0  0  0  0  0  0  0  0  0
   37.0540   27.0416   54.6886 H   0  0  0  0  0  0  0  0  0  0  0  0
   37.7370   26.7561   52.6753 H   0  0  0  0  0  0  0  0  0  0  0  0
   37.1947   28.3722   53.6326 H   0  0  0  0  0  0  0  0  0  0  0  0
   37.9420   27.1130   49.8750 H   0  0  0  0  0  0  0  0  0  0  0  0
   40.9606   28.5628   50.0727 H   0  0  0  0  0  0  0  0  0  0  0  0
   39.4297   28.9093   49.1587 H   0  0  0  0  0  0  0  0  0  0  0  0
   40.6410   30.9556   49.8973 H   0  0  0  0  0  0  0  0  0  0  0  0
   38.9766   30.8286   50.5353 H   0  0  0  0  0  0  0  0  0  0  0  0
   41.4167   29.8053   52.0272 H   0  0  0  0  0  0  0  0  0  0  0  0
   40.7825   31.4682   52.2195 H   0  0  0  0  0  0  0  0  0  0  0  0
   39.8348   29.7922   53.9559 H   0  0  0  0  0  0  0  0  0  0  0  0
   38.5620   30.6006   52.9487 H   0  0  0  0  0  0  0  0  0  0  0  0
   37.1340   30.1470   56.8010 H   0  0  0  0  0  0  0  0  0  0  0  0
   36.3808   31.4286   55.5166 H   0  0  0  0  0  0  0  0  0  0  0  0
   37.8672   31.4683   54.5087 H   0  0  0  0  0  0  0  0  0  0  0  0
   36.8207   30.0083   54.5087 H   0  0  0  0  0  0  0  0  0  0  0  0
   39.5780   34.9738   59.5305 H   0  0  0  0  0  0  0  0  0  0  0  0
   38.5150   32.7540   60.9360 H   0  0  0  0  0  0  0  0  0  0  0  0
  1  2  1  0
  2  3  1  0
  3  4  2  0
  3  5  1  0
  5  6  2  0
  5  7  1  0
  7  8  1  0
  8  9  1  0
  7 10  1  0
 10 11  1  0
 11 12  1  0
 12 13  1  0
 13 14  1  0
 14 15  1  0
 15 16  1  0
 16 17  2  0
 17 18  1  0
 18 19  2  0
 19 20  1  0
 20 21  1  0
 21 22  1  0
 22 23  1  0
 23 24  2  0
 24 25  1  0
 24 26  1  0
 26 27  1  0
 27 28  1  0
 28 29  1  0
 20 30  2  0
 30 31  1  0
 31 32  1  0
 10 33  1  0
 33 34  1  0
 33  2  1  0
  7  9  1  1
 31 14  1  0
 30 16  1  0
 29 23  1  0
  1 35  1  0
  1 36  1  0
  1 37  1  0
  2 38  1  1
  8 39  1  0
  8 40  1  0
 10 41  1  6
 11 42  1  0
 11 43  1  0
 12 44  1  0
 12 45  1  0
 13 46  1  0
 13 47  1  0
 14 48  1  6
 15 49  1  0
 15 50  1  0
 17 51  1  0
 18 52  1  0
 19 53  1  0
 21 54  1  0
 21 55  1  0
 22 56  1  0
 22 57  1  0
 25 58  1  0
 26 59  1  0
 26 60  1  0
 27 61  1  0
 27 62  1  0
 28 63  1  0
 28 64  1  0
 29 65  1  0
 29 66  1  0
 31 67  1  0
 32 68  1  0
 32 69  1  0
 32 70  1  0
 33 71  1  6
 34 72  1  0
M  CHG  2  12   1  31   1
M  END

>  <ID>
DiffSBDD_48_num_sample_100

>  <docking_score>
-11.426

$$$$
DiffSBDD_49_num_sample_100
     RDKit          3D

 44 46  0  0  0  0  0  0  0  0999 V2000
   37.7380   33.4780   59.8490 C   0  0  0  0  0  0  0  0  0  0  0  0
   37.9510   32.9580   58.5690 O   0  0  0  0  0  0  0  0  0  0  0  0
   38.3980   31.7230   58.4510 N   0  0  0  0  0  0  0  0  0  0  0  0
   38.5090   31.2230   59.8300 C   0  0  0  0  0  0  0  0  0  0  0  0
   39.5000   30.1120   60.0540 C   0  0  0  0  0  0  0  0  0  0  0  0
   39.2130   28.9690   59.1320 N   0  0  0  0  0  0  0  0  0  0  0  0
   40.1210   28.3080   58.3720 C   0  0  0  0  0  0  0  0  0  0  0  0
   41.2340   28.3170   58.4660 O   0  0  0  0  0  0  0  0  0  0  0  0
   39.4940   27.3200   57.4750 C   0  0  0  0  0  0  0  0  0  0  0  0
   38.2460   26.7070   57.7980 C   0  0  0  0  0  0  0  0  0  0  0  0
   37.7390   25.8450   56.7910 C   0  0  0  0  0  0  0  0  0  0  0  0
   38.3450   25.5380   55.6470 C   0  0  0  0  0  0  0  0  0  0  0  0
   39.6020   26.0280   55.4270 C   0  0  0  0  0  0  0  0  0  0  0  0
   40.4250   25.5610   54.0230 Cl  0  0  0  0  0  0  0  0  0  0  0  0
   40.1680   26.9110   56.3270 C   0  0  0  0  0  0  0  0  0  0  0  0
   38.3480   31.7400   56.9840 C   0  0  0  0  0  0  0  0  0  0  0  0
   38.7390   33.0730   56.2400 S   0  0  0  0  0  0  0  0  0  0  0  0
   37.7420   30.6030   56.4100 N   0  0  0  0  0  0  0  0  0  0  0  0
   38.0590   29.9900   55.3040 C   0  0  0  0  0  0  0  0  0  0  0  0
   37.1960   29.0370   54.7960 C   0  0  0  0  0  0  0  0  0  0  0  0
   37.4130   28.3240   53.5900 C   0  0  0  0  0  0  0  0  0  0  0  0
   38.5690   28.5560   52.8590 C   0  0  0  0  0  0  0  0  0  0  0  0
   38.9640   27.8910   51.8620 N   0  0  0  0  0  0  0  0  0  0  0  0
   39.4920   27.8630   50.8770 O   0  0  0  0  0  0  0  0  0  0  0  0
   38.3580   27.4200   51.0140 O   0  0  0  0  0  0  0  0  0  0  0  0
   39.5160   29.4250   53.4520 C   0  0  0  0  0  0  0  0  0  0  0  0
   39.2270   30.1580   54.5970 C   0  0  0  0  0  0  0  0  0  0  0  0
   38.0421   32.7356   60.6016 H   0  0  0  0  0  0  0  0  0  0  0  0
   38.3333   34.3942   59.9763 H   0  0  0  0  0  0  0  0  0  0  0  0
   36.6710   33.7133   59.9763 H   0  0  0  0  0  0  0  0  0  0  0  0
   38.8006   32.0678   60.4713 H   0  0  0  0  0  0  0  0  0  0  0  0
   37.5248   30.7936   60.0687 H   0  0  0  0  0  0  0  0  0  0  0  0
   40.5160   30.4873   59.8619 H   0  0  0  0  0  0  0  0  0  0  0  0
   39.4186   29.7630   61.0940 H   0  0  0  0  0  0  0  0  0  0  0  0
   38.2340   28.6560   59.0670 H   0  0  0  0  0  0  0  0  0  0  0  0
   37.7213   26.8876   58.7478 H   0  0  0  0  0  0  0  0  0  0  0  0
   36.7547   25.3888   56.9730 H   0  0  0  0  0  0  0  0  0  0  0  0
   37.8470   24.9058   54.8971 H   0  0  0  0  0  0  0  0  0  0  0  0
   41.1777   27.3011   56.1314 H   0  0  0  0  0  0  0  0  0  0  0  0
   36.9470   30.2070   56.9310 H   0  0  0  0  0  0  0  0  0  0  0  0
   36.2806   28.8174   55.3650 H   0  0  0  0  0  0  0  0  0  0  0  0
   36.6709   27.5929   53.2368 H   0  0  0  0  0  0  0  0  0  0  0  0
   40.5107   29.5232   52.9928 H   0  0  0  0  0  0  0  0  0  0  0  0
   39.9587   30.8993   54.9506 H   0  0  0  0  0  0  0  0  0  0  0  0
  1  2  1  0
  2  3  1  0
  3  4  1  0
  4  5  1  0
  5  6  1  0
  6  7  1  0
  7  8  2  0
  7  9  1  0
  9 10  2  0
 10 11  1  0
 11 12  2  0
 12 13  1  0
 13 14  1  0
 13 15  2  0
  3 16  1  0
 16 17  2  0
 16 18  1  0
 18 19  1  0
 19 20  2  0
 20 21  1  0
 21 22  2  0
 22 23  1  0
 23 24  1  0
 24 25  1  0
 22 26  1  0
 26 27  2  0
 15  9  1  0
 27 19  1  0
 25 23  1  0
  1 28  1  0
  1 29  1  0
  1 30  1  0
  4 31  1  0
  4 32  1  0
  5 33  1  0
  5 34  1  0
  6 35  1  0
 10 36  1  0
 11 37  1  0
 12 38  1  0
 15 39  1  0
 18 40  1  0
 20 41  1  0
 21 42  1  0
 26 43  1  0
 27 44  1  0
M  END

>  <ID>
DiffSBDD_49_num_sample_100

>  <docking_score>
-8.296

$$$$
DiffSBDD_4_num_sample_100
     RDKit          3D

 37 37  0  0  0  0  0  0  0  0999 V2000
   40.1530   30.1080   50.2560 C   0  0  0  0  0  0  0  0  0  0  0  0
   40.0050   29.8750   51.7650 C   0  0  0  0  0  0  0  0  0  0  0  0
   39.3680   28.7810   51.9900 C   0  0  0  0  0  0  0  0  0  0  0  0
   38.8740   28.3960   53.1830 N   0  0  0  0  0  0  0  0  0  0  0  0
   38.1210   27.1720   53.6670 C   0  0  0  0  0  0  0  0  0  0  0  0
   36.8640   27.2380   53.6480 O   0  0  0  0  0  0  0  0  0  0  0  0
   38.8650   26.2330   54.5100 C   0  0  0  0  0  0  0  0  0  0  0  0
   38.2220   25.4650   55.5170 C   0  0  1  0  0  0  0  0  0  0  0  0
   36.9850   24.7790   55.1760 O   0  0  0  0  0  0  0  0  0  0  0  0
   38.7620   25.4950   57.0210 C   0  0  0  0  0  0  0  0  0  0  0  0
   37.9470   24.4980   57.7860 C   0  0  0  0  0  0  0  0  0  0  0  0
   38.7940   26.8460   57.6950 C   0  0  0  0  0  0  0  0  0  0  0  0
   40.0500   24.9380   57.0400 O   0  0  0  0  0  0  0  0  0  0  0  0
   39.0430   28.9460   54.4480 C   0  0  0  0  0  0  0  0  0  0  0  0
   39.5260   30.4700   54.3890 C   0  0  0  0  0  0  0  0  0  0  0  0
   39.7640   30.7600   53.0970 C   0  0  0  0  0  0  0  0  0  0  0  0
   40.7354   31.0248   50.0819 H   0  0  0  0  0  0  0  0  0  0  0  0
   40.6730   29.2516   49.8020 H   0  0  0  0  0  0  0  0  0  0  0  0
   39.1568   30.2147   49.8020 H   0  0  0  0  0  0  0  0  0  0  0  0
   39.2135   28.1030   51.1377 H   0  0  0  0  0  0  0  0  0  0  0  0
   39.3395   25.5129   53.8271 H   0  0  0  0  0  0  0  0  0  0  0  0
   39.5060   26.9044   55.1002 H   0  0  0  0  0  0  0  0  0  0  0  0
   37.6462   26.3504   55.8246 H   0  0  0  0  0  0  0  0  0  0  0  0
   36.2210   25.3960   55.2990 H   0  0  0  0  0  0  0  0  0  0  0  0
   38.0827   24.6640   58.8649 H   0  0  0  0  0  0  0  0  0  0  0  0
   36.8845   24.6173   57.5275 H   0  0  0  0  0  0  0  0  0  0  0  0
   38.2752   23.4804   57.5275 H   0  0  0  0  0  0  0  0  0  0  0  0
   38.7908   26.7113   58.7867 H   0  0  0  0  0  0  0  0  0  0  0  0
   39.7051   27.3841   57.3946 H   0  0  0  0  0  0  0  0  0  0  0  0
   37.9094   27.4267   57.3946 H   0  0  0  0  0  0  0  0  0  0  0  0
   40.7110   25.6420   57.2590 H   0  0  0  0  0  0  0  0  0  0  0  0
   38.0839   28.8996   54.9847 H   0  0  0  0  0  0  0  0  0  0  0  0
   39.8218   28.3664   54.9652 H   0  0  0  0  0  0  0  0  0  0  0  0
   38.7406   31.1303   54.7854 H   0  0  0  0  0  0  0  0  0  0  0  0
   40.4311   30.6176   54.9965 H   0  0  0  0  0  0  0  0  0  0  0  0
   38.9034   31.3880   52.8230 H   0  0  0  0  0  0  0  0  0  0  0  0
   40.8248   31.0112   53.2441 H   0  0  0  0  0  0  0  0  0  0  0  0
  1  2  1  0
  2  3  2  0
  3  4  1  0
  4  5  1  0
  5  6  2  0
  5  7  1  0
  7  8  1  0
  8  9  1  0
  8 10  1  0
 10 11  1  0
 10 12  1  0
 10 13  1  0
  4 14  1  0
 14 15  1  0
 15 16  1  0
 16  2  1  0
  1 17  1  0
  1 18  1  0
  1 19  1  0
  3 20  1  0
  7 21  1  0
  7 22  1  0
  8 23  1  6
  9 24  1  0
 11 25  1  0
 11 26  1  0
 11 27  1  0
 12 28  1  0
 12 29  1  0
 12 30  1  0
 13 31  1  0
 14 32  1  0
 14 33  1  0
 15 34  1  0
 15 35  1  0
 16 36  1  0
 16 37  1  0
M  END

>  <ID>
DiffSBDD_4_num_sample_100

>  <docking_score>
-7.531

$$$$
DiffSBDD_50_num_sample_100
     RDKit          3D

 54 56  0  0  0  0  0  0  0  0999 V2000
   39.7990   24.6340   57.3930 O   0  0  0  0  0  0  0  0  0  0  0  0
   39.6160   25.8910   57.9000 C   0  0  0  0  0  0  0  0  0  0  0  0
   38.3810   26.4650   57.1230 C   0  0  1  0  0  0  0  0  0  0  0  0
   38.0800   27.8000   57.1700 C   0  0  0  0  0  0  0  0  0  0  0  0
   38.8950   29.0020   57.4920 C   0  0  0  0  0  0  0  0  0  0  0  0
   38.2980   30.0160   58.2600 C   0  0  2  0  0  0  0  0  0  0  0  0
   36.9900   29.7670   59.1240 C   0  0  0  0  0  0  0  0  0  0  0  0
   37.1630   30.8910   60.2060 C   0  0  2  0  0  0  0  0  0  0  0  0
   35.8940   31.7060   60.5570 C   0  0  0  0  0  0  0  0  0  0  0  0
   36.3770   33.5050   60.9760 S   0  0  0  0  0  0  0  0  0  0  0  0
   37.4930   33.2550   59.6370 C   0  0  0  0  0  0  0  0  0  0  0  0
   37.9960   31.8950   59.5090 N   0  0  2  0  0  0  0  0  0  0  0  0
   38.3290   31.5130   58.1670 C   0  0  0  0  0  0  0  0  0  0  0  0
   38.0020   25.4710   56.0640 C   0  0  0  0  0  0  0  0  0  0  0  0
   38.9990   26.4360   54.7450 C   0  0  1  0  0  0  0  0  0  0  0  0
   39.6580   25.6280   54.4750 O   0  0  0  0  0  0  0  0  0  0  0  0
   38.5230   26.9550   53.6760 N   0  0  0  0  0  0  0  0  0  0  0  0
   39.0010   28.2340   53.2070 C   0  0  2  0  0  0  0  0  0  0  0  0
   39.2170   29.6160   53.7290 C   0  0  0  0  0  0  0  0  0  0  0  0
   39.7070   30.6240   53.0150 C   0  0  0  0  0  0  0  0  0  0  0  0
   39.9550   30.5080   51.6220 C   0  0  0  0  0  0  0  0  0  0  0  0
   39.7940   29.2360   50.9400 C   0  0  0  0  0  0  0  0  0  0  0  0
   40.2250   29.1220   49.6790 F   0  0  0  0  0  0  0  0  0  0  0  0
   39.0580   28.1130   51.6170 C   0  0  0  0  0  0  0  0  0  0  0  0
   40.7660   24.4270   57.3650 H   0  0  0  0  0  0  0  0  0  0  0  0
   39.4073   25.8462   58.9791 H   0  0  0  0  0  0  0  0  0  0  0  0
   40.5100   26.5202   57.7784 H   0  0  0  0  0  0  0  0  0  0  0  0
   37.4303   26.6258   57.6525 H   0  0  0  0  0  0  0  0  0  0  0  0
   37.6985   28.0122   56.1603 H   0  0  0  0  0  0  0  0  0  0  0  0
   37.5340   27.7662   58.1243 H   0  0  0  0  0  0  0  0  0  0  0  0
   39.7845   28.6573   58.0397 H   0  0  0  0  0  0  0  0  0  0  0  0
   39.0883   29.4729   56.5169 H   0  0  0  0  0  0  0  0  0  0  0  0
   39.3336   29.6895   58.4357 H   0  0  0  0  0  0  0  0  0  0  0  0
   36.0749   29.9088   58.5302 H   0  0  0  0  0  0  0  0  0  0  0  0
   36.8859   28.7482   59.5255 H   0  0  0  0  0  0  0  0  0  0  0  0
   37.5243   30.4090   61.1264 H   0  0  0  0  0  0  0  0  0  0  0  0
   35.2083   31.7028   59.6969 H   0  0  0  0  0  0  0  0  0  0  0  0
   35.3987   31.2506   61.4272 H   0  0  0  0  0  0  0  0  0  0  0  0
   36.9725   33.5169   58.7040 H   0  0  0  0  0  0  0  0  0  0  0  0
   38.3672   33.8914   59.8388 H   0  0  0  0  0  0  0  0  0  0  0  0
   38.8960   31.9100   60.0090 H   0  0  0  0  0  0  0  0  0  0  0  0
   37.5848   31.8855   57.4477 H   0  0  0  0  0  0  0  0  0  0  0  0
   39.2881   31.9185   57.8124 H   0  0  0  0  0  0  0  0  0  0  0  0
   38.3804   24.4554   56.2520 H   0  0  0  0  0  0  0  0  0  0  0  0
   36.9413   25.2403   55.8861 H   0  0  0  0  0  0  0  0  0  0  0  0
   39.3147   27.3906   55.1912 H   0  0  0  0  0  0  0  0  0  0  0  0
   40.5840   25.9700   54.3990 H   0  0  0  0  0  0  0  0  0  0  0  0
   38.6950   26.2800   52.9180 H   0  0  0  0  0  0  0  0  0  0  0  0
   39.4649   28.3451   54.1982 H   0  0  0  0  0  0  0  0  0  0  0  0
   38.9520   29.8137   54.7781 H   0  0  0  0  0  0  0  0  0  0  0  0
   39.9271   31.5769   53.5185 H   0  0  0  0  0  0  0  0  0  0  0  0
   40.2733   31.3932   51.0518 H   0  0  0  0  0  0  0  0  0  0  0  0
   38.0266   28.0966   51.2350 H   0  0  0  0  0  0  0  0  0  0  0  0
   39.6111   27.1898   51.3896 H   0  0  0  0  0  0  0  0  0  0  0  0
  1  2  1  0
  2  3  1  0
  3  4  1  0
  4  5  1  0
  5  6  1  0
  6  7  1  0
  7  8  1  0
  8  9  1  0
  9 10  1  0
 10 11  1  0
 11 12  1  0
 12 13  1  0
  3 14  1  0
 14 15  1  0
 15 16  1  0
 15 17  1  0
 17 18  1  0
 18 19  1  0
 19 20  2  0
 20 21  1  0
 21 22  2  0
 22 23  1  0
 22 24  1  0
 13  6  1  0
 24 18  1  0
 12  8  1  0
  1 25  1  0
  2 26  1  0
  2 27  1  0
  3 28  1  1
  4 29  1  0
  4 30  1  0
  5 31  1  0
  5 32  1  0
  6 33  1  1
  7 34  1  0
  7 35  1  0
  8 36  1  1
  9 37  1  0
  9 38  1  0
 11 39  1  0
 11 40  1  0
 12 41  1  1
 13 42  1  0
 13 43  1  0
 14 44  1  0
 14 45  1  0
 15 46  1  1
 16 47  1  0
 17 48  1  0
 18 49  1  1
 19 50  1  0
 20 51  1  0
 21 52  1  0
 24 53  1  0
 24 54  1  0
M  CHG  1  12   1
M  END

>  <ID>
DiffSBDD_50_num_sample_100

>  <docking_score>
-8.747

$$$$
DiffSBDD_51_num_sample_100
     RDKit          3D

 65 66  0  0  0  0  0  0  0  0999 V2000
   39.6390   30.4150   53.3500 C   0  0  0  0  0  0  0  0  0  0  0  0
   39.5610   30.7480   54.6270 C   0  0  0  0  0  0  0  0  0  0  0  0
   39.0530   31.0920   55.8350 C   0  0  0  0  0  0  0  0  0  0  0  0
   38.5810   32.3590   56.2600 C   0  0  0  0  0  0  0  0  0  0  0  0
   38.4250   33.2660   55.4970 O   0  0  0  0  0  0  0  0  0  0  0  0
   38.0770   32.5920   57.5410 N   0  0  0  0  0  0  0  0  0  0  0  0
   37.5890   33.8630   57.8160 N   0  0  0  0  0  0  0  0  0  0  0  0
   36.8990   33.9680   58.8830 C   0  0  0  0  0  0  0  0  0  0  0  0
   35.9500   35.0300   59.0350 O   0  0  0  0  0  0  0  0  0  0  0  0
   37.1860   33.0410   59.9220 C   0  0  1  0  0  0  0  0  0  0  0  0
   38.1110   33.4360   60.9030 C   0  0  1  0  0  0  0  0  0  0  0  0
   39.2490   32.4150   60.9770 C   0  0  0  0  0  0  0  0  0  0  0  0
   39.6100   31.8040   60.3450 O   0  0  0  0  0  0  0  0  0  0  0  0
   40.4050   33.3540   61.8650 N   0  0  0  0  0  0  0  0  0  0  0  0
   41.4910   32.5240   62.4130 C   0  0  0  0  0  0  0  0  0  0  0  0
   42.4580   32.3890   61.8740 O   0  0  0  0  0  0  0  0  0  0  0  0
   39.8170   34.5840   62.1510 C   0  0  1  0  0  0  0  0  0  0  0  0
   40.3650   35.5520   62.5870 C   0  0  0  0  0  0  0  0  0  0  0  0
   39.5440   36.7980   62.9620 C   0  0  0  0  0  0  0  0  0  0  0  0
   38.9090   37.1560   61.7050 C   0  0  0  0  0  0  0  0  0  0  0  0
   37.9310   35.8550   61.3930 C   0  0  0  0  0  0  0  0  0  0  0  0
   38.7890   34.6620   60.9140 C   0  0  2  0  0  0  0  0  0  0  0  0
   35.9490   32.6080   60.7210 C   0  0  2  0  0  0  0  0  0  0  0  0
   35.3380   33.2140   61.8720 C   0  0  0  0  0  0  0  0  0  0  0  0
   35.3050   31.5600   60.1820 N   0  0  0  0  0  0  0  0  0  0  0  0
   38.9380   30.0330   56.9850 C   0  0  2  0  0  0  0  0  0  0  0  0
   39.7930   28.8500   56.6360 C   0  0  0  0  0  0  0  0  0  0  0  0
   37.6400   29.5430   57.2110 O   0  0  0  0  0  0  0  0  0  0  0  0
   37.6490   29.2180   58.7050 C   0  0  0  0  0  0  0  0  0  0  0  0
   39.8891   29.3473   53.2641 H   0  0  0  0  0  0  0  0  0  0  0  0
   38.6719   30.6055   52.8617 H   0  0  0  0  0  0  0  0  0  0  0  0
   40.4209   31.0152   52.8617 H   0  0  0  0  0  0  0  0  0  0  0  0
   40.1212   29.8759   54.9953 H   0  0  0  0  0  0  0  0  0  0  0  0
   39.3122   31.7657   54.2918 H   0  0  0  0  0  0  0  0  0  0  0  0
   40.0629   31.3505   56.1861 H   0  0  0  0  0  0  0  0  0  0  0  0
   38.0670   31.8500   58.2550 H   0  0  0  0  0  0  0  0  0  0  0  0
   36.9960   34.1530   57.0250 H   0  0  0  0  0  0  0  0  0  0  0  0
   38.4170   34.4600   57.9550 H   0  0  0  0  0  0  0  0  0  0  0  0
   37.6200   32.2322   59.3158 H   0  0  0  0  0  0  0  0  0  0  0  0
   37.3840   33.5294   61.7232 H   0  0  0  0  0  0  0  0  0  0  0  0
   41.3443   32.0230   63.3813 H   0  0  0  0  0  0  0  0  0  0  0  0
   39.4103   34.6248   63.1722 H   0  0  0  0  0  0  0  0  0  0  0  0
   40.8937   35.2343   63.4978 H   0  0  0  0  0  0  0  0  0  0  0  0
   40.9773   35.8981   61.7412 H   0  0  0  0  0  0  0  0  0  0  0  0
   38.7942   36.5616   63.7314 H   0  0  0  0  0  0  0  0  0  0  0  0
   40.1532   37.6086   63.3883 H   0  0  0  0  0  0  0  0  0  0  0  0
   38.3181   38.0779   61.8097 H   0  0  0  0  0  0  0  0  0  0  0  0
   39.6298   37.3579   60.8989 H   0  0  0  0  0  0  0  0  0  0  0  0
   37.3930   35.5736   62.3102 H   0  0  0  0  0  0  0  0  0  0  0  0
   37.2080   36.1224   60.6083 H   0  0  0  0  0  0  0  0  0  0  0  0
   39.1713   34.8067   59.8928 H   0  0  0  0  0  0  0  0  0  0  0  0
   35.3109   33.2156   60.0624 H   0  0  0  0  0  0  0  0  0  0  0  0
   35.7718   32.7837   62.7867 H   0  0  0  0  0  0  0  0  0  0  0  0
   35.5197   34.2988   61.8552 H   0  0  0  0  0  0  0  0  0  0  0  0
   34.2548   33.0234   61.8552 H   0  0  0  0  0  0  0  0  0  0  0  0
   35.5700   31.4680   59.1910 H   0  0  0  0  0  0  0  0  0  0  0  0
   35.5630   30.7010   60.6880 H   0  0  0  0  0  0  0  0  0  0  0  0
   34.2880   31.7090   60.2530 H   0  0  0  0  0  0  0  0  0  0  0  0
   39.2560   30.5563   57.8988 H   0  0  0  0  0  0  0  0  0  0  0  0
   40.1432   28.3655   57.5594 H   0  0  0  0  0  0  0  0  0  0  0  0
   39.2033   28.1326   56.0464 H   0  0  0  0  0  0  0  0  0  0  0  0
   40.6592   29.1848   56.0464 H   0  0  0  0  0  0  0  0  0  0  0  0
   37.6231   30.1530   59.2838 H   0  0  0  0  0  0  0  0  0  0  0  0
   36.7674   28.6087   58.9530 H   0  0  0  0  0  0  0  0  0  0  0  0
   38.5630   28.6584   58.9530 H   0  0  0  0  0  0  0  0  0  0  0  0
  1  2  1  0
  2  3  1  0
  3  4  1  0
  4  5  2  0
  4  6  1  0
  6  7  1  0
  7  8  1  0
  8  9  2  0
  8 10  1  0
 10 11  1  0
 11 12  1  0
 12 13  2  0
 12 14  1  0
 14 15  1  0
 15 16  2  0
 14 17  1  0
 17 18  1  0
 18 19  1  0
 19 20  1  0
 20 21  1  0
 21 22  1  0
 10 23  1  0
 23 24  1  0
 23 25  1  0
  3 26  1  0
 26 27  1  0
 26 28  1  0
 28 29  1  0
 22 11  1  0
 22 17  1  0
  1 30  1  0
  1 31  1  0
  1 32  1  0
  2 33  1  0
  2 34  1  0
  3 35  1  0
  6 36  1  0
  7 37  1  0
  7 38  1  0
 10 39  1  6
 11 40  1  1
 15 41  1  0
 17 42  1  1
 18 43  1  0
 18 44  1  0
 19 45  1  0
 19 46  1  0
 20 47  1  0
 20 48  1  0
 21 49  1  0
 21 50  1  0
 22 51  1  6
 23 52  1  1
 24 53  1  0
 24 54  1  0
 24 55  1  0
 25 56  1  0
 25 57  1  0
 25 58  1  0
 26 59  1  1
 27 60  1  0
 27 61  1  0
 27 62  1  0
 29 63  1  0
 29 64  1  0
 29 65  1  0
M  CHG  2   7   1  25   1
M  END

>  <ID>
DiffSBDD_51_num_sample_100

>  <docking_score>
-8.372

$$$$
DiffSBDD_52_num_sample_100
     RDKit          3D

 25 25  0  0  0  0  0  0  0  0999 V2000
   39.8050   24.8880   57.1520 N   0  0  0  0  0  0  0  0  0  0  0  0
   39.3970   25.9500   56.2700 C   0  0  0  0  0  0  0  0  0  0  0  0
   38.4650   27.1950   56.9970 S   0  0  0  0  0  0  0  0  0  0  0  0
   38.5820   28.2140   55.7430 C   0  0  0  0  0  0  0  0  0  0  0  0
   38.9570   27.5980   54.3650 C   0  0  2  0  0  0  0  0  0  0  0  0
   38.1640   27.4370   53.1010 C   0  0  1  0  0  0  0  0  0  0  0  0
   36.8110   27.8560   53.2870 O   0  0  0  0  0  0  0  0  0  0  0  0
   38.8540   28.1660   51.8590 C   0  0  2  0  0  0  0  0  0  0  0  0
   38.6360   27.3930   50.6940 O   0  0  0  0  0  0  0  0  0  0  0  0
   39.7750   29.1420   51.1880 C   0  0  0  0  0  0  0  0  0  0  0  0
   39.9000   30.2670   52.0540 O   0  0  0  0  0  0  0  0  0  0  0  0
   39.7950   26.0130   54.6590 S   0  0  0  0  0  0  0  0  0  0  0  0
   40.6220   24.4050   56.7520 H   0  0  0  0  0  0  0  0  0  0  0  0
   40.0550   25.2820   58.0710 H   0  0  0  0  0  0  0  0  0  0  0  0
   38.4752   25.3987   56.0325 H   0  0  0  0  0  0  0  0  0  0  0  0
   37.6085   28.7134   55.6293 H   0  0  0  0  0  0  0  0  0  0  0  0
   39.4192   28.8816   55.9947 H   0  0  0  0  0  0  0  0  0  0  0  0
   39.4475   28.5266   54.0378 H   0  0  0  0  0  0  0  0  0  0  0  0
   38.1473   26.3644   52.8574 H   0  0  0  0  0  0  0  0  0  0  0  0
   36.3970   27.3220   54.0110 H   0  0  0  0  0  0  0  0  0  0  0  0
   38.8037   28.8050   52.7529 H   0  0  0  0  0  0  0  0  0  0  0  0
   38.0170   27.8740   50.0900 H   0  0  0  0  0  0  0  0  0  0  0  0
   40.7600   28.6802   51.0255 H   0  0  0  0  0  0  0  0  0  0  0  0
   39.3763   29.4454   50.2087 H   0  0  0  0  0  0  0  0  0  0  0  0
   39.9940   29.9550   52.9890 H   0  0  0  0  0  0  0  0  0  0  0  0
  1  2  1  0
  2  3  1  0
  3  4  1  0
  4  5  1  0
  5  6  1  0
  6  7  1  0
  6  8  1  0
  8  9  1  0
  8 10  1  0
 10 11  1  0
  5 12  1  0
 12  2  1  0
  1 13  1  0
  1 14  1  0
  2 15  1  0
  4 16  1  0
  4 17  1  0
  5 18  1  6
  6 19  1  6
  7 20  1  0
  8 21  1  6
  9 22  1  0
 10 23  1  0
 10 24  1  0
 11 25  1  0
M  END

>  <ID>
DiffSBDD_52_num_sample_100

>  <docking_score>
-5.615

$$$$
DiffSBDD_53_num_sample_100
     RDKit          3D

 69 72  0  0  0  0  0  0  0  0999 V2000
   40.5600   30.2880   49.9020 C   0  0  0  0  0  0  0  0  0  0  0  0
   40.3030   30.3480   51.0380 C   0  0  0  0  0  0  0  0  0  0  0  0
   39.5010   29.7720   52.0830 C   0  0  2  0  0  0  0  0  0  0  0  0
   39.5040   30.4320   53.6600 C   0  0  0  0  0  0  0  0  0  0  0  0
   39.3690   29.5580   54.8990 N   0  0  0  0  0  0  0  0  0  0  0  0
   38.3620   28.6030   55.1640 C   0  0  0  0  0  0  0  0  0  0  0  0
   37.2460   28.7010   54.7740 O   0  0  0  0  0  0  0  0  0  0  0  0
   38.8630   27.3600   55.9330 C   0  0  0  0  0  0  0  0  0  0  0  0
   39.4050   27.9950   57.1600 C   0  0  1  0  0  0  0  0  0  0  0  0
   38.6280   28.5020   58.2000 O   0  0  0  0  0  0  0  0  0  0  0  0
   38.9380   28.4120   59.4940 C   0  0  2  0  0  0  0  0  0  0  0  0
   38.9770   29.6610   60.3280 C   0  0  0  0  0  0  0  0  0  0  0  0
   38.5940   30.8770   59.5310 C   0  0  0  0  0  0  0  0  0  0  0  0
   37.5470   31.9090   60.0460 C   0  0  0  0  0  0  0  0  0  0  0  0
   36.3570   31.2350   60.3780 C   0  0  0  0  0  0  0  0  0  0  0  0
   35.2840   31.8960   60.9300 C   0  0  0  0  0  0  0  0  0  0  0  0
   35.2980   33.1670   61.2630 C   0  0  0  0  0  0  0  0  0  0  0  0
   36.4370   33.8800   60.9150 C   0  0  0  0  0  0  0  0  0  0  0  0
   37.4760   33.3680   60.3020 C   0  0  0  0  0  0  0  0  0  0  0  0
   38.3370   34.7930   59.8840 S   0  0  2  0  0  4  0  0  0  0  0  0
   39.5350   34.2520   60.8270 C   0  0  0  0  0  0  0  0  0  0  0  0
   39.8900   35.7290   61.1450 C   0  0  0  0  0  0  0  0  0  0  0  0
   39.0490   36.1960   62.3160 N   0  0  0  0  0  0  0  0  0  0  0  0
   39.0250   37.2020   63.4630 C   0  0  0  0  0  0  0  0  0  0  0  0
   37.9150   37.1190   62.6620 C   0  0  1  0  0  0  0  0  0  0  0  0
   36.8640   37.2990   61.5770 C   0  0  1  0  0  0  0  0  0  0  0  0
   36.6520   38.7570   61.4940 O   0  0  0  0  0  0  0  0  0  0  0  0
   37.4290   36.5390   60.0200 S   0  0  0  0  0  0  0  0  0  0  0  0
   40.2340   27.6910   59.3990 C   0  0  0  0  0  0  0  0  0  0  0  0
   40.5550   28.1260   58.0680 C   0  0  1  0  0  0  0  0  0  0  0  0
   42.1670   27.8150   57.8100 C   0  0  0  0  0  0  0  0  0  0  0  0
   39.2390   28.3050   51.8080 C   0  0  0  0  0  0  0  0  0  0  0  0
   37.9660   27.8850   51.5870 O   0  0  0  0  0  0  0  0  0  0  0  0
   40.2140   27.5570   51.6500 O   0  0  0  0  0  0  0  0  0  0  0  0
   41.2978   30.9788   49.4678 H   0  0  0  0  0  0  0  0  0  0  0  0
   40.0646   29.5406   49.2648 H   0  0  0  0  0  0  0  0  0  0  0  0
   40.9057   31.1554   51.4795 H   0  0  0  0  0  0  0  0  0  0  0  0
   38.5056   30.2389   52.0466 H   0  0  0  0  0  0  0  0  0  0  0  0
   40.4563   30.9722   53.7662 H   0  0  0  0  0  0  0  0  0  0  0  0
   38.5630   31.0014   53.6746 H   0  0  0  0  0  0  0  0  0  0  0  0
   40.0910   29.6760   55.6250 H   0  0  0  0  0  0  0  0  0  0  0  0
   38.0400   26.6678   56.1646 H   0  0  0  0  0  0  0  0  0  0  0  0
   39.5868   26.7427   55.3807 H   0  0  0  0  0  0  0  0  0  0  0  0
   39.6842   27.9456   56.0972 H   0  0  0  0  0  0  0  0  0  0  0  0
   38.1409   27.9166   60.0677 H   0  0  0  0  0  0  0  0  0  0  0  0
   38.2754   29.5503   61.1679 H   0  0  0  0  0  0  0  0  0  0  0  0
   40.0070   29.7992   60.6887 H   0  0  0  0  0  0  0  0  0  0  0  0
   39.5240   31.4402   59.3637 H   0  0  0  0  0  0  0  0  0  0  0  0
   38.0738   30.4325   58.6697 H   0  0  0  0  0  0  0  0  0  0  0  0
   36.2829   30.1534   60.1916 H   0  0  0  0  0  0  0  0  0  0  0  0
   34.3590   31.3263   61.1029 H   0  0  0  0  0  0  0  0  0  0  0  0
   34.4546   33.6394   61.7880 H   0  0  0  0  0  0  0  0  0  0  0  0
   36.4698   34.9491   61.1716 H   0  0  0  0  0  0  0  0  0  0  0  0
   38.6510   35.1890   58.6110 H   0  0  0  0  0  0  0  0  0  0  0  0
   39.2015   33.6662   61.6963 H   0  0  0  0  0  0  0  0  0  0  0  0
   40.2921   33.5519   60.4440 H   0  0  0  0  0  0  0  0  0  0  0  0
   40.9566   35.8048   61.4032 H   0  0  0  0  0  0  0  0  0  0  0  0
   39.6864   36.3583   60.2661 H   0  0  0  0  0  0  0  0  0  0  0  0
   38.9746   36.8419   64.5012 H   0  0  0  0  0  0  0  0  0  0  0  0
   39.6855   38.0258   63.7714 H   0  0  0  0  0  0  0  0  0  0  0  0
   36.9913   37.5796   63.0422 H   0  0  0  0  0  0  0  0  0  0  0  0
   35.9108   36.7957   61.7965 H   0  0  0  0  0  0  0  0  0  0  0  0
   35.8900   38.9460   60.8910 H   0  0  0  0  0  0  0  0  0  0  0  0
   40.9658   28.0335   60.1454 H   0  0  0  0  0  0  0  0  0  0  0  0
   40.2176   26.6062   59.5806 H   0  0  0  0  0  0  0  0  0  0  0  0
   40.6195   29.1872   57.7857 H   0  0  0  0  0  0  0  0  0  0  0  0
   42.6807   27.7159   58.7776 H   0  0  0  0  0  0  0  0  0  0  0  0
   42.2735   26.8798   57.2408 H   0  0  0  0  0  0  0  0  0  0  0  0
   42.6138   28.6435   57.2408 H   0  0  0  0  0  0  0  0  0  0  0  0
  1  2  2  0
  2  3  1  0
  3  4  1  0
  4  5  1  0
  5  6  1  0
  6  7  2  0
  6  8  1  0
  8  9  1  0
  9 10  1  0
 10 11  1  0
 11 12  1  0
 12 13  1  0
 13 14  1  0
 14 15  2  0
 15 16  1  0
 16 17  2  0
 17 18  1  0
 18 19  2  0
 19 20  1  0
 20 21  1  0
 21 22  1  0
 22 23  1  0
 23 24  1  0
 24 25  1  0
 25 26  1  0
 26 27  1  0
 26 28  1  0
 11 29  1  0
 29 30  1  0
 30 31  1  0
  3 32  1  0
 32 33  2  0
 32 34  1  0
 30  9  1  0
 19 14  1  0
 28 20  1  0
 25 23  1  0
  1 35  1  0
  1 36  1  0
  2 37  1  0
  3 38  1  6
  4 39  1  0
  4 40  1  0
  5 41  1  0
  8 42  1  0
  8 43  1  0
  9 44  1  6
 11 45  1  1
 12 46  1  0
 12 47  1  0
 13 48  1  0
 13 49  1  0
 15 50  1  0
 16 51  1  0
 17 52  1  0
 18 53  1  0
 20 54  1  6
 21 55  1  0
 21 56  1  0
 22 57  1  0
 22 58  1  0
 24 59  1  0
 24 60  1  0
 25 61  1  1
 26 62  1  1
 27 63  1  0
 29 64  1  0
 29 65  1  0
 30 66  1  1
 31 67  1  0
 31 68  1  0
 31 69  1  0
M  CHG  1  34  -1
M  END

>  <ID>
DiffSBDD_53_num_sample_100

>  <docking_score>
-11.098

$$$$
DiffSBDD_54_num_sample_100
     RDKit          3D

 32 33  0  0  0  0  0  0  0  0999 V2000
   36.8740   24.1110   55.4470 C   0  0  0  0  0  0  0  0  0  0  0  0
   36.9890   24.9370   56.7190 C   0  0  0  0  0  0  0  0  0  0  0  0
   38.2140   24.8820   57.5990 C   0  0  0  0  0  0  0  0  0  0  0  0
   38.7630   26.2170   58.0960 C   0  0  0  0  0  0  0  0  0  0  0  0
   39.6420   26.7530   57.0100 C   0  0  0  0  0  0  0  0  0  0  0  0
   39.5700   27.2740   55.5900 C   0  0  0  0  0  0  0  0  0  0  0  0
   39.2460   28.5760   55.5580 N   0  0  0  0  0  0  0  0  0  0  0  0
   39.2670   29.2090   54.3710 C   0  0  0  0  0  0  0  0  0  0  0  0
   39.4590   28.5070   53.1420 C   0  0  0  0  0  0  0  0  0  0  0  0
   39.6920   29.1800   51.8680 C   0  0  0  0  0  0  0  0  0  0  0  0
   39.9630   30.5180   51.7650 C   0  0  0  0  0  0  0  0  0  0  0  0
   40.0530   30.7580   50.4140 N   0  0  0  0  0  0  0  0  0  0  0  0
   39.8640   29.6130   49.6780 N   0  0  0  0  0  0  0  0  0  0  0  0
   39.6530   28.6310   50.6220 C   0  0  0  0  0  0  0  0  0  0  0  0
   39.4320   27.0900   53.2820 C   0  0  0  0  0  0  0  0  0  0  0  0
   39.5030   26.4840   54.4900 N   0  0  0  0  0  0  0  0  0  0  0  0
   36.7267   23.0529   55.7090 H   0  0  0  0  0  0  0  0  0  0  0  0
   36.0165   24.4652   54.8560 H   0  0  0  0  0  0  0  0  0  0  0  0
   37.7956   24.2175   54.8560 H   0  0  0  0  0  0  0  0  0  0  0  0
   36.8747   25.9880   56.4153 H   0  0  0  0  0  0  0  0  0  0  0  0
   36.2217   24.4806   57.3616 H   0  0  0  0  0  0  0  0  0  0  0  0
   37.9630   24.2756   58.4818 H   0  0  0  0  0  0  0  0  0  0  0  0
   39.0075   24.4624   56.9631 H   0  0  0  0  0  0  0  0  0  0  0  0
   37.9372   26.9159   58.2946 H   0  0  0  0  0  0  0  0  0  0  0  0
   39.3255   26.0889   59.0326 H   0  0  0  0  0  0  0  0  0  0  0  0
   40.1216   27.5996   57.5230 H   0  0  0  0  0  0  0  0  0  0  0  0
   39.9084   25.7415   56.6694 H   0  0  0  0  0  0  0  0  0  0  0  0
   39.1322   30.3004   54.3462 H   0  0  0  0  0  0  0  0  0  0  0  0
   40.0826   31.2426   52.5839 H   0  0  0  0  0  0  0  0  0  0  0  0
   39.8770   29.5100   48.6530 H   0  0  0  0  0  0  0  0  0  0  0  0
   39.4797   27.5671   50.4027 H   0  0  0  0  0  0  0  0  0  0  0  0
   39.3508   26.4677   52.3786 H   0  0  0  0  0  0  0  0  0  0  0  0
  1  2  1  0
  2  3  1  0
  3  4  1  0
  4  5  1  0
  5  6  1  0
  6  7  2  0
  7  8  1  0
  8  9  2  0
  9 10  1  0
 10 11  1  0
 11 12  2  0
 12 13  1  0
 13 14  1  0
  9 15  1  0
 15 16  2  0
 16  6  1  0
 14 10  2  0
  1 17  1  0
  1 18  1  0
  1 19  1  0
  2 20  1  0
  2 21  1  0
  3 22  1  0
  3 23  1  0
  4 24  1  0
  4 25  1  0
  5 26  1  0
  5 27  1  0
  8 28  1  0
 11 29  1  0
 13 30  1  0
 14 31  1  0
 15 32  1  0
M  END

>  <ID>
DiffSBDD_54_num_sample_100

>  <docking_score>
-6.677

$$$$
DiffSBDD_55_num_sample_100
     RDKit          3D

 31 30  0  0  0  0  0  0  0  0999 V2000
   39.8990   25.2160   56.3130 O   0  0  0  0  0  0  0  0  0  0  0  0
   39.8750   26.3260   55.7360 C   0  0  0  0  0  0  0  0  0  0  0  0
   39.5810   27.7020   56.3730 C   0  0  0  0  0  0  0  0  0  0  0  0
   38.4370   27.6740   57.3010 O   0  0  0  0  0  0  0  0  0  0  0  0
   37.8580   28.9610   57.3300 C   0  0  0  0  0  0  0  0  0  0  0  0
   37.8010   29.6070   56.0280 C   0  0  0  0  0  0  0  0  0  0  0  0
   37.7000   30.9890   55.5400 N   0  0  0  0  0  0  0  0  0  0  0  0
   39.0930   31.1340   54.8580 C   0  0  0  0  0  0  0  0  0  0  0  0
   39.3970   30.1720   53.6230 C   0  0  0  0  0  0  0  0  0  0  0  0
   39.9130   30.5190   52.1290 C   0  0  0  0  0  0  0  0  0  0  0  0
   39.9530   29.5040   51.0050 C   0  0  0  0  0  0  0  0  0  0  0  0
   39.7750   28.0300   51.4180 C   0  0  0  0  0  0  0  0  0  0  0  0
   38.3770   27.7600   51.2810 O   0  0  0  0  0  0  0  0  0  0  0  0
   40.0865   26.3213   54.6565 H   0  0  0  0  0  0  0  0  0  0  0  0
   40.4733   28.0300   56.9264 H   0  0  0  0  0  0  0  0  0  0  0  0
   39.3262   28.3946   55.5573 H   0  0  0  0  0  0  0  0  0  0  0  0
   36.8327   28.8717   57.7183 H   0  0  0  0  0  0  0  0  0  0  0  0
   38.4971   29.5862   57.9709 H   0  0  0  0  0  0  0  0  0  0  0  0
   38.7219   29.2498   55.5439 H   0  0  0  0  0  0  0  0  0  0  0  0
   36.7368   29.3806   55.8661 H   0  0  0  0  0  0  0  0  0  0  0  0
   37.5810   31.6600   56.3120 H   0  0  0  0  0  0  0  0  0  0  0  0
   36.8940   31.1760   54.9270 H   0  0  0  0  0  0  0  0  0  0  0  0
   39.1816   32.1707   54.5010 H   0  0  0  0  0  0  0  0  0  0  0  0
   39.8212   30.8464   55.6307 H   0  0  0  0  0  0  0  0  0  0  0  0
   39.2293   29.1024   53.8176 H   0  0  0  0  0  0  0  0  0  0  0  0
   40.2520   31.5441   51.9188 H   0  0  0  0  0  0  0  0  0  0  0  0
   39.1493   29.7543   50.2969 H   0  0  0  0  0  0  0  0  0  0  0  0
   40.9653   29.5723   50.5801 H   0  0  0  0  0  0  0  0  0  0  0  0
   40.3598   27.3726   50.7578 H   0  0  0  0  0  0  0  0  0  0  0  0
   40.1266   27.8489   52.4444 H   0  0  0  0  0  0  0  0  0  0  0  0
   37.9180   28.5650   50.9320 H   0  0  0  0  0  0  0  0  0  0  0  0
  1  2  2  0
  2  3  1  0
  3  4  1  0
  4  5  1  0
  5  6  1  0
  6  7  1  0
  7  8  1  0
  8  9  1  0
  9 10  2  3
 10 11  1  0
 11 12  1  0
 12 13  1  0
  2 14  1  0
  3 15  1  0
  3 16  1  0
  5 17  1  0
  5 18  1  0
  6 19  1  0
  6 20  1  0
  7 21  1  0
  7 22  1  0
  8 23  1  0
  8 24  1  0
  9 25  1  0
 10 26  1  0
 11 27  1  0
 11 28  1  0
 12 29  1  0
 12 30  1  0
 13 31  1  0
M  CHG  1   7   1
M  END

>  <ID>
DiffSBDD_55_num_sample_100

>  <docking_score>
-4.894

$$$$
DiffSBDD_56_num_sample_100
     RDKit          3D

 59 62  0  0  0  0  0  0  0  0999 V2000
   37.1220   27.9830   55.0150 C   0  0  0  0  0  0  0  0  0  0  0  0
   38.4850   28.1180   54.7180 N   0  0  0  0  0  0  0  0  0  0  0  0
   39.1110   29.1680   55.7150 C   0  0  2  0  0  0  0  0  0  0  0  0
   38.3160   30.4220   56.7770 S   0  0  0  0  0  0  0  0  0  0  0  0
   37.3870   29.2330   57.8400 O   0  0  0  0  0  0  0  0  0  0  0  0
   37.3430   31.1030   55.8710 O   0  0  0  0  0  0  0  0  0  0  0  0
   38.4390   31.6570   57.8160 N   0  0  0  0  0  0  0  0  0  0  0  0
   38.3020   33.0410   57.6900 C   0  0  0  0  0  0  0  0  0  0  0  0
   37.9390   33.6130   59.2200 C   0  0  2  0  0  0  0  0  0  0  0  0
   37.3520   34.4900   60.5130 C   0  0  1  0  0  0  0  0  0  0  0  0
   36.7980   33.5910   61.3840 O   0  0  0  0  0  0  0  0  0  0  0  0
   38.4350   35.1380   61.3540 C   0  0  2  0  0  0  0  0  0  0  0  0
   38.1890   36.5490   61.5510 C   0  0  0  0  0  0  0  0  0  0  0  0
   39.0750   37.2180   62.1250 O   0  0  0  0  0  0  0  0  0  0  0  0
   37.0570   37.1140   60.8640 C   0  0  0  0  0  0  0  0  0  0  0  0
   37.5180   37.5470   59.5530 O   0  0  0  0  0  0  0  0  0  0  0  0
   36.3070   38.1960   61.6130 O   0  0  0  0  0  0  0  0  0  0  0  0
   39.4700   34.2040   60.6050 C   0  0  0  0  0  0  0  0  0  0  0  0
   39.4100   32.7160   60.6760 O   0  0  0  0  0  0  0  0  0  0  0  0
   38.5510   32.5340   60.0180 C   0  0  2  0  0  0  0  0  0  0  0  0
   38.8150   31.2650   59.4550 C   0  0  0  0  0  0  0  0  0  0  0  0
   39.7120   30.1450   54.4460 S   0  0  0  0  0  0  0  0  0  0  0  0
   39.8480   29.7010   52.5480 C   0  0  0  0  0  0  0  0  0  0  0  0
   39.9560   30.5820   51.6440 C   0  0  0  0  0  0  0  0  0  0  0  0
   40.1430   30.5100   50.2540 C   0  0  0  0  0  0  0  0  0  0  0  0
   40.1300   29.2110   49.7070 C   0  0  0  0  0  0  0  0  0  0  0  0
   39.8500   28.1140   50.5950 C   0  0  0  0  0  0  0  0  0  0  0  0
   39.6970   28.4260   52.0750 C   0  0  0  0  0  0  0  0  0  0  0  0
   39.6380   27.3080   52.8940 C   0  0  0  0  0  0  0  0  0  0  0  0
   39.4540   27.1310   54.3460 C   0  0  2  0  0  0  0  0  0  0  0  0
   39.6010   25.7630   54.9450 C   0  0  0  0  0  0  0  0  0  0  0  0
   39.8390   25.2470   56.0690 N   0  0  0  0  0  0  0  0  0  0  0  0
   36.9841   27.9693   56.1062 H   0  0  0  0  0  0  0  0  0  0  0  0
   36.5675   28.8306   54.5859 H   0  0  0  0  0  0  0  0  0  0  0  0
   36.7446   27.0431   54.5859 H   0  0  0  0  0  0  0  0  0  0  0  0
   39.5920   28.5755   56.5072 H   0  0  0  0  0  0  0  0  0  0  0  0
   39.2408   33.4862   57.3289 H   0  0  0  0  0  0  0  0  0  0  0  0
   37.5159   33.3026   56.9664 H   0  0  0  0  0  0  0  0  0  0  0  0
   37.0432   32.9752   59.2459 H   0  0  0  0  0  0  0  0  0  0  0  0
   36.6826   35.2544   60.0917 H   0  0  0  0  0  0  0  0  0  0  0  0
   37.0280   33.8460   62.3130 H   0  0  0  0  0  0  0  0  0  0  0  0
   38.7098   35.1875   62.4180 H   0  0  0  0  0  0  0  0  0  0  0  0
   36.2891   36.3315   60.7743 H   0  0  0  0  0  0  0  0  0  0  0  0
   37.9420   38.4380   59.6300 H   0  0  0  0  0  0  0  0  0  0  0  0
   36.7950   38.4200   62.4450 H   0  0  0  0  0  0  0  0  0  0  0  0
   39.3956   34.4612   59.5381 H   0  0  0  0  0  0  0  0  0  0  0  0
   40.3998   34.4164   61.1530 H   0  0  0  0  0  0  0  0  0  0  0  0
   37.6129   32.5350   60.5925 H   0  0  0  0  0  0  0  0  0  0  0  0
   39.8647   30.9616   59.5820 H   0  0  0  0  0  0  0  0  0  0  0  0
   38.2660   30.4168   59.8899 H   0  0  0  0  0  0  0  0  0  0  0  0
   39.8899   31.6118   52.0250 H   0  0  0  0  0  0  0  0  0  0  0  0
   40.2897   31.4067   49.6340 H   0  0  0  0  0  0  0  0  0  0  0  0
   40.3271   29.0417   48.6381 H   0  0  0  0  0  0  0  0  0  0  0  0
   39.7502   27.0860   50.2164 H   0  0  0  0  0  0  0  0  0  0  0  0
   38.8141   26.7213   52.4616 H   0  0  0  0  0  0  0  0  0  0  0  0
   40.7199   27.1095   52.8922 H   0  0  0  0  0  0  0  0  0  0  0  0
   40.3327   27.3294   54.9773 H   0  0  0  0  0  0  0  0  0  0  0  0
   39.4599   24.9849   54.1804 H   0  0  0  0  0  0  0  0  0  0  0  0
   39.8770   24.2220   56.1670 H   0  0  0  0  0  0  0  0  0  0  0  0
  1  2  1  0
  2  3  1  0
  3  4  1  0
  4  5  2  0
  4  6  2  0
  4  7  1  0
  7  8  1  0
  8  9  1  0
  9 10  1  0
 10 11  1  0
 10 12  1  0
 12 13  1  0
 13 14  2  0
 13 15  1  0
 15 16  1  0
 15 17  1  0
 12 18  1  0
 18 19  1  0
 19 20  1  0
 20 21  1  0
  3 22  1  0
 22 23  1  0
 23 24  2  0
 24 25  1  0
 25 26  2  0
 26 27  1  0
 27 28  2  0
 28 29  1  0
 29 30  1  0
 30 31  1  0
 31 32  2  3
 30  2  1  0
 21  7  1  0
 28 23  1  0
 20  9  1  0
  1 33  1  0
  1 34  1  0
  1 35  1  0
  3 36  1  1
  8 37  1  0
  8 38  1  0
  9 39  1  1
 10 40  1  6
 11 41  1  0
 12 42  1  1
 15 43  1  0
 16 44  1  0
 17 45  1  0
 18 46  1  0
 18 47  1  0
 20 48  1  1
 21 49  1  0
 21 50  1  0
 24 51  1  0
 25 52  1  0
 26 53  1  0
 27 54  1  0
 29 55  1  0
 29 56  1  0
 30 57  1  1
 31 58  1  0
 32 59  1  0
M  END

>  <ID>
DiffSBDD_56_num_sample_100

>  <docking_score>
-10.331

$$$$
DiffSBDD_57_num_sample_100
     RDKit          3D

 38 40  0  0  0  0  0  0  0  0999 V2000
   38.9840   26.1310   56.8320 O   0  0  0  0  0  0  0  0  0  0  0  0
   38.6510   27.3920   57.2410 C   0  0  0  0  0  0  0  0  0  0  0  0
   39.0330   27.6900   58.3250 O   0  0  0  0  0  0  0  0  0  0  0  0
   37.8570   28.3590   56.5210 N   0  0  0  0  0  0  0  0  0  0  0  0
   38.2740   28.7570   55.5070 C   0  0  0  0  0  0  0  0  0  0  0  0
   38.2220   27.9580   54.2350 C   0  0  0  0  0  0  0  0  0  0  0  0
   38.8940   28.3580   53.0780 C   0  0  0  0  0  0  0  0  0  0  0  0
   39.4670   29.5880   53.1390 C   0  0  0  0  0  0  0  0  0  0  0  0
   39.5190   30.4000   54.2330 N   0  0  0  0  0  0  0  0  0  0  0  0
   38.7510   30.0330   55.2950 C   0  0  0  0  0  0  0  0  0  0  0  0
   38.5010   31.1990   56.0870 C   0  0  2  0  0  0  0  0  0  0  0  0
   38.3580   32.4010   55.6510 C   0  0  0  0  0  0  0  0  0  0  0  0
   38.0600   33.3720   56.6660 N   0  0  0  0  0  0  0  0  0  0  0  0
   38.3020   32.8220   57.8880 C   0  0  1  0  0  0  0  0  0  0  0  0
   38.3840   33.7250   59.3560 Cl  0  0  0  0  0  0  0  0  0  0  0  0
   38.6260   31.1870   57.8180 S   0  0  0  0  0  0  0  0  0  0  0  0
   39.8920   30.2860   52.3940 C   0  0  0  0  0  0  0  0  0  0  0  0
   40.4430   30.4940   50.9470 C   0  0  0  0  0  0  0  0  0  0  0  0
   39.9190   29.5070   50.2890 C   0  0  0  0  0  0  0  0  0  0  0  0
   39.8540   28.0650   50.7140 C   0  0  0  0  0  0  0  0  0  0  0  0
   38.9970   27.5150   51.8600 C   0  0  0  0  0  0  0  0  0  0  0  0
   36.9540   28.6870   56.8910 H   0  0  0  0  0  0  0  0  0  0  0  0
   37.6354   27.0277   54.2148 H   0  0  0  0  0  0  0  0  0  0  0  0
   37.7751   30.5947   55.5232 H   0  0  0  0  0  0  0  0  0  0  0  0
   39.2929   32.6995   55.1541 H   0  0  0  0  0  0  0  0  0  0  0  0
   37.4942   32.3857   54.9701 H   0  0  0  0  0  0  0  0  0  0  0  0
   37.0700   33.6480   56.6010 H   0  0  0  0  0  0  0  0  0  0  0  0
   39.3823   32.9662   57.7390 H   0  0  0  0  0  0  0  0  0  0  0  0
   39.1001   31.0495   52.3940 H   0  0  0  0  0  0  0  0  0  0  0  0
   40.9042   30.0220   52.7342 H   0  0  0  0  0  0  0  0  0  0  0  0
   40.1171   31.4606   50.5353 H   0  0  0  0  0  0  0  0  0  0  0  0
   41.5419   30.5102   50.9005 H   0  0  0  0  0  0  0  0  0  0  0  0
   38.8718   29.8009   50.1248 H   0  0  0  0  0  0  0  0  0  0  0  0
   40.6626   29.4190   49.4832 H   0  0  0  0  0  0  0  0  0  0  0  0
   39.5335   27.5116   49.8190 H   0  0  0  0  0  0  0  0  0  0  0  0
   40.8578   27.9450   51.1475 H   0  0  0  0  0  0  0  0  0  0  0  0
   37.9789   27.3635   51.4721 H   0  0  0  0  0  0  0  0  0  0  0  0
   39.5052   26.5956   52.1862 H   0  0  0  0  0  0  0  0  0  0  0  0
  1  2  2  0
  2  3  1  0
  2  4  1  0
  4  5  1  0
  5  6  2  0
  6  7  1  0
  7  8  2  0
  8  9  1  0
  9 10  2  0
 10 11  1  0
 11 12  1  0
 12 13  1  0
 13 14  1  0
 14 15  1  0
 14 16  1  0
  8 17  1  0
 17 18  1  0
 18 19  1  0
 19 20  1  0
 20 21  1  0
 10  5  1  0
 16 11  1  0
 21  7  1  0
  4 22  1  0
  6 23  1  0
 11 24  1  1
 12 25  1  0
 12 26  1  0
 13 27  1  0
 14 28  1  1
 17 29  1  0
 17 30  1  0
 18 31  1  0
 18 32  1  0
 19 33  1  0
 19 34  1  0
 20 35  1  0
 20 36  1  0
 21 37  1  0
 21 38  1  0
M  CHG  1   3  -1
M  END

>  <ID>
DiffSBDD_57_num_sample_100

>  <docking_score>
-9.742

$$$$
DiffSBDD_58_num_sample_100
     RDKit          3D

 29 28  0  0  0  0  0  0  0  0999 V2000
   38.5460   27.2000   50.7390 O   0  0  0  0  0  0  0  0  0  0  0  0
   39.7210   27.9560   51.3200 C   0  0  0  0  0  0  0  0  0  0  0  0
   39.2530   29.1630   52.2460 C   0  0  0  0  0  0  0  0  0  0  0  0
   39.7810   30.5070   52.8150 N   0  0  0  0  0  0  0  0  0  0  0  0
   39.1040   30.8340   54.0980 C   0  0  0  0  0  0  0  0  0  0  0  0
   39.7800   30.2090   55.1300 C   0  0  0  0  0  0  0  0  0  0  0  0
   39.6800   29.2300   55.8930 C   0  0  0  0  0  0  0  0  0  0  0  0
   39.4180   28.9280   57.2700 C   0  0  0  0  0  0  0  0  0  0  0  0
   38.3080   27.8410   57.4920 C   0  0  0  0  0  0  0  0  0  0  0  0
   39.0470   26.3080   57.8920 S   0  0  0  0  0  0  0  0  0  0  0  0
   38.9600   25.2720   56.3030 S   0  0  0  0  0  0  0  0  0  0  0  0
   39.9430   25.8740   54.8560 Cl  0  0  0  0  0  0  0  0  0  0  0  0
   38.0620   27.7820   50.1020 H   0  0  0  0  0  0  0  0  0  0  0  0
   40.3281   27.2623   51.9202 H   0  0  0  0  0  0  0  0  0  0  0  0
   40.3032   28.3735   50.4853 H   0  0  0  0  0  0  0  0  0  0  0  0
   38.3414   29.4925   51.7260 H   0  0  0  0  0  0  0  0  0  0  0  0
   39.5130   28.6186   53.1658 H   0  0  0  0  0  0  0  0  0  0  0  0
   39.5970   31.2580   52.1340 H   0  0  0  0  0  0  0  0  0  0  0  0
   40.7930   30.4210   52.9850 H   0  0  0  0  0  0  0  0  0  0  0  0
   39.1147   31.9227   54.2548 H   0  0  0  0  0  0  0  0  0  0  0  0
   38.0608   30.4863   54.0696 H   0  0  0  0  0  0  0  0  0  0  0  0
   40.7555   30.0151   54.6601 H   0  0  0  0  0  0  0  0  0  0  0  0
   39.3549   30.8921   55.8801 H   0  0  0  0  0  0  0  0  0  0  0  0
   38.8967   28.6436   55.3905 H   0  0  0  0  0  0  0  0  0  0  0  0
   40.7688   29.1732   56.0390 H   0  0  0  0  0  0  0  0  0  0  0  0
   40.3509   28.5663   57.7271 H   0  0  0  0  0  0  0  0  0  0  0  0
   39.0479   29.8555   57.7314 H   0  0  0  0  0  0  0  0  0  0  0  0
   37.6501   28.1546   58.3159 H   0  0  0  0  0  0  0  0  0  0  0  0
   37.7207   27.7296   56.5686 H   0  0  0  0  0  0  0  0  0  0  0  0
  1  2  1  0
  2  3  1  0
  3  4  1  0
  4  5  1  0
  5  6  1  0
  6  7  1  0
  7  8  1  0
  8  9  1  0
  9 10  1  0
 10 11  1  0
 11 12  1  0
  1 13  1  0
  2 14  1  0
  2 15  1  0
  3 16  1  0
  3 17  1  0
  4 18  1  0
  4 19  1  0
  5 20  1  0
  5 21  1  0
  6 22  1  0
  6 23  1  0
  7 24  1  0
  7 25  1  0
  8 26  1  0
  8 27  1  0
  9 28  1  0
  9 29  1  0
M  CHG  1   4   1
M  END

>  <ID>
DiffSBDD_58_num_sample_100

>  <docking_score>
-4.45

$$$$
DiffSBDD_59_num_sample_100
     RDKit          3D

 54 55  0  0  0  0  0  0  0  0999 V2000
   37.1500   25.0790   55.4170 C   0  0  0  0  0  0  0  0  0  0  0  0
   37.8490   26.3990   55.4690 C   0  0  2  0  0  0  0  0  0  0  0  0
   38.3070   27.1030   54.1650 C   0  0  0  0  0  0  0  0  0  0  0  0
   37.4520   28.2640   53.7950 C   0  0  0  0  0  0  0  0  0  0  0  0
   36.7850   28.2200   52.5570 O   0  0  0  0  0  0  0  0  0  0  0  0
   38.8300   26.7180   56.5940 N   0  0  0  0  0  0  0  0  0  0  0  0
   39.9200   25.9240   57.1080 N   0  0  0  0  0  0  0  0  0  0  0  0
   40.1710   26.5650   58.2060 C   0  0  0  0  0  0  0  0  0  0  0  0
   39.2490   27.5950   58.5550 C   0  0  1  0  0  0  0  0  0  0  0  0
   39.0910   28.2700   59.8770 C   0  0  0  0  0  0  0  0  0  0  0  0
   39.7750   29.6970   59.9890 C   0  0  0  0  0  0  0  0  0  0  0  0
   38.7640   30.8030   59.8070 C   0  0  0  0  0  0  0  0  0  0  0  0
   39.0400   32.0120   60.4680 N   0  0  2  0  0  0  0  0  0  0  0  0
   38.1320   32.0640   61.6770 C   0  0  0  0  0  0  0  0  0  0  0  0
   38.9460   33.3680   59.7300 C   0  0  2  0  0  0  0  0  0  0  0  0
   38.3610   33.0690   58.3210 C   0  0  0  0  0  0  0  0  0  0  0  0
   39.3130   34.5540   60.5580 C   0  0  0  0  0  0  0  0  0  0  0  0
   40.6710   34.5490   61.1710 C   0  0  0  0  0  0  0  0  0  0  0  0
   41.0110   35.5760   62.0210 C   0  0  0  0  0  0  0  0  0  0  0  0
   40.2590   36.6950   62.1590 C   0  0  0  0  0  0  0  0  0  0  0  0
   39.0580   36.7770   61.5390 C   0  0  0  0  0  0  0  0  0  0  0  0
   38.5160   35.7050   60.7630 C   0  0  0  0  0  0  0  0  0  0  0  0
   36.8890   35.8880   60.3040 Cl  0  0  0  0  0  0  0  0  0  0  0  0
   38.4190   27.7470   57.4990 C   0  0  0  0  0  0  0  0  0  0  0  0
   37.5760   28.6100   57.3430 O   0  0  0  0  0  0  0  0  0  0  0  0
   36.9616   24.7233   56.4407 H   0  0  0  0  0  0  0  0  0  0  0  0
   36.1932   25.1914   54.8860 H   0  0  0  0  0  0  0  0  0  0  0  0
   37.7807   24.3508   54.8860 H   0  0  0  0  0  0  0  0  0  0  0  0
   36.8865   26.8499   55.7524 H   0  0  0  0  0  0  0  0  0  0  0  0
   39.3388   27.4584   54.3032 H   0  0  0  0  0  0  0  0  0  0  0  0
   38.2295   26.3670   53.3512 H   0  0  0  0  0  0  0  0  0  0  0  0
   36.6855   28.3692   54.5769 H   0  0  0  0  0  0  0  0  0  0  0  0
   38.1538   29.1059   53.7015 H   0  0  0  0  0  0  0  0  0  0  0  0
   36.1080   27.4970   52.5730 H   0  0  0  0  0  0  0  0  0  0  0  0
   41.0441   26.3283   58.8319 H   0  0  0  0  0  0  0  0  0  0  0  0
   38.5131   26.8345   58.8553 H   0  0  0  0  0  0  0  0  0  0  0  0
   38.0151   28.3914   60.0714 H   0  0  0  0  0  0  0  0  0  0  0  0
   39.5987   27.6280   60.6118 H   0  0  0  0  0  0  0  0  0  0  0  0
   40.2395   29.7953   60.9812 H   0  0  0  0  0  0  0  0  0  0  0  0
   40.5322   29.7834   59.1958 H   0  0  0  0  0  0  0  0  0  0  0  0
   38.6922   31.0180   58.7306 H   0  0  0  0  0  0  0  0  0  0  0  0
   37.8333   30.4275   60.2574 H   0  0  0  0  0  0  0  0  0  0  0  0
   40.0530   31.9520   60.6440 H   0  0  0  0  0  0  0  0  0  0  0  0
   38.7394   32.0292   62.5935 H   0  0  0  0  0  0  0  0  0  0  0  0
   37.5496   32.9970   61.6583 H   0  0  0  0  0  0  0  0  0  0  0  0
   37.4469   31.2036   61.6583 H   0  0  0  0  0  0  0  0  0  0  0  0
   37.9283   33.5109   60.1222 H   0  0  0  0  0  0  0  0  0  0  0  0
   37.3861   32.5707   58.4270 H   0  0  0  0  0  0  0  0  0  0  0  0
   38.2327   34.0121   57.7695 H   0  0  0  0  0  0  0  0  0  0  0  0
   39.0503   32.4126   57.7695 H   0  0  0  0  0  0  0  0  0  0  0  0
   41.3854   33.7426   60.9490 H   0  0  0  0  0  0  0  0  0  0  0  0
   41.9329   35.4850   62.6141 H   0  0  0  0  0  0  0  0  0  0  0  0
   40.6227   37.5329   62.7719 H   0  0  0  0  0  0  0  0  0  0  0  0
   38.4760   37.7053   61.6361 H   0  0  0  0  0  0  0  0  0  0  0  0
  1  2  1  0
  2  3  1  0
  3  4  1  0
  4  5  1  0
  2  6  1  0
  6  7  1  0
  7  8  2  0
  8  9  1  0
  9 10  1  0
 10 11  1  0
 11 12  1  0
 12 13  1  0
 13 14  1  0
 13 15  1  0
 15 16  1  0
 15 17  1  0
 17 18  2  0
 18 19  1  0
 19 20  2  0
 20 21  1  0
 21 22  2  0
 22 23  1  0
  9 24  1  0
 24 25  2  0
 24  6  1  0
 22 17  1  0
  1 26  1  0
  1 27  1  0
  1 28  1  0
  2 29  1  1
  3 30  1  0
  3 31  1  0
  4 32  1  0
  4 33  1  0
  5 34  1  0
  8 35  1  0
  9 36  1  6
 10 37  1  0
 10 38  1  0
 11 39  1  0
 11 40  1  0
 12 41  1  0
 12 42  1  0
 13 43  1  1
 14 44  1  0
 14 45  1  0
 14 46  1  0
 15 47  1  6
 16 48  1  0
 16 49  1  0
 16 50  1  0
 18 51  1  0
 19 52  1  0
 20 53  1  0
 21 54  1  0
M  CHG  1  13   1
M  END

>  <ID>
DiffSBDD_59_num_sample_100

>  <docking_score>
-8.134

$$$$
DiffSBDD_5_num_sample_100
     RDKit          3D

 50 52  0  0  0  0  0  0  0  0999 V2000
   39.5740   30.2260   53.3300 C   0  0  0  0  0  0  0  0  0  0  0  0
   39.6510   30.4550   54.9270 C   0  0  0  0  0  0  0  0  0  0  0  0
   39.1230   31.5110   55.4940 C   0  0  0  0  0  0  0  0  0  0  0  0
   38.7410   32.4730   55.7540 C   0  0  1  0  0  0  0  0  0  0  0  0
   37.9470   33.4870   55.6370 O   0  0  0  0  0  0  0  0  0  0  0  0
   38.5320   31.5180   56.9900 N   0  0  0  0  0  0  0  0  0  0  0  0
   38.3270   32.1550   58.3870 C   0  0  0  0  0  0  0  0  0  0  0  0
   38.2090   31.4440   59.8840 C   0  0  1  0  0  0  0  0  0  0  0  0
   39.3280   30.4880   60.0240 C   0  0  0  0  0  0  0  0  0  0  0  0
   40.1910   30.3940   61.1230 C   0  0  0  0  0  0  0  0  0  0  0  0
   40.1770   31.3220   62.1290 C   0  0  0  0  0  0  0  0  0  0  0  0
   39.2240   32.3460   62.0940 C   0  0  0  0  0  0  0  0  0  0  0  0
   38.2780   32.4710   61.0650 C   0  0  0  0  0  0  0  0  0  0  0  0
   37.4330   33.6550   60.7720 C   0  0  2  0  0  0  0  0  0  0  0  0
   37.7900   35.1420   60.7830 C   0  0  0  0  0  0  0  0  0  0  0  0
   38.6950   35.6240   61.6300 C   0  0  0  0  0  0  0  0  0  0  0  0
   38.8260   36.9840   61.6810 C   0  0  0  0  0  0  0  0  0  0  0  0
   38.0400   37.8040   60.9260 C   0  0  0  0  0  0  0  0  0  0  0  0
   38.1690   39.3270   61.1130 C   0  0  0  0  0  0  0  0  0  0  0  0
   37.2140   37.3010   60.1010 N   0  0  0  0  0  0  0  0  0  0  0  0
   37.0290   35.9450   59.9790 C   0  0  0  0  0  0  0  0  0  0  0  0
   35.9620   33.5360   61.3610 C   0  0  0  0  0  0  0  0  0  0  0  0
   35.3800   31.9240   60.8060 S   0  0  0  0  0  0  0  0  0  0  0  0
   36.7060   30.7180   59.8490 C   0  0  0  0  0  0  0  0  0  0  0  0
   39.2297   29.2021   53.1226 H   0  0  0  0  0  0  0  0  0  0  0  0
   38.8686   30.9462   52.8899 H   0  0  0  0  0  0  0  0  0  0  0  0
   40.5712   30.3737   52.8899 H   0  0  0  0  0  0  0  0  0  0  0  0
   39.1687   29.5811   55.3892 H   0  0  0  0  0  0  0  0  0  0  0  0
   40.7272   30.6123   55.0912 H   0  0  0  0  0  0  0  0  0  0  0  0
   38.1822   30.9954   55.7370 H   0  0  0  0  0  0  0  0  0  0  0  0
   40.1213   31.9714   55.4550 H   0  0  0  0  0  0  0  0  0  0  0  0
   39.1976   33.3226   55.2251 H   0  0  0  0  0  0  0  0  0  0  0  0
   37.7520   33.6460   54.6800 H   0  0  0  0  0  0  0  0  0  0  0  0
   38.2468   33.2521   58.3881 H   0  0  0  0  0  0  0  0  0  0  0  0
   38.8715   29.4918   59.9282 H   0  0  0  0  0  0  0  0  0  0  0  0
   40.0207   30.8945   59.2724 H   0  0  0  0  0  0  0  0  0  0  0  0
   40.8979   29.5531   61.1791 H   0  0  0  0  0  0  0  0  0  0  0  0
   40.9039   31.2637   62.9525 H   0  0  0  0  0  0  0  0  0  0  0  0
   39.2160   33.0852   62.9086 H   0  0  0  0  0  0  0  0  0  0  0  0
   37.6594   33.4715   59.7113 H   0  0  0  0  0  0  0  0  0  0  0  0
   39.3079   34.9612   62.2585 H   0  0  0  0  0  0  0  0  0  0  0  0
   39.5823   37.4268   62.3459 H   0  0  0  0  0  0  0  0  0  0  0  0
   38.1891   39.5642   62.1869 H   0  0  0  0  0  0  0  0  0  0  0  0
   39.1000   39.6766   60.6428 H   0  0  0  0  0  0  0  0  0  0  0  0
   37.3101   39.8282   60.6428 H   0  0  0  0  0  0  0  0  0  0  0  0
   36.3026   35.5248   59.2678 H   0  0  0  0  0  0  0  0  0  0  0  0
   35.9783   33.5859   62.4597 H   0  0  0  0  0  0  0  0  0  0  0  0
   35.3095   34.3544   61.0228 H   0  0  0  0  0  0  0  0  0  0  0  0
   36.7535   29.7433   60.3566 H   0  0  0  0  0  0  0  0  0  0  0  0
   36.3883   30.5626   58.8074 H   0  0  0  0  0  0  0  0  0  0  0  0
  1  2  1  0
  2  3  1  0
  3  4  1  0
  4  5  1  0
  4  6  1  0
  6  7  2  3
  8  7  1  6
  8  9  1  0
  9 10  1  0
 10 11  2  0
 11 12  1  0
 12 13  2  0
 13 14  1  0
 14 15  1  0
 15 16  2  0
 16 17  1  0
 17 18  2  0
 18 19  1  0
 18 20  1  0
 20 21  2  0
 14 22  1  0
 22 23  1  0
 23 24  1  0
 13  8  1  0
 21 15  1  0
 24  8  1  0
  1 25  1  0
  1 26  1  0
  1 27  1  0
  2 28  1  0
  2 29  1  0
  3 30  1  0
  3 31  1  0
  4 32  1  1
  5 33  1  0
  7 34  1  0
  9 35  1  0
  9 36  1  0
 10 37  1  0
 11 38  1  0
 12 39  1  0
 14 40  1  6
 16 41  1  0
 17 42  1  0
 19 43  1  0
 19 44  1  0
 19 45  1  0
 21 46  1  0
 22 47  1  0
 22 48  1  0
 24 49  1  0
 24 50  1  0
M  END

>  <ID>
DiffSBDD_5_num_sample_100

>  <docking_score>
-8.708

$$$$
DiffSBDD_60_num_sample_100
     RDKit          3D

 75 77  0  0  0  0  0  0  0  0999 V2000
   37.0490   24.8160   55.3230 C   0  0  0  0  0  0  0  0  0  0  0  0
   37.4110   26.1420   54.7640 C   0  0  0  0  0  0  0  0  0  0  0  0
   38.6020   26.7510   55.7850 O   0  0  0  0  0  0  0  0  0  0  0  0
   38.7310   27.4540   57.2410 C   0  0  1  0  0  0  0  0  0  0  0  0
   38.7530   25.7360   58.1130 C   0  0  0  0  0  0  0  0  0  0  0  0
   39.2060   28.6430   56.3720 C   0  0  2  0  0  0  0  0  0  0  0  0
   39.7230   29.5360   57.5140 O   0  0  0  0  0  0  0  0  0  0  0  0
   39.0970   29.7530   58.6590 C   0  0  1  0  0  0  0  0  0  0  0  0
   39.9460   29.5800   59.8300 C   0  0  0  0  0  0  0  0  0  0  0  0
   38.1430   31.0640   58.9190 C   0  0  0  0  0  0  0  0  0  0  0  0
   38.3230   32.1710   59.5830 C   0  0  1  0  0  0  0  0  0  0  0  0
   37.0280   33.0860   59.0360 N   0  0  0  0  0  0  0  0  0  0  0  0
   36.5150   34.1390   59.8130 C   0  0  0  0  0  0  0  0  0  0  0  0
   37.0840   35.5450   60.1090 C   0  0  0  0  0  0  0  0  0  0  0  0
   36.7450   36.8020   59.8760 N   0  0  0  0  0  0  0  0  0  0  0  0
   37.6410   37.6490   60.4860 N   0  0  0  0  0  0  0  0  0  0  0  0
   38.6070   36.9180   61.0300 C   0  0  0  0  0  0  0  0  0  0  0  0
   38.3650   35.6590   60.7360 C   0  0  0  0  0  0  0  0  0  0  0  0
   39.3050   34.4970   60.9460 C   0  0  1  0  0  0  0  0  0  0  0  0
   40.1800   34.6380   62.1640 C   0  0  0  0  0  0  0  0  0  0  0  0
   38.7300   32.9990   60.7600 C   0  0  1  0  0  0  0  0  0  0  0  0
   38.1910   32.6360   61.9080 O   0  0  0  0  0  0  0  0  0  0  0  0
   38.7150   30.0140   55.1630 C   0  0  1  0  0  0  0  0  0  0  0  0
   37.6300   30.9310   55.2910 C   0  0  0  0  0  0  0  0  0  0  0  0
   38.2550   32.3080   55.5160 C   0  0  0  0  0  0  0  0  0  0  0  0
   39.8300   30.4560   54.3370 C   0  0  0  0  0  0  0  0  0  0  0  0
   39.6900   30.0190   52.9030 C   0  0  0  0  0  0  0  0  0  0  0  0
   38.9490   28.9650   52.8660 C   0  0  0  0  0  0  0  0  0  0  0  0
   38.9800   28.1540   51.6900 C   0  0  0  0  0  0  0  0  0  0  0  0
   38.4990   27.0480   51.6110 O   0  0  0  0  0  0  0  0  0  0  0  0
   39.4990   28.5930   50.4820 C   0  0  0  0  0  0  0  0  0  0  0  0
   40.1410   29.9150   50.4620 C   0  0  0  0  0  0  0  0  0  0  0  0
   40.2840   30.5370   51.7180 C   0  0  0  0  0  0  0  0  0  0  0  0
   37.0624   24.8652   56.4218 H   0  0  0  0  0  0  0  0  0  0  0  0
   36.0417   24.5364   54.9808 H   0  0  0  0  0  0  0  0  0  0  0  0
   37.7745   24.0633   54.9808 H   0  0  0  0  0  0  0  0  0  0  0  0
   37.8001   26.0345   53.7407 H   0  0  0  0  0  0  0  0  0  0  0  0
   36.5406   26.8122   54.7073 H   0  0  0  0  0  0  0  0  0  0  0  0
   38.5074   27.9752   58.1835 H   0  0  0  0  0  0  0  0  0  0  0  0
   38.7512   25.8784   59.2037 H   0  0  0  0  0  0  0  0  0  0  0  0
   37.8621   25.1629   57.8165 H   0  0  0  0  0  0  0  0  0  0  0  0
   39.6583   25.1859   57.8165 H   0  0  0  0  0  0  0  0  0  0  0  0
   39.4926   27.9763   55.5453 H   0  0  0  0  0  0  0  0  0  0  0  0
   38.3586   28.9516   58.5088 H   0  0  0  0  0  0  0  0  0  0  0  0
   39.3428   29.7029   60.7416 H   0  0  0  0  0  0  0  0  0  0  0  0
   40.3888   28.5732   59.8163 H   0  0  0  0  0  0  0  0  0  0  0  0
   40.7475   30.3333   59.8163 H   0  0  0  0  0  0  0  0  0  0  0  0
   37.9063   31.4122   57.9028 H   0  0  0  0  0  0  0  0  0  0  0  0
   37.4884   30.5865   59.6630 H   0  0  0  0  0  0  0  0  0  0  0  0
   39.3447   31.7709   59.6607 H   0  0  0  0  0  0  0  0  0  0  0  0
   37.3170   33.4970   58.1360 H   0  0  0  0  0  0  0  0  0  0  0  0
   36.2530   32.4060   59.0280 H   0  0  0  0  0  0  0  0  0  0  0  0
   35.5297   34.3408   59.3675 H   0  0  0  0  0  0  0  0  0  0  0  0
   36.7240   33.6966   60.7982 H   0  0  0  0  0  0  0  0  0  0  0  0
   37.5740   38.6770   60.5160 H   0  0  0  0  0  0  0  0  0  0  0  0
   39.4552   37.2965   61.6193 H   0  0  0  0  0  0  0  0  0  0  0  0
   39.9437   34.5995   60.0563 H   0  0  0  0  0  0  0  0  0  0  0  0
   39.5651   34.5389   63.0707 H   0  0  0  0  0  0  0  0  0  0  0  0
   40.9498   33.8523   62.1554 H   0  0  0  0  0  0  0  0  0  0  0  0
   40.6641   35.6257   62.1554 H   0  0  0  0  0  0  0  0  0  0  0  0
   39.6388   32.7232   60.2049 H   0  0  0  0  0  0  0  0  0  0  0  0
   37.9150   31.6870   61.8570 H   0  0  0  0  0  0  0  0  0  0  0  0
   37.9519   29.3730   54.6973 H   0  0  0  0  0  0  0  0  0  0  0  0
   37.0234   30.9336   54.3734 H   0  0  0  0  0  0  0  0  0  0  0  0
   36.9675   30.6522   56.1237 H   0  0  0  0  0  0  0  0  0  0  0  0
   38.3418   32.4993   56.5958 H   0  0  0  0  0  0  0  0  0  0  0  0
   39.2543   32.3365   55.0571 H   0  0  0  0  0  0  0  0  0  0  0  0
   37.6186   33.0789   55.0571 H   0  0  0  0  0  0  0  0  0  0  0  0
   39.8794   31.5544   54.3684 H   0  0  0  0  0  0  0  0  0  0  0  0
   40.7468   29.9999   54.7388 H   0  0  0  0  0  0  0  0  0  0  0  0
   38.3084   28.6964   53.7189 H   0  0  0  0  0  0  0  0  0  0  0  0
   39.4330   27.9760   49.5737 H   0  0  0  0  0  0  0  0  0  0  0  0
   40.4862   30.3865   49.5301 H   0  0  0  0  0  0  0  0  0  0  0  0
   41.3654   30.5829   51.9141 H   0  0  0  0  0  0  0  0  0  0  0  0
   39.7177   31.4687   51.5724 H   0  0  0  0  0  0  0  0  0  0  0  0
  1  2  1  0
  2  3  1  0
  3  4  1  0
  4  5  1  0
  4  6  1  0
  6  7  1  0
  7  8  1  0
  8  9  1  0
  8 10  1  0
 10 11  1  0
 11 12  1  0
 12 13  1  0
 13 14  1  0
 14 15  2  0
 15 16  1  0
 16 17  1  0
 17 18  2  0
 18 19  1  0
 19 20  1  0
 19 21  1  0
 21 22  1  0
  6 23  1  0
 23 24  1  0
 24 25  1  0
 23 26  1  0
 26 27  1  0
 27 28  2  0
 28 29  1  0
 29 30  2  0
 29 31  1  0
 31 32  2  0
 32 33  1  0
 21 11  1  0
 33 27  1  0
 18 14  1  0
  1 34  1  0
  1 35  1  0
  1 36  1  0
  2 37  1  0
  2 38  1  0
  4 39  1  1
  5 40  1  0
  5 41  1  0
  5 42  1  0
  6 43  1  6
  8 44  1  1
  9 45  1  0
  9 46  1  0
  9 47  1  0
 10 48  1  0
 10 49  1  0
 11 50  1  6
 12 51  1  0
 12 52  1  0
 13 53  1  0
 13 54  1  0
 16 55  1  0
 17 56  1  0
 19 57  1  6
 20 58  1  0
 20 59  1  0
 20 60  1  0
 21 61  1  1
 22 62  1  0
 23 63  1  6
 24 64  1  0
 24 65  1  0
 25 66  1  0
 25 67  1  0
 25 68  1  0
 26 69  1  0
 26 70  1  0
 28 71  1  0
 31 72  1  0
 32 73  1  0
 33 74  1  0
 33 75  1  0
M  CHG  1  12   1
M  END

>  <ID>
DiffSBDD_60_num_sample_100

>  <docking_score>
-11.391

$$$$
DiffSBDD_61_num_sample_100
     RDKit          3D

 51 54  0  0  0  0  0  0  0  0999 V2000
   41.6050   32.4980   62.3160 C   0  0  0  0  0  0  0  0  0  0  0  0
   41.0170   33.8920   62.4320 C   0  0  0  0  0  0  0  0  0  0  0  0
   39.9680   34.1120   61.4180 C   0  0  1  0  0  0  0  0  0  0  0  0
   39.5360   33.1000   60.7860 N   0  0  0  0  0  0  0  0  0  0  0  0
   38.4620   33.5100   59.9360 C   0  0  0  0  0  0  0  0  0  0  0  0
   38.0440   32.6390   58.8920 N   0  0  0  0  0  0  0  0  0  0  0  0
   38.8290   32.6170   57.8530 O   0  0  0  0  0  0  0  0  0  0  0  0
   38.3520   32.0590   56.7610 C   0  0  0  0  0  0  0  0  0  0  0  0
   39.2210   31.8060   55.5070 C   0  0  0  0  0  0  0  0  0  0  0  0
   39.4480   30.1130   55.3370 C   0  0  0  0  0  0  0  0  0  0  0  0
   39.3870   30.5500   53.7820 C   0  0  0  0  0  0  0  0  0  0  0  0
   39.4670   29.2440   52.7390 C   0  0  0  0  0  0  0  0  0  0  0  0
   39.1800   27.9160   53.0700 C   0  0  0  0  0  0  0  0  0  0  0  0
   39.0390   27.4400   54.5090 C   0  0  0  0  0  0  0  0  0  0  0  0
   39.3450   28.5420   55.6010 C   0  0  0  0  0  0  0  0  0  0  0  0
   39.5780   27.7780   56.9520 S   0  0  0  0  0  0  0  0  0  0  0  0
   39.8390   26.1680   56.1600 C   0  0  1  0  0  0  0  0  0  0  0  0
   39.8220   24.8350   56.8430 O   0  0  0  0  0  0  0  0  0  0  0  0
   38.6770   24.8440   57.3100 C   0  0  0  0  0  0  0  0  0  0  0  0
   39.0860   25.9970   54.7970 C   0  0  0  0  0  0  0  0  0  0  0  0
   38.0230   34.9490   60.2490 N   0  0  0  0  0  0  0  0  0  0  0  0
   37.3630   36.6010   60.0430 C   0  0  0  0  0  0  0  0  0  0  0  0
   36.3930   36.8670   59.2360 N   0  0  0  0  0  0  0  0  0  0  0  0
   38.2070   37.3010   60.8920 C   0  0  0  0  0  0  0  0  0  0  0  0
   39.1260   36.4840   61.5630 C   0  0  0  0  0  0  0  0  0  0  0  0
   38.9960   35.2670   61.1670 C   0  0  0  0  0  0  0  0  0  0  0  0
   41.7779   32.0881   63.3220 H   0  0  0  0  0  0  0  0  0  0  0  0
   40.9041   31.8486   61.7709 H   0  0  0  0  0  0  0  0  0  0  0  0
   42.5592   32.5467   61.7709 H   0  0  0  0  0  0  0  0  0  0  0  0
   40.5798   34.0153   63.4338 H   0  0  0  0  0  0  0  0  0  0  0  0
   41.8207   34.6250   62.2681 H   0  0  0  0  0  0  0  0  0  0  0  0
   40.8559   34.7558   61.3336 H   0  0  0  0  0  0  0  0  0  0  0  0
   39.9000   32.1410   60.8710 H   0  0  0  0  0  0  0  0  0  0  0  0
   37.1880   32.0690   58.9530 H   0  0  0  0  0  0  0  0  0  0  0  0
   37.9627   31.0763   57.0656 H   0  0  0  0  0  0  0  0  0  0  0  0
   37.6563   32.8308   56.4000 H   0  0  0  0  0  0  0  0  0  0  0  0
   38.7126   32.2039   54.6164 H   0  0  0  0  0  0  0  0  0  0  0  0
   40.1936   32.3087   55.6137 H   0  0  0  0  0  0  0  0  0  0  0  0
   39.3020   31.5938   53.4456 H   0  0  0  0  0  0  0  0  0  0  0  0
   39.7721   29.4480   51.7020 H   0  0  0  0  0  0  0  0  0  0  0  0
   39.0509   27.1857   52.2576 H   0  0  0  0  0  0  0  0  0  0  0  0
   40.9219   26.3572   56.1213 H   0  0  0  0  0  0  0  0  0  0  0  0
   38.7291   24.8436   58.4088 H   0  0  0  0  0  0  0  0  0  0  0  0
   38.1487   25.7463   56.9683 H   0  0  0  0  0  0  0  0  0  0  0  0
   38.1346   23.9501   56.9683 H   0  0  0  0  0  0  0  0  0  0  0  0
   39.6636   25.4277   54.0539 H   0  0  0  0  0  0  0  0  0  0  0  0
   38.1374   25.4401   54.7981 H   0  0  0  0  0  0  0  0  0  0  0  0
   35.4370   36.9810   59.6010 H   0  0  0  0  0  0  0  0  0  0  0  0
   36.5750   36.9640   58.2270 H   0  0  0  0  0  0  0  0  0  0  0  0
   38.1594   38.3918   61.0256 H   0  0  0  0  0  0  0  0  0  0  0  0
   39.8498   36.8309   62.3152 H   0  0  0  0  0  0  0  0  0  0  0  0
  1  2  1  0
  2  3  1  0
  3  4  1  0
  4  5  2  0
  5  6  1  0
  6  7  1  0
  7  8  1  0
  8  9  1  0
  9 10  1  0
 10 11  2  0
 11 12  1  0
 12 13  2  0
 13 14  1  0
 14 15  2  0
 15 16  1  0
 16 17  1  0
 17 18  1  0
 18 19  1  0
 17 20  1  0
  5 21  1  0
 21 22  1  0
 22 23  1  0
 22 24  2  0
 24 25  1  0
 25 26  2  0
 26  3  1  0
 15 10  1  0
 26 21  1  0
 20 14  1  0
  1 27  1  0
  1 28  1  0
  1 29  1  0
  2 30  1  0
  2 31  1  0
  3 32  1  6
  4 33  1  0
  6 34  1  0
  8 35  1  0
  8 36  1  0
  9 37  1  0
  9 38  1  0
 11 39  1  0
 12 40  1  0
 13 41  1  0
 17 42  1  6
 19 43  1  0
 19 44  1  0
 19 45  1  0
 20 46  1  0
 20 47  1  0
 23 48  1  0
 23 49  1  0
 24 50  1  0
 25 51  1  0
M  CHG  1   4   1
M  END

>  <ID>
DiffSBDD_61_num_sample_100

>  <docking_score>
-10.067

$$$$
DiffSBDD_62_num_sample_100
     RDKit          3D

 81 82  0  0  0  0  0  0  0  0999 V2000
   36.9330   24.4820   55.5160 C   0  0  0  0  0  0  0  0  0  0  0  0
   37.5850   25.2220   56.8070 C   0  0  0  0  0  0  0  0  0  0  0  0
   39.1130   24.9180   57.0040 C   0  0  0  0  0  0  0  0  0  0  0  0
   39.6220   26.0460   56.0640 C   0  0  2  0  0  0  0  0  0  0  0  0
   40.2110   25.6300   54.6160 C   0  0  0  0  0  0  0  0  0  0  0  0
   39.7260   27.3780   56.6580 C   0  0  2  0  0  0  0  0  0  0  0  0
   40.8620   27.5390   57.3800 C   0  0  0  0  0  0  0  0  0  0  0  0
   42.0620   27.8630   57.9030 C   0  0  0  0  0  0  0  0  0  0  0  0
   38.6850   28.4140   56.3520 C   0  0  2  0  0  0  0  0  0  0  0  0
   38.2790   29.3810   57.6240 C   0  0  0  0  0  0  0  0  0  0  0  0
   37.7190   30.6110   56.8460 C   0  0  0  0  0  0  0  0  0  0  0  0
   38.3760   31.9990   57.1170 C   0  0  0  0  0  0  0  0  0  0  0  0
   38.4730   32.8740   55.6900 O   0  0  0  0  0  0  0  0  0  0  0  0
   38.2760   33.0360   58.2840 N   0  0  0  0  0  0  0  0  0  0  0  0
   38.9110   32.9000   59.4440 C   0  0  0  0  0  0  0  0  0  0  0  0
   38.8140   34.1620   60.4590 C   0  0  2  0  0  0  0  0  0  0  0  0
   39.6150   34.3700   61.5120 C   0  0  0  0  0  0  0  0  0  0  0  0
   39.7200   35.5590   61.9790 C   0  0  0  0  0  0  0  0  0  0  0  0
   40.6020   36.0240   62.9190 O   0  0  0  0  0  0  0  0  0  0  0  0
   40.9550   35.1300   63.9450 C   0  0  0  0  0  0  0  0  0  0  0  0
   38.8470   36.7120   61.5100 C   0  0  0  0  0  0  0  0  0  0  0  0
   39.2390   37.7610   61.9590 C   0  0  0  0  0  0  0  0  0  0  0  0
   39.6720   38.4860   61.9500 O   0  0  0  0  0  0  0  0  0  0  0  0
   37.7430   36.3720   60.8020 C   0  0  0  0  0  0  0  0  0  0  0  0
   37.5750   35.0350   60.4740 C   0  0  2  0  0  0  0  0  0  0  0  0
   36.2570   34.3870   60.3650 C   0  0  1  0  0  0  0  0  0  0  0  0
   35.7690   33.6200   61.5100 C   0  0  0  0  0  0  0  0  0  0  0  0
   35.7160   34.5810   59.0690 O   0  0  0  0  0  0  0  0  0  0  0  0
   37.8820   28.4890   55.0490 C   0  0  0  0  0  0  0  0  0  0  0  0
   38.5890   28.8030   53.7210 C   0  0  0  0  0  0  0  0  0  0  0  0
   39.2350   30.1390   53.6380 C   0  0  0  0  0  0  0  0  0  0  0  0
   39.8980   30.6260   52.4770 C   0  0  0  0  0  0  0  0  0  0  0  0
   39.9390   29.8360   51.2970 C   0  0  0  0  0  0  0  0  0  0  0  0
   40.5950   30.1240   50.1540 O   0  0  0  0  0  0  0  0  0  0  0  0
   39.1780   28.5090   51.3490 C   0  0  0  0  0  0  0  0  0  0  0  0
   39.0770   27.8570   50.2560 F   0  0  0  0  0  0  0  0  0  0  0  0
   38.6150   28.0040   52.5430 C   0  0  0  0  0  0  0  0  0  0  0  0
   36.2410   23.6966   55.8542 H   0  0  0  0  0  0  0  0  0  0  0  0
   36.3844   25.2179   54.9098 H   0  0  0  0  0  0  0  0  0  0  0  0
   37.7321   24.0304   54.9098 H   0  0  0  0  0  0  0  0  0  0  0  0
   37.4599   26.3080   56.6847 H   0  0  0  0  0  0  0  0  0  0  0  0
   37.0635   24.8369   57.6956 H   0  0  0  0  0  0  0  0  0  0  0  0
   39.4425   25.0507   58.0451 H   0  0  0  0  0  0  0  0  0  0  0  0
   39.4537   23.8940   56.7912 H   0  0  0  0  0  0  0  0  0  0  0  0
   38.9407   26.5016   55.3304 H   0  0  0  0  0  0  0  0  0  0  0  0
   41.1028   25.0001   54.7501 H   0  0  0  0  0  0  0  0  0  0  0  0
   39.4472   25.0699   54.0566 H   0  0  0  0  0  0  0  0  0  0  0  0
   40.4835   26.5371   54.0566 H   0  0  0  0  0  0  0  0  0  0  0  0
   40.2466   27.7385   55.7585 H   0  0  0  0  0  0  0  0  0  0  0  0
   40.3168   27.8311   58.2896 H   0  0  0  0  0  0  0  0  0  0  0  0
   41.4037   27.0665   56.5474 H   0  0  0  0  0  0  0  0  0  0  0  0
   42.0000   27.8463   59.0011 H   0  0  0  0  0  0  0  0  0  0  0  0
   42.8166   27.1364   57.5672 H   0  0  0  0  0  0  0  0  0  0  0  0
   42.3483   28.8706   57.5672 H   0  0  0  0  0  0  0  0  0  0  0  0
   39.2212   28.8006   55.4728 H   0  0  0  0  0  0  0  0  0  0  0  0
   37.5137   28.9173   58.2637 H   0  0  0  0  0  0  0  0  0  0  0  0
   39.0990   29.6034   58.3226 H   0  0  0  0  0  0  0  0  0  0  0  0
   37.8295   30.3990   55.7723 H   0  0  0  0  0  0  0  0  0  0  0  0
   36.6839   30.7184   57.2025 H   0  0  0  0  0  0  0  0  0  0  0  0
   37.6870   33.8690   58.1470 H   0  0  0  0  0  0  0  0  0  0  0  0
   38.4909   32.0223   59.9569 H   0  0  0  0  0  0  0  0  0  0  0  0
   39.9769   32.8047   59.1897 H   0  0  0  0  0  0  0  0  0  0  0  0
   39.5510   34.3772   59.6713 H   0  0  0  0  0  0  0  0  0  0  0  0
   40.1715   33.5373   61.9669 H   0  0  0  0  0  0  0  0  0  0  0  0
   40.7691   35.6008   64.9216 H   0  0  0  0  0  0  0  0  0  0  0  0
   40.3507   34.2150   63.8581 H   0  0  0  0  0  0  0  0  0  0  0  0
   42.0214   34.8747   63.8581 H   0  0  0  0  0  0  0  0  0  0  0  0
   36.8667   36.6783   61.3922 H   0  0  0  0  0  0  0  0  0  0  0  0
   37.8639   36.8828   59.8353 H   0  0  0  0  0  0  0  0  0  0  0  0
   37.2877   35.3769   59.4688 H   0  0  0  0  0  0  0  0  0  0  0  0
   36.7353   33.4819   59.9625 H   0  0  0  0  0  0  0  0  0  0  0  0
   36.0826   34.1129   62.4420 H   0  0  0  0  0  0  0  0  0  0  0  0
   34.6708   33.5671   61.4747 H   0  0  0  0  0  0  0  0  0  0  0  0
   36.1864   32.6029   61.4747 H   0  0  0  0  0  0  0  0  0  0  0  0
   34.7340   34.6860   59.1340 H   0  0  0  0  0  0  0  0  0  0  0  0
   37.3914   27.5126   54.9231 H   0  0  0  0  0  0  0  0  0  0  0  0
   37.2371   29.3668   55.2027 H   0  0  0  0  0  0  0  0  0  0  0  0
   39.1985   30.7885   54.5250 H   0  0  0  0  0  0  0  0  0  0  0  0
   40.3792   31.6150   52.4932 H   0  0  0  0  0  0  0  0  0  0  0  0
   41.5410   29.8510   50.0440 H   0  0  0  0  0  0  0  0  0  0  0  0
   38.1945   26.9877   52.5622 H   0  0  0  0  0  0  0  0  0  0  0  0
  1  2  1  0
  2  3  1  0
  3  4  1  0
  4  5  1  0
  4  6  1  0
  6  7  1  0
  7  8  1  0
  6  9  1  0
  9 10  1  0
 10 11  1  0
 11 12  1  0
 12 13  2  0
 12 14  1  0
 14 15  1  0
 15 16  1  0
 16 17  1  0
 17 18  2  0
 18 19  1  0
 19 20  1  0
 18 21  1  0
 21 22  2  0
 22 23  2  0
 21 24  1  0
 24 25  1  0
 25 26  1  0
 26 27  1  0
 26 28  1  0
  9 29  1  0
 29 30  1  0
 30 31  2  0
 31 32  1  0
 32 33  2  0
 33 34  1  0
 33 35  1  0
 35 36  1  0
 35 37  2  0
 25 16  1  0
 37 30  1  0
  1 38  1  0
  1 39  1  0
  1 40  1  0
  2 41  1  0
  2 42  1  0
  3 43  1  0
  3 44  1  0
  4 45  1  6
  5 46  1  0
  5 47  1  0
  5 48  1  0
  6 49  1  1
  7 50  1  0
  7 51  1  0
  8 52  1  0
  8 53  1  0
  8 54  1  0
  9 55  1  6
 10 56  1  0
 10 57  1  0
 11 58  1  0
 11 59  1  0
 14 60  1  0
 15 61  1  0
 15 62  1  0
 16 63  1  6
 17 64  1  0
 20 65  1  0
 20 66  1  0
 20 67  1  0
 24 68  1  0
 24 69  1  0
 25 70  1  6
 26 71  1  1
 27 72  1  0
 27 73  1  0
 27 74  1  0
 28 75  1  0
 29 76  1  0
 29 77  1  0
 31 78  1  0
 32 79  1  0
 34 80  1  0
 37 81  1  0
M  END

>  <ID>
DiffSBDD_62_num_sample_100

>  <docking_score>
-10.35

$$$$
DiffSBDD_63_num_sample_100
     RDKit          3D

 67 70  0  0  0  0  0  0  0  0999 V2000
   37.9690   32.9050   56.6510 O   0  0  0  0  0  0  0  0  0  0  0  0
   38.3470   32.8710   58.0420 C   0  0  0  0  0  0  0  0  0  0  0  0
   38.0860   31.5680   58.8570 C   0  0  1  0  0  0  0  0  0  0  0  0
   39.4530   31.0730   59.3580 O   0  0  0  0  0  0  0  0  0  0  0  0
   39.2840   29.9400   60.3830 C   0  0  2  0  0  0  0  0  0  0  0  0
   39.0930   28.7310   60.0380 C   0  0  0  0  0  0  0  0  0  0  0  0
   38.8070   28.2130   58.6750 N   0  0  1  0  0  0  0  0  0  0  0  0
   39.6370   28.9910   57.6720 C   0  0  0  0  0  0  0  0  0  0  0  0
   39.7410   28.3010   56.3550 C   0  0  0  0  0  0  0  0  0  0  0  0
   38.3110   27.8910   56.1440 C   0  0  1  0  0  0  0  0  0  0  0  0
   37.6480   29.1220   54.8900 S   0  0  0  0  0  0  0  0  0  0  0  0
   38.7920   29.1310   53.6570 N   0  0  0  0  0  0  0  0  0  0  0  0
   39.4930   30.2900   53.3850 C   0  0  0  0  0  0  0  0  0  0  0  0
   39.5160   31.2660   54.4270 F   0  0  0  0  0  0  0  0  0  0  0  0
   40.1280   30.6360   52.1970 C   0  0  0  0  0  0  0  0  0  0  0  0
   40.3120   30.1520   50.9660 C   0  0  0  0  0  0  0  0  0  0  0  0
   40.9420   30.7590   50.0190 F   0  0  0  0  0  0  0  0  0  0  0  0
   39.8120   28.9580   50.4930 C   0  0  0  0  0  0  0  0  0  0  0  0
   40.1480   28.6710   49.2290 F   0  0  0  0  0  0  0  0  0  0  0  0
   39.2620   27.9630   51.4180 C   0  0  0  0  0  0  0  0  0  0  0  0
   38.8880   28.1350   52.7010 C   0  0  0  0  0  0  0  0  0  0  0  0
   38.5460   26.8860   52.9400 F   0  0  0  0  0  0  0  0  0  0  0  0
   38.0150   26.6650   56.8700 C   0  0  0  0  0  0  0  0  0  0  0  0
   37.9900   26.9470   58.4360 C   0  0  0  0  0  0  0  0  0  0  0  0
   38.7420   30.6780   61.6650 C   0  0  1  0  0  0  0  0  0  0  0  0
   39.9120   31.4020   62.3880 N   0  0  0  0  0  0  0  0  0  0  0  0
   40.5820   30.4240   63.3690 C   0  0  0  0  0  0  0  0  0  0  0  0
   41.9840   30.8550   63.4830 C   0  0  0  0  0  0  0  0  0  0  0  0
   42.0340   32.2320   64.0800 O   0  0  0  0  0  0  0  0  0  0  0  0
   41.6350   33.1220   63.0510 C   0  0  0  0  0  0  0  0  0  0  0  0
   40.2130   32.7590   62.6800 C   0  0  0  0  0  0  0  0  0  0  0  0
   37.7500   31.7790   61.2570 O   0  0  0  0  0  0  0  0  0  0  0  0
   37.1190   31.7320   59.9840 C   0  0  2  0  0  0  0  0  0  0  0  0
   36.1140   30.4960   60.0580 C   0  0  0  0  0  0  0  0  0  0  0  0
   36.0590   29.8050   58.7720 O   0  0  0  0  0  0  0  0  0  0  0  0
   36.9930   33.0560   56.5770 H   0  0  0  0  0  0  0  0  0  0  0  0
   39.4276   33.0712   58.0889 H   0  0  0  0  0  0  0  0  0  0  0  0
   37.6922   33.6176   58.5151 H   0  0  0  0  0  0  0  0  0  0  0  0
   37.6027   30.8312   58.1986 H   0  0  0  0  0  0  0  0  0  0  0  0
   40.1691   29.3531   60.6694 H   0  0  0  0  0  0  0  0  0  0  0  0
   40.0039   28.2016   60.3541 H   0  0  0  0  0  0  0  0  0  0  0  0
   38.1019   28.5786   60.4903 H   0  0  0  0  0  0  0  0  0  0  0  0
   37.8900   28.0680   58.2300 H   0  0  0  0  0  0  0  0  0  0  0  0
   39.1714   29.9756   57.5179 H   0  0  0  0  0  0  0  0  0  0  0  0
   40.6540   29.0823   58.0811 H   0  0  0  0  0  0  0  0  0  0  0  0
   40.0879   28.9839   55.5655 H   0  0  0  0  0  0  0  0  0  0  0  0
   40.4632   27.4717   56.3289 H   0  0  0  0  0  0  0  0  0  0  0  0
   37.9994   28.5568   56.9623 H   0  0  0  0  0  0  0  0  0  0  0  0
   40.6343   31.6066   52.3043 H   0  0  0  0  0  0  0  0  0  0  0  0
   39.1390   26.9474   51.0137 H   0  0  0  0  0  0  0  0  0  0  0  0
   37.0330   26.2833   56.5537 H   0  0  0  0  0  0  0  0  0  0  0  0
   38.7950   25.9208   56.6514 H   0  0  0  0  0  0  0  0  0  0  0  0
   36.9546   27.0958   58.7764 H   0  0  0  0  0  0  0  0  0  0  0  0
   38.4104   26.0976   58.9943 H   0  0  0  0  0  0  0  0  0  0  0  0
   38.2664   29.9261   62.3119 H   0  0  0  0  0  0  0  0  0  0  0  0
   40.0877   30.4697   64.3506 H   0  0  0  0  0  0  0  0  0  0  0  0
   40.5090   29.3857   63.0133 H   0  0  0  0  0  0  0  0  0  0  0  0
   42.5322   30.1542   64.1298 H   0  0  0  0  0  0  0  0  0  0  0  0
   42.4469   30.8694   62.4853 H   0  0  0  0  0  0  0  0  0  0  0  0
   41.6782   34.1603   63.4116 H   0  0  0  0  0  0  0  0  0  0  0  0
   42.3016   33.0397   62.1799 H   0  0  0  0  0  0  0  0  0  0  0  0
   39.5715   33.0596   63.5215 H   0  0  0  0  0  0  0  0  0  0  0  0
   40.0422   33.2825   61.7278 H   0  0  0  0  0  0  0  0  0  0  0  0
   36.6050   32.6818   59.7749 H   0  0  0  0  0  0  0  0  0  0  0  0
   36.4591   29.7944   60.8317 H   0  0  0  0  0  0  0  0  0  0  0  0
   35.1090   30.8684   60.3056 H   0  0  0  0  0  0  0  0  0  0  0  0
   36.9780   29.6630   58.4330 H   0  0  0  0  0  0  0  0  0  0  0  0
  1  2  1  0
  2  3  1  0
  3  4  1  0
  4  5  1  0
  5  6  1  0
  6  7  1  0
  7  8  1  0
  8  9  1  0
  9 10  1  0
 10 11  1  0
 11 12  1  0
 12 13  1  0
 13 14  1  0
 13 15  2  0
 15 16  1  0
 16 17  1  0
 16 18  2  0
 18 19  1  0
 18 20  1  0
 20 21  2  0
 21 22  1  0
 10 23  1  0
 23 24  1  0
  5 25  1  0
 25 26  1  0
 26 27  1  0
 27 28  1  0
 28 29  1  0
 29 30  1  0
 30 31  1  0
 25 32  1  0
 32 33  1  0
 33 34  1  0
 34 35  1  0
 33  3  1  0
 24  7  1  0
 31 26  1  0
 21 12  1  0
  1 36  1  0
  2 37  1  0
  2 38  1  0
  3 39  1  6
  5 40  1  1
  6 41  1  0
  6 42  1  0
  7 43  1  6
  8 44  1  0
  8 45  1  0
  9 46  1  0
  9 47  1  0
 10 48  1  1
 15 49  1  0
 20 50  1  0
 23 51  1  0
 23 52  1  0
 24 53  1  0
 24 54  1  0
 25 55  1  1
 27 56  1  0
 27 57  1  0
 28 58  1  0
 28 59  1  0
 30 60  1  0
 30 61  1  0
 31 62  1  0
 31 63  1  0
 33 64  1  6
 34 65  1  0
 34 66  1  0
 35 67  1  0
M  CHG  1   7   1
M  END

>  <ID>
DiffSBDD_63_num_sample_100

>  <docking_score>
-9.725

$$$$
DiffSBDD_64_num_sample_100
     RDKit          3D

 67 69  0  0  0  0  0  0  0  0999 V2000
   39.9060   26.5520   55.3910 C   0  0  0  0  0  0  0  0  0  0  0  0
   39.6420   27.8590   56.1420 C   0  0  0  0  0  0  0  0  0  0  0  0
   40.6380   27.9920   57.0730 C   0  0  0  0  0  0  0  0  0  0  0  0
   39.8480   29.0290   55.3410 C   0  0  0  0  0  0  0  0  0  0  0  0
   38.5410   29.4640   54.5220 C   0  0  1  0  0  0  0  0  0  0  0  0
   37.9560   30.6400   55.0740 C   0  0  0  0  0  0  0  0  0  0  0  0
   38.2970   31.3560   56.2060 C   0  0  0  0  0  0  0  0  0  0  0  0
   38.5970   32.0900   57.2860 C   0  0  0  0  0  0  0  0  0  0  0  0
   38.4800   32.4330   58.5410 C   0  0  0  0  0  0  0  0  0  0  0  0
   37.8150   32.2300   59.7370 C   0  0  2  0  0  0  0  0  0  0  0  0
   37.2580   30.9700   60.0700 C   0  0  0  0  0  0  0  0  0  0  0  0
   36.7700   33.2750   59.5110 C   0  0  0  0  0  0  0  0  0  0  0  0
   36.7430   34.0820   60.7080 C   0  0  0  0  0  0  0  0  0  0  0  0
   37.9690   33.8010   61.5400 N   0  0  0  0  0  0  0  0  0  0  0  0
   38.4620   35.2010   61.3150 C   0  0  0  0  0  0  0  0  0  0  0  0
   39.8840   35.0810   61.1270 C   0  0  0  0  0  0  0  0  0  0  0  0
   40.8050   35.6950   61.5810 C   0  0  0  0  0  0  0  0  0  0  0  0
   40.6080   36.8450   62.2460 C   0  0  0  0  0  0  0  0  0  0  0  0
   39.2930   37.2600   62.4090 C   0  0  0  0  0  0  0  0  0  0  0  0
   38.2880   36.6040   61.8650 C   0  0  0  0  0  0  0  0  0  0  0  0
   37.1700   37.4250   62.0330 N   0  0  0  0  0  0  0  0  0  0  0  0
   36.2770   37.3330   63.1210 C   0  0  0  0  0  0  0  0  0  0  0  0
   36.9980   38.3740   61.2690 O   0  0  0  0  0  0  0  0  0  0  0  0
   38.5640   32.6060   60.9810 C   0  0  0  0  0  0  0  0  0  0  0  0
   38.9580   29.3660   53.1050 N   0  0  0  0  0  0  0  0  0  0  0  0
   39.6490   30.5090   52.6700 C   0  0  0  0  0  0  0  0  0  0  0  0
   40.2080   30.5050   51.3910 C   0  0  0  0  0  0  0  0  0  0  0  0
   39.9690   29.3830   50.5640 C   0  0  0  0  0  0  0  0  0  0  0  0
   40.5280   29.2950   49.5000 O   0  0  0  0  0  0  0  0  0  0  0  0
   39.1920   28.2780   51.0260 C   0  0  0  0  0  0  0  0  0  0  0  0
   38.6430   28.3670   52.2730 C   0  0  0  0  0  0  0  0  0  0  0  0
   37.8230   27.3710   52.7200 O   0  0  0  0  0  0  0  0  0  0  0  0
   40.0700   25.7400   56.1147 H   0  0  0  0  0  0  0  0  0  0  0  0
   39.0385   26.3105   54.7592 H   0  0  0  0  0  0  0  0  0  0  0  0
   40.7992   26.6661   54.7592 H   0  0  0  0  0  0  0  0  0  0  0  0
   38.6068   27.7999   56.5092 H   0  0  0  0  0  0  0  0  0  0  0  0
   40.2059   27.9343   58.0830 H   0  0  0  0  0  0  0  0  0  0  0  0
   41.3728   27.1840   56.9418 H   0  0  0  0  0  0  0  0  0  0  0  0
   41.1350   28.9645   56.9418 H   0  0  0  0  0  0  0  0  0  0  0  0
   40.1406   29.8589   56.0011 H   0  0  0  0  0  0  0  0  0  0  0  0
   40.6328   28.7921   54.6075 H   0  0  0  0  0  0  0  0  0  0  0  0
   37.6464   28.8285   54.5985 H   0  0  0  0  0  0  0  0  0  0  0  0
   37.0996   31.0405   54.5117 H   0  0  0  0  0  0  0  0  0  0  0  0
   39.3613   32.7855   56.9089 H   0  0  0  0  0  0  0  0  0  0  0  0
   39.5134   32.2581   58.8750 H   0  0  0  0  0  0  0  0  0  0  0  0
   37.7413   33.1987   58.2616 H   0  0  0  0  0  0  0  0  0  0  0  0
   37.2124   30.8669   61.1642 H   0  0  0  0  0  0  0  0  0  0  0  0
   36.2432   30.8957   59.6521 H   0  0  0  0  0  0  0  0  0  0  0  0
   37.8861   30.1695   59.6521 H   0  0  0  0  0  0  0  0  0  0  0  0
   37.0312   33.8936   58.6397 H   0  0  0  0  0  0  0  0  0  0  0  0
   35.7876   32.8230   59.3096 H   0  0  0  0  0  0  0  0  0  0  0  0
   36.7256   35.1464   60.4308 H   0  0  0  0  0  0  0  0  0  0  0  0
   35.8434   33.8368   61.2916 H   0  0  0  0  0  0  0  0  0  0  0  0
   40.1785   34.2755   60.4382 H   0  0  0  0  0  0  0  0  0  0  0  0
   41.8281   35.3120   61.4519 H   0  0  0  0  0  0  0  0  0  0  0  0
   41.4497   37.4312   62.6433 H   0  0  0  0  0  0  0  0  0  0  0  0
   39.0849   38.1592   63.0074 H   0  0  0  0  0  0  0  0  0  0  0  0
   36.8406   37.3911   64.0639 H   0  0  0  0  0  0  0  0  0  0  0  0
   35.5550   38.1615   63.0738 H   0  0  0  0  0  0  0  0  0  0  0  0
   35.7390   36.3747   63.0738 H   0  0  0  0  0  0  0  0  0  0  0  0
   36.5830   38.0520   60.4310 H   0  0  0  0  0  0  0  0  0  0  0  0
   39.6184   32.7988   60.7337 H   0  0  0  0  0  0  0  0  0  0  0  0
   38.5114   31.7853   61.7115 H   0  0  0  0  0  0  0  0  0  0  0  0
   39.7475   31.3885   53.3233 H   0  0  0  0  0  0  0  0  0  0  0  0
   40.8167   31.3499   51.0367 H   0  0  0  0  0  0  0  0  0  0  0  0
   38.3667   28.1353   50.3128 H   0  0  0  0  0  0  0  0  0  0  0  0
   39.9064   27.4444   51.0949 H   0  0  0  0  0  0  0  0  0  0  0  0
  1  2  1  0
  2  3  1  0
  2  4  1  0
  4  5  1  0
  5  6  1  0
  6  7  2  0
  7  8  2  0
  8  9  1  0
 10  9  1  6
 10 11  1  0
 10 12  1  0
 12 13  1  0
 13 14  1  0
 14 15  1  0
 15 16  2  0
 16 17  1  0
 17 18  2  0
 18 19  1  0
 19 20  2  0
 20 21  1  0
 21 22  1  0
 21 23  1  0
 14 24  1  0
  5 25  1  0
 25 26  1  0
 26 27  2  0
 27 28  1  0
 28 29  2  0
 28 30  1  0
 30 31  1  0
 31 32  2  0
 24 10  1  0
 31 25  1  0
 20 15  1  0
  1 33  1  0
  1 34  1  0
  1 35  1  0
  2 36  1  0
  3 37  1  0
  3 38  1  0
  3 39  1  0
  4 40  1  0
  4 41  1  0
  5 42  1  6
  6 43  1  0
  8 44  1  0
  9 45  1  0
  9 46  1  0
 11 47  1  0
 11 48  1  0
 11 49  1  0
 12 50  1  0
 12 51  1  0
 13 52  1  0
 13 53  1  0
 16 54  1  0
 17 55  1  0
 18 56  1  0
 19 57  1  0
 22 58  1  0
 22 59  1  0
 22 60  1  0
 23 61  1  0
 24 62  1  0
 24 63  1  0
 26 64  1  0
 27 65  1  0
 30 66  1  0
 30 67  1  0
M  END

>  <ID>
DiffSBDD_64_num_sample_100

>  <docking_score>
-10.628

$$$$
DiffSBDD_65_num_sample_100
     RDKit          3D

 35 36  0  0  0  0  0  0  0  0999 V2000
   39.2980   25.1180   55.7720 C   0  0  0  0  0  0  0  0  0  0  0  0
   38.0020   25.8030   55.5200 C   0  0  0  0  0  0  0  0  0  0  0  0
   36.8890   25.4480   56.3970 C   0  0  0  0  0  0  0  0  0  0  0  0
   38.2050   27.2970   55.7190 C   0  0  2  0  0  0  0  0  0  0  0  0
   37.9120   28.2620   56.5860 N   0  0  0  0  0  0  0  0  0  0  0  0
   37.9840   29.4380   55.8180 O   0  0  0  0  0  0  0  0  0  0  0  0
   38.6400   29.2810   54.6660 C   0  0  1  0  0  0  0  0  0  0  0  0
   39.0010   30.3970   53.8790 C   0  0  0  0  0  0  0  0  0  0  0  0
   39.8700   30.8060   52.8050 C   0  0  0  0  0  0  0  0  0  0  0  0
   40.1070   30.1270   51.7070 C   0  0  0  0  0  0  0  0  0  0  0  0
   41.0510   30.4910   50.7440 F   0  0  0  0  0  0  0  0  0  0  0  0
   39.5190   29.0060   51.3270 C   0  0  1  0  0  0  0  0  0  0  0  0
   39.6270   28.7640   49.9580 F   0  0  0  0  0  0  0  0  0  0  0  0
   38.9360   27.8910   52.0360 C   0  0  2  0  0  0  0  0  0  0  0  0
   38.4950   26.9910   51.1600 F   0  0  0  0  0  0  0  0  0  0  0  0
   38.3800   27.4660   53.1930 C   0  0  2  0  0  0  0  0  0  0  0  0
   36.8980   27.7120   53.1960 O   0  0  0  0  0  0  0  0  0  0  0  0
   38.6510   27.9750   54.5510 N   0  0  0  0  0  0  0  0  0  0  0  0
   39.4621   25.0312   56.8562 H   0  0  0  0  0  0  0  0  0  0  0  0
   39.2755   24.1140   55.3231 H   0  0  0  0  0  0  0  0  0  0  0  0
   40.1149   25.7021   55.3231 H   0  0  0  0  0  0  0  0  0  0  0  0
   37.7276   25.4880   54.5024 H   0  0  0  0  0  0  0  0  0  0  0  0
   37.2028   25.5481   57.4465 H   0  0  0  0  0  0  0  0  0  0  0  0
   36.0401   26.1200   56.2024 H   0  0  0  0  0  0  0  0  0  0  0  0
   36.5860   24.4086   56.2024 H   0  0  0  0  0  0  0  0  0  0  0  0
   38.3232   26.6507   56.6012 H   0  0  0  0  0  0  0  0  0  0  0  0
   38.5960   28.2840   57.3550 H   0  0  0  0  0  0  0  0  0  0  0  0
   37.6820   29.2127   54.1298 H   0  0  0  0  0  0  0  0  0  0  0  0
   38.0212   30.6827   53.4686 H   0  0  0  0  0  0  0  0  0  0  0  0
   39.7305   30.7281   54.6329 H   0  0  0  0  0  0  0  0  0  0  0  0
   40.3806   31.7741   52.9151 H   0  0  0  0  0  0  0  0  0  0  0  0
   39.0067   29.4266   52.2049 H   0  0  0  0  0  0  0  0  0  0  0  0
   39.6836   28.3729   52.6833 H   0  0  0  0  0  0  0  0  0  0  0  0
   38.8514   26.4754   53.1126 H   0  0  0  0  0  0  0  0  0  0  0  0
   36.7240   28.6840   53.2710 H   0  0  0  0  0  0  0  0  0  0  0  0
  1  2  1  0
  2  3  1  0
  2  4  1  0
  4  5  1  0
  5  6  1  0
  6  7  1  0
  7  8  1  0
  8  9  1  0
  9 10  2  0
 10 11  1  0
 10 12  1  0
 12 13  1  0
 12 14  1  0
 14 15  1  0
 14 16  1  0
 16 17  1  0
 16 18  1  0
 18  4  1  0
 18  7  1  0
  1 19  1  0
  1 20  1  0
  1 21  1  0
  2 22  1  0
  3 23  1  0
  3 24  1  0
  3 25  1  0
  4 26  1  1
  5 27  1  0
  7 28  1  1
  8 29  1  0
  8 30  1  0
  9 31  1  0
 12 32  1  6
 14 33  1  1
 16 34  1  1
 17 35  1  0
M  END

>  <ID>
DiffSBDD_65_num_sample_100

>  <docking_score>
-8.895

$$$$
DiffSBDD_66_num_sample_100
     RDKit          3D

110114  0  0  0  0  0  0  0  0999 V2000
   39.0740   30.1270   56.5780 C   0  0  0  0  0  0  0  0  0  0  0  0
   39.2290   30.9620   55.7860 C   0  0  0  0  0  0  0  0  0  0  0  0
   39.5710   30.8730   55.3850 C   0  0  0  0  0  0  0  0  0  0  0  0
   39.4260   29.7710   54.4890 C   0  0  0  0  0  0  0  0  0  0  0  0
   39.2380   29.6840   52.9300 C   0  0  1  0  0  0  0  0  0  0  0  0
   40.1860   30.4310   51.7570 C   0  0  0  0  0  0  0  0  0  0  0  0
   39.1150   28.5290   52.7270 O   0  0  0  0  0  0  0  0  0  0  0  0
   38.4160   32.4180   56.6150 C   0  0  2  0  0  0  0  0  0  0  0  0
   37.9510   33.4600   55.7520 O   0  0  0  0  0  0  0  0  0  0  0  0
   38.4260   33.2690   57.8010 C   0  0  0  0  0  0  0  0  0  0  0  0
   37.1410   33.5920   58.3890 C   0  0  0  0  0  0  0  0  0  0  0  0
   37.0780   34.2300   59.5400 C   0  0  0  0  0  0  0  0  0  0  0  0
   37.4750   33.4710   60.8550 C   0  0  2  0  0  0  0  0  0  0  0  0
   36.2320   32.8950   61.5090 C   0  0  0  0  0  0  0  0  0  0  0  0
   38.3840   34.7350   61.5430 C   0  0  0  0  0  0  0  0  0  0  0  0
   38.8420   35.9890   60.8360 C   0  0  0  0  0  0  0  0  0  0  0  0
   38.8950   37.0840   61.9430 C   0  0  0  0  0  0  0  0  0  0  0  0
   39.8170   38.2120   61.3470 C   0  0  0  0  0  0  0  0  0  0  0  0
   37.5970   37.7550   62.2080 C   0  0  0  0  0  0  0  0  0  0  0  0
   39.4980   36.8780   63.4600 C   0  0  0  0  0  0  0  0  0  0  0  0
   39.5510   35.6910   64.2450 S   0  0  0  0  0  0  0  0  0  0  0  0
   41.0760   34.6610   64.1440 C   0  0  1  0  0  0  0  0  0  0  0  0
   41.8850   34.7850   65.4720 C   0  0  0  0  0  0  0  0  0  0  0  0
   42.7120   33.5050   65.5470 C   0  0  1  0  0  0  0  0  0  0  0  0
   42.9490   32.8310   66.8790 C   0  0  0  0  0  0  0  0  0  0  0  0
   44.2590   32.3860   67.2670 C   0  0  0  0  0  0  0  0  0  0  0  0
   44.4510   31.7640   68.4840 C   0  0  0  0  0  0  0  0  0  0  0  0
   43.3220   31.3700   69.2180 C   0  0  0  0  0  0  0  0  0  0  0  0
   42.0760   31.8830   68.8710 C   0  0  0  0  0  0  0  0  0  0  0  0
   41.8760   32.6060   67.6480 C   0  0  0  0  0  0  0  0  0  0  0  0
   42.7700   32.3000   64.4520 C   0  0  0  0  0  0  0  0  0  0  0  0
   43.3590   30.8540   63.9470 C   0  0  0  0  0  0  0  0  0  0  0  0
   42.6500   29.8210   64.3950 C   0  0  0  0  0  0  0  0  0  0  0  0
   42.6420   29.4390   65.7330 C   0  0  0  0  0  0  0  0  0  0  0  0
   43.0720   28.2190   66.0470 C   0  0  0  0  0  0  0  0  0  0  0  0
   42.5810   27.0450   65.7160 N   0  0  0  0  0  0  0  0  0  0  0  0
   42.8360   25.7990   66.4530 C   0  0  0  0  0  0  0  0  0  0  0  0
   43.7320   25.4280   67.5110 C   0  0  0  0  0  0  0  0  0  0  0  0
   42.1230   24.8560   65.9420 C   0  0  0  0  0  0  0  0  0  0  0  0
   41.3780   25.3070   64.9180 N   0  0  0  0  0  0  0  0  0  0  0  0
   41.6320   26.7510   64.8650 C   0  0  0  0  0  0  0  0  0  0  0  0
   41.4030   27.7320   63.8000 C   0  0  0  0  0  0  0  0  0  0  0  0
   41.8690   28.9570   63.5740 C   0  0  0  0  0  0  0  0  0  0  0  0
   41.8680   32.5100   63.3080 C   0  0  2  0  0  0  0  0  0  0  0  0
   42.4510   33.0810   62.0300 C   0  0  0  0  0  0  0  0  0  0  0  0
   40.7790   33.1990   63.8820 C   0  0  2  0  0  0  0  0  0  0  0  0
   39.8230   33.0090   63.0120 C   0  0  0  0  0  0  0  0  0  0  0  0
   39.4590   32.1930   62.1440 N   0  0  0  0  0  0  0  0  0  0  0  0
   38.4490   32.1970   60.9460 C   0  0  0  0  0  0  0  0  0  0  0  0
   38.3760   30.2842   57.4135 H   0  0  0  0  0  0  0  0  0  0  0  0
   39.6252   29.1789   56.4927 H   0  0  0  0  0  0  0  0  0  0  0  0
   39.5546   31.7791   54.7615 H   0  0  0  0  0  0  0  0  0  0  0  0
   40.4914   30.6073   55.9256 H   0  0  0  0  0  0  0  0  0  0  0  0
   40.3316   29.1735   54.6706 H   0  0  0  0  0  0  0  0  0  0  0  0
   38.3806   29.5459   54.7468 H   0  0  0  0  0  0  0  0  0  0  0  0
   38.4027   30.3776   52.7536 H   0  0  0  0  0  0  0  0  0  0  0  0
   40.9603   31.0411   52.2452 H   0  0  0  0  0  0  0  0  0  0  0  0
   40.6645   29.6646   51.1296 H   0  0  0  0  0  0  0  0  0  0  0  0
   39.5528   31.0755   51.1296 H   0  0  0  0  0  0  0  0  0  0  0  0
   39.8520   28.2150   52.1450 H   0  0  0  0  0  0  0  0  0  0  0  0
   38.1959   31.4335   57.0536 H   0  0  0  0  0  0  0  0  0  0  0  0
   37.6570   34.2330   56.2970 H   0  0  0  0  0  0  0  0  0  0  0  0
   39.3658   33.6479   58.2290 H   0  0  0  0  0  0  0  0  0  0  0  0
   36.2142   33.3031   57.8718 H   0  0  0  0  0  0  0  0  0  0  0  0
   37.7407   35.1043   59.4603 H   0  0  0  0  0  0  0  0  0  0  0  0
   36.0050   34.4355   59.6685 H   0  0  0  0  0  0  0  0  0  0  0  0
   36.3372   32.9437   62.6029 H   0  0  0  0  0  0  0  0  0  0  0  0
   35.3515   33.4769   61.1990 H   0  0  0  0  0  0  0  0  0  0  0  0
   36.1067   31.8470   61.1990 H   0  0  0  0  0  0  0  0  0  0  0  0
   37.7865   35.0877   62.3966 H   0  0  0  0  0  0  0  0  0  0  0  0
   39.3512   34.2250   61.6632 H   0  0  0  0  0  0  0  0  0  0  0  0
   39.8375   35.8402   60.3922 H   0  0  0  0  0  0  0  0  0  0  0  0
   38.1671   36.2676   60.0132 H   0  0  0  0  0  0  0  0  0  0  0  0
   40.2803   38.7788   62.1680 H   0  0  0  0  0  0  0  0  0  0  0  0
   40.6029   37.7543   60.7282 H   0  0  0  0  0  0  0  0  0  0  0  0
   39.2121   38.8911   60.7282 H   0  0  0  0  0  0  0  0  0  0  0  0
   37.4409   37.8357   63.2939 H   0  0  0  0  0  0  0  0  0  0  0  0
   37.6068   38.7610   61.7632 H   0  0  0  0  0  0  0  0  0  0  0  0
   36.7819   37.1653   61.7632 H   0  0  0  0  0  0  0  0  0  0  0  0
   40.5456   37.2051   63.3858 H   0  0  0  0  0  0  0  0  0  0  0  0
   38.7061   37.4003   64.0169 H   0  0  0  0  0  0  0  0  0  0  0  0
   41.6617   35.0401   63.2936 H   0  0  0  0  0  0  0  0  0  0  0  0
   42.5400   35.6683   65.4454 H   0  0  0  0  0  0  0  0  0  0  0  0
   41.2297   34.9072   66.3470 H   0  0  0  0  0  0  0  0  0  0  0  0
   43.4550   34.2415   65.2070 H   0  0  0  0  0  0  0  0  0  0  0  0
   45.1127   32.5418   66.5910 H   0  0  0  0  0  0  0  0  0  0  0  0
   45.4650   31.5815   68.8693 H   0  0  0  0  0  0  0  0  0  0  0  0
   43.4206   30.6650   70.0566 H   0  0  0  0  0  0  0  0  0  0  0  0
   41.2243   31.7307   69.5503 H   0  0  0  0  0  0  0  0  0  0  0  0
   40.8780   32.9624   67.3529 H   0  0  0  0  0  0  0  0  0  0  0  0
   43.5874   32.8162   63.9272 H   0  0  0  0  0  0  0  0  0  0  0  0
   43.3492   30.8358   62.8472 H   0  0  0  0  0  0  0  0  0  0  0  0
   44.3780   30.7541   64.3491 H   0  0  0  0  0  0  0  0  0  0  0  0
   42.2885   30.1292   66.5132 H   0  0  0  0  0  0  0  0  0  0  0  0
   44.1070   28.1934   65.6753 H   0  0  0  0  0  0  0  0  0  0  0  0
   42.7597   28.2185   67.1017 H   0  0  0  0  0  0  0  0  0  0  0  0
   43.2545   25.6257   68.4821 H   0  0  0  0  0  0  0  0  0  0  0  0
   43.9705   24.3572   67.4309 H   0  0  0  0  0  0  0  0  0  0  0  0
   44.6577   26.0168   67.4309 H   0  0  0  0  0  0  0  0  0  0  0  0
   42.1236   23.8151   66.2978 H   0  0  0  0  0  0  0  0  0  0  0  0
   40.7008   27.3829   63.0286 H   0  0  0  0  0  0  0  0  0  0  0  0
   41.6081   29.3723   62.5894 H   0  0  0  0  0  0  0  0  0  0  0  0
   41.5694   31.5528   62.8557 H   0  0  0  0  0  0  0  0  0  0  0  0
   43.2164   33.8307   62.2791 H   0  0  0  0  0  0  0  0  0  0  0  0
   42.9082   32.2716   61.4419 H   0  0  0  0  0  0  0  0  0  0  0  0
   41.6513   33.5549   61.4419 H   0  0  0  0  0  0  0  0  0  0  0  0
   40.5158   32.8299   64.8842 H   0  0  0  0  0  0  0  0  0  0  0  0
   39.1053   33.8411   63.0624 H   0  0  0  0  0  0  0  0  0  0  0  0
   39.0313   32.1504   60.0139 H   0  0  0  0  0  0  0  0  0  0  0  0
   37.7915   31.3301   61.1076 H   0  0  0  0  0  0  0  0  0  0  0  0
  1  2  2  0
  2  3  1  0
  3  4  1  0
  4  5  1  0
  5  6  1  0
  5  7  1  0
  2  8  1  0
  8  9  1  0
  8 10  1  0
 10 11  2  3
 11 12  1  0
 13 12  1  6
 13 14  1  0
 13 15  1  0
 15 16  1  0
 16 17  1  0
 17 18  1  0
 17 19  1  0
 17 20  1  0
 20 21  1  0
 21 22  1  0
 22 23  1  0
 23 24  1  0
 24 25  1  0
 25 26  2  0
 26 27  1  0
 27 28  2  0
 28 29  1  0
 29 30  2  0
 24 31  1  0
 31 32  1  0
 32 33  1  0
 33 34  2  0
 34 35  1  0
 35 36  1  0
 36 37  1  0
 37 38  1  0
 37 39  2  0
 39 40  1  0
 40 41  2  0
 41 42  1  0
 42 43  2  0
 31 44  1  0
 44 45  1  0
 44 46  1  0
 46 47  1  0
 47 48  2  0
 48 49  1  0
 49 13  1  0
 46 22  1  0
 30 25  1  0
 43 33  1  0
 41 36  1  0
  1 50  1  0
  1 51  1  0
  3 52  1  0
  3 53  1  0
  4 54  1  0
  4 55  1  0
  5 56  1  1
  6 57  1  0
  6 58  1  0
  6 59  1  0
  7 60  1  0
  8 61  1  1
  9 62  1  0
 10 63  1  0
 11 64  1  0
 12 65  1  0
 12 66  1  0
 14 67  1  0
 14 68  1  0
 14 69  1  0
 15 70  1  0
 15 71  1  0
 16 72  1  0
 16 73  1  0
 18 74  1  0
 18 75  1  0
 18 76  1  0
 19 77  1  0
 19 78  1  0
 19 79  1  0
 20 80  1  0
 20 81  1  0
 22 82  1  6
 23 83  1  0
 23 84  1  0
 24 85  1  6
 26 86  1  0
 27 87  1  0
 28 88  1  0
 29 89  1  0
 30 90  1  0
 31 91  1  0
 32 92  1  0
 32 93  1  0
 34 94  1  0
 35 95  1  0
 35 96  1  0
 38 97  1  0
 38 98  1  0
 38 99  1  0
 39100  1  0
 42101  1  0
 43102  1  0
 44103  1  6
 45104  1  0
 45105  1  0
 45106  1  0
 46107  1  1
 47108  1  0
 49109  1  0
 49110  1  0
M  END

>  <ID>
DiffSBDD_66_num_sample_100

>  <docking_score>
-10.226

$$$$
DiffSBDD_67_num_sample_100
     RDKit          3D

 38 40  0  0  0  0  0  0  0  0999 V2000
   38.5810   27.4260   50.8250 O   0  0  0  0  0  0  0  0  0  0  0  0
   38.6800   28.1670   52.1590 C   0  0  0  0  0  0  0  0  0  0  0  0
   39.0500   29.5250   52.8130 C   0  0  0  0  0  0  0  0  0  0  0  0
   38.9680   29.7410   54.2960 C   0  0  0  0  0  0  0  0  0  0  0  0
   38.4220   28.6430   55.0900 C   0  0  0  0  0  0  0  0  0  0  0  0
   38.1900   28.6120   56.4760 C   0  0  0  0  0  0  0  0  0  0  0  0
   38.4560   29.1890   58.0950 S   0  0  2  0  0  4  0  0  0  0  0  0
   39.2060   30.4300   57.9280 O   0  0  0  0  0  0  0  0  0  0  0  0
   39.1850   28.2960   59.3230 C   0  0  0  0  0  0  0  0  0  0  0  0
   39.1440   28.9500   60.6850 C   0  0  1  0  0  0  0  0  0  0  0  0
   40.4110   28.6310   61.5140 C   0  0  0  0  0  0  0  0  0  0  0  0
   41.0000   29.8770   61.4800 O   0  0  0  0  0  0  0  0  0  0  0  0
   38.6910   30.3540   60.8380 C   0  0  2  0  0  0  0  0  0  0  0  0
   38.3170   30.6170   62.2740 O   0  0  0  0  0  0  0  0  0  0  0  0
   37.4390   30.7170   59.9860 C   0  0  2  0  0  0  0  0  0  0  0  0
   36.3050   31.1220   60.8160 O   0  0  0  0  0  0  0  0  0  0  0  0
   36.9990   29.6850   58.9390 C   0  0  0  0  0  0  0  0  0  0  0  0
   37.6630   27.1550   56.6330 O   0  0  0  0  0  0  0  0  0  0  0  0
   37.6500   26.5360   55.3230 C   0  0  0  0  0  0  0  0  0  0  0  0
   38.0380   27.5100   54.3980 C   0  0  0  0  0  0  0  0  0  0  0  0
   38.0200   27.2740   53.1210 N   0  0  0  0  0  0  0  0  0  0  0  0
   39.3822   30.3538   52.1706 H   0  0  0  0  0  0  0  0  0  0  0  0
   39.3025   30.6796   54.7620 H   0  0  0  0  0  0  0  0  0  0  0  0
   40.1570   30.2730   58.1550 H   0  0  0  0  0  0  0  0  0  0  0  0
   38.6719   27.3255   59.3927 H   0  0  0  0  0  0  0  0  0  0  0  0
   40.2474   28.2035   59.0531 H   0  0  0  0  0  0  0  0  0  0  0  0
   38.2632   28.4485   61.1123 H   0  0  0  0  0  0  0  0  0  0  0  0
   40.1665   28.3165   62.5393 H   0  0  0  0  0  0  0  0  0  0  0  0
   41.0289   27.8014   61.1398 H   0  0  0  0  0  0  0  0  0  0  0  0
   40.9090   30.3080   62.3660 H   0  0  0  0  0  0  0  0  0  0  0  0
   39.5383   30.9656   60.4946 H   0  0  0  0  0  0  0  0  0  0  0  0
   37.9780   31.5430   62.3620 H   0  0  0  0  0  0  0  0  0  0  0  0
   37.7916   31.5756   59.3956 H   0  0  0  0  0  0  0  0  0  0  0  0
   35.4760   31.1000   60.2760 H   0  0  0  0  0  0  0  0  0  0  0  0
   36.5301   28.8198   59.4304 H   0  0  0  0  0  0  0  0  0  0  0  0
   36.2593   30.1099   58.2445 H   0  0  0  0  0  0  0  0  0  0  0  0
   37.3840   25.4927   55.0979 H   0  0  0  0  0  0  0  0  0  0  0  0
   37.5300   26.4380   52.7730 H   0  0  0  0  0  0  0  0  0  0  0  0
  1  2  2  0
  2  3  1  0
  3  4  2  0
  4  5  1  0
  5  6  2  0
  6  7  1  0
  7  8  1  6
  7  9  1  0
  9 10  1  0
 10 11  1  0
 11 12  1  0
 10 13  1  0
 13 14  1  0
 13 15  1  0
 15 16  1  0
 15 17  1  0
  6 18  1  0
 18 19  1  0
 19 20  2  0
 20 21  1  0
 21  2  1  0
 20  5  1  0
 17  7  1  0
  3 22  1  0
  4 23  1  0
  8 24  1  0
  9 25  1  0
  9 26  1  0
 10 27  1  1
 11 28  1  0
 11 29  1  0
 12 30  1  0
 13 31  1  6
 14 32  1  0
 15 33  1  6
 16 34  1  0
 17 35  1  0
 17 36  1  0
 19 37  1  0
 21 38  1  0
M  END

>  <ID>
DiffSBDD_67_num_sample_100

>  <docking_score>
-7.522

$$$$
DiffSBDD_68_num_sample_100
     RDKit          3D

 94 97  0  0  0  0  0  0  0  0999 V2000
   37.4350   29.9490   58.0440 C   0  0  0  0  0  0  0  0  0  0  0  0
   37.7920   29.4680   59.3610 C   0  0  2  0  0  0  0  0  0  0  0  0
   38.6310   30.8140   59.7770 C   0  0  0  0  0  0  0  0  0  0  0  0
   37.8070   31.6280   60.6430 N   0  0  0  0  0  0  0  0  0  0  0  0
   38.3140   31.2400   62.1190 C   0  0  0  0  0  0  0  0  0  0  0  0
   39.5510   31.1800   62.2450 C   0  0  0  0  0  0  0  0  0  0  0  0
   40.2770   32.4720   62.4170 C   0  0  0  0  0  0  0  0  0  0  0  0
   40.2930   33.6290   62.6470 C   0  0  1  0  0  0  0  0  0  0  0  0
   41.0340   34.0720   64.0400 C   0  0  0  0  0  0  0  0  0  0  0  0
   41.4680   35.4330   64.1050 C   0  0  0  0  0  0  0  0  0  0  0  0
   40.9790   36.4470   62.9980 C   0  0  0  0  0  0  0  0  0  0  0  0
   40.7620   36.1440   62.5970 C   0  0  0  0  0  0  0  0  0  0  0  0
   40.5850   35.6080   61.0980 C   0  0  0  0  0  0  0  0  0  0  0  0
   40.3180   34.2190   61.0690 C   0  0  0  0  0  0  0  0  0  0  0  0
   36.6210   32.4710   60.8320 C   0  0  0  0  0  0  0  0  0  0  0  0
   35.7890   32.2600   61.5470 O   0  0  0  0  0  0  0  0  0  0  0  0
   36.5540   33.6210   59.8050 C   0  0  0  0  0  0  0  0  0  0  0  0
   36.8040   35.0760   60.4190 C   0  0  0  0  0  0  0  0  0  0  0  0
   37.2740   36.0190   59.7150 C   0  0  0  0  0  0  0  0  0  0  0  0
   37.4530   37.2220   60.0740 C   0  0  0  0  0  0  0  0  0  0  0  0
   37.3450   37.5730   61.4740 C   0  0  0  0  0  0  0  0  0  0  0  0
   37.0180   36.8800   62.4580 C   0  0  0  0  0  0  0  0  0  0  0  0
   36.1950   36.8520   63.3480 O   0  0  0  0  0  0  0  0  0  0  0  0
   36.7770   35.3710   61.6920 C   0  0  0  0  0  0  0  0  0  0  0  0
   38.5140   28.2820   59.7570 O   0  0  0  0  0  0  0  0  0  0  0  0
   39.8770   28.4650   60.0160 C   0  0  0  0  0  0  0  0  0  0  0  0
   40.8660   28.2650   59.4420 C   0  0  0  0  0  0  0  0  0  0  0  0
   40.9800   27.9180   57.9110 C   0  0  2  0  0  0  0  0  0  0  0  0
   42.3150   27.8770   57.5300 C   0  0  0  0  0  0  0  0  0  0  0  0
   39.9510   28.0620   56.5190 C   0  0  0  0  0  0  0  0  0  0  0  0
   39.3420   26.8840   56.4170 C   0  0  0  0  0  0  0  0  0  0  0  0
   39.7320   25.6680   57.4130 O   0  0  0  0  0  0  0  0  0  0  0  0
   38.6770   24.5930   57.1300 C   0  0  0  0  0  0  0  0  0  0  0  0
   37.9820   24.9200   55.9920 C   0  0  2  0  0  0  0  0  0  0  0  0
   36.9550   24.0080   55.5420 C   0  0  0  0  0  0  0  0  0  0  0  0
   38.3580   26.2530   55.5300 C   0  0  2  0  0  0  0  0  0  0  0  0
   38.1490   27.1140   54.0970 C   0  0  1  0  0  0  0  0  0  0  0  0
   36.8990   26.3330   53.8880 O   0  0  0  0  0  0  0  0  0  0  0  0
   39.1210   28.3640   54.1600 C   0  0  1  0  0  0  0  0  0  0  0  0
   38.8760   29.4020   53.1800 S   0  0  0  0  0  0  0  0  0  0  0  0
   39.3960   28.7990   51.9370 C   0  0  0  0  0  0  0  0  0  0  0  0
   39.7590   29.1600   50.9040 N   0  0  0  0  0  0  0  0  0  0  0  0
   39.7820   28.9900   55.3530 C   0  0  0  0  0  0  0  0  0  0  0  0
   40.1960   30.1090   55.2560 O   0  0  0  0  0  0  0  0  0  0  0  0
   36.7819   30.8290   58.1396 H   0  0  0  0  0  0  0  0  0  0  0  0
   38.3470   30.2272   57.4955 H   0  0  0  0  0  0  0  0  0  0  0  0
   36.9046   29.1566   57.4955 H   0  0  0  0  0  0  0  0  0  0  0  0
   36.8747   29.0700   59.8194 H   0  0  0  0  0  0  0  0  0  0  0  0
   39.5519   30.5269   60.3057 H   0  0  0  0  0  0  0  0  0  0  0  0
   38.8982   31.3818   58.8736 H   0  0  0  0  0  0  0  0  0  0  0  0
   37.9343   31.9964   62.8216 H   0  0  0  0  0  0  0  0  0  0  0  0
   37.9315   30.2291   62.3232 H   0  0  0  0  0  0  0  0  0  0  0  0
   39.7651   30.5589   63.1272 H   0  0  0  0  0  0  0  0  0  0  0  0
   39.9162   30.7715   61.2912 H   0  0  0  0  0  0  0  0  0  0  0  0
   40.9909   32.1490   63.1890 H   0  0  0  0  0  0  0  0  0  0  0  0
   40.0412   32.7118   61.3697 H   0  0  0  0  0  0  0  0  0  0  0  0
   39.5184   34.2444   63.1279 H   0  0  0  0  0  0  0  0  0  0  0  0
   41.1876   33.3680   64.8712 H   0  0  0  0  0  0  0  0  0  0  0  0
   42.1329   35.7686   64.9145 H   0  0  0  0  0  0  0  0  0  0  0  0
   40.2215   37.1280   63.4133 H   0  0  0  0  0  0  0  0  0  0  0  0
   41.8099   37.0650   62.6270 H   0  0  0  0  0  0  0  0  0  0  0  0
   40.9287   35.1640   63.0680 H   0  0  0  0  0  0  0  0  0  0  0  0
   40.1843   37.0317   62.3000 H   0  0  0  0  0  0  0  0  0  0  0  0
   39.7481   36.1422   60.6245 H   0  0  0  0  0  0  0  0  0  0  0  0
   41.5244   35.7889   60.5551 H   0  0  0  0  0  0  0  0  0  0  0  0
   39.3419   34.0414   60.5939 H   0  0  0  0  0  0  0  0  0  0  0  0
   41.1005   33.7033   60.4930 H   0  0  0  0  0  0  0  0  0  0  0  0
   37.3172   33.4379   59.0343 H   0  0  0  0  0  0  0  0  0  0  0  0
   35.5293   33.6229   59.4050 H   0  0  0  0  0  0  0  0  0  0  0  0
   37.5569   35.7672   58.6823 H   0  0  0  0  0  0  0  0  0  0  0  0
   37.6888   37.9936   59.3264 H   0  0  0  0  0  0  0  0  0  0  0  0
   37.5909   38.6194   61.7077 H   0  0  0  0  0  0  0  0  0  0  0  0
   36.2080   36.1160   64.0110 H   0  0  0  0  0  0  0  0  0  0  0  0
   36.5695   34.5276   62.3670 H   0  0  0  0  0  0  0  0  0  0  0  0
   39.9376   29.5424   60.2293 H   0  0  0  0  0  0  0  0  0  0  0  0
   39.9651   27.5743   60.6555 H   0  0  0  0  0  0  0  0  0  0  0  0
   41.4712   29.1731   59.5802 H   0  0  0  0  0  0  0  0  0  0  0  0
   41.1514   27.2975   59.8808 H   0  0  0  0  0  0  0  0  0  0  0  0
   40.1972   27.1947   58.1830 H   0  0  0  0  0  0  0  0  0  0  0  0
   42.9518   27.8574   58.4267 H   0  0  0  0  0  0  0  0  0  0  0  0
   42.4977   26.9728   56.9308 H   0  0  0  0  0  0  0  0  0  0  0  0
   42.5528   28.7683   56.9308 H   0  0  0  0  0  0  0  0  0  0  0  0
   39.1727   23.6211   56.9900 H   0  0  0  0  0  0  0  0  0  0  0  0
   37.9805   24.5313   57.9792 H   0  0  0  0  0  0  0  0  0  0  0  0
   37.2389   25.4568   56.6000 H   0  0  0  0  0  0  0  0  0  0  0  0
   36.4530   23.5622   56.4134 H   0  0  0  0  0  0  0  0  0  0  0  0
   36.2188   24.5554   54.9351 H   0  0  0  0  0  0  0  0  0  0  0  0
   37.4116   23.2123   54.9351 H   0  0  0  0  0  0  0  0  0  0  0  0
   37.2939   26.1496   55.2709 H   0  0  0  0  0  0  0  0  0  0  0  0
   38.2903   27.4551   53.0608 H   0  0  0  0  0  0  0  0  0  0  0  0
   37.1190   25.3720   53.8110 H   0  0  0  0  0  0  0  0  0  0  0  0
   39.8855   27.5929   53.9843 H   0  0  0  0  0  0  0  0  0  0  0  0
   39.4528   27.7035   52.0189 H   0  0  0  0  0  0  0  0  0  0  0  0
   40.0800   28.4770   50.2020 H   0  0  0  0  0  0  0  0  0  0  0  0
  1  2  1  0
  2  3  1  0
  3  4  1  0
  4  5  1  0
  5  6  1  0
  6  7  1  0
  7  8  1  0
  8  9  1  0
  9 10  2  0
 10 11  1  0
 11 12  1  0
 12 13  1  0
 13 14  1  0
  4 15  1  0
 15 16  2  0
 15 17  1  0
 17 18  1  0
 18 19  2  0
 19 20  1  0
 20 21  2  0
 21 22  1  0
 22 23  1  0
 22 24  2  0
  2 25  1  0
 25 26  1  0
 26 27  1  0
 27 28  1  0
 28 29  1  0
 28 30  1  0
 30 31  2  0
 31 32  1  0
 32 33  1  0
 33 34  1  0
 34 35  1  0
 34 36  1  0
 36 37  1  0
 37 38  1  0
 37 39  1  0
 39 40  1  0
 40 41  1  0
 41 42  2  3
 39 43  1  0
 43 44  2  0
 14  8  1  0
 24 18  1  0
 43 30  1  0
 36 31  1  0
  1 45  1  0
  1 46  1  0
  1 47  1  0
  2 48  1  1
  3 49  1  0
  3 50  1  0
  5 51  1  0
  5 52  1  0
  6 53  1  0
  6 54  1  0
  7 55  1  0
  7 56  1  0
  8 57  1  1
  9 58  1  0
 10 59  1  0
 11 60  1  0
 11 61  1  0
 12 62  1  0
 12 63  1  0
 13 64  1  0
 13 65  1  0
 14 66  1  0
 14 67  1  0
 17 68  1  0
 17 69  1  0
 19 70  1  0
 20 71  1  0
 21 72  1  0
 23 73  1  0
 24 74  1  0
 26 75  1  0
 26 76  1  0
 27 77  1  0
 27 78  1  0
 28 79  1  1
 29 80  1  0
 29 81  1  0
 29 82  1  0
 33 83  1  0
 33 84  1  0
 34 85  1  6
 35 86  1  0
 35 87  1  0
 35 88  1  0
 36 89  1  1
 37 90  1  6
 38 91  1  0
 39 92  1  6
 41 93  1  0
 42 94  1  0
M  END

>  <ID>
DiffSBDD_68_num_sample_100

>  <docking_score>
-10.443

$$$$
DiffSBDD_69_num_sample_100
     RDKit          3D

 67 72  0  0  0  0  0  0  0  0999 V2000
   36.8320   23.8010   55.4590 N   0  0  0  0  0  0  0  0  0  0  0  0
   37.5750   24.5180   56.2370 C   0  0  0  0  0  0  0  0  0  0  0  0
   38.0950   24.0920   57.3450 O   0  0  0  0  0  0  0  0  0  0  0  0
   37.9780   25.8070   55.7300 C   0  0  0  0  0  0  0  0  0  0  0  0
   39.4670   25.6550   55.6630 C   0  0  0  0  0  0  0  0  0  0  0  0
   40.1810   26.7260   56.5340 C   0  0  0  0  0  0  0  0  0  0  0  0
   40.2230   27.9170   55.7600 C   0  0  0  0  0  0  0  0  0  0  0  0
   39.6160   29.1090   55.8490 C   0  0  0  0  0  0  0  0  0  0  0  0
   38.6470   29.2140   56.8620 O   0  0  0  0  0  0  0  0  0  0  0  0
   38.2110   30.5360   57.1980 C   0  0  1  0  0  0  0  0  0  0  0  0
   38.0310   30.5940   58.6670 C   0  0  0  0  0  0  0  0  0  0  0  0
   39.1000   30.6010   59.5860 C   0  0  0  0  0  0  0  0  0  0  0  0
   38.7490   30.8570   60.9620 C   0  0  0  0  0  0  0  0  0  0  0  0
   37.4910   31.1480   61.3560 C   0  0  0  0  0  0  0  0  0  0  0  0
   36.4160   31.1930   60.3710 C   0  0  0  0  0  0  0  0  0  0  0  0
   35.2810   31.9460   60.6770 C   0  0  0  0  0  0  0  0  0  0  0  0
   35.0330   33.2050   60.4460 N   0  0  0  0  0  0  0  0  0  0  0  0
   36.0340   34.1660   60.3820 C   0  0  0  0  0  0  0  0  0  0  0  0
   36.7810   34.8180   61.5110 C   0  0  0  0  0  0  0  0  0  0  0  0
   37.7470   35.7180   60.8370 C   0  0  0  0  0  0  0  0  0  0  0  0
   38.7820   36.6910   61.4110 C   0  0  1  0  0  0  0  0  0  0  0  0
   39.2790   37.2090   62.7420 C   0  0  2  0  0  0  0  0  0  0  0  0
   40.6470   36.7320   62.6140 O   0  0  0  0  0  0  0  0  0  0  0  0
   40.1490   36.0910   61.4700 C   0  0  2  0  0  0  0  0  0  0  0  0
   37.4500   35.6270   59.5580 C   0  0  0  0  0  0  0  0  0  0  0  0
   36.3530   34.7320   59.1790 O   0  0  0  0  0  0  0  0  0  0  0  0
   36.6460   30.6470   59.0390 C   0  0  0  0  0  0  0  0  0  0  0  0
   38.9010   31.6460   56.7040 C   0  0  0  0  0  0  0  0  0  0  0  0
   39.4750   31.5050   55.4280 C   0  0  0  0  0  0  0  0  0  0  0  0
   39.5090   30.1920   54.9180 C   0  0  1  0  0  0  0  0  0  0  0  0
   39.3390   29.8050   53.5560 C   0  0  0  0  0  0  0  0  0  0  0  0
   39.9100   30.5740   52.5330 C   0  0  0  0  0  0  0  0  0  0  0  0
   40.0280   30.0820   51.2330 C   0  0  0  0  0  0  0  0  0  0  0  0
   39.5300   28.8240   50.9400 C   0  0  0  0  0  0  0  0  0  0  0  0
   38.8590   28.0350   51.9610 C   0  0  0  0  0  0  0  0  0  0  0  0
   38.3320   26.8790   51.5510 O   0  0  0  0  0  0  0  0  0  0  0  0
   38.8130   28.6140   53.2660 C   0  0  0  0  0  0  0  0  0  0  0  0
   36.5120   22.8710   55.7660 H   0  0  0  0  0  0  0  0  0  0  0  0
   36.5600   24.1600   54.5330 H   0  0  0  0  0  0  0  0  0  0  0  0
   37.5493   25.9985   54.7352 H   0  0  0  0  0  0  0  0  0  0  0  0
   37.6429   26.6540   56.3466 H   0  0  0  0  0  0  0  0  0  0  0  0
   39.7423   24.6543   56.0275 H   0  0  0  0  0  0  0  0  0  0  0  0
   39.7840   25.7879   54.6181 H   0  0  0  0  0  0  0  0  0  0  0  0
   39.6174   26.8969   57.4631 H   0  0  0  0  0  0  0  0  0  0  0  0
   41.1933   26.3990   56.8139 H   0  0  0  0  0  0  0  0  0  0  0  0
   40.9031   27.8451   54.8984 H   0  0  0  0  0  0  0  0  0  0  0  0
   37.2723   30.6603   56.6382 H   0  0  0  0  0  0  0  0  0  0  0  0
   40.1392   30.4221   59.2729 H   0  0  0  0  0  0  0  0  0  0  0  0
   39.5415   30.8131   61.7236 H   0  0  0  0  0  0  0  0  0  0  0  0
   37.2774   31.3504   62.4159 H   0  0  0  0  0  0  0  0  0  0  0  0
   34.4592   31.4121   60.1774 H   0  0  0  0  0  0  0  0  0  0  0  0
   35.4397   32.0215   61.7629 H   0  0  0  0  0  0  0  0  0  0  0  0
   34.0550   33.4980   60.3060 H   0  0  0  0  0  0  0  0  0  0  0  0
   36.6426   34.6629   62.5912 H   0  0  0  0  0  0  0  0  0  0  0  0
   38.1866   37.4185   60.8398 H   0  0  0  0  0  0  0  0  0  0  0  0
   39.5654   38.1582   62.2656 H   0  0  0  0  0  0  0  0  0  0  0  0
   40.6391   35.3942   60.7740 H   0  0  0  0  0  0  0  0  0  0  0  0
   38.0046   36.2015   58.8014 H   0  0  0  0  0  0  0  0  0  0  0  0
   35.8333   30.3072   58.3802 H   0  0  0  0  0  0  0  0  0  0  0  0
   38.9903   32.5782   57.2810 H   0  0  0  0  0  0  0  0  0  0  0  0
   39.8713   32.3631   54.8652 H   0  0  0  0  0  0  0  0  0  0  0  0
   38.4246   30.1013   55.0791 H   0  0  0  0  0  0  0  0  0  0  0  0
   40.2729   31.5873   52.7600 H   0  0  0  0  0  0  0  0  0  0  0  0
   40.5107   30.6860   50.4506 H   0  0  0  0  0  0  0  0  0  0  0  0
   39.6430   28.4169   49.9244 H   0  0  0  0  0  0  0  0  0  0  0  0
   38.8390   26.2950   50.9330 H   0  0  0  0  0  0  0  0  0  0  0  0
   38.3196   28.0500   54.0713 H   0  0  0  0  0  0  0  0  0  0  0  0
  1  2  1  0
  2  3  2  0
  2  4  1  0
  4  5  1  0
  5  6  1  0
  6  7  1  0
  7  8  2  3
  8  9  1  0
  9 10  1  0
 10 11  1  0
 11 12  2  0
 12 13  1  0
 13 14  2  0
 14 15  1  0
 15 16  1  0
 16 17  1  0
 17 18  1  0
 18 19  2  0
 19 20  1  0
 20 21  1  0
 21 22  1  0
 22 23  1  0
 23 24  1  0
 20 25  2  0
 25 26  1  0
 15 27  2  0
 10 28  1  0
 28 29  2  0
 29 30  1  0
 30 31  1  0
 31 32  2  0
 32 33  1  0
 33 34  2  0
 34 35  1  0
 35 36  1  0
 35 37  2  0
 30  8  1  0
 37 31  1  0
 27 11  1  0
 26 18  1  0
 24 21  1  0
 24 22  1  0
  1 38  1  0
  1 39  1  0
  4 40  1  0
  4 41  1  0
  5 42  1  0
  5 43  1  0
  6 44  1  0
  6 45  1  0
  7 46  1  0
 10 47  1  6
 12 48  1  0
 13 49  1  0
 14 50  1  0
 16 51  1  0
 16 52  1  0
 17 53  1  0
 19 54  1  0
 21 55  1  6
 22 56  1  1
 24 57  1  1
 25 58  1  0
 27 59  1  0
 28 60  1  0
 29 61  1  0
 30 62  1  6
 32 63  1  0
 33 64  1  0
 34 65  1  0
 36 66  1  0
 37 67  1  0
M  END

>  <ID>
DiffSBDD_69_num_sample_100

>  <docking_score>
-11.269

$$$$
DiffSBDD_6_num_sample_100
     RDKit          3D

 68 71  0  0  0  0  0  0  0  0999 V2000
   40.2880   25.6640   54.5210 C   0  0  0  0  0  0  0  0  0  0  0  0
   40.2880   26.6200   55.5190 O   0  0  0  0  0  0  0  0  0  0  0  0
   39.1520   26.8480   56.4700 C   0  0  2  0  0  0  0  0  0  0  0  0
   37.8740   27.0860   55.7930 C   0  0  0  0  0  0  0  0  0  0  0  0
   37.8570   28.3700   55.0580 N   0  0  0  0  0  0  0  0  0  0  0  0
   37.7880   28.1880   53.7460 C   0  0  0  0  0  0  0  0  0  0  0  0
   36.8700   27.5570   53.3850 O   0  0  0  0  0  0  0  0  0  0  0  0
   38.8100   28.6650   52.7580 C   0  0  0  0  0  0  0  0  0  0  0  0
   39.0900   27.8320   51.6220 C   0  0  0  0  0  0  0  0  0  0  0  0
   39.7860   28.4580   50.6520 C   0  0  0  0  0  0  0  0  0  0  0  0
   40.2740   29.7100   50.5430 C   0  0  0  0  0  0  0  0  0  0  0  0
   40.0970   30.4630   51.7400 C   0  0  0  0  0  0  0  0  0  0  0  0
   39.4190   29.9290   52.7990 C   0  0  0  0  0  0  0  0  0  0  0  0
   38.0080   29.7960   55.8760 S   0  0  0  0  0  0  0  0  0  0  0  0
   38.3750   28.8750   57.2520 C   0  0  2  0  0  0  0  0  0  0  0  0
   38.5300   30.2250   58.7170 S   0  0  0  0  0  4  0  0  0  0  0  0
   37.1050   30.2310   59.3620 O   0  0  0  0  0  0  0  0  0  0  0  0
   39.4120   30.5300   60.2370 C   0  0  0  0  0  0  0  0  0  0  0  0
   39.0470   30.4360   61.6870 C   0  0  0  0  0  0  0  0  0  0  0  0
   39.0270   31.8770   62.1180 N   0  0  0  0  0  0  0  0  0  0  0  0
   40.2350   32.6220   61.8620 C   0  0  1  0  0  0  0  0  0  0  0  0
   39.9850   33.9200   61.0720 C   0  0  0  0  0  0  0  0  0  0  0  0
   40.7110   35.1970   61.1110 C   0  0  0  0  0  0  0  0  0  0  0  0
   40.6730   36.4720   62.0770 C   0  0  0  0  0  0  0  0  0  0  0  0
   41.3290   36.2190   63.3190 N   0  0  0  0  0  0  0  0  0  0  0  0
   41.2220   34.7920   63.9670 C   0  0  0  0  0  0  0  0  0  0  0  0
   40.7580   33.4380   63.2270 C   0  0  0  0  0  0  0  0  0  0  0  0
   40.8930   32.3500   64.3450 C   0  0  0  0  0  0  0  0  0  0  0  0
   41.9030   32.9540   65.6770 S   0  0  0  0  0  0  0  0  0  0  0  0
   43.3230   32.7290   65.4940 O   0  0  0  0  0  0  0  0  0  0  0  0
   40.8740   32.5540   66.6910 O   0  0  0  0  0  0  0  0  0  0  0  0
   41.7380   34.8370   65.4620 S   0  0  0  0  0  0  0  0  0  0  0  0
   39.2650   27.8700   57.9490 C   0  0  1  0  0  0  0  0  0  0  0  0
   38.8210   27.7020   59.3600 O   0  0  0  0  0  0  0  0  0  0  0  0
   40.7770   27.7960   57.9060 C   0  0  0  0  0  0  0  0  0  0  0  0
   41.3710   27.9330   59.0830 O   0  0  0  0  0  0  0  0  0  0  0  0
   41.3251   25.4104   54.2562 H   0  0  0  0  0  0  0  0  0  0  0  0
   39.7695   24.7618   54.8775 H   0  0  0  0  0  0  0  0  0  0  0  0
   39.7695   26.0589   53.6349 H   0  0  0  0  0  0  0  0  0  0  0  0
   39.2400   25.8582   56.9417 H   0  0  0  0  0  0  0  0  0  0  0  0
   37.6940   26.2681   55.0799 H   0  0  0  0  0  0  0  0  0  0  0  0
   37.0891   27.1290   56.5625 H   0  0  0  0  0  0  0  0  0  0  0  0
   38.7672   26.7829   51.5503 H   0  0  0  0  0  0  0  0  0  0  0  0
   39.9970   27.8232   49.7788 H   0  0  0  0  0  0  0  0  0  0  0  0
   40.7534   30.1048   49.6351 H   0  0  0  0  0  0  0  0  0  0  0  0
   40.5089   31.4805   51.8116 H   0  0  0  0  0  0  0  0  0  0  0  0
   39.3470   30.5164   53.7262 H   0  0  0  0  0  0  0  0  0  0  0  0
   37.7643   28.1221   56.7322 H   0  0  0  0  0  0  0  0  0  0  0  0
   40.2838   29.8641   60.1564 H   0  0  0  0  0  0  0  0  0  0  0  0
   39.3409   31.6263   60.1816 H   0  0  0  0  0  0  0  0  0  0  0  0
   38.0596   29.9693   61.8179 H   0  0  0  0  0  0  0  0  0  0  0  0
   39.7415   29.8153   62.2722 H   0  0  0  0  0  0  0  0  0  0  0  0
   38.8490   31.9010   63.1330 H   0  0  0  0  0  0  0  0  0  0  0  0
   38.2930   32.3280   61.5550 H   0  0  0  0  0  0  0  0  0  0  0  0
   40.8823   31.8559   61.4102 H   0  0  0  0  0  0  0  0  0  0  0  0
   40.0411   33.6097   60.0182 H   0  0  0  0  0  0  0  0  0  0  0  0
   39.0811   34.2471   61.6067 H   0  0  0  0  0  0  0  0  0  0  0  0
   41.7637   34.8816   61.1591 H   0  0  0  0  0  0  0  0  0  0  0  0
   40.1365   35.6665   60.2989 H   0  0  0  0  0  0  0  0  0  0  0  0
   41.1737   37.3132   61.5753 H   0  0  0  0  0  0  0  0  0  0  0  0
   39.6197   36.7070   62.2897 H   0  0  0  0  0  0  0  0  0  0  0  0
   41.8670   36.9630   63.7840 H   0  0  0  0  0  0  0  0  0  0  0  0
   39.8936   32.1014   64.7316 H   0  0  0  0  0  0  0  0  0  0  0  0
   41.3656   31.4540   63.9163 H   0  0  0  0  0  0  0  0  0  0  0  0
   38.0580   28.3060   59.5400 H   0  0  0  0  0  0  0  0  0  0  0  0
   41.0607   26.8178   57.4906 H   0  0  0  0  0  0  0  0  0  0  0  0
   41.1125   28.6418   57.2878 H   0  0  0  0  0  0  0  0  0  0  0  0
   42.3480   28.0250   58.9520 H   0  0  0  0  0  0  0  0  0  0  0  0
  1  2  1  0
  2  3  1  0
  3  4  1  0
  4  5  1  0
  5  6  1  0
  6  7  2  0
  6  8  1  0
  8  9  2  0
  9 10  1  0
 10 11  2  0
 11 12  1  0
 12 13  2  0
  5 14  1  0
 14 15  1  0
 15 16  1  0
 16 17  2  0
 16 18  1  1
 18 19  1  0
 19 20  1  0
 20 21  1  0
 21 22  1  0
 22 23  1  0
 23 24  1  0
 24 25  1  0
 25 26  1  0
 26 27  2  0
 27 28  1  0
 28 29  1  0
 29 30  2  0
 29 31  2  0
 29 32  1  0
 15 33  1  0
 33 34  1  1
 33 35  1  0
 35 36  1  0
 33  3  1  0
 13  8  1  0
 27 21  1  0
 32 26  1  0
  1 37  1  0
  1 38  1  0
  1 39  1  0
  3 40  1  1
  4 41  1  0
  4 42  1  0
  9 43  1  0
 10 44  1  0
 11 45  1  0
 12 46  1  0
 13 47  1  0
 15 48  1  1
 18 49  1  0
 18 50  1  0
 19 51  1  0
 19 52  1  0
 20 53  1  0
 20 54  1  0
 21 55  1  6
 22 56  1  0
 22 57  1  0
 23 58  1  0
 23 59  1  0
 24 60  1  0
 24 61  1  0
 25 62  1  0
 28 63  1  0
 28 64  1  0
 34 65  1  0
 35 66  1  0
 35 67  1  0
 36 68  1  0
M  CHG  1  20   1
M  END

>  <ID>
DiffSBDD_6_num_sample_100

>  <docking_score>
-10.688

$$$$
DiffSBDD_71_num_sample_100
     RDKit          3D

 57 61  0  0  0  0  0  0  0  0999 V2000
   39.5480   28.1790   59.8530 C   0  0  0  0  0  0  0  0  0  0  0  0
   39.0900   29.5910   59.5480 C   0  0  1  0  0  0  0  0  0  0  0  0
   37.5710   29.6820   59.2770 C   0  0  0  0  0  0  0  0  0  0  0  0
   37.0700   30.0130   57.9530 N   0  0  0  0  0  0  0  0  0  0  0  0
   38.0670   29.9490   56.9850 C   0  0  2  0  0  0  0  0  0  0  0  0
   38.6970   31.2210   56.6560 C   0  0  0  0  0  0  0  0  0  0  0  0
   39.2530   31.3670   55.1890 C   0  0  0  0  0  0  0  0  0  0  0  0
   39.3620   30.2080   54.2040 C   0  0  0  0  0  0  0  0  0  0  0  0
   39.9220   30.4930   53.0050 C   0  0  0  0  0  0  0  0  0  0  0  0
   40.0830   30.5180   51.7060 C   0  0  0  0  0  0  0  0  0  0  0  0
   39.7990   29.2770   50.9850 C   0  0  0  0  0  0  0  0  0  0  0  0
   39.8820   29.3400   49.7320 O   0  0  0  0  0  0  0  0  0  0  0  0
   39.4770   28.0730   51.6850 C   0  0  0  0  0  0  0  0  0  0  0  0
   39.2200   27.7630   52.9280 C   0  0  0  0  0  0  0  0  0  0  0  0
   39.1220   27.6750   54.3110 C   0  0  0  0  0  0  0  0  0  0  0  0
   38.9860   26.5870   55.1650 C   0  0  0  0  0  0  0  0  0  0  0  0
   38.2400   27.0920   56.6310 S   0  0  0  0  0  0  0  0  0  0  0  0
   38.2900   28.7740   56.0400 C   0  0  2  0  0  0  0  0  0  0  0  0
   38.9300   28.9120   54.8550 N   0  0  0  0  0  0  0  0  0  0  0  0
   39.4930   30.8180   60.6760 S   0  0  0  0  0  0  0  0  0  0  0  0
   38.8370   32.4260   60.2840 C   0  0  2  0  0  0  0  0  0  0  0  0
   39.7090   33.4170   61.1360 C   0  0  0  0  0  0  0  0  0  0  0  0
   40.4540   32.9050   62.2450 C   0  0  0  0  0  0  0  0  0  0  0  0
   41.2670   33.8150   62.9920 C   0  0  0  0  0  0  0  0  0  0  0  0
   41.3400   35.1650   62.5080 C   0  0  0  0  0  0  0  0  0  0  0  0
   40.5810   35.6810   61.5350 C   0  0  0  0  0  0  0  0  0  0  0  0
   39.7860   34.7650   60.7520 C   0  0  0  0  0  0  0  0  0  0  0  0
   37.4060   32.8860   60.4410 C   0  0  0  0  0  0  0  0  0  0  0  0
   36.5290   33.7900   59.7140 C   0  0  0  0  0  0  0  0  0  0  0  0
   35.2850   33.7800   59.9700 C   0  0  0  0  0  0  0  0  0  0  0  0
   34.7540   32.7440   60.7600 C   0  0  0  0  0  0  0  0  0  0  0  0
   35.6910   32.0030   61.4680 N   0  0  0  0  0  0  0  0  0  0  0  0
   36.8800   32.1770   61.4870 N   0  0  0  0  0  0  0  0  0  0  0  0
   39.5944   28.0359   60.9427 H   0  0  0  0  0  0  0  0  0  0  0  0
   38.8367   27.4610   59.4189 H   0  0  0  0  0  0  0  0  0  0  0  0
   40.5453   28.0152   59.4189 H   0  0  0  0  0  0  0  0  0  0  0  0
   39.6796   29.7992   58.6430 H   0  0  0  0  0  0  0  0  0  0  0  0
   37.1466   28.7010   59.5369 H   0  0  0  0  0  0  0  0  0  0  0  0
   37.2674   30.5521   59.8776 H   0  0  0  0  0  0  0  0  0  0  0  0
   36.6870   30.9700   57.9730 H   0  0  0  0  0  0  0  0  0  0  0  0
   38.6697   29.3023   57.6396 H   0  0  0  0  0  0  0  0  0  0  0  0
   38.7799   32.0347   57.3915 H   0  0  0  0  0  0  0  0  0  0  0  0
   39.5816   32.3626   54.8561 H   0  0  0  0  0  0  0  0  0  0  0  0
   40.4152   31.4267   51.1827 H   0  0  0  0  0  0  0  0  0  0  0  0
   39.4357   27.1991   51.0182 H   0  0  0  0  0  0  0  0  0  0  0  0
   38.3630   25.8192   54.6830 H   0  0  0  0  0  0  0  0  0  0  0  0
   39.9797   26.1702   55.3860 H   0  0  0  0  0  0  0  0  0  0  0  0
   37.2508   29.0188   55.7752 H   0  0  0  0  0  0  0  0  0  0  0  0
   38.8667   32.3855   59.1851 H   0  0  0  0  0  0  0  0  0  0  0  0
   40.4031   31.8401   62.5161 H   0  0  0  0  0  0  0  0  0  0  0  0
   41.8101   33.4958   63.8938 H   0  0  0  0  0  0  0  0  0  0  0  0
   42.0812   35.8295   62.9760 H   0  0  0  0  0  0  0  0  0  0  0  0
   40.5632   36.7632   61.3387 H   0  0  0  0  0  0  0  0  0  0  0  0
   39.2454   35.1202   59.8623 H   0  0  0  0  0  0  0  0  0  0  0  0
   36.9370   34.4723   58.9537 H   0  0  0  0  0  0  0  0  0  0  0  0
   34.6302   34.5724   59.5785 H   0  0  0  0  0  0  0  0  0  0  0  0
   33.6751   32.5361   60.8130 H   0  0  0  0  0  0  0  0  0  0  0  0
  1  2  1  0
  2  3  1  0
  3  4  1  0
  4  5  1  0
  5  6  1  0
  6  7  2  0
  7  8  1  0
  8  9  2  0
  9 10  2  0
 10 11  1  0
 11 12  2  0
 11 13  1  0
 13 14  2  0
 14 15  2  0
 15 16  1  0
 16 17  1  0
 17 18  1  0
 18 19  1  0
  2 20  1  0
 20 21  1  0
 21 22  1  0
 22 23  2  0
 23 24  1  0
 24 25  2  0
 25 26  1  0
 26 27  2  0
 21 28  1  0
 28 29  2  0
 29 30  1  0
 30 31  2  0
 31 32  1  0
 32 33  2  0
 18  5  1  0
 27 22  1  0
 33 28  1  0
 19  8  1  0
 19 15  1  0
  1 34  1  0
  1 35  1  0
  1 36  1  0
  2 37  1  6
  3 38  1  0
  3 39  1  0
  4 40  1  0
  5 41  1  1
  6 42  1  0
  7 43  1  0
 10 44  1  0
 13 45  1  0
 16 46  1  0
 16 47  1  0
 18 48  1  6
 21 49  1  6
 23 50  1  0
 24 51  1  0
 25 52  1  0
 26 53  1  0
 27 54  1  0
 29 55  1  0
 30 56  1  0
 31 57  1  0
M  END

>  <ID>
DiffSBDD_71_num_sample_100

>  <docking_score>
-11.293

$$$$
DiffSBDD_72_num_sample_100
     RDKit          3D

 68 72  0  0  0  0  0  0  0  0999 V2000
   42.1010   33.8730   64.4190 C   0  0  0  0  0  0  0  0  0  0  0  0
   41.1420   33.3730   63.3240 O   0  0  0  0  0  0  0  0  0  0  0  0
   40.2700   34.4390   62.6630 C   0  0  1  0  0  0  0  0  0  0  0  0
   40.9540   35.4040   61.7330 C   0  0  1  0  0  0  0  0  0  0  0  0
   41.5980   34.8100   60.7380 O   0  0  0  0  0  0  0  0  0  0  0  0
   39.7390   36.1340   61.4200 C   0  0  2  0  0  0  0  0  0  0  0  0
   39.2820   37.6530   61.8400 C   0  0  0  0  0  0  0  0  0  0  0  0
   37.9180   38.0060   61.5470 C   0  0  0  0  0  0  0  0  0  0  0  0
   37.2590   37.0340   60.6360 C   0  0  0  0  0  0  0  0  0  0  0  0
   37.1590   35.6820   60.9620 C   0  0  0  0  0  0  0  0  0  0  0  0
   38.7300   35.2420   61.3940 C   0  0  2  0  0  0  0  0  0  0  0  0
   39.1020   34.0030   61.9360 C   0  0  1  0  0  0  0  0  0  0  0  0
   39.1180   32.7060   61.0520 C   0  0  1  0  0  0  0  0  0  0  0  0
   38.7120   31.2590   61.4330 C   0  0  2  0  0  0  0  0  0  0  0  0
   39.7340   30.4480   60.9070 O   0  0  0  0  0  0  0  0  0  0  0  0
   38.7000   29.5730   60.3370 N   0  0  0  0  0  0  0  0  0  0  0  0
   39.5100   28.3950   59.9220 C   0  0  0  0  0  0  0  0  0  0  0  0
   40.5980   28.5840   58.9360 C   0  0  0  0  0  0  0  0  0  0  0  0
   40.2600   28.6020   57.4740 O   0  0  0  0  0  0  0  0  0  0  0  0
   39.8450   27.3380   56.3630 C   0  0  0  0  0  0  0  0  0  0  0  0
   39.7390   25.9370   56.2450 C   0  0  0  0  0  0  0  0  0  0  0  0
   38.4900   25.3680   55.6820 C   0  0  0  0  0  0  0  0  0  0  0  0
   37.6450   26.2220   54.7420 C   0  0  0  0  0  0  0  0  0  0  0  0
   38.0620   27.5160   54.5920 C   0  0  0  0  0  0  0  0  0  0  0  0
   37.4310   28.3910   53.5830 C   0  0  0  0  0  0  0  0  0  0  0  0
   38.3300   28.3860   52.3590 C   0  0  0  0  0  0  0  0  0  0  0  0
   39.3320   29.2160   52.2660 O   0  0  0  0  0  0  0  0  0  0  0  0
   38.2020   27.4560   51.5350 O   0  0  0  0  0  0  0  0  0  0  0  0
   39.0530   28.0580   55.5360 C   0  0  0  0  0  0  0  0  0  0  0  0
   37.7130   30.1870   59.5030 C   0  0  1  0  0  0  0  0  0  0  0  0
   36.4420   29.6930   58.9600 C   0  0  0  0  0  0  0  0  0  0  0  0
   38.2950   31.4170   59.2000 C   0  0  0  0  0  0  0  0  0  0  0  0
   38.8350   31.7260   58.1810 O   0  0  0  0  0  0  0  0  0  0  0  0
   37.9800   32.0710   60.4370 C   0  0  2  0  0  0  0  0  0  0  0  0
   41.6752   33.6510   65.4086 H   0  0  0  0  0  0  0  0  0  0  0  0
   43.0718   33.3663   64.3155 H   0  0  0  0  0  0  0  0  0  0  0  0
   42.2414   34.9591   64.3155 H   0  0  0  0  0  0  0  0  0  0  0  0
   39.9752   34.9282   63.6031 H   0  0  0  0  0  0  0  0  0  0  0  0
   41.7937   36.0151   62.0957 H   0  0  0  0  0  0  0  0  0  0  0  0
   41.4430   35.3110   59.8990 H   0  0  0  0  0  0  0  0  0  0  0  0
   40.1229   36.6163   60.5089 H   0  0  0  0  0  0  0  0  0  0  0  0
   39.4321   37.7617   62.9243 H   0  0  0  0  0  0  0  0  0  0  0  0
   39.9002   38.3277   61.2296 H   0  0  0  0  0  0  0  0  0  0  0  0
   37.3534   38.0434   62.4903 H   0  0  0  0  0  0  0  0  0  0  0  0
   37.9280   38.9827   61.0411 H   0  0  0  0  0  0  0  0  0  0  0  0
   36.2302   37.3947   60.4892 H   0  0  0  0  0  0  0  0  0  0  0  0
   37.9409   37.0192   59.7730 H   0  0  0  0  0  0  0  0  0  0  0  0
   36.4670   35.5341   61.8042 H   0  0  0  0  0  0  0  0  0  0  0  0
   36.7655   35.0768   60.1320 H   0  0  0  0  0  0  0  0  0  0  0  0
   38.2084   34.9947   60.4577 H   0  0  0  0  0  0  0  0  0  0  0  0
   38.3369   33.5072   62.5515 H   0  0  0  0  0  0  0  0  0  0  0  0
   40.0491   33.1863   60.7169 H   0  0  0  0  0  0  0  0  0  0  0  0
   38.3839   30.6566   62.2929 H   0  0  0  0  0  0  0  0  0  0  0  0
   39.9683   27.9819   60.8327 H   0  0  0  0  0  0  0  0  0  0  0  0
   38.7888   27.7498   59.3989 H   0  0  0  0  0  0  0  0  0  0  0  0
   41.0792   29.5457   59.1674 H   0  0  0  0  0  0  0  0  0  0  0  0
   41.2186   27.6833   59.0522 H   0  0  0  0  0  0  0  0  0  0  0  0
   40.5630   25.2813   56.5629 H   0  0  0  0  0  0  0  0  0  0  0  0
   38.1777   24.3450   55.9387 H   0  0  0  0  0  0  0  0  0  0  0  0
   36.7615   25.8247   54.2209 H   0  0  0  0  0  0  0  0  0  0  0  0
   36.4347   28.0059   53.3204 H   0  0  0  0  0  0  0  0  0  0  0  0
   37.3086   29.4121   53.9734 H   0  0  0  0  0  0  0  0  0  0  0  0
   39.1595   29.1522   55.5723 H   0  0  0  0  0  0  0  0  0  0  0  0
   38.2381   29.8178   58.6097 H   0  0  0  0  0  0  0  0  0  0  0  0
   35.7669   29.4306   59.7879 H   0  0  0  0  0  0  0  0  0  0  0  0
   35.9779   30.4762   58.3426 H   0  0  0  0  0  0  0  0  0  0  0  0
   36.6287   28.8020   58.3426 H   0  0  0  0  0  0  0  0  0  0  0  0
   36.9612   32.4532   60.2760 H   0  0  0  0  0  0  0  0  0  0  0  0
  1  2  1  0
  2  3  1  0
  3  4  1  0
  4  5  1  0
  4  6  1  0
  6  7  1  0
  7  8  1  0
  8  9  1  0
  9 10  1  0
 10 11  1  0
 11 12  1  0
 12 13  1  0
 13 14  1  0
 14 15  1  0
 15 16  1  0
 16 17  1  0
 17 18  1  0
 18 19  1  0
 19 20  1  0
 20 21  2  0
 21 22  1  0
 22 23  2  0
 23 24  1  0
 24 25  1  0
 25 26  1  0
 26 27  2  0
 26 28  1  0
 24 29  2  0
 16 30  1  0
 30 31  1  0
 30 32  1  0
 32 33  2  0
 32 34  1  0
 12  3  1  0
 34 13  1  0
 11  6  1  0
 34 14  1  0
 29 20  1  0
  1 35  1  0
  1 36  1  0
  1 37  1  0
  3 38  1  1
  4 39  1  1
  5 40  1  0
  6 41  1  6
  7 42  1  0
  7 43  1  0
  8 44  1  0
  8 45  1  0
  9 46  1  0
  9 47  1  0
 10 48  1  0
 10 49  1  0
 11 50  1  6
 12 51  1  1
 13 52  1  6
 14 53  1  1
 17 54  1  0
 17 55  1  0
 18 56  1  0
 18 57  1  0
 21 58  1  0
 22 59  1  0
 23 60  1  0
 25 61  1  0
 25 62  1  0
 29 63  1  0
 30 64  1  1
 31 65  1  0
 31 66  1  0
 31 67  1  0
 34 68  1  1
M  CHG  1  28  -1
M  END

>  <ID>
DiffSBDD_72_num_sample_100

>  <docking_score>
-10.512

$$$$
DiffSBDD_73_num_sample_100
     RDKit          3D

 29 28  0  0  0  0  0  0  0  0999 V2000
   36.8040   36.9090   59.7890 N   0  0  0  0  0  0  0  0  0  0  0  0
   37.3500   35.7140   60.3700 C   0  0  0  0  0  0  0  0  0  0  0  0
   36.6110   34.5460   59.6590 C   0  0  0  0  0  0  0  0  0  0  0  0
   35.7640   33.9310   60.2660 O   0  0  0  0  0  0  0  0  0  0  0  0
   37.0160   34.1420   58.3540 N   0  0  0  0  0  0  0  0  0  0  0  0
   38.2840   33.1270   58.4100 C   0  0  0  0  0  0  0  0  0  0  0  0
   38.5050   31.9620   57.4420 C   0  0  0  0  0  0  0  0  0  0  0  0
   38.8830   32.4240   56.0860 C   0  0  0  0  0  0  0  0  0  0  0  0
   38.3080   31.3700   54.9810 C   0  0  0  0  0  0  0  0  0  0  0  0
   39.4300   30.3190   54.4180 S   0  0  0  0  0  0  0  0  0  0  0  0
   39.6980   30.4670   52.6060 C   0  0  0  0  0  0  0  0  0  0  0  0
   40.1460   29.6100   51.4290 C   0  0  0  0  0  0  0  0  0  0  0  0
   40.4760   30.3840   49.8840 Cl  0  0  0  0  0  0  0  0  0  0  0  0
   35.8740   36.7050   59.3960 H   0  0  0  0  0  0  0  0  0  0  0  0
   36.7190   37.6350   60.5150 H   0  0  0  0  0  0  0  0  0  0  0  0
   37.4270   37.2420   59.0400 H   0  0  0  0  0  0  0  0  0  0  0  0
   38.4329   35.6549   60.1863 H   0  0  0  0  0  0  0  0  0  0  0  0
   37.2132   35.6857   61.4611 H   0  0  0  0  0  0  0  0  0  0  0  0
   36.5620   34.4540   57.4840 H   0  0  0  0  0  0  0  0  0  0  0  0
   39.1765   33.7631   58.3159 H   0  0  0  0  0  0  0  0  0  0  0  0
   38.0671   32.5810   59.3400 H   0  0  0  0  0  0  0  0  0  0  0  0
   39.3091   31.3226   57.8352 H   0  0  0  0  0  0  0  0  0  0  0  0
   37.5579   31.4088   57.3581 H   0  0  0  0  0  0  0  0  0  0  0  0
   38.4530   33.4198   55.9033 H   0  0  0  0  0  0  0  0  0  0  0  0
   39.9786   32.4816   56.0070 H   0  0  0  0  0  0  0  0  0  0  0  0
   37.4944   30.7925   55.4442 H   0  0  0  0  0  0  0  0  0  0  0  0
   37.9679   31.9645   54.1202 H   0  0  0  0  0  0  0  0  0  0  0  0
   39.4629   31.4869   52.2676 H   0  0  0  0  0  0  0  0  0  0  0  0
   40.2616   28.5221   51.5435 H   0  0  0  0  0  0  0  0  0  0  0  0
  1  2  1  0
  2  3  1  0
  3  4  2  0
  3  5  1  0
  5  6  1  0
  6  7  1  0
  7  8  1  0
  8  9  1  0
  9 10  1  0
 10 11  1  0
 11 12  2  3
 12 13  1  0
  1 14  1  0
  1 15  1  0
  1 16  1  0
  2 17  1  0
  2 18  1  0
  5 19  1  0
  6 20  1  0
  6 21  1  0
  7 22  1  0
  7 23  1  0
  8 24  1  0
  8 25  1  0
  9 26  1  0
  9 27  1  0
 11 28  1  0
 12 29  1  0
M  CHG  1   1   1
M  END

>  <ID>
DiffSBDD_73_num_sample_100

>  <docking_score>
-5.143

$$$$
DiffSBDD_74_num_sample_100
     RDKit          3D

 24 24  0  0  0  0  0  0  0  0999 V2000
   40.5210   30.3400   49.7510 C   0  0  0  0  0  0  0  0  0  0  0  0
   40.1800   30.3810   51.1610 C   0  0  0  0  0  0  0  0  0  0  0  0
   39.7310   29.4620   51.8000 C   0  0  0  0  0  0  0  0  0  0  0  0
   39.4340   28.2100   51.2060 C   0  0  0  0  0  0  0  0  0  0  0  0
   39.5020   29.6030   53.1020 C   0  0  0  0  0  0  0  0  0  0  0  0
   39.6330   30.5620   54.0970 C   0  0  0  0  0  0  0  0  0  0  0  0
   39.1140   30.2280   55.2870 C   0  0  0  0  0  0  0  0  0  0  0  0
   38.6240   28.8880   55.1980 C   0  0  0  0  0  0  0  0  0  0  0  0
   38.1810   27.8130   56.1330 C   0  0  0  0  0  0  0  0  0  0  0  0
   38.7850   28.1850   53.7640 S   0  0  0  0  0  0  0  0  0  0  0  0
   41.6076   30.2094   49.6402 H   0  0  0  0  0  0  0  0  0  0  0  0
   39.9997   29.4981   49.2720 H   0  0  0  0  0  0  0  0  0  0  0  0
   40.2142   31.2815   49.2720 H   0  0  0  0  0  0  0  0  0  0  0  0
   41.1086   30.6674   51.6765 H   0  0  0  0  0  0  0  0  0  0  0  0
   39.3003   31.0405   51.1275 H   0  0  0  0  0  0  0  0  0  0  0  0
   38.7102   29.8082   51.5807 H   0  0  0  0  0  0  0  0  0  0  0  0
   39.2568   27.4632   51.9939 H   0  0  0  0  0  0  0  0  0  0  0  0
   38.5334   28.3049   50.5815 H   0  0  0  0  0  0  0  0  0  0  0  0
   40.2812   27.8902   50.5815 H   0  0  0  0  0  0  0  0  0  0  0  0
   40.1281   31.5285   53.9213 H   0  0  0  0  0  0  0  0  0  0  0  0
   39.0724   30.8729   56.1772 H   0  0  0  0  0  0  0  0  0  0  0  0
   38.3198   28.1497   57.1710 H   0  0  0  0  0  0  0  0  0  0  0  0
   37.1179   27.5906   55.9587 H   0  0  0  0  0  0  0  0  0  0  0  0
   38.7787   26.9062   55.9587 H   0  0  0  0  0  0  0  0  0  0  0  0
  1  2  1  0
  2  3  1  0
  3  4  1  0
  3  5  1  0
  5  6  2  0
  6  7  1  0
  7  8  2  0
  8  9  1  0
  8 10  1  0
 10  5  1  0
  1 11  1  0
  1 12  1  0
  1 13  1  0
  2 14  1  0
  2 15  1  0
  3 16  1  0
  4 17  1  0
  4 18  1  0
  4 19  1  0
  6 20  1  0
  7 21  1  0
  9 22  1  0
  9 23  1  0
  9 24  1  0
M  END

>  <ID>
DiffSBDD_74_num_sample_100

>  <docking_score>
-5.895

$$$$
DiffSBDD_75_num_sample_100
     RDKit          3D

 40 43  0  0  0  0  0  0  0  0999 V2000
   37.4110   24.4230   55.5290 C   0  0  0  0  0  0  0  0  0  0  0  0
   38.3490   25.4600   56.0550 C   0  0  1  0  0  0  0  0  0  0  0  0
   38.2380   26.7560   55.7600 C   0  0  0  0  0  0  0  0  0  0  0  0
   38.3910   28.0700   55.8860 C   0  0  0  0  0  0  0  0  0  0  0  0
   37.5500   29.2090   55.6850 C   0  0  0  0  0  0  0  0  0  0  0  0
   38.7010   29.1430   54.8030 C   0  0  0  0  0  0  0  0  0  0  0  0
   39.2730   28.3130   57.0730 N   0  0  0  0  0  0  0  0  0  0  0  0
   38.9600   29.6670   57.5830 C   0  0  0  0  0  0  0  0  0  0  0  0
   38.3410   29.2330   58.5640 C   0  0  0  0  0  0  0  0  0  0  0  0
   37.8230   29.8990   59.5700 C   0  0  0  0  0  0  0  0  0  0  0  0
   37.7460   31.2310   59.4570 C   0  0  0  0  0  0  0  0  0  0  0  0
   38.2540   31.7910   58.3420 C   0  0  0  0  0  0  0  0  0  0  0  0
   38.9880   31.1660   57.4200 N   0  0  0  0  0  0  0  0  0  0  0  0
   37.8200   33.5270   58.5340 S   0  0  0  0  0  0  0  0  0  0  0  0
   37.4540   33.4750   60.2200 C   0  0  0  0  0  0  0  0  0  0  0  0
   37.5620   34.2360   61.1900 O   0  0  0  0  0  0  0  0  0  0  0  0
   37.1250   32.0760   60.5070 C   0  0  0  0  0  0  0  0  0  0  0  0
   36.6380   31.7670   61.5600 O   0  0  0  0  0  0  0  0  0  0  0  0
   40.1190   27.1020   57.4050 C   0  0  1  0  0  0  0  0  0  0  0  0
   41.3910   27.4780   58.2020 C   0  0  0  0  0  0  0  0  0  0  0  0
   39.4520   25.9150   58.0410 C   0  0  0  0  0  0  0  0  0  0  0  0
   39.1920   25.0450   56.9700 O   0  0  0  0  0  0  0  0  0  0  0  0
   36.9358   23.8977   56.3706 H   0  0  0  0  0  0  0  0  0  0  0  0
   36.6372   24.9064   54.9146 H   0  0  0  0  0  0  0  0  0  0  0  0
   37.9693   23.7014   54.9146 H   0  0  0  0  0  0  0  0  0  0  0  0
   38.8597   25.7506   55.1251 H   0  0  0  0  0  0  0  0  0  0  0  0
   38.6616   26.6838   54.7474 H   0  0  0  0  0  0  0  0  0  0  0  0
   37.4754   26.8193   56.5502 H   0  0  0  0  0  0  0  0  0  0  0  0
   36.5445   29.0633   55.2635 H   0  0  0  0  0  0  0  0  0  0  0  0
   37.1764   29.9886   56.3653 H   0  0  0  0  0  0  0  0  0  0  0  0
   38.5744   28.9121   53.7350 H   0  0  0  0  0  0  0  0  0  0  0  0
   39.5483   29.7966   54.5483 H   0  0  0  0  0  0  0  0  0  0  0  0
   38.2070   28.1417   58.5969 H   0  0  0  0  0  0  0  0  0  0  0  0
   37.4654   29.3817   60.4725 H   0  0  0  0  0  0  0  0  0  0  0  0
   40.3726   26.7468   56.3953 H   0  0  0  0  0  0  0  0  0  0  0  0
   41.1802   27.4157   59.2798 H   0  0  0  0  0  0  0  0  0  0  0  0
   42.2031   26.7815   57.9464 H   0  0  0  0  0  0  0  0  0  0  0  0
   41.6939   28.5041   57.9464 H   0  0  0  0  0  0  0  0  0  0  0  0
   40.1198   25.4402   58.7749 H   0  0  0  0  0  0  0  0  0  0  0  0
   38.5386   26.1908   58.5884 H   0  0  0  0  0  0  0  0  0  0  0  0
  1  2  1  0
  2  3  1  0
  3  4  1  0
  4  5  1  0
  5  6  1  0
  4  7  1  0
  7  8  1  0
  8  9  2  0
  9 10  1  0
 10 11  2  0
 11 12  1  0
 12 13  2  0
 12 14  1  0
 14 15  1  0
 15 16  2  0
 15 17  1  0
 17 18  2  0
  7 19  1  0
 19 20  1  0
 19 21  1  0
 21 22  1  0
 22  2  1  0
  6  4  1  0
 13  8  1  0
 17 11  1  0
  1 23  1  0
  1 24  1  0
  1 25  1  0
  2 26  1  6
  3 27  1  0
  3 28  1  0
  5 29  1  0
  5 30  1  0
  6 31  1  0
  6 32  1  0
  9 33  1  0
 10 34  1  0
 19 35  1  6
 20 36  1  0
 20 37  1  0
 20 38  1  0
 21 39  1  0
 21 40  1  0
M  END

>  <ID>
DiffSBDD_75_num_sample_100

>  <docking_score>
-8.484

$$$$
DiffSBDD_76_num_sample_100
     RDKit          3D

 62 64  0  0  0  0  0  0  0  0999 V2000
   39.5500   27.1540   58.3720 C   0  0  0  0  0  0  0  0  0  0  0  0
   38.8200   28.5550   58.0080 C   0  0  2  0  0  0  0  0  0  0  0  0
   38.6920   29.4770   59.0820 C   0  0  0  0  0  0  0  0  0  0  0  0
   38.9920   29.0720   60.7120 Cl  0  0  0  0  0  0  0  0  0  0  0  0
   38.3510   30.7740   58.6650 C   0  0  0  0  0  0  0  0  0  0  0  0
   38.1600   31.9000   59.6650 C   0  0  0  0  0  0  0  0  0  0  0  0
   37.2100   31.8430   60.5440 O   0  0  0  0  0  0  0  0  0  0  0  0
   39.0060   33.0070   59.6010 N   0  0  0  0  0  0  0  0  0  0  0  0
   39.2190   33.8470   60.7260 C   0  0  0  0  0  0  0  0  0  0  0  0
   38.6130   35.2160   60.5840 C   0  0  0  0  0  0  0  0  0  0  0  0
   37.3130   35.2760   59.8920 C   0  0  0  0  0  0  0  0  0  0  0  0
   36.8510   36.7700   59.5700 C   0  0  0  0  0  0  0  0  0  0  0  0
   37.1860   37.7940   60.7100 O   0  0  0  0  0  0  0  0  0  0  0  0
   38.3330   37.6290   61.4750 C   0  0  0  0  0  0  0  0  0  0  0  0
   38.6150   36.1100   61.8650 C   0  0  0  0  0  0  0  0  0  0  0  0
   38.2050   31.0650   57.2800 N   0  0  0  0  0  0  0  0  0  0  0  0
   38.7080   32.0140   56.3750 C   0  0  0  0  0  0  0  0  0  0  0  0
   39.6650   31.6320   55.5990 O   0  0  0  0  0  0  0  0  0  0  0  0
   38.2910   33.1970   56.4590 O   0  0  0  0  0  0  0  0  0  0  0  0
   37.3770   30.0240   56.6100 C   0  0  1  0  0  0  0  0  0  0  0  0
   36.6790   30.3220   55.2300 C   0  0  0  0  0  0  0  0  0  0  0  0
   38.3930   28.8780   56.6430 C   0  0  2  0  0  0  0  0  0  0  0  0
   38.3370   27.9790   55.6210 O   0  0  0  0  0  0  0  0  0  0  0  0
   38.7730   27.6180   54.2900 C   0  0  2  0  0  0  0  0  0  0  0  0
   39.6410   26.3690   54.4030 C   0  0  0  0  0  0  0  0  0  0  0  0
   39.0010   25.1980   55.4820 S   0  0  0  0  0  0  0  0  0  0  0  0
   39.1990   28.3820   52.9710 C   0  0  0  0  0  0  0  0  0  0  0  0
   39.3470   27.5750   51.8110 C   0  0  0  0  0  0  0  0  0  0  0  0
   39.8860   28.3250   50.6740 C   0  0  0  0  0  0  0  0  0  0  0  0
   40.1430   29.7210   50.6920 C   0  0  0  0  0  0  0  0  0  0  0  0
   40.6280   30.4460   49.5750 F   0  0  0  0  0  0  0  0  0  0  0  0
   40.0120   30.4440   51.8730 C   0  0  0  0  0  0  0  0  0  0  0  0
   39.5240   29.8030   53.0250 C   0  0  0  0  0  0  0  0  0  0  0  0
   39.6075   27.0436   59.4649 H   0  0  0  0  0  0  0  0  0  0  0  0
   38.9724   26.3189   57.9490 H   0  0  0  0  0  0  0  0  0  0  0  0
   40.5654   27.1489   57.9490 H   0  0  0  0  0  0  0  0  0  0  0  0
   39.7939   28.9946   57.7467 H   0  0  0  0  0  0  0  0  0  0  0  0
   39.4870   33.2210   58.7160 H   0  0  0  0  0  0  0  0  0  0  0  0
   38.7778   33.3622   61.6094 H   0  0  0  0  0  0  0  0  0  0  0  0
   40.3060   33.9859   60.8212 H   0  0  0  0  0  0  0  0  0  0  0  0
   39.3455   35.6719   59.9017 H   0  0  0  0  0  0  0  0  0  0  0  0
   37.3929   34.7213   58.9455 H   0  0  0  0  0  0  0  0  0  0  0  0
   36.5608   34.8342   60.5621 H   0  0  0  0  0  0  0  0  0  0  0  0
   37.3552   37.0984   58.6492 H   0  0  0  0  0  0  0  0  0  0  0  0
   35.7561   36.7522   59.4659 H   0  0  0  0  0  0  0  0  0  0  0  0
   39.1924   38.0082   60.9026 H   0  0  0  0  0  0  0  0  0  0  0  0
   38.1830   38.1845   62.4125 H   0  0  0  0  0  0  0  0  0  0  0  0
   39.5958   36.0372   62.3576 H   0  0  0  0  0  0  0  0  0  0  0  0
   37.8258   35.7617   62.5475 H   0  0  0  0  0  0  0  0  0  0  0  0
   36.4140   29.8502   57.1124 H   0  0  0  0  0  0  0  0  0  0  0  0
   35.6807   30.7482   55.4085 H   0  0  0  0  0  0  0  0  0  0  0  0
   37.2870   31.0390   54.6588 H   0  0  0  0  0  0  0  0  0  0  0  0
   36.5817   29.3870   54.6588 H   0  0  0  0  0  0  0  0  0  0  0  0
   39.3766   29.1925   56.2640 H   0  0  0  0  0  0  0  0  0  0  0  0
   37.7317   27.7860   53.9778 H   0  0  0  0  0  0  0  0  0  0  0  0
   39.7305   25.9138   53.4056 H   0  0  0  0  0  0  0  0  0  0  0  0
   40.6167   26.6833   54.8021 H   0  0  0  0  0  0  0  0  0  0  0  0
   37.6320   25.2350   55.4350 H   0  0  0  0  0  0  0  0  0  0  0  0
   39.0862   26.5071   51.7712 H   0  0  0  0  0  0  0  0  0  0  0  0
   40.1052   27.7721   49.7487 H   0  0  0  0  0  0  0  0  0  0  0  0
   40.2879   31.5083   51.9053 H   0  0  0  0  0  0  0  0  0  0  0  0
   39.3884   30.3680   53.9590 H   0  0  0  0  0  0  0  0  0  0  0  0
  1  2  1  0
  2  3  1  0
  3  4  1  0
  3  5  2  0
  5  6  1  0
  6  7  2  0
  6  8  1  0
  8  9  1  0
  9 10  1  0
 10 11  1  0
 11 12  1  0
 12 13  1  0
 13 14  1  0
 14 15  1  0
  5 16  1  0
 16 17  1  0
 17 18  2  0
 17 19  1  0
 16 20  1  0
 20 21  1  0
 20 22  1  0
 22 23  1  0
 23 24  1  0
 24 25  1  0
 25 26  1  0
 24 27  1  0
 27 28  2  0
 28 29  1  0
 29 30  2  0
 30 31  1  0
 30 32  1  0
 32 33  2  0
 22  2  1  0
 33 27  1  0
 15 10  1  0
  1 34  1  0
  1 35  1  0
  1 36  1  0
  2 37  1  1
  8 38  1  0
  9 39  1  0
  9 40  1  0
 10 41  1  0
 11 42  1  0
 11 43  1  0
 12 44  1  0
 12 45  1  0
 14 46  1  0
 14 47  1  0
 15 48  1  0
 15 49  1  0
 20 50  1  1
 21 51  1  0
 21 52  1  0
 21 53  1  0
 22 54  1  6
 24 55  1  6
 25 56  1  0
 25 57  1  0
 26 58  1  0
 28 59  1  0
 29 60  1  0
 32 61  1  0
 33 62  1  0
M  CHG  1  19  -1
M  END

>  <ID>
DiffSBDD_76_num_sample_100

>  <docking_score>
-10.32

$$$$
DiffSBDD_77_num_sample_100
     RDKit          3D

 78 80  0  0  0  0  0  0  0  0999 V2000
   40.1170   30.4440   51.7340 C   0  0  0  0  0  0  0  0  0  0  0  0
   39.4160   29.1350   51.9830 C   0  0  0  0  0  0  0  0  0  0  0  0
   39.4050   28.2020   50.8630 C   0  0  0  0  0  0  0  0  0  0  0  0
   38.3790   27.2080   51.0410 O   0  0  0  0  0  0  0  0  0  0  0  0
   38.8600   28.7720   53.2500 C   0  0  0  0  0  0  0  0  0  0  0  0
   39.1300   29.9240   54.1890 C   0  0  0  0  0  0  0  0  0  0  0  0
   38.2010   29.8830   55.2990 N   0  0  0  0  0  0  0  0  0  0  0  0
   38.3910   30.5120   56.4760 C   0  0  1  0  0  0  0  0  0  0  0  0
   39.1150   29.8770   57.4890 C   0  0  0  0  0  0  0  0  0  0  0  0
   38.2330   29.6550   58.6260 C   0  0  0  0  0  0  0  0  0  0  0  0
   37.7660   30.9120   59.4020 N   0  0  2  0  0  0  0  0  0  0  0  0
   36.5620   30.8580   60.2280 C   0  0  0  0  0  0  0  0  0  0  0  0
   35.5480   31.9250   60.0620 N   0  0  0  0  0  0  0  0  0  0  0  0
   35.4480   32.7040   61.1860 C   0  0  0  0  0  0  0  0  0  0  0  0
   34.5610   32.9570   61.7700 O   0  0  0  0  0  0  0  0  0  0  0  0
   38.6920   32.1190   59.3400 C   0  0  2  0  0  0  0  0  0  0  0  0
   38.8810   32.5580   60.8230 C   0  0  0  0  0  0  0  0  0  0  0  0
   39.1820   34.0110   60.8480 C   0  0  0  0  0  0  0  0  0  0  0  0
   40.5100   34.4280   61.1850 C   0  0  0  0  0  0  0  0  0  0  0  0
   40.8690   35.5930   61.7640 C   0  0  0  0  0  0  0  0  0  0  0  0
   39.9240   36.5830   61.8590 C   0  0  0  0  0  0  0  0  0  0  0  0
   40.0970   37.7750   62.4080 F   0  0  0  0  0  0  0  0  0  0  0  0
   38.6690   36.3340   61.1170 C   0  0  0  0  0  0  0  0  0  0  0  0
   38.1000   37.5840   60.9090 F   0  0  0  0  0  0  0  0  0  0  0  0
   38.3410   34.9810   60.8320 C   0  0  0  0  0  0  0  0  0  0  0  0
   38.5580   32.6860   57.8290 C   0  0  0  0  0  0  0  0  0  0  0  0
   38.1620   32.0370   56.4580 C   0  0  1  0  0  0  0  0  0  0  0  0
   38.9720   32.5750   55.5170 O   0  0  0  0  0  0  0  0  0  0  0  0
   38.2040   27.7170   53.6840 C   0  0  0  0  0  0  0  0  0  0  0  0
   37.1010   27.8760   53.6690 O   0  0  0  0  0  0  0  0  0  0  0  0
   38.8330   26.4920   54.0500 N   0  0  0  0  0  0  0  0  0  0  0  0
   38.7610   25.9030   55.3230 C   0  0  0  0  0  0  0  0  0  0  0  0
   39.5720   26.3200   56.3820 C   0  0  0  0  0  0  0  0  0  0  0  0
   40.7520   27.3570   56.3130 C   0  0  0  0  0  0  0  0  0  0  0  0
   39.2060   25.9580   57.7190 C   0  0  0  0  0  0  0  0  0  0  0  0
   40.0920   26.0790   58.7170 F   0  0  0  0  0  0  0  0  0  0  0  0
   38.0390   25.2860   57.9800 C   0  0  0  0  0  0  0  0  0  0  0  0
   36.9720   25.1490   56.8950 C   0  0  0  0  0  0  0  0  0  0  0  0
   37.7140   24.8950   55.5740 C   0  0  0  0  0  0  0  0  0  0  0  0
   40.3687   30.9140   52.6962 H   0  0  0  0  0  0  0  0  0  0  0  0
   41.0390   30.2632   51.1620 H   0  0  0  0  0  0  0  0  0  0  0  0
   39.4555   31.1112   51.1620 H   0  0  0  0  0  0  0  0  0  0  0  0
   39.2134   28.7565   49.9325 H   0  0  0  0  0  0  0  0  0  0  0  0
   40.3815   27.6982   50.8118 H   0  0  0  0  0  0  0  0  0  0  0  0
   37.8220   27.1580   50.2230 H   0  0  0  0  0  0  0  0  0  0  0  0
   40.1587   29.8495   54.5714 H   0  0  0  0  0  0  0  0  0  0  0  0
   39.0032   30.8718   53.6453 H   0  0  0  0  0  0  0  0  0  0  0  0
   38.0930   28.8850   55.5330 H   0  0  0  0  0  0  0  0  0  0  0  0
   37.4180   30.4290   54.9140 H   0  0  0  0  0  0  0  0  0  0  0  0
   37.5155   30.2519   57.0891 H   0  0  0  0  0  0  0  0  0  0  0  0
   39.4959   28.9124   57.1225 H   0  0  0  0  0  0  0  0  0  0  0  0
   39.9651   30.5059   57.7920 H   0  0  0  0  0  0  0  0  0  0  0  0
   37.3347   29.1398   58.2550 H   0  0  0  0  0  0  0  0  0  0  0  0
   38.8307   29.0770   59.3462 H   0  0  0  0  0  0  0  0  0  0  0  0
   38.3180   30.5280   60.1820 H   0  0  0  0  0  0  0  0  0  0  0  0
   36.0644   29.9001   60.0162 H   0  0  0  0  0  0  0  0  0  0  0  0
   36.9314   30.9921   61.2554 H   0  0  0  0  0  0  0  0  0  0  0  0
   34.9890   32.0640   59.2090 H   0  0  0  0  0  0  0  0  0  0  0  0
   36.3929   33.1338   61.5499 H   0  0  0  0  0  0  0  0  0  0  0  0
   39.7453   32.4165   59.2300 H   0  0  0  0  0  0  0  0  0  0  0  0
   37.9589   32.3601   61.3892 H   0  0  0  0  0  0  0  0  0  0  0  0
   39.7065   31.9936   61.2814 H   0  0  0  0  0  0  0  0  0  0  0  0
   41.3222   33.7254   60.9471 H   0  0  0  0  0  0  0  0  0  0  0  0
   41.8886   35.7442   62.1482 H   0  0  0  0  0  0  0  0  0  0  0  0
   37.2956   34.7490   60.5806 H   0  0  0  0  0  0  0  0  0  0  0  0
   37.8340   33.5074   57.9343 H   0  0  0  0  0  0  0  0  0  0  0  0
   39.6392   32.7087   57.6276 H   0  0  0  0  0  0  0  0  0  0  0  0
   37.0975   32.2258   56.2548 H   0  0  0  0  0  0  0  0  0  0  0  0
   38.7030   32.2450   54.6230 H   0  0  0  0  0  0  0  0  0  0  0  0
   39.3820   26.0030   53.3280 H   0  0  0  0  0  0  0  0  0  0  0  0
   41.0613   27.6289   57.3330 H   0  0  0  0  0  0  0  0  0  0  0  0
   41.6030   26.9091   55.7789 H   0  0  0  0  0  0  0  0  0  0  0  0
   40.4172   28.2584   55.7789 H   0  0  0  0  0  0  0  0  0  0  0  0
   37.8708   24.8444   58.9734 H   0  0  0  0  0  0  0  0  0  0  0  0
   36.3054   24.3044   57.1236 H   0  0  0  0  0  0  0  0  0  0  0  0
   36.3532   26.0563   56.8325 H   0  0  0  0  0  0  0  0  0  0  0  0
   38.1819   23.9004   55.6156 H   0  0  0  0  0  0  0  0  0  0  0  0
   36.9809   24.9573   54.7563 H   0  0  0  0  0  0  0  0  0  0  0  0
  1  2  1  0
  2  3  1  0
  3  4  1  0
  2  5  2  3
  5  6  1  0
  6  7  1  0
  7  8  1  0
  8  9  1  0
  9 10  1  0
 10 11  1  0
 11 12  1  0
 12 13  1  0
 13 14  1  0
 14 15  2  0
 11 16  1  0
 16 17  1  0
 17 18  1  0
 18 19  2  0
 19 20  1  0
 20 21  2  0
 21 22  1  0
 21 23  1  0
 23 24  1  0
 23 25  2  0
 16 26  1  0
 26 27  1  0
 27 28  1  0
  5 29  1  0
 29 30  2  0
 29 31  1  0
 31 32  1  0
 32 33  2  0
 33 34  1  0
 33 35  1  0
 35 36  1  0
 35 37  2  0
 37 38  1  0
 38 39  1  0
 27  8  1  0
 39 32  1  0
 25 18  1  0
  1 40  1  0
  1 41  1  0
  1 42  1  0
  3 43  1  0
  3 44  1  0
  4 45  1  0
  6 46  1  0
  6 47  1  0
  7 48  1  0
  7 49  1  0
  8 50  1  1
  9 51  1  0
  9 52  1  0
 10 53  1  0
 10 54  1  0
 11 55  1  6
 12 56  1  0
 12 57  1  0
 13 58  1  0
 14 59  1  0
 16 60  1  6
 17 61  1  0
 17 62  1  0
 19 63  1  0
 20 64  1  0
 25 65  1  0
 26 66  1  0
 26 67  1  0
 27 68  1  6
 28 69  1  0
 31 70  1  0
 34 71  1  0
 34 72  1  0
 34 73  1  0
 37 74  1  0
 38 75  1  0
 38 76  1  0
 39 77  1  0
 39 78  1  0
M  CHG  2   7   1  11   1
M  END

>  <ID>
DiffSBDD_77_num_sample_100

>  <docking_score>
-11.168

$$$$
DiffSBDD_78_num_sample_100
     RDKit          3D

 66 71  0  0  0  0  0  0  0  0999 V2000
   39.2750   26.8900   58.4210 C   0  0  0  0  0  0  0  0  0  0  0  0
   39.2820   28.2100   59.0280 C   0  0  0  0  0  0  0  0  0  0  0  0
   39.3340   28.1670   60.2640 N   0  0  0  0  0  0  0  0  0  0  0  0
   39.2210   29.3180   61.1530 C   0  0  0  0  0  0  0  0  0  0  0  0
   38.3330   30.2680   60.4250 C   0  0  1  0  0  0  0  0  0  0  0  0
   37.9560   31.0640   61.5240 N   0  0  0  0  0  0  0  0  0  0  0  0
   38.4760   30.7880   62.7260 O   0  0  0  0  0  0  0  0  0  0  0  0
   36.9210   32.0120   61.4240 C   0  0  0  0  0  0  0  0  0  0  0  0
   37.4740   33.3990   61.2130 C   0  0  0  0  0  0  0  0  0  0  0  0
   36.5880   34.4690   61.1770 C   0  0  0  0  0  0  0  0  0  0  0  0
   36.8660   35.7560   61.5690 C   0  0  0  0  0  0  0  0  0  0  0  0
   37.9930   36.3900   61.7160 C   0  0  0  0  0  0  0  0  0  0  0  0
   37.7840   37.6470   61.9450 O   0  0  0  0  0  0  0  0  0  0  0  0
   38.7420   38.4960   61.4140 C   0  0  0  0  0  0  0  0  0  0  0  0
   39.8880   38.0980   62.1870 C   0  0  0  0  0  0  0  0  0  0  0  0
   40.3460   36.7830   61.8940 C   0  0  0  0  0  0  0  0  0  0  0  0
   39.3020   35.9000   61.6680 C   0  0  0  0  0  0  0  0  0  0  0  0
   39.6140   34.6260   61.2950 C   0  0  0  0  0  0  0  0  0  0  0  0
   38.7680   33.5520   60.9860 C   0  0  0  0  0  0  0  0  0  0  0  0
   38.1400   30.3840   58.9830 C   0  0  0  0  0  0  0  0  0  0  0  0
   39.2080   29.3730   58.2460 C   0  0  2  0  0  0  0  0  0  0  0  0
   38.9090   29.2350   56.8460 C   0  0  1  0  0  0  0  0  0  0  0  0
   38.9990   30.5080   56.2220 O   0  0  0  0  0  0  0  0  0  0  0  0
   39.5850   29.2810   55.5330 C   0  0  2  0  0  0  0  0  0  0  0  0
   38.9720   28.6190   54.3970 N   0  0  0  0  0  0  0  0  0  0  0  0
   38.3710   27.4110   54.3410 C   0  0  0  0  0  0  0  0  0  0  0  0
   38.2630   27.1050   52.9900 C   0  0  0  0  0  0  0  0  0  0  0  0
   38.9200   28.2280   52.2650 C   0  0  0  0  0  0  0  0  0  0  0  0
   39.2750   28.3500   51.0070 C   0  0  0  0  0  0  0  0  0  0  0  0
   39.9160   29.5040   50.6380 C   0  0  0  0  0  0  0  0  0  0  0  0
   40.3930   29.5330   49.2920 O   0  0  0  0  0  0  0  0  0  0  0  0
   40.0470   30.6270   51.4290 C   0  0  0  0  0  0  0  0  0  0  0  0
   39.7000   30.4170   52.7530 C   0  0  0  0  0  0  0  0  0  0  0  0
   39.2070   29.2310   53.1810 C   0  0  0  0  0  0  0  0  0  0  0  0
   39.2709   26.1236   59.2101 H   0  0  0  0  0  0  0  0  0  0  0  0
   38.3763   26.7783   57.7967 H   0  0  0  0  0  0  0  0  0  0  0  0
   40.1725   26.7687   57.7967 H   0  0  0  0  0  0  0  0  0  0  0  0
   39.4690   27.2440   60.7010 H   0  0  0  0  0  0  0  0  0  0  0  0
   38.7719   29.0246   62.1133 H   0  0  0  0  0  0  0  0  0  0  0  0
   40.1999   29.7599   61.3906 H   0  0  0  0  0  0  0  0  0  0  0  0
   37.7037   30.2448   59.5231 H   0  0  0  0  0  0  0  0  0  0  0  0
   39.2930   31.3310   62.8650 H   0  0  0  0  0  0  0  0  0  0  0  0
   36.2745   31.7497   60.5736 H   0  0  0  0  0  0  0  0  0  0  0  0
   36.3474   32.0035   62.3626 H   0  0  0  0  0  0  0  0  0  0  0  0
   35.5740   34.2676   60.8012 H   0  0  0  0  0  0  0  0  0  0  0  0
   35.9757   36.3592   61.8003 H   0  0  0  0  0  0  0  0  0  0  0  0
   38.8935   38.3184   60.3391 H   0  0  0  0  0  0  0  0  0  0  0  0
   38.4944   39.5662   61.4717 H   0  0  0  0  0  0  0  0  0  0  0  0
   40.7065   38.8043   61.9838 H   0  0  0  0  0  0  0  0  0  0  0  0
   39.5815   38.1041   63.2434 H   0  0  0  0  0  0  0  0  0  0  0  0
   40.9781   36.8209   60.9945 H   0  0  0  0  0  0  0  0  0  0  0  0
   40.9096   36.4210   62.7665 H   0  0  0  0  0  0  0  0  0  0  0  0
   40.6901   34.4088   61.2264 H   0  0  0  0  0  0  0  0  0  0  0  0
   38.8652   33.4379   59.8963 H   0  0  0  0  0  0  0  0  0  0  0  0
   39.1344   32.8524   61.7518 H   0  0  0  0  0  0  0  0  0  0  0  0
   37.1113   30.0972   58.7195 H   0  0  0  0  0  0  0  0  0  0  0  0
   38.3070   31.4211   58.6567 H   0  0  0  0  0  0  0  0  0  0  0  0
   40.2337   29.7683   58.2054 H   0  0  0  0  0  0  0  0  0  0  0  0
   38.2948   28.3727   57.1447 H   0  0  0  0  0  0  0  0  0  0  0  0
   40.5659   29.0347   55.1005 H   0  0  0  0  0  0  0  0  0  0  0  0
   38.0362   26.7963   55.1896 H   0  0  0  0  0  0  0  0  0  0  0  0
   37.7897   26.2163   52.5470 H   0  0  0  0  0  0  0  0  0  0  0  0
   39.0657   27.5552   50.2759 H   0  0  0  0  0  0  0  0  0  0  0  0
   39.9450   28.9900   48.5970 H   0  0  0  0  0  0  0  0  0  0  0  0
   40.3942   31.5973   51.0442 H   0  0  0  0  0  0  0  0  0  0  0  0
   39.8284   31.2357   53.4763 H   0  0  0  0  0  0  0  0  0  0  0  0
  1  2  1  0
  2  3  2  0
  3  4  1  0
  4  5  1  0
  5  6  1  0
  6  7  1  0
  6  8  1  0
  8  9  1  0
  9 10  2  0
 10 11  1  0
 11 12  2  0
 12 13  1  0
 13 14  1  0
 14 15  1  0
 15 16  1  0
 16 17  1  0
 17 18  2  0
 18 19  1  0
  5 20  1  0
 20 21  1  0
 21 22  1  0
 22 23  1  0
 23 24  1  0
 24 25  1  0
 25 26  1  0
 26 27  2  0
 27 28  1  0
 28 29  2  0
 29 30  1  0
 30 31  1  0
 30 32  2  0
 32 33  1  0
 33 34  2  0
 21  2  1  0
 24 22  1  0
 34 25  1  0
 19  9  1  0
 34 28  1  0
 17 12  1  0
  1 35  1  0
  1 36  1  0
  1 37  1  0
  3 38  1  0
  4 39  1  0
  4 40  1  0
  5 41  1  1
  7 42  1  0
  8 43  1  0
  8 44  1  0
 10 45  1  0
 11 46  1  0
 14 47  1  0
 14 48  1  0
 15 49  1  0
 15 50  1  0
 16 51  1  0
 16 52  1  0
 18 53  1  0
 19 54  1  0
 19 55  1  0
 20 56  1  0
 20 57  1  0
 21 58  1  6
 22 59  1  1
 24 60  1  1
 26 61  1  0
 27 62  1  0
 29 63  1  0
 31 64  1  0
 32 65  1  0
 33 66  1  0
M  CHG  1   3   1
M  END

>  <ID>
DiffSBDD_78_num_sample_100

>  <docking_score>
-11.911

$$$$
DiffSBDD_79_num_sample_100
     RDKit          3D

 85 87  0  0  0  0  0  0  0  0999 V2000
   40.5140   35.4130   61.1010 C   0  0  0  0  0  0  0  0  0  0  0  0
   39.2760   35.9200   61.8260 C   0  0  0  0  0  0  0  0  0  0  0  0
   37.8990   36.1830   60.9720 N   0  0  0  0  0  0  0  0  0  0  0  0
   37.3870   35.4800   60.0450 C   0  0  0  0  0  0  0  0  0  0  0  0
   36.6820   34.2570   60.5360 C   0  0  0  0  0  0  0  0  0  0  0  0
   37.4950   33.1410   60.6140 C   0  0  0  0  0  0  0  0  0  0  0  0
   38.3510   32.8130   59.3590 C   0  0  0  0  0  0  0  0  0  0  0  0
   37.7840   31.6780   58.5820 N   0  0  2  0  0  0  0  0  0  0  0  0
   38.3260   30.4400   59.3920 C   0  0  0  0  0  0  0  0  0  0  0  0
   37.9160   28.9480   59.2970 C   0  0  0  0  0  0  0  0  0  0  0  0
   38.8990   28.3930   58.1470 C   0  0  0  0  0  0  0  0  0  0  0  0
   38.3110   28.9410   56.8990 C   0  0  0  0  0  0  0  0  0  0  0  0
   37.7630   27.9940   56.0090 C   0  0  0  0  0  0  0  0  0  0  0  0
   37.6990   29.0750   54.9580 C   0  0  0  0  0  0  0  0  0  0  0  0
   38.3760   29.4960   54.0140 C   0  0  0  0  0  0  0  0  0  0  0  0
   38.3140   28.2640   53.1500 C   0  0  0  0  0  0  0  0  0  0  0  0
   38.7380   27.8460   52.0960 C   0  0  0  0  0  0  0  0  0  0  0  0
   39.4650   28.3480   51.0970 C   0  0  0  0  0  0  0  0  0  0  0  0
   39.9980   29.5750   51.2220 C   0  0  0  0  0  0  0  0  0  0  0  0
   40.4510   30.0970   49.9120 C   0  0  0  0  0  0  0  0  0  0  0  0
   39.8100   31.1880   49.6270 F   0  0  0  0  0  0  0  0  0  0  0  0
   41.5820   30.6340   49.9140 F   0  0  0  0  0  0  0  0  0  0  0  0
   40.4820   29.2880   48.9100 F   0  0  0  0  0  0  0  0  0  0  0  0
   39.9010   30.4210   52.2580 C   0  0  0  0  0  0  0  0  0  0  0  0
   39.3550   30.3590   53.4730 C   0  0  0  0  0  0  0  0  0  0  0  0
   38.3040   30.2530   56.6350 O   0  0  0  0  0  0  0  0  0  0  0  0
   37.9650   31.4550   57.2900 C   0  0  2  0  0  0  0  0  0  0  0  0
   38.9670   32.4600   57.1080 C   0  0  0  0  0  0  0  0  0  0  0  0
   40.2780   27.9010   58.5370 C   0  0  0  0  0  0  0  0  0  0  0  0
   41.5420   28.1270   57.5530 C   0  0  0  0  0  0  0  0  0  0  0  0
   40.5820   28.2850   59.9440 C   0  0  0  0  0  0  0  0  0  0  0  0
   39.3450   26.7970   57.8060 C   0  0  0  0  0  0  0  0  0  0  0  0
   38.3300   25.8560   58.0220 C   0  0  0  0  0  0  0  0  0  0  0  0
   40.1950   26.0760   56.7110 C   0  0  0  0  0  0  0  0  0  0  0  0
   37.3690   37.1450   61.2740 C   0  0  0  0  0  0  0  0  0  0  0  0
   36.4970   37.5360   62.5610 C   0  0  0  0  0  0  0  0  0  0  0  0
   37.5280   38.2030   60.4290 O   0  0  0  0  0  0  0  0  0  0  0  0
   41.2696   35.1036   61.8381 H   0  0  0  0  0  0  0  0  0  0  0  0
   40.2433   34.5533   60.4704 H   0  0  0  0  0  0  0  0  0  0  0  0
   40.9241   36.2156   60.4704 H   0  0  0  0  0  0  0  0  0  0  0  0
   39.0349   35.1817   62.6050 H   0  0  0  0  0  0  0  0  0  0  0  0
   39.5667   36.9239   62.1691 H   0  0  0  0  0  0  0  0  0  0  0  0
   36.6631   36.1016   59.4976 H   0  0  0  0  0  0  0  0  0  0  0  0
   38.2152   35.1384   59.4068 H   0  0  0  0  0  0  0  0  0  0  0  0
   36.2816   34.4659   61.5390 H   0  0  0  0  0  0  0  0  0  0  0  0
   35.8901   34.0279   59.8077 H   0  0  0  0  0  0  0  0  0  0  0  0
   38.1842   33.2889   61.4584 H   0  0  0  0  0  0  0  0  0  0  0  0
   36.8077   32.2895   60.7262 H   0  0  0  0  0  0  0  0  0  0  0  0
   38.3898   33.7022   58.7127 H   0  0  0  0  0  0  0  0  0  0  0  0
   39.3570   32.5251   59.6982 H   0  0  0  0  0  0  0  0  0  0  0  0
   36.7820   31.9020   58.5120 H   0  0  0  0  0  0  0  0  0  0  0  0
   39.4079   30.4377   59.1933 H   0  0  0  0  0  0  0  0  0  0  0  0
   37.8478   30.6679   60.3560 H   0  0  0  0  0  0  0  0  0  0  0  0
   38.0852   28.4271   60.2509 H   0  0  0  0  0  0  0  0  0  0  0  0
   36.8493   28.7981   59.0741 H   0  0  0  0  0  0  0  0  0  0  0  0
   39.2860   28.8472   56.3984 H   0  0  0  0  0  0  0  0  0  0  0  0
   38.4357   27.1594   55.7624 H   0  0  0  0  0  0  0  0  0  0  0  0
   36.8716   27.4085   56.2786 H   0  0  0  0  0  0  0  0  0  0  0  0
   36.7426   28.8493   54.4636 H   0  0  0  0  0  0  0  0  0  0  0  0
   38.0707   29.8483   55.6464 H   0  0  0  0  0  0  0  0  0  0  0  0
   37.6825   27.5013   53.6291 H   0  0  0  0  0  0  0  0  0  0  0  0
   39.3259   26.9689   52.4041 H   0  0  0  0  0  0  0  0  0  0  0  0
   37.7784   27.9456   51.5675 H   0  0  0  0  0  0  0  0  0  0  0  0
   39.6267   27.7632   50.1795 H   0  0  0  0  0  0  0  0  0  0  0  0
   40.3831   31.3896   52.0598 H   0  0  0  0  0  0  0  0  0  0  0  0
   39.7338   31.1130   54.1787 H   0  0  0  0  0  0  0  0  0  0  0  0
   36.9729   31.4321   56.8155 H   0  0  0  0  0  0  0  0  0  0  0  0
   39.3169   32.8110   58.0900 H   0  0  0  0  0  0  0  0  0  0  0  0
   39.8132   32.0367   56.5470 H   0  0  0  0  0  0  0  0  0  0  0  0
   38.5412   33.3050   56.5470 H   0  0  0  0  0  0  0  0  0  0  0  0
   42.4495   28.2893   58.1532 H   0  0  0  0  0  0  0  0  0  0  0  0
   41.6761   27.2386   56.9184 H   0  0  0  0  0  0  0  0  0  0  0  0
   41.3599   29.0068   56.9184 H   0  0  0  0  0  0  0  0  0  0  0  0
   40.0489   27.6116   60.6312 H   0  0  0  0  0  0  0  0  0  0  0  0
   41.6650   28.2060   60.1198 H   0  0  0  0  0  0  0  0  0  0  0  0
   40.2566   29.3210   60.1198 H   0  0  0  0  0  0  0  0  0  0  0  0
   38.1816   25.7184   59.1032 H   0  0  0  0  0  0  0  0  0  0  0  0
   37.3951   26.2140   57.5662 H   0  0  0  0  0  0  0  0  0  0  0  0
   38.6163   24.8967   57.5662 H   0  0  0  0  0  0  0  0  0  0  0  0
   40.9487   25.4367   57.1938 H   0  0  0  0  0  0  0  0  0  0  0  0
   39.5364   25.4569   56.0841 H   0  0  0  0  0  0  0  0  0  0  0  0
   40.6983   26.8268   56.0841 H   0  0  0  0  0  0  0  0  0  0  0  0
   37.0573   37.2848   63.4737 H   0  0  0  0  0  0  0  0  0  0  0  0
   36.2851   38.6153   62.5463 H   0  0  0  0  0  0  0  0  0  0  0  0
   35.5502   36.9762   62.5463 H   0  0  0  0  0  0  0  0  0  0  0  0
  1  2  1  0
  2  3  1  0
  3  4  1  0
  4  5  1  0
  5  6  1  0
  6  7  1  0
  7  8  1  0
  8  9  1  0
  9 10  1  0
 10 11  1  0
 11 12  1  0
 12 13  1  0
 13 14  1  0
 14 15  1  0
 15 16  2  0
 16 17  1  0
 17 18  1  0
 18 19  2  0
 19 20  1  0
 20 21  1  0
 20 22  1  0
 20 23  1  0
 19 24  1  0
 24 25  2  0
 12 26  1  0
 26 27  1  0
 27 28  1  0
 11 29  1  0
 29 30  1  0
 29 31  1  0
 29 32  1  0
 32 33  1  0
 32 34  1  0
  3 35  1  0
 35 36  1  0
 35 37  2  0
 27  8  1  0
 32 11  1  0
 25 15  1  0
  1 38  1  0
  1 39  1  0
  1 40  1  0
  2 41  1  0
  2 42  1  0
  4 43  1  0
  4 44  1  0
  5 45  1  0
  5 46  1  0
  6 47  1  0
  6 48  1  0
  7 49  1  0
  7 50  1  0
  8 51  1  6
  9 52  1  0
  9 53  1  0
 10 54  1  0
 10 55  1  0
 12 56  1  0
 13 57  1  0
 13 58  1  0
 14 59  1  0
 14 60  1  0
 16 61  1  0
 17 62  1  0
 17 63  1  0
 18 64  1  0
 24 65  1  0
 25 66  1  0
 27 67  1  6
 28 68  1  0
 28 69  1  0
 28 70  1  0
 30 71  1  0
 30 72  1  0
 30 73  1  0
 31 74  1  0
 31 75  1  0
 31 76  1  0
 33 77  1  0
 33 78  1  0
 33 79  1  0
 34 80  1  0
 34 81  1  0
 34 82  1  0
 36 83  1  0
 36 84  1  0
 36 85  1  0
M  CHG  1   8   1
M  END

>  <ID>
DiffSBDD_79_num_sample_100

>  <docking_score>
-11.42

$$$$
DiffSBDD_7_num_sample_100
     RDKit          3D

 94 97  0  0  0  0  0  0  0  0999 V2000
   38.5470   36.0180   61.6140 C   0  0  0  0  0  0  0  0  0  0  0  0
   39.6620   36.7960   62.2780 C   0  0  0  0  0  0  0  0  0  0  0  0
   40.9730   35.9290   62.3190 C   0  0  0  0  0  0  0  0  0  0  0  0
   40.9100   34.6200   61.5310 N   0  0  0  0  0  0  0  0  0  0  0  0
   41.2980   33.3230   62.1210 C   0  0  0  0  0  0  0  0  0  0  0  0
   42.2590   32.8330   61.8300 O   0  0  0  0  0  0  0  0  0  0  0  0
   40.2080   32.6340   62.9440 C   0  0  1  0  0  0  0  0  0  0  0  0
   39.0490   32.2760   62.0330 C   0  0  0  0  0  0  0  0  0  0  0  0
   38.6240   31.2730   61.2920 C   0  0  2  0  0  0  0  0  0  0  0  0
   39.1350   29.7400   61.0760 C   0  0  0  0  0  0  0  0  0  0  0  0
   40.0060   29.2030   61.6580 O   0  0  0  0  0  0  0  0  0  0  0  0
   38.5860   29.0600   59.9310 N   0  0  0  0  0  0  0  0  0  0  0  0
   39.0120   27.6480   59.7120 C   0  0  0  0  0  0  0  0  0  0  0  0
   39.3620   27.3340   58.2900 C   0  0  2  0  0  0  0  0  0  0  0  0
   40.5610   27.3880   57.6030 C   0  0  0  0  0  0  0  0  0  0  0  0
   40.3160   27.3660   56.1320 C   0  0  0  0  0  0  0  0  0  0  0  0
   38.9490   27.3400   55.8640 C   0  0  1  0  0  0  0  0  0  0  0  0
   38.2500   27.8750   54.6820 C   0  0  2  0  0  0  0  0  0  0  0  0
   37.3260   26.8360   54.1020 O   0  0  0  0  0  0  0  0  0  0  0  0
   38.6810   28.6210   53.4230 C   0  0  0  0  0  0  0  0  0  0  0  0
   38.8700   27.9310   52.1840 C   0  0  0  0  0  0  0  0  0  0  0  0
   39.5850   28.6950   51.1200 C   0  0  0  0  0  0  0  0  0  0  0  0
   39.4300   28.4690   49.8040 F   0  0  0  0  0  0  0  0  0  0  0  0
   40.3070   29.8370   51.4750 C   0  0  0  0  0  0  0  0  0  0  0  0
   41.0610   30.4690   50.6280 F   0  0  0  0  0  0  0  0  0  0  0  0
   39.8860   30.5830   52.6620 C   0  0  0  0  0  0  0  0  0  0  0  0
   38.9840   30.0210   53.5200 C   0  0  0  0  0  0  0  0  0  0  0  0
   38.2220   30.7620   54.4870 C   0  0  0  0  0  0  0  0  0  0  0  0
   38.1140   31.7300   54.5680 O   0  0  0  0  0  0  0  0  0  0  0  0
   38.1990   26.6900   57.2280 S   0  0  0  0  0  0  0  0  0  0  0  0
   37.2960   29.6600   59.4170 C   0  0  0  0  0  0  0  0  0  0  0  0
   37.8800   31.4730   59.6100 P   0  0  1  0  0  5  0  0  0  0  0  0
   37.1500   33.0240   59.6760 O   0  0  0  0  0  0  0  0  0  0  0  0
   39.0110   31.8000   58.7130 O   0  0  0  0  0  0  0  0  0  0  0  0
   40.8910   32.4140   64.0530 C   0  0  2  0  0  0  0  0  0  0  0  0
   41.3440   33.4780   65.0800 C   0  0  0  0  0  0  0  0  0  0  0  0
   40.4380   34.6520   65.4350 C   0  0  0  0  0  0  0  0  0  0  0  0
   40.4870   35.3350   66.4890 C   0  0  0  0  0  0  0  0  0  0  0  0
   40.3760   35.6440   67.7740 C   0  0  0  0  0  0  0  0  0  0  0  0
   40.4350   34.6120   68.8410 C   0  0  0  0  0  0  0  0  0  0  0  0
   40.5650   33.5830   68.6350 C   0  0  0  0  0  0  0  0  0  0  0  0
   41.6610   32.2540   68.3350 S   0  0  0  0  0  0  0  0  0  0  0  0
   41.1600   31.0340   68.9670 O   0  0  0  0  0  0  0  0  0  0  0  0
   43.0770   33.0610   68.7490 O   0  0  0  0  0  0  0  0  0  0  0  0
   42.0470   31.4710   66.8390 O   0  0  0  0  0  0  0  0  0  0  0  0
   41.2320   30.8190   65.8690 C   0  0  0  0  0  0  0  0  0  0  0  0
   40.2690   30.0960   66.0180 O   0  0  0  0  0  0  0  0  0  0  0  0
   41.5320   31.0770   64.3700 C   0  0  2  0  0  0  0  0  0  0  0  0
   42.9150   30.8630   64.1060 C   0  0  0  0  0  0  0  0  0  0  0  0
   43.6580   29.5790   64.2270 C   0  0  0  0  0  0  0  0  0  0  0  0
   37.9036   35.5690   62.3850 H   0  0  0  0  0  0  0  0  0  0  0  0
   37.9495   36.6962   60.9871 H   0  0  0  0  0  0  0  0  0  0  0  0
   38.9774   35.2231   60.9871 H   0  0  0  0  0  0  0  0  0  0  0  0
   39.8525   37.7175   61.7083 H   0  0  0  0  0  0  0  0  0  0  0  0
   39.3636   37.0478   63.3064 H   0  0  0  0  0  0  0  0  0  0  0  0
   41.7948   36.5344   61.9090 H   0  0  0  0  0  0  0  0  0  0  0  0
   41.1203   35.6460   63.3717 H   0  0  0  0  0  0  0  0  0  0  0  0
   40.5850   34.6440   60.5540 H   0  0  0  0  0  0  0  0  0  0  0  0
   39.2858   32.5392   63.5361 H   0  0  0  0  0  0  0  0  0  0  0  0
   38.1895   32.4331   62.7013 H   0  0  0  0  0  0  0  0  0  0  0  0
   39.5029   32.7868   61.1709 H   0  0  0  0  0  0  0  0  0  0  0  0
   38.1458   31.4180   62.2719 H   0  0  0  0  0  0  0  0  0  0  0  0
   39.8951   27.4515   60.3377 H   0  0  0  0  0  0  0  0  0  0  0  0
   38.1558   27.0109   59.9786 H   0  0  0  0  0  0  0  0  0  0  0  0
   39.5703   26.2912   58.5715 H   0  0  0  0  0  0  0  0  0  0  0  0
   41.0902   28.3149   57.8689 H   0  0  0  0  0  0  0  0  0  0  0  0
   41.1704   26.5143   57.8774 H   0  0  0  0  0  0  0  0  0  0  0  0
   40.7565   28.2661   55.6784 H   0  0  0  0  0  0  0  0  0  0  0  0
   40.7782   26.4621   55.7085 H   0  0  0  0  0  0  0  0  0  0  0  0
   38.8310   28.3084   56.3721 H   0  0  0  0  0  0  0  0  0  0  0  0
   38.0279   28.7476   55.3139 H   0  0  0  0  0  0  0  0  0  0  0  0
   36.4750   27.2640   53.8320 H   0  0  0  0  0  0  0  0  0  0  0  0
   38.5113   26.9032   52.0258 H   0  0  0  0  0  0  0  0  0  0  0  0
   40.2919   31.5858   52.8609 H   0  0  0  0  0  0  0  0  0  0  0  0
   37.6887   30.1589   55.2366 H   0  0  0  0  0  0  0  0  0  0  0  0
   37.0795   29.3862   58.3738 H   0  0  0  0  0  0  0  0  0  0  0  0
   36.3588   29.3660   59.9122 H   0  0  0  0  0  0  0  0  0  0  0  0
   39.8162   32.5617   63.8716 H   0  0  0  0  0  0  0  0  0  0  0  0
   41.5466   32.9422   66.0191 H   0  0  0  0  0  0  0  0  0  0  0  0
   42.1893   33.9652   64.5719 H   0  0  0  0  0  0  0  0  0  0  0  0
   39.6685   34.9273   64.6988 H   0  0  0  0  0  0  0  0  0  0  0  0
   40.2359   36.6973   68.0586 H   0  0  0  0  0  0  0  0  0  0  0  0
   41.2707   34.8991   69.4961 H   0  0  0  0  0  0  0  0  0  0  0  0
   39.4058   34.6333   69.2287 H   0  0  0  0  0  0  0  0  0  0  0  0
   40.0128   33.1636   69.4889 H   0  0  0  0  0  0  0  0  0  0  0  0
   40.5625   33.8095   67.5586 H   0  0  0  0  0  0  0  0  0  0  0  0
   40.6570   30.5010   68.3020 H   0  0  0  0  0  0  0  0  0  0  0  0
   43.8580   32.5050   68.5030 H   0  0  0  0  0  0  0  0  0  0  0  0
   41.0880   30.3699   63.6538 H   0  0  0  0  0  0  0  0  0  0  0  0
   43.0567   31.1760   63.0610 H   0  0  0  0  0  0  0  0  0  0  0  0
   43.3458   31.4001   64.9639 H   0  0  0  0  0  0  0  0  0  0  0  0
   43.7988   29.3357   65.2905 H   0  0  0  0  0  0  0  0  0  0  0  0
   43.0848   28.7764   63.7400 H   0  0  0  0  0  0  0  0  0  0  0  0
   44.6395   29.6760   63.7400 H   0  0  0  0  0  0  0  0  0  0  0  0
  1  2  1  0
  2  3  1  0
  3  4  1  0
  4  5  1  0
  5  6  2  0
  5  7  1  0
  7  8  1  0
  8  9  1  0
  9 10  1  0
 10 11  2  0
 10 12  1  0
 12 13  1  0
 13 14  1  0
 14 15  1  0
 15 16  1  0
 16 17  1  0
 17 18  1  0
 18 19  1  0
 18 20  1  0
 20 21  2  0
 21 22  1  0
 22 23  1  0
 22 24  2  0
 24 25  1  0
 24 26  1  0
 26 27  2  0
 27 28  1  0
 28 29  2  0
 17 30  1  0
 12 31  1  0
 31 32  1  0
 32 33  2  0
 32 34  1  6
  7 35  1  0
 35 36  1  0
 36 37  1  0
 37 38  2  0
 38 39  2  0
 39 40  1  0
 40 41  1  0
 41 42  1  0
 42 43  1  0
 42 44  1  0
 42 45  1  0
 45 46  1  0
 46 47  2  0
 46 48  1  0
 48 49  1  0
 49 50  1  0
 32  9  1  0
 48 35  1  0
 30 14  1  0
 27 20  1  0
  1 51  1  0
  1 52  1  0
  1 53  1  0
  2 54  1  0
  2 55  1  0
  3 56  1  0
  3 57  1  0
  4 58  1  0
  7 59  1  1
  8 60  1  0
  8 61  1  0
  9 62  1  1
 13 63  1  0
 13 64  1  0
 14 65  1  6
 15 66  1  0
 15 67  1  0
 16 68  1  0
 16 69  1  0
 17 70  1  6
 18 71  1  1
 19 72  1  0
 21 73  1  0
 26 74  1  0
 28 75  1  0
 31 76  1  0
 31 77  1  0
 35 78  1  1
 36 79  1  0
 36 80  1  0
 37 81  1  0
 39 82  1  0
 40 83  1  0
 40 84  1  0
 41 85  1  0
 41 86  1  0
 43 87  1  0
 44 88  1  0
 48 89  1  6
 49 90  1  0
 49 91  1  0
 50 92  1  0
 50 93  1  0
 50 94  1  0
M  CHG  1  34  -1
M  END

>  <ID>
DiffSBDD_7_num_sample_100

>  <docking_score>
-11.108

$$$$
DiffSBDD_80_num_sample_100
     RDKit          3D

 72 75  0  0  0  0  0  0  0  0999 V2000
   40.8650   36.2520   62.6110 C   0  0  0  0  0  0  0  0  0  0  0  0
   40.5010   35.3540   61.7200 C   0  0  0  0  0  0  0  0  0  0  0  0
   40.9830   33.9120   61.8110 C   0  0  0  0  0  0  0  0  0  0  0  0
   41.6660   32.9950   62.8220 C   0  0  0  0  0  0  0  0  0  0  0  0
   42.0410   31.8810   62.5600 O   0  0  0  0  0  0  0  0  0  0  0  0
   39.3820   35.0730   60.8390 C   0  0  0  0  0  0  0  0  0  0  0  0
   39.6050   33.9910   59.9740 C   0  0  0  0  0  0  0  0  0  0  0  0
   38.3600   33.3040   59.4400 N   0  0  2  0  0  0  0  0  0  0  0  0
   38.2500   31.9680   59.2200 C   0  0  0  0  0  0  0  0  0  0  0  0
   38.6770   31.0300   59.5470 C   0  0  2  0  0  0  0  0  0  0  0  0
   38.6100   29.7410   59.0180 C   0  0  0  0  0  0  0  0  0  0  0  0
   39.7600   29.0900   57.9550 C   0  0  1  0  0  0  0  0  0  0  0  0
   40.5940   28.0960   58.9260 C   0  0  0  0  0  0  0  0  0  0  0  0
   41.4160   27.3120   57.9610 O   0  0  0  0  0  0  0  0  0  0  0  0
   39.4610   28.3710   56.7230 C   0  0  2  0  0  0  0  0  0  0  0  0
   39.8540   28.8830   55.6260 O   0  0  0  0  0  0  0  0  0  0  0  0
   38.8260   28.4940   54.6130 C   0  0  1  0  0  0  0  0  0  0  0  0
   39.1940   28.8440   53.1680 C   0  0  0  0  0  0  0  0  0  0  0  0
   39.3980   27.9650   52.2060 C   0  0  0  0  0  0  0  0  0  0  0  0
   39.7600   28.5170   50.7970 C   0  0  0  0  0  0  0  0  0  0  0  0
   40.2000   29.8190   50.8830 C   0  0  0  0  0  0  0  0  0  0  0  0
   40.9620   30.1430   49.9550 O   0  0  0  0  0  0  0  0  0  0  0  0
   39.8380   30.7470   51.8580 C   0  0  0  0  0  0  0  0  0  0  0  0
   39.3370   30.2110   53.0770 C   0  0  0  0  0  0  0  0  0  0  0  0
   39.0530   31.1280   54.0950 O   0  0  0  0  0  0  0  0  0  0  0  0
   37.9010   27.4390   55.3280 C   0  0  0  0  0  0  0  0  0  0  0  0
   38.2320   27.5120   56.8050 C   0  0  1  0  0  0  0  0  0  0  0  0
   38.6020   26.2900   57.2830 O   0  0  0  0  0  0  0  0  0  0  0  0
   37.4240   30.0920   59.9080 C   0  0  2  0  0  0  0  0  0  0  0  0
   36.6380   30.0560   58.5120 O   0  0  0  0  0  0  0  0  0  0  0  0
   37.1410   34.0430   59.2100 C   0  0  0  0  0  0  0  0  0  0  0  0
   37.0390   35.4570   59.7250 C   0  0  0  0  0  0  0  0  0  0  0  0
   38.0670   35.7770   60.6860 C   0  0  2  0  0  0  0  0  0  0  0  0
   37.8200   37.0910   61.1520 O   0  0  0  0  0  0  0  0  0  0  0  0
   37.0400   36.9290   62.4100 C   0  0  0  0  0  0  0  0  0  0  0  0
   40.5052   37.2880   62.5264 H   0  0  0  0  0  0  0  0  0  0  0  0
   41.5290   35.9664   63.4402 H   0  0  0  0  0  0  0  0  0  0  0  0
   40.0625   33.3530   61.5868 H   0  0  0  0  0  0  0  0  0  0  0  0
   41.9220   34.1279   61.2803 H   0  0  0  0  0  0  0  0  0  0  0  0
   41.8240   33.3714   63.8435 H   0  0  0  0  0  0  0  0  0  0  0  0
   39.8007   35.7594   60.0883 H   0  0  0  0  0  0  0  0  0  0  0  0
   40.1821   34.3603   59.1134 H   0  0  0  0  0  0  0  0  0  0  0  0
   40.1307   33.2330   60.5732 H   0  0  0  0  0  0  0  0  0  0  0  0
   38.0180   33.1740   60.4030 H   0  0  0  0  0  0  0  0  0  0  0  0
   37.1832   31.8031   59.4314 H   0  0  0  0  0  0  0  0  0  0  0  0
   38.9108   32.0134   58.3418 H   0  0  0  0  0  0  0  0  0  0  0  0
   39.6021   31.5145   59.8926 H   0  0  0  0  0  0  0  0  0  0  0  0
   38.0344   30.1223   58.1617 H   0  0  0  0  0  0  0  0  0  0  0  0
   40.2124   29.9772   57.4878 H   0  0  0  0  0  0  0  0  0  0  0  0
   41.2308   28.6624   59.6214 H   0  0  0  0  0  0  0  0  0  0  0  0
   39.9538   27.4698   59.5647 H   0  0  0  0  0  0  0  0  0  0  0  0
   40.8520   27.0340   57.1970 H   0  0  0  0  0  0  0  0  0  0  0  0
   40.2121   27.5729   56.6292 H   0  0  0  0  0  0  0  0  0  0  0  0
   37.9533   28.9582   54.1305 H   0  0  0  0  0  0  0  0  0  0  0  0
   39.3154   26.8841   52.3925 H   0  0  0  0  0  0  0  0  0  0  0  0
   40.5547   27.8954   50.3588 H   0  0  0  0  0  0  0  0  0  0  0  0
   38.8608   28.4885   50.1641 H   0  0  0  0  0  0  0  0  0  0  0  0
   39.9341   31.8305   51.6945 H   0  0  0  0  0  0  0  0  0  0  0  0
   36.8422   27.6872   55.1626 H   0  0  0  0  0  0  0  0  0  0  0  0
   38.0691   26.4270   54.9310 H   0  0  0  0  0  0  0  0  0  0  0  0
   37.4097   27.8635   57.4455 H   0  0  0  0  0  0  0  0  0  0  0  0
   37.8540   25.6510   57.1680 H   0  0  0  0  0  0  0  0  0  0  0  0
   36.8419   29.9115   60.8237 H   0  0  0  0  0  0  0  0  0  0  0  0
   35.7550   29.6300   58.6420 H   0  0  0  0  0  0  0  0  0  0  0  0
   36.9885   34.0839   58.1214 H   0  0  0  0  0  0  0  0  0  0  0  0
   36.3844   33.4941   59.7898 H   0  0  0  0  0  0  0  0  0  0  0  0
   37.1259   36.1483   58.8738 H   0  0  0  0  0  0  0  0  0  0  0  0
   36.0682   35.5556   60.2328 H   0  0  0  0  0  0  0  0  0  0  0  0
   38.0992   34.9962   61.4601 H   0  0  0  0  0  0  0  0  0  0  0  0
   37.7058   37.0673   63.2746 H   0  0  0  0  0  0  0  0  0  0  0  0
   36.2364   37.6794   62.4424 H   0  0  0  0  0  0  0  0  0  0  0  0
   36.6016   35.9206   62.4424 H   0  0  0  0  0  0  0  0  0  0  0  0
  1  2  2  0
  2  3  1  0
  3  4  1  0
  4  5  2  0
  2  6  1  0
  6  7  1  0
  7  8  1  0
  8  9  1  0
  9 10  1  0
 10 11  1  0
 11 12  1  0
 12 13  1  0
 13 14  1  0
 12 15  1  0
 15 16  1  0
 16 17  1  0
 17 18  1  0
 18 19  2  0
 19 20  1  0
 20 21  1  0
 21 22  2  0
 21 23  1  0
 23 24  2  0
 24 25  1  0
 17 26  1  0
 26 27  1  0
 27 28  1  0
 11 29  1  0
 29 30  1  0
  8 31  1  0
 31 32  1  0
 32 33  1  0
 33 34  1  0
 34 35  1  0
 33  6  1  0
 29 10  1  0
 27 15  1  0
 24 18  1  0
  1 36  1  0
  1 37  1  0
  3 38  1  0
  3 39  1  0
  4 40  1  0
  6 41  1  0
  7 42  1  0
  7 43  1  0
  8 44  1  6
  9 45  1  0
  9 46  1  0
 10 47  1  1
 11 48  1  0
 12 49  1  6
 13 50  1  0
 13 51  1  0
 14 52  1  0
 15 53  1  1
 17 54  1  1
 19 55  1  0
 20 56  1  0
 20 57  1  0
 23 58  1  0
 26 59  1  0
 26 60  1  0
 27 61  1  1
 28 62  1  0
 29 63  1  1
 30 64  1  0
 31 65  1  0
 31 66  1  0
 32 67  1  0
 32 68  1  0
 33 69  1  1
 35 70  1  0
 35 71  1  0
 35 72  1  0
M  CHG  2   8   1  25  -1
M  END

>  <ID>
DiffSBDD_80_num_sample_100

>  <docking_score>
-10.001

$$$$
DiffSBDD_81_num_sample_100
     RDKit          3D

 56 57  0  0  0  0  0  0  0  0999 V2000
   38.3310   32.6720   57.4250 C   0  0  0  0  0  0  0  0  0  0  0  0
   37.9840   33.4190   56.2880 N   0  0  0  0  0  0  0  0  0  0  0  0
   38.5860   32.5710   55.8450 C   0  0  1  0  0  0  0  0  0  0  0  0
   38.3780   32.0470   57.0820 O   0  0  0  0  0  0  0  0  0  0  0  0
   38.8860   31.4640   55.1930 C   0  0  0  0  0  0  0  0  0  0  0  0
   39.7710   30.4670   54.8660 C   0  0  1  0  0  0  0  0  0  0  0  0
   39.6720   29.1940   55.9230 C   0  0  0  0  0  0  0  0  0  0  0  0
   38.3350   28.5620   56.4200 C   0  0  0  0  0  0  0  0  0  0  0  0
   38.4220   27.1140   56.6050 C   0  0  1  0  0  0  0  0  0  0  0  0
   38.3770   26.3300   55.4000 C   0  0  0  0  0  0  0  0  0  0  0  0
   37.2580   25.5170   55.2980 C   0  0  0  0  0  0  0  0  0  0  0  0
   37.0460   24.8770   56.6320 O   0  0  0  0  0  0  0  0  0  0  0  0
   38.4440   24.5620   57.0230 C   0  0  0  0  0  0  0  0  0  0  0  0
   38.8770   25.2700   58.1820 C   0  0  0  0  0  0  0  0  0  0  0  0
   38.8470   26.7470   58.0130 C   0  0  2  0  0  0  0  0  0  0  0  0
   39.0740   27.3480   59.2720 O   0  0  0  0  0  0  0  0  0  0  0  0
   40.3180   28.1330   59.4890 C   0  0  0  0  0  0  0  0  0  0  0  0
   39.4810   30.8120   53.7770 C   0  0  0  0  0  0  0  0  0  0  0  0
   39.4410   30.2460   52.9790 C   0  0  0  0  0  0  0  0  0  0  0  0
   40.2010   30.5490   51.9480 C   0  0  0  0  0  0  0  0  0  0  0  0
   40.2080   29.7550   50.9660 C   0  0  0  0  0  0  0  0  0  0  0  0
   39.4450   28.6160   51.2350 C   0  0  0  0  0  0  0  0  0  0  0  0
   39.3860   27.4570   50.6250 O   0  0  0  0  0  0  0  0  0  0  0  0
   38.8100   28.8790   52.6420 S   0  0  0  0  0  0  0  0  0  0  0  0
   38.0678   33.2386   58.3304 H   0  0  0  0  0  0  0  0  0  0  0  0
   37.7840   31.7177   57.4177 H   0  0  0  0  0  0  0  0  0  0  0  0
   39.4131   32.4744   57.4177 H   0  0  0  0  0  0  0  0  0  0  0  0
   38.3890   34.3630   56.2130 H   0  0  0  0  0  0  0  0  0  0  0  0
   37.0370   33.7130   56.0100 H   0  0  0  0  0  0  0  0  0  0  0  0
   39.0694   33.0714   54.9930 H   0  0  0  0  0  0  0  0  0  0  0  0
   39.1940   32.1600   57.6300 H   0  0  0  0  0  0  0  0  0  0  0  0
   38.0647   30.8330   55.5635 H   0  0  0  0  0  0  0  0  0  0  0  0
   39.3278   32.0823   54.3977 H   0  0  0  0  0  0  0  0  0  0  0  0
   40.8333   30.1864   54.9197 H   0  0  0  0  0  0  0  0  0  0  0  0
   40.2300   28.3724   55.4501 H   0  0  0  0  0  0  0  0  0  0  0  0
   40.0303   29.6684   56.8485 H   0  0  0  0  0  0  0  0  0  0  0  0
   38.0656   29.0228   57.3818 H   0  0  0  0  0  0  0  0  0  0  0  0
   37.5748   28.7501   55.6476 H   0  0  0  0  0  0  0  0  0  0  0  0
   37.6772   26.3166   56.7443 H   0  0  0  0  0  0  0  0  0  0  0  0
   38.3857   27.0161   54.5403 H   0  0  0  0  0  0  0  0  0  0  0  0
   39.2530   25.6651   55.4198 H   0  0  0  0  0  0  0  0  0  0  0  0
   36.3789   26.1199   55.0265 H   0  0  0  0  0  0  0  0  0  0  0  0
   37.4031   24.7531   54.5199 H   0  0  0  0  0  0  0  0  0  0  0  0
   38.5156   23.4832   57.2255 H   0  0  0  0  0  0  0  0  0  0  0  0
   39.0933   24.8706   56.1904 H   0  0  0  0  0  0  0  0  0  0  0  0
   38.2193   25.0010   59.0217 H   0  0  0  0  0  0  0  0  0  0  0  0
   39.9229   24.9840   58.3673 H   0  0  0  0  0  0  0  0  0  0  0  0
   39.1608   27.7741   57.7750 H   0  0  0  0  0  0  0  0  0  0  0  0
   40.4968   28.2458   60.5685 H   0  0  0  0  0  0  0  0  0  0  0  0
   41.1681   27.6074   59.0295 H   0  0  0  0  0  0  0  0  0  0  0  0
   40.2095   29.1265   59.0295 H   0  0  0  0  0  0  0  0  0  0  0  0
   38.4738   31.2439   53.8723 H   0  0  0  0  0  0  0  0  0  0  0  0
   40.3706   31.4108   53.5320 H   0  0  0  0  0  0  0  0  0  0  0  0
   40.8106   31.4646   51.9419 H   0  0  0  0  0  0  0  0  0  0  0  0
   39.7908   30.2675   50.0866 H   0  0  0  0  0  0  0  0  0  0  0  0
   41.2457   29.4436   50.7757 H   0  0  0  0  0  0  0  0  0  0  0  0
  1  2  1  0
  2  3  1  0
  3  4  1  0
  3  5  1  0
  5  6  1  0
  6  7  1  0
  7  8  1  0
  8  9  1  0
  9 10  1  0
 10 11  1  0
 11 12  1  0
 12 13  1  0
 13 14  1  0
 14 15  1  0
 15 16  1  0
 16 17  1  0
  6 18  1  0
 18 19  1  0
 19 20  2  0
 20 21  1  0
 21 22  1  0
 22 23  2  0
 22 24  1  0
 15  9  1  0
 24 19  1  0
  1 25  1  0
  1 26  1  0
  1 27  1  0
  2 28  1  0
  2 29  1  0
  3 30  1  1
  4 31  1  0
  5 32  1  0
  5 33  1  0
  6 34  1  1
  7 35  1  0
  7 36  1  0
  8 37  1  0
  8 38  1  0
  9 39  1  1
 10 40  1  0
 10 41  1  0
 11 42  1  0
 11 43  1  0
 13 44  1  0
 13 45  1  0
 14 46  1  0
 14 47  1  0
 15 48  1  6
 17 49  1  0
 17 50  1  0
 17 51  1  0
 18 52  1  0
 18 53  1  0
 20 54  1  0
 21 55  1  0
 21 56  1  0
M  CHG  1   2   1
M  END

>  <ID>
DiffSBDD_81_num_sample_100

>  <docking_score>
-8.39

$$$$
DiffSBDD_82_num_sample_100
     RDKit          3D

 56 58  0  0  0  0  0  0  0  0999 V2000
   38.4040   30.0870   60.5640 C   0  0  0  0  0  0  0  0  0  0  0  0
   38.8120   30.1220   59.1400 C   0  0  0  0  0  0  0  0  0  0  0  0
   38.3110   31.2010   58.6050 C   0  0  0  0  0  0  0  0  0  0  0  0
   38.3450   32.4380   58.1520 C   0  0  0  0  0  0  0  0  0  0  0  0
   38.3700   33.5860   59.0820 C   0  0  0  0  0  0  0  0  0  0  0  0
   37.6090   34.3780   60.1100 C   0  0  1  0  0  0  0  0  0  0  0  0
   36.6530   33.6490   61.1340 C   0  0  0  0  0  0  0  0  0  0  0  0
   38.0400   35.7110   60.5300 C   0  0  0  0  0  0  0  0  0  0  0  0
   37.4300   36.9290   59.9530 C   0  0  0  0  0  0  0  0  0  0  0  0
   37.8560   38.1020   60.3950 O   0  0  0  0  0  0  0  0  0  0  0  0
   36.4190   36.6710   59.1850 O   0  0  0  0  0  0  0  0  0  0  0  0
   39.0970   35.9070   61.6400 C   0  0  0  0  0  0  0  0  0  0  0  0
   38.7120   36.6160   62.8490 O   0  0  0  0  0  0  0  0  0  0  0  0
   40.6490   35.4830   61.3820 S   0  0  0  0  0  0  0  0  0  0  0  0
   38.3300   32.5450   56.6540 C   0  0  1  0  0  0  0  0  0  0  0  0
   38.3300   33.4560   55.9270 F   0  0  0  0  0  0  0  0  0  0  0  0
   38.7130   31.2560   56.1850 N   0  0  0  0  0  0  0  0  0  0  0  0
   39.0250   30.0580   56.8030 C   0  0  0  0  0  0  0  0  0  0  0  0
   39.4120   28.8290   55.5350 S   0  0  0  0  0  0  0  0  0  0  0  0
   39.0780   27.1940   54.8520 C   0  0  2  0  0  0  0  0  0  0  0  0
   40.1930   26.3440   55.4850 C   0  0  0  0  0  0  0  0  0  0  0  0
   39.1110   27.3890   53.3220 N   0  0  0  0  0  0  0  0  0  0  0  0
   39.0220   28.6500   52.5710 C   0  0  0  0  0  0  0  0  0  0  0  0
   39.6370   29.5200   52.1080 C   0  0  0  0  0  0  0  0  0  0  0  0
   40.2540   29.9270   50.8430 C   0  0  0  0  0  0  0  0  0  0  0  0
   39.5180   28.5570   51.1540 C   0  0  0  0  0  0  0  0  0  0  0  0
   37.7260   26.0530   54.7640 O   0  0  0  0  0  0  0  0  0  0  0  0
   37.0770   25.4020   55.7470 C   0  0  1  0  0  0  0  0  0  0  0  0
   36.9710   24.2000   55.5090 C   0  0  0  0  0  0  0  0  0  0  0  0
   37.1070   25.0470   56.5580 O   0  0  0  0  0  0  0  0  0  0  0  0
   38.9920   29.5400   57.9640 N   0  0  0  0  0  0  0  0  0  0  0  0
   39.2961   30.1635   61.2030 H   0  0  0  0  0  0  0  0  0  0  0  0
   37.7297   30.9306   60.7731 H   0  0  0  0  0  0  0  0  0  0  0  0
   37.8833   29.1409   60.7731 H   0  0  0  0  0  0  0  0  0  0  0  0
   39.2621   33.3272   59.6713 H   0  0  0  0  0  0  0  0  0  0  0  0
   37.9817   34.2404   58.2876 H   0  0  0  0  0  0  0  0  0  0  0  0
   36.9545   34.6351   59.2641 H   0  0  0  0  0  0  0  0  0  0  0  0
   36.9658   33.8875   62.1613 H   0  0  0  0  0  0  0  0  0  0  0  0
   35.6191   33.9900   60.9770 H   0  0  0  0  0  0  0  0  0  0  0  0
   36.7083   32.5617   60.9770 H   0  0  0  0  0  0  0  0  0  0  0  0
   37.4356   33.1694   56.5118 H   0  0  0  0  0  0  0  0  0  0  0  0
   40.1194   26.4001   56.5811 H   0  0  0  0  0  0  0  0  0  0  0  0
   40.0840   25.2978   55.1633 H   0  0  0  0  0  0  0  0  0  0  0  0
   41.1730   26.7263   55.1633 H   0  0  0  0  0  0  0  0  0  0  0  0
   38.3290   26.8180   52.9680 H   0  0  0  0  0  0  0  0  0  0  0  0
   38.2129   28.8000   53.3010 H   0  0  0  0  0  0  0  0  0  0  0  0
   40.5700   29.0164   52.4011 H   0  0  0  0  0  0  0  0  0  0  0  0
   39.7882   30.6904   50.2025 H   0  0  0  0  0  0  0  0  0  0  0  0
   41.2379   30.2635   50.4842 H   0  0  0  0  0  0  0  0  0  0  0  0
   40.4656   28.1296   51.5137 H   0  0  0  0  0  0  0  0  0  0  0  0
   36.6005   26.3934   55.7563 H   0  0  0  0  0  0  0  0  0  0  0  0
   36.9218   23.6417   56.4555 H   0  0  0  0  0  0  0  0  0  0  0  0
   36.0535   24.0205   54.9293 H   0  0  0  0  0  0  0  0  0  0  0  0
   37.8429   23.8627   54.9293 H   0  0  0  0  0  0  0  0  0  0  0  0
   38.0290   25.1130   56.9130 H   0  0  0  0  0  0  0  0  0  0  0  0
   39.1250   28.5190   57.9940 H   0  0  0  0  0  0  0  0  0  0  0  0
  1  2  1  0
  2  3  2  0
  3  4  2  0
  4  5  1  0
  5  6  1  0
  6  7  1  0
  6  8  1  0
  8  9  1  0
  9 10  2  0
  9 11  1  0
  8 12  1  0
 12 13  2  0
 12 14  1  0
  4 15  1  0
 15 16  1  0
 15 17  1  0
 17 18  2  0
 18 19  1  0
 19 20  1  0
 20 21  1  0
 20 22  1  0
 22 23  1  0
 23 24  1  0
 24 25  1  0
 25 26  1  0
 20 27  1  1
 27 28  1  0
 28 29  1  0
 28 30  1  0
 18 31  1  0
 31  2  1  0
 26 23  1  0
 26 24  1  0
  1 32  1  0
  1 33  1  0
  1 34  1  0
  5 35  1  0
  5 36  1  0
  6 37  1  6
  7 38  1  0
  7 39  1  0
  7 40  1  0
 15 41  1  6
 21 42  1  0
 21 43  1  0
 21 44  1  0
 22 45  1  0
 23 46  1  0
 24 47  1  0
 25 48  1  0
 25 49  1  0
 26 50  1  0
 28 51  1  1
 29 52  1  0
 29 53  1  0
 29 54  1  0
 30 55  1  0
 31 56  1  0
M  CHG  3   8  -1  11  -1  14  -1
M  END

>  <ID>
DiffSBDD_82_num_sample_100

>  <docking_score>
-9.846

$$$$
DiffSBDD_83_num_sample_100
     RDKit          3D

 66 69  0  0  0  0  0  0  0  0999 V2000
   35.6650   38.7500   62.2840 C   0  0  0  0  0  0  0  0  0  0  0  0
   36.1160   38.2220   61.2700 O   0  0  0  0  0  0  0  0  0  0  0  0
   37.1860   37.4360   61.3300 C   0  0  0  0  0  0  0  0  0  0  0  0
   38.0060   37.5230   62.4290 C   0  0  0  0  0  0  0  0  0  0  0  0
   39.0630   36.6300   62.4260 C   0  0  0  0  0  0  0  0  0  0  0  0
   39.1610   35.5930   61.5020 C   0  0  0  0  0  0  0  0  0  0  0  0
   40.0350   34.8330   61.8630 O   0  0  0  0  0  0  0  0  0  0  0  0
   40.2410   33.5600   62.0640 C   0  0  1  0  0  0  0  0  0  0  0  0
   40.9940   33.5780   63.4760 C   0  0  0  0  0  0  0  0  0  0  0  0
   40.8640   32.3600   64.2130 C   0  0  0  0  0  0  0  0  0  0  0  0
   41.2370   32.2680   65.6560 C   0  0  0  0  0  0  0  0  0  0  0  0
   41.9820   33.4600   66.0490 C   0  0  0  0  0  0  0  0  0  0  0  0
   42.3410   33.4990   67.3330 O   0  0  0  0  0  0  0  0  0  0  0  0
   42.1740   34.4940   65.2160 C   0  0  0  0  0  0  0  0  0  0  0  0
   41.7640   34.5900   63.8250 C   0  0  0  0  0  0  0  0  0  0  0  0
   39.2190   32.5200   61.9260 C   0  0  1  0  0  0  0  0  0  0  0  0
   38.2510   31.9800   61.6390 O   0  0  0  0  0  0  0  0  0  0  0  0
   39.0780   32.0690   60.5250 C   0  0  2  0  0  0  0  0  0  0  0  0
   38.5200   30.4860   60.2360 C   0  0  0  0  0  0  0  0  0  0  0  0
   37.8800   30.3860   59.0120 C   0  0  2  0  0  0  0  0  0  0  0  0
   36.4560   29.7160   58.9460 C   0  0  0  0  0  0  0  0  0  0  0  0
   38.7030   29.3680   58.4790 N   0  0  0  0  0  0  0  0  0  0  0  0
   39.0150   29.2510   57.2770 C   0  0  0  0  0  0  0  0  0  0  0  0
   39.2490   30.1430   56.6090 O   0  0  0  0  0  0  0  0  0  0  0  0
   39.0580   27.9390   56.5420 C   0  0  1  0  0  0  0  0  0  0  0  0
   40.8830   27.7330   57.0520 C   0  0  0  0  0  0  0  0  0  0  0  0
   41.1310   27.6760   58.3120 O   0  0  0  0  0  0  0  0  0  0  0  0
   39.1900   26.8890   55.9090 C   0  0  1  0  0  0  0  0  0  0  0  0
   39.3940   25.4580   56.3200 C   0  0  0  0  0  0  0  0  0  0  0  0
   39.0350   24.6650   55.3140 O   0  0  0  0  0  0  0  0  0  0  0  0
   37.9320   27.4630   55.5860 N   0  0  0  0  0  0  0  0  0  0  0  0
   37.4600   27.5010   54.2970 C   0  0  0  0  0  0  0  0  0  0  0  0
   37.2160   28.8310   53.7110 C   0  0  0  0  0  0  0  0  0  0  0  0
   37.1670   26.4570   53.7740 O   0  0  0  0  0  0  0  0  0  0  0  0
   38.3860   35.5950   60.3950 C   0  0  0  0  0  0  0  0  0  0  0  0
   37.3530   36.5350   60.3440 C   0  0  0  0  0  0  0  0  0  0  0  0
   36.0862   38.2569   63.1725 H   0  0  0  0  0  0  0  0  0  0  0  0
   35.9355   39.8162   62.2935 H   0  0  0  0  0  0  0  0  0  0  0  0
   34.5696   38.6495   62.2935 H   0  0  0  0  0  0  0  0  0  0  0  0
   37.8364   38.2426   63.2435 H   0  0  0  0  0  0  0  0  0  0  0  0
   39.8548   36.7435   63.1811 H   0  0  0  0  0  0  0  0  0  0  0  0
   40.7760   33.1758   61.1830 H   0  0  0  0  0  0  0  0  0  0  0  0
   40.4783   31.4652   63.7026 H   0  0  0  0  0  0  0  0  0  0  0  0
   40.9880   31.4288   66.3221 H   0  0  0  0  0  0  0  0  0  0  0  0
   42.4400   32.6580   67.8450 H   0  0  0  0  0  0  0  0  0  0  0  0
   42.7001   35.3659   65.6320 H   0  0  0  0  0  0  0  0  0  0  0  0
   42.0592   35.4051   63.1479 H   0  0  0  0  0  0  0  0  0  0  0  0
   39.4551   32.5847   62.9984 H   0  0  0  0  0  0  0  0  0  0  0  0
   39.5541   32.4653   59.6160 H   0  0  0  0  0  0  0  0  0  0  0  0
   39.3779   29.7976   60.2474 H   0  0  0  0  0  0  0  0  0  0  0  0
   37.7975   30.2269   61.0239 H   0  0  0  0  0  0  0  0  0  0  0  0
   37.7489   31.3882   58.5780 H   0  0  0  0  0  0  0  0  0  0  0  0
   36.0852   29.5415   59.9668 H   0  0  0  0  0  0  0  0  0  0  0  0
   35.7618   30.3820   58.4125 H   0  0  0  0  0  0  0  0  0  0  0  0
   36.5265   28.7566   58.4125 H   0  0  0  0  0  0  0  0  0  0  0  0
   39.0750   28.6670   59.1360 H   0  0  0  0  0  0  0  0  0  0  0  0
   41.6861   27.6660   56.3034 H   0  0  0  0  0  0  0  0  0  0  0  0
   40.0732   26.5763   55.3327 H   0  0  0  0  0  0  0  0  0  0  0  0
   40.4540   25.2908   56.5617 H   0  0  0  0  0  0  0  0  0  0  0  0
   38.7830   25.2344   57.2069 H   0  0  0  0  0  0  0  0  0  0  0  0
   38.8810   23.7490   55.6550 H   0  0  0  0  0  0  0  0  0  0  0  0
   37.0809   29.5675   54.5168 H   0  0  0  0  0  0  0  0  0  0  0  0
   38.0759   29.1212   53.0894 H   0  0  0  0  0  0  0  0  0  0  0  0
   36.3091   28.7970   53.0894 H   0  0  0  0  0  0  0  0  0  0  0  0
   38.5605   34.8881   59.5705 H   0  0  0  0  0  0  0  0  0  0  0  0
   36.6659   36.5386   59.4850 H   0  0  0  0  0  0  0  0  0  0  0  0
  1  2  1  0
  2  3  1  0
  3  4  2  0
  4  5  1  0
  5  6  2  0
  6  7  1  0
  7  8  1  0
  8  9  1  0
  9 10  2  0
 10 11  1  0
 11 12  2  0
 12 13  1  0
 12 14  1  0
 14 15  2  0
  8 16  1  0
 16 17  1  0
 17 18  1  0
 18 19  1  0
 19 20  1  0
 20 21  1  0
 20 22  1  0
 22 23  1  0
 23 24  2  0
 25 23  1  1
 25 26  1  0
 26 27  2  0
 25 28  1  0
 28 29  1  0
 29 30  1  0
 28 31  1  0
 31 32  1  0
 32 33  1  0
 32 34  2  0
  6 35  1  0
 35 36  2  0
 36  3  1  0
 15  9  1  0
 18 16  1  0
 31 25  1  0
  1 37  1  0
  1 38  1  0
  1 39  1  0
  4 40  1  0
  5 41  1  0
  8 42  1  6
 10 43  1  0
 11 44  1  0
 13 45  1  0
 14 46  1  0
 15 47  1  0
 16 48  1  1
 18 49  1  6
 19 50  1  0
 19 51  1  0
 20 52  1  6
 21 53  1  0
 21 54  1  0
 21 55  1  0
 22 56  1  0
 26 57  1  0
 28 58  1  6
 29 59  1  0
 29 60  1  0
 30 61  1  0
 33 62  1  0
 33 63  1  0
 33 64  1  0
 35 65  1  0
 36 66  1  0
M  END

>  <ID>
DiffSBDD_83_num_sample_100

>  <docking_score>
-9.601

$$$$
DiffSBDD_84_num_sample_100
     RDKit          3D

 49 51  0  0  0  0  0  0  0  0999 V2000
   37.6840   29.4110   58.0440 C   0  0  0  0  0  0  0  0  0  0  0  0
   38.4820   29.6830   56.9820 C   0  0  0  0  0  0  0  0  0  0  0  0
   38.7600   28.6100   56.1540 C   0  0  0  0  0  0  0  0  0  0  0  0
   39.1800   28.9220   54.8090 C   0  0  0  0  0  0  0  0  0  0  0  0
   39.3310   30.2660   54.4550 C   0  0  0  0  0  0  0  0  0  0  0  0
   39.8510   30.6480   52.7870 Cl  0  0  0  0  0  0  0  0  0  0  0  0
   39.1760   31.3440   55.3530 C   0  0  0  0  0  0  0  0  0  0  0  0
   38.7920   30.8590   56.8590 C   0  0  0  0  0  0  0  0  0  0  0  0
   38.4800   32.3940   57.2690 C   0  0  1  0  0  0  0  0  0  0  0  0
   38.2020   32.9840   58.1870 C   0  0  0  0  0  0  0  0  0  0  0  0
   37.3020   34.0250   58.4990 N   0  0  0  0  0  0  0  0  0  0  0  0
   36.8240   34.4080   59.7470 C   0  0  2  0  0  0  0  0  0  0  0  0
   35.4180   33.7920   59.7950 N   0  0  0  0  0  0  0  0  0  0  0  0
   36.8070   35.8770   60.0560 C   0  0  0  0  0  0  0  0  0  0  0  0
   38.0960   36.3810   60.6730 C   0  0  1  0  0  0  0  0  0  0  0  0
   38.1290   37.8000   61.2700 C   0  0  0  0  0  0  0  0  0  0  0  0
   39.3790   37.9740   62.1160 C   0  0  0  0  0  0  0  0  0  0  0  0
   39.9820   36.5470   62.3030 C   0  0  2  0  0  0  0  0  0  0  0  0
   41.3050   35.6820   62.7140 C   0  0  0  0  0  0  0  0  0  0  0  0
   41.9730   36.2840   63.7890 O   0  0  0  0  0  0  0  0  0  0  0  0
   39.2860   35.6930   61.2390 C   0  0  0  0  0  0  0  0  0  0  0  0
   38.9850   32.7670   55.8020 C   0  0  0  0  0  0  0  0  0  0  0  0
   38.2370   29.5995   58.9760 H   0  0  0  0  0  0  0  0  0  0  0  0
   36.7940   30.0565   58.0088 H   0  0  0  0  0  0  0  0  0  0  0  0
   37.3736   28.3563   58.0088 H   0  0  0  0  0  0  0  0  0  0  0  0
   38.6656   27.5712   56.5033 H   0  0  0  0  0  0  0  0  0  0  0  0
   39.3765   28.1219   54.0802 H   0  0  0  0  0  0  0  0  0  0  0  0
   37.8819   32.8280   58.0838 H   0  0  0  0  0  0  0  0  0  0  0  0
   38.7811   32.6673   59.0670 H   0  0  0  0  0  0  0  0  0  0  0  0
   36.9530   34.5710   57.6980 H   0  0  0  0  0  0  0  0  0  0  0  0
   37.5125   34.0514   60.5272 H   0  0  0  0  0  0  0  0  0  0  0  0
   34.7470   34.4940   60.1390 H   0  0  0  0  0  0  0  0  0  0  0  0
   35.1430   33.4900   58.8490 H   0  0  0  0  0  0  0  0  0  0  0  0
   35.4200   32.9790   60.4270 H   0  0  0  0  0  0  0  0  0  0  0  0
   36.6307   36.4274   59.1201 H   0  0  0  0  0  0  0  0  0  0  0  0
   36.0089   36.0425   60.7947 H   0  0  0  0  0  0  0  0  0  0  0  0
   38.1782   36.0195   59.6374 H   0  0  0  0  0  0  0  0  0  0  0  0
   38.1339   38.5389   60.4551 H   0  0  0  0  0  0  0  0  0  0  0  0
   37.2402   37.9492   61.9007 H   0  0  0  0  0  0  0  0  0  0  0  0
   40.0991   38.6276   61.6020 H   0  0  0  0  0  0  0  0  0  0  0  0
   39.1451   38.4398   63.0847 H   0  0  0  0  0  0  0  0  0  0  0  0
   40.0395   36.8692   63.3532 H   0  0  0  0  0  0  0  0  0  0  0  0
   40.9975   34.6660   63.0026 H   0  0  0  0  0  0  0  0  0  0  0  0
   41.9855   35.6425   61.8506 H   0  0  0  0  0  0  0  0  0  0  0  0
   42.8710   35.8780   63.8880 H   0  0  0  0  0  0  0  0  0  0  0  0
   39.9980   35.4860   60.4264 H   0  0  0  0  0  0  0  0  0  0  0  0
   38.9485   34.7605   61.7149 H   0  0  0  0  0  0  0  0  0  0  0  0
   38.2269   33.3033   55.2123 H   0  0  0  0  0  0  0  0  0  0  0  0
   39.8466   33.4457   55.7188 H   0  0  0  0  0  0  0  0  0  0  0  0
  1  2  1  0
  2  3  2  0
  3  4  1  0
  4  5  2  0
  5  6  1  0
  5  7  1  0
  7  8  2  0
  8  9  1  0
  9 10  1  0
 10 11  2  3
 11 12  1  0
 12 13  1  0
 12 14  1  0
 14 15  1  0
 15 16  1  0
 16 17  1  0
 17 18  1  0
 18 19  1  0
 19 20  1  0
 18 21  1  0
  9 22  1  0
  8  2  1  0
 21 15  1  0
 22  7  1  0
  1 23  1  0
  1 24  1  0
  1 25  1  0
  3 26  1  0
  4 27  1  0
  9 28  1  6
 10 29  1  0
 11 30  1  0
 12 31  1  1
 13 32  1  0
 13 33  1  0
 13 34  1  0
 14 35  1  0
 14 36  1  0
 15 37  1  6
 16 38  1  0
 16 39  1  0
 17 40  1  0
 17 41  1  0
 18 42  1  1
 19 43  1  0
 19 44  1  0
 20 45  1  0
 21 46  1  0
 21 47  1  0
 22 48  1  0
 22 49  1  0
M  CHG  2  11   1  13   1
M  END

>  <ID>
DiffSBDD_84_num_sample_100

>  <docking_score>
-9.24

$$$$
DiffSBDD_85_num_sample_100
     RDKit          3D

 82 86  0  0  0  0  0  0  0  0999 V2000
   36.9240   36.4850   59.7200 C   0  0  0  0  0  0  0  0  0  0  0  0
   38.1860   36.5860   60.5890 C   0  0  1  0  0  0  0  0  0  0  0  0
   37.8920   37.3280   61.9430 C   0  0  0  0  0  0  0  0  0  0  0  0
   39.2310   37.5270   62.6880 C   0  0  0  0  0  0  0  0  0  0  0  0
   40.1580   36.2890   62.4810 C   0  0  0  0  0  0  0  0  0  0  0  0
   39.9060   34.9630   62.0720 C   0  0  2  0  0  0  0  0  0  0  0  0
   41.4230   34.2050   61.5760 Cl  0  0  0  0  0  0  0  0  0  0  0  0
   38.7350   35.1270   60.9360 C   0  0  1  0  0  0  0  0  0  0  0  0
   38.2590   33.4530   60.8320 C   0  0  2  0  0  0  0  0  0  0  0  0
   38.7320   33.0460   59.3900 C   0  0  0  0  0  0  0  0  0  0  0  0
   38.0130   32.0060   58.5460 C   0  0  2  0  0  0  0  0  0  0  0  0
   38.7510   30.3180   58.6250 S   0  0  0  0  0  0  0  0  0  0  0  0
   38.1400   29.7930   57.0690 C   0  0  2  0  0  0  0  0  0  0  0  0
   38.9500   28.7760   56.4380 C   0  0  1  0  0  0  0  0  0  0  0  0
   40.3180   27.7960   56.7660 C   0  0  0  0  0  0  0  0  0  0  0  0
   40.1660   26.4920   56.3470 C   0  0  0  0  0  0  0  0  0  0  0  0
   39.0920   25.4890   56.0260 C   0  0  1  0  0  0  0  0  0  0  0  0
   38.3610   26.2610   57.1430 C   0  0  0  0  0  0  0  0  0  0  0  0
   37.9330   27.5970   56.5470 C   0  0  2  0  0  0  0  0  0  0  0  0
   37.6520   27.2750   55.0460 C   0  0  1  0  0  0  0  0  0  0  0  0
   37.4970   27.9860   53.8150 N   0  0  0  0  0  0  0  0  0  0  0  0
   38.5620   27.5480   53.0900 N   0  0  0  0  0  0  0  0  0  0  0  0
   38.7720   28.5090   51.9730 C   0  0  0  0  0  0  0  0  0  0  0  0
   39.0760   27.7140   50.6910 C   0  0  0  0  0  0  0  0  0  0  0  0
   40.2230   28.4350   50.0330 C   0  0  0  0  0  0  0  0  0  0  0  0
   40.4610   29.9960   50.4910 C   0  0  0  0  0  0  0  0  0  0  0  0
   40.1830   30.5950   51.8790 C   0  0  0  0  0  0  0  0  0  0  0  0
   39.3240   29.6220   52.5920 C   0  0  0  0  0  0  0  0  0  0  0  0
   38.5530   26.0370   54.7270 C   0  0  0  0  0  0  0  0  0  0  0  0
   38.4070   31.1650   56.2840 C   0  0  0  0  0  0  0  0  0  0  0  0
   38.4410   31.0350   54.8780 O   0  0  0  0  0  0  0  0  0  0  0  0
   38.5730   32.3480   57.1280 C   0  0  1  0  0  0  0  0  0  0  0  0
   37.8520   33.4800   56.6830 O   0  0  0  0  0  0  0  0  0  0  0  0
   37.1280   32.6830   61.5260 C   0  0  0  0  0  0  0  0  0  0  0  0
   35.8640   33.1130   61.5390 O   0  0  0  0  0  0  0  0  0  0  0  0
   37.3940   31.5870   61.9080 O   0  0  0  0  0  0  0  0  0  0  0  0
   36.0376   36.4141   60.3676 H   0  0  0  0  0  0  0  0  0  0  0  0
   36.8435   37.3796   59.0850 H   0  0  0  0  0  0  0  0  0  0  0  0
   36.9868   35.5890   59.0850 H   0  0  0  0  0  0  0  0  0  0  0  0
   38.9317   37.1547   60.0141 H   0  0  0  0  0  0  0  0  0  0  0  0
   37.4311   38.3057   61.7389 H   0  0  0  0  0  0  0  0  0  0  0  0
   37.2006   36.7337   62.5584 H   0  0  0  0  0  0  0  0  0  0  0  0
   39.7328   38.4248   62.2979 H   0  0  0  0  0  0  0  0  0  0  0  0
   39.0274   37.6445   63.7626 H   0  0  0  0  0  0  0  0  0  0  0  0
   40.8986   36.6448   61.7496 H   0  0  0  0  0  0  0  0  0  0  0  0
   40.2872   36.0596   63.5490 H   0  0  0  0  0  0  0  0  0  0  0  0
   39.5404   34.2714   62.8454 H   0  0  0  0  0  0  0  0  0  0  0  0
   38.4978   35.4841   59.9230 H   0  0  0  0  0  0  0  0  0  0  0  0
   38.6324   32.9970   61.7608 H   0  0  0  0  0  0  0  0  0  0  0  0
   38.7287   33.9725   58.7971 H   0  0  0  0  0  0  0  0  0  0  0  0
   39.6823   32.5358   59.6058 H   0  0  0  0  0  0  0  0  0  0  0  0
   36.9462   32.0167   58.8141 H   0  0  0  0  0  0  0  0  0  0  0  0
   37.1263   29.3673   57.1050 H   0  0  0  0  0  0  0  0  0  0  0  0
   39.3953   29.4461   55.6878 H   0  0  0  0  0  0  0  0  0  0  0  0
   41.1891   28.2288   56.2522 H   0  0  0  0  0  0  0  0  0  0  0  0
   40.4500   27.7747   57.8578 H   0  0  0  0  0  0  0  0  0  0  0  0
   40.7359   26.5026   55.4062 H   0  0  0  0  0  0  0  0  0  0  0  0
   40.2806   26.1052   57.3703 H   0  0  0  0  0  0  0  0  0  0  0  0
   39.1758   24.3936   55.9708 H   0  0  0  0  0  0  0  0  0  0  0  0
   37.4789   25.6962   57.4790 H   0  0  0  0  0  0  0  0  0  0  0  0
   39.0158   26.4090   58.0144 H   0  0  0  0  0  0  0  0  0  0  0  0
   37.1380   27.9430   57.2239 H   0  0  0  0  0  0  0  0  0  0  0  0
   36.5753   27.4213   55.2172 H   0  0  0  0  0  0  0  0  0  0  0  0
   37.5430   29.0040   53.9650 H   0  0  0  0  0  0  0  0  0  0  0  0
   39.4020   27.5110   53.6850 H   0  0  0  0  0  0  0  0  0  0  0  0
   38.0419   29.0885   51.3889 H   0  0  0  0  0  0  0  0  0  0  0  0
   39.3622   26.6810   50.9380 H   0  0  0  0  0  0  0  0  0  0  0  0
   38.1986   27.6541   50.0302 H   0  0  0  0  0  0  0  0  0  0  0  0
   41.1433   27.8758   50.2574 H   0  0  0  0  0  0  0  0  0  0  0  0
   39.9674   28.4787   48.9640 H   0  0  0  0  0  0  0  0  0  0  0  0
   41.5279   30.1887   50.3052 H   0  0  0  0  0  0  0  0  0  0  0  0
   39.6536   30.4779   49.9202 H   0  0  0  0  0  0  0  0  0  0  0  0
   41.1263   30.7413   52.4257 H   0  0  0  0  0  0  0  0  0  0  0  0
   39.6912   31.5756   51.7980 H   0  0  0  0  0  0  0  0  0  0  0  0
   39.9291   29.2368   53.4259 H   0  0  0  0  0  0  0  0  0  0  0  0
   38.4289   30.2269   52.7989 H   0  0  0  0  0  0  0  0  0  0  0  0
   37.9567   25.2655   54.2179 H   0  0  0  0  0  0  0  0  0  0  0  0
   39.3836   26.3348   54.0702 H   0  0  0  0  0  0  0  0  0  0  0  0
   39.4903   30.9790   56.3274 H   0  0  0  0  0  0  0  0  0  0  0  0
   38.3780   31.9310   54.4610 H   0  0  0  0  0  0  0  0  0  0  0  0
   39.6446   32.5959   57.1108 H   0  0  0  0  0  0  0  0  0  0  0  0
   37.2400   33.7840   57.4000 H   0  0  0  0  0  0  0  0  0  0  0  0
  1  2  1  0
  2  3  1  0
  3  4  1  0
  4  5  1  0
  5  6  1  0
  6  7  1  0
  6  8  1  0
  8  9  1  0
  9 10  1  0
 10 11  1  0
 11 12  1  0
 12 13  1  0
 13 14  1  0
 14 15  1  0
 15 16  1  0
 16 17  1  0
 17 18  1  0
 18 19  1  0
 19 20  1  0
 20 21  1  0
 21 22  1  0
 22 23  1  0
 23 24  1  0
 24 25  1  0
 25 26  1  0
 26 27  1  0
 27 28  1  0
 20 29  1  0
 13 30  1  0
 30 31  1  0
 30 32  1  0
 32 33  1  0
  9 34  1  0
 34 35  2  0
 34 36  1  0
  8  2  1  0
 32 11  1  0
 19 14  1  0
 28 23  1  0
 29 17  1  0
  1 37  1  0
  1 38  1  0
  1 39  1  0
  2 40  1  6
  3 41  1  0
  3 42  1  0
  4 43  1  0
  4 44  1  0
  5 45  1  0
  5 46  1  0
  6 47  1  1
  8 48  1  6
  9 49  1  1
 10 50  1  0
 10 51  1  0
 11 52  1  6
 13 53  1  1
 14 54  1  6
 15 55  1  0
 15 56  1  0
 16 57  1  0
 16 58  1  0
 17 59  1  1
 18 60  1  0
 18 61  1  0
 19 62  1  1
 20 63  1  1
 21 64  1  0
 22 65  1  0
 23 66  1  0
 24 67  1  0
 24 68  1  0
 25 69  1  0
 25 70  1  0
 26 71  1  0
 26 72  1  0
 27 73  1  0
 27 74  1  0
 28 75  1  0
 28 76  1  0
 29 77  1  0
 29 78  1  0
 30 79  1  0
 31 80  1  0
 32 81  1  1
 33 82  1  0
M  CHG  1  36  -1
M  END

>  <ID>
DiffSBDD_85_num_sample_100

>  <docking_score>
-12.336

$$$$
DiffSBDD_86_num_sample_100
     RDKit          3D

 33 32  0  0  0  0  0  0  0  0999 V2000
   37.9940   33.4450   56.3470 N   0  0  0  0  0  0  0  0  0  0  0  0
   38.3590   32.0470   56.2850 C   0  0  0  0  0  0  0  0  0  0  0  0
   38.2030   31.5960   54.8180 C   0  0  0  0  0  0  0  0  0  0  0  0
   39.0910   30.3710   54.6690 C   0  0  0  0  0  0  0  0  0  0  0  0
   40.1810   30.6140   53.6270 C   0  0  0  0  0  0  0  0  0  0  0  0
   39.5380   30.5530   52.2650 C   0  0  0  0  0  0  0  0  0  0  0  0
   40.1700   29.6960   51.1700 C   0  0  0  0  0  0  0  0  0  0  0  0
   39.5490   28.3740   50.8710 C   0  0  0  0  0  0  0  0  0  0  0  0
   39.3450   27.4480   52.0610 C   0  0  0  0  0  0  0  0  0  0  0  0
   38.1010   27.3110   53.1250 C   0  0  0  0  0  0  0  0  0  0  0  0
   36.9120   28.1220   52.6080 O   0  0  0  0  0  0  0  0  0  0  0  0
   38.5730   33.9210   57.0540 H   0  0  0  0  0  0  0  0  0  0  0  0
   38.1480   33.8810   55.4260 H   0  0  0  0  0  0  0  0  0  0  0  0
   37.0000   33.5290   56.6050 H   0  0  0  0  0  0  0  0  0  0  0  0
   39.4016   31.9155   56.6103 H   0  0  0  0  0  0  0  0  0  0  0  0
   37.7168   31.4474   56.9468 H   0  0  0  0  0  0  0  0  0  0  0  0
   37.1550   31.3385   54.6051 H   0  0  0  0  0  0  0  0  0  0  0  0
   38.4881   32.3927   54.1152 H   0  0  0  0  0  0  0  0  0  0  0  0
   39.5617   30.1470   55.6376 H   0  0  0  0  0  0  0  0  0  0  0  0
   38.4709   29.5243   54.3394 H   0  0  0  0  0  0  0  0  0  0  0  0
   40.6338   31.6043   53.7831 H   0  0  0  0  0  0  0  0  0  0  0  0
   40.9714   29.8539   53.7132 H   0  0  0  0  0  0  0  0  0  0  0  0
   38.5138   30.1796   52.4117 H   0  0  0  0  0  0  0  0  0  0  0  0
   39.6463   31.5789   51.8833 H   0  0  0  0  0  0  0  0  0  0  0  0
   40.1497   30.2847   50.2410 H   0  0  0  0  0  0  0  0  0  0  0  0
   41.1698   29.4491   51.5565 H   0  0  0  0  0  0  0  0  0  0  0  0
   38.5646   28.5597   50.4166 H   0  0  0  0  0  0  0  0  0  0  0  0
   40.2594   27.8555   50.2104 H   0  0  0  0  0  0  0  0  0  0  0  0
   39.4314   26.4408   51.6274 H   0  0  0  0  0  0  0  0  0  0  0  0
   40.0470   27.9513   52.7422 H   0  0  0  0  0  0  0  0  0  0  0  0
   37.8125   26.2538   53.2210 H   0  0  0  0  0  0  0  0  0  0  0  0
   38.4105   27.6916   54.1096 H   0  0  0  0  0  0  0  0  0  0  0  0
   36.1210   27.9470   53.1760 H   0  0  0  0  0  0  0  0  0  0  0  0
  1  2  1  0
  2  3  1  0
  3  4  1  0
  4  5  1  0
  5  6  1  0
  6  7  1  0
  7  8  1  0
  8  9  1  0
  9 10  1  0
 10 11  1  0
  1 12  1  0
  1 13  1  0
  1 14  1  0
  2 15  1  0
  2 16  1  0
  3 17  1  0
  3 18  1  0
  4 19  1  0
  4 20  1  0
  5 21  1  0
  5 22  1  0
  6 23  1  0
  6 24  1  0
  7 25  1  0
  7 26  1  0
  8 27  1  0
  8 28  1  0
  9 29  1  0
  9 30  1  0
 10 31  1  0
 10 32  1  0
 11 33  1  0
M  CHG  1   1   1
M  END

>  <ID>
DiffSBDD_86_num_sample_100

>  <docking_score>
-4.926

$$$$
DiffSBDD_87_num_sample_100
     RDKit          3D

 53 56  0  0  0  0  0  0  0  0999 V2000
   39.0960   30.5760   60.2730 C   0  0  0  0  0  0  0  0  0  0  0  0
   37.6840   30.4600   60.0260 C   0  0  2  0  0  0  0  0  0  0  0  0
   37.3250   30.6090   58.4500 C   0  0  1  0  0  0  0  0  0  0  0  0
   38.2240   31.8470   57.8740 C   0  0  0  0  0  0  0  0  0  0  0  0
   39.0640   31.3690   56.9390 C   0  0  0  0  0  0  0  0  0  0  0  0
   38.4970   30.5710   56.0880 O   0  0  0  0  0  0  0  0  0  0  0  0
   38.2440   29.1820   55.9460 C   0  0  2  0  0  0  0  0  0  0  0  0
   39.1080   27.9670   56.0850 C   0  0  0  0  0  0  0  0  0  0  0  0
   40.5080   28.2880   56.6170 C   0  0  0  0  0  0  0  0  0  0  0  0
   40.8610   26.9970   56.7710 F   0  0  0  0  0  0  0  0  0  0  0  0
   37.4610   29.1960   54.6990 C   0  0  2  0  0  0  0  0  0  0  0  0
   36.3690   30.6860   54.5330 O   0  0  0  0  0  0  0  0  0  0  0  0
   37.2420   27.9400   53.9490 C   0  0  0  0  0  0  0  0  0  0  0  0
   38.4110   28.3040   52.9490 C   0  0  0  0  0  0  0  0  0  0  0  0
   38.9360   28.0980   51.6270 C   0  0  0  0  0  0  0  0  0  0  0  0
   39.7600   29.1900   51.2210 C   0  0  0  0  0  0  0  0  0  0  0  0
   40.1830   29.1540   50.0230 F   0  0  0  0  0  0  0  0  0  0  0  0
   40.1110   30.3600   51.9620 C   0  0  0  0  0  0  0  0  0  0  0  0
   39.4570   30.4560   53.2740 C   0  0  0  0  0  0  0  0  0  0  0  0
   38.6380   29.5390   53.6620 C   0  0  0  0  0  0  0  0  0  0  0  0
   37.6450   29.3800   57.5680 C   0  0  0  0  0  0  0  0  0  0  0  0
   36.8610   31.5010   60.6000 C   0  0  2  0  0  0  0  0  0  0  0  0
   35.7200   31.5900   60.8180 C   0  0  0  0  0  0  0  0  0  0  0  0
   36.6650   32.5330   61.2170 C   0  0  2  0  0  0  0  0  0  0  0  0
   36.5040   33.9160   60.4650 N   0  0  0  0  0  0  0  0  0  0  0  0
   39.2785   30.5910   61.3577 H   0  0  0  0  0  0  0  0  0  0  0  0
   39.6183   29.7177   59.8251 H   0  0  0  0  0  0  0  0  0  0  0  0
   39.4712   31.5080   59.8251 H   0  0  0  0  0  0  0  0  0  0  0  0
   37.4729   29.4758   60.4695 H   0  0  0  0  0  0  0  0  0  0  0  0
   36.2358   30.7531   58.3964 H   0  0  0  0  0  0  0  0  0  0  0  0
   37.5656   32.6065   57.4271 H   0  0  0  0  0  0  0  0  0  0  0  0
   38.7962   32.3083   58.6924 H   0  0  0  0  0  0  0  0  0  0  0  0
   39.4897   32.2199   56.3869 H   0  0  0  0  0  0  0  0  0  0  0  0
   39.8323   30.7840   57.4658 H   0  0  0  0  0  0  0  0  0  0  0  0
   38.6205   27.2674   56.7799 H   0  0  0  0  0  0  0  0  0  0  0  0
   39.2282   27.5313   55.0821 H   0  0  0  0  0  0  0  0  0  0  0  0
   41.1344   28.8222   55.8874 H   0  0  0  0  0  0  0  0  0  0  0  0
   40.5884   28.9525   57.4899 H   0  0  0  0  0  0  0  0  0  0  0  0
   36.7240   31.4200   55.0950 H   0  0  0  0  0  0  0  0  0  0  0  0
   37.4276   27.0305   54.5392 H   0  0  0  0  0  0  0  0  0  0  0  0
   36.2414   27.7008   53.5596 H   0  0  0  0  0  0  0  0  0  0  0  0
   38.7292   27.2126   51.0079 H   0  0  0  0  0  0  0  0  0  0  0  0
   40.8090   31.1214   51.5837 H   0  0  0  0  0  0  0  0  0  0  0  0
   39.6672   31.3146   53.9287 H   0  0  0  0  0  0  0  0  0  0  0  0
   36.6914   28.8320   57.5496 H   0  0  0  0  0  0  0  0  0  0  0  0
   38.5982   29.1410   58.0622 H   0  0  0  0  0  0  0  0  0  0  0  0
   37.0190   31.0738   61.6013 H   0  0  0  0  0  0  0  0  0  0  0  0
   35.0103   31.8153   60.0083 H   0  0  0  0  0  0  0  0  0  0  0  0
   34.9476   30.9757   61.3039 H   0  0  0  0  0  0  0  0  0  0  0  0
   37.1033   32.9932   62.1148 H   0  0  0  0  0  0  0  0  0  0  0  0
   35.5710   34.3060   60.6610 H   0  0  0  0  0  0  0  0  0  0  0  0
   37.2270   34.5720   60.7950 H   0  0  0  0  0  0  0  0  0  0  0  0
   36.6100   33.7700   59.4510 H   0  0  0  0  0  0  0  0  0  0  0  0
  1  2  1  0
  2  3  1  0
  3  4  1  0
  4  5  1  0
  5  6  1  0
  6  7  1  0
  7  8  1  1
  8  9  1  0
  9 10  1  0
  7 11  1  0
 11 12  1  1
 11 13  1  0
 13 14  1  0
 14 15  2  0
 15 16  1  0
 16 17  1  0
 16 18  2  0
 18 19  1  0
 19 20  2  0
  7 21  1  0
  2 22  1  0
 22 23  1  0
 23 24  1  0
 24 25  1  0
 21  3  1  0
 24 22  1  0
 20 11  1  0
 20 14  1  0
  1 26  1  0
  1 27  1  0
  1 28  1  0
  2 29  1  1
  3 30  1  1
  4 31  1  0
  4 32  1  0
  5 33  1  0
  5 34  1  0
  8 35  1  0
  8 36  1  0
  9 37  1  0
  9 38  1  0
 12 39  1  0
 13 40  1  0
 13 41  1  0
 15 42  1  0
 18 43  1  0
 19 44  1  0
 21 45  1  0
 21 46  1  0
 22 47  1  6
 23 48  1  0
 23 49  1  0
 24 50  1  1
 25 51  1  0
 25 52  1  0
 25 53  1  0
M  CHG  1  25   1
M  END

>  <ID>
DiffSBDD_87_num_sample_100

>  <docking_score>
-9.142

$$$$
DiffSBDD_88_num_sample_100
     RDKit          3D

 72 75  0  0  0  0  0  0  0  0999 V2000
   39.1940   32.6040   62.2270 C   0  0  0  0  0  0  0  0  0  0  0  0
   38.7160   31.4320   61.7250 C   0  0  0  0  0  0  0  0  0  0  0  0
   38.8480   30.1020   61.9700 C   0  0  0  0  0  0  0  0  0  0  0  0
   39.6070   29.5200   60.7420 C   0  0  1  0  0  0  0  0  0  0  0  0
   38.5790   29.5620   59.6620 C   0  0  0  0  0  0  0  0  0  0  0  0
   38.1060   31.1020   59.4050 C   0  0  2  0  0  0  0  0  0  0  0  0
   38.0720   31.5620   58.0540 N   0  0  2  0  0  0  0  0  0  0  0  0
   38.5370   30.7900   57.1240 C   0  0  0  0  0  0  0  0  0  0  0  0
   37.4490   29.9170   56.1060 C   0  0  0  0  0  0  0  0  0  0  0  0
   37.3790   29.6970   55.1030 C   0  0  0  0  0  0  0  0  0  0  0  0
   37.5610   28.1780   54.9340 C   0  0  0  0  0  0  0  0  0  0  0  0
   38.0300   27.8800   53.4910 C   0  0  2  0  0  0  0  0  0  0  0  0
   36.7500   28.2450   52.6400 O   0  0  0  0  0  0  0  0  0  0  0  0
   39.2540   26.8380   53.9230 C   0  0  0  0  0  0  0  0  0  0  0  0
   40.1660   26.0760   54.2150 N   0  0  0  0  0  0  0  0  0  0  0  0
   38.9900   28.5190   52.3760 C   0  0  2  0  0  0  0  0  0  0  0  0
   39.4470   27.7360   51.3180 C   0  0  0  0  0  0  0  0  0  0  0  0
   39.8220   28.4640   50.1290 C   0  0  0  0  0  0  0  0  0  0  0  0
   40.2230   29.7830   50.2450 C   0  0  0  0  0  0  0  0  0  0  0  0
   40.1880   30.4870   51.4910 C   0  0  0  0  0  0  0  0  0  0  0  0
   39.6940   29.6710   52.5390 C   0  0  0  0  0  0  0  0  0  0  0  0
   38.0540   32.9750   57.7180 C   0  0  0  0  0  0  0  0  0  0  0  0
   37.5190   33.7630   58.8710 C   0  0  0  0  0  0  0  0  0  0  0  0
   38.1790   33.4370   60.1690 C   0  0  2  0  0  0  0  0  0  0  0  0
   37.6880   34.7490   60.8170 C   0  0  2  0  0  0  0  0  0  0  0  0
   36.4860   34.8640   61.6910 C   0  0  0  0  0  0  0  0  0  0  0  0
   38.5460   36.0450   60.6360 C   0  0  0  0  0  0  0  0  0  0  0  0
   37.6050   37.2110   60.2600 C   0  0  0  0  0  0  0  0  0  0  0  0
   37.1140   37.1770   59.1300 O   0  0  0  0  0  0  0  0  0  0  0  0
   37.3250   38.1040   61.1230 O   0  0  0  0  0  0  0  0  0  0  0  0
   38.9940   31.9780   60.3550 C   0  0  1  0  0  0  0  0  0  0  0  0
   40.3560   30.8900   60.3650 C   0  0  0  0  0  0  0  0  0  0  0  0
   38.8790   33.5608   61.7850 H   0  0  0  0  0  0  0  0  0  0  0  0
   39.8951   32.5940   63.0745 H   0  0  0  0  0  0  0  0  0  0  0  0
   39.4261   29.9374   62.8913 H   0  0  0  0  0  0  0  0  0  0  0  0
   37.8710   29.6164   62.1105 H   0  0  0  0  0  0  0  0  0  0  0  0
   40.1452   28.5693   60.8706 H   0  0  0  0  0  0  0  0  0  0  0  0
   39.0069   29.1524   58.7351 H   0  0  0  0  0  0  0  0  0  0  0  0
   37.7089   28.9621   59.9668 H   0  0  0  0  0  0  0  0  0  0  0  0
   37.0346   31.1832   59.6404 H   0  0  0  0  0  0  0  0  0  0  0  0
   37.0530   31.4120   58.0620 H   0  0  0  0  0  0  0  0  0  0  0  0
   39.1522   31.4206   56.4653 H   0  0  0  0  0  0  0  0  0  0  0  0
   39.0509   29.9963   57.6862 H   0  0  0  0  0  0  0  0  0  0  0  0
   37.4458   28.9182   56.5668 H   0  0  0  0  0  0  0  0  0  0  0  0
   36.7105   30.7310   56.0612 H   0  0  0  0  0  0  0  0  0  0  0  0
   36.3920   29.9990   54.7228 H   0  0  0  0  0  0  0  0  0  0  0  0
   38.1521   30.2391   54.5386 H   0  0  0  0  0  0  0  0  0  0  0  0
   38.3152   27.8160   55.6482 H   0  0  0  0  0  0  0  0  0  0  0  0
   36.6055   27.6676   55.1251 H   0  0  0  0  0  0  0  0  0  0  0  0
   36.7480   29.2170   52.4480 H   0  0  0  0  0  0  0  0  0  0  0  0
   38.0101   28.9677   52.1556 H   0  0  0  0  0  0  0  0  0  0  0  0
   40.3276   27.1758   51.6654 H   0  0  0  0  0  0  0  0  0  0  0  0
   38.6024   27.0937   51.0278 H   0  0  0  0  0  0  0  0  0  0  0  0
   39.7893   27.9763   49.1436 H   0  0  0  0  0  0  0  0  0  0  0  0
   40.5814   30.3094   49.3481 H   0  0  0  0  0  0  0  0  0  0  0  0
   41.2070   30.8148   51.7442 H   0  0  0  0  0  0  0  0  0  0  0  0
   39.5136   31.3488   51.3797 H   0  0  0  0  0  0  0  0  0  0  0  0
   40.5777   29.3909   53.1312 H   0  0  0  0  0  0  0  0  0  0  0  0
   38.9050   30.3252   52.9384 H   0  0  0  0  0  0  0  0  0  0  0  0
   39.0770   33.3093   57.4905 H   0  0  0  0  0  0  0  0  0  0  0  0
   37.4092   33.1316   56.8407 H   0  0  0  0  0  0  0  0  0  0  0  0
   37.6696   34.8324   58.6622 H   0  0  0  0  0  0  0  0  0  0  0  0
   36.4546   33.5053   58.9743 H   0  0  0  0  0  0  0  0  0  0  0  0
   37.2641   32.9280   60.5064 H   0  0  0  0  0  0  0  0  0  0  0  0
   38.3110   34.5458   61.7005 H   0  0  0  0  0  0  0  0  0  0  0  0
   36.7957   34.8344   62.7461 H   0  0  0  0  0  0  0  0  0  0  0  0
   35.9732   35.8153   61.4859 H   0  0  0  0  0  0  0  0  0  0  0  0
   35.8021   34.0272   61.4859 H   0  0  0  0  0  0  0  0  0  0  0  0
   39.0677   36.2782   61.5759 H   0  0  0  0  0  0  0  0  0  0  0  0
   39.2923   35.8936   59.8422 H   0  0  0  0  0  0  0  0  0  0  0  0
   40.8417   30.8332   59.3797 H   0  0  0  0  0  0  0  0  0  0  0  0
   41.1747   31.1748   61.0422 H   0  0  0  0  0  0  0  0  0  0  0  0
  1  2  2  0
  2  3  1  0
  3  4  1  0
  4  5  1  0
  5  6  1  0
  6  7  1  0
  7  8  1  0
  8  9  1  0
  9 10  1  0
 10 11  1  0
 11 12  1  0
 12 13  1  0
 12 14  1  1
 14 15  3  0
 12 16  1  0
 16 17  1  0
 17 18  1  0
 18 19  2  0
 19 20  1  0
 20 21  1  0
  7 22  1  0
 22 23  1  0
 23 24  1  0
 24 25  1  0
 25 26  1  0
 25 27  1  0
 27 28  1  0
 28 29  2  0
 28 30  1  0
 24 31  1  0
 31 32  1  0
 31  2  1  1
 32  4  1  0
 31  6  1  0
 21 16  1  0
  1 33  1  0
  1 34  1  0
  3 35  1  0
  3 36  1  0
  4 37  1  1
  5 38  1  0
  5 39  1  0
  6 40  1  1
  7 41  1  6
  8 42  1  0
  8 43  1  0
  9 44  1  0
  9 45  1  0
 10 46  1  0
 10 47  1  0
 11 48  1  0
 11 49  1  0
 13 50  1  0
 16 51  1  6
 17 52  1  0
 17 53  1  0
 18 54  1  0
 19 55  1  0
 20 56  1  0
 20 57  1  0
 21 58  1  0
 21 59  1  0
 22 60  1  0
 22 61  1  0
 23 62  1  0
 23 63  1  0
 24 64  1  6
 25 65  1  6
 26 66  1  0
 26 67  1  0
 26 68  1  0
 27 69  1  0
 27 70  1  0
 32 71  1  0
 32 72  1  0
M  CHG  2   7   1  30  -1
M  END

>  <ID>
DiffSBDD_88_num_sample_100

>  <docking_score>
-10.928

$$$$
DiffSBDD_89_num_sample_100
     RDKit          3D

106110  0  0  0  0  0  0  0  0999 V2000
   38.3140   36.0370   60.5550 C   0  0  0  0  0  0  0  0  0  0  0  0
   38.3620   34.7170   60.1980 C   0  0  0  0  0  0  0  0  0  0  0  0
   37.6220   33.7800   59.1140 S   0  0  0  0  0  0  0  0  0  0  0  0
   38.1490   32.2260   59.7100 C   0  0  2  0  0  0  0  0  0  0  0  0
   37.9320   31.1200   59.1020 C   0  0  0  0  0  0  0  0  0  0  0  0
   36.9520   30.2110   59.2730 C   0  0  0  0  0  0  0  0  0  0  0  0
   37.2440   28.9060   59.3760 C   0  0  0  0  0  0  0  0  0  0  0  0
   38.4060   28.3760   59.0800 C   0  0  0  0  0  0  0  0  0  0  0  0
   38.9920   27.1540   59.0960 F   0  0  0  0  0  0  0  0  0  0  0  0
   39.2640   29.2830   58.6110 C   0  0  0  0  0  0  0  0  0  0  0  0
   38.7430   30.5320   58.2500 N   0  0  0  0  0  0  0  0  0  0  0  0
   39.0450   30.9590   57.1380 O   0  0  0  0  0  0  0  0  0  0  0  0
   39.4210   30.0890   56.1350 C   0  0  0  0  0  0  0  0  0  0  0  0
   38.8010   30.8560   55.0070 C   0  0  0  0  0  0  0  0  0  0  0  0
   38.6070   32.2640   55.2550 C   0  0  0  0  0  0  0  0  0  0  0  0
   37.4500   30.1150   55.3230 C   0  0  0  0  0  0  0  0  0  0  0  0
   39.7250   30.8450   53.8940 C   0  0  0  0  0  0  0  0  0  0  0  0
   39.3010   30.9030   52.4130 C   0  0  0  0  0  0  0  0  0  0  0  0
   40.2360   30.0860   51.5890 C   0  0  0  0  0  0  0  0  0  0  0  0
   39.7730   29.0680   50.6950 C   0  0  0  0  0  0  0  0  0  0  0  0
   39.2030   28.3690   51.4280 N   0  0  0  0  0  0  0  0  0  0  0  0
   38.2940   27.7960   51.4180 O   0  0  0  0  0  0  0  0  0  0  0  0
   39.2890   27.2310   52.2210 C   0  0  2  0  0  0  0  0  0  0  0  0
   38.3460   27.1440   53.2740 C   0  0  0  0  0  0  0  0  0  0  0  0
   39.1340   26.8390   54.3890 C   0  0  0  0  0  0  0  0  0  0  0  0
   38.6460   26.0130   55.3460 C   0  0  1  0  0  0  0  0  0  0  0  0
   39.6580   25.8030   56.2830 C   0  0  0  0  0  0  0  0  0  0  0  0
   40.6470   26.6740   56.3800 O   0  0  0  0  0  0  0  0  0  0  0  0
   39.7590   24.7920   56.9770 O   0  0  0  0  0  0  0  0  0  0  0  0
   37.4470   25.5970   55.8350 C   0  0  1  0  0  0  0  0  0  0  0  0
   36.7400   24.2800   55.5380 C   0  0  0  0  0  0  0  0  0  0  0  0
   37.1030   26.0520   56.9890 F   0  0  0  0  0  0  0  0  0  0  0  0
   38.5700   32.4810   60.8930 C   0  0  1  0  0  0  0  0  0  0  0  0
   39.3350   31.7160   61.8830 C   0  0  0  0  0  0  0  0  0  0  0  0
   38.5910   31.0590   62.5490 O   0  0  0  0  0  0  0  0  0  0  0  0
   40.6390   31.8780   62.4340 C   0  0  1  0  0  0  0  0  0  0  0  0
   41.5040   31.0190   62.7900 O   0  0  0  0  0  0  0  0  0  0  0  0
   41.3720   29.8720   63.3310 C   0  0  0  0  0  0  0  0  0  0  0  0
   41.1540   29.9850   64.8880 C   0  0  0  0  0  0  0  0  0  0  0  0
   41.3810   28.8030   62.7610 O   0  0  0  0  0  0  0  0  0  0  0  0
   40.9740   33.3620   62.7650 C   0  0  1  0  0  0  0  0  0  0  0  0
   42.0680   33.0900   63.9480 C   0  0  0  0  0  0  0  0  0  0  0  0
   42.4210   34.2680   64.8590 C   0  0  0  0  0  0  0  0  0  0  0  0
   41.1970   34.8990   65.5130 C   0  0  1  0  0  0  0  0  0  0  0  0
   40.6090   34.6150   66.7710 C   0  0  0  0  0  0  0  0  0  0  0  0
   39.6910   35.6430   67.3530 C   0  0  1  0  0  0  0  0  0  0  0  0
   40.1880   36.0640   68.6470 O   0  0  0  0  0  0  0  0  0  0  0  0
   39.2610   36.6850   66.4330 C   0  0  1  0  0  0  0  0  0  0  0  0
   39.5960   38.0480   66.9310 F   0  0  0  0  0  0  0  0  0  0  0  0
   39.8300   36.6000   65.0520 C   0  0  0  0  0  0  0  0  0  0  0  0
   41.1410   36.1950   65.2110 O   0  0  0  0  0  0  0  0  0  0  0  0
   40.4490   34.0370   61.4030 C   0  0  0  0  0  0  0  0  0  0  0  0
   39.0350   33.7610   61.1400 N   0  0  0  0  0  0  0  0  0  0  0  0
   38.9591   36.4120   61.3632 H   0  0  0  0  0  0  0  0  0  0  0  0
   37.6303   36.7232   60.0338 H   0  0  0  0  0  0  0  0  0  0  0  0
   38.6950   31.3634   59.3003 H   0  0  0  0  0  0  0  0  0  0  0  0
   35.9044   30.5419   59.3285 H   0  0  0  0  0  0  0  0  0  0  0  0
   36.4518   28.2322   59.7345 H   0  0  0  0  0  0  0  0  0  0  0  0
   40.0229   29.4535   59.3888 H   0  0  0  0  0  0  0  0  0  0  0  0
   39.6451   28.8535   57.6728 H   0  0  0  0  0  0  0  0  0  0  0  0
   40.5132   30.0019   56.0377 H   0  0  0  0  0  0  0  0  0  0  0  0
   39.1178   29.0377   56.2482 H   0  0  0  0  0  0  0  0  0  0  0  0
   38.5820   32.4452   56.3397 H   0  0  0  0  0  0  0  0  0  0  0  0
   39.4353   32.8327   54.8072 H   0  0  0  0  0  0  0  0  0  0  0  0
   37.6558   32.5875   54.8072 H   0  0  0  0  0  0  0  0  0  0  0  0
   37.3178   30.0425   56.4126 H   0  0  0  0  0  0  0  0  0  0  0  0
   36.6118   30.6796   54.8887 H   0  0  0  0  0  0  0  0  0  0  0  0
   37.4756   29.1047   54.8887 H   0  0  0  0  0  0  0  0  0  0  0  0
   40.3853   31.7112   54.0478 H   0  0  0  0  0  0  0  0  0  0  0  0
   40.1119   29.8173   53.9575 H   0  0  0  0  0  0  0  0  0  0  0  0
   38.2804   30.5060   52.3093 H   0  0  0  0  0  0  0  0  0  0  0  0
   39.3289   31.9469   52.0673 H   0  0  0  0  0  0  0  0  0  0  0  0
   40.8064   30.7982   50.9746 H   0  0  0  0  0  0  0  0  0  0  0  0
   40.7616   29.4968   52.3549 H   0  0  0  0  0  0  0  0  0  0  0  0
   39.1024   29.4802   49.9267 H   0  0  0  0  0  0  0  0  0  0  0  0
   40.5705   28.5707   50.1235 H   0  0  0  0  0  0  0  0  0  0  0  0
   40.1256   26.5559   52.4543 H   0  0  0  0  0  0  0  0  0  0  0  0
   37.8210   28.1007   53.4126 H   0  0  0  0  0  0  0  0  0  0  0  0
   37.5596   26.3981   53.0863 H   0  0  0  0  0  0  0  0  0  0  0  0
   40.0589   26.3790   54.0108 H   0  0  0  0  0  0  0  0  0  0  0  0
   39.2325   27.8043   54.9071 H   0  0  0  0  0  0  0  0  0  0  0  0
   38.1029   25.6052   54.4807 H   0  0  0  0  0  0  0  0  0  0  0  0
   37.0587   26.1258   54.9521 H   0  0  0  0  0  0  0  0  0  0  0  0
   36.4743   23.7851   56.4837 H   0  0  0  0  0  0  0  0  0  0  0  0
   35.8264   24.4770   54.9579 H   0  0  0  0  0  0  0  0  0  0  0  0
   37.4090   23.6274   54.9579 H   0  0  0  0  0  0  0  0  0  0  0  0
   37.5514   32.0880   61.0272 H   0  0  0  0  0  0  0  0  0  0  0  0
   40.2119   31.8680   63.4477 H   0  0  0  0  0  0  0  0  0  0  0  0
   42.0128   29.5398   65.4117 H   0  0  0  0  0  0  0  0  0  0  0  0
   41.0619   31.0444   65.1694 H   0  0  0  0  0  0  0  0  0  0  0  0
   40.2352   29.4496   65.1694 H   0  0  0  0  0  0  0  0  0  0  0  0
   40.7952   34.3407   63.2342 H   0  0  0  0  0  0  0  0  0  0  0  0
   41.6727   32.2855   64.5856 H   0  0  0  0  0  0  0  0  0  0  0  0
   43.0027   32.8501   63.4199 H   0  0  0  0  0  0  0  0  0  0  0  0
   43.0964   33.9100   65.6500 H   0  0  0  0  0  0  0  0  0  0  0  0
   42.8956   35.0386   64.2337 H   0  0  0  0  0  0  0  0  0  0  0  0
   40.5046   34.1811   65.0491 H   0  0  0  0  0  0  0  0  0  0  0  0
   40.0341   33.6834   66.6631 H   0  0  0  0  0  0  0  0  0  0  0  0
   41.4558   34.5673   67.4714 H   0  0  0  0  0  0  0  0  0  0  0  0
   38.7154   35.1714   67.5420 H   0  0  0  0  0  0  0  0  0  0  0  0
   40.8960   36.7460   68.5220 H   0  0  0  0  0  0  0  0  0  0  0  0
   38.1757   36.5136   66.3805 H   0  0  0  0  0  0  0  0  0  0  0  0
   39.2721   35.8659   64.4521 H   0  0  0  0  0  0  0  0  0  0  0  0
   39.7643   37.5640   64.5263 H   0  0  0  0  0  0  0  0  0  0  0  0
   40.5869   35.1260   61.4748 H   0  0  0  0  0  0  0  0  0  0  0  0
   41.0299   33.6053   60.5746 H   0  0  0  0  0  0  0  0  0  0  0  0
  1  2  2  0
  2  3  1  0
  3  4  1  0
  4  5  1  0
  5  6  2  0
  6  7  1  0
  7  8  2  0
  8  9  1  0
  8 10  1  0
 10 11  1  0
 11 12  1  0
 12 13  1  0
 13 14  1  0
 14 15  1  0
 14 16  1  0
 14 17  1  0
 17 18  1  0
 18 19  1  0
 19 20  1  0
 20 21  1  0
 21 22  1  0
 22 23  1  0
 23 24  1  0
 24 25  1  0
 25 26  1  0
 26 27  1  0
 27 28  2  0
 27 29  1  0
 26 30  1  0
 30 31  1  0
 30 32  1  0
  4 33  1  0
 33 34  1  0
 34 35  2  0
 34 36  1  0
 36 37  1  0
 37 38  1  0
 38 39  1  0
 38 40  2  0
 36 41  1  0
 41 42  1  0
 42 43  1  0
 43 44  1  0
 44 45  1  0
 45 46  1  0
 46 47  1  0
 46 48  1  0
 48 49  1  0
 48 50  1  0
 50 51  1  0
 41 52  1  0
 52 53  1  0
 53  2  1  0
 11  5  1  0
 23 21  1  0
 53 33  1  0
 51 44  1  0
  1 54  1  0
  1 55  1  0
  4 56  1  6
  6 57  1  0
  7 58  1  0
 10 59  1  0
 10 60  1  0
 13 61  1  0
 13 62  1  0
 15 63  1  0
 15 64  1  0
 15 65  1  0
 16 66  1  0
 16 67  1  0
 16 68  1  0
 17 69  1  0
 17 70  1  0
 18 71  1  0
 18 72  1  0
 19 73  1  0
 19 74  1  0
 20 75  1  0
 20 76  1  0
 23 77  1  6
 24 78  1  0
 24 79  1  0
 25 80  1  0
 25 81  1  0
 26 82  1  6
 30 83  1  6
 31 84  1  0
 31 85  1  0
 31 86  1  0
 33 87  1  1
 36 88  1  6
 39 89  1  0
 39 90  1  0
 39 91  1  0
 41 92  1  1
 42 93  1  0
 42 94  1  0
 43 95  1  0
 43 96  1  0
 44 97  1  6
 45 98  1  0
 45 99  1  0
 46100  1  1
 47101  1  0
 48102  1  6
 50103  1  0
 50104  1  0
 52105  1  0
 52106  1  0
M  CHG  1  29  -1
M  END

>  <ID>
DiffSBDD_89_num_sample_100

>  <docking_score>
-10.814

$$$$
DiffSBDD_8_num_sample_100
     RDKit          3D

 55 55  0  0  0  0  0  0  0  0999 V2000
   40.2280   30.1010   51.1910 C   0  0  0  0  0  0  0  0  0  0  0  0
   39.8320   28.9030   50.3800 C   0  0  0  0  0  0  0  0  0  0  0  0
   39.1860   27.8680   51.2510 C   0  0  0  0  0  0  0  0  0  0  0  0
   39.0540   28.1340   52.7270 C   0  0  0  0  0  0  0  0  0  0  0  0
   37.9120   28.4870   53.2860 C   0  0  0  0  0  0  0  0  0  0  0  0
   37.7670   29.5340   54.3690 C   0  0  0  0  0  0  0  0  0  0  0  0
   38.7250   30.7420   54.4420 C   0  0  2  0  0  0  0  0  0  0  0  0
   40.0920   30.6470   55.0520 C   0  0  0  0  0  0  0  0  0  0  0  0
   37.9480   31.9110   54.9210 C   0  0  0  0  0  0  0  0  0  0  0  0
   38.6850   32.5490   56.1380 C   0  0  0  0  0  0  0  0  0  0  0  0
   38.1920   32.6250   57.3940 N   0  0  0  0  0  0  0  0  0  0  0  0
   38.1740   32.6670   58.6110 C   0  0  2  0  0  0  0  0  0  0  0  0
   38.3850   31.3790   59.3830 C   0  0  0  0  0  0  0  0  0  0  0  0
   37.6940   31.9620   61.0760 S   0  0  0  0  0  0  0  0  0  0  0  0
   38.1080   33.5000   60.7890 C   0  0  0  0  0  0  0  0  0  0  0  0
   38.0970   33.9480   59.3160 C   0  0  2  0  0  0  0  0  0  0  0  0
   37.0800   34.7520   59.5200 C   0  0  0  0  0  0  0  0  0  0  0  0
   37.0470   35.9160   60.4380 C   0  0  0  0  0  0  0  0  0  0  0  0
   36.8030   36.7800   59.2900 N   0  0  0  0  0  0  0  0  0  0  0  0
   40.1488   29.8614   52.2617 H   0  0  0  0  0  0  0  0  0  0  0  0
   41.2656   30.3782   50.9530 H   0  0  0  0  0  0  0  0  0  0  0  0
   39.5600   30.9420   50.9530 H   0  0  0  0  0  0  0  0  0  0  0  0
   39.1218   29.2133   49.5994 H   0  0  0  0  0  0  0  0  0  0  0  0
   40.7338   28.4698   49.9227 H   0  0  0  0  0  0  0  0  0  0  0  0
   38.1703   27.7068   50.8606 H   0  0  0  0  0  0  0  0  0  0  0  0
   39.8750   27.0121   51.1982 H   0  0  0  0  0  0  0  0  0  0  0  0
   39.3684   27.2092   53.2330 H   0  0  0  0  0  0  0  0  0  0  0  0
   39.6540   29.0484   52.8450 H   0  0  0  0  0  0  0  0  0  0  0  0
   37.2730   28.8293   52.4586 H   0  0  0  0  0  0  0  0  0  0  0  0
   37.6782   27.5758   53.8561 H   0  0  0  0  0  0  0  0  0  0  0  0
   36.7517   29.9458   54.2715 H   0  0  0  0  0  0  0  0  0  0  0  0
   38.0161   28.9730   55.2818 H   0  0  0  0  0  0  0  0  0  0  0  0
   39.0796   30.8299   53.4044 H   0  0  0  0  0  0  0  0  0  0  0  0
   40.0054   30.6530   56.1486 H   0  0  0  0  0  0  0  0  0  0  0  0
   40.5743   29.7132   54.7274 H   0  0  0  0  0  0  0  0  0  0  0  0
   40.6988   31.5051   54.7274 H   0  0  0  0  0  0  0  0  0  0  0  0
   37.8616   32.6521   54.1128 H   0  0  0  0  0  0  0  0  0  0  0  0
   36.9414   31.5878   55.2250 H   0  0  0  0  0  0  0  0  0  0  0  0
   39.6321   31.9969   56.2285 H   0  0  0  0  0  0  0  0  0  0  0  0
   38.6557   33.6105   55.8509 H   0  0  0  0  0  0  0  0  0  0  0  0
   37.5550   31.8200   57.3060 H   0  0  0  0  0  0  0  0  0  0  0  0
   38.5210   33.6010   57.4120 H   0  0  0  0  0  0  0  0  0  0  0  0
   39.2585   32.8505   58.6207 H   0  0  0  0  0  0  0  0  0  0  0  0
   37.8068   30.5426   58.9632 H   0  0  0  0  0  0  0  0  0  0  0  0
   39.4121   30.9853   59.3917 H   0  0  0  0  0  0  0  0  0  0  0  0
   37.4066   34.1439   61.3400 H   0  0  0  0  0  0  0  0  0  0  0  0
   39.1557   33.5861   61.1130 H   0  0  0  0  0  0  0  0  0  0  0  0
   38.8106   34.5000   58.6867 H   0  0  0  0  0  0  0  0  0  0  0  0
   36.8366   35.1624   58.5289 H   0  0  0  0  0  0  0  0  0  0  0  0
   36.4144   34.0687   60.0678 H   0  0  0  0  0  0  0  0  0  0  0  0
   36.2264   35.8926   61.1702 H   0  0  0  0  0  0  0  0  0  0  0  0
   37.8787   36.1152   61.1298 H   0  0  0  0  0  0  0  0  0  0  0  0
   35.8870   36.5540   58.8790 H   0  0  0  0  0  0  0  0  0  0  0  0
   36.8090   37.7640   59.5950 H   0  0  0  0  0  0  0  0  0  0  0  0
   37.5400   36.6330   58.5860 H   0  0  0  0  0  0  0  0  0  0  0  0
  1  2  1  0
  2  3  1  0
  3  4  1  0
  4  5  1  0
  5  6  1  0
  6  7  1  0
  7  8  1  0
  7  9  1  0
  9 10  1  0
 10 11  1  0
 11 12  1  0
 12 13  1  0
 13 14  1  0
 14 15  1  0
 15 16  1  0
 16 17  1  0
 17 18  1  0
 18 19  1  0
 16 12  1  0
  1 20  1  0
  1 21  1  0
  1 22  1  0
  2 23  1  0
  2 24  1  0
  3 25  1  0
  3 26  1  0
  4 27  1  0
  4 28  1  0
  5 29  1  0
  5 30  1  0
  6 31  1  0
  6 32  1  0
  7 33  1  6
  8 34  1  0
  8 35  1  0
  8 36  1  0
  9 37  1  0
  9 38  1  0
 10 39  1  0
 10 40  1  0
 11 41  1  0
 11 42  1  0
 12 43  1  6
 13 44  1  0
 13 45  1  0
 15 46  1  0
 15 47  1  0
 16 48  1  1
 17 49  1  0
 17 50  1  0
 18 51  1  0
 18 52  1  0
 19 53  1  0
 19 54  1  0
 19 55  1  0
M  CHG  2  11   1  19   1
M  END

>  <ID>
DiffSBDD_8_num_sample_100

>  <docking_score>
-6.437

$$$$
DiffSBDD_90_num_sample_100
     RDKit          3D

 85 88  0  0  0  0  0  0  0  0999 V2000
   38.3820   24.0860   57.3850 C   0  0  0  0  0  0  0  0  0  0  0  0
   39.4640   24.8150   56.6630 O   0  0  0  0  0  0  0  0  0  0  0  0
   38.9770   26.0210   56.2110 C   0  0  0  0  0  0  0  0  0  0  0  0
   40.4530   27.0210   56.6490 C   0  0  0  0  0  0  0  0  0  0  0  0
   37.4220   25.6160   55.9020 C   0  0  0  0  0  0  0  0  0  0  0  0
   39.3380   26.6370   55.0390 C   0  0  1  0  0  0  0  0  0  0  0  0
   40.0690   26.4760   53.7520 C   0  0  0  0  0  0  0  0  0  0  0  0
   39.2590   26.8640   52.4910 C   0  0  0  0  0  0  0  0  0  0  0  0
   39.3230   28.2440   52.1130 C   0  0  0  0  0  0  0  0  0  0  0  0
   39.5440   28.4450   50.6410 C   0  0  0  0  0  0  0  0  0  0  0  0
   40.0830   29.8960   50.3350 C   0  0  0  0  0  0  0  0  0  0  0  0
   39.4280   30.9660   49.7820 F   0  0  0  0  0  0  0  0  0  0  0  0
   41.0000   29.5980   49.3710 F   0  0  0  0  0  0  0  0  0  0  0  0
   40.5190   30.5020   51.4850 C   0  0  0  0  0  0  0  0  0  0  0  0
   39.4790   30.5870   52.5650 C   0  0  0  0  0  0  0  0  0  0  0  0
   39.2110   29.2890   53.0100 C   0  0  1  0  0  0  0  0  0  0  0  0
   38.6040   29.3630   54.4180 C   0  0  1  0  0  0  0  0  0  0  0  0
   37.8470   30.3380   54.6810 N   0  0  0  0  0  0  0  0  0  0  0  0
   37.7670   31.2420   55.7360 N   0  0  2  0  0  0  0  0  0  0  0  0
   38.2860   32.5350   55.6330 C   0  0  0  0  0  0  0  0  0  0  0  0
   38.6210   33.3880   56.8290 C   0  0  0  0  0  0  0  0  0  0  0  0
   39.0040   32.5290   58.2300 C   0  0  0  0  0  0  0  0  0  0  0  0
   38.2680   31.2870   58.4040 C   0  0  1  0  0  0  0  0  0  0  0  0
   37.5460   31.2880   59.6950 C   0  0  0  0  0  0  0  0  0  0  0  0
   37.5690   32.5270   60.7120 C   0  0  0  0  0  0  0  0  0  0  0  0
   38.2390   33.9140   60.6490 C   0  0  2  0  0  0  0  0  0  0  0  0
   39.5980   34.1620   61.4640 C   0  0  0  0  0  0  0  0  0  0  0  0
   39.4340   35.5490   61.9010 C   0  0  1  0  0  0  0  0  0  0  0  0
   40.4090   36.1260   62.6860 N   0  0  0  0  0  0  0  0  0  0  0  0
   40.8600   37.1660   62.2480 O   0  0  0  0  0  0  0  0  0  0  0  0
   38.1120   36.2130   61.4910 C   0  0  1  0  0  0  0  0  0  0  0  0
   38.0720   36.8630   62.6970 O   0  0  0  0  0  0  0  0  0  0  0  0
   37.4160   37.5150   60.3860 C   0  0  0  0  0  0  0  0  0  0  0  0
   37.0070   37.1860   59.2800 O   0  0  0  0  0  0  0  0  0  0  0  0
   37.9000   38.5880   60.7530 O   0  0  0  0  0  0  0  0  0  0  0  0
   37.3320   34.9690   61.0450 C   0  0  0  0  0  0  0  0  0  0  0  0
   38.0310   30.7620   57.0900 C   0  0  0  0  0  0  0  0  0  0  0  0
   38.3990   27.8760   55.0070 C   0  0  0  0  0  0  0  0  0  0  0  0
   38.5324   24.1873   58.4699 H   0  0  0  0  0  0  0  0  0  0  0  0
   37.4059   24.5113   57.1088 H   0  0  0  0  0  0  0  0  0  0  0  0
   38.4096   23.0216   57.1088 H   0  0  0  0  0  0  0  0  0  0  0  0
   40.5429   27.0819   57.7436 H   0  0  0  0  0  0  0  0  0  0  0  0
   41.3540   26.5466   56.2329 H   0  0  0  0  0  0  0  0  0  0  0  0
   40.3464   28.0337   56.2329 H   0  0  0  0  0  0  0  0  0  0  0  0
   36.8840   25.4759   56.8512 H   0  0  0  0  0  0  0  0  0  0  0  0
   36.9419   26.4191   55.3235 H   0  0  0  0  0  0  0  0  0  0  0  0
   37.3947   24.6808   55.3235 H   0  0  0  0  0  0  0  0  0  0  0  0
   40.2632   26.0469   55.1153 H   0  0  0  0  0  0  0  0  0  0  0  0
   40.9687   27.1079   53.7884 H   0  0  0  0  0  0  0  0  0  0  0  0
   40.2946   25.4036   53.6567 H   0  0  0  0  0  0  0  0  0  0  0  0
   39.6364   26.2650   51.6491 H   0  0  0  0  0  0  0  0  0  0  0  0
   38.2052   26.6693   52.7394 H   0  0  0  0  0  0  0  0  0  0  0  0
   40.4109   28.2381   52.2755 H   0  0  0  0  0  0  0  0  0  0  0  0
   40.2784   27.7075   50.2849 H   0  0  0  0  0  0  0  0  0  0  0  0
   38.5813   28.3162   50.1246 H   0  0  0  0  0  0  0  0  0  0  0  0
   41.3748   29.9305   51.8736 H   0  0  0  0  0  0  0  0  0  0  0  0
   40.7846   31.5355   51.2181 H   0  0  0  0  0  0  0  0  0  0  0  0
   39.8560   31.1972   53.3990 H   0  0  0  0  0  0  0  0  0  0  0  0
   38.5622   31.0547   52.1766 H   0  0  0  0  0  0  0  0  0  0  0  0
   39.7358   28.3465   53.2249 H   0  0  0  0  0  0  0  0  0  0  0  0
   39.3096   29.7841   55.1493 H   0  0  0  0  0  0  0  0  0  0  0  0
   36.9070   29.9150   54.6650 H   0  0  0  0  0  0  0  0  0  0  0  0
   36.7520   31.3290   55.5770 H   0  0  0  0  0  0  0  0  0  0  0  0
   39.2193   32.4408   55.0584 H   0  0  0  0  0  0  0  0  0  0  0  0
   37.4293   33.0802   55.2101 H   0  0  0  0  0  0  0  0  0  0  0  0
   39.4839   34.0183   56.5681 H   0  0  0  0  0  0  0  0  0  0  0  0
   37.7136   33.9654   57.0597 H   0  0  0  0  0  0  0  0  0  0  0  0
   40.0773   32.2897   58.2021 H   0  0  0  0  0  0  0  0  0  0  0  0
   38.7253   33.1752   59.0754 H   0  0  0  0  0  0  0  0  0  0  0  0
   38.5701   30.2834   58.7381 H   0  0  0  0  0  0  0  0  0  0  0  0
   36.9652   30.3954   59.9706 H   0  0  0  0  0  0  0  0  0  0  0  0
   36.9950   32.3538   61.6343 H   0  0  0  0  0  0  0  0  0  0  0  0
   38.5162   33.9344   59.5847 H   0  0  0  0  0  0  0  0  0  0  0  0
   39.6813   33.4786   62.3219 H   0  0  0  0  0  0  0  0  0  0  0  0
   40.5101   33.9846   60.8752 H   0  0  0  0  0  0  0  0  0  0  0  0
   38.9114   35.2025   62.8048 H   0  0  0  0  0  0  0  0  0  0  0  0
   41.1840   35.4540   62.7820 H   0  0  0  0  0  0  0  0  0  0  0  0
   40.8250   37.8630   62.9510 H   0  0  0  0  0  0  0  0  0  0  0  0
   37.1850   37.2850   62.8150 H   0  0  0  0  0  0  0  0  0  0  0  0
   36.7082   34.6152   61.8791 H   0  0  0  0  0  0  0  0  0  0  0  0
   36.7011   35.2358   60.1843 H   0  0  0  0  0  0  0  0  0  0  0  0
   38.9277   30.1443   56.9342 H   0  0  0  0  0  0  0  0  0  0  0  0
   36.9647   30.5847   57.2938 H   0  0  0  0  0  0  0  0  0  0  0  0
   38.1588   28.0472   56.0667 H   0  0  0  0  0  0  0  0  0  0  0  0
   37.7365   27.5128   54.2075 H   0  0  0  0  0  0  0  0  0  0  0  0
  1  2  1  0
  2  3  1  0
  3  4  1  0
  3  5  1  0
  3  6  1  0
  6  7  1  0
  7  8  1  0
  8  9  1  0
  9 10  1  0
 10 11  1  0
 11 12  1  0
 11 13  1  0
 11 14  1  0
 14 15  1  0
 15 16  1  0
 16 17  1  0
 17 18  1  0
 18 19  1  0
 19 20  1  0
 20 21  1  0
 21 22  1  0
 22 23  1  0
 23 24  1  0
 24 25  2  3
 25 26  1  0
 26 27  1  0
 27 28  1  0
 28 29  1  0
 29 30  1  0
 28 31  1  0
 31 32  1  1
 31 33  1  0
 33 34  2  0
 33 35  1  0
 31 36  1  0
 23 37  1  0
 17 38  1  0
 38  6  1  0
 16  9  1  0
 37 19  1  0
 36 26  1  0
  1 39  1  0
  1 40  1  0
  1 41  1  0
  4 42  1  0
  4 43  1  0
  4 44  1  0
  5 45  1  0
  5 46  1  0
  5 47  1  0
  6 48  1  1
  7 49  1  0
  7 50  1  0
  8 51  1  0
  8 52  1  0
  9 53  1  0
 10 54  1  0
 10 55  1  0
 14 56  1  0
 14 57  1  0
 15 58  1  0
 15 59  1  0
 16 60  1  1
 17 61  1  1
 18 62  1  0
 19 63  1  1
 20 64  1  0
 20 65  1  0
 21 66  1  0
 21 67  1  0
 22 68  1  0
 22 69  1  0
 23 70  1  1
 24 71  1  0
 25 72  1  0
 26 73  1  6
 27 74  1  0
 27 75  1  0
 28 76  1  6
 29 77  1  0
 30 78  1  0
 32 79  1  0
 36 80  1  0
 36 81  1  0
 37 82  1  0
 37 83  1  0
 38 84  1  0
 38 85  1  0
M  CHG  2  19   1  35  -1
M  END

>  <ID>
DiffSBDD_90_num_sample_100

>  <docking_score>
-12.736

$$$$
DiffSBDD_91_num_sample_100
     RDKit          3D

 74 76  0  0  0  0  0  0  0  0999 V2000
   39.5290   25.8660   57.7450 C   0  0  0  0  0  0  0  0  0  0  0  0
   39.5830   26.5330   56.4120 C   0  0  2  0  0  0  0  0  0  0  0  0
   39.2770   27.9520   56.6120 C   0  0  1  0  0  0  0  0  0  0  0  0
   39.6990   28.4330   57.8990 O   0  0  0  0  0  0  0  0  0  0  0  0
   38.7630   29.1080   58.8490 C   0  0  0  0  0  0  0  0  0  0  0  0
   38.8690   28.7570   60.0650 O   0  0  0  0  0  0  0  0  0  0  0  0
   37.5680   29.2930   58.1060 C   0  0  0  0  0  0  0  0  0  0  0  0
   36.7480   29.9060   59.2220 C   0  0  0  0  0  0  0  0  0  0  0  0
   36.9210   31.3300   59.3070 N   0  0  0  0  0  0  0  0  0  0  0  0
   36.8370   31.9870   60.5500 C   0  0  2  0  0  0  0  0  0  0  0  0
   35.9810   33.4670   60.9110 S   0  0  0  0  0  0  0  0  0  0  0  0
   36.2600   34.5430   59.6620 C   0  0  0  0  0  0  0  0  0  0  0  0
   36.9980   35.6230   60.2220 C   0  0  0  0  0  0  0  0  0  0  0  0
   37.1980   35.9790   61.3270 C   0  0  0  0  0  0  0  0  0  0  0  0
   37.1700   37.4010   62.0100 C   0  0  2  0  0  0  0  0  0  0  0  0
   36.2790   37.2090   63.2510 C   0  0  0  0  0  0  0  0  0  0  0  0
   36.3940   38.2340   61.1260 O   0  0  0  0  0  0  0  0  0  0  0  0
   38.1150   32.0280   61.1470 C   0  0  0  0  0  0  0  0  0  0  0  0
   38.3610   31.2580   62.2770 N   0  0  0  0  0  0  0  0  0  0  0  0
   39.6090   31.2750   62.5170 C   0  0  1  0  0  0  0  0  0  0  0  0
   40.6290   30.2570   63.1020 C   0  0  0  0  0  0  0  0  0  0  0  0
   40.1950   32.1600   61.5830 C   0  0  0  0  0  0  0  0  0  0  0  0
   39.2320   32.6210   60.7730 C   0  0  0  0  0  0  0  0  0  0  0  0
   39.5760   28.6510   55.3130 O   0  0  0  0  0  0  0  0  0  0  0  0
   38.5730   28.2660   54.3210 C   0  0  1  0  0  0  0  0  0  0  0  0
   39.1520   28.7200   53.0920 C   0  0  0  0  0  0  0  0  0  0  0  0
   39.2730   27.9710   51.9230 C   0  0  0  0  0  0  0  0  0  0  0  0
   39.8250   28.4850   50.8120 C   0  0  0  0  0  0  0  0  0  0  0  0
   40.2620   29.8520   50.7950 C   0  0  0  0  0  0  0  0  0  0  0  0
   40.9010   30.3760   49.7900 F   0  0  0  0  0  0  0  0  0  0  0  0
   40.0750   30.5990   51.9540 C   0  0  0  0  0  0  0  0  0  0  0  0
   39.4990   30.0910   53.0240 C   0  0  0  0  0  0  0  0  0  0  0  0
   38.2240   26.7880   54.2740 C   0  0  2  0  0  0  0  0  0  0  0  0
   36.9220   26.5270   53.6950 O   0  0  0  0  0  0  0  0  0  0  0  0
   38.5600   26.0260   55.3830 C   0  0  1  0  0  0  0  0  0  0  0  0
   38.1150   24.8100   55.4670 O   0  0  0  0  0  0  0  0  0  0  0  0
   39.5905   26.6259   58.5380 H   0  0  0  0  0  0  0  0  0  0  0  0
   38.5831   25.3126   57.8400 H   0  0  0  0  0  0  0  0  0  0  0  0
   40.3735   25.1676   57.8400 H   0  0  0  0  0  0  0  0  0  0  0  0
   40.5867   26.3221   56.0144 H   0  0  0  0  0  0  0  0  0  0  0  0
   38.2187   28.2076   56.7691 H   0  0  0  0  0  0  0  0  0  0  0  0
   37.7026   29.9795   57.2571 H   0  0  0  0  0  0  0  0  0  0  0  0
   37.1477   28.4000   57.6203 H   0  0  0  0  0  0  0  0  0  0  0  0
   35.6850   29.6890   59.0402 H   0  0  0  0  0  0  0  0  0  0  0  0
   37.0908   29.4681   60.1711 H   0  0  0  0  0  0  0  0  0  0  0  0
   37.8550   31.5380   58.9260 H   0  0  0  0  0  0  0  0  0  0  0  0
   36.1020   31.6940   58.7970 H   0  0  0  0  0  0  0  0  0  0  0  0
   36.0640   31.3211   60.9612 H   0  0  0  0  0  0  0  0  0  0  0  0
   36.8413   34.0578   58.8641 H   0  0  0  0  0  0  0  0  0  0  0  0
   35.3165   34.8920   59.2170 H   0  0  0  0  0  0  0  0  0  0  0  0
   38.0104   35.4710   59.8197 H   0  0  0  0  0  0  0  0  0  0  0  0
   36.2533   36.3983   59.9891 H   0  0  0  0  0  0  0  0  0  0  0  0
   36.4755   35.3970   61.9180 H   0  0  0  0  0  0  0  0  0  0  0  0
   38.2935   35.8882   61.2852 H   0  0  0  0  0  0  0  0  0  0  0  0
   38.1684   37.8079   62.2282 H   0  0  0  0  0  0  0  0  0  0  0  0
   36.8839   37.3394   64.1604 H   0  0  0  0  0  0  0  0  0  0  0  0
   35.4691   37.9532   63.2396 H   0  0  0  0  0  0  0  0  0  0  0  0
   35.8475   36.1972   63.2396 H   0  0  0  0  0  0  0  0  0  0  0  0
   35.9340   38.9350   61.6520 H   0  0  0  0  0  0  0  0  0  0  0  0
   39.4079   31.3705   63.5942 H   0  0  0  0  0  0  0  0  0  0  0  0
   40.5934   30.2926   64.2008 H   0  0  0  0  0  0  0  0  0  0  0  0
   40.3731   29.2435   62.7595 H   0  0  0  0  0  0  0  0  0  0  0  0
   41.6420   30.5149   62.7595 H   0  0  0  0  0  0  0  0  0  0  0  0
   41.2612   32.4253   61.5301 H   0  0  0  0  0  0  0  0  0  0  0  0
   39.3499   33.3498   59.9576 H   0  0  0  0  0  0  0  0  0  0  0  0
   37.5961   28.7117   54.5600 H   0  0  0  0  0  0  0  0  0  0  0  0
   38.9075   26.9336   51.9101 H   0  0  0  0  0  0  0  0  0  0  0  0
   39.9422   27.8587   49.9154 H   0  0  0  0  0  0  0  0  0  0  0  0
   40.4181   31.6439   51.9772 H   0  0  0  0  0  0  0  0  0  0  0  0
   39.2832   30.7449   53.8818 H   0  0  0  0  0  0  0  0  0  0  0  0
   38.9425   26.3786   53.5486 H   0  0  0  0  0  0  0  0  0  0  0  0
   36.2480   27.1120   54.1230 H   0  0  0  0  0  0  0  0  0  0  0  0
   37.8151   26.5620   55.9895 H   0  0  0  0  0  0  0  0  0  0  0  0
   38.8780   24.1830   55.5310 H   0  0  0  0  0  0  0  0  0  0  0  0
  1  2  1  0
  2  3  1  0
  3  4  1  0
  4  5  1  0
  5  6  2  0
  5  7  1  0
  7  8  1  0
  8  9  1  0
  9 10  1  0
 10 11  1  0
 11 12  1  0
 12 13  1  0
 13 14  1  0
 14 15  1  0
 15 16  1  0
 15 17  1  0
 10 18  1  0
 18 19  2  0
 19 20  1  0
 20 21  1  0
 20 22  1  0
 22 23  2  0
  3 24  1  0
 24 25  1  0
 25 26  1  0
 26 27  2  0
 27 28  1  0
 28 29  2  0
 29 30  1  0
 29 31  1  0
 31 32  2  0
 25 33  1  0
 33 34  1  0
 33 35  1  0
 35 36  1  0
 35  2  1  0
 23 18  1  0
 32 26  1  0
  1 37  1  0
  1 38  1  0
  1 39  1  0
  2 40  1  6
  3 41  1  1
  7 42  1  0
  7 43  1  0
  8 44  1  0
  8 45  1  0
  9 46  1  0
  9 47  1  0
 10 48  1  1
 12 49  1  0
 12 50  1  0
 13 51  1  0
 13 52  1  0
 14 53  1  0
 14 54  1  0
 15 55  1  1
 16 56  1  0
 16 57  1  0
 16 58  1  0
 17 59  1  0
 20 60  1  1
 21 61  1  0
 21 62  1  0
 21 63  1  0
 22 64  1  0
 23 65  1  0
 25 66  1  1
 27 67  1  0
 28 68  1  0
 31 69  1  0
 32 70  1  0
 33 71  1  6
 34 72  1  0
 35 73  1  1
 36 74  1  0
M  CHG  1   9   1
M  END

>  <ID>
DiffSBDD_91_num_sample_100

>  <docking_score>
-9.806

$$$$
DiffSBDD_92_num_sample_100
     RDKit          3D

 99104  0  0  0  0  0  0  0  0999 V2000
   41.1960   30.3500   49.8970 C   0  0  0  0  0  0  0  0  0  0  0  0
   39.8170   30.0640   50.3830 C   0  0  0  0  0  0  0  0  0  0  0  0
   40.0170   28.9050   51.3820 C   0  0  1  0  0  0  0  0  0  0  0  0
   39.5760   29.5050   52.6950 O   0  0  0  0  0  0  0  0  0  0  0  0
   39.0760   28.3560   53.4000 C   0  0  1  0  0  0  0  0  0  0  0  0
   38.4640   27.8550   54.9120 C   0  0  0  0  0  0  0  0  0  0  0  0
   38.3230   29.1160   55.6360 C   0  0  2  0  0  0  0  0  0  0  0  0
   39.0220   30.0230   54.9020 O   0  0  0  0  0  0  0  0  0  0  0  0
   39.4300   31.1080   55.2540 C   0  0  0  0  0  0  0  0  0  0  0  0
   38.1140   31.8620   55.4260 C   0  0  1  0  0  0  0  0  0  0  0  0
   37.1790   31.1920   55.3540 F   0  0  0  0  0  0  0  0  0  0  0  0
   38.6690   33.2030   56.0900 C   0  0  0  0  0  0  0  0  0  0  0  0
   38.3880   33.6270   57.3450 C   0  0  0  0  0  0  0  0  0  0  0  0
   38.0670   32.5590   58.3140 C   0  0  0  0  0  0  0  0  0  0  0  0
   38.1450   32.3690   59.5690 N   0  0  1  0  0  0  0  0  0  0  0  0
   37.6020   33.1900   60.6070 C   0  0  0  0  0  0  0  0  0  0  0  0
   38.1630   34.4550   60.5580 C   0  0  2  0  0  0  0  0  0  0  0  0
   39.6610   34.3360   61.0780 C   0  0  0  0  0  0  0  0  0  0  0  0
   40.0180   35.4590   62.1870 C   0  0  0  0  0  0  0  0  0  0  0  0
   39.3850   36.8760   61.8670 C   0  0  1  0  0  0  0  0  0  0  0  0
   39.8650   37.9820   62.1690 C   0  0  0  0  0  0  0  0  0  0  0  0
   38.9940   38.8170   61.6950 N   0  0  0  0  0  0  0  0  0  0  0  0
   38.0120   38.1770   61.1010 C   0  0  0  0  0  0  0  0  0  0  0  0
   38.3030   36.9090   61.0160 N   0  0  2  0  0  0  0  0  0  0  0  0
   37.4390   35.8490   60.4790 C   0  0  0  0  0  0  0  0  0  0  0  0
   38.5100   30.9520   59.8720 C   0  0  1  0  0  0  0  0  0  0  0  0
   38.6080   30.6850   61.2620 O   0  0  0  0  0  0  0  0  0  0  0  0
   37.1160   30.2960   59.4820 C   0  0  0  0  0  0  0  0  0  0  0  0
   36.1630   30.6860   60.1030 O   0  0  0  0  0  0  0  0  0  0  0  0
   37.1590   29.4520   58.1800 C   0  0  0  0  0  0  0  0  0  0  0  0
   38.4290   29.2880   57.1400 C   0  0  1  0  0  0  0  0  0  0  0  0
   39.2290   28.1440   57.3270 C   0  0  2  0  0  0  0  0  0  0  0  0
   40.5590   28.0120   57.2570 C   0  0  0  0  0  0  0  0  0  0  0  0
   41.0810   27.1900   58.3800 C   0  0  0  0  0  0  0  0  0  0  0  0
   40.5100   25.7740   58.2410 O   0  0  0  0  0  0  0  0  0  0  0  0
   39.3140   25.4830   57.6810 C   0  0  1  0  0  0  0  0  0  0  0  0
   38.6310   24.3860   57.6170 O   0  0  0  0  0  0  0  0  0  0  0  0
   37.5920   24.1190   56.8200 C   0  0  0  0  0  0  0  0  0  0  0  0
   38.4980   26.8590   57.3570 C   0  0  0  0  0  0  0  0  0  0  0  0
   38.5390   27.7000   52.6330 C   0  0  2  0  0  0  0  0  0  0  0  0
   37.1060   28.0380   52.3220 O   0  0  0  0  0  0  0  0  0  0  0  0
   38.6280   26.6940   51.8590 O   0  0  0  0  0  0  0  0  0  0  0  0
   39.0450   27.8040   51.0790 C   0  0  2  0  0  0  0  0  0  0  0  0
   38.6280   27.8390   49.7520 O   0  0  0  0  0  0  0  0  0  0  0  0
   41.8666   30.4891   50.7578 H   0  0  0  0  0  0  0  0  0  0  0  0
   41.5522   29.5066   49.2872 H   0  0  0  0  0  0  0  0  0  0  0  0
   41.1874   31.2655   49.2872 H   0  0  0  0  0  0  0  0  0  0  0  0
   39.3866   30.9440   50.8835 H   0  0  0  0  0  0  0  0  0  0  0  0
   39.1210   29.8115   49.5694 H   0  0  0  0  0  0  0  0  0  0  0  0
   41.0426   28.5078   51.3624 H   0  0  0  0  0  0  0  0  0  0  0  0
   40.0235   28.4906   53.9424 H   0  0  0  0  0  0  0  0  0  0  0  0
   37.4924   27.3516   54.7995 H   0  0  0  0  0  0  0  0  0  0  0  0
   39.1103   27.1275   55.4248 H   0  0  0  0  0  0  0  0  0  0  0  0
   37.2334   29.2489   55.7067 H   0  0  0  0  0  0  0  0  0  0  0  0
   39.9874   31.0442   56.2002 H   0  0  0  0  0  0  0  0  0  0  0  0
   40.1382   31.5783   54.5560 H   0  0  0  0  0  0  0  0  0  0  0  0
   37.2735   32.3576   54.9181 H   0  0  0  0  0  0  0  0  0  0  0  0
   39.7649   33.1176   56.0489 H   0  0  0  0  0  0  0  0  0  0  0  0
   38.1212   33.9542   55.5020 H   0  0  0  0  0  0  0  0  0  0  0  0
   39.2630   34.1766   57.7222 H   0  0  0  0  0  0  0  0  0  0  0  0
   37.4821   34.2454   57.2620 H   0  0  0  0  0  0  0  0  0  0  0  0
   36.9963   32.3931   58.1243 H   0  0  0  0  0  0  0  0  0  0  0  0
   38.9894   31.9978   58.1036 H   0  0  0  0  0  0  0  0  0  0  0  0
   38.8080   33.1320   59.7660 H   0  0  0  0  0  0  0  0  0  0  0  0
   36.5129   33.2700   60.4749 H   0  0  0  0  0  0  0  0  0  0  0  0
   37.8292   32.7338   61.5818 H   0  0  0  0  0  0  0  0  0  0  0  0
   37.9132   34.7880   59.5398 H   0  0  0  0  0  0  0  0  0  0  0  0
   39.8023   33.3407   61.5245 H   0  0  0  0  0  0  0  0  0  0  0  0
   40.3288   34.4892   60.2174 H   0  0  0  0  0  0  0  0  0  0  0  0
   39.6399   35.1195   63.1626 H   0  0  0  0  0  0  0  0  0  0  0  0
   41.1111   35.5820   62.1874 H   0  0  0  0  0  0  0  0  0  0  0  0
   39.3858   36.7524   62.9600 H   0  0  0  0  0  0  0  0  0  0  0  0
   39.9605   38.0870   63.2598 H   0  0  0  0  0  0  0  0  0  0  0  0
   40.8779   38.1387   61.7696 H   0  0  0  0  0  0  0  0  0  0  0  0
   38.6120   39.3820   62.4660 H   0  0  0  0  0  0  0  0  0  0  0  0
   39.4590   39.4240   61.0050 H   0  0  0  0  0  0  0  0  0  0  0  0
   37.0880   38.3020   61.6846 H   0  0  0  0  0  0  0  0  0  0  0  0
   37.8682   38.5868   60.0903 H   0  0  0  0  0  0  0  0  0  0  0  0
   38.3690   36.3120   60.1790 H   0  0  0  0  0  0  0  0  0  0  0  0
   36.5094   35.8078   61.0657 H   0  0  0  0  0  0  0  0  0  0  0  0
   37.2134   36.0734   59.4260 H   0  0  0  0  0  0  0  0  0  0  0  0
   39.4518   30.6412   59.3963 H   0  0  0  0  0  0  0  0  0  0  0  0
   38.7040   31.5380   61.7550 H   0  0  0  0  0  0  0  0  0  0  0  0
   36.9216   28.4267   58.5000 H   0  0  0  0  0  0  0  0  0  0  0  0
   36.4967   30.0658   57.5518 H   0  0  0  0  0  0  0  0  0  0  0  0
   38.7614   30.2988   57.4188 H   0  0  0  0  0  0  0  0  0  0  0  0
   39.5479   28.8663   58.0929 H   0  0  0  0  0  0  0  0  0  0  0  0
   40.8211   27.5262   56.3055 H   0  0  0  0  0  0  0  0  0  0  0  0
   41.0106   29.0130   57.3208 H   0  0  0  0  0  0  0  0  0  0  0  0
   42.1796   27.1547   58.3367 H   0  0  0  0  0  0  0  0  0  0  0  0
   40.7817   27.6282   59.3436 H   0  0  0  0  0  0  0  0  0  0  0  0
   39.8329   24.7219   57.0798 H   0  0  0  0  0  0  0  0  0  0  0  0
   36.7079   23.8918   57.4338 H   0  0  0  0  0  0  0  0  0  0  0  0
   37.3829   24.9926   56.1851 H   0  0  0  0  0  0  0  0  0  0  0  0
   37.8300   23.2528   56.1851 H   0  0  0  0  0  0  0  0  0  0  0  0
   38.0331   26.7311   56.3683 H   0  0  0  0  0  0  0  0  0  0  0  0
   37.8176   26.9664   58.2146 H   0  0  0  0  0  0  0  0  0  0  0  0
   37.0340   29.0020   52.1100 H   0  0  0  0  0  0  0  0  0  0  0  0
   37.8180   27.2790   49.6440 H   0  0  0  0  0  0  0  0  0  0  0  0
  1  2  1  0
  2  3  1  0
  3  4  1  0
  4  5  1  0
  5  6  1  0
  6  7  1  0
  7  8  1  0
  8  9  1  0
  9 10  1  0
 10 11  1  0
 10 12  1  0
 12 13  1  0
 13 14  1  0
 14 15  1  0
 15 16  1  0
 16 17  1  0
 17 18  1  0
 18 19  1  0
 19 20  1  0
 20 21  1  0
 21 22  1  0
 22 23  1  0
 23 24  1  0
 24 25  1  0
 15 26  1  0
 26 27  1  0
 26 28  1  0
 28 29  2  0
 28 30  1  0
 30 31  1  0
 31 32  1  0
 32 33  1  0
 33 34  1  0
 34 35  1  0
 35 36  1  0
 36 37  1  0
 37 38  1  0
 36 39  1  0
  5 40  1  0
 40 41  1  6
 40 42  1  0
 42 43  1  0
 43 44  1  6
 43  3  1  0
 31  7  1  0
 39 32  1  0
 43 40  1  0
 25 17  1  0
 24 20  1  0
  1 45  1  0
  1 46  1  0
  1 47  1  0
  2 48  1  0
  2 49  1  0
  3 50  1  1
  5 51  1  1
  6 52  1  0
  6 53  1  0
  7 54  1  6
  9 55  1  0
  9 56  1  0
 10 57  1  6
 12 58  1  0
 12 59  1  0
 13 60  1  0
 13 61  1  0
 14 62  1  0
 14 63  1  0
 15 64  1  1
 16 65  1  0
 16 66  1  0
 17 67  1  6
 18 68  1  0
 18 69  1  0
 19 70  1  0
 19 71  1  0
 20 72  1  1
 21 73  1  0
 21 74  1  0
 22 75  1  0
 22 76  1  0
 23 77  1  0
 23 78  1  0
 24 79  1  6
 25 80  1  0
 25 81  1  0
 26 82  1  6
 27 83  1  0
 30 84  1  0
 30 85  1  0
 31 86  1  6
 32 87  1  1
 33 88  1  0
 33 89  1  0
 34 90  1  0
 34 91  1  0
 36 92  1  6
 38 93  1  0
 38 94  1  0
 38 95  1  0
 39 96  1  0
 39 97  1  0
 41 98  1  0
 44 99  1  0
M  CHG  3  15   1  22   1  24   1
M  END

>  <ID>
DiffSBDD_92_num_sample_100

>  <docking_score>
-13.116

$$$$
DiffSBDD_93_num_sample_100
     RDKit          3D

 74 77  0  0  0  0  0  0  0  0999 V2000
   38.2790   32.5570   55.4640 C   0  0  0  0  0  0  0  0  0  0  0  0
   38.6160   31.2490   54.7380 C   0  0  0  0  0  0  0  0  0  0  0  0
   38.3890   30.5040   55.7930 C   0  0  0  0  0  0  0  0  0  0  0  0
   37.9710   30.3800   57.3190 C   0  0  0  0  0  0  0  0  0  0  0  0
   37.3550   29.3440   58.5410 C   0  0  0  0  0  0  0  0  0  0  0  0
   38.3110   28.1900   58.5140 C   0  0  1  0  0  0  0  0  0  0  0  0
   38.6380   27.7190   57.0920 C   0  0  0  0  0  0  0  0  0  0  0  0
   39.5380   26.4120   57.1300 C   0  0  0  0  0  0  0  0  0  0  0  0
   39.6060   26.0580   58.5590 O   0  0  0  0  0  0  0  0  0  0  0  0
   40.3420   27.1600   59.1690 C   0  0  0  0  0  0  0  0  0  0  0  0
   39.6640   28.5630   59.1390 C   0  0  2  0  0  0  0  0  0  0  0  0
   39.0690   29.3090   60.4970 C   0  0  0  0  0  0  0  0  0  0  0  0
   38.9630   30.9850   60.7120 S   0  0  0  0  0  0  0  0  0  0  0  0
   38.2650   31.9540   59.5930 C   0  0  1  0  0  0  0  0  0  0  0  0
   36.4340   32.4320   60.2190 S   0  0  0  0  0  0  0  0  0  0  0  0
   39.0350   33.3000   59.5510 C   0  0  0  0  0  0  0  0  0  0  0  0
   39.3850   33.7620   60.9180 N   0  0  0  0  0  0  0  0  0  0  0  0
   40.4550   33.2520   61.5260 C   0  0  0  0  0  0  0  0  0  0  0  0
   41.2850   33.9420   62.2090 C   0  0  0  0  0  0  0  0  0  0  0  0
   41.2000   35.1340   62.6740 C   0  0  0  0  0  0  0  0  0  0  0  0
   40.5900   36.3030   61.9630 C   0  0  2  0  0  0  0  0  0  0  0  0
   40.2010   37.3610   62.7690 O   0  0  0  0  0  0  0  0  0  0  0  0
   39.4400   35.8850   61.1610 C   0  0  0  0  0  0  0  0  0  0  0  0
   38.7400   34.6810   61.2460 C   0  0  0  0  0  0  0  0  0  0  0  0
   38.1680   31.5790   58.0870 N   0  0  0  0  0  0  0  0  0  0  0  0
   39.2170   30.2130   53.3590 C   0  0  0  0  0  0  0  0  0  0  0  0
   40.1040   30.6940   52.3410 C   0  0  0  0  0  0  0  0  0  0  0  0
   40.1990   29.9710   51.1770 C   0  0  1  0  0  0  0  0  0  0  0  0
   40.2200   30.3760   49.7920 C   0  0  0  0  0  0  0  0  0  0  0  0
   40.1830   28.4780   51.0920 C   0  0  0  0  0  0  0  0  0  0  0  0
   38.7790   28.0060   51.8270 C   0  0  0  0  0  0  0  0  0  0  0  0
   38.4800   29.0200   52.9110 C   0  0  0  0  0  0  0  0  0  0  0  0
   36.8980   28.7540   53.8530 Cl  0  0  0  0  0  0  0  0  0  0  0  0
   38.3209   32.3943   56.5511 H   0  0  0  0  0  0  0  0  0  0  0  0
   39.0069   33.3316   55.1808 H   0  0  0  0  0  0  0  0  0  0  0  0
   37.2674   32.8834   55.1808 H   0  0  0  0  0  0  0  0  0  0  0  0
   38.5791   29.4722   55.4624 H   0  0  0  0  0  0  0  0  0  0  0  0
   36.9463   30.6877   57.0633 H   0  0  0  0  0  0  0  0  0  0  0  0
   37.3623   29.8412   59.5222 H   0  0  0  0  0  0  0  0  0  0  0  0
   36.3096   29.0464   58.3722 H   0  0  0  0  0  0  0  0  0  0  0  0
   37.7985   27.3973   59.0787 H   0  0  0  0  0  0  0  0  0  0  0  0
   37.7010   27.4975   56.5600 H   0  0  0  0  0  0  0  0  0  0  0  0
   39.1910   28.5156   56.5727 H   0  0  0  0  0  0  0  0  0  0  0  0
   39.0729   25.6016   56.5495 H   0  0  0  0  0  0  0  0  0  0  0  0
   40.5328   26.5739   56.6894 H   0  0  0  0  0  0  0  0  0  0  0  0
   40.5185   26.8987   60.2228 H   0  0  0  0  0  0  0  0  0  0  0  0
   41.2521   27.2683   58.5608 H   0  0  0  0  0  0  0  0  0  0  0  0
   40.4359   29.2288   58.7256 H   0  0  0  0  0  0  0  0  0  0  0  0
   38.0422   28.9321   60.6135 H   0  0  0  0  0  0  0  0  0  0  0  0
   39.8590   29.0639   61.2222 H   0  0  0  0  0  0  0  0  0  0  0  0
   36.5230   33.1930   61.3540 H   0  0  0  0  0  0  0  0  0  0  0  0
   39.9594   33.1664   58.9699 H   0  0  0  0  0  0  0  0  0  0  0  0
   38.3881   34.0566   59.0829 H   0  0  0  0  0  0  0  0  0  0  0  0
   40.6347   32.1707   61.4342 H   0  0  0  0  0  0  0  0  0  0  0  0
   42.2305   33.4279   62.4362 H   0  0  0  0  0  0  0  0  0  0  0  0
   40.6377   35.0399   63.6147 H   0  0  0  0  0  0  0  0  0  0  0  0
   42.2603   35.4261   62.6516 H   0  0  0  0  0  0  0  0  0  0  0  0
   41.4090   36.6787   61.3321 H   0  0  0  0  0  0  0  0  0  0  0  0
   39.2420   37.5550   62.6170 H   0  0  0  0  0  0  0  0  0  0  0  0
   38.6816   36.6638   61.3293 H   0  0  0  0  0  0  0  0  0  0  0  0
   39.9504   35.7201   60.2007 H   0  0  0  0  0  0  0  0  0  0  0  0
   38.4193   34.5326   62.2877 H   0  0  0  0  0  0  0  0  0  0  0  0
   37.8806   34.7461   60.5625 H   0  0  0  0  0  0  0  0  0  0  0  0
   37.3960   32.1780   57.7610 H   0  0  0  0  0  0  0  0  0  0  0  0
   40.6902   31.6132   52.4873 H   0  0  0  0  0  0  0  0  0  0  0  0
   39.1026   29.8912   51.1371 H   0  0  0  0  0  0  0  0  0  0  0  0
   40.2769   31.4729   49.7315 H   0  0  0  0  0  0  0  0  0  0  0  0
   41.0965   29.9354   49.2944 H   0  0  0  0  0  0  0  0  0  0  0  0
   39.3026   30.0284   49.2944 H   0  0  0  0  0  0  0  0  0  0  0  0
   40.1944   28.1531   50.0412 H   0  0  0  0  0  0  0  0  0  0  0  0
   41.0652   28.0332   51.5757 H   0  0  0  0  0  0  0  0  0  0  0  0
   37.9587   27.9841   51.0944 H   0  0  0  0  0  0  0  0  0  0  0  0
   38.8806   26.9968   52.2527 H   0  0  0  0  0  0  0  0  0  0  0  0
   37.9408   29.6415   52.1809 H   0  0  0  0  0  0  0  0  0  0  0  0
  1  2  1  0
  2  3  2  3
  3  4  1  0
  4  5  1  0
  5  6  1  0
  6  7  1  0
  7  8  1  0
  8  9  1  0
  9 10  1  0
 10 11  1  0
 11 12  1  0
 12 13  1  0
 13 14  1  0
 14 15  1  1
 14 16  1  0
 16 17  1  0
 17 18  1  0
 18 19  2  0
 19 20  1  0
 20 21  1  0
 21 22  1  0
 21 23  1  0
 23 24  1  0
 14 25  1  0
  2 26  1  0
 26 27  2  0
 27 28  1  0
 28 29  1  0
 28 30  1  0
 30 31  1  0
 31 32  1  0
 32 33  1  0
 25  4  1  0
 32 26  1  0
 11  6  1  0
 24 17  1  0
  1 34  1  0
  1 35  1  0
  1 36  1  0
  3 37  1  0
  4 38  1  0
  5 39  1  0
  5 40  1  0
  6 41  1  1
  7 42  1  0
  7 43  1  0
  8 44  1  0
  8 45  1  0
 10 46  1  0
 10 47  1  0
 11 48  1  6
 12 49  1  0
 12 50  1  0
 15 51  1  0
 16 52  1  0
 16 53  1  0
 18 54  1  0
 19 55  1  0
 20 56  1  0
 20 57  1  0
 21 58  1  6
 22 59  1  0
 23 60  1  0
 23 61  1  0
 24 62  1  0
 24 63  1  0
 25 64  1  0
 27 65  1  0
 28 66  1  1
 29 67  1  0
 29 68  1  0
 29 69  1  0
 30 70  1  0
 30 71  1  0
 31 72  1  0
 31 73  1  0
 32 74  1  0
M  END

>  <ID>
DiffSBDD_93_num_sample_100

>  <docking_score>
-12.751

$$$$
DiffSBDD_94_num_sample_100
     RDKit          3D

125130  0  0  0  0  0  0  0  0999 V2000
   37.3820   29.3810   57.3590 C   0  0  0  0  0  0  0  0  0  0  0  0
   38.0740   29.7690   56.2740 C   0  0  0  0  0  0  0  0  0  0  0  0
   37.3930   29.8540   55.0860 O   0  0  0  0  0  0  0  0  0  0  0  0
   38.3230   29.5340   54.4020 C   0  0  0  0  0  0  0  0  0  0  0  0
   39.2420   30.4900   53.9450 C   0  0  0  0  0  0  0  0  0  0  0  0
   40.0490   30.5060   52.7560 C   0  0  0  0  0  0  0  0  0  0  0  0
   39.6930   29.3880   51.8270 C   0  0  0  0  0  0  0  0  0  0  0  0
   40.5350   29.2270   50.8720 O   0  0  0  0  0  0  0  0  0  0  0  0
   40.6840   30.4590   49.8910 C   0  0  0  0  0  0  0  0  0  0  0  0
   39.4600   31.2440   49.9640 F   0  0  0  0  0  0  0  0  0  0  0  0
   38.6380   28.4820   52.1470 C   0  0  0  0  0  0  0  0  0  0  0  0
   37.9020   28.5960   53.2780 C   0  0  0  0  0  0  0  0  0  0  0  0
   36.8560   27.8520   53.6980 C   0  0  0  0  0  0  0  0  0  0  0  0
   36.9300   26.4730   53.9370 C   0  0  0  0  0  0  0  0  0  0  0  0
   37.9790   26.0850   54.6390 C   0  0  1  0  0  0  0  0  0  0  0  0
   38.9830   25.7860   55.4950 C   0  0  0  0  0  0  0  0  0  0  0  0
   39.3050   25.8670   56.6420 C   0  0  2  0  0  0  0  0  0  0  0  0
   39.1560   25.0110   57.8370 C   0  0  2  0  0  0  0  0  0  0  0  0
   38.6340   23.8500   58.1090 O   0  0  0  0  0  0  0  0  0  0  0  0
   39.0200   26.3880   57.8770 C   0  0  1  0  0  0  0  0  0  0  0  0
   39.9470   27.0670   58.5070 C   0  0  0  0  0  0  0  0  0  0  0  0
   41.5100   26.6870   57.9900 C   0  0  0  0  0  0  0  0  0  0  0  0
   40.3380   28.1790   59.5290 C   0  0  0  0  0  0  0  0  0  0  0  0
   40.3870   29.1690   60.1240 C   0  0  0  0  0  0  0  0  0  0  0  0
   40.4800   30.4260   59.6820 C   0  0  0  0  0  0  0  0  0  0  0  0
   39.3250   31.1740   59.8890 C   0  0  0  0  0  0  0  0  0  0  0  0
   38.9270   32.4820   59.1360 O   0  0  0  0  0  0  0  0  0  0  0  0
   38.1480   32.8940   57.9820 C   0  0  0  0  0  0  0  0  0  0  0  0
   39.1300   33.0700   56.6220 C   0  0  0  0  0  0  0  0  0  0  0  0
   38.8100   30.5910   60.9170 C   0  0  0  0  0  0  0  0  0  0  0  0
   37.7740   31.9590   61.2890 C   0  0  0  0  0  0  0  0  0  0  0  0
   36.4780   31.5520   60.6790 O   0  0  0  0  0  0  0  0  0  0  0  0
   38.1560   32.6590   61.7770 O   0  0  0  0  0  0  0  0  0  0  0  0
   38.6950   33.7920   61.7690 C   0  0  1  0  0  0  0  0  0  0  0  0
   40.0710   33.8190   61.8020 O   0  0  0  0  0  0  0  0  0  0  0  0
   40.3480   33.4550   63.0160 C   0  0  1  0  0  0  0  0  0  0  0  0
   41.2860   32.4670   62.6530 C   0  0  0  0  0  0  0  0  0  0  0  0
   41.1570   31.3900   63.6180 C   0  0  2  0  0  0  0  0  0  0  0  0
   40.5700   31.2880   64.5790 C   0  0  0  0  0  0  0  0  0  0  0  0
   41.5940   30.2160   64.2720 C   0  0  1  0  0  0  0  0  0  0  0  0
   41.8440   29.5100   64.2050 C   0  0  2  0  0  0  0  0  0  0  0  0
   42.9770   29.6850   63.6050 O   0  0  0  0  0  0  0  0  0  0  0  0
   41.6240   27.6870   64.0000 C   0  0  0  0  0  0  0  0  0  0  0  0
   41.4850   26.9980   65.3630 C   0  0  0  0  0  0  0  0  0  0  0  0
   40.9180   25.6630   65.1750 C   0  0  0  0  0  0  0  0  0  0  0  0
   40.4880   27.6640   66.2600 O   0  0  0  0  0  0  0  0  0  0  0  0
   42.7300   27.0080   66.0230 O   0  0  0  0  0  0  0  0  0  0  0  0
   41.2120   34.6130   63.6990 C   0  0  2  0  0  0  0  0  0  0  0  0
   41.6480   35.4660   62.5430 C   0  0  0  0  0  0  0  0  0  0  0  0
   41.5200   34.9140   65.0690 C   0  0  0  0  0  0  0  0  0  0  0  0
   40.5110   36.0240   64.5490 C   0  0  2  0  0  0  0  0  0  0  0  0
   39.6000   36.5630   65.4740 O   0  0  0  0  0  0  0  0  0  0  0  0
   38.4420   35.1650   60.6720 C   0  0  2  0  0  0  0  0  0  0  0  0
   38.6560   36.8710   61.3640 C   0  0  0  0  0  0  0  0  0  0  0  0
   38.9160   38.0070   62.0250 C   0  0  0  0  0  0  0  0  0  0  0  0
   37.5750   37.2150   60.0820 C   0  0  2  0  0  0  0  0  0  0  0  0
   36.4030   37.6220   60.9340 O   0  0  0  0  0  0  0  0  0  0  0  0
   36.9000   35.9160   59.7360 C   0  0  0  0  0  0  0  0  0  0  0  0
   36.1040   35.3980   59.3930 O   0  0  0  0  0  0  0  0  0  0  0  0
   39.1910   29.1660   61.5490 S   0  0  0  0  0  0  0  0  0  0  0  0
   37.6690   24.8550   54.9830 O   0  0  0  0  0  0  0  0  0  0  0  0
   36.6930   24.2650   55.1300 C   0  0  0  0  0  0  0  0  0  0  0  0
   36.4330   22.8390   55.7450 C   0  0  0  0  0  0  0  0  0  0  0  0
   36.0640   21.8020   55.1100 O   0  0  0  0  0  0  0  0  0  0  0  0
   37.8868   29.2987   58.3329 H   0  0  0  0  0  0  0  0  0  0  0  0
   36.3109   29.1458   57.2731 H   0  0  0  0  0  0  0  0  0  0  0  0
   39.1456   30.0093   56.3362 H   0  0  0  0  0  0  0  0  0  0  0  0
   39.3643   31.3654   54.5998 H   0  0  0  0  0  0  0  0  0  0  0  0
   40.8335   31.2500   52.5533 H   0  0  0  0  0  0  0  0  0  0  0  0
   41.5420   31.0765   50.1951 H   0  0  0  0  0  0  0  0  0  0  0  0
   40.8524   30.1092   48.8618 H   0  0  0  0  0  0  0  0  0  0  0  0
   38.4145   27.6612   51.4496 H   0  0  0  0  0  0  0  0  0  0  0  0
   36.5284   28.3035   54.6461 H   0  0  0  0  0  0  0  0  0  0  0  0
   36.2054   27.8798   52.8115 H   0  0  0  0  0  0  0  0  0  0  0  0
   36.0236   26.1718   54.4826 H   0  0  0  0  0  0  0  0  0  0  0  0
   37.0248   25.9942   52.9512 H   0  0  0  0  0  0  0  0  0  0  0  0
   38.3025   27.0542   54.2315 H   0  0  0  0  0  0  0  0  0  0  0  0
   39.0731   24.7016   55.3335 H   0  0  0  0  0  0  0  0  0  0  0  0
   39.5075   26.7218   55.2519 H   0  0  0  0  0  0  0  0  0  0  0  0
   39.9519   26.1656   55.8039 H   0  0  0  0  0  0  0  0  0  0  0  0
   39.6056   24.2411   58.4813 H   0  0  0  0  0  0  0  0  0  0  0  0
   37.9290   23.6420   57.4460 H   0  0  0  0  0  0  0  0  0  0  0  0
   38.2243   27.0606   58.2298 H   0  0  0  0  0  0  0  0  0  0  0  0
   42.1576   26.5296   58.8652 H   0  0  0  0  0  0  0  0  0  0  0  0
   41.4828   25.7693   57.3841 H   0  0  0  0  0  0  0  0  0  0  0  0
   41.9072   27.5147   57.3841 H   0  0  0  0  0  0  0  0  0  0  0  0
   41.3124   30.9186   60.2059 H   0  0  0  0  0  0  0  0  0  0  0  0
   40.6425   30.3757   58.5952 H   0  0  0  0  0  0  0  0  0  0  0  0
   37.3806   32.1333   57.7757 H   0  0  0  0  0  0  0  0  0  0  0  0
   37.6790   33.8640   58.2037 H   0  0  0  0  0  0  0  0  0  0  0  0
   40.1666   33.2558   56.9398 H   0  0  0  0  0  0  0  0  0  0  0  0
   39.0904   32.1504   56.0196 H   0  0  0  0  0  0  0  0  0  0  0  0
   38.7735   33.9186   56.0196 H   0  0  0  0  0  0  0  0  0  0  0  0
   38.0551   33.9568   62.6484 H   0  0  0  0  0  0  0  0  0  0  0  0
   39.5018   33.1954   63.6691 H   0  0  0  0  0  0  0  0  0  0  0  0
   41.0715   32.0954   61.6401 H   0  0  0  0  0  0  0  0  0  0  0  0
   42.3076   32.8748   62.6515 H   0  0  0  0  0  0  0  0  0  0  0  0
   41.3519   31.6785   62.5745 H   0  0  0  0  0  0  0  0  0  0  0  0
   40.7527   31.9926   65.4037 H   0  0  0  0  0  0  0  0  0  0  0  0
   39.4964   31.2702   64.8178 H   0  0  0  0  0  0  0  0  0  0  0  0
   42.3478   29.5236   64.6749 H   0  0  0  0  0  0  0  0  0  0  0  0
   41.1270   29.3621   65.0260 H   0  0  0  0  0  0  0  0  0  0  0  0
   43.1390   28.9340   62.9800 H   0  0  0  0  0  0  0  0  0  0  0  0
   40.7175   27.4978   63.4063 H   0  0  0  0  0  0  0  0  0  0  0  0
   42.5089   27.2806   63.4884 H   0  0  0  0  0  0  0  0  0  0  0  0
   40.7237   25.2056   66.1564 H   0  0  0  0  0  0  0  0  0  0  0  0
   39.9752   25.7408   64.6136 H   0  0  0  0  0  0  0  0  0  0  0  0
   41.6286   25.0386   64.6136 H   0  0  0  0  0  0  0  0  0  0  0  0
   40.4820   27.2110   67.1410 H   0  0  0  0  0  0  0  0  0  0  0  0
   42.7490   26.2880   66.7020 H   0  0  0  0  0  0  0  0  0  0  0  0
   42.1179   36.3854   62.9224 H   0  0  0  0  0  0  0  0  0  0  0  0
   42.3725   34.9100   61.9298 H   0  0  0  0  0  0  0  0  0  0  0  0
   40.7730   35.7276   61.9298 H   0  0  0  0  0  0  0  0  0  0  0  0
   41.1614   34.2163   65.8401 H   0  0  0  0  0  0  0  0  0  0  0  0
   42.5004   35.0347   65.5530 H   0  0  0  0  0  0  0  0  0  0  0  0
   40.1837   36.9771   64.1080 H   0  0  0  0  0  0  0  0  0  0  0  0
   39.0280   37.2320   65.0210 H   0  0  0  0  0  0  0  0  0  0  0  0
   39.0845   34.5221   60.0525 H   0  0  0  0  0  0  0  0  0  0  0  0
   38.5704   38.9699   61.6209 H   0  0  0  0  0  0  0  0  0  0  0  0
   39.4751   37.9768   62.9718 H   0  0  0  0  0  0  0  0  0  0  0  0
   38.0208   37.8089   59.2705 H   0  0  0  0  0  0  0  0  0  0  0  0
   36.0920   36.8430   61.4610 H   0  0  0  0  0  0  0  0  0  0  0  0
   36.0699   24.9339   55.7419 H   0  0  0  0  0  0  0  0  0  0  0  0
   36.5422   23.9877   54.0763 H   0  0  0  0  0  0  0  0  0  0  0  0
   36.5855   22.7299   56.8289 H   0  0  0  0  0  0  0  0  0  0  0  0
  1  2  2  0
  2  3  1  0
  3  4  1  0
  4  5  2  0
  5  6  1  0
  6  7  2  0
  7  8  1  0
  8  9  1  0
  9 10  1  0
  7 11  1  0
 11 12  2  0
 12 13  1  0
 13 14  1  0
 14 15  1  0
 15 16  1  0
 16 17  1  0
 17 18  1  0
 18 19  1  0
 18 20  1  0
 20 21  1  0
 21 22  1  0
 21 23  2  0
 23 24  2  0
 24 25  1  0
 25 26  1  0
 26 27  1  0
 27 28  1  0
 28 29  1  0
 26 30  2  0
 30 31  1  0
 31 32  2  0
 31 33  1  0
 33 34  1  0
 34 35  1  0
 35 36  1  0
 36 37  1  0
 37 38  1  0
 38 39  1  0
 39 40  1  0
 40 41  1  0
 41 42  1  0
 41 43  1  0
 43 44  1  0
 44 45  1  0
 44 46  1  0
 44 47  1  0
 36 48  1  0
 48 49  1  6
 48 50  1  0
 50 51  1  0
 51 52  1  0
 34 53  1  0
 53 54  1  0
 54 55  2  0
 54 56  1  0
 56 57  1  0
 56 58  1  0
 58 59  2  0
 30 60  1  0
 15 61  1  0
 61 62  1  0
 62 63  1  0
 63 64  2  0
 12  4  1  0
 20 17  1  0
 60 24  1  0
 40 38  1  0
 51 48  1  0
 58 53  1  0
  1 65  1  0
  1 66  1  0
  2 67  1  0
  5 68  1  0
  6 69  1  0
  9 70  1  0
  9 71  1  0
 11 72  1  0
 13 73  1  0
 13 74  1  0
 14 75  1  0
 14 76  1  0
 15 77  1  6
 16 78  1  0
 16 79  1  0
 17 80  1  6
 18 81  1  1
 19 82  1  0
 20 83  1  6
 22 84  1  0
 22 85  1  0
 22 86  1  0
 25 87  1  0
 25 88  1  0
 28 89  1  0
 28 90  1  0
 29 91  1  0
 29 92  1  0
 29 93  1  0
 34 94  1  1
 36 95  1  1
 37 96  1  0
 37 97  1  0
 38 98  1  6
 39 99  1  0
 39100  1  0
 40101  1  1
 41102  1  1
 42103  1  0
 43104  1  0
 43105  1  0
 45106  1  0
 45107  1  0
 45108  1  0
 46109  1  0
 47110  1  0
 49111  1  0
 49112  1  0
 49113  1  0
 50114  1  0
 50115  1  0
 51116  1  6
 52117  1  0
 53118  1  6
 55119  1  0
 55120  1  0
 56121  1  6
 57122  1  0
 62123  1  0
 62124  1  0
 63125  1  0
M  END

>  <ID>
DiffSBDD_94_num_sample_100

>  <docking_score>
-8.811

$$$$
DiffSBDD_95_num_sample_100
     RDKit          3D

 51 50  0  0  0  0  0  0  0  0999 V2000
   40.4640   30.3950   49.9410 C   0  0  0  0  0  0  0  0  0  0  0  0
   40.1140   29.6100   51.2030 C   0  0  0  0  0  0  0  0  0  0  0  0
   39.7920   28.3220   51.1190 C   0  0  0  0  0  0  0  0  0  0  0  0
   39.2420   27.6020   52.1000 N   0  0  0  0  0  0  0  0  0  0  0  0
   38.2650   27.7550   52.9460 C   0  0  0  0  0  0  0  0  0  0  0  0
   37.1670   28.0270   52.4720 O   0  0  0  0  0  0  0  0  0  0  0  0
   38.5560   27.5370   54.3810 C   0  0  1  0  0  0  0  0  0  0  0  0
   38.9200   26.3290   54.7590 C   0  0  0  0  0  0  0  0  0  0  0  0
   40.1960   25.9070   54.2370 O   0  0  0  0  0  0  0  0  0  0  0  0
   38.5860   28.6800   55.2280 C   0  0  0  0  0  0  0  0  0  0  0  0
   39.3150   29.9780   54.8840 C   0  0  0  0  0  0  0  0  0  0  0  0
   39.0290   30.7860   56.1170 C   0  0  0  0  0  0  0  0  0  0  0  0
   38.2840   30.0060   57.2020 C   0  0  0  0  0  0  0  0  0  0  0  0
   38.9300   30.2630   58.5960 C   0  0  0  0  0  0  0  0  0  0  0  0
   39.6580   28.9930   59.0020 C   0  0  2  0  0  0  0  0  0  0  0  0
   39.9240   29.1170   60.4750 C   0  0  0  0  0  0  0  0  0  0  0  0
   39.2190   28.4130   61.2890 O   0  0  0  0  0  0  0  0  0  0  0  0
   40.8360   29.9680   60.7640 O   0  0  0  0  0  0  0  0  0  0  0  0
   40.2460   27.8270   58.1190 C   0  0  0  0  0  0  0  0  0  0  0  0
   41.7720   27.7980   58.0400 C   0  0  0  0  0  0  0  0  0  0  0  0
   39.6380   26.4340   58.3590 C   0  0  0  0  0  0  0  0  0  0  0  0
   40.8971   31.3664   50.2217 H   0  0  0  0  0  0  0  0  0  0  0  0
   41.1938   29.8263   49.3460 H   0  0  0  0  0  0  0  0  0  0  0  0
   39.5532   30.5578   49.3460 H   0  0  0  0  0  0  0  0  0  0  0  0
   40.9864   29.6760   51.8698 H   0  0  0  0  0  0  0  0  0  0  0  0
   39.1800   30.0817   51.5423 H   0  0  0  0  0  0  0  0  0  0  0  0
   39.0906   28.2502   50.2747 H   0  0  0  0  0  0  0  0  0  0  0  0
   40.7944   27.8705   51.0815 H   0  0  0  0  0  0  0  0  0  0  0  0
   39.7100   26.6930   52.2160 H   0  0  0  0  0  0  0  0  0  0  0  0
   37.7483   27.2701   55.0785 H   0  0  0  0  0  0  0  0  0  0  0  0
   38.9740   26.3127   55.8576 H   0  0  0  0  0  0  0  0  0  0  0  0
   38.1684   25.6323   54.3594 H   0  0  0  0  0  0  0  0  0  0  0  0
   40.4820   25.0770   54.6960 H   0  0  0  0  0  0  0  0  0  0  0  0
   37.5345   28.9614   55.3869 H   0  0  0  0  0  0  0  0  0  0  0  0
   39.2015   28.3081   56.0604 H   0  0  0  0  0  0  0  0  0  0  0  0
   40.3940   29.8140   54.7469 H   0  0  0  0  0  0  0  0  0  0  0  0
   38.9949   30.4484   53.9426 H   0  0  0  0  0  0  0  0  0  0  0  0
   39.9855   31.1343   56.5340 H   0  0  0  0  0  0  0  0  0  0  0  0
   38.3769   31.6181   55.8130 H   0  0  0  0  0  0  0  0  0  0  0  0
   37.2330   30.3299   57.2243 H   0  0  0  0  0  0  0  0  0  0  0  0
   38.3436   28.9316   56.9737 H   0  0  0  0  0  0  0  0  0  0  0  0
   39.6412   31.0997   58.5320 H   0  0  0  0  0  0  0  0  0  0  0  0
   38.1607   30.5231   59.3379 H   0  0  0  0  0  0  0  0  0  0  0  0
   39.3411   28.1932   58.3165 H   0  0  0  0  0  0  0  0  0  0  0  0
   39.8975   28.1063   57.1137 H   0  0  0  0  0  0  0  0  0  0  0  0
   42.1917   27.7900   59.0568 H   0  0  0  0  0  0  0  0  0  0  0  0
   42.0942   26.8936   57.5032 H   0  0  0  0  0  0  0  0  0  0  0  0
   42.1284   28.6895   57.5032 H   0  0  0  0  0  0  0  0  0  0  0  0
   39.5578   26.2503   59.4406 H   0  0  0  0  0  0  0  0  0  0  0  0
   38.6376   26.3872   57.9040 H   0  0  0  0  0  0  0  0  0  0  0  0
   40.2839   25.6687   57.9040 H   0  0  0  0  0  0  0  0  0  0  0  0
  1  2  1  0
  2  3  1  0
  3  4  1  0
  4  5  1  0
  5  6  2  0
  5  7  1  0
  7  8  1  0
  8  9  1  0
  7 10  1  0
 10 11  1  0
 11 12  1  0
 12 13  1  0
 13 14  1  0
 14 15  1  0
 15 16  1  0
 16 17  2  0
 16 18  1  0
 15 19  1  0
 19 20  1  0
 19 21  1  0
  1 22  1  0
  1 23  1  0
  1 24  1  0
  2 25  1  0
  2 26  1  0
  3 27  1  0
  3 28  1  0
  4 29  1  0
  7 30  1  1
  8 31  1  0
  8 32  1  0
  9 33  1  0
 10 34  1  0
 10 35  1  0
 11 36  1  0
 11 37  1  0
 12 38  1  0
 12 39  1  0
 13 40  1  0
 13 41  1  0
 14 42  1  0
 14 43  1  0
 15 44  1  1
 19 45  1  0
 20 46  1  0
 20 47  1  0
 20 48  1  0
 21 49  1  0
 21 50  1  0
 21 51  1  0
M  CHG  1  18  -1
M  END

>  <ID>
DiffSBDD_95_num_sample_100

>  <docking_score>
-6.731

$$$$
DiffSBDD_96_num_sample_100
     RDKit          3D

 29 28  0  0  0  0  0  0  0  0999 V2000
   40.1400   30.4000   51.3740 C   0  0  0  0  0  0  0  0  0  0  0  0
   39.7540   28.7930   50.6450 S   0  0  0  0  0  0  0  0  0  0  0  0
   38.9430   27.8380   51.8950 C   0  0  0  0  0  0  0  0  0  0  0  0
   37.6970   27.9920   52.1180 O   0  0  0  0  0  0  0  0  0  0  0  0
   39.6580   27.0840   52.8560 C   0  0  0  0  0  0  0  0  0  0  0  0
   38.7820   26.8550   54.0790 C   0  0  0  0  0  0  0  0  0  0  0  0
   39.3970   27.5350   55.1450 C   0  0  0  0  0  0  0  0  0  0  0  0
   38.4500   28.3110   55.9550 C   0  0  0  0  0  0  0  0  0  0  0  0
   38.1930   29.5720   55.2880 N   0  0  0  0  0  0  0  0  0  0  0  0
   39.5590   30.2780   55.0810 C   0  0  0  0  0  0  0  0  0  0  0  0
   36.9720   30.1470   54.9040 C   0  0  0  0  0  0  0  0  0  0  0  0
   40.1206   30.3192   52.4709 H   0  0  0  0  0  0  0  0  0  0  0  0
   41.1405   30.7199   51.0475 H   0  0  0  0  0  0  0  0  0  0  0  0
   39.3939   31.1395   51.0475 H   0  0  0  0  0  0  0  0  0  0  0  0
   39.9425   26.1139   52.4225 H   0  0  0  0  0  0  0  0  0  0  0  0
   40.5632   27.6341   53.1525 H   0  0  0  0  0  0  0  0  0  0  0  0
   37.7730   27.2566   53.9040 H   0  0  0  0  0  0  0  0  0  0  0  0
   38.6792   25.7821   54.2987 H   0  0  0  0  0  0  0  0  0  0  0  0
   39.8896   26.7961   55.7941 H   0  0  0  0  0  0  0  0  0  0  0  0
   40.1160   28.2450   54.7103 H   0  0  0  0  0  0  0  0  0  0  0  0
   37.5095   27.7509   56.0630 H   0  0  0  0  0  0  0  0  0  0  0  0
   38.8732   28.4945   56.9536 H   0  0  0  0  0  0  0  0  0  0  0  0
   38.2940   29.1090   54.3740 H   0  0  0  0  0  0  0  0  0  0  0  0
   40.0047   30.5084   56.0599 H   0  0  0  0  0  0  0  0  0  0  0  0
   40.2327   29.6152   54.5182 H   0  0  0  0  0  0  0  0  0  0  0  0
   39.4080   31.2110   54.5182 H   0  0  0  0  0  0  0  0  0  0  0  0
   36.3962   30.4182   55.8012 H   0  0  0  0  0  0  0  0  0  0  0  0
   37.1640   31.0493   54.3049 H   0  0  0  0  0  0  0  0  0  0  0  0
   36.3987   29.4242   54.3049 H   0  0  0  0  0  0  0  0  0  0  0  0
  1  2  1  0
  2  3  1  0
  3  4  2  0
  3  5  1  0
  5  6  1  0
  6  7  1  0
  7  8  1  0
  8  9  1  0
  9 10  1  0
  9 11  1  0
  1 12  1  0
  1 13  1  0
  1 14  1  0
  5 15  1  0
  5 16  1  0
  6 17  1  0
  6 18  1  0
  7 19  1  0
  7 20  1  0
  8 21  1  0
  8 22  1  0
  9 23  1  0
 10 24  1  0
 10 25  1  0
 10 26  1  0
 11 27  1  0
 11 28  1  0
 11 29  1  0
M  CHG  1   9   1
M  END

>  <ID>
DiffSBDD_96_num_sample_100

>  <docking_score>
-4.526

$$$$
DiffSBDD_97_num_sample_100
     RDKit          3D

 76 80  0  0  0  0  0  0  0  0999 V2000
   36.8180   24.9600   57.1950 O   0  0  0  0  0  0  0  0  0  0  0  0
   37.8010   24.5360   56.5850 N   0  0  0  0  0  0  0  0  0  0  0  0
   38.6590   23.9480   57.3740 O   0  0  0  0  0  0  0  0  0  0  0  0
   38.1980   25.0450   55.3040 C   0  0  2  0  0  0  0  0  0  0  0  0
   39.6930   25.4490   55.7090 C   0  0  0  0  0  0  0  0  0  0  0  0
   40.0220   26.8180   55.4360 C   0  0  0  0  0  0  0  0  0  0  0  0
   38.8530   27.7270   55.0360 C   0  0  1  0  0  0  0  0  0  0  0  0
   39.0350   29.2040   54.6740 C   0  0  1  0  0  0  0  0  0  0  0  0
   39.3970   29.0750   53.0810 C   0  0  0  0  0  0  0  0  0  0  0  0
   39.8950   30.3270   52.5820 C   0  0  0  0  0  0  0  0  0  0  0  0
   40.0990   30.4840   51.2210 C   0  0  0  0  0  0  0  0  0  0  0  0
   39.9240   29.4710   50.2910 C   0  0  0  0  0  0  0  0  0  0  0  0
   40.3140   29.6760   49.0240 F   0  0  0  0  0  0  0  0  0  0  0  0
   39.4760   28.2940   50.8320 C   0  0  0  0  0  0  0  0  0  0  0  0
   39.1620   28.0790   52.1050 C   0  0  0  0  0  0  0  0  0  0  0  0
   38.2440   30.2310   56.0500 S   0  0  2  0  0  4  0  0  0  0  0  0
   38.8310   31.8430   55.4430 C   0  0  0  0  0  0  0  0  0  0  0  0
   38.8670   32.6380   56.6970 C   0  0  0  0  0  0  0  0  0  0  0  0
   38.3950   32.0220   58.0640 C   0  0  1  0  0  0  0  0  0  0  0  0
   37.6740   32.5920   59.0610 C   0  0  0  0  0  0  0  0  0  0  0  0
   37.9530   32.8230   60.5470 C   0  0  1  0  0  0  0  0  0  0  0  0
   39.3920   33.5100   60.7700 C   0  0  0  0  0  0  0  0  0  0  0  0
   39.5590   35.0100   61.1680 C   0  0  0  0  0  0  0  0  0  0  0  0
   38.2110   35.6480   61.9240 C   0  0  1  0  0  0  0  0  0  0  0  0
   38.1330   37.0950   62.6620 C   0  0  0  0  0  0  0  0  0  0  0  0
   38.0030   38.2290   61.9510 C   0  0  0  0  0  0  0  0  0  0  0  0
   37.8380   38.2310   60.4110 C   0  0  0  0  0  0  0  0  0  0  0  0
   37.3840   36.8610   59.7790 C   0  0  0  0  0  0  0  0  0  0  0  0
   37.0520   35.9650   60.9840 N   0  0  1  0  0  0  0  0  0  0  0  0
   36.3650   34.8180   60.5280 C   0  0  0  0  0  0  0  0  0  0  0  0
   36.6890   33.4610   61.2350 C   0  0  0  0  0  0  0  0  0  0  0  0
   38.6940   30.6660   57.7990 C   0  0  0  0  0  0  0  0  0  0  0  0
   37.6650   27.3270   54.5740 N   0  0  0  0  0  0  0  0  0  0  0  0
   37.1260   25.9520   54.7910 C   0  0  0  0  0  0  0  0  0  0  0  0
   38.2673   24.4611   54.3743 H   0  0  0  0  0  0  0  0  0  0  0  0
   39.8192   25.2714   56.7872 H   0  0  0  0  0  0  0  0  0  0  0  0
   40.3664   24.8317   55.0962 H   0  0  0  0  0  0  0  0  0  0  0  0
   40.4811   27.2403   56.3421 H   0  0  0  0  0  0  0  0  0  0  0  0
   40.6886   26.7925   54.5614 H   0  0  0  0  0  0  0  0  0  0  0  0
   38.8807   27.4855   56.1088 H   0  0  0  0  0  0  0  0  0  0  0  0
   39.6232   30.1334   54.6887 H   0  0  0  0  0  0  0  0  0  0  0  0
   40.1123   31.1534   53.2746 H   0  0  0  0  0  0  0  0  0  0  0  0
   40.4189   31.4713   50.8564 H   0  0  0  0  0  0  0  0  0  0  0  0
   39.3655   27.4429   50.1439 H   0  0  0  0  0  0  0  0  0  0  0  0
   38.7157   27.1185   52.4021 H   0  0  0  0  0  0  0  0  0  0  0  0
   37.0680   29.5410   56.1940 H   0  0  0  0  0  0  0  0  0  0  0  0
   39.8301   31.7620   54.9901 H   0  0  0  0  0  0  0  0  0  0  0  0
   38.2023   32.2802   54.6533 H   0  0  0  0  0  0  0  0  0  0  0  0
   39.9125   32.9491   56.8393 H   0  0  0  0  0  0  0  0  0  0  0  0
   38.1117   33.4156   56.5103 H   0  0  0  0  0  0  0  0  0  0  0  0
   38.4569   32.4783   59.0630 H   0  0  0  0  0  0  0  0  0  0  0  0
   37.4710   33.6040   58.6807 H   0  0  0  0  0  0  0  0  0  0  0  0
   36.9855   31.7460   59.2033 H   0  0  0  0  0  0  0  0  0  0  0  0
   38.0801   31.8785   61.0963 H   0  0  0  0  0  0  0  0  0  0  0  0
   39.8875   32.9283   61.5612 H   0  0  0  0  0  0  0  0  0  0  0  0
   39.8026   33.5033   59.7495 H   0  0  0  0  0  0  0  0  0  0  0  0
   40.4163   35.0964   61.8517 H   0  0  0  0  0  0  0  0  0  0  0  0
   39.7109   35.5786   60.2387 H   0  0  0  0  0  0  0  0  0  0  0  0
   38.2127   34.8133   62.6404 H   0  0  0  0  0  0  0  0  0  0  0  0
   38.1874   37.1470   63.7594 H   0  0  0  0  0  0  0  0  0  0  0  0
   38.0143   39.1916   62.4833 H   0  0  0  0  0  0  0  0  0  0  0  0
   37.0860   38.9906   60.1511 H   0  0  0  0  0  0  0  0  0  0  0  0
   38.8365   38.4391   59.9991 H   0  0  0  0  0  0  0  0  0  0  0  0
   36.4966   37.0019   59.1444 H   0  0  0  0  0  0  0  0  0  0  0  0
   38.1610   36.4220   59.1360 H   0  0  0  0  0  0  0  0  0  0  0  0
   36.4370   36.5160   61.5990 H   0  0  0  0  0  0  0  0  0  0  0  0
   35.2883   35.0065   60.6516 H   0  0  0  0  0  0  0  0  0  0  0  0
   36.6992   34.6825   59.4888 H   0  0  0  0  0  0  0  0  0  0  0  0
   36.8977   33.6391   62.3002 H   0  0  0  0  0  0  0  0  0  0  0  0
   35.8305   32.7787   61.1483 H   0  0  0  0  0  0  0  0  0  0  0  0
   39.7705   30.4966   57.9487 H   0  0  0  0  0  0  0  0  0  0  0  0
   38.1118   30.0326   58.4844 H   0  0  0  0  0  0  0  0  0  0  0  0
   36.9710   27.9700   54.9810 H   0  0  0  0  0  0  0  0  0  0  0  0
   37.8310   27.3230   53.5580 H   0  0  0  0  0  0  0  0  0  0  0  0
   36.3071   25.9956   55.5241 H   0  0  0  0  0  0  0  0  0  0  0  0
   36.7559   25.5593   53.8325 H   0  0  0  0  0  0  0  0  0  0  0  0
  1  2  2  0
  2  3  1  0
  2  4  1  0
  4  5  1  0
  5  6  1  0
  6  7  1  0
  7  8  1  0
  8  9  1  0
  9 10  2  0
 10 11  1  0
 11 12  2  0
 12 13  1  0
 12 14  1  0
 14 15  2  0
  8 16  1  0
 16 17  1  0
 17 18  1  0
 18 19  1  0
 19 20  1  0
 20 21  1  0
 21 22  1  0
 22 23  1  0
 23 24  1  0
 24 25  1  0
 25 26  2  0
 26 27  1  0
 27 28  1  0
 28 29  1  0
 29 30  1  0
 30 31  1  0
 19 32  1  0
  7 33  1  0
 33 34  1  0
 34  4  1  0
 15  9  1  0
 32 16  1  0
 31 21  1  0
 29 24  1  0
  4 35  1  6
  5 36  1  0
  5 37  1  0
  6 38  1  0
  6 39  1  0
  7 40  1  1
  8 41  1  1
 10 42  1  0
 11 43  1  0
 14 44  1  0
 15 45  1  0
 16 46  1  1
 17 47  1  0
 17 48  1  0
 18 49  1  0
 18 50  1  0
 19 51  1  1
 20 52  1  0
 20 53  1  0
 21 54  1  1
 22 55  1  0
 22 56  1  0
 23 57  1  0
 23 58  1  0
 24 59  1  1
 25 60  1  0
 26 61  1  0
 27 62  1  0
 27 63  1  0
 28 64  1  0
 28 65  1  0
 29 66  1  1
 30 67  1  0
 30 68  1  0
 31 69  1  0
 31 70  1  0
 32 71  1  0
 32 72  1  0
 33 73  1  0
 33 74  1  0
 34 75  1  0
 34 76  1  0
M  CHG  4   2   1   3  -1  29   1  33   1
M  END

>  <ID>
DiffSBDD_97_num_sample_100

>  <docking_score>
-11.654

$$$$
DiffSBDD_98_num_sample_100
     RDKit          3D

 63 64  0  0  0  0  0  0  0  0999 V2000
   37.0180   37.2680   61.4660 C   0  0  0  0  0  0  0  0  0  0  0  0
   38.3520   36.6260   61.8880 C   0  0  0  0  0  0  0  0  0  0  0  0
   38.7090   35.4220   60.7250 C   0  0  1  0  0  0  0  0  0  0  0  0
   40.4430   35.5510   61.4620 C   0  0  0  0  0  0  0  0  0  0  0  0
   39.4730   34.1390   59.9420 C   0  0  0  0  0  0  0  0  0  0  0  0
   38.0150   33.2850   59.4740 N   0  0  0  0  0  0  0  0  0  0  0  0
   37.7470   32.1770   60.4010 C   0  0  0  0  0  0  0  0  0  0  0  0
   37.6920   31.5020   61.4470 C   0  0  0  0  0  0  0  0  0  0  0  0
   38.2490   30.8640   62.4730 O   0  0  0  0  0  0  0  0  0  0  0  0
   39.5730   31.0820   62.6600 C   0  0  0  0  0  0  0  0  0  0  0  0
   38.1630   32.9630   58.0680 C   0  0  0  0  0  0  0  0  0  0  0  0
   37.8180   33.8580   57.4380 O   0  0  0  0  0  0  0  0  0  0  0  0
   38.6610   31.9030   57.6580 N   0  0  0  0  0  0  0  0  0  0  0  0
   38.2680   31.4480   56.1530 C   0  0  0  0  0  0  0  0  0  0  0  0
   39.2710   31.2470   55.2510 C   0  0  0  0  0  0  0  0  0  0  0  0
   39.1960   29.9360   54.5860 C   0  0  1  0  0  0  0  0  0  0  0  0
   37.9630   29.1980   55.1350 C   0  0  0  0  0  0  0  0  0  0  0  0
   37.5540   27.9450   54.3040 C   0  0  0  0  0  0  0  0  0  0  0  0
   38.4910   27.9480   53.1570 C   0  0  1  0  0  0  0  0  0  0  0  0
   39.3060   26.7260   53.4790 C   0  0  0  0  0  0  0  0  0  0  0  0
   38.0390   27.8020   51.7630 O   0  0  0  0  0  0  0  0  0  0  0  0
   39.1290   28.1300   50.8510 C   0  0  0  0  0  0  0  0  0  0  0  0
   39.9980   29.1970   51.6390 C   0  0  1  0  0  0  0  0  0  0  0  0
   40.2410   30.4710   50.7380 C   0  0  0  0  0  0  0  0  0  0  0  0
   39.2490   29.2890   53.1800 C   0  0  2  0  0  0  0  0  0  0  0  0
   36.4441   37.5442   62.3628 H   0  0  0  0  0  0  0  0  0  0  0  0
   37.2178   38.1686   60.8668 H   0  0  0  0  0  0  0  0  0  0  0  0
   36.4389   36.5500   60.8668 H   0  0  0  0  0  0  0  0  0  0  0  0
   39.1487   37.3842   61.9054 H   0  0  0  0  0  0  0  0  0  0  0  0
   38.2807   36.1927   62.8965 H   0  0  0  0  0  0  0  0  0  0  0  0
   37.7333   35.4129   60.2170 H   0  0  0  0  0  0  0  0  0  0  0  0
   40.3760   35.5460   62.5600 H   0  0  0  0  0  0  0  0  0  0  0  0
   41.0481   34.6954   61.1277 H   0  0  0  0  0  0  0  0  0  0  0  0
   40.9148   36.4867   61.1277 H   0  0  0  0  0  0  0  0  0  0  0  0
   40.0664   34.4667   59.0757 H   0  0  0  0  0  0  0  0  0  0  0  0
   40.2120   33.5720   60.5271 H   0  0  0  0  0  0  0  0  0  0  0  0
   36.6715   32.1135   60.1793 H   0  0  0  0  0  0  0  0  0  0  0  0
   38.8288   31.9777   60.3920 H   0  0  0  0  0  0  0  0  0  0  0  0
   37.0394   32.1733   62.0244 H   0  0  0  0  0  0  0  0  0  0  0  0
   37.8663   30.6035   60.8368 H   0  0  0  0  0  0  0  0  0  0  0  0
   39.7901   31.1177   63.7378 H   0  0  0  0  0  0  0  0  0  0  0  0
   40.1479   30.2664   62.1970 H   0  0  0  0  0  0  0  0  0  0  0  0
   39.8560   32.0388   62.1970 H   0  0  0  0  0  0  0  0  0  0  0  0
   39.2930   31.3400   58.2460 H   0  0  0  0  0  0  0  0  0  0  0  0
   37.7105   30.5032   56.2346 H   0  0  0  0  0  0  0  0  0  0  0  0
   37.7108   32.3061   55.7492 H   0  0  0  0  0  0  0  0  0  0  0  0
   39.2139   32.0327   54.4832 H   0  0  0  0  0  0  0  0  0  0  0  0
   40.2210   31.2799   55.8045 H   0  0  0  0  0  0  0  0  0  0  0  0
   40.2855   29.9465   54.7369 H   0  0  0  0  0  0  0  0  0  0  0  0
   38.1824   28.8748   56.1633 H   0  0  0  0  0  0  0  0  0  0  0  0
   37.1204   29.9033   55.0841 H   0  0  0  0  0  0  0  0  0  0  0  0
   37.6692   27.0273   54.8995 H   0  0  0  0  0  0  0  0  0  0  0  0
   36.5008   27.9746   53.9878 H   0  0  0  0  0  0  0  0  0  0  0  0
   39.3815   26.6128   54.5706 H   0  0  0  0  0  0  0  0  0  0  0  0
   38.8191   25.8373   53.0510 H   0  0  0  0  0  0  0  0  0  0  0  0
   40.3135   26.8340   53.0510 H   0  0  0  0  0  0  0  0  0  0  0  0
   39.7263   27.2353   50.6212 H   0  0  0  0  0  0  0  0  0  0  0  0
   38.7662   28.5157   49.8869 H   0  0  0  0  0  0  0  0  0  0  0  0
   41.0504   28.9595   51.8536 H   0  0  0  0  0  0  0  0  0  0  0  0
   40.4083   31.3480   51.3805 H   0  0  0  0  0  0  0  0  0  0  0  0
   41.1242   30.3079   50.1029 H   0  0  0  0  0  0  0  0  0  0  0  0
   39.3598   30.6445   50.1029 H   0  0  0  0  0  0  0  0  0  0  0  0
   39.4410   30.3721   53.1910 H   0  0  0  0  0  0  0  0  0  0  0  0
  1  2  1  0
  2  3  1  0
  3  4  1  0
  3  5  1  0
  5  6  1  0
  6  7  1  0
  7  8  1  0
  8  9  1  0
  9 10  1  0
  6 11  1  0
 11 12  2  0
 11 13  1  0
 13 14  1  0
 14 15  1  0
 15 16  1  0
 16 17  1  0
 17 18  1  0
 18 19  1  0
 19 20  1  1
 19 21  1  0
 21 22  1  0
 22 23  1  0
 23 24  1  0
 23 25  1  0
 25 16  1  0
 25 19  1  0
  1 26  1  0
  1 27  1  0
  1 28  1  0
  2 29  1  0
  2 30  1  0
  3 31  1  6
  4 32  1  0
  4 33  1  0
  4 34  1  0
  5 35  1  0
  5 36  1  0
  7 37  1  0
  7 38  1  0
  8 39  1  0
  8 40  1  0
 10 41  1  0
 10 42  1  0
 10 43  1  0
 13 44  1  0
 14 45  1  0
 14 46  1  0
 15 47  1  0
 15 48  1  0
 16 49  1  1
 17 50  1  0
 17 51  1  0
 18 52  1  0
 18 53  1  0
 20 54  1  0
 20 55  1  0
 20 56  1  0
 22 57  1  0
 22 58  1  0
 23 59  1  1
 24 60  1  0
 24 61  1  0
 24 62  1  0
 25 63  1  6
M  END

>  <ID>
DiffSBDD_98_num_sample_100

>  <docking_score>
-9.314

$$$$
DiffSBDD_99_num_sample_100
     RDKit          3D

 90 93  0  0  0  0  0  0  0  0999 V2000
   41.1010   34.6210   64.5880 C   0  0  0  0  0  0  0  0  0  0  0  0
   41.4750   34.0710   65.8310 C   0  0  0  0  0  0  0  0  0  0  0  0
   42.4940   33.1460   65.8550 C   0  0  0  0  0  0  0  0  0  0  0  0
   42.9140   32.6720   67.1450 C   0  0  2  0  0  0  0  0  0  0  0  0
   44.0790   31.8470   67.6150 C   0  0  2  0  0  0  0  0  0  0  0  0
   45.4030   32.2260   67.0570 C   0  0  0  0  0  0  0  0  0  0  0  0
   46.2380   31.2030   67.5950 O   0  0  0  0  0  0  0  0  0  0  0  0
   44.1410   30.2860   67.8230 C   0  0  2  0  0  0  0  0  0  0  0  0
   43.7900   29.7840   66.7080 O   0  0  0  0  0  0  0  0  0  0  0  0
   43.0320   28.7120   66.0350 C   0  0  1  0  0  0  0  0  0  0  0  0
   41.6840   28.3880   66.6920 C   0  0  0  0  0  0  0  0  0  0  0  0
   40.4700   29.3930   66.3430 C   0  0  0  0  0  0  0  0  0  0  0  0
   40.5100   30.1580   65.2100 C   0  0  0  0  0  0  0  0  0  0  0  0
   41.4300   29.5480   64.1880 C   0  0  2  0  0  0  0  0  0  0  0  0
   40.9880   29.5020   62.8640 C   0  0  0  0  0  0  0  0  0  0  0  0
   40.2050   30.8590   62.0140 C   0  0  2  0  0  0  0  0  0  0  0  0
   40.0040   31.7250   62.9000 C   0  0  0  0  0  0  0  0  0  0  0  0
   40.3590   32.6750   61.8020 C   0  0  0  0  0  0  0  0  0  0  0  0
   39.1180   32.9960   61.0220 C   0  0  2  0  0  0  0  0  0  0  0  0
   38.8080   32.7230   59.4830 C   0  0  0  0  0  0  0  0  0  0  0  0
   38.8160   34.5080   61.3410 C   0  0  1  0  0  0  0  0  0  0  0  0
   40.1330   35.2070   60.7810 C   0  0  0  0  0  0  0  0  0  0  0  0
   37.6410   34.8280   60.3450 C   0  0  1  0  0  0  0  0  0  0  0  0
   36.2110   34.3750   60.1640 C   0  0  0  0  0  0  0  0  0  0  0  0
   35.7560   34.6220   58.8160 O   0  0  0  0  0  0  0  0  0  0  0  0
   37.5540   36.2290   60.6460 C   0  0  0  0  0  0  0  0  0  0  0  0
   37.4700   37.0810   59.6490 O   0  0  0  0  0  0  0  0  0  0  0  0
   37.2350   36.6990   61.6100 O   0  0  0  0  0  0  0  0  0  0  0  0
   38.0990   32.1050   61.6650 C   0  0  0  0  0  0  0  0  0  0  0  0
   38.7640   30.5450   61.7220 C   0  0  0  0  0  0  0  0  0  0  0  0
   42.7630   29.1150   64.5370 C   0  0  1  0  0  0  0  0  0  0  0  0
   43.7900   30.2500   64.2490 C   0  0  0  0  0  0  0  0  0  0  0  0
   43.2330   29.7470   69.1080 C   0  0  0  0  0  0  0  0  0  0  0  0
   42.1070   30.4870   69.4100 C   0  0  0  0  0  0  0  0  0  0  0  0
   42.1160   32.0230   69.4120 O   0  0  0  0  0  0  0  0  0  0  0  0
   41.9190   32.8100   68.1840 C   0  0  1  0  0  0  0  0  0  0  0  0
   41.0420   33.8760   68.2030 C   0  0  0  0  0  0  0  0  0  0  0  0
   40.8510   34.5180   66.9260 C   0  0  0  0  0  0  0  0  0  0  0  0
   40.0800   35.4720   66.9040 O   0  0  0  0  0  0  0  0  0  0  0  0
   40.4895   35.5202   64.7540 H   0  0  0  0  0  0  0  0  0  0  0  0
   42.0035   34.8910   64.0201 H   0  0  0  0  0  0  0  0  0  0  0  0
   40.5181   33.8809   64.0201 H   0  0  0  0  0  0  0  0  0  0  0  0
   42.9655   32.7859   64.9287 H   0  0  0  0  0  0  0  0  0  0  0  0
   43.7370   33.1668   66.6086 H   0  0  0  0  0  0  0  0  0  0  0  0
   43.7977   32.1850   68.6233 H   0  0  0  0  0  0  0  0  0  0  0  0
   45.3974   32.2039   65.9572 H   0  0  0  0  0  0  0  0  0  0  0  0
   45.7225   33.2474   67.3111 H   0  0  0  0  0  0  0  0  0  0  0  0
   45.7940   30.3250   67.4870 H   0  0  0  0  0  0  0  0  0  0  0  0
   45.1560   29.9657   68.1009 H   0  0  0  0  0  0  0  0  0  0  0  0
   43.6579   27.8108   66.1134 H   0  0  0  0  0  0  0  0  0  0  0  0
   41.3877   27.3779   66.3729 H   0  0  0  0  0  0  0  0  0  0  0  0
   41.8495   28.4859   67.7751 H   0  0  0  0  0  0  0  0  0  0  0  0
   39.5601   28.7783   66.2771 H   0  0  0  0  0  0  0  0  0  0  0  0
   40.5250   30.1392   67.1493 H   0  0  0  0  0  0  0  0  0  0  0  0
   39.4972   30.2296   64.7868 H   0  0  0  0  0  0  0  0  0  0  0  0
   40.8861   31.1580   65.4719 H   0  0  0  0  0  0  0  0  0  0  0  0
   41.8795   30.5349   64.0036 H   0  0  0  0  0  0  0  0  0  0  0  0
   41.8752   29.2498   62.2645 H   0  0  0  0  0  0  0  0  0  0  0  0
   40.1430   28.8037   62.9552 H   0  0  0  0  0  0  0  0  0  0  0  0
   40.8117   31.1092   61.1312 H   0  0  0  0  0  0  0  0  0  0  0  0
   38.9709   31.7933   63.2715 H   0  0  0  0  0  0  0  0  0  0  0  0
   40.4889   31.7181   63.8874 H   0  0  0  0  0  0  0  0  0  0  0  0
   40.7750   33.5982   62.2317 H   0  0  0  0  0  0  0  0  0  0  0  0
   41.1095   32.2183   61.1400 H   0  0  0  0  0  0  0  0  0  0  0  0
   37.9850   31.9982   59.3977 H   0  0  0  0  0  0  0  0  0  0  0  0
   38.5189   33.6652   58.9944 H   0  0  0  0  0  0  0  0  0  0  0  0
   39.7061   32.3171   58.9944 H   0  0  0  0  0  0  0  0  0  0  0  0
   38.5785   34.7859   62.3785 H   0  0  0  0  0  0  0  0  0  0  0  0
   40.7583   35.5389   61.6229 H   0  0  0  0  0  0  0  0  0  0  0  0
   40.6962   34.4891   60.1666 H   0  0  0  0  0  0  0  0  0  0  0  0
   39.8541   36.0758   60.1666 H   0  0  0  0  0  0  0  0  0  0  0  0
   37.9582   34.2516   59.4634 H   0  0  0  0  0  0  0  0  0  0  0  0
   36.1460   33.2971   60.3737 H   0  0  0  0  0  0  0  0  0  0  0  0
   35.5735   34.9421   60.8582 H   0  0  0  0  0  0  0  0  0  0  0  0
   35.0020   34.0150   58.6060 H   0  0  0  0  0  0  0  0  0  0  0  0
   37.8779   32.4582   62.6830 H   0  0  0  0  0  0  0  0  0  0  0  0
   37.1593   32.1090   61.0932 H   0  0  0  0  0  0  0  0  0  0  0  0
   38.3115   29.9418   62.5229 H   0  0  0  0  0  0  0  0  0  0  0  0
   38.6048   29.9502   60.8105 H   0  0  0  0  0  0  0  0  0  0  0  0
   42.8716   28.2096   63.9218 H   0  0  0  0  0  0  0  0  0  0  0  0
   44.1604   30.6594   65.2004 H   0  0  0  0  0  0  0  0  0  0  0  0
   44.6334   29.8435   63.6716 H   0  0  0  0  0  0  0  0  0  0  0  0
   43.3015   31.0487   63.6716 H   0  0  0  0  0  0  0  0  0  0  0  0
   42.9097   28.7198   68.8835 H   0  0  0  0  0  0  0  0  0  0  0  0
   43.8872   29.8327   69.9881 H   0  0  0  0  0  0  0  0  0  0  0  0
   41.3371   30.1850   68.6847 H   0  0  0  0  0  0  0  0  0  0  0  0
   41.9595   30.2566   70.4755 H   0  0  0  0  0  0  0  0  0  0  0  0
   41.1512   32.2274   67.6538 H   0  0  0  0  0  0  0  0  0  0  0  0
   40.0653   33.5107   68.5531 H   0  0  0  0  0  0  0  0  0  0  0  0
   41.4836   34.6317   68.8693 H   0  0  0  0  0  0  0  0  0  0  0  0
  1  2  1  0
  2  3  2  0
  3  4  1  0
  4  5  1  0
  5  6  1  0
  6  7  1  0
  5  8  1  0
  8  9  1  0
  9 10  1  0
 10 11  1  0
 11 12  1  0
 12 13  1  0
 13 14  1  0
 14 15  1  0
 15 16  1  0
 16 17  1  0
 17 18  1  0
 18 19  1  0
 19 20  1  1
 19 21  1  0
 21 22  1  0
 21 23  1  0
 23 24  1  0
 24 25  1  0
 23 26  1  0
 26 27  2  0
 26 28  1  0
 19 29  1  0
 29 30  1  0
 14 31  1  0
 31 32  1  0
  8 33  1  0
 33 34  1  0
 34 35  1  0
 35 36  1  0
 36 37  1  0
 37 38  1  0
 38 39  2  0
 38  2  1  0
 36  4  1  0
 31 10  1  0
 30 16  1  0
  1 40  1  0
  1 41  1  0
  1 42  1  0
  3 43  1  0
  4 44  1  1
  5 45  1  1
  6 46  1  0
  6 47  1  0
  7 48  1  0
  8 49  1  1
 10 50  1  6
 11 51  1  0
 11 52  1  0
 12 53  1  0
 12 54  1  0
 13 55  1  0
 13 56  1  0
 14 57  1  1
 15 58  1  0
 15 59  1  0
 16 60  1  1
 17 61  1  0
 17 62  1  0
 18 63  1  0
 18 64  1  0
 20 65  1  0
 20 66  1  0
 20 67  1  0
 21 68  1  1
 22 69  1  0
 22 70  1  0
 22 71  1  0
 23 72  1  6
 24 73  1  0
 24 74  1  0
 25 75  1  0
 29 76  1  0
 29 77  1  0
 30 78  1  0
 30 79  1  0
 31 80  1  6
 32 81  1  0
 32 82  1  0
 32 83  1  0
 33 84  1  0
 33 85  1  0
 34 86  1  0
 34 87  1  0
 36 88  1  6
 37 89  1  0
 37 90  1  0
M  CHG  1  28  -1
M  END

>  <ID>
DiffSBDD_99_num_sample_100

>  <docking_score>
-10.219

$$$$
DiffSBDD_9_num_sample_100
     RDKit          3D

 13 12  0  0  0  0  0  0  0  0999 V2000
   40.4510   30.3930   50.3220 C   0  0  0  0  0  0  0  0  0  0  0  0
   40.1090   29.4250   51.0480 C   0  0  0  0  0  0  0  0  0  0  0  0
   39.5250   28.1250   50.7870 C   0  0  0  0  0  0  0  0  0  0  0  0
   38.8430   27.5030   52.0140 C   0  0  0  0  0  0  0  0  0  0  0  0
   37.5340   28.0960   52.1800 O   0  0  0  0  0  0  0  0  0  0  0  0
   40.8842   31.2958   50.7772 H   0  0  0  0  0  0  0  0  0  0  0  0
   40.3170   30.3370   49.2316 H   0  0  0  0  0  0  0  0  0  0  0  0
   40.2940   29.6049   52.1173 H   0  0  0  0  0  0  0  0  0  0  0  0
   38.7752   28.2338   49.9896 H   0  0  0  0  0  0  0  0  0  0  0  0
   40.3466   27.4531   50.4979 H   0  0  0  0  0  0  0  0  0  0  0  0
   38.7397   26.4177   51.8673 H   0  0  0  0  0  0  0  0  0  0  0  0
   39.4513   27.6912   52.9110 H   0  0  0  0  0  0  0  0  0  0  0  0
   37.3150   28.6390   51.3820 H   0  0  0  0  0  0  0  0  0  0  0  0
  1  2  2  0
  2  3  1  0
  3  4  1  0
  4  5  1  0
  1  6  1  0
  1  7  1  0
  2  8  1  0
  3  9  1  0
  3 10  1  0
  4 11  1  0
  4 12  1  0
  5 13  1  0
M  END

>  <ID>
DiffSBDD_9_num_sample_100

>  <docking_score>
-3.918

$$$$
