Pocket2Mol_0
     RDKit          3D

 15 14  0  0  0  0  0  0  0  0999 V2000
   40.5490   30.3330   50.1120 C   0  0  0  0  0  0  0  0  0  0  0  0
   40.1880   30.3580   51.4510 C   0  0  0  0  0  0  0  0  0  0  0  0
   39.5580   29.2380   51.7990 C   0  0  0  0  0  0  0  0  0  0  0  0
   39.4830   28.1920   50.7050 C   0  0  0  0  0  0  0  0  0  0  0  0
   38.6450   27.1150   51.0970 O   0  0  0  0  0  0  0  0  0  0  0  0
   41.6432   30.2572   50.0286 H   0  0  0  0  0  0  0  0  0  0  0  0
   40.0830   29.4650   49.6227 H   0  0  0  0  0  0  0  0  0  0  0  0
   40.2071   31.2570   49.6227 H   0  0  0  0  0  0  0  0  0  0  0  0
   41.0941   30.4661   52.0653 H   0  0  0  0  0  0  0  0  0  0  0  0
   39.5070   31.2065   51.6132 H   0  0  0  0  0  0  0  0  0  0  0  0
   40.0869   28.7992   52.6579 H   0  0  0  0  0  0  0  0  0  0  0  0
   38.5210   29.5221   52.0311 H   0  0  0  0  0  0  0  0  0  0  0  0
   39.0763   28.6524   49.7925 H   0  0  0  0  0  0  0  0  0  0  0  0
   40.4947   27.8029   50.5178 H   0  0  0  0  0  0  0  0  0  0  0  0
   38.3070   26.6500   50.2910 H   0  0  0  0  0  0  0  0  0  0  0  0
  1  2  1  0
  2  3  1  0
  3  4  1  0
  4  5  1  0
  1  6  1  0
  1  7  1  0
  1  8  1  0
  2  9  1  0
  2 10  1  0
  3 11  1  0
  3 12  1  0
  4 13  1  0
  4 14  1  0
  5 15  1  0
M  END
>  <docking_score>  (1) 
-3.96

>  <plif_similarity>  (1) 
0.333

$$$$
Pocket2Mol_14
     RDKit          3D

 18 18  0  0  0  0  0  0  0  0999 V2000
   39.9650   27.6720   51.5950 C   0  0  0  0  0  0  0  0  0  0  0  0
   39.2290   28.4990   51.0260 C   0  0  0  0  0  0  0  0  0  0  0  0
   39.8930   29.2810   50.1530 C   0  0  0  0  0  0  0  0  0  0  0  0
   40.6460   30.1870   50.7290 C   0  0  0  0  0  0  0  0  0  0  0  0
   40.2440   30.3990   51.8140 C   0  0  0  0  0  0  0  0  0  0  0  0
   39.3920   29.7790   51.9130 C   0  0  0  0  0  0  0  0  0  0  0  0
   39.8666   27.7825   52.6850 H   0  0  0  0  0  0  0  0  0  0  0  0
   39.6685   26.6542   51.3014 H   0  0  0  0  0  0  0  0  0  0  0  0
   41.0103   27.8484   51.3014 H   0  0  0  0  0  0  0  0  0  0  0  0
   38.3251   27.9410   50.7404 H   0  0  0  0  0  0  0  0  0  0  0  0
   40.5344   28.6403   49.5300 H   0  0  0  0  0  0  0  0  0  0  0  0
   39.1375   29.8178   49.5606 H   0  0  0  0  0  0  0  0  0  0  0  0
   41.6815   29.8203   50.7868 H   0  0  0  0  0  0  0  0  0  0  0  0
   40.6181   31.1155   50.1398 H   0  0  0  0  0  0  0  0  0  0  0  0
   41.0028   30.1376   52.5662 H   0  0  0  0  0  0  0  0  0  0  0  0
   40.0042   31.4615   51.9675 H   0  0  0  0  0  0  0  0  0  0  0  0
   39.3687   29.4413   52.9596 H   0  0  0  0  0  0  0  0  0  0  0  0
   38.5748   30.4266   51.5626 H   0  0  0  0  0  0  0  0  0  0  0  0
  1  2  1  0
  2  3  1  0
  3  4  1  0
  4  5  1  0
  5  6  1  0
  6  2  1  0
  1  7  1  0
  1  8  1  0
  1  9  1  0
  2 10  1  0
  3 11  1  0
  3 12  1  0
  4 13  1  0
  4 14  1  0
  5 15  1  0
  5 16  1  0
  6 17  1  0
  6 18  1  0
M  END
>  <docking_score>  (2) 
-4.727

>  <plif_similarity>  (2) 
0.222

$$$$
Pocket2Mol_18
     RDKit          3D

 11 11  0  0  0  0  0  0  0  0999 V2000
   38.9660   27.4410   50.6870 O   0  0  0  0  0  0  0  0  0  0  0  0
   39.4270   28.4490   50.7830 N   0  0  0  0  0  0  0  0  0  0  0  0
   39.4810   29.2700   52.0030 C   0  0  0  0  0  0  0  0  0  0  0  0
   40.0500   30.4540   51.9330 C   0  0  0  0  0  0  0  0  0  0  0  0
   40.4860   30.3660   50.6650 C   0  0  0  0  0  0  0  0  0  0  0  0
   40.1400   29.3750   49.9690 C   0  0  0  0  0  0  0  0  0  0  0  0
   39.0610   26.9310   49.8430 H   0  0  0  0  0  0  0  0  0  0  0  0
   39.0565   28.9031   52.9492 H   0  0  0  0  0  0  0  0  0  0  0  0
   40.1402   31.2599   52.6762 H   0  0  0  0  0  0  0  0  0  0  0  0
   41.1347   31.1470   50.2417 H   0  0  0  0  0  0  0  0  0  0  0  0
   40.3552   29.2448   48.8981 H   0  0  0  0  0  0  0  0  0  0  0  0
  1  2  1  0
  2  3  1  0
  3  4  2  0
  4  5  1  0
  5  6  2  0
  6  2  1  0
  1  7  1  0
  3  8  1  0
  4  9  1  0
  5 10  1  0
  6 11  1  0
M  END
>  <docking_score>  (3) 
-4.328

>  <plif_similarity>  (3) 
0.444

$$$$
Pocket2Mol_19
     RDKit          3D

 13 13  0  0  0  0  0  0  0  0999 V2000
   38.6720   27.5100   51.7540 C   0  0  0  0  0  0  0  0  0  0  0  0
   39.3290   28.5710   51.4840 N   0  0  0  0  0  0  0  0  0  0  0  0
   39.9730   29.1750   50.3070 C   0  0  0  0  0  0  0  0  0  0  0  0
   40.5220   30.3630   50.4380 C   0  0  0  0  0  0  0  0  0  0  0  0
   40.1310   30.6010   51.7020 C   0  0  0  0  0  0  0  0  0  0  0  0
   39.5600   29.6810   52.3460 C   0  0  0  0  0  0  0  0  0  0  0  0
   38.5988   27.3918   52.8452 H   0  0  0  0  0  0  0  0  0  0  0  0
   37.6620   27.5849   51.3247 H   0  0  0  0  0  0  0  0  0  0  0  0
   39.1892   26.6392   51.3247 H   0  0  0  0  0  0  0  0  0  0  0  0
   39.9948   28.6466   49.3424 H   0  0  0  0  0  0  0  0  0  0  0  0
   41.1134   30.9693   49.7361 H   0  0  0  0  0  0  0  0  0  0  0  0
   40.3067   31.5826   52.1662 H   0  0  0  0  0  0  0  0  0  0  0  0
   39.2828   29.7278   53.4095 H   0  0  0  0  0  0  0  0  0  0  0  0
  1  2  1  0
  2  3  1  0
  3  4  2  0
  4  5  1  0
  5  6  2  0
  6  2  1  0
  1  7  1  0
  1  8  1  0
  1  9  1  0
  3 10  1  0
  4 11  1  0
  5 12  1  0
  6 13  1  0
M  END
>  <docking_score>  (4) 
-4.08

>  <plif_similarity>  (4) 
0.444

$$$$
Pocket2Mol_1
     RDKit          3D

  9  9  0  0  0  0  0  0  0  0999 V2000
   40.3360   30.2450   50.4080 C   0  0  0  0  0  0  0  0  0  0  0  0
   39.7850   28.7080   50.5380 C   0  0  0  0  0  0  0  0  0  0  0  0
   39.1850   28.5220   51.6770 C   0  0  0  0  0  0  0  0  0  0  0  0
   39.3980   29.6270   52.2730 O   0  0  0  0  0  0  0  0  0  0  0  0
   40.1140   30.4480   51.7450 C   0  0  0  0  0  0  0  0  0  0  0  0
   40.7250   30.8619   49.5845 H   0  0  0  0  0  0  0  0  0  0  0  0
   39.9063   27.9354   49.7645 H   0  0  0  0  0  0  0  0  0  0  0  0
   38.6354   27.6383   52.0334 H   0  0  0  0  0  0  0  0  0  0  0  0
   40.5529   31.2926   52.2964 H   0  0  0  0  0  0  0  0  0  0  0  0
  1  2  1  0
  2  3  2  0
  3  4  1  0
  4  5  1  0
  5  1  2  0
  1  6  1  0
  2  7  1  0
  3  8  1  0
  5  9  1  0
M  END
>  <docking_score>  (5) 
-3.617

>  <plif_similarity>  (5) 
0.444

$$$$
Pocket2Mol_22
     RDKit          3D

 11 11  0  0  0  0  0  0  0  0999 V2000
   39.6170   30.4510   53.5710 C   0  0  0  0  0  0  0  0  0  0  0  0
   39.1740   29.3510   52.6560 C   0  0  0  0  0  0  0  0  0  0  0  0
   39.8510   29.1510   51.4730 C   0  0  0  0  0  0  0  0  0  0  0  0
   39.4230   28.2190   50.8010 C   0  0  0  0  0  0  0  0  0  0  0  0
   38.4530   27.4930   51.4280 N   0  0  0  0  0  0  0  0  0  0  0  0
   38.2090   28.2250   52.8950 S   0  0  0  0  0  0  0  0  0  0  0  0
   39.4888   30.1326   54.6161 H   0  0  0  0  0  0  0  0  0  0  0  0
   40.6769   30.6786   53.3845 H   0  0  0  0  0  0  0  0  0  0  0  0
   39.0107   31.3496   53.3845 H   0  0  0  0  0  0  0  0  0  0  0  0
   40.7017   29.7734   51.1586 H   0  0  0  0  0  0  0  0  0  0  0  0
   39.7867   27.9900   49.7885 H   0  0  0  0  0  0  0  0  0  0  0  0
  1  2  1  0
  2  3  2  0
  3  4  1  0
  4  5  2  0
  5  6  1  0
  6  2  1  0
  1  7  1  0
  1  8  1  0
  1  9  1  0
  3 10  1  0
  4 11  1  0
M  END
>  <docking_score>  (6) 
-4.094

>  <plif_similarity>  (6) 
0.222

$$$$
Pocket2Mol_25
     RDKit          3D

 15 15  0  0  0  0  0  0  0  0999 V2000
   39.4560   30.5820   54.1020 C   0  0  0  0  0  0  0  0  0  0  0  0
   39.6340   29.9730   52.7110 C   0  0  0  0  0  0  0  0  0  0  0  0
   39.1550   28.6240   52.6020 C   0  0  0  0  0  0  0  0  0  0  0  0
   39.1220   28.0890   51.3680 C   0  0  0  0  0  0  0  0  0  0  0  0
   39.7930   28.6680   50.3360 C   0  0  0  0  0  0  0  0  0  0  0  0
   40.3160   30.0410   50.6460 C   0  0  0  0  0  0  0  0  0  0  0  0
   40.1730   30.6110   51.7500 C   0  0  0  0  0  0  0  0  0  0  0  0
   39.6780   29.8224   54.8660 H   0  0  0  0  0  0  0  0  0  0  0  0
   40.1430   31.4329   54.2204 H   0  0  0  0  0  0  0  0  0  0  0  0
   38.4189   30.9289   54.2204 H   0  0  0  0  0  0  0  0  0  0  0  0
   38.8304   28.0548   53.4855 H   0  0  0  0  0  0  0  0  0  0  0  0
   38.5440   27.1700   51.1910 H   0  0  0  0  0  0  0  0  0  0  0  0
   39.9391   28.1754   49.3634 H   0  0  0  0  0  0  0  0  0  0  0  0
   40.8580   30.5782   49.8538 H   0  0  0  0  0  0  0  0  0  0  0  0
   40.5083   31.6494   51.8889 H   0  0  0  0  0  0  0  0  0  0  0  0
  1  2  1  0
  2  3  2  0
  3  4  1  0
  4  5  2  0
  5  6  1  0
  6  7  2  0
  7  2  1  0
  1  8  1  0
  1  9  1  0
  1 10  1  0
  3 11  1  0
  4 12  1  0
  5 13  1  0
  6 14  1  0
  7 15  1  0
M  END
>  <docking_score>  (7) 
-5.655

>  <plif_similarity>  (7) 
0.444

$$$$
Pocket2Mol_27
     RDKit          3D

 13 13  0  0  0  0  0  0  0  0999 V2000
   38.0650   27.4630   52.4860 O   0  0  0  0  0  0  0  0  0  0  0  0
   38.9570   28.5790   51.9330 C   0  0  0  0  0  0  0  0  0  0  0  0
   39.3500   29.6690   52.5370 C   0  0  0  0  0  0  0  0  0  0  0  0
   40.0690   30.5110   52.0090 C   0  0  0  0  0  0  0  0  0  0  0  0
   40.5750   30.3440   50.7340 C   0  0  0  0  0  0  0  0  0  0  0  0
   40.1040   29.0210   50.1210 C   0  0  0  0  0  0  0  0  0  0  0  0
   39.4050   28.2500   50.6970 C   0  0  0  0  0  0  0  0  0  0  0  0
   37.1380   27.6640   52.7680 H   0  0  0  0  0  0  0  0  0  0  0  0
   39.0191   29.8403   53.5720 H   0  0  0  0  0  0  0  0  0  0  0  0
   40.3183   31.4257   52.5668 H   0  0  0  0  0  0  0  0  0  0  0  0
   41.2303   31.0665   50.2255 H   0  0  0  0  0  0  0  0  0  0  0  0
   40.4278   28.7724   49.0995 H   0  0  0  0  0  0  0  0  0  0  0  0
   39.1281   27.2903   50.2362 H   0  0  0  0  0  0  0  0  0  0  0  0
  1  2  1  0
  2  3  2  0
  3  4  1  0
  4  5  2  0
  5  6  1  0
  6  7  2  0
  7  2  1  0
  1  8  1  0
  3  9  1  0
  4 10  1  0
  5 11  1  0
  6 12  1  0
  7 13  1  0
M  END
>  <docking_score>  (8) 
-5.231

>  <plif_similarity>  (8) 
0.444

$$$$
Pocket2Mol_28
     RDKit          3D

 14 14  0  0  0  0  0  0  0  0999 V2000
   38.0530   27.5620   52.6650 N   0  0  0  0  0  0  0  0  0  0  0  0
   39.0160   28.4360   51.9400 C   0  0  0  0  0  0  0  0  0  0  0  0
   39.4520   28.2850   50.6990 C   0  0  0  0  0  0  0  0  0  0  0  0
   40.0490   29.1580   50.2450 C   0  0  0  0  0  0  0  0  0  0  0  0
   40.5390   30.2610   50.7800 C   0  0  0  0  0  0  0  0  0  0  0  0
   40.0680   30.5330   52.0640 C   0  0  0  0  0  0  0  0  0  0  0  0
   39.2690   29.6250   52.6820 C   0  0  0  0  0  0  0  0  0  0  0  0
   38.3650   27.0230   53.4850 H   0  0  0  0  0  0  0  0  0  0  0  0
   37.0760   27.4960   52.3460 H   0  0  0  0  0  0  0  0  0  0  0  0
   39.2526   27.3665   50.1276 H   0  0  0  0  0  0  0  0  0  0  0  0
   40.2477   29.0544   49.1681 H   0  0  0  0  0  0  0  0  0  0  0  0
   41.2573   30.9099   50.2576 H   0  0  0  0  0  0  0  0  0  0  0  0
   40.3401   31.4711   52.5700 H   0  0  0  0  0  0  0  0  0  0  0  0
   38.8476   29.7957   53.6836 H   0  0  0  0  0  0  0  0  0  0  0  0
  1  2  1  0
  2  3  2  0
  3  4  1  0
  4  5  2  0
  5  6  1  0
  6  7  2  0
  7  2  1  0
  1  8  1  0
  1  9  1  0
  3 10  1  0
  4 11  1  0
  5 12  1  0
  6 13  1  0
  7 14  1  0
M  END
>  <docking_score>  (9) 
-5.301

>  <plif_similarity>  (9) 
0.444

$$$$
Pocket2Mol_32
     RDKit          3D

 12 12  0  0  0  0  0  0  0  0999 V2000
   41.1150   30.5940   49.8160 F   0  0  0  0  0  0  0  0  0  0  0  0
   40.3190   29.8740   50.7880 C   0  0  0  0  0  0  0  0  0  0  0  0
   39.8150   28.6320   50.6510 C   0  0  0  0  0  0  0  0  0  0  0  0
   39.2520   27.9600   51.3960 C   0  0  0  0  0  0  0  0  0  0  0  0
   38.9990   28.4670   52.5910 C   0  0  0  0  0  0  0  0  0  0  0  0
   39.3750   29.8220   52.9400 C   0  0  0  0  0  0  0  0  0  0  0  0
   40.0640   30.4980   52.0100 C   0  0  0  0  0  0  0  0  0  0  0  0
   39.9678   28.1844   49.6579 H   0  0  0  0  0  0  0  0  0  0  0  0
   38.9380   26.9408   51.1263 H   0  0  0  0  0  0  0  0  0  0  0  0
   38.4894   27.8432   53.3401 H   0  0  0  0  0  0  0  0  0  0  0  0
   39.1109   30.2690   53.9098 H   0  0  0  0  0  0  0  0  0  0  0  0
   40.4200   31.5203   52.2053 H   0  0  0  0  0  0  0  0  0  0  0  0
  1  2  1  0
  2  3  2  0
  3  4  1  0
  4  5  2  0
  5  6  1  0
  6  7  2  0
  7  2  1  0
  3  8  1  0
  4  9  1  0
  5 10  1  0
  6 11  1  0
  7 12  1  0
M  END
>  <docking_score>  (10) 
-5.438

>  <plif_similarity>  (10) 
0.444

$$$$
Pocket2Mol_35
     RDKit          3D

 11 11  0  0  0  0  0  0  0  0999 V2000
   37.8590   27.6110   51.8910 O   0  0  0  0  0  0  0  0  0  0  0  0
   38.9300   28.4060   51.8590 C   0  0  0  0  0  0  0  0  0  0  0  0
   39.6450   28.4370   50.5940 C   0  0  0  0  0  0  0  0  0  0  0  0
   40.1600   29.5160   50.2790 C   0  0  0  0  0  0  0  0  0  0  0  0
   40.2580   30.4800   51.1550 C   0  0  0  0  0  0  0  0  0  0  0  0
   39.8070   30.4810   52.5260 C   0  0  0  0  0  0  0  0  0  0  0  0
   39.1980   29.1950   52.7800 O   0  0  0  0  0  0  0  0  0  0  0  0
   39.7238   27.5479   49.9511 H   0  0  0  0  0  0  0  0  0  0  0  0
   40.5373   29.6648   49.2565 H   0  0  0  0  0  0  0  0  0  0  0  0
   40.7432   31.4032   50.8053 H   0  0  0  0  0  0  0  0  0  0  0  0
   39.9080   31.3076   53.2447 H   0  0  0  0  0  0  0  0  0  0  0  0
  1  2  2  0
  2  3  1  0
  3  4  2  0
  4  5  1  0
  5  6  2  0
  6  7  1  0
  7  2  1  0
  3  8  1  0
  4  9  1  0
  5 10  1  0
  6 11  1  0
M  END
>  <docking_score>  (11) 
-5.254

>  <plif_similarity>  (11) 
0.444

$$$$
Pocket2Mol_38
     RDKit          3D

 12 12  0  0  0  0  0  0  0  0999 V2000
   40.3630   30.2510   50.2130 C   0  0  0  0  0  0  0  0  0  0  0  0
   39.7750   29.6840   51.4690 C   0  0  0  0  0  0  0  0  0  0  0  0
   39.7910   30.4440   52.6170 C   0  0  0  0  0  0  0  0  0  0  0  0
   39.2740   29.8990   53.5860 C   0  0  0  0  0  0  0  0  0  0  0  0
   38.6730   28.7100   53.2900 N   0  0  0  0  0  0  0  0  0  0  0  0
   38.7850   28.3870   51.8280 C   0  0  0  0  0  0  0  0  0  0  0  0
   38.4820   27.6040   51.1090 O   0  0  0  0  0  0  0  0  0  0  0  0
   41.1327   30.9932   50.4710 H   0  0  0  0  0  0  0  0  0  0  0  0
   40.8174   29.4415   49.6229 H   0  0  0  0  0  0  0  0  0  0  0  0
   39.5705   30.7345   49.6229 H   0  0  0  0  0  0  0  0  0  0  0  0
   40.2293   31.4520   52.6610 H   0  0  0  0  0  0  0  0  0  0  0  0
   39.2928   30.3280   54.5987 H   0  0  0  0  0  0  0  0  0  0  0  0
  1  2  1  0
  2  3  2  0
  3  4  1  0
  4  5  2  0
  5  6  1  0
  6  7  2  0
  6  2  1  0
  1  8  1  0
  1  9  1  0
  1 10  1  0
  3 11  1  0
  4 12  1  0
M  END
>  <docking_score>  (12) 
-5.111

>  <plif_similarity>  (12) 
0.222

$$$$
Pocket2Mol_39
     RDKit          3D

 15 15  0  0  0  0  0  0  0  0999 V2000
   37.9960   27.2050   53.8880 C   0  0  0  0  0  0  0  0  0  0  0  0
   38.7240   28.0450   52.8460 C   0  0  0  0  0  0  0  0  0  0  0  0
   38.9150   27.4450   51.6160 C   0  0  0  0  0  0  0  0  0  0  0  0
   39.4850   28.1970   50.7540 C   0  0  0  0  0  0  0  0  0  0  0  0
   39.9250   29.3790   51.1930 C   0  0  0  0  0  0  0  0  0  0  0  0
   40.6820   30.3800   50.2730 C   0  0  0  0  0  0  0  0  0  0  0  0
   39.1590   29.4480   53.0060 S   0  0  0  0  0  0  0  0  0  0  0  0
   38.2853   27.5388   54.8954 H   0  0  0  0  0  0  0  0  0  0  0  0
   36.9098   27.3231   53.7605 H   0  0  0  0  0  0  0  0  0  0  0  0
   38.2673   26.1466   53.7605 H   0  0  0  0  0  0  0  0  0  0  0  0
   38.6043   26.4125   51.3982 H   0  0  0  0  0  0  0  0  0  0  0  0
   39.6068   27.8869   49.7057 H   0  0  0  0  0  0  0  0  0  0  0  0
   41.2302   31.1049   50.8926 H   0  0  0  0  0  0  0  0  0  0  0  0
   41.3918   29.8296   49.6380 H   0  0  0  0  0  0  0  0  0  0  0  0
   39.9591   30.9131   49.6380 H   0  0  0  0  0  0  0  0  0  0  0  0
  1  2  1  0
  2  3  2  0
  3  4  1  0
  4  5  2  0
  5  6  1  0
  5  7  1  0
  7  2  1  0
  1  8  1  0
  1  9  1  0
  1 10  1  0
  3 11  1  0
  4 12  1  0
  6 13  1  0
  6 14  1  0
  6 15  1  0
M  END
>  <docking_score>  (13) 
-5.104

>  <plif_similarity>  (13) 
0.333

$$$$
Pocket2Mol_6
     RDKit          3D

 12 12  0  0  0  0  0  0  0  0999 V2000
   40.1680   29.2430   50.0680 C   0  0  0  0  0  0  0  0  0  0  0  0
   39.6060   28.1670   50.6760 C   0  0  0  0  0  0  0  0  0  0  0  0
   39.1650   28.4320   51.8850 C   0  0  0  0  0  0  0  0  0  0  0  0
   39.4160   29.5560   52.6120 C   0  0  0  0  0  0  0  0  0  0  0  0
   40.0670   30.4850   51.9140 C   0  0  0  0  0  0  0  0  0  0  0  0
   40.5400   30.4150   50.6310 C   0  0  0  0  0  0  0  0  0  0  0  0
   40.3419   29.1502   48.9858 H   0  0  0  0  0  0  0  0  0  0  0  0
   39.5279   27.1759   50.2052 H   0  0  0  0  0  0  0  0  0  0  0  0
   38.5289   27.6691   52.3577 H   0  0  0  0  0  0  0  0  0  0  0  0
   39.1138   29.6829   53.6620 H   0  0  0  0  0  0  0  0  0  0  0  0
   40.2488   31.4349   52.4380 H   0  0  0  0  0  0  0  0  0  0  0  0
   41.1338   31.1954   50.1327 H   0  0  0  0  0  0  0  0  0  0  0  0
  1  2  1  0
  2  3  2  0
  3  4  1  0
  4  5  2  0
  5  6  1  0
  6  1  2  0
  1  7  1  0
  2  8  1  0
  3  9  1  0
  4 10  1  0
  5 11  1  0
  6 12  1  0
M  END
>  <docking_score>  (14) 
-5.026

>  <plif_similarity>  (14) 
0.444

$$$$
Pocket2Mol_8
     RDKit          3D

 12 12  0  0  0  0  0  0  0  0999 V2000
   38.9100   28.9660   53.4890 C   0  0  0  0  0  0  0  0  0  0  0  0
   39.4370   29.1500   52.0720 C   0  0  0  0  0  0  0  0  0  0  0  0
   40.0660   30.3530   51.8140 C   0  0  0  0  0  0  0  0  0  0  0  0
   40.5370   30.4510   50.6300 C   0  0  0  0  0  0  0  0  0  0  0  0
   40.2450   29.4560   49.7890 C   0  0  0  0  0  0  0  0  0  0  0  0
   39.3610   28.0880   51.0660 S   0  0  0  0  0  0  0  0  0  0  0  0
   39.6941   29.2398   54.2103 H   0  0  0  0  0  0  0  0  0  0  0  0
   38.0316   29.6106   53.6401 H   0  0  0  0  0  0  0  0  0  0  0  0
   38.6237   27.9147   53.6401 H   0  0  0  0  0  0  0  0  0  0  0  0
   40.1536   31.1552   52.5615 H   0  0  0  0  0  0  0  0  0  0  0  0
   41.1506   31.3098   50.3202 H   0  0  0  0  0  0  0  0  0  0  0  0
   40.4259   29.3828   48.7065 H   0  0  0  0  0  0  0  0  0  0  0  0
  1  2  1  0
  2  3  2  0
  3  4  1  0
  4  5  2  0
  5  6  1  0
  6  2  1  0
  1  7  1  0
  1  8  1  0
  1  9  1  0
  3 10  1  0
  4 11  1  0
  5 12  1  0
M  END
>  <docking_score>  (15) 
-4.536

>  <plif_similarity>  (15) 
0.444

$$$$
