Pocket2Mol_11
     RDKit          3D

 14 14  0  0  0  0  0  0  0  0999 V2000
   11.3070    6.5460   -4.8370 C   0  0  0  0  0  0  0  0  0  0  0  0
   11.7960    7.3550   -3.8110 C   0  0  0  0  0  0  0  0  0  0  0  0
   12.0570    8.7840   -3.6990 C   0  0  0  0  0  0  0  0  0  0  0  0
   12.4370    9.0970   -2.6060 O   0  0  0  0  0  0  0  0  0  0  0  0
   12.5770    8.0690   -1.7320 C   0  0  0  0  0  0  0  0  0  0  0  0
   11.9920    6.7550   -2.4570 C   0  0  0  0  0  0  0  0  0  0  0  0
   10.7839    5.6806   -4.4039 H   0  0  0  0  0  0  0  0  0  0  0  0
   10.6071    7.1243   -5.4580 H   0  0  0  0  0  0  0  0  0  0  0  0
   12.1444    6.1951   -5.4580 H   0  0  0  0  0  0  0  0  0  0  0  0
   11.9205    9.4967   -4.5257 H   0  0  0  0  0  0  0  0  0  0  0  0
   13.6392    7.9239   -1.4858 H   0  0  0  0  0  0  0  0  0  0  0  0
   12.0393    8.2735   -0.7944 H   0  0  0  0  0  0  0  0  0  0  0  0
   12.7137    5.9249   -2.4666 H   0  0  0  0  0  0  0  0  0  0  0  0
   11.1072    6.2939   -1.9938 H   0  0  0  0  0  0  0  0  0  0  0  0
  1  2  1  0
  2  3  2  0
  3  4  1  0
  4  5  1  0
  5  6  1  0
  6  2  1  0
  1  7  1  0
  1  8  1  0
  1  9  1  0
  3 10  1  0
  5 11  1  0
  5 12  1  0
  6 13  1  0
  6 14  1  0
M  END
>  <docking_score>  (1) 
-4.419

>  <plif_similarity>  (1) 
0.286

$$$$
Pocket2Mol_16
     RDKit          3D

 12 12  0  0  0  0  0  0  0  0999 V2000
   12.6560    8.8130   -1.1170 O   0  0  0  0  0  0  0  0  0  0  0  0
   12.3400    8.3160   -2.4440 C   0  0  0  0  0  0  0  0  0  0  0  0
   12.0100    7.0280   -2.6600 C   0  0  0  0  0  0  0  0  0  0  0  0
   11.5490    6.7310   -3.8390 C   0  0  0  0  0  0  0  0  0  0  0  0
   11.5430    7.5630   -4.7660 N   0  0  0  0  0  0  0  0  0  0  0  0
   11.9280    8.8310   -4.6010 C   0  0  0  0  0  0  0  0  0  0  0  0
   12.2960    9.2080   -3.3890 C   0  0  0  0  0  0  0  0  0  0  0  0
   12.5360    8.2270   -0.3280 H   0  0  0  0  0  0  0  0  0  0  0  0
   12.1250    6.2643   -1.8767 H   0  0  0  0  0  0  0  0  0  0  0  0
   11.1548    5.7205   -4.0222 H   0  0  0  0  0  0  0  0  0  0  0  0
   11.9385    9.5370   -5.4444 H   0  0  0  0  0  0  0  0  0  0  0  0
   12.5599   10.2559   -3.1837 H   0  0  0  0  0  0  0  0  0  0  0  0
  1  2  1  0
  2  3  2  0
  3  4  1  0
  4  5  2  0
  5  6  1  0
  6  7  2  0
  7  2  1  0
  1  8  1  0
  3  9  1  0
  4 10  1  0
  6 11  1  0
  7 12  1  0
M  END
>  <docking_score>  (2) 
-4.567

>  <plif_similarity>  (2) 
0.429

$$$$
Pocket2Mol_18
     RDKit          3D

 13 13  0  0  0  0  0  0  0  0999 V2000
   12.6890    8.7890   -1.1090 N   0  0  0  0  0  0  0  0  0  0  0  0
   12.3460    8.3140   -2.4370 C   0  0  0  0  0  0  0  0  0  0  0  0
   12.0030    7.0310   -2.6660 C   0  0  0  0  0  0  0  0  0  0  0  0
   11.5200    6.7540   -3.8410 C   0  0  0  0  0  0  0  0  0  0  0  0
   11.5030    7.6000   -4.7550 N   0  0  0  0  0  0  0  0  0  0  0  0
   11.9630    8.7610   -4.5950 C   0  0  0  0  0  0  0  0  0  0  0  0
   12.1980    9.1020   -3.5390 C   0  0  0  0  0  0  0  0  0  0  0  0
   12.0420    8.6320   -0.3230 H   0  0  0  0  0  0  0  0  0  0  0  0
   13.5790    9.2830   -0.9530 H   0  0  0  0  0  0  0  0  0  0  0  0
   12.1258    6.2553   -1.8958 H   0  0  0  0  0  0  0  0  0  0  0  0
   11.1168    5.7486   -4.0324 H   0  0  0  0  0  0  0  0  0  0  0  0
   12.1322    9.4258   -5.4549 H   0  0  0  0  0  0  0  0  0  0  0  0
   12.3195   10.1848   -3.3883 H   0  0  0  0  0  0  0  0  0  0  0  0
  1  2  1  0
  2  3  2  0
  3  4  1  0
  4  5  2  0
  5  6  1  0
  6  7  2  0
  7  2  1  0
  1  8  1  0
  1  9  1  0
  3 10  1  0
  4 11  1  0
  6 12  1  0
  7 13  1  0
M  END
>  <docking_score>  (3) 
-4.542

>  <plif_similarity>  (3) 
0.429

$$$$
Pocket2Mol_19
     RDKit          3D

 12 12  0  0  0  0  0  0  0  0999 V2000
   13.1560    8.5400   -1.2280 O   0  0  0  0  0  0  0  0  0  0  0  0
   12.4550    8.2920   -2.5820 C   0  0  0  0  0  0  0  0  0  0  0  0
   12.0350    6.9830   -2.5920 C   0  0  0  0  0  0  0  0  0  0  0  0
   11.6030    6.6500   -3.8390 C   0  0  0  0  0  0  0  0  0  0  0  0
   11.4780    7.6490   -4.9210 C   0  0  0  0  0  0  0  0  0  0  0  0
   11.8980    8.8900   -4.6480 N   0  0  0  0  0  0  0  0  0  0  0  0
   12.4120    9.1610   -3.5470 C   0  0  0  0  0  0  0  0  0  0  0  0
   12.6860    8.3310   -0.3820 H   0  0  0  0  0  0  0  0  0  0  0  0
   12.0464    6.3074   -1.7240 H   0  0  0  0  0  0  0  0  0  0  0  0
   11.3382    5.6031   -4.0484 H   0  0  0  0  0  0  0  0  0  0  0  0
   11.0598    7.3851   -5.9036 H   0  0  0  0  0  0  0  0  0  0  0  0
   12.8406   10.1614   -3.3871 H   0  0  0  0  0  0  0  0  0  0  0  0
  1  2  1  0
  2  3  1  0
  3  4  2  0
  4  5  1  0
  5  6  2  0
  6  7  1  0
  7  2  2  0
  1  8  1  0
  3  9  1  0
  4 10  1  0
  5 11  1  0
  7 12  1  0
M  END
>  <docking_score>  (4) 
-4.694

>  <plif_similarity>  (4) 
0.286

$$$$
Pocket2Mol_1
     RDKit          3D

 10 10  0  0  0  0  0  0  0  0999 V2000
   12.3340    7.1040   -2.2120 C   0  0  0  0  0  0  0  0  0  0  0  0
   12.1430    7.7620   -3.5220 C   0  0  0  0  0  0  0  0  0  0  0  0
   12.1140    9.1070   -3.1920 C   0  0  0  0  0  0  0  0  0  0  0  0
   12.4040    9.2880   -1.8070 N   0  0  0  0  0  0  0  0  0  0  0  0
   12.5830    8.1140   -1.4320 C   0  0  0  0  0  0  0  0  0  0  0  0
   12.2794    6.0343   -1.9614 H   0  0  0  0  0  0  0  0  0  0  0  0
   12.0474    7.2977   -4.5146 H   0  0  0  0  0  0  0  0  0  0  0  0
   11.8976    9.9215   -3.8989 H   0  0  0  0  0  0  0  0  0  0  0  0
   12.4510   10.1600   -1.2610 H   0  0  0  0  0  0  0  0  0  0  0  0
   12.9610    7.9270   -0.4161 H   0  0  0  0  0  0  0  0  0  0  0  0
  1  2  1  0
  2  3  2  0
  3  4  1  0
  4  5  1  0
  5  1  2  0
  1  6  1  0
  2  7  1  0
  3  8  1  0
  4  9  1  0
  5 10  1  0
M  END
>  <docking_score>  (5) 
-3.826

>  <plif_similarity>  (5) 
0.429

$$$$
Pocket2Mol_20
     RDKit          3D

 12 12  0  0  0  0  0  0  0  0999 V2000
   12.4900    8.8660   -1.5180 N   0  0  0  0  0  0  0  0  0  0  0  0
   12.1690    8.3110   -2.8210 C   0  0  0  0  0  0  0  0  0  0  0  0
   11.9160    6.9990   -2.9900 C   0  0  0  0  0  0  0  0  0  0  0  0
   11.4420    6.6380   -4.1460 C   0  0  0  0  0  0  0  0  0  0  0  0
   11.3560    7.4390   -5.0950 N   0  0  0  0  0  0  0  0  0  0  0  0
   11.7950    8.7150   -4.9460 C   0  0  0  0  0  0  0  0  0  0  0  0
   12.1830    9.2670   -3.6860 N   0  0  0  0  0  0  0  0  0  0  0  0
   13.4540    9.1670   -1.3100 H   0  0  0  0  0  0  0  0  0  0  0  0
   11.7550    8.9600   -0.8040 H   0  0  0  0  0  0  0  0  0  0  0  0
   12.1013    6.2682   -2.1890 H   0  0  0  0  0  0  0  0  0  0  0  0
   11.1089    5.5994   -4.2887 H   0  0  0  0  0  0  0  0  0  0  0  0
   11.8550    9.3552   -5.8385 H   0  0  0  0  0  0  0  0  0  0  0  0
  1  2  1  0
  2  3  1  0
  3  4  2  0
  4  5  1  0
  5  6  2  0
  6  7  1  0
  7  2  2  0
  1  8  1  0
  1  9  1  0
  3 10  1  0
  4 11  1  0
  6 12  1  0
M  END
>  <docking_score>  (6) 
-4.454

>  <plif_similarity>  (6) 
0.286

$$$$
Pocket2Mol_21
     RDKit          3D

  9  9  0  0  0  0  0  0  0  0999 V2000
   12.6510    8.1070   -1.9120 C   0  0  0  0  0  0  0  0  0  0  0  0
   11.9440    6.7430   -2.3270 C   0  0  0  0  0  0  0  0  0  0  0  0
   11.6400    6.8410   -3.7770 C   0  0  0  0  0  0  0  0  0  0  0  0
   11.9470    8.0890   -4.0740 O   0  0  0  0  0  0  0  0  0  0  0  0
   12.5850    8.7630   -3.1100 C   0  0  0  0  0  0  0  0  0  0  0  0
   13.0693    8.4275   -0.9464 H   0  0  0  0  0  0  0  0  0  0  0  0
   11.7231    5.8914   -1.6667 H   0  0  0  0  0  0  0  0  0  0  0  0
   11.2510    6.0585   -4.4451 H   0  0  0  0  0  0  0  0  0  0  0  0
   13.0199    9.7610   -3.2680 H   0  0  0  0  0  0  0  0  0  0  0  0
  1  2  1  0
  2  3  2  0
  3  4  1  0
  4  5  1  0
  5  1  2  0
  1  6  1  0
  2  7  1  0
  3  8  1  0
  5  9  1  0
M  END
>  <docking_score>  (7) 
-3.7

>  <plif_similarity>  (7) 
0.429

$$$$
Pocket2Mol_22
     RDKit          3D

 11 11  0  0  0  0  0  0  0  0999 V2000
   13.1820    8.2710   -0.9090 F   0  0  0  0  0  0  0  0  0  0  0  0
   12.5480    8.1140   -2.2900 C   0  0  0  0  0  0  0  0  0  0  0  0
   12.2170    6.8300   -2.5340 C   0  0  0  0  0  0  0  0  0  0  0  0
   11.5840    6.6030   -3.7820 C   0  0  0  0  0  0  0  0  0  0  0  0
   11.5400    7.5920   -4.6450 C   0  0  0  0  0  0  0  0  0  0  0  0
   12.0280    8.7990   -4.3390 N   0  0  0  0  0  0  0  0  0  0  0  0
   12.5560    9.0110   -3.2310 C   0  0  0  0  0  0  0  0  0  0  0  0
   12.4226    6.0199   -1.8188 H   0  0  0  0  0  0  0  0  0  0  0  0
   11.1415    5.6247   -4.0211 H   0  0  0  0  0  0  0  0  0  0  0  0
   11.0941    7.4247   -5.6366 H   0  0  0  0  0  0  0  0  0  0  0  0
   13.0408    9.9806   -3.0442 H   0  0  0  0  0  0  0  0  0  0  0  0
  1  2  1  0
  2  3  1  0
  3  4  2  0
  4  5  1  0
  5  6  2  0
  6  7  1  0
  7  2  2  0
  3  8  1  0
  4  9  1  0
  5 10  1  0
  7 11  1  0
M  END
>  <docking_score>  (8) 
-4.868

>  <plif_similarity>  (8) 
0.286

$$$$
Pocket2Mol_27
     RDKit          3D

 13 13  0  0  0  0  0  0  0  0999 V2000
   11.9270    6.4280   -2.3560 O   0  0  0  0  0  0  0  0  0  0  0  0
   11.7390    7.1240   -3.6050 C   0  0  0  0  0  0  0  0  0  0  0  0
   11.2250    6.5490   -4.6710 C   0  0  0  0  0  0  0  0  0  0  0  0
   11.1040    7.2880   -5.8290 C   0  0  0  0  0  0  0  0  0  0  0  0
   11.5470    8.5500   -5.8630 N   0  0  0  0  0  0  0  0  0  0  0  0
   12.0530    9.0760   -4.8550 C   0  0  0  0  0  0  0  0  0  0  0  0
   12.0660    8.4710   -3.7040 C   0  0  0  0  0  0  0  0  0  0  0  0
   12.7550    9.0330   -2.4420 O   0  0  0  0  0  0  0  0  0  0  0  0
   12.4290    6.8580   -1.6200 H   0  0  0  0  0  0  0  0  0  0  0  0
   10.8981    5.4992   -4.6391 H   0  0  0  0  0  0  0  0  0  0  0  0
   10.6443    6.8409   -6.7227 H   0  0  0  0  0  0  0  0  0  0  0  0
   12.5003   10.0774   -4.9398 H   0  0  0  0  0  0  0  0  0  0  0  0
   12.2090    9.4020   -1.7030 H   0  0  0  0  0  0  0  0  0  0  0  0
  1  2  1  0
  2  3  2  0
  3  4  1  0
  4  5  2  0
  5  6  1  0
  6  7  2  0
  7  8  1  0
  7  2  1  0
  1  9  1  0
  3 10  1  0
  4 11  1  0
  6 12  1  0
  8 13  1  0
M  END
>  <docking_score>  (9) 
-4.505

>  <plif_similarity>  (9) 
0.286

$$$$
Pocket2Mol_29
     RDKit          3D

 14 14  0  0  0  0  0  0  0  0999 V2000
   10.9050    6.9860   -6.2660 C   0  0  0  0  0  0  0  0  0  0  0  0
   11.2620    6.3190   -5.0560 O   0  0  0  0  0  0  0  0  0  0  0  0
   11.6680    7.2100   -3.9840 C   0  0  0  0  0  0  0  0  0  0  0  0
   11.8320    6.7730   -2.7200 C   0  0  0  0  0  0  0  0  0  0  0  0
   12.3900    7.5960   -1.8830 C   0  0  0  0  0  0  0  0  0  0  0  0
   12.6340    8.7770   -2.1930 N   0  0  0  0  0  0  0  0  0  0  0  0
   12.2570    9.0870   -3.5400 C   0  0  0  0  0  0  0  0  0  0  0  0
   11.8500    8.3320   -4.3840 N   0  0  0  0  0  0  0  0  0  0  0  0
   10.3983    7.9327   -6.0271 H   0  0  0  0  0  0  0  0  0  0  0  0
   11.8126    7.1936   -6.8518 H   0  0  0  0  0  0  0  0  0  0  0  0
   10.2289    6.3459   -6.8518 H   0  0  0  0  0  0  0  0  0  0  0  0
   11.5091    5.7678   -2.4113 H   0  0  0  0  0  0  0  0  0  0  0  0
   12.6532    7.2404   -0.8759 H   0  0  0  0  0  0  0  0  0  0  0  0
   12.3508   10.1416   -3.8384 H   0  0  0  0  0  0  0  0  0  0  0  0
  1  2  1  0
  2  3  1  0
  3  4  1  0
  4  5  2  0
  5  6  1  0
  6  7  2  0
  7  8  1  0
  8  3  2  0
  1  9  1  0
  1 10  1  0
  1 11  1  0
  4 12  1  0
  5 13  1  0
  7 14  1  0
M  END
>  <docking_score>  (10) 
-4.502

>  <plif_similarity>  (10) 
0.286

$$$$
Pocket2Mol_31
     RDKit          3D

 17 18  0  0  0  0  0  0  0  0999 V2000
   11.0820    7.1270   -6.0370 C   0  0  0  0  0  0  0  0  0  0  0  0
   11.4950    8.5940   -6.1840 C   0  0  0  0  0  0  0  0  0  0  0  0
   11.9590    9.3030   -5.1170 C   0  0  0  0  0  0  0  0  0  0  0  0
   12.0590    8.6900   -3.8870 C   0  0  0  0  0  0  0  0  0  0  0  0
   11.7240    7.3490   -3.9320 C   0  0  0  0  0  0  0  0  0  0  0  0
   11.2390    6.4950   -4.9060 C   0  0  0  0  0  0  0  0  0  0  0  0
   12.0140    6.9310   -2.4410 C   0  0  0  0  0  0  0  0  0  0  0  0
   12.5860    8.1540   -1.7750 C   0  0  0  0  0  0  0  0  0  0  0  0
   12.4800    9.1060   -2.7080 O   0  0  0  0  0  0  0  0  0  0  0  0
   10.6465    6.5979   -6.8974 H   0  0  0  0  0  0  0  0  0  0  0  0
   11.4159    9.0831   -7.1661 H   0  0  0  0  0  0  0  0  0  0  0  0
   12.2515   10.3566   -5.2366 H   0  0  0  0  0  0  0  0  0  0  0  0
   11.0162    5.4293   -4.7489 H   0  0  0  0  0  0  0  0  0  0  0  0
   11.0834    6.6231   -1.9418 H   0  0  0  0  0  0  0  0  0  0  0  0
   12.7081    6.0793   -2.3874 H   0  0  0  0  0  0  0  0  0  0  0  0
   12.0068    8.4185   -0.8780 H   0  0  0  0  0  0  0  0  0  0  0  0
   13.6214    8.0069   -1.4339 H   0  0  0  0  0  0  0  0  0  0  0  0
  1  2  2  0
  2  3  1  0
  3  4  2  0
  4  5  1  0
  5  6  2  0
  5  7  1  0
  7  8  1  0
  8  9  1  0
  6  1  1  0
  9  4  1  0
  1 10  1  0
  2 11  1  0
  3 12  1  0
  6 13  1  0
  7 14  1  0
  7 15  1  0
  8 16  1  0
  8 17  1  0
M  END
>  <docking_score>  (11) 
-6.325

>  <plif_similarity>  (11) 
0.286

$$$$
Pocket2Mol_34
     RDKit          3D

 16 17  0  0  0  0  0  0  0  0999 V2000
   11.4930    8.5770   -6.0460 C   0  0  0  0  0  0  0  0  0  0  0  0
   11.9150    9.2890   -4.9540 C   0  0  0  0  0  0  0  0  0  0  0  0
   12.0220    8.7270   -3.7390 C   0  0  0  0  0  0  0  0  0  0  0  0
   11.7800    7.3700   -3.8580 C   0  0  0  0  0  0  0  0  0  0  0  0
   11.2750    6.5510   -4.8520 C   0  0  0  0  0  0  0  0  0  0  0  0
   11.2040    7.2540   -6.0920 N   0  0  0  0  0  0  0  0  0  0  0  0
   11.9990    6.7430   -2.4620 C   0  0  0  0  0  0  0  0  0  0  0  0
   12.7650    8.0870   -1.7220 C   0  0  0  0  0  0  0  0  0  0  0  0
   12.5120    9.0910   -2.5700 O   0  0  0  0  0  0  0  0  0  0  0  0
   11.3765    9.1388   -6.9845 H   0  0  0  0  0  0  0  0  0  0  0  0
   12.1735   10.3512   -5.0760 H   0  0  0  0  0  0  0  0  0  0  0  0
   10.9706    5.5040   -4.7069 H   0  0  0  0  0  0  0  0  0  0  0  0
   11.0515    6.4789   -1.9695 H   0  0  0  0  0  0  0  0  0  0  0  0
   12.5550    5.7942   -2.4383 H   0  0  0  0  0  0  0  0  0  0  0  0
   12.3333    8.2901   -0.7309 H   0  0  0  0  0  0  0  0  0  0  0  0
   13.8400    7.9290   -1.5504 H   0  0  0  0  0  0  0  0  0  0  0  0
  1  2  1  0
  2  3  2  0
  3  4  1  0
  4  5  2  0
  5  6  1  0
  4  7  1  0
  7  8  1  0
  8  9  1  0
  6  1  2  0
  9  3  1  0
  1 10  1  0
  2 11  1  0
  5 12  1  0
  7 13  1  0
  7 14  1  0
  8 15  1  0
  8 16  1  0
M  END
>  <docking_score>  (12) 
-5.529

>  <plif_similarity>  (12) 
0.286

$$$$
Pocket2Mol_35
     RDKit          3D

 15 16  0  0  0  0  0  0  0  0999 V2000
   12.5010    7.9040   -2.4810 C   0  0  0  0  0  0  0  0  0  0  0  0
   11.9080    6.7610   -3.0890 C   0  0  0  0  0  0  0  0  0  0  0  0
   11.3740    6.6970   -4.4450 C   0  0  0  0  0  0  0  0  0  0  0  0
   11.4010    7.8370   -5.1580 C   0  0  0  0  0  0  0  0  0  0  0  0
   12.0640    8.8760   -4.5310 C   0  0  0  0  0  0  0  0  0  0  0  0
   12.5280    9.1070   -3.2480 C   0  0  0  0  0  0  0  0  0  0  0  0
   11.9110    9.9890   -5.7050 O   0  0  0  0  0  0  0  0  0  0  0  0
   11.6070    9.2020   -6.9250 C   0  0  0  0  0  0  0  0  0  0  0  0
   11.1320    8.0540   -6.4310 O   0  0  0  0  0  0  0  0  0  0  0  0
   12.9199    7.8615   -1.4648 H   0  0  0  0  0  0  0  0  0  0  0  0
   11.8472    5.8453   -2.4825 H   0  0  0  0  0  0  0  0  0  0  0  0
   10.9696    5.7634   -4.8632 H   0  0  0  0  0  0  0  0  0  0  0  0
   12.8701   10.0824   -2.8717 H   0  0  0  0  0  0  0  0  0  0  0  0
   10.8521    9.7084   -7.5444 H   0  0  0  0  0  0  0  0  0  0  0  0
   12.4793    9.0640   -7.5807 H   0  0  0  0  0  0  0  0  0  0  0  0
  1  2  2  0
  2  3  1  0
  3  4  2  0
  4  5  1  0
  5  6  2  0
  5  7  1  0
  7  8  1  0
  8  9  1  0
  6  1  1  0
  9  4  1  0
  1 10  1  0
  2 11  1  0
  3 12  1  0
  6 13  1  0
  8 14  1  0
  8 15  1  0
M  END
>  <docking_score>  (13) 
-5.826

>  <plif_similarity>  (13) 
0.429

$$$$
Pocket2Mol_36
     RDKit          3D

 17 18  0  0  0  0  0  0  0  0999 V2000
   12.4750    7.0640   -2.2440 C   0  0  0  0  0  0  0  0  0  0  0  0
   12.6680    8.5740   -2.5290 C   0  0  0  0  0  0  0  0  0  0  0  0
   12.3740    9.3920   -3.6210 C   0  0  0  0  0  0  0  0  0  0  0  0
   11.9140    8.5320   -4.6550 C   0  0  0  0  0  0  0  0  0  0  0  0
   11.7450    8.7900   -5.9380 O   0  0  0  0  0  0  0  0  0  0  0  0
   11.2370    7.7840   -6.6580 C   0  0  0  0  0  0  0  0  0  0  0  0
   11.1330    6.6260   -5.7040 C   0  0  0  0  0  0  0  0  0  0  0  0
   11.6080    7.2330   -4.2900 C   0  0  0  0  0  0  0  0  0  0  0  0
   11.6400    6.5170   -3.1070 C   0  0  0  0  0  0  0  0  0  0  0  0
   12.9701    6.5179   -1.4275 H   0  0  0  0  0  0  0  0  0  0  0  0
   13.1357    9.1166   -1.6942 H   0  0  0  0  0  0  0  0  0  0  0  0
   11.5915   10.1172   -3.3532 H   0  0  0  0  0  0  0  0  0  0  0  0
   13.2583    9.9625   -3.9411 H   0  0  0  0  0  0  0  0  0  0  0  0
   10.9553    7.8001   -7.7212 H   0  0  0  0  0  0  0  0  0  0  0  0
   10.8068    5.5984   -5.9224 H   0  0  0  0  0  0  0  0  0  0  0  0
   10.6309    6.5003   -2.6696 H   0  0  0  0  0  0  0  0  0  0  0  0
   11.9830    5.4950   -3.3259 H   0  0  0  0  0  0  0  0  0  0  0  0
  1  2  2  0
  2  3  1  0
  3  4  1  0
  4  5  1  0
  5  6  1  0
  6  7  2  0
  7  8  1  0
  8  9  1  0
  9  1  1  0
  8  4  2  0
  1 10  1  0
  2 11  1  0
  3 12  1  0
  3 13  1  0
  6 14  1  0
  7 15  1  0
  9 16  1  0
  9 17  1  0
M  END
>  <docking_score>  (14) 
-6.218

>  <plif_similarity>  (14) 
0.286

$$$$
Pocket2Mol_37
     RDKit          3D

 15 16  0  0  0  0  0  0  0  0999 V2000
   10.9510    7.2840   -5.8540 C   0  0  0  0  0  0  0  0  0  0  0  0
   11.2830    8.6120   -5.9010 C   0  0  0  0  0  0  0  0  0  0  0  0
   12.0350    9.4000   -5.0560 C   0  0  0  0  0  0  0  0  0  0  0  0
   12.1530    8.6820   -3.8350 C   0  0  0  0  0  0  0  0  0  0  0  0
   12.5670    9.1070   -2.6570 O   0  0  0  0  0  0  0  0  0  0  0  0
   12.6230    8.1730   -1.7020 C   0  0  0  0  0  0  0  0  0  0  0  0
   12.1220    6.8610   -2.4180 C   0  0  0  0  0  0  0  0  0  0  0  0
   11.7720    7.3520   -3.8580 C   0  0  0  0  0  0  0  0  0  0  0  0
   11.2750    6.4950   -4.8230 C   0  0  0  0  0  0  0  0  0  0  0  0
   10.3957    6.8486   -6.6978 H   0  0  0  0  0  0  0  0  0  0  0  0
   10.8754    9.1471   -6.7714 H   0  0  0  0  0  0  0  0  0  0  0  0
   12.4598   10.3891   -5.2821 H   0  0  0  0  0  0  0  0  0  0  0  0
   12.9447    8.2926   -0.6569 H   0  0  0  0  0  0  0  0  0  0  0  0
   12.0391    5.8455   -2.0034 H   0  0  0  0  0  0  0  0  0  0  0  0
   11.1691    5.4021   -4.7573 H   0  0  0  0  0  0  0  0  0  0  0  0
  1  2  2  0
  2  3  1  0
  3  4  2  0
  4  5  1  0
  5  6  1  0
  6  7  2  0
  7  8  1  0
  8  9  2  0
  9  1  1  0
  8  4  1  0
  1 10  1  0
  2 11  1  0
  3 12  1  0
  6 13  1  0
  7 14  1  0
  9 15  1  0
M  END
>  <docking_score>  (15) 
-6.32

>  <plif_similarity>  (15) 
0.286

$$$$
Pocket2Mol_38
     RDKit          3D

 14 15  0  0  0  0  0  0  0  0999 V2000
   11.4560    8.6520   -6.0310 C   0  0  0  0  0  0  0  0  0  0  0  0
   11.9670    9.3690   -5.0490 C   0  0  0  0  0  0  0  0  0  0  0  0
   12.0170    8.7240   -3.8250 C   0  0  0  0  0  0  0  0  0  0  0  0
   12.4430    9.0930   -2.6320 O   0  0  0  0  0  0  0  0  0  0  0  0
   12.5820    8.1010   -1.7460 C   0  0  0  0  0  0  0  0  0  0  0  0
   12.0170    6.7110   -2.5370 C   0  0  0  0  0  0  0  0  0  0  0  0
   11.7120    7.3800   -3.9300 C   0  0  0  0  0  0  0  0  0  0  0  0
   11.2350    6.5620   -4.9390 C   0  0  0  0  0  0  0  0  0  0  0  0
   11.2180    7.3420   -6.1460 N   0  0  0  0  0  0  0  0  0  0  0  0
   11.1743    9.2396   -6.9172 H   0  0  0  0  0  0  0  0  0  0  0  0
   12.3255   10.3991   -5.1914 H   0  0  0  0  0  0  0  0  0  0  0  0
   12.9783    8.1715   -0.7223 H   0  0  0  0  0  0  0  0  0  0  0  0
   11.9008    5.6741   -2.1886 H   0  0  0  0  0  0  0  0  0  0  0  0
   10.9265    5.5111   -4.8365 H   0  0  0  0  0  0  0  0  0  0  0  0
  1  2  1  0
  2  3  2  0
  3  4  1  0
  4  5  1  0
  5  6  2  0
  6  7  1  0
  7  8  2  0
  8  9  1  0
  9  1  2  0
  7  3  1  0
  1 10  1  0
  2 11  1  0
  5 12  1  0
  6 13  1  0
  8 14  1  0
M  END
>  <docking_score>  (16) 
-5.577

>  <plif_similarity>  (16) 
0.286

$$$$
Pocket2Mol_40
     RDKit          3D

 15 16  0  0  0  0  0  0  0  0999 V2000
   12.4310    7.7480   -2.6220 C   0  0  0  0  0  0  0  0  0  0  0  0
   11.8150    6.6660   -3.0560 C   0  0  0  0  0  0  0  0  0  0  0  0
   11.3010    6.6260   -4.4350 C   0  0  0  0  0  0  0  0  0  0  0  0
   11.5850    7.8690   -4.9710 C   0  0  0  0  0  0  0  0  0  0  0  0
   12.2210    9.0080   -4.5130 C   0  0  0  0  0  0  0  0  0  0  0  0
   12.7260    8.9650   -3.1840 C   0  0  0  0  0  0  0  0  0  0  0  0
   12.2820    9.9880   -5.3940 O   0  0  0  0  0  0  0  0  0  0  0  0
   11.6580    9.7500   -6.5530 C   0  0  0  0  0  0  0  0  0  0  0  0
   11.0880    7.9700   -6.5520 S   0  0  0  0  0  0  0  0  0  0  0  0
   12.7853    7.6552   -1.5847 H   0  0  0  0  0  0  0  0  0  0  0  0
   11.6859    5.7987   -2.3919 H   0  0  0  0  0  0  0  0  0  0  0  0
   10.7973    5.7849   -4.9339 H   0  0  0  0  0  0  0  0  0  0  0  0
   13.2689    9.7807   -2.6841 H   0  0  0  0  0  0  0  0  0  0  0  0
   10.7906   10.4190   -6.6535 H   0  0  0  0  0  0  0  0  0  0  0  0
   12.3401    9.9309   -7.3968 H   0  0  0  0  0  0  0  0  0  0  0  0
  1  2  2  0
  2  3  1  0
  3  4  2  0
  4  5  1  0
  5  6  2  0
  5  7  1  0
  7  8  1  0
  8  9  1  0
  6  1  1  0
  9  4  1  0
  1 10  1  0
  2 11  1  0
  3 12  1  0
  6 13  1  0
  8 14  1  0
  8 15  1  0
M  END
>  <docking_score>  (17) 
-5.778

>  <plif_similarity>  (17) 
0.429

$$$$
Pocket2Mol_42
     RDKit          3D

 16 17  0  0  0  0  0  0  0  0999 V2000
   12.7390    8.5010   -2.5220 C   0  0  0  0  0  0  0  0  0  0  0  0
   12.4440    7.1900   -2.4140 C   0  0  0  0  0  0  0  0  0  0  0  0
   11.7580    6.4920   -3.2320 C   0  0  0  0  0  0  0  0  0  0  0  0
   11.3700    7.0410   -4.4570 C   0  0  0  0  0  0  0  0  0  0  0  0
   11.8960    8.3110   -4.6130 C   0  0  0  0  0  0  0  0  0  0  0  0
   12.4110    9.2670   -3.7560 C   0  0  0  0  0  0  0  0  0  0  0  0
   11.4010    8.9250   -6.0570 N   0  0  0  0  0  0  0  0  0  0  0  0
   11.2100    7.1860   -6.6890 C   0  0  0  0  0  0  0  0  0  0  0  0
   10.9730    6.4760   -5.5810 O   0  0  0  0  0  0  0  0  0  0  0  0
   13.2312    9.0144   -1.6829 H   0  0  0  0  0  0  0  0  0  0  0  0
   12.8356    6.6680   -1.5284 H   0  0  0  0  0  0  0  0  0  0  0  0
   11.4728    5.4614   -2.9740 H   0  0  0  0  0  0  0  0  0  0  0  0
   12.5466   10.3425   -3.9427 H   0  0  0  0  0  0  0  0  0  0  0  0
   11.2590    9.8690   -6.4450 H   0  0  0  0  0  0  0  0  0  0  0  0
   10.3661    7.1131   -7.3908 H   0  0  0  0  0  0  0  0  0  0  0  0
   12.0913    6.8325   -7.2443 H   0  0  0  0  0  0  0  0  0  0  0  0
  1  2  2  0
  2  3  1  0
  3  4  2  0
  4  5  1  0
  5  6  2  0
  5  7  1  0
  7  8  1  0
  8  9  1  0
  6  1  1  0
  9  4  1  0
  1 10  1  0
  2 11  1  0
  3 12  1  0
  6 13  1  0
  7 14  1  0
  8 15  1  0
  8 16  1  0
M  END
>  <docking_score>  (18) 
-5.766

>  <plif_similarity>  (18) 
0.429

$$$$
Pocket2Mol_43
     RDKit          3D

  8  8  0  0  0  0  0  0  0  0999 V2000
   12.0580    6.9230   -2.3210 C   0  0  0  0  0  0  0  0  0  0  0  0
   12.5950    8.0740   -2.0450 C   0  0  0  0  0  0  0  0  0  0  0  0
   12.3830    8.9690   -3.3730 S   0  0  0  0  0  0  0  0  0  0  0  0
   11.6720    7.5680   -4.4380 C   0  0  0  0  0  0  0  0  0  0  0  0
   11.6660    6.6450   -3.4700 N   0  0  0  0  0  0  0  0  0  0  0  0
   11.9471    6.1766   -1.5206 H   0  0  0  0  0  0  0  0  0  0  0  0
   13.0879    8.3741   -1.1085 H   0  0  0  0  0  0  0  0  0  0  0  0
   11.3677    7.5285   -5.4943 H   0  0  0  0  0  0  0  0  0  0  0  0
  1  2  2  0
  2  3  1  0
  3  4  1  0
  4  5  2  0
  5  1  1  0
  1  6  1  0
  2  7  1  0
  4  8  1  0
M  END
>  <docking_score>  (19) 
-2.919

>  <plif_similarity>  (19) 
0.286

$$$$
Pocket2Mol_44
     RDKit          3D

 14 15  0  0  0  0  0  0  0  0999 V2000
   12.3260    7.7110   -2.0300 C   0  0  0  0  0  0  0  0  0  0  0  0
   11.9520    6.7100   -2.8840 C   0  0  0  0  0  0  0  0  0  0  0  0
   11.5450    6.9900   -4.1500 C   0  0  0  0  0  0  0  0  0  0  0  0
   11.7280    8.3390   -4.3910 C   0  0  0  0  0  0  0  0  0  0  0  0
   12.0140    9.4420   -3.6060 C   0  0  0  0  0  0  0  0  0  0  0  0
   12.4240    9.0350   -2.3010 N   0  0  0  0  0  0  0  0  0  0  0  0
   11.1780    8.3800   -5.9540 O   0  0  0  0  0  0  0  0  0  0  0  0
   11.2770    6.9600   -6.3760 C   0  0  0  0  0  0  0  0  0  0  0  0
   11.2650    6.2790   -5.2250 O   0  0  0  0  0  0  0  0  0  0  0  0
   12.5764    7.4054   -1.0034 H   0  0  0  0  0  0  0  0  0  0  0  0
   11.9811    5.6650   -2.5416 H   0  0  0  0  0  0  0  0  0  0  0  0
   11.9362   10.4868   -3.9411 H   0  0  0  0  0  0  0  0  0  0  0  0
   10.4202    6.6786   -7.0058 H   0  0  0  0  0  0  0  0  0  0  0  0
   12.1756    6.7587   -6.9777 H   0  0  0  0  0  0  0  0  0  0  0  0
  1  2  1  0
  2  3  2  0
  3  4  1  0
  4  5  2  0
  5  6  1  0
  4  7  1  0
  7  8  1  0
  8  9  1  0
  6  1  2  0
  9  3  1  0
  1 10  1  0
  2 11  1  0
  5 12  1  0
  8 13  1  0
  8 14  1  0
M  END
>  <docking_score>  (20) 
-5.169

>  <plif_similarity>  (20) 
0.286

$$$$
Pocket2Mol_6
     RDKit          3D

 11 11  0  0  0  0  0  0  0  0999 V2000
   12.0740    6.7790   -2.4690 C   0  0  0  0  0  0  0  0  0  0  0  0
   12.3930    7.9490   -1.8830 C   0  0  0  0  0  0  0  0  0  0  0  0
   12.4350    8.9970   -2.6510 C   0  0  0  0  0  0  0  0  0  0  0  0
   12.0640    8.9510   -3.8380 N   0  0  0  0  0  0  0  0  0  0  0  0
   11.6680    7.8980   -4.4610 C   0  0  0  0  0  0  0  0  0  0  0  0
   11.6730    6.6790   -3.7330 C   0  0  0  0  0  0  0  0  0  0  0  0
   12.1490    5.8587   -1.8712 H   0  0  0  0  0  0  0  0  0  0  0  0
   12.6077    8.0146   -0.8062 H   0  0  0  0  0  0  0  0  0  0  0  0
   12.8075    9.9476   -2.2417 H   0  0  0  0  0  0  0  0  0  0  0  0
   11.3403    7.9398   -5.5102 H   0  0  0  0  0  0  0  0  0  0  0  0
   11.3676    5.7222   -4.1816 H   0  0  0  0  0  0  0  0  0  0  0  0
  1  2  2  0
  2  3  1  0
  3  4  2  0
  4  5  1  0
  5  6  2  0
  6  1  1  0
  1  7  1  0
  2  8  1  0
  3  9  1  0
  5 10  1  0
  6 11  1  0
M  END
>  <docking_score>  (21) 
-4.339

>  <plif_similarity>  (21) 
0.429

$$$$
Pocket2Mol_7
     RDKit          3D

 13 13  0  0  0  0  0  0  0  0999 V2000
   11.2500    6.5390   -4.8940 C   0  0  0  0  0  0  0  0  0  0  0  0
   11.8590    7.4030   -3.8770 C   0  0  0  0  0  0  0  0  0  0  0  0
   12.0270    8.6760   -3.6770 C   0  0  0  0  0  0  0  0  0  0  0  0
   12.4180    9.1180   -2.5800 N   0  0  0  0  0  0  0  0  0  0  0  0
   12.5140    8.0770   -1.7330 C   0  0  0  0  0  0  0  0  0  0  0  0
   12.0830    6.7790   -2.3590 C   0  0  0  0  0  0  0  0  0  0  0  0
   10.6835    5.7353   -4.4009 H   0  0  0  0  0  0  0  0  0  0  0  0
   10.5708    7.1343   -5.5219 H   0  0  0  0  0  0  0  0  0  0  0  0
   12.0390    6.0994   -5.5219 H   0  0  0  0  0  0  0  0  0  0  0  0
   11.8189    9.3801   -4.4961 H   0  0  0  0  0  0  0  0  0  0  0  0
   12.8690    8.1655   -0.6956 H   0  0  0  0  0  0  0  0  0  0  0  0
   12.8665    6.0077   -2.3255 H   0  0  0  0  0  0  0  0  0  0  0  0
   11.2355    6.2506   -1.8980 H   0  0  0  0  0  0  0  0  0  0  0  0
  1  2  1  0
  2  3  2  0
  3  4  1  0
  4  5  2  0
  5  6  1  0
  6  2  1  0
  1  7  1  0
  1  8  1  0
  1  9  1  0
  3 10  1  0
  5 11  1  0
  6 12  1  0
  6 13  1  0
M  END
>  <docking_score>  (22) 
-4.365

>  <plif_similarity>  (22) 
0.286

$$$$
Pocket2Mol_9
     RDKit          3D

 12 12  0  0  0  0  0  0  0  0999 V2000
   11.2690    6.5370   -4.8560 C   0  0  0  0  0  0  0  0  0  0  0  0
   11.7660    7.3550   -3.8410 C   0  0  0  0  0  0  0  0  0  0  0  0
   12.0230    6.9400   -2.5240 C   0  0  0  0  0  0  0  0  0  0  0  0
   12.5610    8.0870   -1.7740 C   0  0  0  0  0  0  0  0  0  0  0  0
   12.4160    9.1070   -2.6560 O   0  0  0  0  0  0  0  0  0  0  0  0
   12.0290    8.7840   -3.7440 C   0  0  0  0  0  0  0  0  0  0  0  0
   10.7466    5.6772   -4.4112 H   0  0  0  0  0  0  0  0  0  0  0  0
   10.5667    7.1108   -5.4785 H   0  0  0  0  0  0  0  0  0  0  0  0
   12.1018    6.1781   -5.4785 H   0  0  0  0  0  0  0  0  0  0  0  0
   11.8516    5.9306   -2.1217 H   0  0  0  0  0  0  0  0  0  0  0  0
   12.9758    8.1107   -0.7555 H   0  0  0  0  0  0  0  0  0  0  0  0
   11.8882    9.4890   -4.5766 H   0  0  0  0  0  0  0  0  0  0  0  0
  1  2  1  0
  2  3  1  0
  3  4  2  0
  4  5  1  0
  5  6  1  0
  6  2  2  0
  1  7  1  0
  1  8  1  0
  1  9  1  0
  3 10  1  0
  4 11  1  0
  6 12  1  0
M  END
>  <docking_score>  (23) 
-4.363

>  <plif_similarity>  (23) 
0.286

$$$$
