DiffSBDD_0
     RDKit          3D

 61 60  0  0  0  0  0  0  0  0999 V2000
   37.2600   26.0870   54.8500 C   0  0  0  0  0  0  0  0  0  0  0  0
   37.2400   25.0960   55.8800 C   0  0  0  0  0  0  0  0  0  0  0  0
   36.7420   23.7170   55.4930 C   0  0  0  0  0  0  0  0  0  0  0  0
   37.7160   25.3800   57.2280 C   0  0  0  0  0  0  0  0  0  0  0  0
   39.1120   25.7430   57.5560 C   0  0  2  0  0  0  0  0  0  0  0  0
   40.0770   24.8120   57.4120 O   0  0  0  0  0  0  0  0  0  0  0  0
   39.3360   26.9050   58.5320 C   0  0  1  0  0  0  0  0  0  0  0  0
   40.8940   27.1900   58.4460 C   0  0  0  0  0  0  0  0  0  0  0  0
   38.2710   28.0780   58.3320 C   0  0  0  0  0  0  0  0  0  0  0  0
   38.3650   28.9060   57.0230 C   0  0  0  0  0  0  0  0  0  0  0  0
   37.6790   30.2670   56.8050 C   0  0  1  0  0  0  0  0  0  0  0  0
   37.8820   31.1550   58.0000 O   0  0  0  0  0  0  0  0  0  0  0  0
   38.0340   30.9490   55.5270 C   0  0  2  0  0  0  0  0  0  0  0  0
   38.6480   32.3190   55.6620 C   0  0  0  0  0  0  0  0  0  0  0  0
   36.8250   31.2100   54.7690 O   0  0  0  0  0  0  0  0  0  0  0  0
   39.0280   30.1230   54.7150 C   0  0  0  0  0  0  0  0  0  0  0  0
   39.9530   30.7560   53.6600 C   0  0  0  0  0  0  0  0  0  0  0  0
   39.2750   30.5900   52.2870 C   0  0  0  0  0  0  0  0  0  0  0  0
   40.2830   30.2040   51.2090 C   0  0  0  0  0  0  0  0  0  0  0  0
   40.3010   28.7280   50.8100 C   0  0  0  0  0  0  0  0  0  0  0  0
   39.2520   27.9610   51.5710 C   0  0  2  0  0  0  0  0  0  0  0  0
   39.8130   27.0720   52.6630 C   0  0  0  0  0  0  0  0  0  0  0  0
   38.3930   27.2390   50.6680 O   0  0  0  0  0  0  0  0  0  0  0  0
   37.2802   27.0883   55.3049 H   0  0  0  0  0  0  0  0  0  0  0  0
   38.1556   25.9495   54.2262 H   0  0  0  0  0  0  0  0  0  0  0  0
   36.3596   25.9858   54.2262 H   0  0  0  0  0  0  0  0  0  0  0  0
   36.2143   25.3921   56.1449 H   0  0  0  0  0  0  0  0  0  0  0  0
   36.5317   23.1346   56.4022 H   0  0  0  0  0  0  0  0  0  0  0  0
   35.8218   23.8131   54.8980 H   0  0  0  0  0  0  0  0  0  0  0  0
   37.5113   23.2030   54.8980 H   0  0  0  0  0  0  0  0  0  0  0  0
   37.0983   26.2142   57.5921 H   0  0  0  0  0  0  0  0  0  0  0  0
   37.6475   24.3826   57.6869 H   0  0  0  0  0  0  0  0  0  0  0  0
   39.3595   26.2801   56.6285 H   0  0  0  0  0  0  0  0  0  0  0  0
   40.9630   25.2520   57.4140 H   0  0  0  0  0  0  0  0  0  0  0  0
   39.1163   26.7017   59.5905 H   0  0  0  0  0  0  0  0  0  0  0  0
   41.3095   27.2660   59.4617 H   0  0  0  0  0  0  0  0  0  0  0  0
   41.3881   26.3673   57.9083 H   0  0  0  0  0  0  0  0  0  0  0  0
   41.0649   28.1343   57.9083 H   0  0  0  0  0  0  0  0  0  0  0  0
   37.5030   28.2901   59.0904 H   0  0  0  0  0  0  0  0  0  0  0  0
   38.9613   28.4932   56.1960 H   0  0  0  0  0  0  0  0  0  0  0  0
   36.6054   30.0516   56.7001 H   0  0  0  0  0  0  0  0  0  0  0  0
   38.5950   30.7780   58.5750 H   0  0  0  0  0  0  0  0  0  0  0  0
   38.7594   32.5675   56.7278 H   0  0  0  0  0  0  0  0  0  0  0  0
   39.6359   32.3273   55.1784 H   0  0  0  0  0  0  0  0  0  0  0  0
   37.9968   33.0620   55.1784 H   0  0  0  0  0  0  0  0  0  0  0  0
   36.8290   30.6640   53.9430 H   0  0  0  0  0  0  0  0  0  0  0  0
   39.6872   29.6313   55.4455 H   0  0  0  0  0  0  0  0  0  0  0  0
   38.3602   29.5082   54.0937 H   0  0  0  0  0  0  0  0  0  0  0  0
   40.0977   31.8240   53.8803 H   0  0  0  0  0  0  0  0  0  0  0  0
   40.9381   30.2666   53.6662 H   0  0  0  0  0  0  0  0  0  0  0  0
   38.5097   29.8032   52.3590 H   0  0  0  0  0  0  0  0  0  0  0  0
   38.8218   31.5524   52.0071 H   0  0  0  0  0  0  0  0  0  0  0  0
   40.0562   30.7939   50.3087 H   0  0  0  0  0  0  0  0  0  0  0  0
   41.2739   30.4079   51.6409 H   0  0  0  0  0  0  0  0  0  0  0  0
   40.1005   28.6424   49.7318 H   0  0  0  0  0  0  0  0  0  0  0  0
   41.2896   28.3082   51.0474 H   0  0  0  0  0  0  0  0  0  0  0  0
   38.6446   28.7081   52.1029 H   0  0  0  0  0  0  0  0  0  0  0  0
   39.5500   27.4888   53.6464 H   0  0  0  0  0  0  0  0  0  0  0  0
   39.3885   26.0617   52.5675 H   0  0  0  0  0  0  0  0  0  0  0  0
   40.9076   27.0203   52.5675 H   0  0  0  0  0  0  0  0  0  0  0  0
   37.6480   26.8320   51.1760 H   0  0  0  0  0  0  0  0  0  0  0  0
  1  2  1  0
  2  3  1  0
  2  4  1  0
  4  5  1  0
  5  6  1  0
  5  7  1  0
  7  8  1  0
  7  9  1  0
  9 10  2  3
 10 11  1  0
 11 12  1  0
 11 13  1  0
 13 14  1  0
 13 15  1  6
 13 16  1  0
 16 17  1  0
 17 18  1  0
 18 19  1  0
 19 20  1  0
 20 21  1  0
 21 22  1  0
 21 23  1  0
  1 24  1  0
  1 25  1  0
  1 26  1  0
  2 27  1  0
  3 28  1  0
  3 29  1  0
  3 30  1  0
  4 31  1  0
  4 32  1  0
  5 33  1  6
  6 34  1  0
  7 35  1  1
  8 36  1  0
  8 37  1  0
  8 38  1  0
  9 39  1  0
 10 40  1  0
 11 41  1  6
 12 42  1  0
 14 43  1  0
 14 44  1  0
 14 45  1  0
 15 46  1  0
 16 47  1  0
 16 48  1  0
 17 49  1  0
 17 50  1  0
 18 51  1  0
 18 52  1  0
 19 53  1  0
 19 54  1  0
 20 55  1  0
 20 56  1  0
 21 57  1  1
 22 58  1  0
 22 59  1  0
 22 60  1  0
 23 61  1  0
M  END
>  <docking_score>  (1) 
-7.471

>  <plif_similarity>  (1) 
0.333

$$$$
DiffSBDD_10
     RDKit          3D

 84 88  0  0  0  0  0  0  0  0999 V2000
   40.5730   30.0740   66.4050 C   0  0  0  0  0  0  0  0  0  0  0  0
   40.6830   31.5360   66.5400 C   0  0  0  0  0  0  0  0  0  0  0  0
   41.7880   31.9970   65.6410 C   0  0  1  0  0  0  0  0  0  0  0  0
   41.8400   33.4950   65.4320 C   0  0  0  0  0  0  0  0  0  0  0  0
   42.1830   33.7600   63.9170 C   0  0  1  0  0  0  0  0  0  0  0  0
   41.3860   32.5020   63.1910 C   0  0  0  0  0  0  0  0  0  0  0  0
   40.4210   33.3110   62.2820 C   0  0  1  0  0  0  0  0  0  0  0  0
   41.4670   34.2530   61.9500 O   0  0  0  0  0  0  0  0  0  0  0  0
   41.7420   35.0680   63.2080 C   0  0  1  0  0  0  0  0  0  0  0  0
   40.3960   35.6870   63.6420 C   0  0  0  0  0  0  0  0  0  0  0  0
   39.3790   35.9760   62.4790 C   0  0  0  0  0  0  0  0  0  0  0  0
   38.7990   37.2250   62.4360 C   0  0  0  0  0  0  0  0  0  0  0  0
   37.9730   37.5230   61.3840 C   0  0  0  0  0  0  0  0  0  0  0  0
   37.3540   38.7020   61.2880 F   0  0  0  0  0  0  0  0  0  0  0  0
   37.8170   36.7090   60.2660 C   0  0  0  0  0  0  0  0  0  0  0  0
   37.2960   37.1340   59.2220 F   0  0  0  0  0  0  0  0  0  0  0  0
   38.2480   35.3680   60.3810 C   0  0  0  0  0  0  0  0  0  0  0  0
   39.0120   34.9040   61.4710 C   0  0  0  0  0  0  0  0  0  0  0  0
   39.1880   33.3760   61.5310 C   0  0  1  0  0  0  0  0  0  0  0  0
   39.1220   31.8810   60.6960 C   0  0  1  0  0  0  0  0  0  0  0  0
   38.4120   30.8600   61.5380 C   0  0  0  0  0  0  0  0  0  0  0  0
   38.6650   29.5280   60.7140 C   0  0  0  0  0  0  0  0  0  0  0  0
   38.3270   29.8730   59.2120 C   0  0  1  0  0  0  0  0  0  0  0  0
   37.8560   28.8400   58.0220 S   0  0  0  0  0  0  0  0  0  0  0  0
   38.8610   28.3570   56.6780 C   0  0  1  0  0  0  0  0  0  0  0  0
   39.7240   29.4980   56.4630 C   0  0  0  0  0  0  0  0  0  0  0  0
   39.4340   30.1150   55.2340 C   0  0  0  0  0  0  0  0  0  0  0  0
   39.6090   27.0720   56.9450 C   0  0  2  0  0  0  0  0  0  0  0  0
   39.3150   26.3250   58.2630 C   0  0  0  0  0  0  0  0  0  0  0  0
   41.1250   27.3800   57.0850 N   0  0  0  0  0  0  0  0  0  0  0  0
   41.7730   27.7420   58.1910 C   0  0  0  0  0  0  0  0  0  0  0  0
   43.0030   27.1350   58.0690 O   0  0  0  0  0  0  0  0  0  0  0  0
   41.3630   28.2080   59.2430 O   0  0  0  0  0  0  0  0  0  0  0  0
   39.6070   26.1670   55.7520 C   0  0  0  0  0  0  0  0  0  0  0  0
   39.4610   26.6020   54.4090 O   0  0  0  0  0  0  0  0  0  0  0  0
   39.8540   25.1040   55.8510 O   0  0  0  0  0  0  0  0  0  0  0  0
   37.4640   31.1380   59.2470 O   0  0  0  0  0  0  0  0  0  0  0  0
   38.3800   32.0720   59.5340 O   0  0  0  0  0  0  0  0  0  0  0  0
   43.2030   31.5490   66.0190 C   0  0  2  0  0  0  0  0  0  0  0  0
   44.0070   32.4450   66.7990 C   0  0  0  0  0  0  0  0  0  0  0  0
   45.3310   32.4740   66.8680 O   0  0  0  0  0  0  0  0  0  0  0  0
   45.4220   31.0960   65.9640 N   0  0  0  0  0  0  0  0  0  0  0  0
   44.2430   30.5800   65.5020 C   0  0  0  0  0  0  0  0  0  0  0  0
   44.1230   29.4780   64.7400 C   0  0  0  0  0  0  0  0  0  0  0  0
   40.5385   29.6151   67.4041 H   0  0  0  0  0  0  0  0  0  0  0  0
   39.6536   29.8247   65.8550 H   0  0  0  0  0  0  0  0  0  0  0  0
   41.4448   29.6899   65.8550 H   0  0  0  0  0  0  0  0  0  0  0  0
   39.7364   32.0114   66.2434 H   0  0  0  0  0  0  0  0  0  0  0  0
   40.8970   31.8104   67.5835 H   0  0  0  0  0  0  0  0  0  0  0  0
   41.4991   31.4861   64.7107 H   0  0  0  0  0  0  0  0  0  0  0  0
   40.8651   33.9410   65.6782 H   0  0  0  0  0  0  0  0  0  0  0  0
   42.6031   33.9468   66.0828 H   0  0  0  0  0  0  0  0  0  0  0  0
   43.2765   33.8541   63.8432 H   0  0  0  0  0  0  0  0  0  0  0  0
   42.0668   31.8663   62.6058 H   0  0  0  0  0  0  0  0  0  0  0  0
   40.9021   31.7918   63.8777 H   0  0  0  0  0  0  0  0  0  0  0  0
   39.4326   32.9582   62.6117 H   0  0  0  0  0  0  0  0  0  0  0  0
   42.4203   35.9305   63.2852 H   0  0  0  0  0  0  0  0  0  0  0  0
   39.9157   34.9934   64.3479 H   0  0  0  0  0  0  0  0  0  0  0  0
   40.6406   36.6659   64.0801 H   0  0  0  0  0  0  0  0  0  0  0  0
   38.9941   37.9646   63.2265 H   0  0  0  0  0  0  0  0  0  0  0  0
   37.9760   34.6569   59.5871 H   0  0  0  0  0  0  0  0  0  0  0  0
   38.0944   33.2584   61.5413 H   0  0  0  0  0  0  0  0  0  0  0  0
   40.1412   31.5335   60.4715 H   0  0  0  0  0  0  0  0  0  0  0  0
   38.8495   30.7972   62.5453 H   0  0  0  0  0  0  0  0  0  0  0  0
   37.3485   31.0839   61.7076 H   0  0  0  0  0  0  0  0  0  0  0  0
   39.7155   29.2151   60.8069 H   0  0  0  0  0  0  0  0  0  0  0  0
   38.0433   28.7004   61.0864 H   0  0  0  0  0  0  0  0  0  0  0  0
   39.3495   29.9066   58.8077 H   0  0  0  0  0  0  0  0  0  0  0  0
   38.2781   28.1146   55.7772 H   0  0  0  0  0  0  0  0  0  0  0  0
   39.5728   30.2235   57.2759 H   0  0  0  0  0  0  0  0  0  0  0  0
   40.7687   29.1538   56.4484 H   0  0  0  0  0  0  0  0  0  0  0  0
   38.9726   31.0967   55.4164 H   0  0  0  0  0  0  0  0  0  0  0  0
   40.3641   30.2476   54.6618 H   0  0  0  0  0  0  0  0  0  0  0  0
   38.7384   29.4835   54.6618 H   0  0  0  0  0  0  0  0  0  0  0  0
   39.5695   26.9717   59.1156 H   0  0  0  0  0  0  0  0  0  0  0  0
   38.2472   26.0644   58.3064 H   0  0  0  0  0  0  0  0  0  0  0  0
   39.9187   25.4065   58.3064 H   0  0  0  0  0  0  0  0  0  0  0  0
   41.6910   27.2930   56.2290 H   0  0  0  0  0  0  0  0  0  0  0  0
   42.3706   30.8391   66.1341 H   0  0  0  0  0  0  0  0  0  0  0  0
   43.7186   33.4514   66.4615 H   0  0  0  0  0  0  0  0  0  0  0  0
   43.7861   32.0527   67.8026 H   0  0  0  0  0  0  0  0  0  0  0  0
   44.0267   28.5936   65.3869 H   0  0  0  0  0  0  0  0  0  0  0  0
   43.2292   29.5669   64.1050 H   0  0  0  0  0  0  0  0  0  0  0  0
   45.0150   29.3724   64.1050 H   0  0  0  0  0  0  0  0  0  0  0  0
  1  2  1  0
  2  3  1  0
  3  4  1  0
  4  5  1  0
  5  6  1  0
  6  7  1  0
  7  8  1  0
  8  9  1  0
  9 10  1  0
 10 11  1  0
 11 12  1  0
 12 13  2  0
 13 14  1  0
 13 15  1  0
 15 16  1  0
 15 17  2  0
 17 18  1  0
 18 19  1  0
 19 20  1  0
 20 21  1  0
 21 22  1  0
 22 23  1  0
 23 24  1  0
 24 25  1  0
 25 26  1  0
 26 27  1  0
 25 28  1  0
 28 29  1  0
 28 30  1  1
 30 31  1  0
 31 32  2  0
 31 33  1  0
 28 34  1  0
 34 35  2  0
 34 36  1  0
 23 37  1  0
 37 38  1  0
  3 39  1  0
 39 40  1  0
 40 41  1  0
 41 42  1  0
 42 43  2  0
 43 44  1  0
  9  5  1  0
 18 11  2  0
 38 20  1  0
 43 39  1  0
 19  7  1  0
  1 45  1  0
  1 46  1  0
  1 47  1  0
  2 48  1  0
  2 49  1  0
  3 50  1  6
  4 51  1  0
  4 52  1  0
  5 53  1  1
  6 54  1  0
  6 55  1  0
  7 56  1  1
  9 57  1  6
 10 58  1  0
 10 59  1  0
 12 60  1  0
 17 61  1  0
 19 62  1  1
 20 63  1  6
 21 64  1  0
 21 65  1  0
 22 66  1  0
 22 67  1  0
 23 68  1  6
 25 69  1  6
 26 70  1  0
 26 71  1  0
 27 72  1  0
 27 73  1  0
 27 74  1  0
 29 75  1  0
 29 76  1  0
 29 77  1  0
 30 78  1  0
 39 79  1  1
 40 80  1  0
 40 81  1  0
 44 82  1  0
 44 83  1  0
 44 84  1  0
M  CHG  2  33  -1  36  -1
M  END
>  <docking_score>  (2) 
-11.925

>  <plif_similarity>  (2) 
0.333

$$$$
DiffSBDD_13
     RDKit          3D

 53 55  0  0  0  0  0  0  0  0999 V2000
   36.8680   35.9700   59.8320 C   0  0  0  0  0  0  0  0  0  0  0  0
   37.1500   34.5620   60.4470 C   0  0  0  0  0  0  0  0  0  0  0  0
   35.8680   33.7270   60.4440 C   0  0  0  0  0  0  0  0  0  0  0  0
   38.2410   33.7750   59.7490 C   0  0  0  0  0  0  0  0  0  0  0  0
   38.1370   32.5300   59.1720 C   0  0  2  0  0  0  0  0  0  0  0  0
   38.7620   31.3080   59.7920 C   0  0  0  0  0  0  0  0  0  0  0  0
   38.0260   29.9660   59.5900 C   0  0  0  0  0  0  0  0  0  0  0  0
   37.1450   29.7910   58.3690 C   0  0  0  0  0  0  0  0  0  0  0  0
   38.0450   29.9160   57.1460 N   0  0  0  0  0  0  0  0  0  0  0  0
   38.3070   28.6300   56.7670 C   0  0  1  0  0  0  0  0  0  0  0  0
   38.4260   27.1360   56.7100 C   0  0  0  0  0  0  0  0  0  0  0  0
   38.0250   27.7210   55.4250 C   0  0  2  0  0  0  0  0  0  0  0  0
   38.7510   27.0190   54.2800 C   0  0  0  0  0  0  0  0  0  0  0  0
   39.1210   27.9550   53.2280 C   0  0  0  0  0  0  0  0  0  0  0  0
   39.2170   27.4870   51.9620 C   0  0  0  0  0  0  0  0  0  0  0  0
   39.6190   28.1920   50.8560 C   0  0  0  0  0  0  0  0  0  0  0  0
   39.9370   29.5210   50.9820 C   0  0  0  0  0  0  0  0  0  0  0  0
   40.4330   30.3560   49.9430 C   0  0  0  0  0  0  0  0  0  0  0  0
   39.6600   31.3880   49.4580 F   0  0  0  0  0  0  0  0  0  0  0  0
   39.7970   30.1280   52.2600 C   0  0  0  0  0  0  0  0  0  0  0  0
   39.3660   29.3890   53.3630 C   0  0  0  0  0  0  0  0  0  0  0  0
   38.1900   31.3590   56.7980 C   0  0  0  0  0  0  0  0  0  0  0  0
   38.2640   31.6500   55.6420 O   0  0  0  0  0  0  0  0  0  0  0  0
   38.2380   32.4070   57.6910 N   0  0  0  0  0  0  0  0  0  0  0  0
   36.7216   36.7008   60.6410 H   0  0  0  0  0  0  0  0  0  0  0  0
   37.7226   36.2767   59.2110 H   0  0  0  0  0  0  0  0  0  0  0  0
   35.9612   35.9239   59.2110 H   0  0  0  0  0  0  0  0  0  0  0  0
   37.5064   34.7574   61.4691 H   0  0  0  0  0  0  0  0  0  0  0  0
   35.5591   33.5258   61.4804 H   0  0  0  0  0  0  0  0  0  0  0  0
   35.0714   34.2800   59.9247 H   0  0  0  0  0  0  0  0  0  0  0  0
   36.0518   32.7749   59.9247 H   0  0  0  0  0  0  0  0  0  0  0  0
   38.5867   34.4326   58.9378 H   0  0  0  0  0  0  0  0  0  0  0  0
   38.8476   33.5072   60.6267 H   0  0  0  0  0  0  0  0  0  0  0  0
   37.0814   32.5097   59.4808 H   0  0  0  0  0  0  0  0  0  0  0  0
   39.7713   31.2001   59.3682 H   0  0  0  0  0  0  0  0  0  0  0  0
   38.7318   31.4903   60.8764 H   0  0  0  0  0  0  0  0  0  0  0  0
   38.7939   29.1794   59.5496 H   0  0  0  0  0  0  0  0  0  0  0  0
   37.3219   29.9201   60.4339 H   0  0  0  0  0  0  0  0  0  0  0  0
   36.6679   28.8000   58.3868 H   0  0  0  0  0  0  0  0  0  0  0  0
   36.3488   30.5497   58.3485 H   0  0  0  0  0  0  0  0  0  0  0  0
   38.6602   29.3856   57.4841 H   0  0  0  0  0  0  0  0  0  0  0  0
   39.4241   26.6816   56.7954 H   0  0  0  0  0  0  0  0  0  0  0  0
   37.9771   26.3419   57.3247 H   0  0  0  0  0  0  0  0  0  0  0  0
   37.2760   27.9700   54.6588 H   0  0  0  0  0  0  0  0  0  0  0  0
   39.6623   26.5443   54.6725 H   0  0  0  0  0  0  0  0  0  0  0  0
   38.0718   26.2681   53.8501 H   0  0  0  0  0  0  0  0  0  0  0  0
   38.9448   26.4331   51.8034 H   0  0  0  0  0  0  0  0  0  0  0  0
   39.6859   27.6962   49.8764 H   0  0  0  0  0  0  0  0  0  0  0  0
   41.3651   30.8059   50.3155 H   0  0  0  0  0  0  0  0  0  0  0  0
   40.5078   29.6723   49.0845 H   0  0  0  0  0  0  0  0  0  0  0  0
   40.0318   31.1958   52.3814 H   0  0  0  0  0  0  0  0  0  0  0  0
   39.2111   29.8855   54.3323 H   0  0  0  0  0  0  0  0  0  0  0  0
   38.3750   33.3160   57.2260 H   0  0  0  0  0  0  0  0  0  0  0  0
  1  2  1  0
  2  3  1  0
  2  4  1  0
  4  5  1  0
  5  6  1  0
  6  7  1  0
  7  8  1  0
  8  9  1  0
  9 10  1  0
 10 11  1  0
 11 12  1  0
 12 13  1  0
 13 14  1  0
 14 15  1  0
 15 16  2  0
 16 17  1  0
 17 18  1  0
 18 19  1  0
 17 20  2  0
 20 21  1  0
  9 22  1  0
 22 23  2  0
 22 24  1  0
 24  5  1  0
 12 10  1  0
 21 14  2  0
  1 25  1  0
  1 26  1  0
  1 27  1  0
  2 28  1  0
  3 29  1  0
  3 30  1  0
  3 31  1  0
  4 32  1  0
  4 33  1  0
  5 34  1  6
  6 35  1  0
  6 36  1  0
  7 37  1  0
  7 38  1  0
  8 39  1  0
  8 40  1  0
 10 41  1  6
 11 42  1  0
 11 43  1  0
 12 44  1  6
 13 45  1  0
 13 46  1  0
 15 47  1  0
 16 48  1  0
 18 49  1  0
 18 50  1  0
 20 51  1  0
 21 52  1  0
 24 53  1  0
M  END
>  <docking_score>  (3) 
-9.485

>  <plif_similarity>  (3) 
0.444

$$$$
DiffSBDD_14
     RDKit          3D

 49 48  0  0  0  0  0  0  0  0999 V2000
   38.6490   33.0720   56.2410 C   0  0  0  0  0  0  0  0  0  0  0  0
   38.5250   31.8360   56.9770 C   0  0  0  0  0  0  0  0  0  0  0  0
   39.0390   30.5610   56.2600 C   0  0  0  0  0  0  0  0  0  0  0  0
   38.7650   30.6840   54.7670 C   0  0  0  0  0  0  0  0  0  0  0  0
   39.8810   30.4600   53.7900 C   0  0  0  0  0  0  0  0  0  0  0  0
   39.5850   30.6360   52.3370 C   0  0  0  0  0  0  0  0  0  0  0  0
   40.0340   29.7570   51.3370 C   0  0  1  0  0  0  0  0  0  0  0  0
   40.6580   30.2320   50.0370 C   0  0  0  0  0  0  0  0  0  0  0  0
   39.8660   28.2250   51.5100 C   0  0  0  0  0  0  0  0  0  0  0  0
   38.4870   27.8060   51.9540 C   0  0  0  0  0  0  0  0  0  0  0  0
   38.2690   27.1480   53.2790 C   0  0  0  0  0  0  0  0  0  0  0  0
   39.4980   26.8240   54.0490 C   0  0  0  0  0  0  0  0  0  0  0  0
   39.0340   26.6040   55.5500 C   0  0  2  0  0  0  0  0  0  0  0  0
   37.8280   27.3330   55.7940 O   0  0  0  0  0  0  0  0  0  0  0  0
   40.1650   27.0100   56.4980 C   0  0  0  0  0  0  0  0  0  0  0  0
   40.1400   26.9060   57.9770 C   0  0  2  0  0  0  0  0  0  0  0  0
   38.9060   27.5050   58.5680 N   0  0  0  0  0  0  0  0  0  0  0  0
   41.4010   27.7530   58.3800 C   0  0  0  0  0  0  0  0  0  0  0  0
   41.2410   28.6530   59.2140 O   0  0  0  0  0  0  0  0  0  0  0  0
   42.4570   27.4930   57.8360 O   0  0  0  0  0  0  0  0  0  0  0  0
   38.7333   33.9119   56.9463 H   0  0  0  0  0  0  0  0  0  0  0  0
   39.5478   33.0332   55.6080 H   0  0  0  0  0  0  0  0  0  0  0  0
   37.7604   33.2125   55.6080 H   0  0  0  0  0  0  0  0  0  0  0  0
   39.0896   31.9451   57.9147 H   0  0  0  0  0  0  0  0  0  0  0  0
   37.4448   31.6818   57.1160 H   0  0  0  0  0  0  0  0  0  0  0  0
   40.1208   30.4545   56.4284 H   0  0  0  0  0  0  0  0  0  0  0  0
   38.5213   29.6767   56.6601 H   0  0  0  0  0  0  0  0  0  0  0  0
   37.7562   30.9353   54.4077 H   0  0  0  0  0  0  0  0  0  0  0  0
   40.8864   30.1749   54.1333 H   0  0  0  0  0  0  0  0  0  0  0  0
   38.4882   30.6485   52.2542 H   0  0  0  0  0  0  0  0  0  0  0  0
   40.1744   31.5362   52.1082 H   0  0  0  0  0  0  0  0  0  0  0  0
   39.0391   29.7818   50.8685 H   0  0  0  0  0  0  0  0  0  0  0  0
   41.5153   30.8846   50.2587 H   0  0  0  0  0  0  0  0  0  0  0  0
   40.9994   29.3631   49.4552 H   0  0  0  0  0  0  0  0  0  0  0  0
   39.9114   30.7924   49.4552 H   0  0  0  0  0  0  0  0  0  0  0  0
   40.0804   27.7423   50.5451 H   0  0  0  0  0  0  0  0  0  0  0  0
   40.5635   27.9156   52.3023 H   0  0  0  0  0  0  0  0  0  0  0  0
   37.6273   27.9874   51.2922 H   0  0  0  0  0  0  0  0  0  0  0  0
   37.2628   26.9184   53.6595 H   0  0  0  0  0  0  0  0  0  0  0  0
   39.9642   25.9085   53.6558 H   0  0  0  0  0  0  0  0  0  0  0  0
   40.2428   27.6300   53.9735 H   0  0  0  0  0  0  0  0  0  0  0  0
   38.8152   25.5414   55.7316 H   0  0  0  0  0  0  0  0  0  0  0  0
   37.4870   27.7020   54.9400 H   0  0  0  0  0  0  0  0  0  0  0  0
   41.0345   26.4153   56.1814 H   0  0  0  0  0  0  0  0  0  0  0  0
   40.1217   28.1034   56.3854 H   0  0  0  0  0  0  0  0  0  0  0  0
   40.1472   25.8652   58.3328 H   0  0  0  0  0  0  0  0  0  0  0  0
   39.0580   27.6820   59.5710 H   0  0  0  0  0  0  0  0  0  0  0  0
   38.6910   28.3920   58.0900 H   0  0  0  0  0  0  0  0  0  0  0  0
   38.1170   26.8530   58.4510 H   0  0  0  0  0  0  0  0  0  0  0  0
  1  2  1  0
  2  3  1  0
  3  4  1  0
  4  5  2  3
  5  6  1  0
  6  7  1  0
  7  8  1  0
  7  9  1  0
  9 10  1  0
 10 11  2  3
 11 12  1  0
 12 13  1  0
 13 14  1  0
 13 15  1  0
 15 16  1  0
 16 17  1  0
 16 18  1  0
 18 19  2  0
 18 20  1  0
  1 21  1  0
  1 22  1  0
  1 23  1  0
  2 24  1  0
  2 25  1  0
  3 26  1  0
  3 27  1  0
  4 28  1  0
  5 29  1  0
  6 30  1  0
  6 31  1  0
  7 32  1  6
  8 33  1  0
  8 34  1  0
  8 35  1  0
  9 36  1  0
  9 37  1  0
 10 38  1  0
 11 39  1  0
 12 40  1  0
 12 41  1  0
 13 42  1  6
 14 43  1  0
 15 44  1  0
 15 45  1  0
 16 46  1  6
 17 47  1  0
 17 48  1  0
 17 49  1  0
M  CHG  2  17   1  20  -1
M  END
>  <docking_score>  (4) 
-6.889

>  <plif_similarity>  (4) 
0.333

$$$$
DiffSBDD_15
     RDKit          3D

 75 76  0  0  0  0  0  0  0  0999 V2000
   40.5070   28.8180   61.6940 C   0  0  0  0  0  0  0  0  0  0  0  0
   39.4060   29.3670   61.4560 C   0  0  2  0  0  0  0  0  0  0  0  0
   40.3840   29.3780   60.0740 C   0  0  0  0  0  0  0  0  0  0  0  0
   39.5280   28.5410   59.3220 O   0  0  0  0  0  0  0  0  0  0  0  0
   39.7730   28.0840   57.8720 C   0  0  1  0  0  0  0  0  0  0  0  0
   40.5930   26.6790   58.0300 C   0  0  0  0  0  0  0  0  0  0  0  0
   38.4580   28.4360   57.1960 C   0  0  1  0  0  0  0  0  0  0  0  0
   37.9430   27.0860   56.5270 C   0  0  0  0  0  0  0  0  0  0  0  0
   38.1380   27.3900   55.1010 N   0  0  0  0  0  0  0  0  0  0  0  0
   39.0900   26.5890   54.6250 C   0  0  0  0  0  0  0  0  0  0  0  0
   39.3220   25.3620   55.1570 O   0  0  0  0  0  0  0  0  0  0  0  0
   39.5470   26.8080   53.4390 C   0  0  0  0  0  0  0  0  0  0  0  0
   39.3960   27.3620   52.3920 C   0  0  0  0  0  0  0  0  0  0  0  0
   38.7280   27.7780   51.3890 C   0  0  0  0  0  0  0  0  0  0  0  0
   39.7940   28.4860   50.7860 N   0  0  0  0  0  0  0  0  0  0  0  0
   40.0470   29.6810   50.8480 C   0  0  0  0  0  0  0  0  0  0  0  0
   40.9440   30.4180   50.6090 O   0  0  0  0  0  0  0  0  0  0  0  0
   38.3980   30.1910   57.6360 C   0  0  0  0  0  0  0  0  0  0  0  0
   38.6330   30.9780   59.0520 C   0  0  0  0  0  0  0  0  0  0  0  0
   38.3720   32.5400   58.8270 C   0  0  0  0  0  0  0  0  0  0  0  0
   39.0850   33.5180   59.9640 C   0  0  0  0  0  0  0  0  0  0  0  0
   38.4990   33.1590   61.3560 C   0  0  0  0  0  0  0  0  0  0  0  0
   39.5330   32.3280   62.0940 C   0  0  1  0  0  0  0  0  0  0  0  0
   40.3840   32.9160   63.1970 C   0  0  0  0  0  0  0  0  0  0  0  0
   41.1210   31.7690   64.0100 C   0  0  0  0  0  0  0  0  0  0  0  0
   40.5270   31.3040   65.2160 C   0  0  0  0  0  0  0  0  0  0  0  0
   40.8530   30.0530   65.8790 C   0  0  0  0  0  0  0  0  0  0  0  0
   42.0630   29.4300   65.5850 C   0  0  0  0  0  0  0  0  0  0  0  0
   42.9640   29.9690   64.6130 C   0  0  0  0  0  0  0  0  0  0  0  0
   44.3150   29.3670   64.5790 C   0  0  0  0  0  0  0  0  0  0  0  0
   45.1560   29.4640   63.8270 O   0  0  0  0  0  0  0  0  0  0  0  0
   44.7190   29.1850   65.8610 O   0  0  0  0  0  0  0  0  0  0  0  0
   42.4860   31.0980   63.6720 C   0  0  0  0  0  0  0  0  0  0  0  0
   39.0770   30.8630   62.2930 C   0  0  0  0  0  0  0  0  0  0  0  0
   40.6529   28.7453   62.7819 H   0  0  0  0  0  0  0  0  0  0  0  0
   40.5165   27.8096   61.2545 H   0  0  0  0  0  0  0  0  0  0  0  0
   41.3181   29.4172   61.2545 H   0  0  0  0  0  0  0  0  0  0  0  0
   38.3694   29.0191   61.5761 H   0  0  0  0  0  0  0  0  0  0  0  0
   40.4995   30.3805   59.6362 H   0  0  0  0  0  0  0  0  0  0  0  0
   41.4350   29.0730   60.1848 H   0  0  0  0  0  0  0  0  0  0  0  0
   40.4435   28.5090   57.1105 H   0  0  0  0  0  0  0  0  0  0  0  0
   40.7264   26.4504   59.0977 H   0  0  0  0  0  0  0  0  0  0  0  0
   40.0265   25.8678   57.5493 H   0  0  0  0  0  0  0  0  0  0  0  0
   41.5779   26.7732   57.5493 H   0  0  0  0  0  0  0  0  0  0  0  0
   39.0000   28.6870   56.2723 H   0  0  0  0  0  0  0  0  0  0  0  0
   38.5468   26.2224   56.8426 H   0  0  0  0  0  0  0  0  0  0  0  0
   36.9128   26.8098   56.7960 H   0  0  0  0  0  0  0  0  0  0  0  0
   37.6260   28.1020   54.5620 H   0  0  0  0  0  0  0  0  0  0  0  0
   40.5473   27.1848   53.6988 H   0  0  0  0  0  0  0  0  0  0  0  0
   38.9697   25.9504   53.0632 H   0  0  0  0  0  0  0  0  0  0  0  0
   39.8142   28.3346   52.6905 H   0  0  0  0  0  0  0  0  0  0  0  0
   39.4190   26.3721   51.9128 H   0  0  0  0  0  0  0  0  0  0  0  0
   38.3519   26.9583   50.7591 H   0  0  0  0  0  0  0  0  0  0  0  0
   37.8061   28.3406   51.5980 H   0  0  0  0  0  0  0  0  0  0  0  0
   40.4440   27.9210   50.2200 H   0  0  0  0  0  0  0  0  0  0  0  0
   39.1849   30.2380   51.2436 H   0  0  0  0  0  0  0  0  0  0  0  0
   39.1344   30.6510   56.9606 H   0  0  0  0  0  0  0  0  0  0  0  0
   37.3018   30.2824   57.6257 H   0  0  0  0  0  0  0  0  0  0  0  0
   37.9343   30.5923   59.8090 H   0  0  0  0  0  0  0  0  0  0  0  0
   39.6644   30.8191   59.3996 H   0  0  0  0  0  0  0  0  0  0  0  0
   38.7655   32.8169   57.8378 H   0  0  0  0  0  0  0  0  0  0  0  0
   37.2863   32.6953   58.9115 H   0  0  0  0  0  0  0  0  0  0  0  0
   40.1727   33.3542   59.9654 H   0  0  0  0  0  0  0  0  0  0  0  0
   38.8865   34.5747   59.7315 H   0  0  0  0  0  0  0  0  0  0  0  0
   38.2855   34.0785   61.9207 H   0  0  0  0  0  0  0  0  0  0  0  0
   37.5611   32.5951   61.2444 H   0  0  0  0  0  0  0  0  0  0  0  0
   40.3504   32.3490   61.3582 H   0  0  0  0  0  0  0  0  0  0  0  0
   41.1364   33.5854   62.7545 H   0  0  0  0  0  0  0  0  0  0  0  0
   39.7332   33.4749   63.8855 H   0  0  0  0  0  0  0  0  0  0  0  0
   39.7614   31.9411   65.6829 H   0  0  0  0  0  0  0  0  0  0  0  0
   40.1550   29.6052   66.6017 H   0  0  0  0  0  0  0  0  0  0  0  0
   42.3323   28.5027   66.1118 H   0  0  0  0  0  0  0  0  0  0  0  0
   43.0823   31.4135   62.8032 H   0  0  0  0  0  0  0  0  0  0  0  0
   39.3887   30.6439   63.3249 H   0  0  0  0  0  0  0  0  0  0  0  0
   38.0752   31.0059   61.8618 H   0  0  0  0  0  0  0  0  0  0  0  0
  1  2  1  0
  2  3  1  0
  3  4  1  0
  4  5  1  0
  5  6  1  0
  5  7  1  0
  7  8  1  0
  8  9  1  0
  9 10  1  0
 10 11  2  0
 10 12  1  0
 12 13  1  0
 13 14  1  0
 14 15  1  0
 15 16  1  0
 16 17  2  0
  7 18  1  0
 18 19  1  0
 19 20  1  0
 20 21  1  0
 21 22  1  0
 22 23  1  0
 23 24  1  0
 24 25  1  0
 25 26  2  0
 26 27  1  0
 27 28  2  0
 28 29  1  0
 29 30  1  0
 30 31  2  0
 30 32  1  0
 29 33  2  0
 23 34  1  0
 34  2  1  0
 33 25  1  0
  1 35  1  0
  1 36  1  0
  1 37  1  0
  2 38  1  6
  3 39  1  0
  3 40  1  0
  5 41  1  6
  6 42  1  0
  6 43  1  0
  6 44  1  0
  7 45  1  6
  8 46  1  0
  8 47  1  0
  9 48  1  0
 12 49  1  0
 12 50  1  0
 13 51  1  0
 13 52  1  0
 14 53  1  0
 14 54  1  0
 15 55  1  0
 16 56  1  0
 18 57  1  0
 18 58  1  0
 19 59  1  0
 19 60  1  0
 20 61  1  0
 20 62  1  0
 21 63  1  0
 21 64  1  0
 22 65  1  0
 22 66  1  0
 23 67  1  6
 24 68  1  0
 24 69  1  0
 26 70  1  0
 27 71  1  0
 28 72  1  0
 33 73  1  0
 34 74  1  0
 34 75  1  0
M  CHG  1  32  -1
M  END
>  <docking_score>  (5) 
-9.751

>  <plif_similarity>  (5) 
0.222

$$$$
DiffSBDD_16
     RDKit          3D

 70 74  0  0  0  0  0  0  0  0999 V2000
   39.4800   27.7630   50.1270 C   0  0  0  0  0  0  0  0  0  0  0  0
   39.4220   28.7010   51.3450 C   0  0  0  0  0  0  0  0  0  0  0  0
   39.7540   30.0340   51.1370 C   0  0  0  0  0  0  0  0  0  0  0  0
   39.9030   30.8960   52.2530 C   0  0  0  0  0  0  0  0  0  0  0  0
   39.7050   30.4300   53.5660 C   0  0  0  0  0  0  0  0  0  0  0  0
   39.3260   29.1610   53.7620 C   0  0  0  0  0  0  0  0  0  0  0  0
   39.1560   28.9290   55.1280 C   0  0  0  0  0  0  0  0  0  0  0  0
   38.9000   27.9650   56.0600 C   0  0  0  0  0  0  0  0  0  0  0  0
   38.5870   26.5410   55.7350 C   0  0  0  0  0  0  0  0  0  0  0  0
   37.7870   26.5130   54.8910 O   0  0  0  0  0  0  0  0  0  0  0  0
   39.1200   25.3820   56.5720 C   0  0  0  0  0  0  0  0  0  0  0  0
   38.4370   25.2530   57.9580 C   0  0  0  0  0  0  0  0  0  0  0  0
   39.0510   26.3150   58.9260 C   0  0  0  0  0  0  0  0  0  0  0  0
   39.3840   27.7560   58.6950 C   0  0  1  0  0  0  0  0  0  0  0  0
   40.7380   28.0540   58.5390 C   0  0  0  0  0  0  0  0  0  0  0  0
   38.5290   28.5110   57.3850 C   0  0  1  0  0  0  0  0  0  0  0  0
   37.8860   29.9420   57.2380 C   0  0  0  0  0  0  0  0  0  0  0  0
   38.3090   31.0750   58.2760 C   0  0  2  0  0  0  0  0  0  0  0  0
   38.3070   32.2640   57.6400 C   0  0  0  0  0  0  0  0  0  0  0  0
   38.3400   33.4880   58.4000 C   0  0  0  0  0  0  0  0  0  0  0  0
   38.8330   33.4790   59.6870 C   0  0  0  0  0  0  0  0  0  0  0  0
   39.5800   34.6250   60.2540 C   0  0  0  0  0  0  0  0  0  0  0  0
   40.3420   35.0220   61.4540 C   0  0  0  0  0  0  0  0  0  0  0  0
   40.5130   36.3530   61.8970 C   0  0  0  0  0  0  0  0  0  0  0  0
   41.2460   36.3890   63.0850 N   0  0  0  0  0  0  0  0  0  0  0  0
   41.4250   35.0770   63.4860 C   0  0  0  0  0  0  0  0  0  0  0  0
   41.9600   34.5890   64.6740 C   0  0  0  0  0  0  0  0  0  0  0  0
   42.1910   33.2290   64.6710 C   0  0  0  0  0  0  0  0  0  0  0  0
   41.6340   32.3830   63.6490 C   0  0  0  0  0  0  0  0  0  0  0  0
   41.0270   32.8150   62.5690 N   0  0  0  0  0  0  0  0  0  0  0  0
   40.8760   34.1490   62.4600 C   0  0  1  0  0  0  0  0  0  0  0  0
   38.6030   32.2440   60.4780 C   0  0  0  0  0  0  0  0  0  0  0  0
   38.8710   30.9990   59.7790 N   0  0  0  0  0  0  0  0  0  0  0  0
   39.2510   28.2790   52.6530 C   0  0  0  0  0  0  0  0  0  0  0  0
   39.5445   26.7199   50.4702 H   0  0  0  0  0  0  0  0  0  0  0  0
   38.5721   27.8938   49.5199 H   0  0  0  0  0  0  0  0  0  0  0  0
   40.3649   28.0046   49.5199 H   0  0  0  0  0  0  0  0  0  0  0  0
   39.8999   30.4171   50.1162 H   0  0  0  0  0  0  0  0  0  0  0  0
   40.1784   31.9483   52.0894 H   0  0  0  0  0  0  0  0  0  0  0  0
   39.8601   31.1019   54.4230 H   0  0  0  0  0  0  0  0  0  0  0  0
   39.2728   29.8883   55.6535 H   0  0  0  0  0  0  0  0  0  0  0  0
   38.9572   24.4472   56.0155 H   0  0  0  0  0  0  0  0  0  0  0  0
   40.1867   25.5792   56.7546 H   0  0  0  0  0  0  0  0  0  0  0  0
   37.3561   25.4288   57.8547 H   0  0  0  0  0  0  0  0  0  0  0  0
   38.6004   24.2427   58.3613 H   0  0  0  0  0  0  0  0  0  0  0  0
   38.3546   26.3349   59.7772 H   0  0  0  0  0  0  0  0  0  0  0  0
   40.0811   25.9290   58.9259 H   0  0  0  0  0  0  0  0  0  0  0  0
   39.0404   28.1783   59.6508 H   0  0  0  0  0  0  0  0  0  0  0  0
   41.2071   28.1572   59.5286 H   0  0  0  0  0  0  0  0  0  0  0  0
   41.2303   27.2427   57.9827 H   0  0  0  0  0  0  0  0  0  0  0  0
   40.8442   28.9970   57.9827 H   0  0  0  0  0  0  0  0  0  0  0  0
   37.6558   28.2380   57.9958 H   0  0  0  0  0  0  0  0  0  0  0  0
   38.1400   30.3107   56.2332 H   0  0  0  0  0  0  0  0  0  0  0  0
   36.8166   29.7790   57.4377 H   0  0  0  0  0  0  0  0  0  0  0  0
   37.9276   30.5069   59.1373 H   0  0  0  0  0  0  0  0  0  0  0  0
   39.1893   32.2742   56.9832 H   0  0  0  0  0  0  0  0  0  0  0  0
   37.3181   32.2917   57.1591 H   0  0  0  0  0  0  0  0  0  0  0  0
   38.9518   34.2018   57.8289 H   0  0  0  0  0  0  0  0  0  0  0  0
   37.2766   33.7350   58.5345 H   0  0  0  0  0  0  0  0  0  0  0  0
   39.5604   35.4622   59.5407 H   0  0  0  0  0  0  0  0  0  0  0  0
   40.1220   37.2399   61.3768 H   0  0  0  0  0  0  0  0  0  0  0  0
   42.1795   35.2312   65.5396 H   0  0  0  0  0  0  0  0  0  0  0  0
   42.8113   32.7839   65.4630 H   0  0  0  0  0  0  0  0  0  0  0  0
   41.7236   31.2949   63.7829 H   0  0  0  0  0  0  0  0  0  0  0  0
   41.8709   34.2238   61.9968 H   0  0  0  0  0  0  0  0  0  0  0  0
   39.2530   32.2825   61.3645 H   0  0  0  0  0  0  0  0  0  0  0  0
   37.5296   32.2326   60.7180 H   0  0  0  0  0  0  0  0  0  0  0  0
   38.4080   30.2240   60.2750 H   0  0  0  0  0  0  0  0  0  0  0  0
   39.8880   30.8410   59.7500 H   0  0  0  0  0  0  0  0  0  0  0  0
   39.0483   27.2142   52.8402 H   0  0  0  0  0  0  0  0  0  0  0  0
  1  2  1  0
  2  3  2  0
  3  4  1  0
  4  5  2  0
  5  6  1  0
  6  7  1  0
  7  8  2  3
  8  9  1  0
  9 10  2  0
  9 11  1  0
 11 12  1  0
 12 13  1  0
 13 14  1  0
 14 15  1  0
 14 16  1  0
 16 17  1  0
 17 18  1  0
 18 19  1  0
 19 20  1  0
 20 21  1  0
 21 22  2  3
 22 23  1  0
 23 24  2  0
 24 25  1  0
 25 26  2  0
 26 27  1  0
 27 28  2  0
 28 29  1  0
 29 30  2  0
 30 31  1  0
 21 32  1  0
 32 33  1  0
  6 34  2  0
 34  2  1  0
 16  8  1  0
 33 18  1  0
 31 23  1  0
 31 26  1  0
  1 35  1  0
  1 36  1  0
  1 37  1  0
  3 38  1  0
  4 39  1  0
  5 40  1  0
  7 41  1  0
 11 42  1  0
 11 43  1  0
 12 44  1  0
 12 45  1  0
 13 46  1  0
 13 47  1  0
 14 48  1  1
 15 49  1  0
 15 50  1  0
 15 51  1  0
 16 52  1  1
 17 53  1  0
 17 54  1  0
 18 55  1  1
 19 56  1  0
 19 57  1  0
 20 58  1  0
 20 59  1  0
 22 60  1  0
 24 61  1  0
 27 62  1  0
 28 63  1  0
 29 64  1  0
 31 65  1  1
 32 66  1  0
 32 67  1  0
 33 68  1  0
 33 69  1  0
 34 70  1  0
M  CHG  1  33   1
M  END
>  <docking_score>  (6) 
-12.855

>  <plif_similarity>  (6) 
0.444

$$$$
DiffSBDD_19
     RDKit          3D

 26 26  0  0  0  0  0  0  0  0999 V2000
   40.3790   28.0900   56.6530 C   0  0  0  0  0  0  0  0  0  0  0  0
   38.8920   27.4660   55.7160 S   0  0  2  0  0  4  0  0  0  0  0  0
   39.8040   26.1450   54.9080 C   0  0  0  0  0  0  0  0  0  0  0  0
   39.8030   26.5700   53.4450 C   0  0  0  0  0  0  0  0  0  0  0  0
   38.9820   27.5580   53.0480 C   0  0  2  0  0  0  0  0  0  0  0  0
   39.0110   27.7280   51.3860 S   0  0  0  0  0  0  0  0  0  0  0  0
   39.7620   28.9290   50.8060 C   0  0  0  0  0  0  0  0  0  0  0  0
   40.1320   30.4190   50.9340 C   0  0  0  0  0  0  0  0  0  0  0  0
   39.7350   31.0040   49.8260 O   0  0  0  0  0  0  0  0  0  0  0  0
   38.4000   28.4490   54.1700 C   0  0  0  0  0  0  0  0  0  0  0  0
   40.1909   28.0111   57.7339 H   0  0  0  0  0  0  0  0  0  0  0  0
   41.2591   27.4853   56.3889 H   0  0  0  0  0  0  0  0  0  0  0  0
   40.5640   29.1417   56.3889 H   0  0  0  0  0  0  0  0  0  0  0  0
   37.7890   27.3420   56.5190 H   0  0  0  0  0  0  0  0  0  0  0  0
   40.8300   26.0769   55.2988 H   0  0  0  0  0  0  0  0  0  0  0  0
   39.3609   25.1513   55.0702 H   0  0  0  0  0  0  0  0  0  0  0  0
   40.8279   26.8872   53.2021 H   0  0  0  0  0  0  0  0  0  0  0  0
   39.4202   25.6845   52.9164 H   0  0  0  0  0  0  0  0  0  0  0  0
   37.9146   27.7995   52.9371 H   0  0  0  0  0  0  0  0  0  0  0  0
   40.7735   28.4992   50.7594 H   0  0  0  0  0  0  0  0  0  0  0  0
   38.8610   29.2094   50.2408 H   0  0  0  0  0  0  0  0  0  0  0  0
   39.6212   30.8632   51.8011 H   0  0  0  0  0  0  0  0  0  0  0  0
   41.2145   30.5462   51.0822 H   0  0  0  0  0  0  0  0  0  0  0  0
   38.7590   30.8740   49.7160 H   0  0  0  0  0  0  0  0  0  0  0  0
   38.8561   29.4500   54.1670 H   0  0  0  0  0  0  0  0  0  0  0  0
   37.3201   28.6386   54.0809 H   0  0  0  0  0  0  0  0  0  0  0  0
  1  2  1  0
  2  3  1  0
  3  4  1  0
  4  5  1  0
  5  6  1  0
  6  7  1  0
  7  8  1  0
  8  9  1  0
  5 10  1  0
 10  2  1  0
  1 11  1  0
  1 12  1  0
  1 13  1  0
  2 14  1  1
  3 15  1  0
  3 16  1  0
  4 17  1  0
  4 18  1  0
  5 19  1  6
  7 20  1  0
  7 21  1  0
  8 22  1  0
  8 23  1  0
  9 24  1  0
 10 25  1  0
 10 26  1  0
M  END
>  <docking_score>  (7) 
-4.55

>  <plif_similarity>  (7) 
0.222

$$$$
DiffSBDD_1
     RDKit          3D

 52 53  0  0  0  0  0  0  0  0999 V2000
   37.5930   37.3190   60.8880 C   0  0  0  0  0  0  0  0  0  0  0  0
   37.1360   36.0700   61.7030 C   0  0  0  0  0  0  0  0  0  0  0  0
   37.4840   35.0030   60.8770 C   0  0  0  0  0  0  0  0  0  0  0  0
   36.6180   34.2550   59.9680 C   0  0  2  0  0  0  0  0  0  0  0  0
   35.7690   33.2050   60.7120 C   0  0  0  0  0  0  0  0  0  0  0  0
   37.7140   33.4720   59.1200 C   0  0  0  0  0  0  0  0  0  0  0  0
   37.6060   33.6640   57.5810 N   0  0  0  0  0  0  0  0  0  0  0  0
   38.5920   32.7340   56.9140 C   0  0  0  0  0  0  0  0  0  0  0  0
   38.3300   32.1860   55.5450 C   0  0  0  0  0  0  0  0  0  0  0  0
   39.3430   31.1690   55.1540 C   0  0  0  0  0  0  0  0  0  0  0  0
   38.9080   29.9460   54.3450 C   0  0  1  0  0  0  0  0  0  0  0  0
   37.7970   28.8190   54.9900 S   0  0  0  0  0  0  0  0  0  0  0  0
   37.5340   28.3260   53.3120 C   0  0  0  0  0  0  0  0  0  0  0  0
   38.9750   28.2900   52.5160 C   0  0  1  0  0  0  0  0  0  0  0  0
   39.5450   27.0030   53.2300 C   0  0  0  0  0  0  0  0  0  0  0  0
   39.2640   28.1010   51.0060 C   0  0  0  0  0  0  0  0  0  0  0  0
   39.9030   29.0510   50.1610 C   0  0  0  0  0  0  0  0  0  0  0  0
   40.4230   30.2660   50.8480 C   0  0  0  0  0  0  0  0  0  0  0  0
   40.0910   30.5510   52.1540 C   0  0  0  0  0  0  0  0  0  0  0  0
   39.4820   29.6590   53.0210 C   0  0  0  0  0  0  0  0  0  0  0  0
   37.8866   38.1215   61.5807 H   0  0  0  0  0  0  0  0  0  0  0  0
   38.4508   37.0496   60.2543 H   0  0  0  0  0  0  0  0  0  0  0  0
   36.7639   37.6668   60.2543 H   0  0  0  0  0  0  0  0  0  0  0  0
   37.6655   36.0122   62.6654 H   0  0  0  0  0  0  0  0  0  0  0  0
   36.0652   36.0883   61.9543 H   0  0  0  0  0  0  0  0  0  0  0  0
   38.2882   35.3955   60.2373 H   0  0  0  0  0  0  0  0  0  0  0  0
   37.6245   34.2317   61.6485 H   0  0  0  0  0  0  0  0  0  0  0  0
   35.9126   34.8934   59.4158 H   0  0  0  0  0  0  0  0  0  0  0  0
   35.8818   33.3445   61.7973 H   0  0  0  0  0  0  0  0  0  0  0  0
   34.7113   33.3254   60.4348 H   0  0  0  0  0  0  0  0  0  0  0  0
   36.1081   32.1960   60.4348 H   0  0  0  0  0  0  0  0  0  0  0  0
   38.7073   33.8203   59.4396 H   0  0  0  0  0  0  0  0  0  0  0  0
   37.5476   32.4016   59.3113 H   0  0  0  0  0  0  0  0  0  0  0  0
   36.6500   33.4400   57.2690 H   0  0  0  0  0  0  0  0  0  0  0  0
   37.8160   34.6410   57.3300 H   0  0  0  0  0  0  0  0  0  0  0  0
   39.5458   33.2789   56.8556 H   0  0  0  0  0  0  0  0  0  0  0  0
   38.5445   31.8360   57.5475 H   0  0  0  0  0  0  0  0  0  0  0  0
   37.3339   31.7194   55.5328 H   0  0  0  0  0  0  0  0  0  0  0  0
   38.3857   33.0177   54.8273 H   0  0  0  0  0  0  0  0  0  0  0  0
   40.1074   31.6907   54.5594 H   0  0  0  0  0  0  0  0  0  0  0  0
   39.6652   30.7420   56.1152 H   0  0  0  0  0  0  0  0  0  0  0  0
   39.7415   29.3680   54.7707 H   0  0  0  0  0  0  0  0  0  0  0  0
   37.0790   27.3247   53.2914 H   0  0  0  0  0  0  0  0  0  0  0  0
   36.8623   29.0452   52.8204 H   0  0  0  0  0  0  0  0  0  0  0  0
   39.4874   27.1330   54.3208 H   0  0  0  0  0  0  0  0  0  0  0  0
   38.9512   26.1258   52.9334 H   0  0  0  0  0  0  0  0  0  0  0  0
   40.5936   26.8532   52.9334 H   0  0  0  0  0  0  0  0  0  0  0  0
   39.8801   27.1922   50.9396 H   0  0  0  0  0  0  0  0  0  0  0  0
   38.2400   28.1465   50.6069 H   0  0  0  0  0  0  0  0  0  0  0  0
   40.0057   28.8988   49.0764 H   0  0  0  0  0  0  0  0  0  0  0  0
   41.0869   30.9509   50.3002 H   0  0  0  0  0  0  0  0  0  0  0  0
   40.3256   31.5560   52.5346 H   0  0  0  0  0  0  0  0  0  0  0  0
  1  2  1  0
  2  3  1  0
  3  4  1  0
  4  5  1  0
  4  6  1  0
  6  7  1  0
  7  8  1  0
  8  9  1  0
  9 10  1  0
 10 11  1  0
 11 12  1  0
 12 13  1  0
 13 14  1  0
 14 15  1  1
 14 16  1  0
 16 17  1  0
 17 18  2  0
 18 19  1  0
 19 20  2  0
 20 11  1  0
 20 14  1  0
  1 21  1  0
  1 22  1  0
  1 23  1  0
  2 24  1  0
  2 25  1  0
  3 26  1  0
  3 27  1  0
  4 28  1  6
  5 29  1  0
  5 30  1  0
  5 31  1  0
  6 32  1  0
  6 33  1  0
  7 34  1  0
  7 35  1  0
  8 36  1  0
  8 37  1  0
  9 38  1  0
  9 39  1  0
 10 40  1  0
 10 41  1  0
 11 42  1  6
 13 43  1  0
 13 44  1  0
 15 45  1  0
 15 46  1  0
 15 47  1  0
 16 48  1  0
 16 49  1  0
 17 50  1  0
 18 51  1  0
 19 52  1  0
M  CHG  1   7   1
M  END
>  <docking_score>  (8) 
-8.469

>  <plif_similarity>  (8) 
0.556

$$$$
DiffSBDD_22
     RDKit          3D

 47 50  0  0  0  0  0  0  0  0999 V2000
   39.6920   30.9580   49.7090 N   0  0  0  0  0  0  0  0  0  0  0  0
   40.2200   30.0490   50.4460 C   0  0  0  0  0  0  0  0  0  0  0  0
   41.2800   30.5120   50.7270 F   0  0  0  0  0  0  0  0  0  0  0  0
   39.8640   28.6790   51.0310 C   0  0  0  0  0  0  0  0  0  0  0  0
   39.1450   27.8660   51.0460 C   0  0  0  0  0  0  0  0  0  0  0  0
   38.3290   28.1130   52.3550 C   0  0  0  0  0  0  0  0  0  0  0  0
   39.0690   27.9470   53.3010 N   0  0  0  0  0  0  0  0  0  0  0  0
   38.9910   27.2050   54.3380 C   0  0  2  0  0  0  0  0  0  0  0  0
   39.2680   27.8720   55.6720 O   0  0  0  0  0  0  0  0  0  0  0  0
   39.4200   27.1300   56.9260 C   0  0  1  0  0  0  0  0  0  0  0  0
   38.3850   27.9010   57.7060 C   0  0  0  0  0  0  0  0  0  0  0  0
   38.9090   28.3350   58.8010 N   0  0  1  0  0  0  0  0  0  0  0  0
   40.2900   28.2840   59.4670 C   0  0  0  0  0  0  0  0  0  0  0  0
   40.3090   29.2500   60.3700 C   0  0  0  0  0  0  0  0  0  0  0  0
   39.0660   30.1440   59.7560 C   0  0  1  0  0  0  0  0  0  0  0  0
   38.4800   30.2220   58.4960 C   0  0  0  0  0  0  0  0  0  0  0  0
   38.1210   29.3780   59.4440 C   0  0  1  0  0  0  0  0  0  0  0  0
   39.2940   25.5630   56.3110 C   0  0  2  0  0  0  0  0  0  0  0  0
   40.0040   24.6980   57.2760 O   0  0  0  0  0  0  0  0  0  0  0  0
   39.2720   25.8920   54.8390 C   0  0  1  0  0  0  0  0  0  0  0  0
   38.3580   25.5670   55.6410 C   0  0  1  0  0  0  0  0  0  0  0  0
   37.0240   24.8610   55.2570 O   0  0  0  0  0  0  0  0  0  0  0  0
   40.2070   31.8280   49.5160 H   0  0  0  0  0  0  0  0  0  0  0  0
   38.7530   30.8160   49.3110 H   0  0  0  0  0  0  0  0  0  0  0  0
   40.6733   28.4052   51.7239 H   0  0  0  0  0  0  0  0  0  0  0  0
   38.4903   27.9057   50.1629 H   0  0  0  0  0  0  0  0  0  0  0  0
   39.6229   26.8755   51.0236 H   0  0  0  0  0  0  0  0  0  0  0  0
   37.9403   29.1420   52.3626 H   0  0  0  0  0  0  0  0  0  0  0  0
   37.4802   27.4155   52.4103 H   0  0  0  0  0  0  0  0  0  0  0  0
   39.1760   28.8950   53.6910 H   0  0  0  0  0  0  0  0  0  0  0  0
   38.2046   27.0184   53.5918 H   0  0  0  0  0  0  0  0  0  0  0  0
   40.2708   27.0420   57.6177 H   0  0  0  0  0  0  0  0  0  0  0  0
   38.0321   28.7524   57.1055 H   0  0  0  0  0  0  0  0  0  0  0  0
   37.5362   27.2420   57.9411 H   0  0  0  0  0  0  0  0  0  0  0  0
   39.0460   27.3180   58.7240 H   0  0  0  0  0  0  0  0  0  0  0  0
   40.4421   27.3082   59.9515 H   0  0  0  0  0  0  0  0  0  0  0  0
   41.0929   28.4165   58.7269 H   0  0  0  0  0  0  0  0  0  0  0  0
   40.0973   28.8795   61.3839 H   0  0  0  0  0  0  0  0  0  0  0  0
   41.2670   29.7740   60.5030 H   0  0  0  0  0  0  0  0  0  0  0  0
   39.3937   30.9989   60.3657 H   0  0  0  0  0  0  0  0  0  0  0  0
   37.8366   31.0723   58.2260 H   0  0  0  0  0  0  0  0  0  0  0  0
   38.8113   30.1634   57.4487 H   0  0  0  0  0  0  0  0  0  0  0  0
   37.2092   29.0671   59.9750 H   0  0  0  0  0  0  0  0  0  0  0  0
   40.0600   25.1580   58.1520 H   0  0  0  0  0  0  0  0  0  0  0  0
   39.8896   25.5927   53.9793 H   0  0  0  0  0  0  0  0  0  0  0  0
   37.3857   25.8498   56.0707 H   0  0  0  0  0  0  0  0  0  0  0  0
   36.3690   24.9730   55.9900 H   0  0  0  0  0  0  0  0  0  0  0  0
  1  2  1  0
  2  3  1  0
  2  4  2  3
  4  5  1  0
  5  6  1  0
  6  7  1  0
  7  8  1  0
  8  9  1  0
  9 10  1  0
 10 11  1  0
 11 12  1  0
 12 13  1  0
 13 14  1  0
 14 15  1  0
 15 16  1  0
 16 17  1  0
 10 18  1  0
 18 19  1  6
 18 20  1  0
 20 21  1  0
 21 22  1  0
 20  8  1  0
 17 12  1  0
 21 18  1  0
 17 15  1  0
  1 23  1  0
  1 24  1  0
  4 25  1  0
  5 26  1  0
  5 27  1  0
  6 28  1  0
  6 29  1  0
  7 30  1  0
  8 31  1  1
 10 32  1  1
 11 33  1  0
 11 34  1  0
 12 35  1  1
 13 36  1  0
 13 37  1  0
 14 38  1  0
 14 39  1  0
 15 40  1  1
 16 41  1  0
 16 42  1  0
 17 43  1  1
 19 44  1  0
 20 45  1  6
 21 46  1  1
 22 47  1  0
M  CHG  1  12   1
M  END
>  <docking_score>  (9) 
-8.339

>  <plif_similarity>  (9) 
0.222

$$$$
DiffSBDD_23
     RDKit          3D

 67 69  0  0  0  0  0  0  0  0999 V2000
   40.8610   30.3480   49.9870 C   0  0  0  0  0  0  0  0  0  0  0  0
   40.0450   29.5580   51.0310 C   0  0  0  0  0  0  0  0  0  0  0  0
   39.5260   28.3470   50.7010 C   0  0  0  0  0  0  0  0  0  0  0  0
   38.7740   27.6470   51.6600 C   0  0  0  0  0  0  0  0  0  0  0  0
   38.3970   28.1730   52.8880 C   0  0  0  0  0  0  0  0  0  0  0  0
   38.9520   29.4430   53.1780 C   0  0  0  0  0  0  0  0  0  0  0  0
   38.6060   29.9940   54.5440 C   0  0  0  0  0  0  0  0  0  0  0  0
   38.3670   29.0990   55.5810 O   0  0  0  0  0  0  0  0  0  0  0  0
   38.3420   29.4150   57.1170 P   0  0  2  0  0  5  0  0  0  0  0  0
   37.1840   28.5470   57.5790 O   0  0  0  0  0  0  0  0  0  0  0  0
   38.1810   30.7880   57.4110 O   0  0  0  0  0  0  0  0  0  0  0  0
   39.9150   29.0250   57.7320 C   0  0  1  0  0  0  0  0  0  0  0  0
   39.6020   28.8390   59.2850 C   0  0  0  0  0  0  0  0  0  0  0  0
   40.5750   29.4880   60.2360 O   0  0  0  0  0  0  0  0  0  0  0  0
   40.1800   30.7230   60.6470 C   0  0  0  0  0  0  0  0  0  0  0  0
   38.8700   31.3710   60.3160 C   0  0  2  0  0  0  0  0  0  0  0  0
   38.9960   32.6920   59.8910 N   0  0  0  0  0  0  0  0  0  0  0  0
   38.4290   33.8660   59.9660 C   0  0  0  0  0  0  0  0  0  0  0  0
   37.2410   34.2690   59.2330 C   0  0  0  0  0  0  0  0  0  0  0  0
   36.8070   35.5480   59.2200 N   0  0  0  0  0  0  0  0  0  0  0  0
   37.4820   36.3900   59.9260 C   0  0  0  0  0  0  0  0  0  0  0  0
   38.6580   36.1660   60.7040 C   0  0  0  0  0  0  0  0  0  0  0  0
   38.9980   34.8340   60.7270 C   0  0  0  0  0  0  0  0  0  0  0  0
   40.1280   34.4160   61.5770 C   0  0  0  0  0  0  0  0  0  0  0  0
   37.8780   31.2020   61.4290 C   0  0  0  0  0  0  0  0  0  0  0  0
   38.4730   31.0700   62.7150 O   0  0  0  0  0  0  0  0  0  0  0  0
   36.7480   31.3510   61.3520 O   0  0  0  0  0  0  0  0  0  0  0  0
   40.7510   27.8410   57.4250 C   0  0  0  0  0  0  0  0  0  0  0  0
   40.1270   26.3950   56.9290 C   0  0  0  0  0  0  0  0  0  0  0  0
   39.4330   25.7330   58.0840 C   0  0  0  0  0  0  0  0  0  0  0  0
   38.0900   25.2280   57.9090 C   0  0  0  0  0  0  0  0  0  0  0  0
   37.4480   25.2190   56.6330 C   0  0  0  0  0  0  0  0  0  0  0  0
   38.1880   25.6610   55.5600 C   0  0  0  0  0  0  0  0  0  0  0  0
   39.5630   25.9240   55.5930 C   0  0  0  0  0  0  0  0  0  0  0  0
   40.2780   25.6080   54.3180 C   0  0  0  0  0  0  0  0  0  0  0  0
   39.7530   30.1900   52.3050 C   0  0  0  0  0  0  0  0  0  0  0  0
   41.5592   31.0239   50.5024 H   0  0  0  0  0  0  0  0  0  0  0  0
   41.4275   29.6464   49.3571 H   0  0  0  0  0  0  0  0  0  0  0  0
   40.1781   30.9370   49.3571 H   0  0  0  0  0  0  0  0  0  0  0  0
   39.6914   27.9214   49.7003 H   0  0  0  0  0  0  0  0  0  0  0  0
   38.4650   26.6183   51.4227 H   0  0  0  0  0  0  0  0  0  0  0  0
   37.7224   27.6464   53.5792 H   0  0  0  0  0  0  0  0  0  0  0  0
   39.4427   30.6363   54.8562 H   0  0  0  0  0  0  0  0  0  0  0  0
   37.6386   30.4957   54.3940 H   0  0  0  0  0  0  0  0  0  0  0  0
   40.5278   29.8097   57.2644 H   0  0  0  0  0  0  0  0  0  0  0  0
   38.6060   29.2627   59.4810 H   0  0  0  0  0  0  0  0  0  0  0  0
   39.6759   27.7582   59.4758 H   0  0  0  0  0  0  0  0  0  0  0  0
   40.2193   30.6905   61.7458 H   0  0  0  0  0  0  0  0  0  0  0  0
   40.8618   31.3513   60.0550 H   0  0  0  0  0  0  0  0  0  0  0  0
   38.4672   30.8362   59.4432 H   0  0  0  0  0  0  0  0  0  0  0  0
   39.8400   32.7710   59.3070 H   0  0  0  0  0  0  0  0  0  0  0  0
   36.6777   33.5092   58.6714 H   0  0  0  0  0  0  0  0  0  0  0  0
   37.0996   37.4214   59.9292 H   0  0  0  0  0  0  0  0  0  0  0  0
   39.2205   36.9584   61.2195 H   0  0  0  0  0  0  0  0  0  0  0  0
   39.8483   34.5195   62.6358 H   0  0  0  0  0  0  0  0  0  0  0  0
   40.3778   33.3660   61.3647 H   0  0  0  0  0  0  0  0  0  0  0  0
   41.0010   35.0507   61.3647 H   0  0  0  0  0  0  0  0  0  0  0  0
   41.4439   28.1585   56.6318 H   0  0  0  0  0  0  0  0  0  0  0  0
   41.1337   27.5811   58.4230 H   0  0  0  0  0  0  0  0  0  0  0  0
   39.9417   25.6332   59.0542 H   0  0  0  0  0  0  0  0  0  0  0  0
   37.5470   24.8396   58.7832 H   0  0  0  0  0  0  0  0  0  0  0  0
   36.4101   24.8747   56.5135 H   0  0  0  0  0  0  0  0  0  0  0  0
   37.6611   25.8191   54.6074 H   0  0  0  0  0  0  0  0  0  0  0  0
   41.2620   25.1731   54.5475 H   0  0  0  0  0  0  0  0  0  0  0  0
   39.6859   24.8877   53.7344 H   0  0  0  0  0  0  0  0  0  0  0  0
   40.4120   26.5307   53.7344 H   0  0  0  0  0  0  0  0  0  0  0  0
   40.1349   31.1878   52.5669 H   0  0  0  0  0  0  0  0  0  0  0  0
  1  2  1  0
  2  3  1  0
  3  4  2  0
  4  5  1  0
  5  6  2  0
  6  7  1  0
  7  8  1  0
  8  9  1  0
  9 10  2  0
  9 11  1  6
  9 12  1  0
 12 13  1  0
 13 14  1  0
 14 15  1  0
 15 16  1  0
 16 17  1  0
 17 18  1  0
 18 19  2  0
 19 20  1  0
 20 21  2  0
 21 22  1  0
 22 23  2  0
 23 24  1  0
 16 25  1  0
 25 26  2  0
 25 27  1  0
 12 28  1  0
 28 29  1  0
 29 30  2  0
 30 31  1  0
 31 32  2  0
 32 33  1  0
 33 34  2  0
 34 35  1  0
  6 36  1  0
 36  2  2  0
 23 18  1  0
 34 29  1  0
  1 37  1  0
  1 38  1  0
  1 39  1  0
  3 40  1  0
  4 41  1  0
  5 42  1  0
  7 43  1  0
  7 44  1  0
 12 45  1  1
 13 46  1  0
 13 47  1  0
 15 48  1  0
 15 49  1  0
 16 50  1  6
 17 51  1  0
 19 52  1  0
 21 53  1  0
 22 54  1  0
 24 55  1  0
 24 56  1  0
 24 57  1  0
 28 58  1  0
 28 59  1  0
 30 60  1  0
 31 61  1  0
 32 62  1  0
 33 63  1  0
 35 64  1  0
 35 65  1  0
 35 66  1  0
 36 67  1  0
M  CHG  2  11  -1  27  -1
M  END
>  <docking_score>  (10) 
-10.258

>  <plif_similarity>  (10) 
0.444

$$$$
DiffSBDD_24
     RDKit          3D

 78 81  0  0  0  0  0  0  0  0999 V2000
   41.0550   34.5530   63.0890 C   0  0  0  0  0  0  0  0  0  0  0  0
   40.6020   35.3460   61.9600 C   0  0  1  0  0  0  0  0  0  0  0  0
   40.9710   36.7150   61.9510 N   0  0  0  0  0  0  0  0  0  0  0  0
   39.7950   37.5050   62.2780 C   0  0  0  0  0  0  0  0  0  0  0  0
   39.8380   38.6400   61.8970 O   0  0  0  0  0  0  0  0  0  0  0  0
   38.9420   36.9090   63.2750 O   0  0  0  0  0  0  0  0  0  0  0  0
   39.9620   35.0970   61.0410 N   0  0  0  0  0  0  0  0  0  0  0  0
   38.6540   34.1760   60.9160 C   0  0  1  0  0  0  0  0  0  0  0  0
   37.5190   34.6410   61.0830 C   0  0  0  0  0  0  0  0  0  0  0  0
   36.3440   34.7100   60.2020 C   0  0  0  0  0  0  0  0  0  0  0  0
   36.5620   34.1030   58.9120 N   0  0  0  0  0  0  0  0  0  0  0  0
   37.8130   33.2390   59.0250 C   0  0  1  0  0  0  0  0  0  0  0  0
   38.3060   32.5150   57.6670 C   0  0  0  0  0  0  0  0  0  0  0  0
   39.3100   32.9740   57.1390 O   0  0  0  0  0  0  0  0  0  0  0  0
   37.8010   31.2040   57.5800 N   0  0  2  0  0  0  0  0  0  0  0  0
   38.0260   30.2970   56.4640 C   0  0  0  0  0  0  0  0  0  0  0  0
   38.5110   28.8770   56.9300 C   0  0  1  0  0  0  0  0  0  0  0  0
   39.2900   28.1920   55.9610 N   0  0  0  0  0  0  0  0  0  0  0  0
   39.1700   28.4470   54.6740 N   0  0  0  0  0  0  0  0  0  0  0  0
   39.4200   28.7600   53.3350 C   0  0  0  0  0  0  0  0  0  0  0  0
   39.2720   27.8880   52.2790 C   0  0  0  0  0  0  0  0  0  0  0  0
   39.4690   28.2520   50.9390 C   0  0  0  0  0  0  0  0  0  0  0  0
   39.7830   29.5640   50.6070 C   0  0  0  0  0  0  0  0  0  0  0  0
   39.9650   30.5080   51.6430 C   0  0  0  0  0  0  0  0  0  0  0  0
   39.7530   30.0930   53.0040 C   0  0  0  0  0  0  0  0  0  0  0  0
   39.8020   30.9980   53.9600 F   0  0  0  0  0  0  0  0  0  0  0  0
   39.9510   27.1350   56.3410 C   0  0  0  0  0  0  0  0  0  0  0  0
   41.0980   27.2240   56.6560 O   0  0  0  0  0  0  0  0  0  0  0  0
   39.1850   25.9860   56.2110 C   0  0  1  0  0  0  0  0  0  0  0  0
   38.4190   25.8030   55.0450 C   0  0  0  0  0  0  0  0  0  0  0  0
   37.1820   25.1440   55.2680 C   0  0  0  0  0  0  0  0  0  0  0  0
   36.9350   24.5580   56.5300 C   0  0  0  0  0  0  0  0  0  0  0  0
   38.0320   24.4350   57.4750 C   0  0  0  0  0  0  0  0  0  0  0  0
   39.1830   25.1380   57.3470 C   0  0  0  0  0  0  0  0  0  0  0  0
   38.0020   28.3840   58.1710 C   0  0  0  0  0  0  0  0  0  0  0  0
   36.8510   29.3700   58.5120 C   0  0  0  0  0  0  0  0  0  0  0  0
   37.2020   30.7660   58.6050 N   0  0  0  0  0  0  0  0  0  0  0  0
   38.9330   33.9260   59.3610 C   0  0  0  0  0  0  0  0  0  0  0  0
   40.7694   35.0529   64.0263 H   0  0  0  0  0  0  0  0  0  0  0  0
   40.5895   33.5572   63.0480 H   0  0  0  0  0  0  0  0  0  0  0  0
   42.1492   34.4482   63.0480 H   0  0  0  0  0  0  0  0  0  0  0  0
   39.6811   35.5978   62.5064 H   0  0  0  0  0  0  0  0  0  0  0  0
   41.9100   37.0870   61.7490 H   0  0  0  0  0  0  0  0  0  0  0  0
   40.6280   34.6810   60.3760 H   0  0  0  0  0  0  0  0  0  0  0  0
   39.4960   36.0110   60.9490 H   0  0  0  0  0  0  0  0  0  0  0  0
   38.5813   33.3831   61.6750 H   0  0  0  0  0  0  0  0  0  0  0  0
   37.1472   34.1030   61.9675 H   0  0  0  0  0  0  0  0  0  0  0  0
   37.8042   35.6995   60.9924 H   0  0  0  0  0  0  0  0  0  0  0  0
   35.5075   34.1926   60.6945 H   0  0  0  0  0  0  0  0  0  0  0  0
   36.1285   35.7747   60.0289 H   0  0  0  0  0  0  0  0  0  0  0  0
   35.7520   33.5190   58.6560 H   0  0  0  0  0  0  0  0  0  0  0  0
   36.6790   34.8230   58.1850 H   0  0  0  0  0  0  0  0  0  0  0  0
   37.4593   32.5265   59.7848 H   0  0  0  0  0  0  0  0  0  0  0  0
   38.7050   30.9250   57.9880 H   0  0  0  0  0  0  0  0  0  0  0  0
   37.0843   30.1828   55.9071 H   0  0  0  0  0  0  0  0  0  0  0  0
   38.8179   30.7307   55.8357 H   0  0  0  0  0  0  0  0  0  0  0  0
   37.5975   28.4281   56.5129 H   0  0  0  0  0  0  0  0  0  0  0  0
   38.1490   28.3320   54.6020 H   0  0  0  0  0  0  0  0  0  0  0  0
   38.9836   26.8495   52.4987 H   0  0  0  0  0  0  0  0  0  0  0  0
   39.3744   27.4948   50.1467 H   0  0  0  0  0  0  0  0  0  0  0  0
   39.8884   29.8635   49.5538 H   0  0  0  0  0  0  0  0  0  0  0  0
   40.2634   31.5414   51.4128 H   0  0  0  0  0  0  0  0  0  0  0  0
   38.3363   26.4978   56.6882 H   0  0  0  0  0  0  0  0  0  0  0  0
   38.2114   26.7910   54.6082 H   0  0  0  0  0  0  0  0  0  0  0  0
   39.0072   25.1600   54.3737 H   0  0  0  0  0  0  0  0  0  0  0  0
   36.4266   25.0902   54.4702 H   0  0  0  0  0  0  0  0  0  0  0  0
   35.9284   24.2007   56.7928 H   0  0  0  0  0  0  0  0  0  0  0  0
   37.6191   24.7008   58.4593 H   0  0  0  0  0  0  0  0  0  0  0  0
   38.3739   23.4056   57.2923 H   0  0  0  0  0  0  0  0  0  0  0  0
   39.3196   25.7556   58.2469 H   0  0  0  0  0  0  0  0  0  0  0  0
   40.0013   24.4138   57.2213 H   0  0  0  0  0  0  0  0  0  0  0  0
   37.6203   27.3584   58.0592 H   0  0  0  0  0  0  0  0  0  0  0  0
   38.7691   28.3343   58.9578 H   0  0  0  0  0  0  0  0  0  0  0  0
   36.0837   29.2703   57.7301 H   0  0  0  0  0  0  0  0  0  0  0  0
   36.5168   29.0874   59.5212 H   0  0  0  0  0  0  0  0  0  0  0  0
   36.3390   31.3120   58.7370 H   0  0  0  0  0  0  0  0  0  0  0  0
   39.8418   33.3273   59.2010 H   0  0  0  0  0  0  0  0  0  0  0  0
   39.1103   34.8374   58.7711 H   0  0  0  0  0  0  0  0  0  0  0  0
  1  2  1  0
  2  3  1  0
  3  4  1  0
  4  5  2  0
  4  6  1  0
  2  7  1  0
  7  8  1  0
  8  9  1  0
  9 10  1  0
 10 11  1  0
 11 12  1  0
 12 13  1  0
 13 14  2  0
 13 15  1  0
 15 16  1  0
 16 17  1  0
 17 18  1  0
 18 19  1  0
 19 20  1  0
 20 21  2  0
 21 22  1  0
 22 23  2  0
 23 24  1  0
 24 25  2  0
 25 26  1  0
 18 27  1  0
 27 28  2  0
 27 29  1  0
 29 30  1  0
 30 31  1  0
 31 32  2  0
 32 33  1  0
 33 34  1  0
 17 35  1  0
 35 36  1  0
 36 37  1  0
 12 38  1  0
 38  8  1  0
 37 15  1  0
 25 20  1  0
 34 29  1  0
  1 39  1  0
  1 40  1  0
  1 41  1  0
  2 42  1  1
  3 43  1  0
  7 44  1  0
  7 45  1  0
  8 46  1  1
  9 47  1  0
  9 48  1  0
 10 49  1  0
 10 50  1  0
 11 51  1  0
 11 52  1  0
 12 53  1  1
 15 54  1  6
 16 55  1  0
 16 56  1  0
 17 57  1  1
 19 58  1  0
 21 59  1  0
 22 60  1  0
 23 61  1  0
 24 62  1  0
 29 63  1  6
 30 64  1  0
 30 65  1  0
 31 66  1  0
 32 67  1  0
 33 68  1  0
 33 69  1  0
 34 70  1  0
 34 71  1  0
 35 72  1  0
 35 73  1  0
 36 74  1  0
 36 75  1  0
 37 76  1  0
 38 77  1  0
 38 78  1  0
M  CHG  4   6  -1   7   1  11   1  15   1
M  END
>  <docking_score>  (11) 
-11.698

>  <plif_similarity>  (11) 
0.667

$$$$
DiffSBDD_26
     RDKit          3D

 63 67  0  0  0  0  0  0  0  0999 V2000
   36.2810   34.5970   61.4980 C   0  0  0  0  0  0  0  0  0  0  0  0
   36.8880   35.1960   60.3780 C   0  0  2  0  0  0  0  0  0  0  0  0
   37.9450   34.6960   59.7340 O   0  0  0  0  0  0  0  0  0  0  0  0
   37.3750   34.1850   58.5460 N   0  0  0  0  0  0  0  0  0  0  0  0
   38.5370   33.2090   57.9890 C   0  0  1  0  0  0  0  0  0  0  0  0
   38.4560   32.0380   58.6450 C   0  0  0  0  0  0  0  0  0  0  0  0
   38.6250   30.6820   57.7780 C   0  0  0  0  0  0  0  0  0  0  0  0
   38.8890   30.9520   56.4240 C   0  0  1  0  0  0  0  0  0  0  0  0
   38.9540   29.5230   55.8740 C   0  0  0  0  0  0  0  0  0  0  0  0
   38.9380   28.5400   56.8690 C   0  0  0  0  0  0  0  0  0  0  0  0
   39.4310   27.2770   56.6160 C   0  0  0  0  0  0  0  0  0  0  0  0
   39.4490   26.9900   55.2480 C   0  0  0  0  0  0  0  0  0  0  0  0
   39.3910   27.9280   54.0610 C   0  0  0  0  0  0  0  0  0  0  0  0
   38.9460   29.2400   54.6120 C   0  0  0  0  0  0  0  0  0  0  0  0
   38.5570   30.3830   53.9580 C   0  0  0  0  0  0  0  0  0  0  0  0
   39.6850   30.7480   53.0860 N   0  0  0  0  0  0  0  0  0  0  0  0
   39.8720   30.0570   51.8070 C   0  0  0  0  0  0  0  0  0  0  0  0
   40.1750   30.6100   50.6430 C   0  0  0  0  0  0  0  0  0  0  0  0
   40.2350   29.6170   49.8380 C   0  0  0  0  0  0  0  0  0  0  0  0
   39.9060   28.3920   50.3240 O   0  0  0  0  0  0  0  0  0  0  0  0
   39.7110   28.6740   51.6370 C   0  0  0  0  0  0  0  0  0  0  0  0
   39.3770   27.6630   52.6680 C   0  0  0  0  0  0  0  0  0  0  0  0
   39.6560   25.5150   55.1190 C   0  0  0  0  0  0  0  0  0  0  0  0
   39.9480   24.9780   54.0470 O   0  0  0  0  0  0  0  0  0  0  0  0
   39.5100   24.9880   56.4310 N   0  0  0  0  0  0  0  0  0  0  0  0
   39.3900   26.0020   57.3500 C   0  0  0  0  0  0  0  0  0  0  0  0
   39.1590   25.9210   58.6620 O   0  0  0  0  0  0  0  0  0  0  0  0
   38.4570   32.2570   55.8420 C   0  0  1  0  0  0  0  0  0  0  0  0
   37.6210   32.5500   54.7050 O   0  0  0  0  0  0  0  0  0  0  0  0
   38.4030   33.3690   56.5890 C   0  0  0  0  0  0  0  0  0  0  0  0
   37.1070   36.8200   60.3190 C   0  0  1  0  0  0  0  0  0  0  0  0
   36.8240   37.1840   59.0870 O   0  0  0  0  0  0  0  0  0  0  0  0
   36.9030   37.3410   61.7520 C   0  0  0  0  0  0  0  0  0  0  0  0
   36.0640   38.3720   61.5090 O   0  0  0  0  0  0  0  0  0  0  0  0
   36.7102   35.0206   62.4180 H   0  0  0  0  0  0  0  0  0  0  0  0
   35.1984   34.7905   61.4756 H   0  0  0  0  0  0  0  0  0  0  0  0
   36.4601   33.5119   61.4756 H   0  0  0  0  0  0  0  0  0  0  0  0
   35.9786   34.8458   59.8678 H   0  0  0  0  0  0  0  0  0  0  0  0
   36.5110   33.6600   58.7440 H   0  0  0  0  0  0  0  0  0  0  0  0
   39.6038   33.3971   58.1803 H   0  0  0  0  0  0  0  0  0  0  0  0
   39.2416   32.0367   59.4149 H   0  0  0  0  0  0  0  0  0  0  0  0
   37.4244   32.0007   59.0249 H   0  0  0  0  0  0  0  0  0  0  0  0
   39.4592   30.0970   58.1927 H   0  0  0  0  0  0  0  0  0  0  0  0
   37.6796   30.1225   57.8348 H   0  0  0  0  0  0  0  0  0  0  0  0
   39.7656   31.4566   55.9916 H   0  0  0  0  0  0  0  0  0  0  0  0
   38.5285   28.7764   57.8622 H   0  0  0  0  0  0  0  0  0  0  0  0
   37.6547   30.1932   53.3582 H   0  0  0  0  0  0  0  0  0  0  0  0
   38.3122   31.1905   54.6637 H   0  0  0  0  0  0  0  0  0  0  0  0
   40.3420   31.4870   53.3740 H   0  0  0  0  0  0  0  0  0  0  0  0
   40.3373   31.6748   50.4198 H   0  0  0  0  0  0  0  0  0  0  0  0
   40.5420   29.7507   48.7902 H   0  0  0  0  0  0  0  0  0  0  0  0
   38.3560   27.3250   52.4371 H   0  0  0  0  0  0  0  0  0  0  0  0
   40.2283   26.9728   52.5736 H   0  0  0  0  0  0  0  0  0  0  0  0
   39.4970   23.9840   56.6600 H   0  0  0  0  0  0  0  0  0  0  0  0
   39.3680   31.8207   55.4064 H   0  0  0  0  0  0  0  0  0  0  0  0
   37.7730   33.4830   54.4140 H   0  0  0  0  0  0  0  0  0  0  0  0
   39.2112   34.0348   56.2521 H   0  0  0  0  0  0  0  0  0  0  0  0
   37.3866   33.7631   56.4422 H   0  0  0  0  0  0  0  0  0  0  0  0
   37.9736   37.4952   60.2633 H   0  0  0  0  0  0  0  0  0  0  0  0
   36.7050   36.3770   58.5240 H   0  0  0  0  0  0  0  0  0  0  0  0
   36.4405   36.5823   62.4004 H   0  0  0  0  0  0  0  0  0  0  0  0
   37.8277   37.6111   62.2831 H   0  0  0  0  0  0  0  0  0  0  0  0
   36.5320   39.0570   60.9680 H   0  0  0  0  0  0  0  0  0  0  0  0
  1  2  1  0
  2  3  1  0
  3  4  1  0
  4  5  1  0
  5  6  1  0
  6  7  1  0
  7  8  1  0
  8  9  1  0
  9 10  1  0
 10 11  2  0
 11 12  1  0
 12 13  2  0
 13 14  1  0
 14 15  1  0
 15 16  1  0
 16 17  1  0
 17 18  1  0
 18 19  2  0
 19 20  1  0
 20 21  1  0
 21 22  1  0
 12 23  1  0
 23 24  2  0
 23 25  1  0
 25 26  1  0
 26 27  2  0
  8 28  1  0
 28 29  1  0
 28 30  1  0
  2 31  1  0
 31 32  1  0
 31 33  1  0
 33 34  1  0
 30  5  1  0
 14  9  2  0
 21 17  2  0
 26 11  1  0
 22 13  1  0
  1 35  1  0
  1 36  1  0
  1 37  1  0
  2 38  1  6
  4 39  1  0
  5 40  1  1
  6 41  1  0
  6 42  1  0
  7 43  1  0
  7 44  1  0
  8 45  1  1
 10 46  1  0
 15 47  1  0
 15 48  1  0
 16 49  1  0
 18 50  1  0
 19 51  1  0
 22 52  1  0
 22 53  1  0
 25 54  1  0
 28 55  1  6
 29 56  1  0
 30 57  1  0
 30 58  1  0
 31 59  1  6
 32 60  1  0
 33 61  1  0
 33 62  1  0
 34 63  1  0
M  END
>  <docking_score>  (12) 
-11.423

>  <plif_similarity>  (12) 
0.556

$$$$
DiffSBDD_27
     RDKit          3D

 43 42  0  0  0  0  0  0  0  0999 V2000
   39.4130   27.3010   51.7040 C   0  0  0  0  0  0  0  0  0  0  0  0
   39.4390   29.1170   51.9490 C   0  0  0  0  0  0  0  0  0  0  0  0
   40.0490   29.1870   50.3450 C   0  0  0  0  0  0  0  0  0  0  0  0
   39.7560   30.6770   52.5970 C   0  0  0  0  0  0  0  0  0  0  0  0
   39.8220   30.7650   54.1500 C   0  0  0  0  0  0  0  0  0  0  0  0
   38.4910   30.9780   54.9120 C   0  0  0  0  0  0  0  0  0  0  0  0
   38.2120   29.9590   55.9960 C   0  0  0  0  0  0  0  0  0  0  0  0
   39.5480   29.2740   56.3800 C   0  0  0  0  0  0  0  0  0  0  0  0
   39.6020   27.7700   55.9130 C   0  0  0  0  0  0  0  0  0  0  0  0
   38.3310   27.1730   55.2650 C   0  0  0  0  0  0  0  0  0  0  0  0
   38.5670   25.6490   54.9880 C   0  0  1  0  0  0  0  0  0  0  0  0
   40.0160   25.5200   54.7550 O   0  0  0  0  0  0  0  0  0  0  0  0
   37.9670   24.7910   56.0400 C   0  0  1  0  0  0  0  0  0  0  0  0
   36.4740   24.3300   55.6470 Cl  0  0  0  0  0  0  0  0  0  0  0  0
   38.6190   24.3960   57.2800 C   0  0  0  0  0  0  0  0  0  0  0  0
   39.8750   24.7050   57.3550 O   0  0  0  0  0  0  0  0  0  0  0  0
   39.4058   26.7990   52.6828 H   0  0  0  0  0  0  0  0  0  0  0  0
   38.5107   27.0198   51.1411 H   0  0  0  0  0  0  0  0  0  0  0  0
   40.3068   26.9941   51.1411 H   0  0  0  0  0  0  0  0  0  0  0  0
   38.7737   29.1708   52.8234 H   0  0  0  0  0  0  0  0  0  0  0  0
   41.1415   29.3124   50.3733 H   0  0  0  0  0  0  0  0  0  0  0  0
   39.8005   28.2544   49.8172 H   0  0  0  0  0  0  0  0  0  0  0  0
   39.5957   30.0390   49.8172 H   0  0  0  0  0  0  0  0  0  0  0  0
   40.7228   31.0180   52.1983 H   0  0  0  0  0  0  0  0  0  0  0  0
   38.9027   31.3036   52.2983 H   0  0  0  0  0  0  0  0  0  0  0  0
   40.2635   29.8258   54.5146 H   0  0  0  0  0  0  0  0  0  0  0  0
   40.4096   31.6722   54.3542 H   0  0  0  0  0  0  0  0  0  0  0  0
   38.5184   31.9743   55.3774 H   0  0  0  0  0  0  0  0  0  0  0  0
   37.6871   30.8689   54.1691 H   0  0  0  0  0  0  0  0  0  0  0  0
   37.7855   30.4612   56.8769 H   0  0  0  0  0  0  0  0  0  0  0  0
   37.4936   29.2090   55.6334 H   0  0  0  0  0  0  0  0  0  0  0  0
   40.3759   29.8219   55.9063 H   0  0  0  0  0  0  0  0  0  0  0  0
   39.6326   29.2902   57.4766 H   0  0  0  0  0  0  0  0  0  0  0  0
   40.4169   27.6828   55.1793 H   0  0  0  0  0  0  0  0  0  0  0  0
   39.7375   27.1952   56.8410 H   0  0  0  0  0  0  0  0  0  0  0  0
   37.4768   27.2959   55.9471 H   0  0  0  0  0  0  0  0  0  0  0  0
   38.1163   27.6935   54.3200 H   0  0  0  0  0  0  0  0  0  0  0  0
   38.0422   25.2731   54.0973 H   0  0  0  0  0  0  0  0  0  0  0  0
   40.3780   26.3830   54.4340 H   0  0  0  0  0  0  0  0  0  0  0  0
   37.5604   25.6843   56.5367 H   0  0  0  0  0  0  0  0  0  0  0  0
   38.0953   24.8868   58.1136 H   0  0  0  0  0  0  0  0  0  0  0  0
   38.5668   23.2980   57.3216 H   0  0  0  0  0  0  0  0  0  0  0  0
   40.0040   25.6380   57.0470 H   0  0  0  0  0  0  0  0  0  0  0  0
  1  2  1  0
  2  3  1  0
  2  4  1  0
  4  5  1  0
  5  6  1  0
  6  7  1  0
  7  8  1  0
  8  9  1  0
  9 10  1  0
 10 11  1  0
 11 12  1  0
 11 13  1  0
 13 14  1  0
 13 15  1  0
 15 16  1  0
  1 17  1  0
  1 18  1  0
  1 19  1  0
  2 20  1  0
  3 21  1  0
  3 22  1  0
  3 23  1  0
  4 24  1  0
  4 25  1  0
  5 26  1  0
  5 27  1  0
  6 28  1  0
  6 29  1  0
  7 30  1  0
  7 31  1  0
  8 32  1  0
  8 33  1  0
  9 34  1  0
  9 35  1  0
 10 36  1  0
 10 37  1  0
 11 38  1  6
 12 39  1  0
 13 40  1  1
 15 41  1  0
 15 42  1  0
 16 43  1  0
M  END
>  <docking_score>  (13) 
-6.432

>  <plif_similarity>  (13) 
0.222

$$$$
DiffSBDD_28
     RDKit          3D

 59 63  0  0  0  0  0  0  0  0999 V2000
   41.1940   34.7170   61.9560 C   0  0  0  0  0  0  0  0  0  0  0  0
   39.9060   35.2710   61.7110 C   0  0  2  0  0  0  0  0  0  0  0  0
   39.8620   36.6050   61.8540 C   0  0  0  0  0  0  0  0  0  0  0  0
   38.8650   37.5010   61.5180 C   0  0  0  0  0  0  0  0  0  0  0  0
   37.8750   37.3450   60.6980 C   0  0  0  0  0  0  0  0  0  0  0  0
   37.4130   36.1880   60.1230 C   0  0  0  0  0  0  0  0  0  0  0  0
   36.3880   36.4380   59.2760 O   0  0  0  0  0  0  0  0  0  0  0  0
   37.9060   34.9340   60.3110 C   0  0  0  0  0  0  0  0  0  0  0  0
   38.8100   34.4760   61.2670 C   0  0  0  0  0  0  0  0  0  0  0  0
   38.4860   33.1510   61.8730 C   0  0  0  0  0  0  0  0  0  0  0  0
   37.3190   32.5720   61.1160 C   0  0  0  0  0  0  0  0  0  0  0  0
   37.7480   32.4650   59.6650 N   0  0  0  0  0  0  0  0  0  0  0  0
   38.5230   31.4430   58.7610 C   0  0  0  0  0  0  0  0  0  0  0  0
   38.3140   31.3900   57.2660 C   0  0  0  0  0  0  0  0  0  0  0  0
   38.6270   30.0440   56.7950 C   0  0  2  0  0  0  0  0  0  0  0  0
   37.9030   29.5730   55.3160 S   0  0  0  0  0  0  0  0  0  0  0  0
   38.8100   28.1980   55.3390 C   0  0  0  0  0  0  0  0  0  0  0  0
   39.2970   27.5980   54.1840 C   0  0  0  0  0  0  0  0  0  0  0  0
   39.4260   28.3910   52.9850 C   0  0  0  0  0  0  0  0  0  0  0  0
   39.6580   29.7780   52.9940 C   0  0  0  0  0  0  0  0  0  0  0  0
   39.9100   30.4940   51.7680 C   0  0  0  0  0  0  0  0  0  0  0  0
   39.8540   29.7460   50.5740 C   0  0  0  0  0  0  0  0  0  0  0  0
   40.0920   30.4390   49.3610 F   0  0  0  0  0  0  0  0  0  0  0  0
   39.6670   28.4120   50.5640 C   0  0  0  0  0  0  0  0  0  0  0  0
   39.4020   27.7230   51.7510 C   0  0  0  0  0  0  0  0  0  0  0  0
   39.5970   26.2530   54.2400 C   0  0  0  0  0  0  0  0  0  0  0  0
   39.7880   25.6300   55.4310 C   0  0  0  0  0  0  0  0  0  0  0  0
   39.5680   26.2820   56.5970 C   0  0  0  0  0  0  0  0  0  0  0  0
   39.9270   25.6360   57.7720 N   0  0  0  0  0  0  0  0  0  0  0  0
   39.1480   27.5910   56.5370 C   0  0  0  0  0  0  0  0  0  0  0  0
   39.2140   28.9230   57.4920 C   0  0  0  0  0  0  0  0  0  0  0  0
   39.7280   28.8030   58.5890 O   0  0  0  0  0  0  0  0  0  0  0  0
   37.8140   33.8720   59.1520 C   0  0  0  0  0  0  0  0  0  0  0  0
   41.3618   34.6448   63.0407 H   0  0  0  0  0  0  0  0  0  0  0  0
   41.2529   33.7140   61.5083 H   0  0  0  0  0  0  0  0  0  0  0  0
   41.9627   35.3641   61.5083 H   0  0  0  0  0  0  0  0  0  0  0  0
   40.1608   35.3934   60.6479 H   0  0  0  0  0  0  0  0  0  0  0  0
   40.7574   37.0541   62.3086 H   0  0  0  0  0  0  0  0  0  0  0  0
   38.9199   38.4807   62.0151 H   0  0  0  0  0  0  0  0  0  0  0  0
   37.3321   38.2622   60.4262 H   0  0  0  0  0  0  0  0  0  0  0  0
   39.3542   32.4803   61.7926 H   0  0  0  0  0  0  0  0  0  0  0  0
   38.2346   33.2663   62.9377 H   0  0  0  0  0  0  0  0  0  0  0  0
   37.0676   31.5766   61.5110 H   0  0  0  0  0  0  0  0  0  0  0  0
   36.4273   33.2080   61.2183 H   0  0  0  0  0  0  0  0  0  0  0  0
   39.5936   31.6415   58.9171 H   0  0  0  0  0  0  0  0  0  0  0  0
   38.1099   30.4781   59.0902 H   0  0  0  0  0  0  0  0  0  0  0  0
   37.2667   31.6300   57.0303 H   0  0  0  0  0  0  0  0  0  0  0  0
   38.9695   32.1214   56.7706 H   0  0  0  0  0  0  0  0  0  0  0  0
   39.5645   30.5682   57.0324 H   0  0  0  0  0  0  0  0  0  0  0  0
   39.6471   30.3239   53.9489 H   0  0  0  0  0  0  0  0  0  0  0  0
   40.1349   31.5708   51.7644 H   0  0  0  0  0  0  0  0  0  0  0  0
   39.7233   27.8604   49.6140 H   0  0  0  0  0  0  0  0  0  0  0  0
   39.1726   26.6477   51.7176 H   0  0  0  0  0  0  0  0  0  0  0  0
   39.6827   25.6771   53.3067 H   0  0  0  0  0  0  0  0  0  0  0  0
   40.1255   24.5832   55.4489 H   0  0  0  0  0  0  0  0  0  0  0  0
   39.7350   26.0780   58.6820 H   0  0  0  0  0  0  0  0  0  0  0  0
   40.3840   24.7150   57.7330 H   0  0  0  0  0  0  0  0  0  0  0  0
   38.7021   33.9722   58.5108 H   0  0  0  0  0  0  0  0  0  0  0  0
   36.8869   34.0673   58.5932 H   0  0  0  0  0  0  0  0  0  0  0  0
  1  2  1  0
  2  3  1  0
  3  4  2  0
  4  5  1  0
  5  6  2  0
  6  7  1  0
  6  8  1  0
  8  9  2  0
  9 10  1  0
 10 11  1  0
 11 12  1  0
 12 13  1  0
 13 14  1  0
 14 15  1  0
 15 16  1  0
 16 17  1  0
 17 18  2  0
 18 19  1  0
 19 20  1  0
 20 21  2  0
 21 22  1  0
 22 23  1  0
 22 24  2  0
 24 25  1  0
 18 26  1  0
 26 27  2  0
 27 28  1  0
 28 29  1  0
 28 30  2  0
 30 31  1  0
 31 32  2  0
 12 33  1  0
  9  2  1  0
 31 15  1  0
 33  8  1  0
 30 17  1  0
 25 19  2  0
  1 34  1  0
  1 35  1  0
  1 36  1  0
  2 37  1  1
  3 38  1  0
  4 39  1  0
  5 40  1  0
 10 41  1  0
 10 42  1  0
 11 43  1  0
 11 44  1  0
 13 45  1  0
 13 46  1  0
 14 47  1  0
 14 48  1  0
 15 49  1  6
 20 50  1  0
 21 51  1  0
 24 52  1  0
 25 53  1  0
 26 54  1  0
 27 55  1  0
 29 56  1  0
 29 57  1  0
 33 58  1  0
 33 59  1  0
M  CHG  1   7  -1
M  END
>  <docking_score>  (14) 
-12.997

>  <plif_similarity>  (14) 
0.444

$$$$
DiffSBDD_29
     RDKit          3D

 67 69  0  0  0  0  0  0  0  0999 V2000
   37.5400   39.4450   61.1350 N   0  0  0  0  0  0  0  0  0  0  0  0
   38.1190   38.2890   61.1970 C   0  0  0  0  0  0  0  0  0  0  0  0
   39.2520   37.8790   62.0430 C   0  0  0  0  0  0  0  0  0  0  0  0
   39.7750   36.7320   61.8580 C   0  0  0  0  0  0  0  0  0  0  0  0
   40.1620   35.5520   61.3200 C   0  0  0  0  0  0  0  0  0  0  0  0
   39.0230   35.1540   60.4450 C   0  0  0  0  0  0  0  0  0  0  0  0
   39.2050   33.8820   59.8050 C   0  0  0  0  0  0  0  0  0  0  0  0
   38.1810   33.0410   59.4720 N   0  0  0  0  0  0  0  0  0  0  0  0
   38.6120   31.6300   60.1500 C   0  0  2  0  0  0  0  0  0  0  0  0
   38.4260   30.5440   59.1560 C   0  0  0  0  0  0  0  0  0  0  0  0
   37.7690   30.9610   57.9230 N   0  0  0  0  0  0  0  0  0  0  0  0
   38.3070   30.8020   56.6270 C   0  0  2  0  0  0  0  0  0  0  0  0
   39.2330   29.5400   56.5910 C   0  0  0  0  0  0  0  0  0  0  0  0
   38.4050   28.3400   56.0680 C   0  0  0  0  0  0  0  0  0  0  0  0
   37.6880   28.8340   54.8640 C   0  0  0  0  0  0  0  0  0  0  0  0
   38.5590   28.5530   53.9090 O   0  0  0  0  0  0  0  0  0  0  0  0
   39.1720   29.0660   52.9080 C   0  0  0  0  0  0  0  0  0  0  0  0
   39.1810   28.0820   51.9900 C   0  0  0  0  0  0  0  0  0  0  0  0
   39.6120   28.2180   50.6760 C   0  0  0  0  0  0  0  0  0  0  0  0
   40.1560   29.4700   50.3410 C   0  0  0  0  0  0  0  0  0  0  0  0
   40.1750   30.4950   51.2870 C   0  0  0  0  0  0  0  0  0  0  0  0
   39.7710   30.3050   52.5970 C   0  0  0  0  0  0  0  0  0  0  0  0
   38.5890   32.0310   55.8380 C   0  0  0  0  0  0  0  0  0  0  0  0
   39.3320   33.0040   56.2390 O   0  0  0  0  0  0  0  0  0  0  0  0
   37.9350   32.3000   54.7400 O   0  0  0  0  0  0  0  0  0  0  0  0
   37.8140   31.7450   61.4700 C   0  0  2  0  0  0  0  0  0  0  0  0
   38.2790   30.8420   62.5150 O   0  0  0  0  0  0  0  0  0  0  0  0
   36.3830   31.4650   61.1010 C   0  0  0  0  0  0  0  0  0  0  0  0
   35.4130   32.4230   61.5300 O   0  0  0  0  0  0  0  0  0  0  0  0
   37.1630   34.0510   58.8810 C   0  0  0  0  0  0  0  0  0  0  0  0
   36.8540   35.1400   59.5280 C   0  0  0  0  0  0  0  0  0  0  0  0
   37.9020   35.8530   60.2380 C   0  0  0  0  0  0  0  0  0  0  0  0
   37.5720   37.2210   60.3320 N   0  0  0  0  0  0  0  0  0  0  0  0
   36.6640   39.5530   60.6050 H   0  0  0  0  0  0  0  0  0  0  0  0
   37.9550   40.2550   61.6160 H   0  0  0  0  0  0  0  0  0  0  0  0
   39.6405   38.5517   62.8218 H   0  0  0  0  0  0  0  0  0  0  0  0
   40.7966   37.0586   62.1023 H   0  0  0  0  0  0  0  0  0  0  0  0
   38.7559   36.3198   61.8963 H   0  0  0  0  0  0  0  0  0  0  0  0
   41.0818   35.6761   60.7297 H   0  0  0  0  0  0  0  0  0  0  0  0
   40.3876   34.7952   62.0858 H   0  0  0  0  0  0  0  0  0  0  0  0
   40.2314   33.5651   59.5683 H   0  0  0  0  0  0  0  0  0  0  0  0
   39.6509   31.3876   60.4181 H   0  0  0  0  0  0  0  0  0  0  0  0
   39.4163   30.1403   58.8984 H   0  0  0  0  0  0  0  0  0  0  0  0
   37.7674   29.7985   59.6256 H   0  0  0  0  0  0  0  0  0  0  0  0
   37.6020   31.9720   58.0290 H   0  0  0  0  0  0  0  0  0  0  0  0
   36.9930   30.2860   57.8870 H   0  0  0  0  0  0  0  0  0  0  0  0
   37.5171   30.5398   55.9078 H   0  0  0  0  0  0  0  0  0  0  0  0
   40.0852   29.7237   55.9202 H   0  0  0  0  0  0  0  0  0  0  0  0
   39.6161   29.3238   57.5992 H   0  0  0  0  0  0  0  0  0  0  0  0
   39.0687   27.5041   55.8020 H   0  0  0  0  0  0  0  0  0  0  0  0
   37.7050   27.9691   56.8311 H   0  0  0  0  0  0  0  0  0  0  0  0
   36.7387   28.2991   54.7131 H   0  0  0  0  0  0  0  0  0  0  0  0
   37.4019   29.8950   54.9143 H   0  0  0  0  0  0  0  0  0  0  0  0
   38.8187   27.0922   52.3046 H   0  0  0  0  0  0  0  0  0  0  0  0
   39.5326   27.3993   49.9456 H   0  0  0  0  0  0  0  0  0  0  0  0
   40.5660   29.6412   49.3347 H   0  0  0  0  0  0  0  0  0  0  0  0
   40.5243   31.4919   50.9802 H   0  0  0  0  0  0  0  0  0  0  0  0
   39.9105   31.0843   53.3607 H   0  0  0  0  0  0  0  0  0  0  0  0
   37.9465   32.7469   61.9044 H   0  0  0  0  0  0  0  0  0  0  0  0
   39.0670   31.2370   62.9660 H   0  0  0  0  0  0  0  0  0  0  0  0
   36.3273   31.4016   60.0042 H   0  0  0  0  0  0  0  0  0  0  0  0
   36.1243   30.5343   61.6271 H   0  0  0  0  0  0  0  0  0  0  0  0
   35.2420   32.3070   62.4980 H   0  0  0  0  0  0  0  0  0  0  0  0
   37.5637   34.3673   57.9067 H   0  0  0  0  0  0  0  0  0  0  0  0
   36.2206   33.4838   58.8912 H   0  0  0  0  0  0  0  0  0  0  0  0
   35.8189   35.5121   59.5361 H   0  0  0  0  0  0  0  0  0  0  0  0
   36.8250   37.5270   59.6920 H   0  0  0  0  0  0  0  0  0  0  0  0
  1  2  1  0
  2  3  2  0
  3  4  1  0
  4  5  1  0
  5  6  1  0
  6  7  2  0
  7  8  1  0
  8  9  1  0
  9 10  1  0
 10 11  1  0
 11 12  1  0
 12 13  1  0
 13 14  1  0
 14 15  1  0
 15 16  1  0
 16 17  1  0
 17 18  2  0
 18 19  1  0
 19 20  2  0
 20 21  1  0
 21 22  2  0
 12 23  1  0
 23 24  2  0
 23 25  1  0
  9 26  1  0
 26 27  1  0
 26 28  1  0
 28 29  1  0
  8 30  1  0
 30 31  1  0
 31 32  2  0
 32 33  1  0
 33  2  1  0
 32  6  1  0
 22 17  1  0
  1 34  1  0
  1 35  1  0
  3 36  1  0
  4 37  1  0
  4 38  1  0
  5 39  1  0
  5 40  1  0
  7 41  1  0
  9 42  1  1
 10 43  1  0
 10 44  1  0
 11 45  1  0
 11 46  1  0
 12 47  1  6
 13 48  1  0
 13 49  1  0
 14 50  1  0
 14 51  1  0
 15 52  1  0
 15 53  1  0
 18 54  1  0
 19 55  1  0
 20 56  1  0
 21 57  1  0
 22 58  1  0
 26 59  1  1
 27 60  1  0
 28 61  1  0
 28 62  1  0
 29 63  1  0
 30 64  1  0
 30 65  1  0
 31 66  1  0
 33 67  1  0
M  CHG  2  11   1  25  -1
M  END
>  <docking_score>  (15) 
-9.306

>  <plif_similarity>  (15) 
0.556

$$$$
DiffSBDD_2
     RDKit          3D

 81 84  0  0  0  0  0  0  0  0999 V2000
   41.9860   27.6070   58.1480 C   0  0  0  0  0  0  0  0  0  0  0  0
   41.0480   27.7590   57.0570 C   0  0  0  0  0  0  0  0  0  0  0  0
   39.5770   27.3740   57.3350 C   0  0  1  0  0  0  0  0  0  0  0  0
   39.4800   25.9470   57.9160 C   0  0  0  0  0  0  0  0  0  0  0  0
   38.6190   24.9330   57.2040 C   0  0  0  0  0  0  0  0  0  0  0  0
   37.9920   24.0730   57.7770 O   0  0  0  0  0  0  0  0  0  0  0  0
   38.6540   25.0570   55.8110 N   0  0  0  0  0  0  0  0  0  0  0  0
   37.5420   25.3850   54.9410 C   0  0  0  0  0  0  0  0  0  0  0  0
   37.2860   26.8470   54.9810 C   0  0  0  0  0  0  0  0  0  0  0  0
   37.5690   27.5650   53.6470 C   0  0  0  0  0  0  0  0  0  0  0  0
   38.8340   28.3230   53.6300 C   0  0  2  0  0  0  0  0  0  0  0  0
   39.8540   27.4340   53.9290 F   0  0  0  0  0  0  0  0  0  0  0  0
   39.1100   29.6060   54.4050 C   0  0  0  0  0  0  0  0  0  0  0  0
   39.6320   30.6480   53.3760 C   0  0  0  0  0  0  0  0  0  0  0  0
   39.8970   29.7300   52.1790 C   0  0  2  0  0  0  0  0  0  0  0  0
   39.8300   30.4230   50.8040 C   0  0  0  0  0  0  0  0  0  0  0  0
   39.7770   29.4550   49.7460 O   0  0  0  0  0  0  0  0  0  0  0  0
   38.9630   28.6520   52.2370 O   0  0  0  0  0  0  0  0  0  0  0  0
   38.8670   28.3740   58.3270 C   0  0  0  0  0  0  0  0  0  0  0  0
   39.1030   29.9170   58.7280 C   0  0  1  0  0  0  0  0  0  0  0  0
   38.1410   30.9170   58.1270 C   0  0  0  0  0  0  0  0  0  0  0  0
   38.1800   32.4090   58.7280 C   0  0  1  0  0  0  0  0  0  0  0  0
   37.4460   33.8130   58.4150 N   0  0  0  0  0  0  0  0  0  0  0  0
   36.8860   34.2800   59.6150 C   0  0  2  0  0  0  0  0  0  0  0  0
   38.1420   35.1650   60.3740 C   0  0  1  0  0  0  0  0  0  0  0  0
   37.4000   36.1490   61.0770 N   0  0  0  0  0  0  0  0  0  0  0  0
   37.4730   37.5490   61.2200 C   0  0  0  0  0  0  0  0  0  0  0  0
   38.5810   37.9570   61.4950 O   0  0  0  0  0  0  0  0  0  0  0  0
   36.3590   38.3420   61.2210 O   0  0  0  0  0  0  0  0  0  0  0  0
   35.6020   38.7750   62.3170 C   0  0  0  0  0  0  0  0  0  0  0  0
   38.0940   33.7330   60.4090 C   0  0  2  0  0  0  0  0  0  0  0  0
   38.5010   32.5380   60.0480 C   0  0  1  0  0  0  0  0  0  0  0  0
   38.1610   31.2260   60.7480 C   0  0  0  0  0  0  0  0  0  0  0  0
   38.7750   29.7400   60.3000 C   0  0  2  0  0  0  0  0  0  0  0  0
   39.6900   28.6010   60.8640 C   0  0  0  0  0  0  0  0  0  0  0  0
   40.9780   28.9870   61.1770 O   0  0  0  0  0  0  0  0  0  0  0  0
   41.4517   27.6936   59.1056 H   0  0  0  0  0  0  0  0  0  0  0  0
   42.4660   26.6193   58.0839 H   0  0  0  0  0  0  0  0  0  0  0  0
   42.7534   28.3925   58.0839 H   0  0  0  0  0  0  0  0  0  0  0  0
   41.0621   28.8159   56.7525 H   0  0  0  0  0  0  0  0  0  0  0  0
   41.3878   27.0493   56.2883 H   0  0  0  0  0  0  0  0  0  0  0  0
   39.0612   27.4226   56.3646 H   0  0  0  0  0  0  0  0  0  0  0  0
   40.5014   25.5398   57.9473 H   0  0  0  0  0  0  0  0  0  0  0  0
   38.9818   26.0866   58.8867 H   0  0  0  0  0  0  0  0  0  0  0  0
   39.5660   24.8990   55.3570 H   0  0  0  0  0  0  0  0  0  0  0  0
   37.7835   25.0847   53.9107 H   0  0  0  0  0  0  0  0  0  0  0  0
   36.6437   24.8496   55.2824 H   0  0  0  0  0  0  0  0  0  0  0  0
   36.2299   27.0070   55.2437 H   0  0  0  0  0  0  0  0  0  0  0  0
   37.9744   27.2724   55.7260 H   0  0  0  0  0  0  0  0  0  0  0  0
   37.6080   26.8091   52.8489 H   0  0  0  0  0  0  0  0  0  0  0  0
   36.7590   28.2946   53.5003 H   0  0  0  0  0  0  0  0  0  0  0  0
   38.1854   29.9699   54.8768 H   0  0  0  0  0  0  0  0  0  0  0  0
   39.8479   29.4347   55.2026 H   0  0  0  0  0  0  0  0  0  0  0  0
   38.8729   31.4101   53.1458 H   0  0  0  0  0  0  0  0  0  0  0  0
   40.5000   31.2350   53.7108 H   0  0  0  0  0  0  0  0  0  0  0  0
   40.9362   29.3793   52.2625 H   0  0  0  0  0  0  0  0  0  0  0  0
   38.9293   31.0530   50.7615 H   0  0  0  0  0  0  0  0  0  0  0  0
   40.7338   31.0366   50.6747 H   0  0  0  0  0  0  0  0  0  0  0  0
   38.8360   29.3250   49.4660 H   0  0  0  0  0  0  0  0  0  0  0  0
   37.8229   28.3657   57.9808 H   0  0  0  0  0  0  0  0  0  0  0  0
   39.3284   27.9607   59.2360 H   0  0  0  0  0  0  0  0  0  0  0  0
   40.0755   30.3173   58.4056 H   0  0  0  0  0  0  0  0  0  0  0  0
   38.3602   30.9852   57.0512 H   0  0  0  0  0  0  0  0  0  0  0  0
   37.1383   30.5344   58.3684 H   0  0  0  0  0  0  0  0  0  0  0  0
   38.7503   32.3232   57.7913 H   0  0  0  0  0  0  0  0  0  0  0  0
   38.1300   34.4950   58.0580 H   0  0  0  0  0  0  0  0  0  0  0  0
   36.7130   33.6860   57.7020 H   0  0  0  0  0  0  0  0  0  0  0  0
   35.7919   34.3773   59.5567 H   0  0  0  0  0  0  0  0  0  0  0  0
   39.0684   35.7556   60.3187 H   0  0  0  0  0  0  0  0  0  0  0  0
   36.6200   35.7420   61.6130 H   0  0  0  0  0  0  0  0  0  0  0  0
   36.1083   38.4854   63.2497 H   0  0  0  0  0  0  0  0  0  0  0  0
   35.4975   39.8694   62.2811 H   0  0  0  0  0  0  0  0  0  0  0  0
   34.6057   38.3102   62.2811 H   0  0  0  0  0  0  0  0  0  0  0  0
   38.5645   33.2574   61.2822 H   0  0  0  0  0  0  0  0  0  0  0  0
   39.5518   32.5989   60.3675 H   0  0  0  0  0  0  0  0  0  0  0  0
   38.4543   31.3647   61.7991 H   0  0  0  0  0  0  0  0  0  0  0  0
   37.1042   31.1079   60.4667 H   0  0  0  0  0  0  0  0  0  0  0  0
   38.0154   29.2463   60.9239 H   0  0  0  0  0  0  0  0  0  0  0  0
   39.2205   28.2073   61.7775 H   0  0  0  0  0  0  0  0  0  0  0  0
   39.7799   27.8540   60.0616 H   0  0  0  0  0  0  0  0  0  0  0  0
   41.3080   28.4480   61.9390 H   0  0  0  0  0  0  0  0  0  0  0  0
  1  2  1  0
  2  3  1  0
  3  4  1  0
  4  5  1  0
  5  6  2  0
  5  7  1  0
  7  8  1  0
  8  9  1  0
  9 10  1  0
 10 11  1  0
 11 12  1  1
 11 13  1  0
 13 14  1  0
 14 15  1  0
 15 16  1  0
 16 17  1  0
 15 18  1  0
  3 19  1  0
 19 20  1  0
 20 21  1  0
 21 22  1  0
 22 23  1  0
 23 24  1  0
 24 25  1  0
 25 26  1  0
 26 27  1  0
 27 28  2  0
 27 29  1  0
 29 30  1  0
 25 31  1  0
 31 32  1  0
 32 33  1  0
 33 34  1  0
 34 35  1  0
 35 36  1  0
 18 11  1  0
 34 20  1  0
 32 22  1  0
 31 24  1  0
  1 37  1  0
  1 38  1  0
  1 39  1  0
  2 40  1  0
  2 41  1  0
  3 42  1  6
  4 43  1  0
  4 44  1  0
  7 45  1  0
  8 46  1  0
  8 47  1  0
  9 48  1  0
  9 49  1  0
 10 50  1  0
 10 51  1  0
 13 52  1  0
 13 53  1  0
 14 54  1  0
 14 55  1  0
 15 56  1  1
 16 57  1  0
 16 58  1  0
 17 59  1  0
 19 60  1  0
 19 61  1  0
 20 62  1  1
 21 63  1  0
 21 64  1  0
 22 65  1  6
 23 66  1  0
 23 67  1  0
 24 68  1  1
 25 69  1  6
 26 70  1  0
 30 71  1  0
 30 72  1  0
 30 73  1  0
 31 74  1  1
 32 75  1  6
 33 76  1  0
 33 77  1  0
 34 78  1  6
 35 79  1  0
 35 80  1  0
 36 81  1  0
M  CHG  1  23   1
M  END
>  <docking_score>  (16) 
-9.662

>  <plif_similarity>  (16) 
0.444

$$$$
DiffSBDD_31
     RDKit          3D

 40 39  0  0  0  0  0  0  0  0999 V2000
   39.6060   25.7780   57.9930 C   0  0  0  0  0  0  0  0  0  0  0  0
   39.7650   25.0220   56.8540 O   0  0  0  0  0  0  0  0  0  0  0  0
   39.1490   25.4240   55.6880 C   0  0  2  0  0  0  0  0  0  0  0  0
   37.8160   24.9020   55.5380 C   0  0  0  0  0  0  0  0  0  0  0  0
   39.9300   25.9050   54.5880 C   0  0  0  0  0  0  0  0  0  0  0  0
   38.9320   27.1260   53.8030 S   0  0  0  0  0  0  0  0  0  0  0  0
   39.1550   29.0740   54.2970 C   0  0  0  0  0  0  0  0  0  0  0  0
   37.7530   29.1130   55.1580 C   0  0  0  0  0  0  0  0  0  0  0  0
   37.1220   30.4740   55.0090 C   0  0  0  0  0  0  0  0  0  0  0  0
   38.2890   31.4880   54.7550 C   0  0  0  0  0  0  0  0  0  0  0  0
   37.9760   32.6930   55.5870 N   0  0  0  0  0  0  0  0  0  0  0  0
   38.6080   32.5800   56.7340 C   0  0  0  0  0  0  0  0  0  0  0  0
   38.4760   33.0030   58.0460 C   0  0  0  0  0  0  0  0  0  0  0  0
   37.2560   33.9700   58.3360 N   0  0  0  0  0  0  0  0  0  0  0  0
   39.7403   25.1395   58.8786 H   0  0  0  0  0  0  0  0  0  0  0  0
   40.3542   26.5842   58.0054 H   0  0  0  0  0  0  0  0  0  0  0  0
   38.5964   26.2145   58.0054 H   0  0  0  0  0  0  0  0  0  0  0  0
   38.9263   26.4975   55.7772 H   0  0  0  0  0  0  0  0  0  0  0  0
   37.3758   24.7296   56.5312 H   0  0  0  0  0  0  0  0  0  0  0  0
   37.1993   25.6250   54.9841 H   0  0  0  0  0  0  0  0  0  0  0  0
   37.8543   23.9524   54.9841 H   0  0  0  0  0  0  0  0  0  0  0  0
   40.8694   26.3495   54.9484 H   0  0  0  0  0  0  0  0  0  0  0  0
   40.2043   25.0949   53.8963 H   0  0  0  0  0  0  0  0  0  0  0  0
   40.0481   29.2694   54.9087 H   0  0  0  0  0  0  0  0  0  0  0  0
   39.3000   29.8091   53.4916 H   0  0  0  0  0  0  0  0  0  0  0  0
   37.0649   28.3440   54.7770 H   0  0  0  0  0  0  0  0  0  0  0  0
   37.9637   28.9157   56.2195 H   0  0  0  0  0  0  0  0  0  0  0  0
   36.4253   30.4774   54.1578 H   0  0  0  0  0  0  0  0  0  0  0  0
   36.5518   30.7457   55.9096 H   0  0  0  0  0  0  0  0  0  0  0  0
   39.2499   31.0500   55.0628 H   0  0  0  0  0  0  0  0  0  0  0  0
   38.3748   31.7452   53.6890 H   0  0  0  0  0  0  0  0  0  0  0  0
   38.2900   33.5440   55.0990 H   0  0  0  0  0  0  0  0  0  0  0  0
   36.9600   32.7590   55.7470 H   0  0  0  0  0  0  0  0  0  0  0  0
   38.6540   31.4878   56.8560 H   0  0  0  0  0  0  0  0  0  0  0  0
   39.3198   33.3813   56.4866 H   0  0  0  0  0  0  0  0  0  0  0  0
   38.3579   32.1108   58.6785 H   0  0  0  0  0  0  0  0  0  0  0  0
   39.3813   33.5883   58.2650 H   0  0  0  0  0  0  0  0  0  0  0  0
   37.2210   34.1870   59.3410 H   0  0  0  0  0  0  0  0  0  0  0  0
   37.3740   34.8420   57.8000 H   0  0  0  0  0  0  0  0  0  0  0  0
   36.3780   33.5100   58.0530 H   0  0  0  0  0  0  0  0  0  0  0  0
  1  2  1  0
  2  3  1  0
  3  4  1  0
  3  5  1  0
  5  6  1  0
  6  7  1  0
  7  8  1  0
  8  9  1  0
  9 10  1  0
 10 11  1  0
 11 12  1  0
 12 13  1  0
 13 14  1  0
  1 15  1  0
  1 16  1  0
  1 17  1  0
  3 18  1  1
  4 19  1  0
  4 20  1  0
  4 21  1  0
  5 22  1  0
  5 23  1  0
  7 24  1  0
  7 25  1  0
  8 26  1  0
  8 27  1  0
  9 28  1  0
  9 29  1  0
 10 30  1  0
 10 31  1  0
 11 32  1  0
 11 33  1  0
 12 34  1  0
 12 35  1  0
 13 36  1  0
 13 37  1  0
 14 38  1  0
 14 39  1  0
 14 40  1  0
M  CHG  2  11   1  14   1
M  END
>  <docking_score>  (17) 
-5.382

>  <plif_similarity>  (17) 
0.444

$$$$
DiffSBDD_32
     RDKit          3D

 65 67  0  0  0  0  0  0  0  0999 V2000
   40.6360   30.1640   50.6080 C   0  0  0  0  0  0  0  0  0  0  0  0
   39.9940   29.0080   51.3350 C   0  0  0  0  0  0  0  0  0  0  0  0
   39.6020   28.0630   50.7160 O   0  0  0  0  0  0  0  0  0  0  0  0
   39.2070   29.2850   52.5000 C   0  0  0  0  0  0  0  0  0  0  0  0
   38.4430   28.4200   52.5670 C   0  0  0  0  0  0  0  0  0  0  0  0
   37.5230   28.4570   53.6670 C   0  0  0  0  0  0  0  0  0  0  0  0
   37.6500   29.5050   54.6250 C   0  0  0  0  0  0  0  0  0  0  0  0
   38.6110   30.4840   54.3800 C   0  0  0  0  0  0  0  0  0  0  0  0
   38.9450   31.7120   55.1910 C   0  0  0  0  0  0  0  0  0  0  0  0
   38.4170   32.0440   56.2760 N   0  0  0  0  0  0  0  0  0  0  0  0
   38.2750   33.0830   57.2780 C   0  0  0  0  0  0  0  0  0  0  0  0
   38.2560   32.4290   58.6850 C   0  0  0  0  0  0  0  0  0  0  0  0
   38.7470   31.0420   58.5750 C   0  0  0  0  0  0  0  0  0  0  0  0
   38.0160   29.9670   59.0390 C   0  0  1  0  0  0  0  0  0  0  0  0
   36.5000   30.4280   59.9580 C   0  0  0  0  0  0  0  0  0  0  0  0
   38.6580   28.7020   57.9980 C   0  0  0  0  0  0  0  0  0  0  0  0
   39.8650   28.9580   57.5200 C   0  0  0  0  0  0  0  0  0  0  0  0
   40.5380   27.9610   56.8510 C   0  0  0  0  0  0  0  0  0  0  0  0
   39.9620   26.7560   56.4150 C   0  0  0  0  0  0  0  0  0  0  0  0
   40.4790   25.8720   55.7840 O   0  0  0  0  0  0  0  0  0  0  0  0
   38.5490   26.5780   56.7090 C   0  0  0  0  0  0  0  0  0  0  0  0
   37.9400   25.3070   56.4110 C   0  0  0  0  0  0  0  0  0  0  0  0
   38.0480   24.0390   57.2330 O   0  0  0  0  0  0  0  0  0  0  0  0
   37.2240   25.2330   55.4080 O   0  0  0  0  0  0  0  0  0  0  0  0
   37.9300   27.5500   57.5870 C   0  0  0  0  0  0  0  0  0  0  0  0
   38.4440   29.1490   60.4270 C   0  0  1  0  0  0  0  0  0  0  0  0
   39.0260   28.5330   61.1330 O   0  0  0  0  0  0  0  0  0  0  0  0
   39.0410   29.6970   61.4930 C   0  0  1  0  0  0  0  0  0  0  0  0
   40.4280   29.9590   61.6320 C   0  0  1  0  0  0  0  0  0  0  0  0
   41.0210   31.0960   61.5040 O   0  0  0  0  0  0  0  0  0  0  0  0
   41.0130   29.3530   62.4740 C   0  0  0  0  0  0  0  0  0  0  0  0
   41.5530   30.2620   63.2420 C   0  0  0  0  0  0  0  0  0  0  0  0
   42.8440   30.4660   63.3980 O   0  0  0  0  0  0  0  0  0  0  0  0
   40.7910   30.5650   64.2210 O   0  0  0  0  0  0  0  0  0  0  0  0
   39.3260   30.3640   53.1840 C   0  0  0  0  0  0  0  0  0  0  0  0
   41.0346   30.8817   51.3401 H   0  0  0  0  0  0  0  0  0  0  0  0
   41.4559   29.7904   49.9770 H   0  0  0  0  0  0  0  0  0  0  0  0
   39.8855   30.6626   49.9770 H   0  0  0  0  0  0  0  0  0  0  0  0
   38.4225   27.6089   51.8242 H   0  0  0  0  0  0  0  0  0  0  0  0
   36.7373   27.6940   53.7690 H   0  0  0  0  0  0  0  0  0  0  0  0
   37.0145   29.5395   55.5222 H   0  0  0  0  0  0  0  0  0  0  0  0
   40.0206   31.6309   55.4069 H   0  0  0  0  0  0  0  0  0  0  0  0
   38.5271   32.4892   54.5342 H   0  0  0  0  0  0  0  0  0  0  0  0
   37.4250   31.8960   56.0390 H   0  0  0  0  0  0  0  0  0  0  0  0
   39.2210   31.6570   56.7880 H   0  0  0  0  0  0  0  0  0  0  0  0
   39.1218   33.7815   57.2074 H   0  0  0  0  0  0  0  0  0  0  0  0
   37.3376   33.6340   57.1117 H   0  0  0  0  0  0  0  0  0  0  0  0
   38.9067   32.9980   59.3653 H   0  0  0  0  0  0  0  0  0  0  0  0
   37.2303   32.4304   59.0824 H   0  0  0  0  0  0  0  0  0  0  0  0
   38.9160   30.8596   57.5035 H   0  0  0  0  0  0  0  0  0  0  0  0
   39.6081   31.0476   59.2595 H   0  0  0  0  0  0  0  0  0  0  0  0
   36.6943   30.3689   61.0391 H   0  0  0  0  0  0  0  0  0  0  0  0
   36.2089   31.4553   59.6934 H   0  0  0  0  0  0  0  0  0  0  0  0
   35.6863   29.7367   59.6934 H   0  0  0  0  0  0  0  0  0  0  0  0
   40.3222   29.9494   57.6548 H   0  0  0  0  0  0  0  0  0  0  0  0
   40.9445   28.4367   55.9463 H   0  0  0  0  0  0  0  0  0  0  0  0
   41.1940   27.5903   57.6524 H   0  0  0  0  0  0  0  0  0  0  0  0
   36.8979   27.3978   57.9358 H   0  0  0  0  0  0  0  0  0  0  0  0
   37.6534   28.7723   59.7613 H   0  0  0  0  0  0  0  0  0  0  0  0
   38.6897   30.4943   62.1645 H   0  0  0  0  0  0  0  0  0  0  0  0
   40.4817   29.5775   60.6017 H   0  0  0  0  0  0  0  0  0  0  0  0
   40.8770   31.6360   62.3200 H   0  0  0  0  0  0  0  0  0  0  0  0
   40.3173   28.7255   63.0505 H   0  0  0  0  0  0  0  0  0  0  0  0
   41.7683   28.6789   62.0436 H   0  0  0  0  0  0  0  0  0  0  0  0
   39.9779   31.1790   52.8364 H   0  0  0  0  0  0  0  0  0  0  0  0
  1  2  1  0
  2  3  2  0
  2  4  1  0
  4  5  1  0
  5  6  2  0
  6  7  1  0
  7  8  2  0
  8  9  1  0
  9 10  1  0
 10 11  1  0
 11 12  1  0
 12 13  1  0
 14 13  1  6
 14 15  1  0
 14 16  1  0
 16 17  2  0
 17 18  1  0
 18 19  1  0
 19 20  2  0
 19 21  1  0
 21 22  1  0
 22 23  2  0
 22 24  1  0
 21 25  2  0
 14 26  1  0
 26 27  1  0
 27 28  1  0
 28 29  1  0
 29 30  1  0
 29 31  1  0
 31 32  1  0
 32 33  2  0
 32 34  1  0
  8 35  1  0
 35  4  2  0
 25 16  1  0
 28 26  1  0
  1 36  1  0
  1 37  1  0
  1 38  1  0
  5 39  1  0
  6 40  1  0
  7 41  1  0
  9 42  1  0
  9 43  1  0
 10 44  1  0
 10 45  1  0
 11 46  1  0
 11 47  1  0
 12 48  1  0
 12 49  1  0
 13 50  1  0
 13 51  1  0
 15 52  1  0
 15 53  1  0
 15 54  1  0
 17 55  1  0
 18 56  1  0
 18 57  1  0
 25 58  1  0
 26 59  1  1
 28 60  1  1
 29 61  1  6
 30 62  1  0
 31 63  1  0
 31 64  1  0
 35 65  1  0
M  CHG  3  10   1  24  -1  34  -1
M  END
>  <docking_score>  (18) 
-9.204

>  <plif_similarity>  (18) 
0.556

$$$$
DiffSBDD_34
     RDKit          3D

 77 79  0  0  0  0  0  0  0  0999 V2000
   39.7880   25.7370   55.1370 C   0  0  0  0  0  0  0  0  0  0  0  0
   39.4940   26.3330   56.5250 C   0  0  0  0  0  0  0  0  0  0  0  0
   39.2140   25.1290   57.4910 C   0  0  0  0  0  0  0  0  0  0  0  0
   40.7200   27.2190   56.9120 C   0  0  0  0  0  0  0  0  0  0  0  0
   40.3210   28.2680   57.9290 C   0  0  2  0  0  0  0  0  0  0  0  0
   40.3750   27.9160   59.2530 C   0  0  0  0  0  0  0  0  0  0  0  0
   39.2970   28.2360   60.3260 C   0  0  0  0  0  0  0  0  0  0  0  0
   39.0100   29.6670   60.5150 C   0  0  0  0  0  0  0  0  0  0  0  0
   37.9840   30.1770   59.4320 C   0  0  1  0  0  0  0  0  0  0  0  0
   37.1090   31.3710   59.8110 C   0  0  1  0  0  0  0  0  0  0  0  0
   35.8020   31.3420   59.6930 O   0  0  0  0  0  0  0  0  0  0  0  0
   37.6550   32.5940   60.6120 C   0  0  0  0  0  0  0  0  0  0  0  0
   36.8230   33.8980   60.9680 C   0  0  0  0  0  0  0  0  0  0  0  0
   36.4780   34.8420   59.7800 C   0  0  0  0  0  0  0  0  0  0  0  0
   37.3330   36.0110   59.5090 C   0  0  0  0  0  0  0  0  0  0  0  0
   36.8560   37.2300   60.0050 N   0  0  0  0  0  0  0  0  0  0  0  0
   37.3920   37.6390   61.2060 C   0  0  0  0  0  0  0  0  0  0  0  0
   36.3170   37.9520   62.2470 C   0  0  0  0  0  0  0  0  0  0  0  0
   36.2470   37.1150   63.1820 O   0  0  0  0  0  0  0  0  0  0  0  0
   35.6600   39.0580   62.0130 O   0  0  0  0  0  0  0  0  0  0  0  0
   38.8930   30.4140   58.1550 C   0  0  2  0  0  0  0  0  0  0  0  0
   37.8990   31.0080   57.1120 N   0  0  0  0  0  0  0  0  0  0  0  0
   38.2930   30.8790   55.8050 C   0  0  0  0  0  0  0  0  0  0  0  0
   37.9350   31.7580   55.2600 O   0  0  0  0  0  0  0  0  0  0  0  0
   39.4710   29.6110   55.7970 C   0  0  2  0  0  0  0  0  0  0  0  0
   39.3980   29.8000   54.9740 C   0  0  0  0  0  0  0  0  0  0  0  0
   39.4070   29.9910   53.6420 C   0  0  0  0  0  0  0  0  0  0  0  0
   39.9130   30.6100   52.6630 C   0  0  0  0  0  0  0  0  0  0  0  0
   39.6410   29.9350   51.4540 N   0  0  0  0  0  0  0  0  0  0  0  0
   40.0250   30.4410   50.1950 C   0  0  0  0  0  0  0  0  0  0  0  0
   38.8650   28.8540   51.6230 N   0  0  0  0  0  0  0  0  0  0  0  0
   38.7370   28.8460   52.9300 C   0  0  0  0  0  0  0  0  0  0  0  0
   37.8630   27.9850   53.5750 N   0  0  0  0  0  0  0  0  0  0  0  0
   39.3240   29.2310   57.3730 C   0  0  1  0  0  0  0  0  0  0  0  0
   40.2719   24.7561   55.2542 H   0  0  0  0  0  0  0  0  0  0  0  0
   38.8457   25.6171   54.5824 H   0  0  0  0  0  0  0  0  0  0  0  0
   40.4566   26.4118   54.5824 H   0  0  0  0  0  0  0  0  0  0  0  0
   38.6088   26.9846   56.5675 H   0  0  0  0  0  0  0  0  0  0  0  0
   39.2932   25.4696   58.5339 H   0  0  0  0  0  0  0  0  0  0  0  0
   38.2014   24.7400   57.3082 H   0  0  0  0  0  0  0  0  0  0  0  0
   39.9510   24.3332   57.3082 H   0  0  0  0  0  0  0  0  0  0  0  0
   41.5062   26.5804   57.3410 H   0  0  0  0  0  0  0  0  0  0  0  0
   41.0909   27.7248   56.0083 H   0  0  0  0  0  0  0  0  0  0  0  0
   41.1542   28.9637   58.1074 H   0  0  0  0  0  0  0  0  0  0  0  0
   40.4699   26.8201   59.2568 H   0  0  0  0  0  0  0  0  0  0  0  0
   41.1821   28.5820   59.5923 H   0  0  0  0  0  0  0  0  0  0  0  0
   38.3625   27.7372   60.0295 H   0  0  0  0  0  0  0  0  0  0  0  0
   39.7012   27.8755   61.2834 H   0  0  0  0  0  0  0  0  0  0  0  0
   38.5834   29.8205   61.5172 H   0  0  0  0  0  0  0  0  0  0  0  0
   39.9473   30.2329   60.4086 H   0  0  0  0  0  0  0  0  0  0  0  0
   37.1878   29.4347   59.2738 H   0  0  0  0  0  0  0  0  0  0  0  0
   37.5305   31.4851   58.8014 H   0  0  0  0  0  0  0  0  0  0  0  0
   35.5350   30.5430   59.1740 H   0  0  0  0  0  0  0  0  0  0  0  0
   37.9874   32.1862   61.5780 H   0  0  0  0  0  0  0  0  0  0  0  0
   38.3650   33.0072   59.8804 H   0  0  0  0  0  0  0  0  0  0  0  0
   35.8761   33.5765   61.4264 H   0  0  0  0  0  0  0  0  0  0  0  0
   37.4722   34.4877   61.6319 H   0  0  0  0  0  0  0  0  0  0  0  0
   36.4823   34.2248   58.8695 H   0  0  0  0  0  0  0  0  0  0  0  0
   35.5172   35.2883   60.0759 H   0  0  0  0  0  0  0  0  0  0  0  0
   38.3184   35.8230   59.9602 H   0  0  0  0  0  0  0  0  0  0  0  0
   37.3621   36.1189   58.4147 H   0  0  0  0  0  0  0  0  0  0  0  0
   37.0590   37.9570   59.3050 H   0  0  0  0  0  0  0  0  0  0  0  0
   35.8520   37.0870   60.1810 H   0  0  0  0  0  0  0  0  0  0  0  0
   38.0384   36.8386   61.5953 H   0  0  0  0  0  0  0  0  0  0  0  0
   37.9606   38.5626   61.0226 H   0  0  0  0  0  0  0  0  0  0  0  0
   39.7738   30.9561   58.5295 H   0  0  0  0  0  0  0  0  0  0  0  0
   37.0150   31.4620   57.3840 H   0  0  0  0  0  0  0  0  0  0  0  0
   40.3122   28.9022   55.7953 H   0  0  0  0  0  0  0  0  0  0  0  0
   38.3267   29.5506   54.9710 H   0  0  0  0  0  0  0  0  0  0  0  0
   40.4362   30.1627   54.9994 H   0  0  0  0  0  0  0  0  0  0  0  0
   40.4861   31.5455   52.7425 H   0  0  0  0  0  0  0  0  0  0  0  0
   40.6846   31.3101   50.3348 H   0  0  0  0  0  0  0  0  0  0  0  0
   40.5604   29.6608   49.6341 H   0  0  0  0  0  0  0  0  0  0  0  0
   39.1295   30.7467   49.6341 H   0  0  0  0  0  0  0  0  0  0  0  0
   37.5930   28.1630   54.5530 H   0  0  0  0  0  0  0  0  0  0  0  0
   37.4840   27.1670   53.0770 H   0  0  0  0  0  0  0  0  0  0  0  0
   38.4821   28.5338   57.4961 H   0  0  0  0  0  0  0  0  0  0  0  0
  1  2  1  0
  2  3  1  0
  2  4  1  0
  4  5  1  0
  5  6  1  0
  6  7  1  0
  7  8  1  0
  8  9  1  0
  9 10  1  0
 10 11  1  0
 10 12  1  0
 12 13  1  0
 13 14  1  0
 14 15  1  0
 15 16  1  0
 16 17  1  0
 17 18  1  0
 18 19  2  0
 18 20  1  0
  9 21  1  0
 21 22  1  0
 22 23  1  0
 23 24  2  0
 23 25  1  0
 25 26  1  0
 26 27  1  0
 27 28  2  0
 28 29  1  0
 29 30  1  0
 29 31  1  0
 31 32  2  0
 32 33  1  0
 25 34  1  0
 34  5  1  0
 34 21  1  0
 32 27  1  0
  1 35  1  0
  1 36  1  0
  1 37  1  0
  2 38  1  0
  3 39  1  0
  3 40  1  0
  3 41  1  0
  4 42  1  0
  4 43  1  0
  5 44  1  1
  6 45  1  0
  6 46  1  0
  7 47  1  0
  7 48  1  0
  8 49  1  0
  8 50  1  0
  9 51  1  6
 10 52  1  6
 11 53  1  0
 12 54  1  0
 12 55  1  0
 13 56  1  0
 13 57  1  0
 14 58  1  0
 14 59  1  0
 15 60  1  0
 15 61  1  0
 16 62  1  0
 16 63  1  0
 17 64  1  0
 17 65  1  0
 21 66  1  1
 22 67  1  0
 25 68  1  1
 26 69  1  0
 26 70  1  0
 28 71  1  0
 30 72  1  0
 30 73  1  0
 30 74  1  0
 33 75  1  0
 33 76  1  0
 34 77  1  6
M  CHG  2  16   1  20  -1
M  END
>  <docking_score>  (19) 
-9.5

>  <plif_similarity>  (19) 
0.444

$$$$
DiffSBDD_36
     RDKit          3D

 49 49  0  0  0  0  0  0  0  0999 V2000
   40.6090   30.2920   50.6070 C   0  0  0  0  0  0  0  0  0  0  0  0
   39.9240   30.1650   51.8840 C   0  0  0  0  0  0  0  0  0  0  0  0
   39.2370   28.7570   52.2350 C   0  0  2  0  0  0  0  0  0  0  0  0
   39.2360   27.9150   50.9860 C   0  0  0  0  0  0  0  0  0  0  0  0
   38.5350   28.4160   53.0480 C   0  0  0  0  0  0  0  0  0  0  0  0
   39.2430   27.4930   54.2170 C   0  0  0  0  0  0  0  0  0  0  0  0
   39.5750   28.0770   55.5730 C   0  0  0  0  0  0  0  0  0  0  0  0
   40.3730   27.7570   56.9410 C   0  0  1  0  0  0  0  0  0  0  0  0
   41.5590   27.7260   58.0140 C   0  0  0  0  0  0  0  0  0  0  0  0
   40.8990   28.4380   59.2690 C   0  0  0  0  0  0  0  0  0  0  0  0
   39.5290   27.7630   59.3340 C   0  0  0  0  0  0  0  0  0  0  0  0
   39.0510   27.5600   57.7690 C   0  0  2  0  0  0  0  0  0  0  0  0
   38.6750   26.1450   57.4700 C   0  0  0  0  0  0  0  0  0  0  0  0
   37.7980   28.5770   57.6760 C   0  0  0  0  0  0  0  0  0  0  0  0
   37.4340   29.2660   58.8790 C   0  0  0  0  0  0  0  0  0  0  0  0
   36.6510   30.2100   59.3050 C   0  0  0  0  0  0  0  0  0  0  0  0
   37.2390   31.2070   60.2600 C   0  0  0  0  0  0  0  0  0  0  0  0
   36.2800   32.1020   60.9180 C   0  0  0  0  0  0  0  0  0  0  0  0
   35.2270   31.6010   61.3830 O   0  0  0  0  0  0  0  0  0  0  0  0
   36.6230   33.8150   60.8870 S   0  0  0  0  0  0  0  0  0  0  0  0
   41.6768   30.4900   50.7818 H   0  0  0  0  0  0  0  0  0  0  0  0
   40.4978   29.3579   50.0368 H   0  0  0  0  0  0  0  0  0  0  0  0
   40.1704   31.1241   50.0368 H   0  0  0  0  0  0  0  0  0  0  0  0
   40.6614   30.3746   52.6728 H   0  0  0  0  0  0  0  0  0  0  0  0
   39.0833   30.8711   51.8158 H   0  0  0  0  0  0  0  0  0  0  0  0
   39.8021   28.7125   53.1777 H   0  0  0  0  0  0  0  0  0  0  0  0
   39.2347   26.8501   51.2617 H   0  0  0  0  0  0  0  0  0  0  0  0
   38.3381   28.1411   50.3921 H   0  0  0  0  0  0  0  0  0  0  0  0
   40.1344   28.1389   50.3921 H   0  0  0  0  0  0  0  0  0  0  0  0
   38.1048   29.3077   53.5274 H   0  0  0  0  0  0  0  0  0  0  0  0
   37.7779   27.7821   52.5633 H   0  0  0  0  0  0  0  0  0  0  0  0
   39.4771   26.4387   54.0082 H   0  0  0  0  0  0  0  0  0  0  0  0
   39.1084   29.0696   55.6570 H   0  0  0  0  0  0  0  0  0  0  0  0
   41.3171   27.6721   56.3829 H   0  0  0  0  0  0  0  0  0  0  0  0
   41.8542   26.6933   58.2516 H   0  0  0  0  0  0  0  0  0  0  0  0
   42.4810   28.2142   57.6653 H   0  0  0  0  0  0  0  0  0  0  0  0
   41.4796   28.2526   60.1847 H   0  0  0  0  0  0  0  0  0  0  0  0
   40.8498   29.5335   59.1821 H   0  0  0  0  0  0  0  0  0  0  0  0
   39.6057   26.7893   59.8401 H   0  0  0  0  0  0  0  0  0  0  0  0
   38.8069   28.3682   59.9017 H   0  0  0  0  0  0  0  0  0  0  0  0
   38.5294   25.5972   58.4128 H   0  0  0  0  0  0  0  0  0  0  0  0
   37.7414   26.1287   56.8886 H   0  0  0  0  0  0  0  0  0  0  0  0
   39.4774   25.6674   56.8886 H   0  0  0  0  0  0  0  0  0  0  0  0
   37.2509   28.7328   56.7345 H   0  0  0  0  0  0  0  0  0  0  0  0
   38.0104   28.8592   59.7230 H   0  0  0  0  0  0  0  0  0  0  0  0
   36.2924   30.7651   58.4256 H   0  0  0  0  0  0  0  0  0  0  0  0
   35.8684   29.6929   59.8796 H   0  0  0  0  0  0  0  0  0  0  0  0
   37.7733   30.6497   61.0435 H   0  0  0  0  0  0  0  0  0  0  0  0
   37.8868   31.8566   59.6531 H   0  0  0  0  0  0  0  0  0  0  0  0
  1  2  1  0
  2  3  1  0
  3  4  1  0
  3  5  1  0
  5  6  1  0
  6  7  2  3
  7  8  1  0
  8  9  1  0
  9 10  1  0
 10 11  1  0
 11 12  1  0
 12 13  1  1
 12 14  1  0
 14 15  2  3
 15 16  1  0
 16 17  1  0
 17 18  1  0
 18 19  2  0
 18 20  1  0
 12  8  1  0
  1 21  1  0
  1 22  1  0
  1 23  1  0
  2 24  1  0
  2 25  1  0
  3 26  1  1
  4 27  1  0
  4 28  1  0
  4 29  1  0
  5 30  1  0
  5 31  1  0
  6 32  1  0
  7 33  1  0
  8 34  1  6
  9 35  1  0
  9 36  1  0
 10 37  1  0
 10 38  1  0
 11 39  1  0
 11 40  1  0
 13 41  1  0
 13 42  1  0
 13 43  1  0
 14 44  1  0
 15 45  1  0
 16 46  1  0
 16 47  1  0
 17 48  1  0
 17 49  1  0
M  CHG  1  20  -1
M  END
>  <docking_score>  (20) 
-7.983

>  <plif_similarity>  (20) 
0.333

$$$$
DiffSBDD_37
     RDKit          3D

 45 45  0  0  0  0  0  0  0  0999 V2000
   38.7650   32.3220   55.8640 C   0  0  0  0  0  0  0  0  0  0  0  0
   38.7520   31.6510   54.6050 O   0  0  0  0  0  0  0  0  0  0  0  0
   39.4840   30.5010   54.4560 C   0  0  1  0  0  0  0  0  0  0  0  0
   39.1220   29.4780   55.3910 C   0  0  0  0  0  0  0  0  0  0  0  0
   40.0710   28.9010   56.3630 N   0  0  0  0  0  0  0  0  0  0  0  0
   39.5410   28.4840   57.6300 C   0  0  0  0  0  0  0  0  0  0  0  0
   40.4200   27.2650   58.2020 C   0  0  0  0  0  0  0  0  0  0  0  0
   39.5650   26.0370   58.1990 C   0  0  0  0  0  0  0  0  0  0  0  0
   39.7380   25.1920   57.1440 N   0  0  0  0  0  0  0  0  0  0  0  0
   39.5870   25.5170   55.8170 C   0  0  0  0  0  0  0  0  0  0  0  0
   40.1550   25.8830   54.8840 O   0  0  0  0  0  0  0  0  0  0  0  0
   39.4090   29.7420   53.0750 C   0  0  1  0  0  0  0  0  0  0  0  0
   39.9040   30.3240   52.0080 C   0  0  0  0  0  0  0  0  0  0  0  0
   39.9940   29.6510   50.9430 C   0  0  0  0  0  0  0  0  0  0  0  0
   40.7720   30.3810   49.9350 C   0  0  0  0  0  0  0  0  0  0  0  0
   39.7660   28.3420   50.8550 C   0  0  0  0  0  0  0  0  0  0  0  0
   39.0270   27.8260   51.8370 C   0  0  0  0  0  0  0  0  0  0  0  0
   38.7650   28.5290   53.0870 C   0  0  0  0  0  0  0  0  0  0  0  0
   38.7506   31.5794   56.6754 H   0  0  0  0  0  0  0  0  0  0  0  0
   39.6752   32.9346   55.9436 H   0  0  0  0  0  0  0  0  0  0  0  0
   37.8792   32.9694   55.9436 H   0  0  0  0  0  0  0  0  0  0  0  0
   40.4875   30.9301   54.5931 H   0  0  0  0  0  0  0  0  0  0  0  0
   38.2939   29.8911   55.9856 H   0  0  0  0  0  0  0  0  0  0  0  0
   38.9471   28.6225   54.7221 H   0  0  0  0  0  0  0  0  0  0  0  0
   40.5040   28.0770   55.9210 H   0  0  0  0  0  0  0  0  0  0  0  0
   40.7210   29.6680   56.5870 H   0  0  0  0  0  0  0  0  0  0  0  0
   39.5765   29.3256   58.3375 H   0  0  0  0  0  0  0  0  0  0  0  0
   38.4986   28.1569   57.5023 H   0  0  0  0  0  0  0  0  0  0  0  0
   41.3011   27.1079   57.5625 H   0  0  0  0  0  0  0  0  0  0  0  0
   40.7645   27.4882   59.2225 H   0  0  0  0  0  0  0  0  0  0  0  0
   39.7802   25.4747   59.1196 H   0  0  0  0  0  0  0  0  0  0  0  0
   38.5284   26.3972   58.1240 H   0  0  0  0  0  0  0  0  0  0  0  0
   40.0080   24.2220   57.3610 H   0  0  0  0  0  0  0  0  0  0  0  0
   38.5308   25.3746   55.5446 H   0  0  0  0  0  0  0  0  0  0  0  0
   38.4315   30.2046   52.8738 H   0  0  0  0  0  0  0  0  0  0  0  0
   40.2328   31.3732   52.0404 H   0  0  0  0  0  0  0  0  0  0  0  0
   41.4858   31.0507   50.4370 H   0  0  0  0  0  0  0  0  0  0  0  0
   41.3212   29.6647   49.3063 H   0  0  0  0  0  0  0  0  0  0  0  0
   40.0921   30.9747   49.3063 H   0  0  0  0  0  0  0  0  0  0  0  0
   39.2486   28.1502   49.9034 H   0  0  0  0  0  0  0  0  0  0  0  0
   40.7502   27.8559   50.9268 H   0  0  0  0  0  0  0  0  0  0  0  0
   38.0417   27.6148   51.3959 H   0  0  0  0  0  0  0  0  0  0  0  0
   39.6643   26.9976   52.1799 H   0  0  0  0  0  0  0  0  0  0  0  0
   37.6824   28.6899   53.1970 H   0  0  0  0  0  0  0  0  0  0  0  0
   39.1343   27.9267   53.9302 H   0  0  0  0  0  0  0  0  0  0  0  0
  1  2  1  0
  2  3  1  0
  3  4  1  0
  4  5  1  0
  5  6  1  0
  6  7  1  0
  7  8  1  0
  8  9  1  0
  9 10  1  0
 10 11  2  0
  3 12  1  0
 12 13  1  0
 13 14  2  0
 14 15  1  0
 14 16  1  0
 16 17  1  0
 17 18  1  0
 18 12  1  0
  1 19  1  0
  1 20  1  0
  1 21  1  0
  3 22  1  1
  4 23  1  0
  4 24  1  0
  5 25  1  0
  5 26  1  0
  6 27  1  0
  6 28  1  0
  7 29  1  0
  7 30  1  0
  8 31  1  0
  8 32  1  0
  9 33  1  0
 10 34  1  0
 12 35  1  1
 13 36  1  0
 15 37  1  0
 15 38  1  0
 15 39  1  0
 16 40  1  0
 16 41  1  0
 17 42  1  0
 17 43  1  0
 18 44  1  0
 18 45  1  0
M  CHG  1   5   1
M  END
>  <docking_score>  (21) 
-7.456

>  <plif_similarity>  (21) 
0.333

$$$$
DiffSBDD_38
     RDKit          3D

 45 47  0  0  0  0  0  0  0  0999 V2000
   40.2730   30.2740   50.2070 C   0  0  0  0  0  0  0  0  0  0  0  0
   39.9520   29.9280   51.5480 C   0  0  0  0  0  0  0  0  0  0  0  0
   39.8120   28.3920   51.5530 C   0  0  0  0  0  0  0  0  0  0  0  0
   39.0380   27.7710   52.8020 C   0  0  0  0  0  0  0  0  0  0  0  0
   37.6990   27.6940   52.8580 C   0  0  0  0  0  0  0  0  0  0  0  0
   37.0430   26.9570   53.9090 C   0  0  0  0  0  0  0  0  0  0  0  0
   37.8040   26.4870   54.9670 C   0  0  0  0  0  0  0  0  0  0  0  0
   39.0930   26.7780   55.0350 C   0  0  0  0  0  0  0  0  0  0  0  0
   39.8470   26.4290   56.1270 C   0  0  0  0  0  0  0  0  0  0  0  0
   39.7940   25.3940   56.7290 O   0  0  0  0  0  0  0  0  0  0  0  0
   40.9280   26.9450   56.9890 N   0  0  0  0  0  0  0  0  0  0  0  0
   40.5100   26.7050   58.3710 C   0  0  0  0  0  0  0  0  0  0  0  0
   39.6800   27.7690   59.2240 C   0  0  0  0  0  0  0  0  0  0  0  0
   39.0760   28.5380   60.5580 C   0  0  0  0  0  0  0  0  0  0  0  0
   38.3670   30.0420   59.9500 S   0  0  0  0  0  0  0  0  0  0  0  0
   38.7680   29.9630   58.3140 C   0  0  2  0  0  0  0  0  0  0  0  0
   38.6120   30.7790   57.3220 C   0  0  0  0  0  0  0  0  0  0  0  0
   38.6600   32.1250   57.4440 C   0  0  0  0  0  0  0  0  0  0  0  0
   38.4190   33.0310   56.3740 C   0  0  0  0  0  0  0  0  0  0  0  0
   38.2970   32.4680   55.0550 C   0  0  0  0  0  0  0  0  0  0  0  0
   38.3490   31.0830   54.8960 C   0  0  0  0  0  0  0  0  0  0  0  0
   38.3900   30.1630   55.9230 C   0  0  0  0  0  0  0  0  0  0  0  0
   39.4690   28.8940   57.9610 O   0  0  0  0  0  0  0  0  0  0  0  0
   39.7430   27.4810   53.8970 C   0  0  0  0  0  0  0  0  0  0  0  0
   41.0211   31.0804   50.2054 H   0  0  0  0  0  0  0  0  0  0  0  0
   40.6815   29.3938   49.6890 H   0  0  0  0  0  0  0  0  0  0  0  0
   39.3647   30.6155   49.6890 H   0  0  0  0  0  0  0  0  0  0  0  0
   40.7557   30.2433   52.2296 H   0  0  0  0  0  0  0  0  0  0  0  0
   39.0310   30.4236   51.8888 H   0  0  0  0  0  0  0  0  0  0  0  0
   39.2713   28.0991   50.6409 H   0  0  0  0  0  0  0  0  0  0  0  0
   40.8375   27.9981   51.6102 H   0  0  0  0  0  0  0  0  0  0  0  0
   37.0940   28.2002   52.0914 H   0  0  0  0  0  0  0  0  0  0  0  0
   35.9594   26.7714   53.8717 H   0  0  0  0  0  0  0  0  0  0  0  0
   37.3368   25.8721   55.7503 H   0  0  0  0  0  0  0  0  0  0  0  0
   41.8060   27.3870   56.6790 H   0  0  0  0  0  0  0  0  0  0  0  0
   39.8986   25.7909   58.3486 H   0  0  0  0  0  0  0  0  0  0  0  0
   41.4761   26.7057   58.8971 H   0  0  0  0  0  0  0  0  0  0  0  0
   39.1080   28.1893   61.6008 H   0  0  0  0  0  0  0  0  0  0  0  0
   39.7468   30.4152   58.5321 H   0  0  0  0  0  0  0  0  0  0  0  0
   38.9003   32.5453   58.4317 H   0  0  0  0  0  0  0  0  0  0  0  0
   38.3299   34.1136   56.5470 H   0  0  0  0  0  0  0  0  0  0  0  0
   38.1641   33.1230   54.1813 H   0  0  0  0  0  0  0  0  0  0  0  0
   38.3580   30.6927   53.8676 H   0  0  0  0  0  0  0  0  0  0  0  0
   38.2743   29.0814   55.7594 H   0  0  0  0  0  0  0  0  0  0  0  0
   40.8048   27.7618   53.9580 H   0  0  0  0  0  0  0  0  0  0  0  0
  1  2  1  0
  2  3  1  0
  3  4  1  0
  4  5  2  0
  5  6  1  0
  6  7  2  0
  7  8  1  0
  8  9  1  0
  9 10  2  0
  9 11  1  0
 11 12  1  0
 12 13  1  0
 13 14  2  0
 14 15  1  0
 15 16  1  0
 16 17  1  0
 17 18  2  0
 18 19  1  0
 19 20  2  0
 20 21  1  0
 21 22  2  0
 16 23  1  0
  8 24  2  0
 24  4  1  0
 23 13  1  0
 22 17  1  0
  1 25  1  0
  1 26  1  0
  1 27  1  0
  2 28  1  0
  2 29  1  0
  3 30  1  0
  3 31  1  0
  5 32  1  0
  6 33  1  0
  7 34  1  0
 11 35  1  0
 12 36  1  0
 12 37  1  0
 14 38  1  0
 16 39  1  6
 18 40  1  0
 19 41  1  0
 20 42  1  0
 21 43  1  0
 22 44  1  0
 24 45  1  0
M  END
>  <docking_score>  (22) 
-9.065

>  <plif_similarity>  (22) 
0.444

$$$$
DiffSBDD_39
     RDKit          3D

 44 46  0  0  0  0  0  0  0  0999 V2000
   40.7440   30.1900   50.6850 C   0  0  0  0  0  0  0  0  0  0  0  0
   39.7780   29.8730   51.8100 C   0  0  1  0  0  0  0  0  0  0  0  0
   39.5550   30.7250   52.7760 C   0  0  0  0  0  0  0  0  0  0  0  0
   38.9210   30.3730   53.9970 C   0  0  2  0  0  0  0  0  0  0  0  0
   39.5330   31.0970   55.1380 O   0  0  0  0  0  0  0  0  0  0  0  0
   38.9130   31.3060   56.4950 C   0  0  0  0  0  0  0  0  0  0  0  0
   38.4860   32.6760   56.9130 C   0  0  0  0  0  0  0  0  0  0  0  0
   38.7200   32.3000   58.5400 O   0  0  0  0  0  0  0  0  0  0  0  0
   37.7730   32.7560   59.2880 C   0  0  1  0  0  0  0  0  0  0  0  0
   37.1830   31.6050   59.9370 C   0  0  0  0  0  0  0  0  0  0  0  0
   38.5140   33.6020   60.1740 N   0  0  0  0  0  0  0  0  0  0  0  0
   39.2090   34.5300   60.6660 C   0  0  1  0  0  0  0  0  0  0  0  0
   40.1610   35.2410   60.7430 O   0  0  0  0  0  0  0  0  0  0  0  0
   37.9470   34.8770   59.7130 C   0  0  1  0  0  0  0  0  0  0  0  0
   36.8240   35.2800   60.6690 C   0  0  0  0  0  0  0  0  0  0  0  0
   36.4320   35.0010   59.3160 O   0  0  0  0  0  0  0  0  0  0  0  0
   38.4770   28.9770   54.2410 C   0  0  0  0  0  0  0  0  0  0  0  0
   38.7800   28.0030   53.1540 C   0  0  1  0  0  0  0  0  0  0  0  0
   37.6590   27.1900   52.9280 O   0  0  0  0  0  0  0  0  0  0  0  0
   39.0530   28.6710   51.8660 C   0  0  0  0  0  0  0  0  0  0  0  0
   38.8940   28.1040   50.8050 O   0  0  0  0  0  0  0  0  0  0  0  0
   41.7087   30.5066   51.1083 H   0  0  0  0  0  0  0  0  0  0  0  0
   40.8921   29.2933   50.0653 H   0  0  0  0  0  0  0  0  0  0  0  0
   40.3320   31.0001   50.0653 H   0  0  0  0  0  0  0  0  0  0  0  0
   40.6001   29.4295   52.3909 H   0  0  0  0  0  0  0  0  0  0  0  0
   40.5393   31.1302   53.0535 H   0  0  0  0  0  0  0  0  0  0  0  0
   38.7960   31.3765   52.3185 H   0  0  0  0  0  0  0  0  0  0  0  0
   37.8953   30.7468   53.8621 H   0  0  0  0  0  0  0  0  0  0  0  0
   38.0191   30.6664   56.5388 H   0  0  0  0  0  0  0  0  0  0  0  0
   39.7333   31.0713   57.1893 H   0  0  0  0  0  0  0  0  0  0  0  0
   39.1435   33.4770   56.5442 H   0  0  0  0  0  0  0  0  0  0  0  0
   37.5134   33.0674   56.5800 H   0  0  0  0  0  0  0  0  0  0  0  0
   36.9464   33.3025   58.8105 H   0  0  0  0  0  0  0  0  0  0  0  0
   37.2457   31.7273   61.0284 H   0  0  0  0  0  0  0  0  0  0  0  0
   36.1282   31.5161   59.6380 H   0  0  0  0  0  0  0  0  0  0  0  0
   37.7267   30.6967   59.6380 H   0  0  0  0  0  0  0  0  0  0  0  0
   39.7605   34.4526   61.6146 H   0  0  0  0  0  0  0  0  0  0  0  0
   40.9510   34.7060   61.0050 H   0  0  0  0  0  0  0  0  0  0  0  0
   36.5244   34.5885   61.4703 H   0  0  0  0  0  0  0  0  0  0  0  0
   36.6738   36.1425   61.3350 H   0  0  0  0  0  0  0  0  0  0  0  0
   38.9675   28.6220   55.1593 H   0  0  0  0  0  0  0  0  0  0  0  0
   37.3799   29.0188   54.3089 H   0  0  0  0  0  0  0  0  0  0  0  0
   39.6626   27.4345   53.4826 H   0  0  0  0  0  0  0  0  0  0  0  0
   37.2230   26.9800   53.7920 H   0  0  0  0  0  0  0  0  0  0  0  0
  1  2  1  0
  2  3  1  0
  3  4  1  0
  4  5  1  0
  5  6  1  0
  6  7  1  0
  7  8  1  0
  8  9  1  0
  9 10  1  0
  9 11  1  0
 11 12  1  0
 12 13  1  0
 12 14  1  0
 14 15  1  0
 15 16  1  0
  4 17  1  0
 17 18  1  0
 18 19  1  0
 18 20  1  0
 20 21  2  0
 20  2  1  0
 14 11  1  0
 14 16  1  6
  1 22  1  0
  1 23  1  0
  1 24  1  0
  2 25  1  1
  3 26  1  0
  3 27  1  0
  4 28  1  6
  6 29  1  0
  6 30  1  0
  7 31  1  0
  7 32  1  0
  9 33  1  6
 10 34  1  0
 10 35  1  0
 10 36  1  0
 12 37  1  1
 13 38  1  0
 15 39  1  0
 15 40  1  0
 17 41  1  0
 17 42  1  0
 18 43  1  1
 19 44  1  0
M  END
>  <docking_score>  (23) 
-8.015

>  <plif_similarity>  (23) 
0.333

$$$$
DiffSBDD_40
     RDKit          3D

 79 81  0  0  0  0  0  0  0  0999 V2000
   36.4980   37.2650   63.0080 C   0  0  0  0  0  0  0  0  0  0  0  0
   36.9100   37.0530   61.5390 C   0  0  0  0  0  0  0  0  0  0  0  0
   38.4620   37.4870   61.5210 C   0  0  0  0  0  0  0  0  0  0  0  0
   36.8760   35.6420   61.1990 C   0  0  0  0  0  0  0  0  0  0  0  0
   37.2190   35.4970   59.7720 C   0  0  0  0  0  0  0  0  0  0  0  0
   37.6730   33.8580   59.3340 S   0  0  1  0  0  4  0  0  0  0  0  0
   37.2720   33.8020   57.8590 O   0  0  0  0  0  0  0  0  0  0  0  0
   39.2650   34.1360   60.2940 C   0  0  0  0  0  0  0  0  0  0  0  0
   40.1110   34.0810   61.4240 C   0  0  0  0  0  0  0  0  0  0  0  0
   41.0890   33.8520   62.3270 C   0  0  0  0  0  0  0  0  0  0  0  0
   41.2950   33.8340   63.7820 C   0  0  0  0  0  0  0  0  0  0  0  0
   41.3920   35.0560   64.5940 C   0  0  0  0  0  0  0  0  0  0  0  0
   41.3720   34.8640   66.0020 C   0  0  0  0  0  0  0  0  0  0  0  0
   41.3900   33.5660   66.5930 C   0  0  0  0  0  0  0  0  0  0  0  0
   41.6680   32.4220   65.7570 C   0  0  0  0  0  0  0  0  0  0  0  0
   41.6930   32.5280   64.3710 C   0  0  0  0  0  0  0  0  0  0  0  0
   41.9720   31.4000   63.4160 C   0  0  0  0  0  0  0  0  0  0  0  0
   42.4480   30.1770   64.1780 C   0  0  0  0  0  0  0  0  0  0  0  0
   42.8200   29.3730   63.4100 O   0  0  0  0  0  0  0  0  0  0  0  0
   37.3000   32.2600   59.9070 C   0  0  0  0  0  0  0  0  0  0  0  0
   35.9470   32.0660   60.3880 O   0  0  0  0  0  0  0  0  0  0  0  0
   38.1280   31.0990   59.4930 C   0  0  0  0  0  0  0  0  0  0  0  0
   37.5510   30.5570   58.1740 N   0  0  0  0  0  0  0  0  0  0  0  0
   38.5980   30.0950   57.2510 C   0  0  0  0  0  0  0  0  0  0  0  0
   38.7080   28.6260   56.6410 C   0  0  1  0  0  0  0  0  0  0  0  0
   38.1060   28.5250   55.2830 C   0  0  0  0  0  0  0  0  0  0  0  0
   39.0040   27.8520   54.4670 N   0  0  0  0  0  0  0  0  0  0  0  0
   39.1820   28.4180   53.1920 C   0  0  0  0  0  0  0  0  0  0  0  0
   39.4870   29.7780   53.0910 C   0  0  0  0  0  0  0  0  0  0  0  0
   39.8600   30.3060   51.8530 C   0  0  0  0  0  0  0  0  0  0  0  0
   39.8610   29.4630   50.6920 C   0  0  0  0  0  0  0  0  0  0  0  0
   40.1440   29.9700   49.4910 O   0  0  0  0  0  0  0  0  0  0  0  0
   39.6050   28.0830   50.7910 C   0  0  0  0  0  0  0  0  0  0  0  0
   39.2110   27.5320   52.0870 C   0  0  0  0  0  0  0  0  0  0  0  0
   39.5950   26.8180   54.9150 N   0  0  0  0  0  0  0  0  0  0  0  0
   39.1850   26.4340   56.1520 C   0  0  1  0  0  0  0  0  0  0  0  0
   39.8090   25.2960   56.3310 O   0  0  0  0  0  0  0  0  0  0  0  0
   39.5000   27.4020   57.1440 N   0  0  0  0  0  0  0  0  0  0  0  0
   37.2794   36.8629   63.6696 H   0  0  0  0  0  0  0  0  0  0  0  0
   36.3711   38.3404   63.2017 H   0  0  0  0  0  0  0  0  0  0  0  0
   35.5493   36.7431   63.2017 H   0  0  0  0  0  0  0  0  0  0  0  0
   36.2547   37.6039   60.8483 H   0  0  0  0  0  0  0  0  0  0  0  0
   38.8263   37.5889   62.5539 H   0  0  0  0  0  0  0  0  0  0  0  0
   39.0514   36.7192   60.9984 H   0  0  0  0  0  0  0  0  0  0  0  0
   38.5676   38.4491   60.9984 H   0  0  0  0  0  0  0  0  0  0  0  0
   37.6056   35.0944   61.8137 H   0  0  0  0  0  0  0  0  0  0  0  0
   35.8732   35.2321   61.3895 H   0  0  0  0  0  0  0  0  0  0  0  0
   36.3459   35.7907   59.1708 H   0  0  0  0  0  0  0  0  0  0  0  0
   38.0894   36.1409   59.5774 H   0  0  0  0  0  0  0  0  0  0  0  0
   37.9630   33.3100   57.3480 H   0  0  0  0  0  0  0  0  0  0  0  0
   41.4076   32.8363   62.0497 H   0  0  0  0  0  0  0  0  0  0  0  0
   41.4821   34.8752   62.2343 H   0  0  0  0  0  0  0  0  0  0  0  0
   41.4747   36.0548   64.1407 H   0  0  0  0  0  0  0  0  0  0  0  0
   41.3416   35.7463   66.6582 H   0  0  0  0  0  0  0  0  0  0  0  0
   41.1953   33.4386   67.6681 H   0  0  0  0  0  0  0  0  0  0  0  0
   41.8640   31.4467   66.2264 H   0  0  0  0  0  0  0  0  0  0  0  0
   41.0514   31.1514   62.8677 H   0  0  0  0  0  0  0  0  0  0  0  0
   42.7557   31.7117   62.7099 H   0  0  0  0  0  0  0  0  0  0  0  0
   43.2739   30.4576   64.8482 H   0  0  0  0  0  0  0  0  0  0  0  0
   41.6223   29.7663   64.7776 H   0  0  0  0  0  0  0  0  0  0  0  0
   42.1850   28.6120   63.3960 H   0  0  0  0  0  0  0  0  0  0  0  0
   39.1702   31.4171   59.3429 H   0  0  0  0  0  0  0  0  0  0  0  0
   38.1120   30.3193   60.2687 H   0  0  0  0  0  0  0  0  0  0  0  0
   36.9250   29.7660   58.3870 H   0  0  0  0  0  0  0  0  0  0  0  0
   37.0440   31.3260   57.7130 H   0  0  0  0  0  0  0  0  0  0  0  0
   38.5384   30.7675   56.3825 H   0  0  0  0  0  0  0  0  0  0  0  0
   39.4651   30.0897   57.9278 H   0  0  0  0  0  0  0  0  0  0  0  0
   38.5029   28.3209   57.6778 H   0  0  0  0  0  0  0  0  0  0  0  0
   37.1586   27.9685   55.3347 H   0  0  0  0  0  0  0  0  0  0  0  0
   37.8994   29.5275   54.8801 H   0  0  0  0  0  0  0  0  0  0  0  0
   39.4338   30.4264   53.9780 H   0  0  0  0  0  0  0  0  0  0  0  0
   40.1517   31.3633   51.7684 H   0  0  0  0  0  0  0  0  0  0  0  0
   39.5630   29.7630   48.7160 H   0  0  0  0  0  0  0  0  0  0  0  0
   39.6995   27.4309   49.9102 H   0  0  0  0  0  0  0  0  0  0  0  0
   38.9472   26.4700   52.1996 H   0  0  0  0  0  0  0  0  0  0  0  0
   40.6050   27.0160   54.9580 H   0  0  0  0  0  0  0  0  0  0  0  0
   38.0931   26.3302   56.2350 H   0  0  0  0  0  0  0  0  0  0  0  0
   40.7560   25.3940   56.0610 H   0  0  0  0  0  0  0  0  0  0  0  0
   39.1810   27.1050   58.0770 H   0  0  0  0  0  0  0  0  0  0  0  0
  1  2  1  0
  2  3  1  0
  2  4  1  0
  4  5  1  0
  5  6  1  0
  6  7  1  0
  6  8  1  6
  8  9  3  0
  9 10  1  0
 10 11  1  0
 11 12  2  0
 12 13  1  0
 13 14  2  0
 14 15  1  0
 15 16  2  0
 16 17  1  0
 17 18  1  0
 18 19  1  0
  6 20  1  0
 20 21  2  0
 20 22  1  0
 22 23  1  0
 23 24  1  0
 24 25  1  0
 25 26  1  0
 26 27  1  0
 27 28  1  0
 28 29  1  0
 29 30  2  0
 30 31  1  0
 31 32  1  0
 31 33  2  0
 33 34  1  0
 27 35  1  0
 35 36  1  0
 36 37  1  0
 36 38  1  0
 16 11  1  0
 38 25  1  0
 34 28  2  0
  1 39  1  0
  1 40  1  0
  1 41  1  0
  2 42  1  0
  3 43  1  0
  3 44  1  0
  3 45  1  0
  4 46  1  0
  4 47  1  0
  5 48  1  0
  5 49  1  0
  7 50  1  0
 10 51  1  0
 10 52  1  0
 12 53  1  0
 13 54  1  0
 14 55  1  0
 15 56  1  0
 17 57  1  0
 17 58  1  0
 18 59  1  0
 18 60  1  0
 19 61  1  0
 22 62  1  0
 22 63  1  0
 23 64  1  0
 23 65  1  0
 24 66  1  0
 24 67  1  0
 25 68  1  1
 26 69  1  0
 26 70  1  0
 29 71  1  0
 30 72  1  0
 32 73  1  0
 33 74  1  0
 34 75  1  0
 35 76  1  0
 36 77  1  6
 37 78  1  0
 38 79  1  0
M  CHG  1  23   1
M  END
>  <docking_score>  (24) 
-10.213

>  <plif_similarity>  (24) 
0.889

$$$$
DiffSBDD_41
     RDKit          3D

 52 53  0  0  0  0  0  0  0  0999 V2000
   40.1550   30.5320   49.8590 C   0  0  0  0  0  0  0  0  0  0  0  0
   40.7210   29.9980   51.1100 C   0  0  0  0  0  0  0  0  0  0  0  0
   39.8170   30.4790   52.2540 C   0  0  0  0  0  0  0  0  0  0  0  0
   39.0760   29.7120   53.1320 C   0  0  2  0  0  0  0  0  0  0  0  0
   38.3990   29.9170   54.3590 C   0  0  0  0  0  0  0  0  0  0  0  0
   38.7910   30.8820   55.2820 C   0  0  0  0  0  0  0  0  0  0  0  0
   38.4240   31.0330   56.6690 C   0  0  0  0  0  0  0  0  0  0  0  0
   38.2430   29.9500   57.5170 C   0  0  0  0  0  0  0  0  0  0  0  0
   38.2240   30.0720   58.8510 C   0  0  0  0  0  0  0  0  0  0  0  0
   38.3960   31.2990   59.4600 C   0  0  0  0  0  0  0  0  0  0  0  0
   38.5990   31.2500   60.9900 C   0  0  0  0  0  0  0  0  0  0  0  0
   38.3380   32.4410   58.7000 C   0  0  0  0  0  0  0  0  0  0  0  0
   38.0430   33.8120   59.3410 C   0  0  0  0  0  0  0  0  0  0  0  0
   36.8300   34.1550   58.8690 N   0  0  0  0  0  0  0  0  0  0  0  0
   38.4290   32.3610   57.3140 C   0  0  0  0  0  0  0  0  0  0  0  0
   38.7910   28.0450   52.6010 S   0  0  0  0  0  0  0  0  0  0  0  0
   37.8810   27.6500   54.0290 C   0  0  0  0  0  0  0  0  0  0  0  0
   38.2170   26.4430   54.8680 C   0  0  0  0  0  0  0  0  0  0  0  0
   37.2200   25.4410   55.0460 C   0  0  0  0  0  0  0  0  0  0  0  0
   37.2080   24.5830   56.1130 C   0  0  0  0  0  0  0  0  0  0  0  0
   38.1870   24.6750   57.0450 C   0  0  0  0  0  0  0  0  0  0  0  0
   37.9960   23.9780   58.1330 F   0  0  0  0  0  0  0  0  0  0  0  0
   39.3110   25.4950   56.6740 C   0  0  0  0  0  0  0  0  0  0  0  0
   40.3130   25.5130   57.6410 O   0  0  0  0  0  0  0  0  0  0  0  0
   39.3320   26.2700   55.6350 C   0  0  0  0  0  0  0  0  0  0  0  0
   39.3736   31.2692   50.0954 H   0  0  0  0  0  0  0  0  0  0  0  0
   40.9508   31.0160   49.2738 H   0  0  0  0  0  0  0  0  0  0  0  0
   39.7181   29.7095   49.2738 H   0  0  0  0  0  0  0  0  0  0  0  0
   40.7370   28.8986   51.0781 H   0  0  0  0  0  0  0  0  0  0  0  0
   41.7543   30.3470   51.2534 H   0  0  0  0  0  0  0  0  0  0  0  0
   40.4774   31.0790   52.8973 H   0  0  0  0  0  0  0  0  0  0  0  0
   38.9914   30.8876   51.6528 H   0  0  0  0  0  0  0  0  0  0  0  0
   38.1585   29.9696   52.5827 H   0  0  0  0  0  0  0  0  0  0  0  0
   37.5275   29.2876   54.5920 H   0  0  0  0  0  0  0  0  0  0  0  0
   39.4845   31.6437   54.8962 H   0  0  0  0  0  0  0  0  0  0  0  0
   38.1097   28.9510   57.0763 H   0  0  0  0  0  0  0  0  0  0  0  0
   38.0685   29.1779   59.4726 H   0  0  0  0  0  0  0  0  0  0  0  0
   37.6483   31.4795   61.4935 H   0  0  0  0  0  0  0  0  0  0  0  0
   38.9359   30.2447   61.2832 H   0  0  0  0  0  0  0  0  0  0  0  0
   39.3574   31.9909   61.2832 H   0  0  0  0  0  0  0  0  0  0  0  0
   38.0241   33.7315   60.4379 H   0  0  0  0  0  0  0  0  0  0  0  0
   38.8117   34.5600   59.0970 H   0  0  0  0  0  0  0  0  0  0  0  0
   36.7900   35.1750   58.7340 H   0  0  0  0  0  0  0  0  0  0  0  0
   36.6660   33.6830   57.9680 H   0  0  0  0  0  0  0  0  0  0  0  0
   36.1060   33.8690   59.5430 H   0  0  0  0  0  0  0  0  0  0  0  0
   38.5037   33.2752   56.7068 H   0  0  0  0  0  0  0  0  0  0  0  0
   37.9554   28.5219   54.6956 H   0  0  0  0  0  0  0  0  0  0  0  0
   36.8965   27.3847   53.6163 H   0  0  0  0  0  0  0  0  0  0  0  0
   36.4238   25.3526   54.2921 H   0  0  0  0  0  0  0  0  0  0  0  0
   36.4136   23.8286   56.2122 H   0  0  0  0  0  0  0  0  0  0  0  0
   40.7680   26.3630   57.8650 H   0  0  0  0  0  0  0  0  0  0  0  0
   40.2611   26.7951   55.3682 H   0  0  0  0  0  0  0  0  0  0  0  0
  1  2  1  0
  2  3  1  0
  3  4  1  0
  4  5  1  0
  5  6  2  3
  6  7  1  0
  7  8  1  0
  8  9  2  0
  9 10  1  0
 10 11  1  0
 10 12  2  0
 12 13  1  0
 13 14  1  0
 12 15  1  0
  4 16  1  0
 16 17  1  0
 17 18  1  0
 18 19  1  0
 19 20  2  0
 20 21  1  0
 21 22  1  0
 21 23  2  0
 23 24  1  0
 23 25  1  0
 15  7  2  0
 25 18  2  0
  1 26  1  0
  1 27  1  0
  1 28  1  0
  2 29  1  0
  2 30  1  0
  3 31  1  0
  3 32  1  0
  4 33  1  1
  5 34  1  0
  6 35  1  0
  8 36  1  0
  9 37  1  0
 11 38  1  0
 11 39  1  0
 11 40  1  0
 13 41  1  0
 13 42  1  0
 14 43  1  0
 14 44  1  0
 14 45  1  0
 15 46  1  0
 17 47  1  0
 17 48  1  0
 19 49  1  0
 20 50  1  0
 24 51  1  0
 25 52  1  0
M  CHG  1  14   1
M  END
>  <docking_score>  (25) 
-9.18

>  <plif_similarity>  (25) 
0.667

$$$$
DiffSBDD_42
     RDKit          3D

 89 94  0  0  0  0  0  0  0  0999 V2000
   42.3670   33.4770   65.3550 C   0  0  0  0  0  0  0  0  0  0  0  0
   42.2290   33.0840   64.0000 O   0  0  0  0  0  0  0  0  0  0  0  0
   41.5670   32.0010   63.5960 C   0  0  1  0  0  0  0  0  0  0  0  0
   41.0720   32.3050   62.1850 C   0  0  0  0  0  0  0  0  0  0  0  0
   39.7150   31.8140   61.9700 C   0  0  0  0  0  0  0  0  0  0  0  0
   39.2020   30.9610   62.6180 O   0  0  0  0  0  0  0  0  0  0  0  0
   39.4480   32.2680   60.5060 N   0  0  0  0  0  0  0  0  0  0  0  0
   38.7590   33.4950   60.6240 C   0  0  2  0  0  0  0  0  0  0  0  0
   37.4350   33.3190   61.3030 C   0  0  0  0  0  0  0  0  0  0  0  0
   38.5890   33.9930   59.1790 C   0  0  0  0  0  0  0  0  0  0  0  0
   37.9720   32.9930   58.3530 C   0  0  0  0  0  0  0  0  0  0  0  0
   38.6330   31.4740   58.3600 C   0  0  1  0  0  0  0  0  0  0  0  0
   38.7770   31.1390   59.8080 C   0  0  1  0  0  0  0  0  0  0  0  0
   38.9510   29.6710   59.9810 C   0  0  0  0  0  0  0  0  0  0  0  0
   40.3300   28.9990   59.8780 C   0  0  0  0  0  0  0  0  0  0  0  0
   40.3160   28.2180   58.5330 C   0  0  0  0  0  0  0  0  0  0  0  0
   39.6460   29.2450   57.5600 C   0  0  0  0  0  0  0  0  0  0  0  0
   38.4880   30.1540   57.6570 N   0  0  0  0  0  0  0  0  0  0  0  0
   37.6550   30.4330   56.4410 C   0  0  2  0  0  0  0  0  0  0  0  0
   36.4430   29.7390   56.6740 O   0  0  0  0  0  0  0  0  0  0  0  0
   38.3240   29.9700   55.1840 C   0  0  0  0  0  0  0  0  0  0  0  0
   39.2070   30.8750   54.4430 C   0  0  0  0  0  0  0  0  0  0  0  0
   39.6480   30.4650   53.2100 C   0  0  0  0  0  0  0  0  0  0  0  0
   39.3230   29.3100   52.6100 C   0  0  0  0  0  0  0  0  0  0  0  0
   39.9240   29.2040   51.3130 C   0  0  2  0  0  0  0  0  0  0  0  0
   40.5830   30.2150   50.5180 C   0  0  0  0  0  0  0  0  0  0  0  0
   39.3110   28.2440   50.6550 C   0  0  0  0  0  0  0  0  0  0  0  0
   40.1940   27.9770   51.1050 O   0  0  0  0  0  0  0  0  0  0  0  0
   38.5660   28.3810   53.3200 C   0  0  0  0  0  0  0  0  0  0  0  0
   38.0590   28.6960   54.5810 C   0  0  0  0  0  0  0  0  0  0  0  0
   42.4720   30.9060   63.4060 O   0  0  0  0  0  0  0  0  0  0  0  0
   42.5070   29.8450   64.2580 C   0  0  0  0  0  0  0  0  0  0  0  0
   42.0960   28.9320   64.1520 N   0  0  0  0  0  0  0  0  0  0  0  0
   42.1490   27.5360   64.8210 C   0  0  2  0  0  0  0  0  0  0  0  0
   41.5750   26.2850   64.5510 C   0  0  0  0  0  0  0  0  0  0  0  0
   40.7670   25.6200   65.4590 C   0  0  0  0  0  0  0  0  0  0  0  0
   41.2090   25.7720   66.7870 C   0  0  2  0  0  0  0  0  0  0  0  0
   40.3950   25.1980   67.8700 O   0  0  0  0  0  0  0  0  0  0  0  0
   42.3340   26.6550   67.1360 C   0  0  0  0  0  0  0  0  0  0  0  0
   42.6470   27.7200   66.1490 C   0  0  0  0  0  0  0  0  0  0  0  0
   43.2340   28.8850   66.3970 C   0  0  0  0  0  0  0  0  0  0  0  0
   43.2210   29.8320   65.4420 C   0  0  0  0  0  0  0  0  0  0  0  0
   42.0743   32.6433   66.0102 H   0  0  0  0  0  0  0  0  0  0  0  0
   43.4143   33.7487   65.5531 H   0  0  0  0  0  0  0  0  0  0  0  0
   41.7195   34.3439   65.5531 H   0  0  0  0  0  0  0  0  0  0  0  0
   40.7842   31.7593   64.3301 H   0  0  0  0  0  0  0  0  0  0  0  0
   41.0856   33.3939   62.0297 H   0  0  0  0  0  0  0  0  0  0  0  0
   41.7371   31.7959   61.4719 H   0  0  0  0  0  0  0  0  0  0  0  0
   39.3104   34.2165   61.2448 H   0  0  0  0  0  0  0  0  0  0  0  0
   37.5769   33.3379   62.3936 H   0  0  0  0  0  0  0  0  0  0  0  0
   36.7597   34.1353   61.0069 H   0  0  0  0  0  0  0  0  0  0  0  0
   36.9964   32.3547   61.0069 H   0  0  0  0  0  0  0  0  0  0  0  0
   37.9585   34.8944   59.1822 H   0  0  0  0  0  0  0  0  0  0  0  0
   39.5848   34.2169   58.7689 H   0  0  0  0  0  0  0  0  0  0  0  0
   36.9257   32.8976   58.6787 H   0  0  0  0  0  0  0  0  0  0  0  0
   38.1161   33.3544   57.3241 H   0  0  0  0  0  0  0  0  0  0  0  0
   39.2937   31.7818   57.5361 H   0  0  0  0  0  0  0  0  0  0  0  0
   37.9242   31.1442   60.5027 H   0  0  0  0  0  0  0  0  0  0  0  0
   38.5647   29.4305   60.9824 H   0  0  0  0  0  0  0  0  0  0  0  0
   38.4307   29.2699   59.0987 H   0  0  0  0  0  0  0  0  0  0  0  0
   41.1271   29.7571   59.8734 H   0  0  0  0  0  0  0  0  0  0  0  0
   40.5232   28.3339   60.7326 H   0  0  0  0  0  0  0  0  0  0  0  0
   41.3362   27.9671   58.2070 H   0  0  0  0  0  0  0  0  0  0  0  0
   39.7891   27.2540   58.5881 H   0  0  0  0  0  0  0  0  0  0  0  0
   40.4737   29.9261   57.3128 H   0  0  0  0  0  0  0  0  0  0  0  0
   39.1282   28.4867   56.9544 H   0  0  0  0  0  0  0  0  0  0  0  0
   37.4951   31.5112   56.2926 H   0  0  0  0  0  0  0  0  0  0  0  0
   36.5940   28.7670   56.5670 H   0  0  0  0  0  0  0  0  0  0  0  0
   39.5055   31.8480   54.8603 H   0  0  0  0  0  0  0  0  0  0  0  0
   40.3255   31.1408   52.6675 H   0  0  0  0  0  0  0  0  0  0  0  0
   41.0617   30.9495   51.1824 H   0  0  0  0  0  0  0  0  0  0  0  0
   41.3468   29.7421   49.8833 H   0  0  0  0  0  0  0  0  0  0  0  0
   39.8420   30.7230   49.8833 H   0  0  0  0  0  0  0  0  0  0  0  0
   38.3651   27.8427   51.0479 H   0  0  0  0  0  0  0  0  0  0  0  0
   38.9395   28.1605   49.6230 H   0  0  0  0  0  0  0  0  0  0  0  0
   38.3664   27.3914   52.8831 H   0  0  0  0  0  0  0  0  0  0  0  0
   37.4477   27.9572   55.1200 H   0  0  0  0  0  0  0  0  0  0  0  0
   42.4506   27.0988   63.8577 H   0  0  0  0  0  0  0  0  0  0  0  0
   40.9676   26.4183   63.6436 H   0  0  0  0  0  0  0  0  0  0  0  0
   42.4614   25.6343   64.5229 H   0  0  0  0  0  0  0  0  0  0  0  0
   39.7449   26.0188   65.3797 H   0  0  0  0  0  0  0  0  0  0  0  0
   40.8031   24.5479   65.2156 H   0  0  0  0  0  0  0  0  0  0  0  0
   41.9753   25.0148   66.5649 H   0  0  0  0  0  0  0  0  0  0  0  0
   40.1840   25.9020   68.5320 H   0  0  0  0  0  0  0  0  0  0  0  0
   42.0976   27.1410   68.0941 H   0  0  0  0  0  0  0  0  0  0  0  0
   43.2231   26.0082   67.1714 H   0  0  0  0  0  0  0  0  0  0  0  0
   43.7216   29.0720   67.3651 H   0  0  0  0  0  0  0  0  0  0  0  0
   42.9077   30.7479   65.9644 H   0  0  0  0  0  0  0  0  0  0  0  0
   44.2240   29.6572   65.0255 H   0  0  0  0  0  0  0  0  0  0  0  0
  1  2  1  0
  2  3  1  0
  3  4  1  0
  4  5  1  0
  5  6  2  0
  5  7  1  0
  7  8  1  0
  8  9  1  0
  8 10  1  0
 10 11  1  0
 11 12  1  0
 12 13  1  0
 13 14  1  0
 14 15  1  0
 15 16  1  0
 16 17  1  0
 17 18  1  0
 18 19  1  0
 19 20  1  0
 19 21  1  0
 21 22  1  0
 22 23  2  0
 23 24  1  0
 24 25  1  0
 25 26  1  6
 25 27  1  0
 27 28  1  0
 24 29  2  0
 29 30  1  0
  3 31  1  0
 31 32  1  0
 32 33  2  0
 33 34  1  0
 34 35  1  0
 35 36  1  0
 36 37  1  0
 37 38  1  0
 37 39  1  0
 39 40  1  0
 40 41  2  0
 41 42  1  0
 13  7  1  0
 30 21  2  0
 42 32  1  0
 18 12  1  0
 28 25  1  0
 40 34  1  0
  1 43  1  0
  1 44  1  0
  1 45  1  0
  3 46  1  1
  4 47  1  0
  4 48  1  0
  8 49  1  1
  9 50  1  0
  9 51  1  0
  9 52  1  0
 10 53  1  0
 10 54  1  0
 11 55  1  0
 11 56  1  0
 12 57  1  6
 13 58  1  1
 14 59  1  0
 14 60  1  0
 15 61  1  0
 15 62  1  0
 16 63  1  0
 16 64  1  0
 17 65  1  0
 17 66  1  0
 19 67  1  6
 20 68  1  0
 22 69  1  0
 23 70  1  0
 26 71  1  0
 26 72  1  0
 26 73  1  0
 27 74  1  0
 27 75  1  0
 29 76  1  0
 30 77  1  0
 34 78  1  6
 35 79  1  0
 35 80  1  0
 36 81  1  0
 36 82  1  0
 37 83  1  6
 38 84  1  0
 39 85  1  0
 39 86  1  0
 41 87  1  0
 42 88  1  0
 42 89  1  0
M  END
>  <docking_score>  (26) 
-10.94

>  <plif_similarity>  (26) 
0.222

$$$$
DiffSBDD_43
     RDKit          3D

 83 85  0  0  0  0  0  0  0  0999 V2000
   36.7960   24.0840   55.5000 C   0  0  0  0  0  0  0  0  0  0  0  0
   37.6860   24.2530   56.7070 C   0  0  0  0  0  0  0  0  0  0  0  0
   38.2510   24.8350   56.0370 C   0  0  0  0  0  0  0  0  0  0  0  0
   38.7630   25.5760   55.3370 O   0  0  0  0  0  0  0  0  0  0  0  0
   39.4730   26.6760   56.2730 C   0  0  1  0  0  0  0  0  0  0  0  0
   40.3570   26.4730   55.9730 O   0  0  0  0  0  0  0  0  0  0  0  0
   38.5320   27.5480   56.3200 C   0  0  0  0  0  0  0  0  0  0  0  0
   38.8170   29.0730   55.9420 C   0  0  1  0  0  0  0  0  0  0  0  0
   39.4530   29.3720   54.8870 O   0  0  0  0  0  0  0  0  0  0  0  0
   39.2410   29.2170   53.5500 C   0  0  0  0  0  0  0  0  0  0  0  0
   38.5200   28.0500   52.6380 C   0  0  0  0  0  0  0  0  0  0  0  0
   38.9710   27.5910   51.7130 C   0  0  0  0  0  0  0  0  0  0  0  0
   39.5790   28.3480   50.8580 C   0  0  0  0  0  0  0  0  0  0  0  0
   39.8930   29.7220   51.2120 C   0  0  0  0  0  0  0  0  0  0  0  0
   40.2400   30.6140   50.0910 N   0  0  0  0  0  0  0  0  0  0  0  0
   39.3190   31.4540   49.6610 N   0  0  0  0  0  0  0  0  0  0  0  0
   41.3260   30.4920   49.5550 O   0  0  0  0  0  0  0  0  0  0  0  0
   39.8450   30.1190   52.5860 C   0  0  0  0  0  0  0  0  0  0  0  0
   38.2640   30.0840   57.0570 C   0  0  1  0  0  0  0  0  0  0  0  0
   37.9870   31.0330   58.4330 O   0  0  0  0  0  0  0  0  0  0  0  0
   37.4930   30.8710   59.3710 O   0  0  0  0  0  0  0  0  0  0  0  0
   38.2990   31.6690   60.3940 C   0  0  2  0  0  0  0  0  0  0  0  0
   38.8630   30.7630   61.3520 C   0  0  0  0  0  0  0  0  0  0  0  0
   37.4740   32.8250   60.8030 C   0  0  0  0  0  0  0  0  0  0  0  0
   38.1090   33.8710   59.9200 C   0  0  1  0  0  0  0  0  0  0  0  0
   37.1560   33.9650   58.6050 N   0  0  0  0  0  0  0  0  0  0  0  0
   37.7930   35.1430   60.4820 C   0  0  2  0  0  0  0  0  0  0  0  0
   36.8860   36.2440   59.7430 C   0  0  0  0  0  0  0  0  0  0  0  0
   37.4390   37.6610   60.2750 N   0  0  0  0  0  0  0  0  0  0  0  0
   37.3390   38.0840   61.5170 C   0  0  1  0  0  0  0  0  0  0  0  0
   36.9520   37.1460   62.6440 C   0  0  0  0  0  0  0  0  0  0  0  0
   38.3630   36.7080   62.4450 C   0  0  1  0  0  0  0  0  0  0  0  0
   38.9640   36.1300   61.2660 C   0  0  0  0  0  0  0  0  0  0  0  0
   38.1210   31.3460   56.2220 C   0  0  2  0  0  0  0  0  0  0  0  0
   37.1310   31.1240   55.3930 O   0  0  0  0  0  0  0  0  0  0  0  0
   39.0680   32.3700   56.0450 C   0  0  0  0  0  0  0  0  0  0  0  0
   38.1620   33.7750   55.8400 O   0  0  0  0  0  0  0  0  0  0  0  0
   35.7649   23.8882   55.8293 H   0  0  0  0  0  0  0  0  0  0  0  0
   36.8197   25.0027   54.8955 H   0  0  0  0  0  0  0  0  0  0  0  0
   37.1548   23.2379   54.8955 H   0  0  0  0  0  0  0  0  0  0  0  0
   37.2428   24.7960   57.5548 H   0  0  0  0  0  0  0  0  0  0  0  0
   38.0918   23.4203   57.3002 H   0  0  0  0  0  0  0  0  0  0  0  0
   39.1766   24.6701   56.6081 H   0  0  0  0  0  0  0  0  0  0  0  0
   37.3598   24.8983   55.3953 H   0  0  0  0  0  0  0  0  0  0  0  0
   39.7704   26.9351   57.2998 H   0  0  0  0  0  0  0  0  0  0  0  0
   40.7970   27.3010   55.6540 H   0  0  0  0  0  0  0  0  0  0  0  0
   37.7434   27.1970   55.6381 H   0  0  0  0  0  0  0  0  0  0  0  0
   38.2981   27.6001   57.3936 H   0  0  0  0  0  0  0  0  0  0  0  0
   39.7632   29.0349   56.5016 H   0  0  0  0  0  0  0  0  0  0  0  0
   37.5285   27.6937   52.9542 H   0  0  0  0  0  0  0  0  0  0  0  0
   38.8949   26.5076   51.5383 H   0  0  0  0  0  0  0  0  0  0  0  0
   39.8566   27.9540   49.8692 H   0  0  0  0  0  0  0  0  0  0  0  0
   38.3940   31.1510   49.9980 H   0  0  0  0  0  0  0  0  0  0  0  0
   39.5220   32.3980   50.0170 H   0  0  0  0  0  0  0  0  0  0  0  0
   42.0220   30.9160   50.1170 H   0  0  0  0  0  0  0  0  0  0  0  0
   40.2572   31.0876   52.9052 H   0  0  0  0  0  0  0  0  0  0  0  0
   38.1547   29.1328   57.5985 H   0  0  0  0  0  0  0  0  0  0  0  0
   39.2137   32.1603   60.0308 H   0  0  0  0  0  0  0  0  0  0  0  0
   38.6411   31.1195   62.3687 H   0  0  0  0  0  0  0  0  0  0  0  0
   38.4278   29.7626   61.2111 H   0  0  0  0  0  0  0  0  0  0  0  0
   39.9527   30.7119   61.2111 H   0  0  0  0  0  0  0  0  0  0  0  0
   36.4088   32.6774   60.5716 H   0  0  0  0  0  0  0  0  0  0  0  0
   37.4633   33.0491   61.8799 H   0  0  0  0  0  0  0  0  0  0  0  0
   39.1759   33.6481   59.7716 H   0  0  0  0  0  0  0  0  0  0  0  0
   36.6170   33.0940   58.5090 H   0  0  0  0  0  0  0  0  0  0  0  0
   36.5090   34.7610   58.7060 H   0  0  0  0  0  0  0  0  0  0  0  0
   37.7390   34.1020   57.7660 H   0  0  0  0  0  0  0  0  0  0  0  0
   37.2111   34.5105   61.1686 H   0  0  0  0  0  0  0  0  0  0  0  0
   36.9993   36.1694   58.6514 H   0  0  0  0  0  0  0  0  0  0  0  0
   35.8154   36.1103   59.9572 H   0  0  0  0  0  0  0  0  0  0  0  0
   36.9680   38.3750   59.7010 H   0  0  0  0  0  0  0  0  0  0  0  0
   38.4550   37.5050   60.2100 H   0  0  0  0  0  0  0  0  0  0  0  0
   37.1157   39.1463   61.3394 H   0  0  0  0  0  0  0  0  0  0  0  0
   36.7245   37.6195   63.6105 H   0  0  0  0  0  0  0  0  0  0  0  0
   36.0758   36.4809   62.6423 H   0  0  0  0  0  0  0  0  0  0  0  0
   39.0549   36.3152   63.2047 H   0  0  0  0  0  0  0  0  0  0  0  0
   39.2896   36.9305   60.5854 H   0  0  0  0  0  0  0  0  0  0  0  0
   39.8383   35.5248   61.5476 H   0  0  0  0  0  0  0  0  0  0  0  0
   38.0824   32.2166   56.8933 H   0  0  0  0  0  0  0  0  0  0  0  0
   37.2140   31.7240   54.6100 H   0  0  0  0  0  0  0  0  0  0  0  0
   39.7159   32.4540   56.9300 H   0  0  0  0  0  0  0  0  0  0  0  0
   39.7285   32.1767   55.1869 H   0  0  0  0  0  0  0  0  0  0  0  0
   38.6340   34.5370   56.2610 H   0  0  0  0  0  0  0  0  0  0  0  0
  1  2  1  0
  2  3  1  0
  3  4  1  0
  4  5  1  0
  5  6  1  0
  5  7  1  0
  7  8  1  0
  8  9  1  0
  9 10  1  0
 10 11  1  0
 11 12  2  0
 12 13  1  0
 13 14  2  0
 14 15  1  0
 15 16  1  0
 15 17  1  0
 14 18  1  0
  8 19  1  0
 19 20  1  0
 20 21  1  0
 21 22  1  0
 22 23  1  0
 22 24  1  0
 24 25  1  0
 25 26  1  0
 25 27  1  0
 27 28  1  0
 28 29  1  0
 29 30  1  0
 30 31  1  0
 31 32  1  0
 32 33  1  0
 19 34  1  0
 34 35  1  0
 34 36  1  0
 36 37  1  0
 18 10  2  0
 33 27  1  0
 32 30  1  0
  1 38  1  0
  1 39  1  0
  1 40  1  0
  2 41  1  0
  2 42  1  0
  3 43  1  0
  3 44  1  0
  5 45  1  1
  6 46  1  0
  7 47  1  0
  7 48  1  0
  8 49  1  1
 11 50  1  0
 12 51  1  0
 13 52  1  0
 16 53  1  0
 16 54  1  0
 17 55  1  0
 18 56  1  0
 19 57  1  6
 22 58  1  6
 23 59  1  0
 23 60  1  0
 23 61  1  0
 24 62  1  0
 24 63  1  0
 25 64  1  6
 26 65  1  0
 26 66  1  0
 26 67  1  0
 27 68  1  1
 28 69  1  0
 28 70  1  0
 29 71  1  0
 29 72  1  0
 30 73  1  6
 31 74  1  0
 31 75  1  0
 32 76  1  1
 33 77  1  0
 33 78  1  0
 34 79  1  1
 35 80  1  0
 36 81  1  0
 36 82  1  0
 37 83  1  0
M  CHG  2  26   1  29   1
M  END
>  <docking_score>  (27) 
-9.446

>  <plif_similarity>  (27) 
0.667

$$$$
DiffSBDD_44
     RDKit          3D

 72 74  0  0  0  0  0  0  0  0999 V2000
   39.0020   31.1690   62.6610 C   0  0  0  0  0  0  0  0  0  0  0  0
   39.0840   31.3550   61.3150 C   0  0  0  0  0  0  0  0  0  0  0  0
   39.8290   29.9190   60.7780 C   0  0  1  0  0  0  0  0  0  0  0  0
   40.5210   29.0880   61.7960 C   0  0  0  0  0  0  0  0  0  0  0  0
   39.4740   29.5430   59.4010 C   0  0  0  0  0  0  0  0  0  0  0  0
   38.5110   30.5560   58.9910 C   0  0  2  0  0  0  0  0  0  0  0  0
   37.5330   29.5990   58.2620 C   0  0  0  0  0  0  0  0  0  0  0  0
   37.4710   29.0300   56.5360 C   0  0  0  0  0  0  0  0  0  0  0  0
   38.4130   28.2040   56.2620 C   0  0  2  0  0  0  0  0  0  0  0  0
   39.5580   28.5790   55.2020 C   0  0  0  0  0  0  0  0  0  0  0  0
   38.5180   27.7030   53.8690 C   0  0  1  0  0  0  0  0  0  0  0  0
   39.3820   27.2390   52.5960 C   0  0  0  0  0  0  0  0  0  0  0  0
   40.0980   27.0160   51.9540 O   0  0  0  0  0  0  0  0  0  0  0  0
   38.6600   28.5360   51.8410 C   0  0  0  0  0  0  0  0  0  0  0  0
   37.7190   28.2890   52.1440 O   0  0  0  0  0  0  0  0  0  0  0  0
   39.4810   29.1960   51.0740 C   0  0  1  0  0  0  0  0  0  0  0  0
   39.8960   30.3670   51.8590 C   0  0  0  0  0  0  0  0  0  0  0  0
   40.0560   29.3240   49.7960 O   0  0  0  0  0  0  0  0  0  0  0  0
   38.4090   26.4270   54.8800 C   0  0  0  0  0  0  0  0  0  0  0  0
   37.8440   26.7560   56.0110 N   0  0  0  0  0  0  0  0  0  0  0  0
   38.6710   31.7280   58.1410 C   0  0  0  0  0  0  0  0  0  0  0  0
   38.2640   33.0330   58.3940 C   0  0  0  0  0  0  0  0  0  0  0  0
   38.4480   33.4020   59.7030 C   0  0  2  0  0  0  0  0  0  0  0  0
   37.9680   34.7610   59.8810 C   0  0  1  0  0  0  0  0  0  0  0  0
   36.3610   34.5870   59.9360 C   0  0  0  0  0  0  0  0  0  0  0  0
   36.1010   33.8590   61.1260 O   0  0  0  0  0  0  0  0  0  0  0  0
   38.7070   35.7060   60.6990 C   0  0  0  0  0  0  0  0  0  0  0  0
   39.5980   35.2440   61.9690 C   0  0  0  0  0  0  0  0  0  0  0  0
   39.8910   33.8140   61.6570 C   0  0  0  0  0  0  0  0  0  0  0  0
   39.4310   32.7380   60.7110 C   0  0  1  0  0  0  0  0  0  0  0  0
   38.5549   31.9468   63.2975 H   0  0  0  0  0  0  0  0  0  0  0  0
   39.3828   30.2409   63.1122 H   0  0  0  0  0  0  0  0  0  0  0  0
   40.8740   29.7848   60.4617 H   0  0  0  0  0  0  0  0  0  0  0  0
   40.2370   29.4291   62.8025 H   0  0  0  0  0  0  0  0  0  0  0  0
   40.2291   28.0350   61.6698 H   0  0  0  0  0  0  0  0  0  0  0  0
   41.6095   29.1844   61.6698 H   0  0  0  0  0  0  0  0  0  0  0  0
   40.3608   29.5618   58.7505 H   0  0  0  0  0  0  0  0  0  0  0  0
   39.0670   28.5232   59.3343 H   0  0  0  0  0  0  0  0  0  0  0  0
   38.3461   31.1538   59.8996 H   0  0  0  0  0  0  0  0  0  0  0  0
   37.5979   28.6669   58.8424 H   0  0  0  0  0  0  0  0  0  0  0  0
   36.6872   30.2995   58.1992 H   0  0  0  0  0  0  0  0  0  0  0  0
   36.5044   28.5350   56.3612 H   0  0  0  0  0  0  0  0  0  0  0  0
   37.5950   29.9094   55.8869 H   0  0  0  0  0  0  0  0  0  0  0  0
   38.9986   28.2670   57.1910 H   0  0  0  0  0  0  0  0  0  0  0  0
   39.6940   29.6583   55.0392 H   0  0  0  0  0  0  0  0  0  0  0  0
   40.6110   28.3125   55.3758 H   0  0  0  0  0  0  0  0  0  0  0  0
   37.6563   28.2205   53.4221 H   0  0  0  0  0  0  0  0  0  0  0  0
   38.6368   29.7699   50.6642 H   0  0  0  0  0  0  0  0  0  0  0  0
   39.8145   30.1370   52.9316 H   0  0  0  0  0  0  0  0  0  0  0  0
   40.9386   30.6202   51.6165 H   0  0  0  0  0  0  0  0  0  0  0  0
   39.2455   31.2203   51.6165 H   0  0  0  0  0  0  0  0  0  0  0  0
   39.6130   30.0610   49.3060 H   0  0  0  0  0  0  0  0  0  0  0  0
   37.8108   25.6398   54.3979 H   0  0  0  0  0  0  0  0  0  0  0  0
   39.4272   26.0707   55.0951 H   0  0  0  0  0  0  0  0  0  0  0  0
   36.8170   26.7670   55.9260 H   0  0  0  0  0  0  0  0  0  0  0  0
   38.0410   26.0960   56.7780 H   0  0  0  0  0  0  0  0  0  0  0  0
   39.7554   31.8029   57.9720 H   0  0  0  0  0  0  0  0  0  0  0  0
   37.9329   31.4722   57.3665 H   0  0  0  0  0  0  0  0  0  0  0  0
   38.8436   33.7128   57.7522 H   0  0  0  0  0  0  0  0  0  0  0  0
   37.1864   33.0915   58.1812 H   0  0  0  0  0  0  0  0  0  0  0  0
   37.9167   32.6367   60.2878 H   0  0  0  0  0  0  0  0  0  0  0  0
   38.2350   35.4410   59.0586 H   0  0  0  0  0  0  0  0  0  0  0  0
   35.8685   35.5700   59.9709 H   0  0  0  0  0  0  0  0  0  0  0  0
   35.9752   34.0677   59.0464 H   0  0  0  0  0  0  0  0  0  0  0  0
   35.4100   34.3300   61.6570 H   0  0  0  0  0  0  0  0  0  0  0  0
   39.3942   36.2286   60.0173 H   0  0  0  0  0  0  0  0  0  0  0  0
   37.8955   36.2678   61.1845 H   0  0  0  0  0  0  0  0  0  0  0  0
   40.5243   35.8330   62.0397 H   0  0  0  0  0  0  0  0  0  0  0  0
   39.0909   35.3865   62.9347 H   0  0  0  0  0  0  0  0  0  0  0  0
   40.9696   33.8501   61.4440 H   0  0  0  0  0  0  0  0  0  0  0  0
   39.2532   33.4464   62.4744 H   0  0  0  0  0  0  0  0  0  0  0  0
   40.2848   32.3521   60.1346 H   0  0  0  0  0  0  0  0  0  0  0  0
  1  2  2  0
  2  3  1  0
  3  4  1  0
  3  5  1  0
  5  6  1  0
  6  7  1  0
  7  8  1  0
  8  9  1  0
  9 10  1  0
 10 11  1  0
 11 12  1  0
 12 13  2  0
 12 14  1  0
 14 15  2  0
 14 16  1  0
 16 17  1  0
 16 18  1  0
 11 19  1  0
 19 20  1  0
  6 21  1  0
 21 22  1  0
 22 23  1  0
 23 24  1  0
 24 25  1  0
 25 26  1  0
 24 27  1  0
 27 28  1  0
 28 29  1  0
 29 30  1  0
 30  2  1  0
 20  9  1  0
 30 23  1  0
  1 31  1  0
  1 32  1  0
  3 33  1  6
  4 34  1  0
  4 35  1  0
  4 36  1  0
  5 37  1  0
  5 38  1  0
  6 39  1  1
  7 40  1  0
  7 41  1  0
  8 42  1  0
  8 43  1  0
  9 44  1  1
 10 45  1  0
 10 46  1  0
 11 47  1  6
 16 48  1  1
 17 49  1  0
 17 50  1  0
 17 51  1  0
 18 52  1  0
 19 53  1  0
 19 54  1  0
 20 55  1  0
 20 56  1  0
 21 57  1  0
 21 58  1  0
 22 59  1  0
 22 60  1  0
 23 61  1  1
 24 62  1  6
 25 63  1  0
 25 64  1  0
 26 65  1  0
 27 66  1  0
 27 67  1  0
 28 68  1  0
 28 69  1  0
 29 70  1  0
 29 71  1  0
 30 72  1  6
M  CHG  1  20   1
M  END
>  <docking_score>  (28) 
-10.468

>  <plif_similarity>  (28) 
0.222

$$$$
DiffSBDD_46
     RDKit          3D

 55 56  0  0  0  0  0  0  0  0999 V2000
   38.8210   27.4920   51.6520 C   0  0  0  0  0  0  0  0  0  0  0  0
   38.9860   28.5240   52.7860 C   0  0  0  0  0  0  0  0  0  0  0  0
   38.6600   28.2640   54.1160 C   0  0  0  0  0  0  0  0  0  0  0  0
   38.7710   29.2250   55.0650 C   0  0  0  0  0  0  0  0  0  0  0  0
   38.4140   28.9890   56.3970 N   0  0  0  0  0  0  0  0  0  0  0  0
   38.1740   27.6200   56.9360 C   0  0  0  0  0  0  0  0  0  0  0  0
   39.0380   29.7980   57.4060 C   0  0  0  0  0  0  0  0  0  0  0  0
   38.0990   30.7340   58.1140 C   0  0  2  0  0  0  0  0  0  0  0  0
   37.8670   31.9220   57.3060 O   0  0  0  0  0  0  0  0  0  0  0  0
   38.6560   30.8150   59.5800 N   0  0  0  0  0  0  0  0  0  0  0  0
   39.5920   29.7080   59.6970 C   0  0  0  0  0  0  0  0  0  0  0  0
   38.8410   31.7930   61.1430 P   0  0  1  0  0  5  0  0  0  0  0  0
   38.3450   30.9940   62.2730 O   0  0  0  0  0  0  0  0  0  0  0  0
   40.2050   32.5470   61.3280 O   0  0  0  0  0  0  0  0  0  0  0  0
   37.5570   33.0100   60.9030 C   0  0  2  0  0  0  0  0  0  0  0  0
   36.4320   32.6600   61.3830 C   0  0  0  0  0  0  0  0  0  0  0  0
   35.0920   32.8560   61.5760 C   0  0  0  0  0  0  0  0  0  0  0  0
   35.3960   31.8490   60.5790 C   0  0  0  0  0  0  0  0  0  0  0  0
   37.6240   34.1140   60.0010 C   0  0  2  0  0  0  0  0  0  0  0  0
   38.2740   35.3920   60.7200 C   0  0  0  0  0  0  0  0  0  0  0  0
   37.1280   34.2740   58.8290 N   0  0  0  0  0  0  0  0  0  0  0  0
   37.0440   35.7880   59.5670 S   0  0  0  0  0  0  0  0  0  0  0  0
   39.3740   30.4260   54.7970 C   0  0  0  0  0  0  0  0  0  0  0  0
   39.7380   30.7300   53.4810 C   0  0  0  0  0  0  0  0  0  0  0  0
   39.5780   29.8260   52.4860 C   0  0  0  0  0  0  0  0  0  0  0  0
   39.9650   30.0390   51.1880 O   0  0  0  0  0  0  0  0  0  0  0  0
   38.6614   26.4936   52.0852 H   0  0  0  0  0  0  0  0  0  0  0  0
   37.9551   27.7650   51.0310 H   0  0  0  0  0  0  0  0  0  0  0  0
   39.7288   27.4814   51.0310 H   0  0  0  0  0  0  0  0  0  0  0  0
   38.3066   27.2618   54.4001 H   0  0  0  0  0  0  0  0  0  0  0  0
   38.1797   27.6526   58.0355 H   0  0  0  0  0  0  0  0  0  0  0  0
   37.1979   27.2537   56.5851 H   0  0  0  0  0  0  0  0  0  0  0  0
   38.9672   26.9435   56.5851 H   0  0  0  0  0  0  0  0  0  0  0  0
   39.4879   29.1293   58.1546 H   0  0  0  0  0  0  0  0  0  0  0  0
   39.7816   30.4253   56.8926 H   0  0  0  0  0  0  0  0  0  0  0  0
   37.0512   30.4208   58.2324 H   0  0  0  0  0  0  0  0  0  0  0  0
   36.8990   32.1280   57.2940 H   0  0  0  0  0  0  0  0  0  0  0  0
   39.7741   29.4926   60.7602 H   0  0  0  0  0  0  0  0  0  0  0  0
   39.1691   28.8172   59.2096 H   0  0  0  0  0  0  0  0  0  0  0  0
   40.5408   29.9770   59.2096 H   0  0  0  0  0  0  0  0  0  0  0  0
   38.0789   33.8195   61.4344 H   0  0  0  0  0  0  0  0  0  0  0  0
   37.2108   32.7692   62.1521 H   0  0  0  0  0  0  0  0  0  0  0  0
   34.6404   32.5419   62.5286 H   0  0  0  0  0  0  0  0  0  0  0  0
   34.4656   33.7598   61.5463 H   0  0  0  0  0  0  0  0  0  0  0  0
   35.2305   30.7813   60.7855 H   0  0  0  0  0  0  0  0  0  0  0  0
   35.1600   31.6596   59.5214 H   0  0  0  0  0  0  0  0  0  0  0  0
   37.7631   33.3892   59.1853 H   0  0  0  0  0  0  0  0  0  0  0  0
   38.2118   35.2698   61.8114 H   0  0  0  0  0  0  0  0  0  0  0  0
   39.3285   35.4842   60.4208 H   0  0  0  0  0  0  0  0  0  0  0  0
   37.7274   36.2985   60.4208 H   0  0  0  0  0  0  0  0  0  0  0  0
   36.2380   33.7990   58.6210 H   0  0  0  0  0  0  0  0  0  0  0  0
   36.9880   36.7620   58.6060 H   0  0  0  0  0  0  0  0  0  0  0  0
   39.5697   31.1431   55.6078 H   0  0  0  0  0  0  0  0  0  0  0  0
   40.1609   31.7191   53.2510 H   0  0  0  0  0  0  0  0  0  0  0  0
   40.8210   29.6650   50.8590 H   0  0  0  0  0  0  0  0  0  0  0  0
  1  2  1  0
  2  3  1  0
  3  4  2  0
  4  5  1  0
  5  6  1  0
  5  7  1  0
  7  8  1  0
  8  9  1  0
  8 10  1  0
 10 11  1  0
 10 12  1  0
 12 13  2  0
 12 14  1  1
 12 15  1  0
 15 16  1  0
 16 17  1  0
 17 18  1  0
 15 19  1  0
 19 20  1  0
 19 21  1  0
 21 22  1  0
  4 23  1  0
 23 24  2  0
 24 25  1  0
 25 26  1  0
 25  2  2  0
 18 16  1  0
  1 27  1  0
  1 28  1  0
  1 29  1  0
  3 30  1  0
  6 31  1  0
  6 32  1  0
  6 33  1  0
  7 34  1  0
  7 35  1  0
  8 36  1  1
  9 37  1  0
 11 38  1  0
 11 39  1  0
 11 40  1  0
 15 41  1  1
 16 42  1  0
 17 43  1  0
 17 44  1  0
 18 45  1  0
 18 46  1  0
 19 47  1  6
 20 48  1  0
 20 49  1  0
 20 50  1  0
 21 51  1  0
 22 52  1  0
 23 53  1  0
 24 54  1  0
 26 55  1  0
M  CHG  1  14  -1
M  END
>  <docking_score>  (29) 
-7.77

>  <plif_similarity>  (29) 
0.444

$$$$
DiffSBDD_47
     RDKit          3D

 51 52  0  0  0  0  0  0  0  0999 V2000
   36.7540   24.9720   55.8270 C   0  0  0  0  0  0  0  0  0  0  0  0
   38.1250   25.4390   55.5610 C   0  0  0  0  0  0  0  0  0  0  0  0
   39.5200   25.2120   56.6400 S   0  0  0  0  0  0  0  0  0  0  0  0
   38.5910   25.8120   58.0340 C   0  0  0  0  0  0  0  0  0  0  0  0
   39.4360   26.8130   58.7590 C   0  0  0  0  0  0  0  0  0  0  0  0
   39.0490   28.1730   58.3890 C   0  0  2  0  0  0  0  0  0  0  0  0
   39.3370   28.9670   59.9420 C   0  0  0  0  0  0  0  0  0  0  0  0
   38.6360   29.9320   60.4340 C   0  0  0  0  0  0  0  0  0  0  0  0
   39.2310   30.6470   61.5880 C   0  0  0  0  0  0  0  0  0  0  0  0
   38.3180   30.8160   62.6050 O   0  0  0  0  0  0  0  0  0  0  0  0
   37.4170   30.4980   59.6190 C   0  0  0  0  0  0  0  0  0  0  0  0
   36.8190   31.5490   60.0020 O   0  0  0  0  0  0  0  0  0  0  0  0
   37.0130   29.7120   58.5980 C   0  0  0  0  0  0  0  0  0  0  0  0
   37.6610   28.4730   58.2090 C   0  0  0  0  0  0  0  0  0  0  0  0
   38.5330   26.4250   54.7590 C   0  0  0  0  0  0  0  0  0  0  0  0
   39.8500   26.8500   55.1260 O   0  0  0  0  0  0  0  0  0  0  0  0
   37.9750   27.2510   53.6910 C   0  0  1  0  0  0  0  0  0  0  0  0
   36.6380   27.4910   53.6570 O   0  0  0  0  0  0  0  0  0  0  0  0
   38.6950   27.9800   52.8110 C   0  0  0  0  0  0  0  0  0  0  0  0
   39.0340   29.3490   53.1130 C   0  0  0  0  0  0  0  0  0  0  0  0
   39.7640   30.1090   52.1560 C   0  0  0  0  0  0  0  0  0  0  0  0
   40.1100   29.5500   50.9450 C   0  0  0  0  0  0  0  0  0  0  0  0
   40.7990   30.4480   49.9110 C   0  0  0  0  0  0  0  0  0  0  0  0
   39.7690   28.2290   50.6250 C   0  0  0  0  0  0  0  0  0  0  0  0
   39.0900   27.4360   51.5970 C   0  0  0  0  0  0  0  0  0  0  0  0
   36.5900   24.9161   56.9133 H   0  0  0  0  0  0  0  0  0  0  0  0
   36.0344   25.6757   55.3832 H   0  0  0  0  0  0  0  0  0  0  0  0
   36.6136   23.9753   55.3832 H   0  0  0  0  0  0  0  0  0  0  0  0
   37.6630   26.2894   57.6862 H   0  0  0  0  0  0  0  0  0  0  0  0
   38.3269   24.9798   58.7031 H   0  0  0  0  0  0  0  0  0  0  0  0
   39.3036   26.6812   59.8430 H   0  0  0  0  0  0  0  0  0  0  0  0
   40.4893   26.6554   58.4838 H   0  0  0  0  0  0  0  0  0  0  0  0
   39.5566   28.4275   57.4469 H   0  0  0  0  0  0  0  0  0  0  0  0
   40.1870   28.6074   60.5404 H   0  0  0  0  0  0  0  0  0  0  0  0
   40.0841   30.0652   61.9671 H   0  0  0  0  0  0  0  0  0  0  0  0
   39.5543   31.6416   61.2470 H   0  0  0  0  0  0  0  0  0  0  0  0
   37.4050   30.8600   62.2240 H   0  0  0  0  0  0  0  0  0  0  0  0
   35.9715   29.4420   58.8267 H   0  0  0  0  0  0  0  0  0  0  0  0
   37.2616   30.3510   57.7379 H   0  0  0  0  0  0  0  0  0  0  0  0
   37.1192   27.6797   58.7450 H   0  0  0  0  0  0  0  0  0  0  0  0
   37.6229   28.5687   57.1138 H   0  0  0  0  0  0  0  0  0  0  0  0
   40.5890   26.7940   54.4700 H   0  0  0  0  0  0  0  0  0  0  0  0
   38.4091   26.3003   53.3479 H   0  0  0  0  0  0  0  0  0  0  0  0
   36.4250   28.2560   54.2490 H   0  0  0  0  0  0  0  0  0  0  0  0
   38.7325   29.7998   54.0700 H   0  0  0  0  0  0  0  0  0  0  0  0
   40.0528   31.1457   52.3839 H   0  0  0  0  0  0  0  0  0  0  0  0
   41.3896   31.2177   50.4294 H   0  0  0  0  0  0  0  0  0  0  0  0
   41.4635   29.8386   49.2808 H   0  0  0  0  0  0  0  0  0  0  0  0
   40.0383   30.9320   49.2808 H   0  0  0  0  0  0  0  0  0  0  0  0
   40.0210   27.8101   49.6396 H   0  0  0  0  0  0  0  0  0  0  0  0
   38.8765   26.3787   51.3813 H   0  0  0  0  0  0  0  0  0  0  0  0
  1  2  1  0
  2  3  1  0
  3  4  1  0
  4  5  1  0
  5  6  1  0
  6  7  1  0
  7  8  2  0
  8  9  1  0
  9 10  1  0
  8 11  1  0
 11 12  2  0
 11 13  1  0
 13 14  1  0
  2 15  2  3
 15 16  1  0
 15 17  1  0
 17 18  1  0
 17 19  1  0
 19 20  1  0
 20 21  2  0
 21 22  1  0
 22 23  1  0
 22 24  2  0
 24 25  1  0
 14  6  1  0
 25 19  2  0
  1 26  1  0
  1 27  1  0
  1 28  1  0
  4 29  1  0
  4 30  1  0
  5 31  1  0
  5 32  1  0
  6 33  1  6
  7 34  1  0
  9 35  1  0
  9 36  1  0
 10 37  1  0
 13 38  1  0
 13 39  1  0
 14 40  1  0
 14 41  1  0
 16 42  1  0
 17 43  1  6
 18 44  1  0
 20 45  1  0
 21 46  1  0
 23 47  1  0
 23 48  1  0
 23 49  1  0
 24 50  1  0
 25 51  1  0
M  END
>  <docking_score>  (30) 
-9.137

>  <plif_similarity>  (30) 
0.444

$$$$
DiffSBDD_48
     RDKit          3D

 75 77  0  0  0  0  0  0  0  0999 V2000
   36.6610   36.9280   62.1510 C   0  0  0  0  0  0  0  0  0  0  0  0
   37.7130   36.7460   60.8670 C   0  0  0  0  0  0  0  0  0  0  0  0
   37.1180   36.9700   59.8760 O   0  0  0  0  0  0  0  0  0  0  0  0
   38.7110   35.6650   60.4100 C   0  0  1  0  0  0  0  0  0  0  0  0
   39.8030   36.0790   61.2010 O   0  0  0  0  0  0  0  0  0  0  0  0
   39.8100   34.9640   62.0520 C   0  0  2  0  0  0  0  0  0  0  0  0
   40.9660   35.1460   62.8440 C   0  0  0  0  0  0  0  0  0  0  0  0
   41.5730   34.0970   63.1520 O   0  0  0  0  0  0  0  0  0  0  0  0
   41.3310   36.4030   63.0090 O   0  0  0  0  0  0  0  0  0  0  0  0
   39.8700   33.7060   61.1840 C   0  0  0  0  0  0  0  0  0  0  0  0
   39.0480   34.2180   60.0000 C   0  0  1  0  0  0  0  0  0  0  0  0
   37.8440   33.4870   59.4540 C   0  0  0  0  0  0  0  0  0  0  0  0
   38.4240   32.3050   58.5050 C   0  0  0  0  0  0  0  0  0  0  0  0
   37.9100   32.7120   57.2550 N   0  0  0  0  0  0  0  0  0  0  0  0
   38.7520   32.0990   56.1400 C   0  0  0  0  0  0  0  0  0  0  0  0
   38.1590   31.1220   55.1750 C   0  0  2  0  0  0  0  0  0  0  0  0
   36.8600   30.4790   55.2890 C   0  0  0  0  0  0  0  0  0  0  0  0
   39.2450   30.1090   55.0680 C   0  0  1  0  0  0  0  0  0  0  0  0
   39.2060   29.0440   56.0180 O   0  0  0  0  0  0  0  0  0  0  0  0
   39.6610   28.9090   57.3230 C   0  0  0  0  0  0  0  0  0  0  0  0
   40.4270   27.5780   57.6150 C   0  0  0  0  0  0  0  0  0  0  0  0
   40.2330   26.7410   56.1580 C   0  0  0  0  0  0  0  0  0  0  0  0
   39.5800   26.6820   58.5560 C   0  0  0  0  0  0  0  0  0  0  0  0
   41.8380   27.7870   57.7580 C   0  0  0  0  0  0  0  0  0  0  0  0
   39.3430   29.7050   53.5510 C   0  0  2  0  0  0  0  0  0  0  0  0
   38.9730   28.3870   53.2590 C   0  0  0  0  0  0  0  0  0  0  0  0
   39.1790   27.7690   52.1750 C   0  0  0  0  0  0  0  0  0  0  0  0
   39.8460   28.4000   51.2050 C   0  0  1  0  0  0  0  0  0  0  0  0
   40.1230   27.6940   50.2100 F   0  0  0  0  0  0  0  0  0  0  0  0
   39.9680   29.8130   51.2110 C   0  0  0  0  0  0  0  0  0  0  0  0
   39.8390   31.0330   50.0310 C   0  0  0  0  0  0  0  0  0  0  0  0
   40.7990   30.0210   49.9160 C   0  0  0  0  0  0  0  0  0  0  0  0
   39.9340   30.5390   52.4990 C   0  0  0  0  0  0  0  0  0  0  0  0
   37.2158   36.8320   63.0960 H   0  0  0  0  0  0  0  0  0  0  0  0
   36.1902   37.9209   62.1014 H   0  0  0  0  0  0  0  0  0  0  0  0
   35.8840   36.1509   62.1014 H   0  0  0  0  0  0  0  0  0  0  0  0
   38.1586   35.5748   59.4631 H   0  0  0  0  0  0  0  0  0  0  0  0
   38.9214   34.8584   62.6918 H   0  0  0  0  0  0  0  0  0  0  0  0
   40.8998   33.4490   60.8950 H   0  0  0  0  0  0  0  0  0  0  0  0
   39.5093   32.7796   61.6548 H   0  0  0  0  0  0  0  0  0  0  0  0
   39.6751   34.0604   59.1101 H   0  0  0  0  0  0  0  0  0  0  0  0
   37.2520   33.0596   60.2767 H   0  0  0  0  0  0  0  0  0  0  0  0
   37.1843   34.1647   58.8923 H   0  0  0  0  0  0  0  0  0  0  0  0
   39.5238   32.2847   58.5060 H   0  0  0  0  0  0  0  0  0  0  0  0
   38.1402   31.2872   58.8109 H   0  0  0  0  0  0  0  0  0  0  0  0
   37.9440   33.7390   57.1870 H   0  0  0  0  0  0  0  0  0  0  0  0
   36.9330   32.3970   57.1640 H   0  0  0  0  0  0  0  0  0  0  0  0
   39.1350   32.9378   55.5402 H   0  0  0  0  0  0  0  0  0  0  0  0
   39.4754   31.4829   56.6941 H   0  0  0  0  0  0  0  0  0  0  0  0
   37.8533   31.7396   54.3176 H   0  0  0  0  0  0  0  0  0  0  0  0
   36.6053   30.3529   56.3517 H   0  0  0  0  0  0  0  0  0  0  0  0
   36.0975   31.1037   54.8008 H   0  0  0  0  0  0  0  0  0  0  0  0
   36.8944   29.4939   54.8008 H   0  0  0  0  0  0  0  0  0  0  0  0
   40.2014   30.5532   55.3809 H   0  0  0  0  0  0  0  0  0  0  0  0
   40.3389   29.7483   57.5378 H   0  0  0  0  0  0  0  0  0  0  0  0
   38.7668   28.8990   57.9636 H   0  0  0  0  0  0  0  0  0  0  0  0
   39.9892   25.6893   56.3690 H   0  0  0  0  0  0  0  0  0  0  0  0
   39.4168   27.1975   55.5788 H   0  0  0  0  0  0  0  0  0  0  0  0
   41.1668   26.7919   55.5788 H   0  0  0  0  0  0  0  0  0  0  0  0
   39.8120   26.9274   59.6029 H   0  0  0  0  0  0  0  0  0  0  0  0
   38.5110   26.8585   58.3662 H   0  0  0  0  0  0  0  0  0  0  0  0
   39.8163   25.6246   58.3662 H   0  0  0  0  0  0  0  0  0  0  0  0
   42.0966   27.8253   58.8265 H   0  0  0  0  0  0  0  0  0  0  0  0
   42.3817   26.9596   57.2786 H   0  0  0  0  0  0  0  0  0  0  0  0
   42.1185   28.7365   57.2786 H   0  0  0  0  0  0  0  0  0  0  0  0
   38.7613   30.5909   53.2564 H   0  0  0  0  0  0  0  0  0  0  0  0
   38.4503   27.8328   54.0525 H   0  0  0  0  0  0  0  0  0  0  0  0
   38.8185   26.7393   52.0348 H   0  0  0  0  0  0  0  0  0  0  0  0
   40.8680   28.6154   51.5503 H   0  0  0  0  0  0  0  0  0  0  0  0
   38.9748   31.0545   49.3508 H   0  0  0  0  0  0  0  0  0  0  0  0
   39.8576   32.1328   50.0366 H   0  0  0  0  0  0  0  0  0  0  0  0
   40.6868   29.2883   49.1033 H   0  0  0  0  0  0  0  0  0  0  0  0
   41.8874   30.0844   49.7701 H   0  0  0  0  0  0  0  0  0  0  0  0
   40.9603   30.8101   52.7875 H   0  0  0  0  0  0  0  0  0  0  0  0
   39.3190   31.4430   52.3783 H   0  0  0  0  0  0  0  0  0  0  0  0
  1  2  1  0
  2  3  2  0
  2  4  1  0
  4  5  1  0
  5  6  1  0
  6  7  1  0
  7  8  2  0
  7  9  1  0
  6 10  1  0
 10 11  1  0
 11 12  1  0
 12 13  1  0
 13 14  1  0
 14 15  1  0
 15 16  1  0
 16 17  1  0
 16 18  1  0
 18 19  1  0
 19 20  1  0
 20 21  1  0
 21 22  1  0
 21 23  1  0
 21 24  1  0
 18 25  1  0
 25 26  1  0
 26 27  2  0
 27 28  1  0
 28 29  1  0
 28 30  1  0
 30 31  1  0
 31 32  1  0
 30 33  1  0
 11  4  1  0
 33 25  1  0
 32 30  1  0
  1 34  1  0
  1 35  1  0
  1 36  1  0
  4 37  1  6
  6 38  1  1
 10 39  1  0
 10 40  1  0
 11 41  1  6
 12 42  1  0
 12 43  1  0
 13 44  1  0
 13 45  1  0
 14 46  1  0
 14 47  1  0
 15 48  1  0
 15 49  1  0
 16 50  1  6
 17 51  1  0
 17 52  1  0
 17 53  1  0
 18 54  1  1
 20 55  1  0
 20 56  1  0
 22 57  1  0
 22 58  1  0
 22 59  1  0
 23 60  1  0
 23 61  1  0
 23 62  1  0
 24 63  1  0
 24 64  1  0
 24 65  1  0
 25 66  1  6
 26 67  1  0
 27 68  1  0
 28 69  1  1
 31 70  1  0
 31 71  1  0
 32 72  1  0
 32 73  1  0
 33 74  1  0
 33 75  1  0
M  CHG  2   9  -1  14   1
M  END
>  <docking_score>  (31) 
-10.261

>  <plif_similarity>  (31) 
0.444

$$$$
DiffSBDD_49
     RDKit          3D

 75 80  0  0  0  0  0  0  0  0999 V2000
   38.4940   32.3890   53.9870 C   0  0  0  0  0  0  0  0  0  0  0  0
   38.5750   31.1030   54.5340 C   0  0  2  0  0  0  0  0  0  0  0  0
   38.0890   30.5930   55.8550 C   0  0  0  0  0  0  0  0  0  0  0  0
   39.1900   30.5960   56.7560 C   0  0  0  0  0  0  0  0  0  0  0  0
   38.9270   29.7120   58.1180 C   0  0  2  0  0  0  0  0  0  0  0  0
   37.9700   30.6510   58.7670 C   0  0  1  0  0  0  0  0  0  0  0  0
   37.3080   30.2290   60.1460 C   0  0  0  0  0  0  0  0  0  0  0  0
   36.0380   30.8420   60.2790 C   0  0  0  0  0  0  0  0  0  0  0  0
   36.1370   32.2760   60.4820 C   0  0  1  0  0  0  0  0  0  0  0  0
   34.4520   32.7780   60.3500 C   0  0  0  0  0  0  0  0  0  0  0  0
   36.4060   32.9080   61.7720 O   0  0  0  0  0  0  0  0  0  0  0  0
   36.6020   34.3060   61.4870 C   0  0  0  0  0  0  0  0  0  0  0  0
   38.0250   34.4110   61.3950 C   0  0  0  0  0  0  0  0  0  0  0  0
   38.6870   33.5040   60.3500 C   0  0  2  0  0  0  0  0  0  0  0  0
   39.6980   32.4920   60.9300 C   0  0  0  0  0  0  0  0  0  0  0  0
   39.2080   34.1840   59.2350 F   0  0  0  0  0  0  0  0  0  0  0  0
   37.5000   32.7190   59.9280 C   0  0  1  0  0  0  0  0  0  0  0  0
   37.9600   32.0720   58.8430 C   0  0  0  0  0  0  0  0  0  0  0  0
   39.1600   28.4660   58.7820 C   0  0  0  0  0  0  0  0  0  0  0  0
   39.6090   27.4220   57.7910 C   0  0  0  0  0  0  0  0  0  0  0  0
   38.7390   27.4500   56.8480 C   0  0  2  0  0  0  0  0  0  0  0  0
   38.1730   26.2090   56.7440 O   0  0  0  0  0  0  0  0  0  0  0  0
   37.7900   25.7530   55.5340 C   0  0  0  0  0  0  0  0  0  0  0  0
   37.3350   24.5900   55.4170 N   0  0  0  0  0  0  0  0  0  0  0  0
   38.0650   26.6540   54.5970 N   0  0  0  0  0  0  0  0  0  0  0  0
   38.7550   27.7460   55.0490 C   0  0  1  0  0  0  0  0  0  0  0  0
   38.8080   28.7100   53.7180 C   0  0  2  0  0  0  0  0  0  0  0  0
   38.7270   28.0090   52.6020 C   0  0  0  0  0  0  0  0  0  0  0  0
   38.1720   27.0750   52.0960 O   0  0  0  0  0  0  0  0  0  0  0  0
   39.4370   29.1020   51.3750 C   0  0  2  0  0  0  0  0  0  0  0  0
   40.6000   30.0600   51.5060 C   0  0  0  0  0  0  0  0  0  0  0  0
   39.4850   30.2770   52.1110 C   0  0  2  0  0  0  0  0  0  0  0  0
   39.0890   30.0430   53.6850 C   0  0  1  0  0  0  0  0  0  0  0  0
   38.4473   33.1303   54.7984 H   0  0  0  0  0  0  0  0  0  0  0  0
   39.3819   32.5801   53.3664 H   0  0  0  0  0  0  0  0  0  0  0  0
   37.5892   32.4672   53.3664 H   0  0  0  0  0  0  0  0  0  0  0  0
   37.6062   30.8486   54.0794 H   0  0  0  0  0  0  0  0  0  0  0  0
   37.2911   31.2465   56.2375 H   0  0  0  0  0  0  0  0  0  0  0  0
   37.6839   29.5759   55.7479 H   0  0  0  0  0  0  0  0  0  0  0  0
   40.0663   30.1817   56.2360 H   0  0  0  0  0  0  0  0  0  0  0  0
   39.3460   31.6380   57.0722 H   0  0  0  0  0  0  0  0  0  0  0  0
   38.0887   29.1995   57.6235 H   0  0  0  0  0  0  0  0  0  0  0  0
   37.5280   30.4440   57.7812 H   0  0  0  0  0  0  0  0  0  0  0  0
   37.1900   29.1357   60.1744 H   0  0  0  0  0  0  0  0  0  0  0  0
   37.9557   30.5549   60.9732 H   0  0  0  0  0  0  0  0  0  0  0  0
   35.4567   30.6535   59.3644 H   0  0  0  0  0  0  0  0  0  0  0  0
   35.5468   30.4100   61.1634 H   0  0  0  0  0  0  0  0  0  0  0  0
   34.0272   32.9046   61.3567 H   0  0  0  0  0  0  0  0  0  0  0  0
   34.3952   33.7321   59.8055 H   0  0  0  0  0  0  0  0  0  0  0  0
   33.8823   32.0106   59.8055 H   0  0  0  0  0  0  0  0  0  0  0  0
   36.1212   34.5888   60.5389 H   0  0  0  0  0  0  0  0  0  0  0  0
   36.1630   34.9719   62.2446 H   0  0  0  0  0  0  0  0  0  0  0  0
   38.2726   35.4532   61.1450 H   0  0  0  0  0  0  0  0  0  0  0  0
   38.4160   34.0845   62.3699 H   0  0  0  0  0  0  0  0  0  0  0  0
   39.6627   32.5273   62.0289 H   0  0  0  0  0  0  0  0  0  0  0  0
   39.4405   31.4790   60.5872 H   0  0  0  0  0  0  0  0  0  0  0  0
   40.7113   32.7485   60.5872 H   0  0  0  0  0  0  0  0  0  0  0  0
   36.7744   33.4046   60.3900 H   0  0  0  0  0  0  0  0  0  0  0  0
   37.3547   32.4227   57.9941 H   0  0  0  0  0  0  0  0  0  0  0  0
   39.0332   32.3125   58.8649 H   0  0  0  0  0  0  0  0  0  0  0  0
   39.9405   28.6017   59.5451 H   0  0  0  0  0  0  0  0  0  0  0  0
   38.2249   28.1320   59.2553 H   0  0  0  0  0  0  0  0  0  0  0  0
   40.6078   27.6666   57.4004 H   0  0  0  0  0  0  0  0  0  0  0  0
   39.6810   26.4256   58.2513 H   0  0  0  0  0  0  0  0  0  0  0  0
   38.3968   28.4112   57.2591 H   0  0  0  0  0  0  0  0  0  0  0  0
   37.0430   24.2420   54.4930 H   0  0  0  0  0  0  0  0  0  0  0  0
   37.2530   23.9830   56.2460 H   0  0  0  0  0  0  0  0  0  0  0  0
   37.7830   26.5400   53.6130 H   0  0  0  0  0  0  0  0  0  0  0  0
   39.5970   28.4011   55.3171 H   0  0  0  0  0  0  0  0  0  0  0  0
   38.1513   29.5203   54.0675 H   0  0  0  0  0  0  0  0  0  0  0  0
   39.1604   28.5108   50.4896 H   0  0  0  0  0  0  0  0  0  0  0  0
   41.4934   29.7708   52.0789 H   0  0  0  0  0  0  0  0  0  0  0  0
   41.2363   30.6225   50.8069 H   0  0  0  0  0  0  0  0  0  0  0  0
   38.9858   31.2566   52.1455 H   0  0  0  0  0  0  0  0  0  0  0  0
   39.8108   30.2820   54.4799 H   0  0  0  0  0  0  0  0  0  0  0  0
  1  2  1  0
  2  3  1  0
  3  4  1  0
  4  5  1  0
  5  6  1  0
  6  7  1  0
  7  8  1  0
  8  9  1  0
  9 10  1  6
  9 11  1  0
 11 12  1  0
 12 13  1  0
 13 14  1  0
 14 15  1  0
 14 16  1  6
 14 17  1  0
 17 18  1  0
  5 19  1  0
 19 20  1  0
 20 21  1  0
 21 22  1  0
 22 23  1  0
 23 24  1  0
 23 25  2  0
 25 26  1  0
 26 27  1  0
 27 28  1  0
 28 29  2  0
 28 30  1  0
 30 31  1  0
 31 32  1  0
 32 33  1  0
 33  2  1  0
 18  6  1  0
 26 21  1  0
 33 27  1  0
 17  9  1  0
 32 30  1  0
  1 34  1  0
  1 35  1  0
  1 36  1  0
  2 37  1  1
  3 38  1  0
  3 39  1  0
  4 40  1  0
  4 41  1  0
  5 42  1  1
  6 43  1  6
  7 44  1  0
  7 45  1  0
  8 46  1  0
  8 47  1  0
 10 48  1  0
 10 49  1  0
 10 50  1  0
 12 51  1  0
 12 52  1  0
 13 53  1  0
 13 54  1  0
 15 55  1  0
 15 56  1  0
 15 57  1  0
 17 58  1  6
 18 59  1  0
 18 60  1  0
 19 61  1  0
 19 62  1  0
 20 63  1  0
 20 64  1  0
 21 65  1  1
 24 66  1  0
 24 67  1  0
 25 68  1  0
 26 69  1  6
 27 70  1  1
 30 71  1  6
 31 72  1  0
 31 73  1  0
 32 74  1  6
 33 75  1  1
M  CHG  1  25   1
M  END
>  <docking_score>  (32) 
-11.99

>  <plif_similarity>  (32) 
0.333

$$$$
DiffSBDD_50
     RDKit          3D

 66 69  0  0  0  0  0  0  0  0999 V2000
   35.1830   31.5240   60.4820 C   0  0  0  0  0  0  0  0  0  0  0  0
   36.2950   31.5410   61.2500 O   0  0  0  0  0  0  0  0  0  0  0  0
   37.4600   31.0760   60.4410 C   0  0  1  0  0  0  0  0  0  0  0  0
   38.6510   29.7220   60.2200 C   0  0  0  0  0  0  0  0  0  0  0  0
   39.7070   30.1380   59.1520 C   0  0  0  0  0  0  0  0  0  0  0  0
   38.8550   30.3670   58.4470 C   0  0  1  0  0  0  0  0  0  0  0  0
   38.1420   29.1720   57.6570 C   0  0  2  0  0  0  0  0  0  0  0  0
   38.2880   27.5010   57.8850 S   0  0  0  0  0  0  0  0  0  0  0  0
   37.9520   27.1840   56.2620 C   0  0  0  0  0  0  0  0  0  0  0  0
   37.7270   25.9510   55.7980 O   0  0  0  0  0  0  0  0  0  0  0  0
   37.9520   28.3720   55.6310 C   0  0  0  0  0  0  0  0  0  0  0  0
   37.7440   28.6100   54.4570 O   0  0  0  0  0  0  0  0  0  0  0  0
   38.9660   28.2770   53.5050 C   0  0  2  0  0  0  0  0  0  0  0  0
   39.8220   27.2440   54.0220 O   0  0  0  0  0  0  0  0  0  0  0  0
   39.6300   29.4450   52.7570 C   0  0  1  0  0  0  0  0  0  0  0  0
   39.7970   30.8450   53.4520 O   0  0  0  0  0  0  0  0  0  0  0  0
   40.0670   29.2660   51.3610 C   0  0  2  0  0  0  0  0  0  0  0  0
   40.2410   30.4280   50.5700 C   0  0  0  0  0  0  0  0  0  0  0  0
   39.4830   27.7100   50.9510 C   0  0  0  0  0  0  0  0  0  0  0  0
   38.4190   27.5750   51.9890 C   0  0  2  0  0  0  0  0  0  0  0  0
   37.5190   27.8620   51.7960 O   0  0  0  0  0  0  0  0  0  0  0  0
   38.1630   29.5460   56.3940 C   0  0  0  0  0  0  0  0  0  0  0  0
   37.7710   30.7410   55.6950 C   0  0  0  0  0  0  0  0  0  0  0  0
   36.3720   30.6560   55.1980 O   0  0  0  0  0  0  0  0  0  0  0  0
   38.3030   31.8350   58.2190 C   0  0  0  0  0  0  0  0  0  0  0  0
   37.9450   32.3000   59.4940 C   0  0  1  0  0  0  0  0  0  0  0  0
   37.6650   33.5810   59.7510 N   0  0  0  0  0  0  0  0  0  0  0  0
   38.4990   34.5870   60.2720 C   0  0  0  0  0  0  0  0  0  0  0  0
   39.8860   34.3480   60.5810 C   0  0  0  0  0  0  0  0  0  0  0  0
   40.5150   35.2290   61.3890 C   0  0  0  0  0  0  0  0  0  0  0  0
   41.7250   35.0340   61.8960 F   0  0  0  0  0  0  0  0  0  0  0  0
   39.9620   36.3930   61.8870 C   0  0  0  0  0  0  0  0  0  0  0  0
   38.7050   36.8340   61.4240 C   0  0  0  0  0  0  0  0  0  0  0  0
   38.1160   35.8820   60.5530 C   0  0  0  0  0  0  0  0  0  0  0  0
   36.9290   36.3890   59.9980 F   0  0  0  0  0  0  0  0  0  0  0  0
   34.2921   31.5104   61.1270 H   0  0  0  0  0  0  0  0  0  0  0  0
   35.1622   32.4219   59.8470 H   0  0  0  0  0  0  0  0  0  0  0  0
   35.1897   30.6259   59.8470 H   0  0  0  0  0  0  0  0  0  0  0  0
   38.1462   31.5641   61.1487 H   0  0  0  0  0  0  0  0  0  0  0  0
   39.1555   29.5161   61.1756 H   0  0  0  0  0  0  0  0  0  0  0  0
   38.1235   28.8166   59.8852 H   0  0  0  0  0  0  0  0  0  0  0  0
   40.3160   31.0110   59.4294 H   0  0  0  0  0  0  0  0  0  0  0  0
   40.5231   29.4602   58.8610 H   0  0  0  0  0  0  0  0  0  0  0  0
   39.5710   30.4862   57.6205 H   0  0  0  0  0  0  0  0  0  0  0  0
   37.2022   29.0972   58.2237 H   0  0  0  0  0  0  0  0  0  0  0  0
   40.4270   26.9280   53.3060 H   0  0  0  0  0  0  0  0  0  0  0  0
   38.6483   29.7547   52.3691 H   0  0  0  0  0  0  0  0  0  0  0  0
   40.5630   31.3250   53.0480 H   0  0  0  0  0  0  0  0  0  0  0  0
   41.1215   29.1987   51.0552 H   0  0  0  0  0  0  0  0  0  0  0  0
   40.3718   31.3016   51.2255 H   0  0  0  0  0  0  0  0  0  0  0  0
   41.1314   30.3094   49.9351 H   0  0  0  0  0  0  0  0  0  0  0  0
   39.3549   30.5754   49.9351 H   0  0  0  0  0  0  0  0  0  0  0  0
   39.0702   27.6804   49.9318 H   0  0  0  0  0  0  0  0  0  0  0  0
   40.2379   26.9100   50.9425 H   0  0  0  0  0  0  0  0  0  0  0  0
   38.2934   26.4832   52.0351 H   0  0  0  0  0  0  0  0  0  0  0  0
   36.9990   27.9110   52.6370 H   0  0  0  0  0  0  0  0  0  0  0  0
   37.8541   31.5977   56.3799 H   0  0  0  0  0  0  0  0  0  0  0  0
   38.4355   30.8630   54.8269 H   0  0  0  0  0  0  0  0  0  0  0  0
   35.9830   31.5650   55.1490 H   0  0  0  0  0  0  0  0  0  0  0  0
   39.0823   32.4755   57.7804 H   0  0  0  0  0  0  0  0  0  0  0  0
   37.4505   31.8485   57.5240 H   0  0  0  0  0  0  0  0  0  0  0  0
   38.8361   32.7475   59.9584 H   0  0  0  0  0  0  0  0  0  0  0  0
   36.7000   33.8740   59.5360 H   0  0  0  0  0  0  0  0  0  0  0  0
   40.4161   33.4754   60.1717 H   0  0  0  0  0  0  0  0  0  0  0  0
   40.5032   36.9769   62.6461 H   0  0  0  0  0  0  0  0  0  0  0  0
   38.2415   37.7920   61.7022 H   0  0  0  0  0  0  0  0  0  0  0  0
  1  2  1  0
  2  3  1  0
  3  4  1  0
  4  5  1  0
  5  6  1  0
  6  7  1  0
  7  8  1  0
  8  9  1  0
  9 10  2  0
  9 11  1  0
 11 12  1  0
 13 12  1  1
 13 14  1  0
 13 15  1  0
 15 16  1  0
 15 17  1  0
 17 18  1  0
 17 19  1  0
 19 20  1  0
 20 21  1  0
 11 22  2  0
 22 23  1  0
 23 24  1  0
  6 25  1  0
 25 26  1  0
 26 27  1  0
 27 28  1  0
 28 29  1  0
 29 30  2  0
 30 31  1  0
 30 32  1  0
 32 33  2  0
 33 34  1  0
 34 35  1  0
 26  3  1  0
 34 28  2  0
 22  7  1  0
 20 13  1  0
  1 36  1  0
  1 37  1  0
  1 38  1  0
  3 39  1  6
  4 40  1  0
  4 41  1  0
  5 42  1  0
  5 43  1  0
  6 44  1  6
  7 45  1  1
 14 46  1  0
 15 47  1  1
 16 48  1  0
 17 49  1  1
 18 50  1  0
 18 51  1  0
 18 52  1  0
 19 53  1  0
 19 54  1  0
 20 55  1  1
 21 56  1  0
 23 57  1  0
 23 58  1  0
 24 59  1  0
 25 60  1  0
 25 61  1  0
 26 62  1  1
 27 63  1  0
 29 64  1  0
 32 65  1  0
 33 66  1  0
M  END
>  <docking_score>  (33) 
-10.236

>  <plif_similarity>  (33) 
0.333

$$$$
DiffSBDD_51
     RDKit          3D

 39 39  0  0  0  0  0  0  0  0999 V2000
   38.8130   25.6080   58.4000 C   0  0  0  0  0  0  0  0  0  0  0  0
   38.1060   24.4610   57.5650 C   0  0  0  0  0  0  0  0  0  0  0  0
   38.1620   24.7380   56.1110 C   0  0  2  0  0  0  0  0  0  0  0  0
   36.8630   24.3640   55.3760 C   0  0  0  0  0  0  0  0  0  0  0  0
   39.2780   25.3290   55.6830 N   0  0  0  0  0  0  0  0  0  0  0  0
   39.5290   26.5750   55.2350 C   0  0  0  0  0  0  0  0  0  0  0  0
   39.3580   26.7400   53.9050 O   0  0  0  0  0  0  0  0  0  0  0  0
   39.9260   27.8880   55.8180 N   0  0  0  0  0  0  0  0  0  0  0  0
   39.5090   29.0890   55.5220 C   0  0  0  0  0  0  0  0  0  0  0  0
   39.4850   30.2050   55.0750 C   0  0  0  0  0  0  0  0  0  0  0  0
   38.6980   31.0040   54.4040 C   0  0  0  0  0  0  0  0  0  0  0  0
   39.8800   30.7820   53.3780 C   0  0  0  0  0  0  0  0  0  0  0  0
   39.6320   30.3030   51.8070 C   0  0  0  0  0  0  0  0  0  0  0  0
   40.5990   30.2760   50.5410 C   0  0  0  0  0  0  0  0  0  0  0  0
   39.8710   28.9950   50.9630 C   0  0  0  0  0  0  0  0  0  0  0  0
   38.6899   25.4083   59.4747 H   0  0  0  0  0  0  0  0  0  0  0  0
   39.8844   25.6346   58.1524 H   0  0  0  0  0  0  0  0  0  0  0  0
   38.3553   26.5771   58.1524 H   0  0  0  0  0  0  0  0  0  0  0  0
   38.6136   23.5063   57.7672 H   0  0  0  0  0  0  0  0  0  0  0  0
   37.0496   24.4133   57.8679 H   0  0  0  0  0  0  0  0  0  0  0  0
   37.7700   25.7503   56.2888 H   0  0  0  0  0  0  0  0  0  0  0  0
   36.0774   24.1378   56.1120 H   0  0  0  0  0  0  0  0  0  0  0  0
   36.5430   25.2065   54.7453 H   0  0  0  0  0  0  0  0  0  0  0  0
   37.0400   23.4803   54.7453 H   0  0  0  0  0  0  0  0  0  0  0  0
   40.1050   24.7160   55.6980 H   0  0  0  0  0  0  0  0  0  0  0  0
   40.6340   27.8410   56.5640 H   0  0  0  0  0  0  0  0  0  0  0  0
   38.5775   28.7610   55.0375 H   0  0  0  0  0  0  0  0  0  0  0  0
   40.2154   29.4634   56.2775 H   0  0  0  0  0  0  0  0  0  0  0  0
   39.6795   30.8027   55.9778 H   0  0  0  0  0  0  0  0  0  0  0  0
   40.0271   29.9020   54.1671 H   0  0  0  0  0  0  0  0  0  0  0  0
   37.7152   30.6012   54.1178 H   0  0  0  0  0  0  0  0  0  0  0  0
   38.3029   31.9717   54.7466 H   0  0  0  0  0  0  0  0  0  0  0  0
   40.4176   31.7401   53.3221 H   0  0  0  0  0  0  0  0  0  0  0  0
   40.3789   29.8985   53.8028 H   0  0  0  0  0  0  0  0  0  0  0  0
   38.7509   30.8455   52.1803 H   0  0  0  0  0  0  0  0  0  0  0  0
   40.3063   30.7941   49.6158 H   0  0  0  0  0  0  0  0  0  0  0  0
   41.6500   30.5472   50.3626 H   0  0  0  0  0  0  0  0  0  0  0  0
   39.0611   28.5958   50.3347 H   0  0  0  0  0  0  0  0  0  0  0  0
   40.1950   27.9724   51.2067 H   0  0  0  0  0  0  0  0  0  0  0  0
  1  2  1  0
  2  3  1  0
  3  4  1  0
  3  5  1  0
  5  6  1  0
  6  7  2  0
  6  8  1  0
  8  9  1  0
  9 10  1  0
 10 11  1  0
 11 12  1  0
 12 13  1  0
 13 14  1  0
 14 15  1  0
 15 13  1  0
  1 16  1  0
  1 17  1  0
  1 18  1  0
  2 19  1  0
  2 20  1  0
  3 21  1  6
  4 22  1  0
  4 23  1  0
  4 24  1  0
  5 25  1  0
  8 26  1  0
  9 27  1  0
  9 28  1  0
 10 29  1  0
 10 30  1  0
 11 31  1  0
 11 32  1  0
 12 33  1  0
 12 34  1  0
 13 35  1  0
 14 36  1  0
 14 37  1  0
 15 38  1  0
 15 39  1  0
M  END
>  <docking_score>  (34) 
-6.542

>  <plif_similarity>  (34) 
0.222

$$$$
DiffSBDD_53
     RDKit          3D

 83 87  0  0  0  0  0  0  0  0999 V2000
   40.5490   36.5560   62.0590 C   0  0  0  0  0  0  0  0  0  0  0  0
   39.3320   35.7450   61.6180 C   0  0  2  0  0  0  0  0  0  0  0  0
   39.4640   34.4120   61.1950 C   0  0  2  0  0  0  0  0  0  0  0  0
   40.6270   33.7890   61.3850 O   0  0  0  0  0  0  0  0  0  0  0  0
   38.5560   33.7270   60.1010 C   0  0  1  0  0  0  0  0  0  0  0  0
   37.7350   32.6060   60.6450 N   0  0  0  0  0  0  0  0  0  0  0  0
   37.8190   31.3340   60.1630 C   0  0  0  0  0  0  0  0  0  0  0  0
   38.6940   31.0830   59.0600 C   0  0  0  0  0  0  0  0  0  0  0  0
   37.9310   31.1690   57.8390 N   0  0  0  0  0  0  0  0  0  0  0  0
   37.6540   30.1410   57.1770 C   0  0  0  0  0  0  0  0  0  0  0  0
   37.2040   29.0650   56.8230 O   0  0  0  0  0  0  0  0  0  0  0  0
   38.2190   28.3550   56.0180 C   0  0  1  0  0  0  0  0  0  0  0  0
   39.0450   29.2620   55.5060 O   0  0  0  0  0  0  0  0  0  0  0  0
   39.2830   29.2360   54.1410 C   0  0  0  0  0  0  0  0  0  0  0  0
   39.2040   27.9200   53.7850 C   0  0  0  0  0  0  0  0  0  0  0  0
   39.3050   27.5230   52.3840 C   0  0  0  0  0  0  0  0  0  0  0  0
   39.7470   28.2830   51.3780 C   0  0  0  0  0  0  0  0  0  0  0  0
   39.9840   29.6280   51.2550 C   0  0  0  0  0  0  0  0  0  0  0  0
   40.3280   29.9490   49.9740 C   0  0  0  0  0  0  0  0  0  0  0  0
   39.7640   31.0020   49.5100 N   0  0  0  0  0  0  0  0  0  0  0  0
   39.7830   30.6250   52.1780 C   0  0  0  0  0  0  0  0  0  0  0  0
   39.5270   30.4820   53.5050 C   0  0  0  0  0  0  0  0  0  0  0  0
   39.1930   26.7600   54.7090 C   0  0  0  0  0  0  0  0  0  0  0  0
   38.4060   26.9500   55.9470 C   0  0  0  0  0  0  0  0  0  0  0  0
   39.2020   26.6980   57.2310 C   0  0  0  0  0  0  0  0  0  0  0  0
   39.3200   25.1530   57.6950 C   0  0  0  0  0  0  0  0  0  0  0  0
   38.1740   24.2990   57.5950 C   0  0  0  0  0  0  0  0  0  0  0  0
   37.4780   24.5250   56.1310 C   0  0  0  0  0  0  0  0  0  0  0  0
   37.1790   26.0030   55.9810 C   0  0  0  0  0  0  0  0  0  0  0  0
   37.4930   34.7260   59.5690 C   0  0  1  0  0  0  0  0  0  0  0  0
   36.8020   34.1680   58.5070 O   0  0  0  0  0  0  0  0  0  0  0  0
   36.7100   35.1380   60.6710 C   0  0  0  0  0  0  0  0  0  0  0  0
   37.4630   36.1390   59.8910 C   0  0  1  0  0  0  0  0  0  0  0  0
   38.2770   36.6200   61.0860 N   0  0  1  0  0  0  0  0  0  0  0  0
   37.2700   37.5910   61.5510 C   0  0  0  0  0  0  0  0  0  0  0  0
   40.5920   36.5846   63.1578 H   0  0  0  0  0  0  0  0  0  0  0  0
   41.4638   36.0863   61.6684 H   0  0  0  0  0  0  0  0  0  0  0  0
   40.4677   37.5811   61.6684 H   0  0  0  0  0  0  0  0  0  0  0  0
   38.9077   35.3109   62.5353 H   0  0  0  0  0  0  0  0  0  0  0  0
   38.7770   34.2513   62.0389 H   0  0  0  0  0  0  0  0  0  0  0  0
   40.9500   33.9670   62.3040 H   0  0  0  0  0  0  0  0  0  0  0  0
   39.2630   33.3773   59.3343 H   0  0  0  0  0  0  0  0  0  0  0  0
   36.7520   32.8910   60.5310 H   0  0  0  0  0  0  0  0  0  0  0  0
   38.1270   32.4980   61.5910 H   0  0  0  0  0  0  0  0  0  0  0  0
   38.1493   30.6924   60.9932 H   0  0  0  0  0  0  0  0  0  0  0  0
   36.8145   31.1279   59.7648 H   0  0  0  0  0  0  0  0  0  0  0  0
   39.4991   31.8325   59.0475 H   0  0  0  0  0  0  0  0  0  0  0  0
   39.1406   30.0822   59.1546 H   0  0  0  0  0  0  0  0  0  0  0  0
   37.0330   31.6090   58.0860 H   0  0  0  0  0  0  0  0  0  0  0  0
   38.5670   31.6790   57.2100 H   0  0  0  0  0  0  0  0  0  0  0  0
   37.2611   30.6935   56.3108 H   0  0  0  0  0  0  0  0  0  0  0  0
   38.2956   29.5831   57.8750 H   0  0  0  0  0  0  0  0  0  0  0  0
   37.8813   27.4711   55.4571 H   0  0  0  0  0  0  0  0  0  0  0  0
   38.9868   26.5005   52.1325 H   0  0  0  0  0  0  0  0  0  0  0  0
   39.9652   27.7141   50.4622 H   0  0  0  0  0  0  0  0  0  0  0  0
   41.4168   30.1023   49.9411 H   0  0  0  0  0  0  0  0  0  0  0  0
   39.9856   29.1140   49.3450 H   0  0  0  0  0  0  0  0  0  0  0  0
   39.6110   30.8920   48.4970 H   0  0  0  0  0  0  0  0  0  0  0  0
   38.8590   31.1440   49.9810 H   0  0  0  0  0  0  0  0  0  0  0  0
   40.3700   31.8190   49.6780 H   0  0  0  0  0  0  0  0  0  0  0  0
   39.8352   31.6567   51.8001 H   0  0  0  0  0  0  0  0  0  0  0  0
   40.3949   30.9154   54.0235 H   0  0  0  0  0  0  0  0  0  0  0  0
   38.5333   30.9485   53.5756 H   0  0  0  0  0  0  0  0  0  0  0  0
   38.7748   25.8980   54.1685 H   0  0  0  0  0  0  0  0  0  0  0  0
   40.2353   26.6137   55.0286 H   0  0  0  0  0  0  0  0  0  0  0  0
   40.2209   27.0829   57.0773 H   0  0  0  0  0  0  0  0  0  0  0  0
   38.6466   27.2085   58.0316 H   0  0  0  0  0  0  0  0  0  0  0  0
   40.1144   24.6956   57.0870 H   0  0  0  0  0  0  0  0  0  0  0  0
   39.4994   25.2205   58.7782 H   0  0  0  0  0  0  0  0  0  0  0  0
   38.4846   23.2489   57.6992 H   0  0  0  0  0  0  0  0  0  0  0  0
   37.4560   24.5399   58.3928 H   0  0  0  0  0  0  0  0  0  0  0  0
   38.1655   24.2001   55.3361 H   0  0  0  0  0  0  0  0  0  0  0  0
   36.5520   23.9366   56.0519 H   0  0  0  0  0  0  0  0  0  0  0  0
   36.6238   26.1393   55.0412 H   0  0  0  0  0  0  0  0  0  0  0  0
   36.6166   26.2825   56.8841 H   0  0  0  0  0  0  0  0  0  0  0  0
   36.0090   33.6830   58.8480 H   0  0  0  0  0  0  0  0  0  0  0  0
   35.6123   35.1048   60.6082 H   0  0  0  0  0  0  0  0  0  0  0  0
   36.6583   34.8604   61.7341 H   0  0  0  0  0  0  0  0  0  0  0  0
   37.4346   36.9912   59.1961 H   0  0  0  0  0  0  0  0  0  0  0  0
   39.1810   37.0760   61.2790 H   0  0  0  0  0  0  0  0  0  0  0  0
   37.2550   37.6054   62.6508 H   0  0  0  0  0  0  0  0  0  0  0  0
   37.5252   38.5926   61.1746 H   0  0  0  0  0  0  0  0  0  0  0  0
   36.2784   37.2995   61.1746 H   0  0  0  0  0  0  0  0  0  0  0  0
  1  2  1  0
  2  3  1  0
  3  4  1  0
  3  5  1  0
  5  6  1  0
  6  7  1  0
  7  8  1  0
  8  9  1  0
  9 10  1  0
 10 11  1  0
 11 12  1  0
 12 13  1  0
 13 14  1  0
 14 15  2  0
 15 16  1  0
 16 17  2  0
 17 18  1  0
 18 19  1  0
 19 20  1  0
 18 21  2  0
 21 22  1  0
 15 23  1  0
 23 24  1  0
 24 25  1  0
 25 26  1  0
 26 27  1  0
 27 28  1  0
 28 29  1  0
  5 30  1  0
 30 31  1  6
 30 32  1  0
 32 33  1  0
 33 34  1  0
 34 35  1  0
 34  2  1  0
 24 12  1  0
 33 30  1  0
 22 14  1  0
 29 24  1  0
  1 36  1  0
  1 37  1  0
  1 38  1  0
  2 39  1  1
  3 40  1  1
  4 41  1  0
  5 42  1  6
  6 43  1  0
  6 44  1  0
  7 45  1  0
  7 46  1  0
  8 47  1  0
  8 48  1  0
  9 49  1  0
  9 50  1  0
 10 51  1  0
 10 52  1  0
 12 53  1  6
 16 54  1  0
 17 55  1  0
 19 56  1  0
 19 57  1  0
 20 58  1  0
 20 59  1  0
 20 60  1  0
 21 61  1  0
 22 62  1  0
 22 63  1  0
 23 64  1  0
 23 65  1  0
 25 66  1  0
 25 67  1  0
 26 68  1  0
 26 69  1  0
 27 70  1  0
 27 71  1  0
 28 72  1  0
 28 73  1  0
 29 74  1  0
 29 75  1  0
 31 76  1  0
 32 77  1  0
 32 78  1  0
 33 79  1  6
 34 80  1  6
 35 81  1  0
 35 82  1  0
 35 83  1  0
M  CHG  4   6   1   9   1  20   1  34   1
M  END
>  <docking_score>  (35) 
-11.308

>  <plif_similarity>  (35) 
0.444

$$$$
DiffSBDD_54
     RDKit          3D

 42 43  0  0  0  0  0  0  0  0999 V2000
   39.9700   29.1990   50.9720 C   0  0  0  0  0  0  0  0  0  0  0  0
   39.4360   27.8530   51.1300 C   0  0  0  0  0  0  0  0  0  0  0  0
   39.2250   27.4550   52.5710 C   0  0  0  0  0  0  0  0  0  0  0  0
   38.4440   28.1410   53.5950 C   0  0  1  0  0  0  0  0  0  0  0  0
   37.5960   29.2720   54.3220 C   0  0  0  0  0  0  0  0  0  0  0  0
   38.4800   27.0250   54.7020 N   0  0  0  0  0  0  0  0  0  0  0  0
   37.4210   26.1850   54.9810 C   0  0  0  0  0  0  0  0  0  0  0  0
   37.5430   24.8120   55.6960 C   0  0  0  0  0  0  0  0  0  0  0  0
   38.6210   24.8300   56.8490 C   0  0  0  0  0  0  0  0  0  0  0  0
   39.8950   25.1380   56.4010 O   0  0  0  0  0  0  0  0  0  0  0  0
   39.8010   26.6980   55.7970 S   0  0  2  0  0  4  0  0  0  0  0  0
   39.9230   27.3370   57.3960 C   0  0  1  0  0  0  0  0  0  0  0  0
   41.3180   27.7390   58.0380 C   0  0  0  0  0  0  0  0  0  0  0  0
   38.9540   28.4960   57.7820 C   0  0  0  0  0  0  0  0  0  0  0  0
   39.0580   29.7980   58.0220 N   0  0  0  0  0  0  0  0  0  0  0  0
   37.9250   30.3190   58.2820 C   0  0  0  0  0  0  0  0  0  0  0  0
   37.1590   29.2990   58.1930 N   0  0  0  0  0  0  0  0  0  0  0  0
   37.7360   28.2300   57.8240 N   0  0  0  0  0  0  0  0  0  0  0  0
   40.1459   29.6424   51.9632 H   0  0  0  0  0  0  0  0  0  0  0  0
   40.9185   29.1543   50.4167 H   0  0  0  0  0  0  0  0  0  0  0  0
   39.2488   29.8167   50.4167 H   0  0  0  0  0  0  0  0  0  0  0  0
   38.4691   27.7984   50.6084 H   0  0  0  0  0  0  0  0  0  0  0  0
   40.1773   27.1588   50.7074 H   0  0  0  0  0  0  0  0  0  0  0  0
   38.7874   26.4471   52.5183 H   0  0  0  0  0  0  0  0  0  0  0  0
   40.2306   27.6863   52.9520 H   0  0  0  0  0  0  0  0  0  0  0  0
   39.3681   28.5622   54.0176 H   0  0  0  0  0  0  0  0  0  0  0  0
   37.6849   29.1534   55.4120 H   0  0  0  0  0  0  0  0  0  0  0  0
   37.9767   30.2614   54.0286 H   0  0  0  0  0  0  0  0  0  0  0  0
   36.5395   29.1838   54.0286 H   0  0  0  0  0  0  0  0  0  0  0  0
   36.7301   26.7778   55.5984 H   0  0  0  0  0  0  0  0  0  0  0  0
   37.1513   25.8588   53.9657 H   0  0  0  0  0  0  0  0  0  0  0  0
   36.5662   24.5508   56.1292 H   0  0  0  0  0  0  0  0  0  0  0  0
   37.8624   24.0708   54.9486 H   0  0  0  0  0  0  0  0  0  0  0  0
   38.3220   25.5807   57.5953 H   0  0  0  0  0  0  0  0  0  0  0  0
   38.6607   23.8165   57.2748 H   0  0  0  0  0  0  0  0  0  0  0  0
   40.6770   27.2180   54.8800 H   0  0  0  0  0  0  0  0  0  0  0  0
   39.6333   26.3649   57.8216 H   0  0  0  0  0  0  0  0  0  0  0  0
   41.2372   27.7157   59.1348 H   0  0  0  0  0  0  0  0  0  0  0  0
   42.0904   27.0269   57.7120 H   0  0  0  0  0  0  0  0  0  0  0  0
   41.5930   28.7530   57.7120 H   0  0  0  0  0  0  0  0  0  0  0  0
   37.6737   31.3634   58.5189 H   0  0  0  0  0  0  0  0  0  0  0  0
   37.2900   27.3280   57.6040 H   0  0  0  0  0  0  0  0  0  0  0  0
  1  2  1  0
  2  3  1  0
  3  4  1  0
  4  5  1  0
  4  6  1  0
  6  7  1  0
  7  8  1  0
  8  9  1  0
  9 10  1  0
 10 11  1  0
 11 12  1  0
 12 13  1  0
 12 14  1  0
 14 15  2  0
 15 16  1  0
 16 17  2  0
 17 18  1  0
 11  6  1  0
 18 14  1  0
  1 19  1  0
  1 20  1  0
  1 21  1  0
  2 22  1  0
  2 23  1  0
  3 24  1  0
  3 25  1  0
  4 26  1  1
  5 27  1  0
  5 28  1  0
  5 29  1  0
  7 30  1  0
  7 31  1  0
  8 32  1  0
  8 33  1  0
  9 34  1  0
  9 35  1  0
 11 36  1  6
 12 37  1  1
 13 38  1  0
 13 39  1  0
 13 40  1  0
 16 41  1  0
 18 42  1  0
M  END
>  <docking_score>  (36) 
-7.231

>  <plif_similarity>  (36) 
0.222

$$$$
DiffSBDD_55
     RDKit          3D

 39 38  0  0  0  0  0  0  0  0999 V2000
   40.7220   27.2740   57.5790 C   0  0  0  0  0  0  0  0  0  0  0  0
   39.8240   26.5300   56.6890 C   0  0  0  0  0  0  0  0  0  0  0  0
   39.2070   25.1720   57.4000 C   0  0  0  0  0  0  0  0  0  0  0  0
   39.6780   27.2410   55.2290 C   0  0  0  0  0  0  0  0  0  0  0  0
   38.7410   27.2040   53.5390 C   0  0  1  0  0  0  0  0  0  0  0  0
   37.2810   27.0710   54.0450 C   0  0  0  0  0  0  0  0  0  0  0  0
   38.6490   27.6450   51.8820 C   0  0  0  0  0  0  0  0  0  0  0  0
   39.9630   28.0610   51.4080 C   0  0  0  0  0  0  0  0  0  0  0  0
   40.0280   29.5720   51.0390 C   0  0  0  0  0  0  0  0  0  0  0  0
   39.7940   30.4820   52.3050 C   0  0  0  0  0  0  0  0  0  0  0  0
   39.5030   30.7110   53.7710 C   0  0  0  0  0  0  0  0  0  0  0  0
   38.4210   30.9500   54.7970 C   0  0  0  0  0  0  0  0  0  0  0  0
   37.8240   32.2410   54.7070 N   0  0  0  0  0  0  0  0  0  0  0  0
   40.4619   27.0585   58.6259 H   0  0  0  0  0  0  0  0  0  0  0  0
   41.7617   26.9691   57.3892 H   0  0  0  0  0  0  0  0  0  0  0  0
   40.6157   28.3523   57.3892 H   0  0  0  0  0  0  0  0  0  0  0  0
   39.2547   25.2769   58.4939 H   0  0  0  0  0  0  0  0  0  0  0  0
   38.1601   25.0390   57.0897 H   0  0  0  0  0  0  0  0  0  0  0  0
   39.7955   24.2960   57.0897 H   0  0  0  0  0  0  0  0  0  0  0  0
   40.3988   28.0711   55.1906 H   0  0  0  0  0  0  0  0  0  0  0  0
   39.6869   26.8513   53.1020 H   0  0  0  0  0  0  0  0  0  0  0  0
   37.2728   27.0703   55.1450 H   0  0  0  0  0  0  0  0  0  0  0  0
   36.6859   27.9186   53.6745 H   0  0  0  0  0  0  0  0  0  0  0  0
   36.8488   26.1298   53.6745 H   0  0  0  0  0  0  0  0  0  0  0  0
   38.3047   26.7821   51.2931 H   0  0  0  0  0  0  0  0  0  0  0  0
   37.9407   28.4787   51.7669 H   0  0  0  0  0  0  0  0  0  0  0  0
   40.7002   27.8618   52.1998 H   0  0  0  0  0  0  0  0  0  0  0  0
   40.1778   27.4899   50.4927 H   0  0  0  0  0  0  0  0  0  0  0  0
   41.0185   29.7951   50.6156 H   0  0  0  0  0  0  0  0  0  0  0  0
   39.2347   29.7849   50.3073 H   0  0  0  0  0  0  0  0  0  0  0  0
   40.7349   31.0493   52.2527 H   0  0  0  0  0  0  0  0  0  0  0  0
   38.7121   30.3620   52.1463 H   0  0  0  0  0  0  0  0  0  0  0  0
   39.9791   29.8176   54.2013 H   0  0  0  0  0  0  0  0  0  0  0  0
   39.6258   31.7956   53.6350 H   0  0  0  0  0  0  0  0  0  0  0  0
   37.6353   30.1931   54.6565 H   0  0  0  0  0  0  0  0  0  0  0  0
   38.8951   30.8824   55.7873 H   0  0  0  0  0  0  0  0  0  0  0  0
   37.5320   32.5510   55.6450 H   0  0  0  0  0  0  0  0  0  0  0  0
   38.5070   32.9100   54.3230 H   0  0  0  0  0  0  0  0  0  0  0  0
   37.0020   32.1970   54.0890 H   0  0  0  0  0  0  0  0  0  0  0  0
  1  2  1  0
  2  3  1  0
  2  4  2  0
  4  5  1  0
  5  6  1  0
  5  7  1  0
  7  8  1  0
  8  9  1  0
  9 10  1  0
 10 11  1  0
 11 12  1  0
 12 13  1  0
  1 14  1  0
  1 15  1  0
  1 16  1  0
  3 17  1  0
  3 18  1  0
  3 19  1  0
  4 20  1  0
  5 21  1  6
  6 22  1  0
  6 23  1  0
  6 24  1  0
  7 25  1  0
  7 26  1  0
  8 27  1  0
  8 28  1  0
  9 29  1  0
  9 30  1  0
 10 31  1  0
 10 32  1  0
 11 33  1  0
 11 34  1  0
 12 35  1  0
 12 36  1  0
 13 37  1  0
 13 38  1  0
 13 39  1  0
M  CHG  1  13   1
M  END
>  <docking_score>  (37) 
-6.675

>  <plif_similarity>  (37) 
0.444

$$$$
DiffSBDD_56
     RDKit          3D

 72 77  0  0  0  0  0  0  0  0999 V2000
   38.4920   25.5730   55.3350 C   0  0  0  0  0  0  0  0  0  0  0  0
   37.5590   26.7490   55.1190 C   0  0  0  0  0  0  0  0  0  0  0  0
   38.1560   27.9370   55.8070 C   0  0  1  0  0  0  0  0  0  0  0  0
   39.1540   28.4400   56.8300 C   0  0  0  0  0  0  0  0  0  0  0  0
   39.0060   29.9370   57.0790 C   0  0  2  0  0  0  0  0  0  0  0  0
   37.8650   30.0790   58.0830 C   0  0  0  0  0  0  0  0  0  0  0  0
   37.7720   31.2140   59.0640 N   0  0  0  0  0  0  0  0  0  0  0  0
   37.6410   30.9310   60.2900 C   0  0  0  0  0  0  0  0  0  0  0  0
   39.3900   30.4830   61.0450 S   0  0  0  0  0  0  0  0  0  0  0  0
   40.5850   31.0570   62.1840 C   0  0  0  0  0  0  0  0  0  0  0  0
   41.3120   30.1320   62.9550 C   0  0  0  0  0  0  0  0  0  0  0  0
   42.0430   30.4900   64.1140 C   0  0  0  0  0  0  0  0  0  0  0  0
   42.1630   31.8480   64.4900 C   0  0  0  0  0  0  0  0  0  0  0  0
   42.8180   32.2270   65.5720 O   0  0  0  0  0  0  0  0  0  0  0  0
   43.5130   32.3490   66.5550 C   0  0  0  0  0  0  0  0  0  0  0  0
   41.5760   32.8080   63.6130 C   0  0  0  0  0  0  0  0  0  0  0  0
   41.4970   34.1310   63.6660 C   0  0  0  0  0  0  0  0  0  0  0  0
   42.0400   35.0210   64.6240 C   0  0  0  0  0  0  0  0  0  0  0  0
   42.0510   36.3140   63.8430 O   0  0  0  0  0  0  0  0  0  0  0  0
   40.7300   34.5100   62.6020 C   0  0  0  0  0  0  0  0  0  0  0  0
   40.3890   33.4250   61.9160 C   0  0  0  0  0  0  0  0  0  0  0  0
   40.8540   32.2940   62.4980 N   0  0  0  0  0  0  0  0  0  0  0  0
   38.6410   32.3880   58.8220 C   0  0  0  0  0  0  0  0  0  0  0  0
   38.5830   33.1120   57.5570 C   0  0  0  0  0  0  0  0  0  0  0  0
   38.2510   32.6330   56.3080 C   0  0  0  0  0  0  0  0  0  0  0  0
   38.3230   31.7760   55.2300 C   0  0  0  0  0  0  0  0  0  0  0  0
   38.6020   30.3230   55.6740 C   0  0  2  0  0  0  0  0  0  0  0  0
   37.8500   29.2250   54.9540 C   0  0  1  0  0  0  0  0  0  0  0  0
   38.5030   28.9520   53.8290 N   0  0  0  0  0  0  0  0  0  0  0  0
   39.2750   29.7190   53.3310 C   0  0  0  0  0  0  0  0  0  0  0  0
   39.9210   30.5140   52.3640 C   0  0  0  0  0  0  0  0  0  0  0  0
   40.1860   29.9810   51.1290 C   0  0  0  0  0  0  0  0  0  0  0  0
   40.8210   30.6830   50.1480 F   0  0  0  0  0  0  0  0  0  0  0  0
   39.9930   28.7190   50.7440 C   0  0  0  0  0  0  0  0  0  0  0  0
   40.3400   28.3160   49.5510 F   0  0  0  0  0  0  0  0  0  0  0  0
   39.3300   27.8100   51.6150 C   0  0  0  0  0  0  0  0  0  0  0  0
   38.7910   28.3470   52.7590 C   0  0  0  0  0  0  0  0  0  0  0  0
   38.6258   25.4044   56.4137 H   0  0  0  0  0  0  0  0  0  0  0  0
   38.0599   24.6726   54.8740 H   0  0  0  0  0  0  0  0  0  0  0  0
   39.4671   25.7890   54.8740 H   0  0  0  0  0  0  0  0  0  0  0  0
   37.4556   26.9523   54.0429 H   0  0  0  0  0  0  0  0  0  0  0  0
   36.5615   26.5289   55.5270 H   0  0  0  0  0  0  0  0  0  0  0  0
   38.0079   27.1329   56.5428 H   0  0  0  0  0  0  0  0  0  0  0  0
   38.9933   27.9042   57.7771 H   0  0  0  0  0  0  0  0  0  0  0  0
   40.1656   28.2575   56.4384 H   0  0  0  0  0  0  0  0  0  0  0  0
   39.8494   30.5192   57.4786 H   0  0  0  0  0  0  0  0  0  0  0  0
   36.9409   30.1171   57.4876 H   0  0  0  0  0  0  0  0  0  0  0  0
   38.0541   29.2263   58.7517 H   0  0  0  0  0  0  0  0  0  0  0  0
   37.2219   31.7968   60.8236 H   0  0  0  0  0  0  0  0  0  0  0  0
   36.9633   30.0713   60.3980 H   0  0  0  0  0  0  0  0  0  0  0  0
   41.3128   29.0775   62.6420 H   0  0  0  0  0  0  0  0  0  0  0  0
   42.5194   29.7085   64.7242 H   0  0  0  0  0  0  0  0  0  0  0  0
   42.8938   32.2403   67.4576 H   0  0  0  0  0  0  0  0  0  0  0  0
   44.2938   31.5742   66.5505 H   0  0  0  0  0  0  0  0  0  0  0  0
   43.9832   33.3434   66.5505 H   0  0  0  0  0  0  0  0  0  0  0  0
   41.4006   35.0934   65.5161 H   0  0  0  0  0  0  0  0  0  0  0  0
   43.0225   34.7202   65.0166 H   0  0  0  0  0  0  0  0  0  0  0  0
   42.2500   36.1230   62.8920 H   0  0  0  0  0  0  0  0  0  0  0  0
   40.4423   35.5424   62.3541 H   0  0  0  0  0  0  0  0  0  0  0  0
   39.8000   33.4429   60.9872 H   0  0  0  0  0  0  0  0  0  0  0  0
   38.4097   33.1177   59.6120 H   0  0  0  0  0  0  0  0  0  0  0  0
   39.6484   31.9466   58.8047 H   0  0  0  0  0  0  0  0  0  0  0  0
   37.8676   33.9276   57.7386 H   0  0  0  0  0  0  0  0  0  0  0  0
   39.6635   33.2419   57.3969 H   0  0  0  0  0  0  0  0  0  0  0  0
   37.1704   32.5319   56.4868 H   0  0  0  0  0  0  0  0  0  0  0  0
   39.1629   33.1170   55.9282 H   0  0  0  0  0  0  0  0  0  0  0  0
   37.3671   31.8055   54.6865 H   0  0  0  0  0  0  0  0  0  0  0  0
   39.1525   32.1034   54.5860 H   0  0  0  0  0  0  0  0  0  0  0  0
   39.6176   30.4228   55.2634 H   0  0  0  0  0  0  0  0  0  0  0  0
   36.7936   29.4908   54.8012 H   0  0  0  0  0  0  0  0  0  0  0  0
   40.2093   31.5497   52.5969 H   0  0  0  0  0  0  0  0  0  0  0  0
   39.2533   26.7370   51.3852 H   0  0  0  0  0  0  0  0  0  0  0  0
  1  2  1  0
  2  3  1  0
  3  4  1  0
  4  5  1  0
  5  6  1  0
  6  7  1  0
  7  8  1  0
  8  9  1  0
  9 10  1  0
 10 11  2  0
 11 12  1  0
 12 13  2  0
 13 14  1  0
 14 15  1  0
 13 16  1  0
 16 17  2  0
 17 18  1  0
 18 19  1  0
 17 20  1  0
 20 21  2  0
 21 22  1  0
  7 23  1  0
 23 24  1  0
 24 25  1  0
 25 26  1  0
 26 27  1  0
 27 28  1  0
 28 29  1  0
 29 30  1  0
 30 31  1  0
 31 32  2  0
 32 33  1  0
 32 34  1  0
 34 35  1  0
 34 36  2  0
 36 37  1  0
 28  3  1  0
 37 29  1  0
 27  5  1  0
 37 30  2  0
 22 10  1  0
 22 16  1  0
  1 38  1  0
  1 39  1  0
  1 40  1  0
  2 41  1  0
  2 42  1  0
  3 43  1  1
  4 44  1  0
  4 45  1  0
  5 46  1  1
  6 47  1  0
  6 48  1  0
  8 49  1  0
  8 50  1  0
 11 51  1  0
 12 52  1  0
 15 53  1  0
 15 54  1  0
 15 55  1  0
 18 56  1  0
 18 57  1  0
 19 58  1  0
 20 59  1  0
 21 60  1  0
 23 61  1  0
 23 62  1  0
 24 63  1  0
 24 64  1  0
 25 65  1  0
 25 66  1  0
 26 67  1  0
 26 68  1  0
 27 69  1  6
 28 70  1  6
 31 71  1  0
 36 72  1  0
M  END
>  <docking_score>  (38) 
-11.677

>  <plif_similarity>  (38) 
0.667

$$$$
DiffSBDD_57
     RDKit          3D

 65 67  0  0  0  0  0  0  0  0999 V2000
   40.4850   30.0450   50.8950 C   0  0  0  0  0  0  0  0  0  0  0  0
   39.7010   28.9650   51.4420 C   0  0  0  0  0  0  0  0  0  0  0  0
   39.5390   27.7990   50.8320 N   0  0  0  0  0  0  0  0  0  0  0  0
   39.0680   29.1790   52.8070 C   0  0  0  0  0  0  0  0  0  0  0  0
   39.4250   30.3240   53.6090 C   0  0  0  0  0  0  0  0  0  0  0  0
   38.6190   30.7530   54.7980 C   0  0  0  0  0  0  0  0  0  0  0  0
   37.5280   31.2020   54.6490 O   0  0  0  0  0  0  0  0  0  0  0  0
   39.2610   30.7510   56.1570 C   0  0  0  0  0  0  0  0  0  0  0  0
   39.1880   29.3210   56.9590 C   0  0  1  0  0  0  0  0  0  0  0  0
   37.9100   28.4320   56.5020 C   0  0  0  0  0  0  0  0  0  0  0  0
   40.4310   28.4130   56.7460 C   0  0  0  0  0  0  0  0  0  0  0  0
   40.4930   27.5230   57.9430 C   0  0  0  0  0  0  0  0  0  0  0  0
   39.3390   28.0290   59.1770 S   0  0  0  0  0  0  0  0  0  0  0  0
   39.0100   29.7130   58.3670 C   0  0  2  0  0  0  0  0  0  0  0  0
   37.7240   30.4930   58.9370 C   0  0  0  0  0  0  0  0  0  0  0  0
   37.5860   30.9240   60.2620 C   0  0  0  0  0  0  0  0  0  0  0  0
   38.4140   30.9230   61.3690 N   0  0  0  0  0  0  0  0  0  0  0  0
   39.5810   31.4740   61.4360 C   0  0  0  0  0  0  0  0  0  0  0  0
   40.7550   30.6890   61.1930 O   0  0  0  0  0  0  0  0  0  0  0  0
   39.9070   32.8240   62.1040 C   0  0  1  0  0  0  0  0  0  0  0  0
   40.7910   33.7080   63.4430 Cl  0  0  0  0  0  0  0  0  0  0  0  0
   39.9430   33.8610   60.9190 C   0  0  2  0  0  0  0  0  0  0  0  0
   39.9810   35.3390   61.1030 C   0  0  0  0  0  0  0  0  0  0  0  0
   39.0080   34.8040   60.0260 C   0  0  2  0  0  0  0  0  0  0  0  0
   37.4520   34.8270   60.0810 C   0  0  1  0  0  0  0  0  0  0  0  0
   36.7540   36.0470   60.2900 C   0  0  0  0  0  0  0  0  0  0  0  0
   36.7690   36.7750   59.2360 O   0  0  0  0  0  0  0  0  0  0  0  0
   36.6330   34.1650   59.5040 N   0  0  0  0  0  0  0  0  0  0  0  0
   37.2240   34.0410   58.3920 O   0  0  0  0  0  0  0  0  0  0  0  0
   38.0030   28.3440   53.2190 C   0  0  1  0  0  0  0  0  0  0  0  0
   36.8130   28.2670   52.4870 O   0  0  0  0  0  0  0  0  0  0  0  0
   37.2930   27.4120   53.1990 N   0  0  0  0  0  0  0  0  0  0  0  0
   37.2000   26.3470   53.6840 O   0  0  0  0  0  0  0  0  0  0  0  0
   40.9154   30.6379   51.7156 H   0  0  0  0  0  0  0  0  0  0  0  0
   41.2956   29.6328   50.2761 H   0  0  0  0  0  0  0  0  0  0  0  0
   39.8420   30.6880   50.2761 H   0  0  0  0  0  0  0  0  0  0  0  0
   39.9610   27.6390   49.9070 H   0  0  0  0  0  0  0  0  0  0  0  0
   38.9900   27.0540   51.2840 H   0  0  0  0  0  0  0  0  0  0  0  0
   40.3204   30.9028   53.3384 H   0  0  0  0  0  0  0  0  0  0  0  0
   40.3207   31.0189   56.0337 H   0  0  0  0  0  0  0  0  0  0  0  0
   38.6948   31.4723   56.7645 H   0  0  0  0  0  0  0  0  0  0  0  0
   37.3814   28.0643   57.3938 H   0  0  0  0  0  0  0  0  0  0  0  0
   37.2282   29.0518   55.9012 H   0  0  0  0  0  0  0  0  0  0  0  0
   38.2540   27.5772   55.9012 H   0  0  0  0  0  0  0  0  0  0  0  0
   40.3166   27.8154   55.8296 H   0  0  0  0  0  0  0  0  0  0  0  0
   41.3511   29.0053   56.6331 H   0  0  0  0  0  0  0  0  0  0  0  0
   40.2607   26.4926   57.6360 H   0  0  0  0  0  0  0  0  0  0  0  0
   41.5056   27.5829   58.3686 H   0  0  0  0  0  0  0  0  0  0  0  0
   39.6590   30.5722   58.5918 H   0  0  0  0  0  0  0  0  0  0  0  0
   36.8988   30.7015   58.2402 H   0  0  0  0  0  0  0  0  0  0  0  0
   36.5979   31.3611   60.4682 H   0  0  0  0  0  0  0  0  0  0  0  0
   38.0710   30.4410   62.2120 H   0  0  0  0  0  0  0  0  0  0  0  0
   39.3708   32.3406   62.9339 H   0  0  0  0  0  0  0  0  0  0  0  0
   40.5061   32.9675   60.6113 H   0  0  0  0  0  0  0  0  0  0  0  0
   39.5756   35.7787   62.0262 H   0  0  0  0  0  0  0  0  0  0  0  0
   40.7916   36.0824   61.0875 H   0  0  0  0  0  0  0  0  0  0  0  0
   38.8306   34.9935   58.9571 H   0  0  0  0  0  0  0  0  0  0  0  0
   37.8334   34.1858   60.8894 H   0  0  0  0  0  0  0  0  0  0  0  0
   35.7106   35.8225   60.5564 H   0  0  0  0  0  0  0  0  0  0  0  0
   37.2511   36.5984   61.1017 H   0  0  0  0  0  0  0  0  0  0  0  0
   36.0590   36.4720   58.6160 H   0  0  0  0  0  0  0  0  0  0  0  0
   36.4800   33.2550   59.9630 H   0  0  0  0  0  0  0  0  0  0  0  0
   36.5800   34.2000   57.6570 H   0  0  0  0  0  0  0  0  0  0  0  0
   38.6941   28.5995   54.0358 H   0  0  0  0  0  0  0  0  0  0  0  0
   38.0900   25.9140   53.7040 H   0  0  0  0  0  0  0  0  0  0  0  0
  1  2  1  0
  2  3  2  0
  2  4  1  0
  4  5  2  3
  5  6  1  0
  6  7  2  0
  6  8  1  0
  9  8  1  6
  9 10  1  0
  9 11  1  0
 11 12  1  0
 12 13  1  0
 13 14  1  0
 14 15  1  0
 15 16  2  3
 16 17  1  0
 17 18  1  0
 18 19  2  0
 18 20  1  0
 20 21  1  0
 20 22  1  0
 22 23  1  0
 23 24  1  0
 24 25  1  0
 25 26  1  0
 26 27  1  0
 25 28  1  0
 28 29  1  0
  4 30  1  0
 30 31  1  0
 31 32  1  0
 32 33  1  0
 14  9  1  0
 24 22  1  0
 32 30  1  0
  1 34  1  0
  1 35  1  0
  1 36  1  0
  3 37  1  0
  3 38  1  0
  5 39  1  0
  8 40  1  0
  8 41  1  0
 10 42  1  0
 10 43  1  0
 10 44  1  0
 11 45  1  0
 11 46  1  0
 12 47  1  0
 12 48  1  0
 14 49  1  1
 15 50  1  0
 16 51  1  0
 17 52  1  0
 20 53  1  1
 22 54  1  6
 23 55  1  0
 23 56  1  0
 24 57  1  6
 25 58  1  1
 26 59  1  0
 26 60  1  0
 27 61  1  0
 28 62  1  0
 29 63  1  0
 30 64  1  1
 33 65  1  0
M  CHG  1   3   1
M  END
>  <docking_score>  (39) 
-9.298

>  <plif_similarity>  (39) 
0.222

$$$$
DiffSBDD_58
     RDKit          3D

 76 76  0  0  0  0  0  0  0  0999 V2000
   39.9640   32.4370   62.5390 C   0  0  0  0  0  0  0  0  0  0  0  0
   39.9880   32.3290   61.1750 C   0  0  0  0  0  0  0  0  0  0  0  0
   39.1690   31.5720   60.4030 C   0  0  0  0  0  0  0  0  0  0  0  0
   39.2250   30.1590   60.5870 C   0  0  0  0  0  0  0  0  0  0  0  0
   38.7870   28.6730   60.4570 C   0  0  0  0  0  0  0  0  0  0  0  0
   39.4220   27.6590   59.7270 C   0  0  0  0  0  0  0  0  0  0  0  0
   39.0410   27.5900   58.2380 C   0  0  2  0  0  0  0  0  0  0  0  0
   38.3720   26.2300   58.0160 C   0  0  0  0  0  0  0  0  0  0  0  0
   39.1480   25.6900   56.9220 C   0  0  1  0  0  0  0  0  0  0  0  0
   40.0820   24.7590   57.4560 O   0  0  0  0  0  0  0  0  0  0  0  0
   38.5850   25.2370   55.5770 C   0  0  1  0  0  0  0  0  0  0  0  0
   37.0550   25.1630   55.6440 C   0  0  0  0  0  0  0  0  0  0  0  0
   38.9960   26.1960   54.6230 N   0  0  0  0  0  0  0  0  0  0  0  0
   37.9900   26.9100   54.1930 C   0  0  0  0  0  0  0  0  0  0  0  0
   38.1590   28.2490   53.5420 C   0  0  1  0  0  0  0  0  0  0  0  0
   37.0130   29.3010   54.3370 C   0  0  0  0  0  0  0  0  0  0  0  0
   38.8720   28.8220   52.6580 C   0  0  0  0  0  0  0  0  0  0  0  0
   39.4110   29.9430   52.8960 N   0  0  0  0  0  0  0  0  0  0  0  0
   40.2250   30.5860   52.0930 C   0  0  0  0  0  0  0  0  0  0  0  0
   40.2200   30.2300   50.7300 C   0  0  0  0  0  0  0  0  0  0  0  0
   39.6720   28.9870   50.3600 N   0  0  0  0  0  0  0  0  0  0  0  0
   39.0720   28.2320   51.3250 C   0  0  0  0  0  0  0  0  0  0  0  0
   38.7160   27.0070   50.9290 N   0  0  0  0  0  0  0  0  0  0  0  0
   40.2720   27.9080   57.6140 C   0  0  0  0  0  0  0  0  0  0  0  0
   40.1850   28.9390   56.3290 C   0  0  0  0  0  0  0  0  0  0  0  0
   41.9080   27.7600   57.7920 C   0  0  0  0  0  0  0  0  0  0  0  0
   38.4090   32.1680   59.2000 C   0  0  2  0  0  0  0  0  0  0  0  0
   37.8820   33.5410   59.6490 C   0  0  0  0  0  0  0  0  0  0  0  0
   36.5400   33.5020   59.2330 O   0  0  0  0  0  0  0  0  0  0  0  0
   38.3780   31.5360   58.0570 C   0  0  1  0  0  0  0  0  0  0  0  0
   37.2060   30.6740   57.9050 O   0  0  0  0  0  0  0  0  0  0  0  0
   38.7920   32.2430   56.7400 C   0  0  0  0  0  0  0  0  0  0  0  0
   37.7780   33.5120   56.5740 O   0  0  0  0  0  0  0  0  0  0  0  0
   40.6864   33.0890   63.0519 H   0  0  0  0  0  0  0  0  0  0  0  0
   39.2223   31.8719   63.1225 H   0  0  0  0  0  0  0  0  0  0  0  0
   40.7529   32.9189   60.6487 H   0  0  0  0  0  0  0  0  0  0  0  0
   37.8748   28.3845   60.9998 H   0  0  0  0  0  0  0  0  0  0  0  0
   40.5081   27.8202   59.7937 H   0  0  0  0  0  0  0  0  0  0  0  0
   39.0919   26.7087   60.1719 H   0  0  0  0  0  0  0  0  0  0  0  0
   38.2896   28.2733   57.8156 H   0  0  0  0  0  0  0  0  0  0  0  0
   38.4481   25.5959   58.9116 H   0  0  0  0  0  0  0  0  0  0  0  0
   37.2940   26.2942   57.8067 H   0  0  0  0  0  0  0  0  0  0  0  0
   39.5524   26.6282   56.5142 H   0  0  0  0  0  0  0  0  0  0  0  0
   40.2440   24.9650   58.4100 H   0  0  0  0  0  0  0  0  0  0  0  0
   38.9508   24.2353   55.3070 H   0  0  0  0  0  0  0  0  0  0  0  0
   36.7344   25.1475   56.6961 H   0  0  0  0  0  0  0  0  0  0  0  0
   36.6231   26.0413   55.1420 H   0  0  0  0  0  0  0  0  0  0  0  0
   36.7099   24.2471   55.1420 H   0  0  0  0  0  0  0  0  0  0  0  0
   39.4260   25.7090   53.8240 H   0  0  0  0  0  0  0  0  0  0  0  0
   39.6720   26.8290   55.0730 H   0  0  0  0  0  0  0  0  0  0  0  0
   37.4633   26.2811   53.4602 H   0  0  0  0  0  0  0  0  0  0  0  0
   37.4959   27.1848   55.1366 H   0  0  0  0  0  0  0  0  0  0  0  0
   37.3963   27.9823   52.7955 H   0  0  0  0  0  0  0  0  0  0  0  0
   37.1201   29.2026   55.4273 H   0  0  0  0  0  0  0  0  0  0  0  0
   37.2060   30.3430   54.0421 H   0  0  0  0  0  0  0  0  0  0  0  0
   35.9913   29.0197   54.0421 H   0  0  0  0  0  0  0  0  0  0  0  0
   40.8894   31.3769   52.4714 H   0  0  0  0  0  0  0  0  0  0  0  0
   40.6355   30.9089   49.9708 H   0  0  0  0  0  0  0  0  0  0  0  0
   38.4510   26.2970   51.6270 H   0  0  0  0  0  0  0  0  0  0  0  0
   38.7070   26.7730   49.9260 H   0  0  0  0  0  0  0  0  0  0  0  0
   40.1491   27.0513   56.9350 H   0  0  0  0  0  0  0  0  0  0  0  0
   40.0977   29.9731   56.6938 H   0  0  0  0  0  0  0  0  0  0  0  0
   41.0946   28.8412   55.7182 H   0  0  0  0  0  0  0  0  0  0  0  0
   39.3047   28.6902   55.7182 H   0  0  0  0  0  0  0  0  0  0  0  0
   42.1598   27.7372   58.8626 H   0  0  0  0  0  0  0  0  0  0  0  0
   42.2458   26.8276   57.3160 H   0  0  0  0  0  0  0  0  0  0  0  0
   42.4076   28.6166   57.3160 H   0  0  0  0  0  0  0  0  0  0  0  0
   39.3378   32.6399   58.8470 H   0  0  0  0  0  0  0  0  0  0  0  0
   37.9568   33.6582   60.7402 H   0  0  0  0  0  0  0  0  0  0  0  0
   38.4470   34.3864   59.2294 H   0  0  0  0  0  0  0  0  0  0  0  0
   36.4120   32.7520   58.6010 H   0  0  0  0  0  0  0  0  0  0  0  0
   39.2779   30.9186   58.1947 H   0  0  0  0  0  0  0  0  0  0  0  0
   36.9930   30.2500   58.7740 H   0  0  0  0  0  0  0  0  0  0  0  0
   39.8334   32.5914   56.8040 H   0  0  0  0  0  0  0  0  0  0  0  0
   38.7292   31.5611   55.8791 H   0  0  0  0  0  0  0  0  0  0  0  0
   37.3210   33.6840   57.4340 H   0  0  0  0  0  0  0  0  0  0  0  0
  1  2  2  0
  2  3  1  0
  3  4  2  0
  4  5  2  0
  5  6  1  0
  6  7  1  0
  7  8  1  0
  8  9  1  0
  9 10  1  0
  9 11  1  0
 11 12  1  0
 11 13  1  0
 13 14  1  0
 14 15  1  0
 15 16  1  0
 15 17  1  0
 17 18  1  0
 18 19  2  0
 19 20  1  0
 20 21  2  0
 21 22  1  0
 22 23  1  0
  7 24  1  0
 24 25  1  0
 24 26  1  0
  3 27  1  0
 27 28  1  0
 28 29  1  0
 27 30  1  0
 30 31  1  0
 30 32  1  0
 32 33  1  0
 22 17  2  0
  1 34  1  0
  1 35  1  0
  2 36  1  0
  5 37  1  0
  6 38  1  0
  6 39  1  0
  7 40  1  1
  8 41  1  0
  8 42  1  0
  9 43  1  6
 10 44  1  0
 11 45  1  6
 12 46  1  0
 12 47  1  0
 12 48  1  0
 13 49  1  0
 13 50  1  0
 14 51  1  0
 14 52  1  0
 15 53  1  6
 16 54  1  0
 16 55  1  0
 16 56  1  0
 19 57  1  0
 20 58  1  0
 23 59  1  0
 23 60  1  0
 24 61  1  0
 25 62  1  0
 25 63  1  0
 25 64  1  0
 26 65  1  0
 26 66  1  0
 26 67  1  0
 27 68  1  1
 28 69  1  0
 28 70  1  0
 29 71  1  0
 30 72  1  1
 31 73  1  0
 32 74  1  0
 32 75  1  0
 33 76  1  0
M  CHG  1  13   1
M  END
>  <docking_score>  (40) 
-8.334

>  <plif_similarity>  (40) 
0.333

$$$$
DiffSBDD_59
     RDKit          3D

 70 72  0  0  0  0  0  0  0  0999 V2000
   36.1670   34.2400   58.8640 N   0  0  0  0  0  0  0  0  0  0  0  0
   37.0340   34.9800   59.5970 C   0  0  0  0  0  0  0  0  0  0  0  0
   36.7320   36.1700   59.9600 O   0  0  0  0  0  0  0  0  0  0  0  0
   38.4390   34.4530   60.0660 C   0  0  0  0  0  0  0  0  0  0  0  0
   39.4330   33.3440   59.7460 C   0  0  0  0  0  0  0  0  0  0  0  0
   38.7290   32.0670   60.3340 C   0  0  2  0  0  0  0  0  0  0  0  0
   39.1800   30.7180   60.0110 N   0  0  0  0  0  0  0  0  0  0  0  0
   38.9940   29.8010   61.1120 C   0  0  0  0  0  0  0  0  0  0  0  0
   40.1380   28.8430   61.1350 C   0  0  2  0  0  0  0  0  0  0  0  0
   41.2580   29.5460   61.6860 O   0  0  0  0  0  0  0  0  0  0  0  0
   40.2970   28.2090   59.7340 C   0  0  2  0  0  0  0  0  0  0  0  0
   41.5910   28.5140   59.2730 O   0  0  0  0  0  0  0  0  0  0  0  0
   39.0650   28.5040   58.8700 C   0  0  2  0  0  0  0  0  0  0  0  0
   38.8970   27.5680   57.6950 C   0  0  0  0  0  0  0  0  0  0  0  0
   38.5000   26.0900   57.8720 C   0  0  0  0  0  0  0  0  0  0  0  0
   37.2710   25.6880   57.0110 C   0  0  0  0  0  0  0  0  0  0  0  0
   37.6680   25.2090   55.6020 C   0  0  0  0  0  0  0  0  0  0  0  0
   37.4920   26.3570   54.6180 C   0  0  0  0  0  0  0  0  0  0  0  0
   38.7470   26.5510   53.7350 C   0  0  2  0  0  0  0  0  0  0  0  0
   40.2050   25.9690   54.6420 Cl  0  0  0  0  0  0  0  0  0  0  0  0
   39.0500   27.8940   53.1690 C   0  0  0  0  0  0  0  0  0  0  0  0
   39.0120   29.0980   53.8960 C   0  0  0  0  0  0  0  0  0  0  0  0
   39.4470   30.2950   53.3490 C   0  0  0  0  0  0  0  0  0  0  0  0
   39.9870   30.6030   52.1260 C   0  0  0  0  0  0  0  0  0  0  0  0
   40.1680   29.9640   50.9760 C   0  0  0  0  0  0  0  0  0  0  0  0
   40.7790   30.6000   49.9170 F   0  0  0  0  0  0  0  0  0  0  0  0
   39.8330   28.6480   50.7870 C   0  0  0  0  0  0  0  0  0  0  0  0
   39.3680   27.8550   51.8230 C   0  0  0  0  0  0  0  0  0  0  0  0
   38.7450   29.9850   58.8360 C   0  0  1  0  0  0  0  0  0  0  0  0
   37.7780   30.4750   57.7890 C   0  0  0  0  0  0  0  0  0  0  0  0
   38.3590   31.2270   56.6860 C   0  0  0  0  0  0  0  0  0  0  0  0
   37.7980   32.5410   56.9090 O   0  0  0  0  0  0  0  0  0  0  0  0
   37.4370   32.7210   61.5300 S   0  0  0  0  0  0  0  0  0  0  0  0
   38.3170   34.2150   61.5680 C   0  0  0  0  0  0  0  0  0  0  0  0
   39.4520   34.9530   62.1010 O   0  0  0  0  0  0  0  0  0  0  0  0
   36.4200   33.2840   58.5770 H   0  0  0  0  0  0  0  0  0  0  0  0
   35.2540   34.6340   58.5940 H   0  0  0  0  0  0  0  0  0  0  0  0
   39.5849   33.2487   58.6607 H   0  0  0  0  0  0  0  0  0  0  0  0
   40.4344   33.5217   60.1650 H   0  0  0  0  0  0  0  0  0  0  0  0
   39.4109   32.0884   61.1969 H   0  0  0  0  0  0  0  0  0  0  0  0
   38.9608   30.3607   62.0584 H   0  0  0  0  0  0  0  0  0  0  0  0
   38.0484   29.2528   60.9877 H   0  0  0  0  0  0  0  0  0  0  0  0
   39.9950   27.9676   61.7856 H   0  0  0  0  0  0  0  0  0  0  0  0
   40.9440   30.1640   62.3920 H   0  0  0  0  0  0  0  0  0  0  0  0
   40.2791   27.1093   59.7137 H   0  0  0  0  0  0  0  0  0  0  0  0
   42.0650   27.6760   59.0440 H   0  0  0  0  0  0  0  0  0  0  0  0
   38.1216   28.1793   59.3333 H   0  0  0  0  0  0  0  0  0  0  0  0
   38.1260   28.0179   57.0522 H   0  0  0  0  0  0  0  0  0  0  0  0
   39.9279   27.4843   57.3205 H   0  0  0  0  0  0  0  0  0  0  0  0
   39.3536   25.4599   57.5815 H   0  0  0  0  0  0  0  0  0  0  0  0
   38.2257   25.9455   58.9274 H   0  0  0  0  0  0  0  0  0  0  0  0
   36.7337   24.8751   57.5214 H   0  0  0  0  0  0  0  0  0  0  0  0
   36.6388   26.5806   56.8943 H   0  0  0  0  0  0  0  0  0  0  0  0
   38.7191   24.8848   55.6057 H   0  0  0  0  0  0  0  0  0  0  0  0
   37.0296   24.3642   55.3041 H   0  0  0  0  0  0  0  0  0  0  0  0
   36.6298   26.1418   53.9697 H   0  0  0  0  0  0  0  0  0  0  0  0
   37.3316   27.2805   55.1936 H   0  0  0  0  0  0  0  0  0  0  0  0
   38.4931   25.9616   52.8416 H   0  0  0  0  0  0  0  0  0  0  0  0
   38.6267   29.0891   54.9263 H   0  0  0  0  0  0  0  0  0  0  0  0
   39.3391   31.1593   54.0209 H   0  0  0  0  0  0  0  0  0  0  0  0
   40.3636   31.6358   52.0887 H   0  0  0  0  0  0  0  0  0  0  0  0
   39.9365   28.2093   49.7836 H   0  0  0  0  0  0  0  0  0  0  0  0
   38.4201   27.4941   51.3973 H   0  0  0  0  0  0  0  0  0  0  0  0
   40.3823   27.4891   52.0406 H   0  0  0  0  0  0  0  0  0  0  0  0
   39.3447   30.6594   58.2071 H   0  0  0  0  0  0  0  0  0  0  0  0
   37.2669   29.5976   57.3659 H   0  0  0  0  0  0  0  0  0  0  0  0
   37.1099   31.1781   58.3080 H   0  0  0  0  0  0  0  0  0  0  0  0
   39.4573   31.2433   56.7447 H   0  0  0  0  0  0  0  0  0  0  0  0
   38.1413   30.8081   55.6925 H   0  0  0  0  0  0  0  0  0  0  0  0
   36.8320   32.5300   56.6890 H   0  0  0  0  0  0  0  0  0  0  0  0
  1  2  1  0
  2  3  2  0
  2  4  1  0
  4  5  1  0
  5  6  1  0
  6  7  1  0
  7  8  1  0
  8  9  1  0
  9 10  1  0
  9 11  1  0
 11 12  1  0
 11 13  1  0
 13 14  1  0
 14 15  1  0
 15 16  1  0
 16 17  1  0
 17 18  1  0
 18 19  1  0
 19 20  1  0
 19 21  1  0
 21 22  2  0
 22 23  1  0
 23 24  2  0
 24 25  1  0
 25 26  1  0
 25 27  2  0
 27 28  1  0
 13 29  1  0
 29 30  1  0
 30 31  1  0
 31 32  1  0
  6 33  1  0
 33 34  1  0
 34 35  2  0
 34  4  1  0
 29  7  1  0
 28 21  1  0
  1 36  1  0
  1 37  1  0
  5 38  1  0
  5 39  1  0
  6 40  1  6
  8 41  1  0
  8 42  1  0
  9 43  1  1
 10 44  1  0
 11 45  1  1
 12 46  1  0
 13 47  1  1
 14 48  1  0
 14 49  1  0
 15 50  1  0
 15 51  1  0
 16 52  1  0
 16 53  1  0
 17 54  1  0
 17 55  1  0
 18 56  1  0
 18 57  1  0
 19 58  1  6
 22 59  1  0
 23 60  1  0
 24 61  1  0
 27 62  1  0
 28 63  1  0
 28 64  1  0
 29 65  1  6
 30 66  1  0
 30 67  1  0
 31 68  1  0
 31 69  1  0
 32 70  1  0
M  CHG  1   4  -1
M  END
>  <docking_score>  (41) 
-9.986

>  <plif_similarity>  (41) 
0.333

$$$$
DiffSBDD_5
     RDKit          3D

 20 19  0  0  0  0  0  0  0  0999 V2000
   38.0390   28.6590   55.6830 C   0  0  0  0  0  0  0  0  0  0  0  0
   37.1750   30.2010   54.9580 S   0  0  0  0  0  0  0  0  0  0  0  0
   38.5300   31.1440   54.5390 C   0  0  0  0  0  0  0  0  0  0  0  0
   39.7230   30.4740   53.8040 C   0  0  0  0  0  0  0  0  0  0  0  0
   39.8930   30.5560   52.2770 C   0  0  0  0  0  0  0  0  0  0  0  0
   39.8380   29.2260   51.2720 C   0  0  0  0  0  0  0  0  0  0  0  0
   38.8910   28.2360   51.7290 C   0  0  0  0  0  0  0  0  0  0  0  0
   37.6410   27.9760   52.1010 O   0  0  0  0  0  0  0  0  0  0  0  0
   39.6160   27.1320   52.3630 O   0  0  0  0  0  0  0  0  0  0  0  0
   38.0124   28.7064   56.7817 H   0  0  0  0  0  0  0  0  0  0  0  0
   37.5175   27.7524   55.3424 H   0  0  0  0  0  0  0  0  0  0  0  0
   39.0845   28.6304   55.3424 H   0  0  0  0  0  0  0  0  0  0  0  0
   38.1683   31.9556   53.8906 H   0  0  0  0  0  0  0  0  0  0  0  0
   38.9539   31.4381   55.5105 H   0  0  0  0  0  0  0  0  0  0  0  0
   40.6351   30.9089   54.2386 H   0  0  0  0  0  0  0  0  0  0  0  0
   39.5144   29.4045   53.9549 H   0  0  0  0  0  0  0  0  0  0  0  0
   39.1023   31.2336   51.9225 H   0  0  0  0  0  0  0  0  0  0  0  0
   40.9514   30.8441   52.1940 H   0  0  0  0  0  0  0  0  0  0  0  0
   39.5471   29.5556   50.2637 H   0  0  0  0  0  0  0  0  0  0  0  0
   40.8358   28.7631   51.2694 H   0  0  0  0  0  0  0  0  0  0  0  0
  1  2  1  0
  2  3  1  0
  3  4  1  0
  4  5  1  0
  5  6  1  0
  6  7  1  0
  7  8  2  0
  7  9  1  0
  1 10  1  0
  1 11  1  0
  1 12  1  0
  3 13  1  0
  3 14  1  0
  4 15  1  0
  4 16  1  0
  5 17  1  0
  5 18  1  0
  6 19  1  0
  6 20  1  0
M  CHG  1   9  -1
M  END
>  <docking_score>  (42) 
-4.593

>  <plif_similarity>  (42) 
0.333

$$$$
DiffSBDD_60
     RDKit          3D

 34 34  0  0  0  0  0  0  0  0999 V2000
   38.0550   24.5310   57.4320 C   0  0  0  0  0  0  0  0  0  0  0  0
   39.4410   25.6470   57.6830 S   0  0  0  0  0  0  0  0  0  0  0  0
   39.5090   27.3440   57.8020 C   0  0  2  0  0  0  0  0  0  0  0  0
   38.7700   27.9670   59.0270 C   0  0  0  0  0  0  0  0  0  0  0  0
   37.8900   29.2180   58.6340 C   0  0  0  0  0  0  0  0  0  0  0  0
   38.0970   30.0780   57.4210 C   0  0  0  0  0  0  0  0  0  0  0  0
   39.4130   29.6480   56.5800 C   0  0  2  0  0  0  0  0  0  0  0  0
   39.3450   30.4390   54.9450 S   0  0  0  0  0  0  0  0  0  0  0  0
   39.5330   30.3980   53.1400 C   0  0  0  0  0  0  0  0  0  0  0  0
   39.4070   29.1300   52.4150 C   0  0  0  0  0  0  0  0  0  0  0  0
   39.8180   29.0490   50.9030 C   0  0  1  0  0  0  0  0  0  0  0  0
   40.5570   30.3120   50.3050 C   0  0  0  0  0  0  0  0  0  0  0  0
   39.8100   27.7480   50.3380 O   0  0  0  0  0  0  0  0  0  0  0  0
   39.3580   28.1900   56.5280 C   0  0  0  0  0  0  0  0  0  0  0  0
   37.6594   24.2125   58.4077 H   0  0  0  0  0  0  0  0  0  0  0  0
   37.2653   25.0483   56.8673 H   0  0  0  0  0  0  0  0  0  0  0  0
   38.3919   23.6492   56.8673 H   0  0  0  0  0  0  0  0  0  0  0  0
   40.5874   27.4268   58.0027 H   0  0  0  0  0  0  0  0  0  0  0  0
   38.1161   27.2017   59.4704 H   0  0  0  0  0  0  0  0  0  0  0  0
   39.5355   28.3089   59.7391 H   0  0  0  0  0  0  0  0  0  0  0  0
   36.8619   28.8363   58.5490 H   0  0  0  0  0  0  0  0  0  0  0  0
   38.1877   29.9219   59.4251 H   0  0  0  0  0  0  0  0  0  0  0  0
   37.2156   29.9882   56.7691 H   0  0  0  0  0  0  0  0  0  0  0  0
   38.2397   31.1137   57.7631 H   0  0  0  0  0  0  0  0  0  0  0  0
   40.3659   29.9680   57.0267 H   0  0  0  0  0  0  0  0  0  0  0  0
   39.7420   31.3268   52.5889 H   0  0  0  0  0  0  0  0  0  0  0  0
   39.0248   28.2365   52.9304 H   0  0  0  0  0  0  0  0  0  0  0  0
   39.0376   29.3091   50.1727 H   0  0  0  0  0  0  0  0  0  0  0  0
   40.9265   30.9436   51.1263 H   0  0  0  0  0  0  0  0  0  0  0  0
   41.4045   29.9821   49.6863 H   0  0  0  0  0  0  0  0  0  0  0  0
   39.8541   30.8892   49.6863 H   0  0  0  0  0  0  0  0  0  0  0  0
   39.6450   27.0800   51.0500 H   0  0  0  0  0  0  0  0  0  0  0  0
   38.3812   27.9296   56.0942 H   0  0  0  0  0  0  0  0  0  0  0  0
   40.2652   27.9349   55.9606 H   0  0  0  0  0  0  0  0  0  0  0  0
  1  2  1  0
  2  3  1  0
  3  4  1  0
  4  5  1  0
  5  6  1  0
  6  7  1  0
  7  8  1  0
  8  9  1  0
  9 10  2  3
 10 11  1  0
 11 12  1  0
 11 13  1  0
  7 14  1  0
 14  3  1  0
  1 15  1  0
  1 16  1  0
  1 17  1  0
  3 18  1  1
  4 19  1  0
  4 20  1  0
  5 21  1  0
  5 22  1  0
  6 23  1  0
  6 24  1  0
  7 25  1  1
  9 26  1  0
 10 27  1  0
 11 28  1  6
 12 29  1  0
 12 30  1  0
 12 31  1  0
 13 32  1  0
 14 33  1  0
 14 34  1  0
M  END
>  <docking_score>  (43) 
-5.913

>  <plif_similarity>  (43) 
0.222

$$$$
DiffSBDD_62
     RDKit          3D

 83 87  0  0  0  0  0  0  0  0999 V2000
   38.8370   31.9870   62.2170 C   0  0  0  0  0  0  0  0  0  0  0  0
   38.7110   32.9280   61.1000 C   0  0  0  0  0  0  0  0  0  0  0  0
   39.6590   33.8090   60.6400 C   0  0  0  0  0  0  0  0  0  0  0  0
   40.4880   34.6590   61.4150 C   0  0  1  0  0  0  0  0  0  0  0  0
   41.3690   35.6560   61.6210 N   0  0  0  0  0  0  0  0  0  0  0  0
   39.9790   35.9790   61.4450 N   0  0  0  0  0  0  0  0  0  0  0  0
   39.4380   37.1620   62.1400 C   0  0  0  0  0  0  0  0  0  0  0  0
   39.8840   37.5870   63.1560 O   0  0  0  0  0  0  0  0  0  0  0  0
   38.1330   37.7720   61.5040 C   0  0  0  0  0  0  0  0  0  0  0  0
   36.8780   37.0480   62.2510 C   0  0  0  0  0  0  0  0  0  0  0  0
   37.2360   36.7030   60.8260 C   0  0  0  0  0  0  0  0  0  0  0  0
   37.5280   32.8380   60.3650 N   0  0  0  0  0  0  0  0  0  0  0  0
   37.3970   33.4840   59.1690 C   0  0  0  0  0  0  0  0  0  0  0  0
   37.5250   33.6460   57.8810 N   0  0  0  0  0  0  0  0  0  0  0  0
   38.2960   32.7970   56.8730 C   0  0  2  0  0  0  0  0  0  0  0  0
   37.8340   32.7010   55.4840 O   0  0  0  0  0  0  0  0  0  0  0  0
   38.6800   31.3790   57.2060 C   0  0  0  0  0  0  0  0  0  0  0  0
   37.8650   30.1830   56.3420 C   0  0  2  0  0  0  0  0  0  0  0  0
   37.8230   29.2670   57.5360 C   0  0  0  0  0  0  0  0  0  0  0  0
   37.9000   29.5540   58.9450 C   0  0  0  0  0  0  0  0  0  0  0  0
   39.0720   28.5670   59.2650 C   0  0  0  0  0  0  0  0  0  0  0  0
   39.1020   27.2210   58.8370 C   0  0  0  0  0  0  0  0  0  0  0  0
   40.0810   29.0770   60.3050 C   0  0  0  0  0  0  0  0  0  0  0  0
   37.9410   29.0910   55.8520 C   0  0  2  0  0  0  0  0  0  0  0  0
   37.6840   27.6740   55.5570 C   0  0  0  0  0  0  0  0  0  0  0  0
   38.5960   27.1970   54.5120 C   0  0  0  0  0  0  0  0  0  0  0  0
   38.8300   28.5870   53.5830 C   0  0  0  0  0  0  0  0  0  0  0  0
   38.8900   29.4790   54.2340 C   0  0  0  0  0  0  0  0  0  0  0  0
   39.4020   30.6090   53.8540 C   0  0  0  0  0  0  0  0  0  0  0  0
   39.9350   30.7080   52.5670 N   0  0  0  0  0  0  0  0  0  0  0  0
   39.8470   29.5930   51.8520 C   0  0  0  0  0  0  0  0  0  0  0  0
   39.9330   29.2650   50.6130 C   0  0  0  0  0  0  0  0  0  0  0  0
   40.2300   30.2220   49.5780 C   0  0  0  0  0  0  0  0  0  0  0  0
   39.7870   27.9520   50.3880 C   0  0  0  0  0  0  0  0  0  0  0  0
   39.3960   27.3310   51.5380 N   0  0  0  0  0  0  0  0  0  0  0  0
   39.3250   28.4590   52.4290 N   0  0  1  0  0  0  0  0  0  0  0  0
   38.7636   32.5349   63.1680 H   0  0  0  0  0  0  0  0  0  0  0  0
   38.0308   31.2408   62.1606 H   0  0  0  0  0  0  0  0  0  0  0  0
   39.8112   31.4792   62.1606 H   0  0  0  0  0  0  0  0  0  0  0  0
   40.3564   33.1925   60.0538 H   0  0  0  0  0  0  0  0  0  0  0  0
   38.9938   34.5673   60.2012 H   0  0  0  0  0  0  0  0  0  0  0  0
   40.7600   33.6520   61.7642 H   0  0  0  0  0  0  0  0  0  0  0  0
   41.8090   35.7690   62.5470 H   0  0  0  0  0  0  0  0  0  0  0  0
   38.4767   38.7783   61.2226 H   0  0  0  0  0  0  0  0  0  0  0  0
   37.0591   36.3221   63.0574 H   0  0  0  0  0  0  0  0  0  0  0  0
   35.9708   37.3920   62.7692 H   0  0  0  0  0  0  0  0  0  0  0  0
   37.6568   35.7116   60.6024 H   0  0  0  0  0  0  0  0  0  0  0  0
   36.6603   36.6900   59.8887 H   0  0  0  0  0  0  0  0  0  0  0  0
   36.7440   32.2780   60.7290 H   0  0  0  0  0  0  0  0  0  0  0  0
   36.3060   33.6184   59.2108 H   0  0  0  0  0  0  0  0  0  0  0  0
   38.4510   33.7835   59.2663 H   0  0  0  0  0  0  0  0  0  0  0  0
   37.9280   34.5880   57.7810 H   0  0  0  0  0  0  0  0  0  0  0  0
   36.5730   33.3650   57.6050 H   0  0  0  0  0  0  0  0  0  0  0  0
   39.1523   33.4802   56.9724 H   0  0  0  0  0  0  0  0  0  0  0  0
   37.8330   33.6020   55.0740 H   0  0  0  0  0  0  0  0  0  0  0  0
   39.7563   31.2646   57.0097 H   0  0  0  0  0  0  0  0  0  0  0  0
   38.4026   31.2313   58.2602 H   0  0  0  0  0  0  0  0  0  0  0  0
   37.4309   30.8601   55.5916 H   0  0  0  0  0  0  0  0  0  0  0  0
   36.8672   28.7337   57.4266 H   0  0  0  0  0  0  0  0  0  0  0  0
   38.8356   28.8518   57.4255 H   0  0  0  0  0  0  0  0  0  0  0  0
   38.1629   30.6025   59.1490 H   0  0  0  0  0  0  0  0  0  0  0  0
   36.9751   29.4319   59.5278 H   0  0  0  0  0  0  0  0  0  0  0  0
   39.4944   28.5085   58.2510 H   0  0  0  0  0  0  0  0  0  0  0  0
   39.1168   26.5575   59.7143 H   0  0  0  0  0  0  0  0  0  0  0  0
   38.2084   27.0087   58.2317 H   0  0  0  0  0  0  0  0  0  0  0  0
   40.0042   27.0487   58.2317 H   0  0  0  0  0  0  0  0  0  0  0  0
   39.6952   28.8820   61.3165 H   0  0  0  0  0  0  0  0  0  0  0  0
   41.0403   28.5555   60.1716 H   0  0  0  0  0  0  0  0  0  0  0  0
   40.2300   30.1587   60.1716 H   0  0  0  0  0  0  0  0  0  0  0  0
   37.2073   29.3835   55.0864 H   0  0  0  0  0  0  0  0  0  0  0  0
   37.8364   27.0800   56.4702 H   0  0  0  0  0  0  0  0  0  0  0  0
   36.6479   27.5646   55.2042 H   0  0  0  0  0  0  0  0  0  0  0  0
   39.5436   26.8401   54.9418 H   0  0  0  0  0  0  0  0  0  0  0  0
   38.2042   26.3434   53.9394 H   0  0  0  0  0  0  0  0  0  0  0  0
   39.4160   31.4738   54.5336 H   0  0  0  0  0  0  0  0  0  0  0  0
   40.3590   31.5730   52.2030 H   0  0  0  0  0  0  0  0  0  0  0  0
   40.5264   31.1772   50.0359 H   0  0  0  0  0  0  0  0  0  0  0  0
   41.0530   29.8436   48.9539 H   0  0  0  0  0  0  0  0  0  0  0  0
   39.3374   30.3760   48.9539 H   0  0  0  0  0  0  0  0  0  0  0  0
   39.0245   27.7964   49.6106 H   0  0  0  0  0  0  0  0  0  0  0  0
   40.7461   27.5301   50.0531 H   0  0  0  0  0  0  0  0  0  0  0  0
   38.4800   26.8720   51.4310 H   0  0  0  0  0  0  0  0  0  0  0  0
   38.4070   28.6690   52.0120 H   0  0  0  0  0  0  0  0  0  0  0  0
  1  2  1  0
  2  3  1  0
  3  4  1  0
  4  5  1  0
  5  6  1  0
  6  7  1  0
  7  8  2  0
  7  9  1  0
  9 10  1  0
 10 11  1  0
  2 12  2  3
 12 13  1  0
 13 14  1  0
 14 15  1  0
 15 16  1  0
 15 17  1  0
 17 18  1  0
 18 19  1  0
 19 20  1  0
 20 21  1  0
 21 22  1  0
 21 23  1  0
 18 24  1  0
 24 25  1  0
 25 26  1  0
 26 27  1  0
 27 28  2  0
 28 29  1  0
 29 30  2  0
 30 31  1  0
 31 32  2  0
 32 33  1  0
 32 34  1  0
 34 35  1  0
 35 36  1  0
  6  4  1  0
 11  9  1  0
 28 24  1  0
 36 31  1  0
 36 27  1  0
  1 37  1  0
  1 38  1  0
  1 39  1  0
  3 40  1  0
  3 41  1  0
  4 42  1  1
  5 43  1  0
  9 44  1  0
 10 45  1  0
 10 46  1  0
 11 47  1  0
 11 48  1  0
 12 49  1  0
 13 50  1  0
 13 51  1  0
 14 52  1  0
 14 53  1  0
 15 54  1  6
 16 55  1  0
 17 56  1  0
 17 57  1  0
 18 58  1  6
 19 59  1  0
 19 60  1  0
 20 61  1  0
 20 62  1  0
 21 63  1  0
 22 64  1  0
 22 65  1  0
 22 66  1  0
 23 67  1  0
 23 68  1  0
 23 69  1  0
 24 70  1  1
 25 71  1  0
 25 72  1  0
 26 73  1  0
 26 74  1  0
 29 75  1  0
 30 76  1  0
 33 77  1  0
 33 78  1  0
 33 79  1  0
 34 80  1  0
 34 81  1  0
 35 82  1  0
 36 83  1  1
M  CHG  4  12   1  14   1  30   1  36   1
M  END
>  <docking_score>  (44) 
-10.113

>  <plif_similarity>  (44) 
0.556

$$$$
DiffSBDD_63
     RDKit          3D

 83 88  0  0  0  0  0  0  0  0999 V2000
   44.2470   27.1830   66.3030 C   0  0  0  0  0  0  0  0  0  0  0  0
   44.0400   28.0870   66.1220 C   0  0  0  0  0  0  0  0  0  0  0  0
   45.0040   28.9950   66.5540 N   0  0  0  0  0  0  0  0  0  0  0  0
   44.5370   30.1800   66.2470 C   0  0  0  0  0  0  0  0  0  0  0  0
   43.1360   30.0450   65.3630 C   0  0  0  0  0  0  0  0  0  0  0  0
   42.8200   28.7410   65.1690 S   0  0  0  0  0  0  0  0  0  0  0  0
   42.5190   31.3740   65.0370 C   0  0  1  0  0  0  0  0  0  0  0  0
   43.1840   32.4720   65.6640 C   0  0  1  0  0  0  0  0  0  0  0  0
   42.4810   33.7730   65.6860 C   0  0  0  0  0  0  0  0  0  0  0  0
   41.5960   34.0820   65.1420 C   0  0  0  0  0  0  0  0  0  0  0  0
   40.9080   33.1630   64.2840 C   0  0  1  0  0  0  0  0  0  0  0  0
   40.4520   33.7440   63.0910 O   0  0  0  0  0  0  0  0  0  0  0  0
   41.1380   34.2350   62.0670 C   0  0  0  0  0  0  0  0  0  0  0  0
   40.5780   35.2150   61.1640 C   0  0  1  0  0  0  0  0  0  0  0  0
   39.3230   34.9190   60.5210 C   0  0  0  0  0  0  0  0  0  0  0  0
   40.4510   36.6210   61.9460 C   0  0  0  0  0  0  0  0  0  0  0  0
   41.2340   36.7940   63.0420 O   0  0  0  0  0  0  0  0  0  0  0  0
   41.4820   31.7450   64.0210 C   0  0  2  0  0  0  0  0  0  0  0  0
   40.0710   30.9850   63.3040 O   0  0  0  0  0  0  0  0  0  0  0  0
   40.3260   30.3210   61.9170 C   0  0  1  0  0  0  0  0  0  0  0  0
   40.0350   28.9330   61.5270 C   0  0  0  0  0  0  0  0  0  0  0  0
   39.5900   28.7810   60.1200 C   0  0  1  0  0  0  0  0  0  0  0  0
   39.3780   27.8050   59.0880 C   0  0  1  0  0  0  0  0  0  0  0  0
   39.0800   26.3430   58.8590 C   0  0  0  0  0  0  0  0  0  0  0  0
   39.2110   26.1520   57.5720 C   0  0  0  0  0  0  0  0  0  0  0  0
   39.1410   27.4220   56.6910 C   0  0  2  0  0  0  0  0  0  0  0  0
   39.4250   28.1710   55.0530 C   0  0  1  0  0  0  0  0  0  0  0  0
   38.4920   27.1110   54.1840 C   0  0  1  0  0  0  0  0  0  0  0  0
   37.4860   26.9890   55.0820 F   0  0  0  0  0  0  0  0  0  0  0  0
   38.1590   27.7960   52.8620 C   0  0  0  0  0  0  0  0  0  0  0  0
   38.9150   29.0970   52.8160 N   0  0  0  0  0  0  0  0  0  0  0  0
   39.1460   29.5070   54.1070 C   0  0  2  0  0  0  0  0  0  0  0  0
   39.7500   30.8230   54.5030 C   0  0  0  0  0  0  0  0  0  0  0  0
   39.4240   28.3800   57.7330 N   0  0  0  0  0  0  0  0  0  0  0  0
   38.8940   30.2250   60.0270 C   0  0  0  0  0  0  0  0  0  0  0  0
   38.0680   30.4220   59.2280 O   0  0  0  0  0  0  0  0  0  0  0  0
   39.3630   31.0800   61.1490 O   0  0  0  0  0  0  0  0  0  0  0  0
   44.3850   32.3290   66.1560 C   0  0  0  0  0  0  0  0  0  0  0  0
   45.0110   31.4270   66.8610 C   0  0  0  0  0  0  0  0  0  0  0  0
   44.2830   27.0259   67.3911 H   0  0  0  0  0  0  0  0  0  0  0  0
   43.4740   26.5349   65.8643 H   0  0  0  0  0  0  0  0  0  0  0  0
   45.2250   26.9358   65.8643 H   0  0  0  0  0  0  0  0  0  0  0  0
   41.6259   30.7407   65.1434 H   0  0  0  0  0  0  0  0  0  0  0  0
   43.6485   32.7392   64.7034 H   0  0  0  0  0  0  0  0  0  0  0  0
   42.9182   34.5348   66.3482 H   0  0  0  0  0  0  0  0  0  0  0  0
   41.2222   35.1109   65.2494 H   0  0  0  0  0  0  0  0  0  0  0  0
   40.0684   32.9362   64.9575 H   0  0  0  0  0  0  0  0  0  0  0  0
   42.0422   34.6929   62.4946 H   0  0  0  0  0  0  0  0  0  0  0  0
   41.2383   33.3544   61.4155 H   0  0  0  0  0  0  0  0  0  0  0  0
   41.2894   35.2304   60.3252 H   0  0  0  0  0  0  0  0  0  0  0  0
   38.5532   34.7374   61.2855 H   0  0  0  0  0  0  0  0  0  0  0  0
   39.0227   35.7710   59.8933 H   0  0  0  0  0  0  0  0  0  0  0  0
   39.4350   34.0226   59.8933 H   0  0  0  0  0  0  0  0  0  0  0  0
   40.6993   37.4203   61.2323 H   0  0  0  0  0  0  0  0  0  0  0  0
   39.4197   36.6411   62.3280 H   0  0  0  0  0  0  0  0  0  0  0  0
   41.4740   35.9100   63.4200 H   0  0  0  0  0  0  0  0  0  0  0  0
   42.2472   31.3745   63.3230 H   0  0  0  0  0  0  0  0  0  0  0  0
   41.4214   30.3136   61.8169 H   0  0  0  0  0  0  0  0  0  0  0  0
   40.9481   28.3359   61.6672 H   0  0  0  0  0  0  0  0  0  0  0  0
   39.2037   28.5923   62.1617 H   0  0  0  0  0  0  0  0  0  0  0  0
   40.2610   28.0120   59.7096 H   0  0  0  0  0  0  0  0  0  0  0  0
   40.4562   27.5877   59.0720 H   0  0  0  0  0  0  0  0  0  0  0  0
   39.7922   25.7150   59.4143 H   0  0  0  0  0  0  0  0  0  0  0  0
   38.0721   26.0748   59.2085 H   0  0  0  0  0  0  0  0  0  0  0  0
   40.1872   25.6752   57.3994 H   0  0  0  0  0  0  0  0  0  0  0  0
   38.3514   25.5340   57.2732 H   0  0  0  0  0  0  0  0  0  0  0  0
   38.4291   26.9672   55.9865 H   0  0  0  0  0  0  0  0  0  0  0  0
   40.4619   28.4582   55.2816 H   0  0  0  0  0  0  0  0  0  0  0  0
   38.8829   26.1321   53.8694 H   0  0  0  0  0  0  0  0  0  0  0  0
   38.4642   27.1557   52.0212 H   0  0  0  0  0  0  0  0  0  0  0  0
   37.0768   27.9769   52.7843 H   0  0  0  0  0  0  0  0  0  0  0  0
   38.3570   29.8070   52.3200 H   0  0  0  0  0  0  0  0  0  0  0  0
   39.8070   28.9720   52.3190 H   0  0  0  0  0  0  0  0  0  0  0  0
   38.2116   30.0325   54.3534 H   0  0  0  0  0  0  0  0  0  0  0  0
   39.7834   30.8958   55.6001 H   0  0  0  0  0  0  0  0  0  0  0  0
   40.7709   30.8941   54.0995 H   0  0  0  0  0  0  0  0  0  0  0  0
   39.1383   31.6434   54.0995 H   0  0  0  0  0  0  0  0  0  0  0  0
   38.7280   29.1380   57.6770 H   0  0  0  0  0  0  0  0  0  0  0  0
   40.3840   28.7210   57.5800 H   0  0  0  0  0  0  0  0  0  0  0  0
   45.0196   32.4137   65.2615 H   0  0  0  0  0  0  0  0  0  0  0  0
   44.2045   32.9948   67.0128 H   0  0  0  0  0  0  0  0  0  0  0  0
   46.1019   31.5306   66.7654 H   0  0  0  0  0  0  0  0  0  0  0  0
   44.8154   31.4928   67.9415 H   0  0  0  0  0  0  0  0  0  0  0  0
  1  2  1  0
  2  3  2  0
  3  4  1  0
  4  5  2  0
  5  6  1  0
  5  7  1  0
  7  8  1  0
  8  9  1  0
  9 10  2  0
 10 11  1  0
 11 12  1  0
 12 13  1  0
 13 14  1  0
 14 15  1  0
 14 16  1  0
 16 17  1  0
 11 18  1  0
 18 19  1  0
 19 20  1  0
 20 21  1  0
 21 22  1  0
 22 23  1  0
 23 24  1  0
 24 25  1  0
 25 26  1  0
 26 27  1  0
 27 28  1  0
 28 29  1  0
 28 30  1  0
 30 31  1  0
 31 32  1  0
 32 33  1  0
 26 34  1  0
 22 35  1  0
 35 36  2  0
 35 37  1  0
  8 38  1  0
 38 39  1  0
  6  2  1  0
 18  7  1  0
 37 20  1  0
 39  4  1  0
 34 23  1  0
 32 27  1  0
  1 40  1  0
  1 41  1  0
  1 42  1  0
  7 43  1  1
  8 44  1  6
  9 45  1  0
 10 46  1  0
 11 47  1  1
 13 48  1  0
 13 49  1  0
 14 50  1  6
 15 51  1  0
 15 52  1  0
 15 53  1  0
 16 54  1  0
 16 55  1  0
 17 56  1  0
 18 57  1  6
 20 58  1  6
 21 59  1  0
 21 60  1  0
 22 61  1  6
 23 62  1  6
 24 63  1  0
 24 64  1  0
 25 65  1  0
 25 66  1  0
 26 67  1  6
 27 68  1  6
 28 69  1  6
 30 70  1  0
 30 71  1  0
 31 72  1  0
 31 73  1  0
 32 74  1  1
 33 75  1  0
 33 76  1  0
 33 77  1  0
 34 78  1  0
 34 79  1  0
 38 80  1  0
 38 81  1  0
 39 82  1  0
 39 83  1  0
M  CHG  2  31   1  34   1
M  END
>  <docking_score>  (45) 
-11.944

>  <plif_similarity>  (45) 
0.222

$$$$
DiffSBDD_64
     RDKit          3D

 77 80  0  0  0  0  0  0  0  0999 V2000
   38.6130   32.7260   57.0310 C   0  0  0  0  0  0  0  0  0  0  0  0
   38.6320   31.6760   57.8430 C   0  0  0  0  0  0  0  0  0  0  0  0
   38.0870   31.9260   59.3000 C   0  0  1  0  0  0  0  0  0  0  0  0
   38.7700   30.8720   60.1550 C   0  0  0  0  0  0  0  0  0  0  0  0
   38.3030   29.4700   59.6240 C   0  0  0  0  0  0  0  0  0  0  0  0
   38.3320   28.5400   58.8990 C   0  0  0  0  0  0  0  0  0  0  0  0
   38.8040   27.9830   57.5110 C   0  0  1  0  0  0  0  0  0  0  0  0
   40.1590   28.4080   57.0120 C   0  0  0  0  0  0  0  0  0  0  0  0
   39.5220   26.6440   57.8030 C   0  0  0  0  0  0  0  0  0  0  0  0
   39.4050   25.7890   56.5550 C   0  0  2  0  0  0  0  0  0  0  0  0
   40.6010   26.0500   55.6980 O   0  0  0  0  0  0  0  0  0  0  0  0
   38.0690   26.0660   55.7380 C   0  0  0  0  0  0  0  0  0  0  0  0
   37.5670   26.8930   54.5100 C   0  0  0  0  0  0  0  0  0  0  0  0
   38.2370   28.2230   54.1880 C   0  0  1  0  0  0  0  0  0  0  0  0
   38.7220   28.6110   52.9170 C   0  0  0  0  0  0  0  0  0  0  0  0
   38.7030   27.7250   51.8000 C   0  0  0  0  0  0  0  0  0  0  0  0
   39.3200   28.1390   50.6320 C   0  0  0  0  0  0  0  0  0  0  0  0
   40.0750   29.2930   50.5850 C   0  0  0  0  0  0  0  0  0  0  0  0
   40.6670   29.5850   49.4700 F   0  0  0  0  0  0  0  0  0  0  0  0
   40.0490   30.1600   51.6880 C   0  0  0  0  0  0  0  0  0  0  0  0
   39.3640   29.8510   52.8170 C   0  0  0  0  0  0  0  0  0  0  0  0
   38.1080   29.2670   55.2480 C   0  0  1  0  0  0  0  0  0  0  0  0
   37.3140   30.4740   54.5830 C   0  0  0  0  0  0  0  0  0  0  0  0
   37.8180   28.4270   56.4660 O   0  0  0  0  0  0  0  0  0  0  0  0
   37.9100   33.2820   59.9360 C   0  0  1  0  0  0  0  0  0  0  0  0
   38.8650   34.1080   60.6520 C   0  0  0  0  0  0  0  0  0  0  0  0
   38.5520   35.4650   60.9580 C   0  0  0  0  0  0  0  0  0  0  0  0
   37.3260   35.9560   60.5320 C   0  0  0  0  0  0  0  0  0  0  0  0
   36.3370   35.1690   59.9950 N   0  0  0  0  0  0  0  0  0  0  0  0
   36.6160   33.9170   59.8040 C   0  0  0  0  0  0  0  0  0  0  0  0
   37.0730   37.2810   60.4820 N   0  0  0  0  0  0  0  0  0  0  0  0
   38.0800   38.1390   60.9840 C   0  0  0  0  0  0  0  0  0  0  0  0
   37.8310   39.2770   61.1730 O   0  0  0  0  0  0  0  0  0  0  0  0
   39.0790   37.7550   61.6020 N   0  0  0  0  0  0  0  0  0  0  0  0
   39.7350   38.5720   62.3690 O   0  0  0  0  0  0  0  0  0  0  0  0
   39.4710   36.4170   61.6240 C   0  0  2  0  0  0  0  0  0  0  0  0
   40.6500   36.1290   62.3390 C   0  0  0  0  0  0  0  0  0  0  0  0
   38.9777   32.6289   55.9978 H   0  0  0  0  0  0  0  0  0  0  0  0
   38.2325   33.6932   57.3914 H   0  0  0  0  0  0  0  0  0  0  0  0
   39.0048   30.6931   57.5190 H   0  0  0  0  0  0  0  0  0  0  0  0
   36.9938   31.8507   59.2038 H   0  0  0  0  0  0  0  0  0  0  0  0
   39.8625   30.9641   60.0657 H   0  0  0  0  0  0  0  0  0  0  0  0
   38.5042   30.9966   61.2151 H   0  0  0  0  0  0  0  0  0  0  0  0
   38.4293   28.9158   60.5658 H   0  0  0  0  0  0  0  0  0  0  0  0
   37.7230   30.0003   58.8543 H   0  0  0  0  0  0  0  0  0  0  0  0
   38.8047   27.8023   59.5641 H   0  0  0  0  0  0  0  0  0  0  0  0
   37.3807   28.8597   58.4487 H   0  0  0  0  0  0  0  0  0  0  0  0
   40.8171   28.6144   57.8689 H   0  0  0  0  0  0  0  0  0  0  0  0
   40.5938   27.6031   56.4012 H   0  0  0  0  0  0  0  0  0  0  0  0
   40.0563   29.3171   56.4012 H   0  0  0  0  0  0  0  0  0  0  0  0
   40.5813   26.8276   58.0358 H   0  0  0  0  0  0  0  0  0  0  0  0
   39.0664   26.1376   58.6667 H   0  0  0  0  0  0  0  0  0  0  0  0
   39.3617   24.7334   56.8613 H   0  0  0  0  0  0  0  0  0  0  0  0
   40.9360   25.1950   55.3300 H   0  0  0  0  0  0  0  0  0  0  0  0
   37.7761   25.0462   55.4478 H   0  0  0  0  0  0  0  0  0  0  0  0
   37.7314   26.8304   56.4534 H   0  0  0  0  0  0  0  0  0  0  0  0
   37.6801   26.2526   53.6228 H   0  0  0  0  0  0  0  0  0  0  0  0
   36.5406   27.1762   54.7861 H   0  0  0  0  0  0  0  0  0  0  0  0
   39.1960   27.6974   54.0694 H   0  0  0  0  0  0  0  0  0  0  0  0
   38.2129   26.7423   51.8644 H   0  0  0  0  0  0  0  0  0  0  0  0
   39.2058   27.5341   49.7204 H   0  0  0  0  0  0  0  0  0  0  0  0
   40.5969   31.1124   51.6357 H   0  0  0  0  0  0  0  0  0  0  0  0
   39.3132   30.5696   53.6483 H   0  0  0  0  0  0  0  0  0  0  0  0
   38.8947   29.9135   55.6641 H   0  0  0  0  0  0  0  0  0  0  0  0
   36.8926   31.1145   55.3718 H   0  0  0  0  0  0  0  0  0  0  0  0
   38.0005   31.0647   53.9586 H   0  0  0  0  0  0  0  0  0  0  0  0
   36.4998   30.0775   53.9586 H   0  0  0  0  0  0  0  0  0  0  0  0
   37.6179   32.8007   60.8810 H   0  0  0  0  0  0  0  0  0  0  0  0
   39.8331   33.6858   60.9595 H   0  0  0  0  0  0  0  0  0  0  0  0
   35.9607   33.3716   60.4991 H   0  0  0  0  0  0  0  0  0  0  0  0
   36.5114   33.8781   58.7097 H   0  0  0  0  0  0  0  0  0  0  0  0
   36.1910   37.6490   60.0970 H   0  0  0  0  0  0  0  0  0  0  0  0
   39.4380   39.5000   62.1920 H   0  0  0  0  0  0  0  0  0  0  0  0
   38.8785   36.2584   62.5371 H   0  0  0  0  0  0  0  0  0  0  0  0
   40.4455   36.1790   63.4187 H   0  0  0  0  0  0  0  0  0  0  0  0
   40.9995   35.1191   62.0783 H   0  0  0  0  0  0  0  0  0  0  0  0
   41.4257   36.8641   62.0783 H   0  0  0  0  0  0  0  0  0  0  0  0
  1  2  2  0
  2  3  1  0
  3  4  1  0
  4  5  1  0
  5  6  1  0
  7  6  1  1
  7  8  1  0
  7  9  1  0
  9 10  1  0
 10 11  1  0
 10 12  1  0
 12 13  1  0
 13 14  1  0
 14 15  1  0
 15 16  1  0
 16 17  2  0
 17 18  1  0
 18 19  1  0
 18 20  2  0
 20 21  1  0
 14 22  1  0
 22 23  1  0
 22 24  1  0
  3 25  1  0
 25 26  1  0
 26 27  2  0
 27 28  1  0
 28 29  2  0
 29 30  1  0
 28 31  1  0
 31 32  1  0
 32 33  2  0
 32 34  1  0
 34 35  1  0
 34 36  1  0
 36 37  1  0
 24  7  1  0
 30 25  1  0
 21 15  2  0
 36 27  1  0
  1 38  1  0
  1 39  1  0
  2 40  1  0
  3 41  1  6
  4 42  1  0
  4 43  1  0
  5 44  1  0
  5 45  1  0
  6 46  1  0
  6 47  1  0
  8 48  1  0
  8 49  1  0
  8 50  1  0
  9 51  1  0
  9 52  1  0
 10 53  1  1
 11 54  1  0
 12 55  1  0
 12 56  1  0
 13 57  1  0
 13 58  1  0
 14 59  1  1
 16 60  1  0
 17 61  1  0
 20 62  1  0
 21 63  1  0
 22 64  1  1
 23 65  1  0
 23 66  1  0
 23 67  1  0
 25 68  1  1
 26 69  1  0
 30 70  1  0
 30 71  1  0
 31 72  1  0
 35 73  1  0
 36 74  1  6
 37 75  1  0
 37 76  1  0
 37 77  1  0
M  END
>  <docking_score>  (46) 
-12.78

>  <plif_similarity>  (46) 
0.444

$$$$
DiffSBDD_65
     RDKit          3D

 59 59  0  0  0  0  0  0  0  0999 V2000
   37.9870   26.8560   54.2900 C   0  0  0  0  0  0  0  0  0  0  0  0
   38.5850   28.0180   54.0090 C   0  0  0  0  0  0  0  0  0  0  0  0
   39.1270   28.8400   55.2400 C   0  0  0  0  0  0  0  0  0  0  0  0
   39.3270   28.3830   56.3310 N   0  0  0  0  0  0  0  0  0  0  0  0
   40.1640   28.0350   57.3610 C   0  0  2  0  0  0  0  0  0  0  0  0
   40.6350   26.8590   56.6920 O   0  0  0  0  0  0  0  0  0  0  0  0
   39.5790   27.9230   58.6980 C   0  0  0  0  0  0  0  0  0  0  0  0
   40.3850   28.7750   59.6190 C   0  0  0  0  0  0  0  0  0  0  0  0
   39.6970   28.7300   60.9860 C   0  0  0  0  0  0  0  0  0  0  0  0
   38.4370   29.7010   61.0720 C   0  0  1  0  0  0  0  0  0  0  0  0
   38.6380   30.4040   62.3480 O   0  0  0  0  0  0  0  0  0  0  0  0
   37.8860   30.6900   60.1250 C   0  0  0  0  0  0  0  0  0  0  0  0
   36.7010   31.3190   59.8860 N   0  0  0  0  0  0  0  0  0  0  0  0
   35.9160   32.3320   60.7250 S   0  0  0  0  0  0  0  0  0  0  0  0
   37.0310   32.9630   61.4870 O   0  0  0  0  0  0  0  0  0  0  0  0
   34.9610   31.7010   61.5870 O   0  0  0  0  0  0  0  0  0  0  0  0
   35.2270   33.2890   59.8890 O   0  0  0  0  0  0  0  0  0  0  0  0
   39.2720   30.2280   55.0240 C   0  0  0  0  0  0  0  0  0  0  0  0
   38.9470   31.0000   56.1250 C   0  0  0  0  0  0  0  0  0  0  0  0
   38.6810   32.5560   56.1310 C   0  0  0  0  0  0  0  0  0  0  0  0
   38.6050   33.0950   57.5730 C   0  0  0  0  0  0  0  0  0  0  0  0
   37.4310   33.7930   57.8200 N   0  0  0  0  0  0  0  0  0  0  0  0
   39.7440   30.5870   53.7810 C   0  0  0  0  0  0  0  0  0  0  0  0
   39.4580   29.7890   52.5560 C   0  0  0  0  0  0  0  0  0  0  0  0
   39.8850   30.1660   51.2890 F   0  0  0  0  0  0  0  0  0  0  0  0
   38.8160   28.5590   52.6360 C   0  0  0  0  0  0  0  0  0  0  0  0
   38.2780   27.9140   51.3870 O   0  0  0  0  0  0  0  0  0  0  0  0
   39.1180   27.2170   50.7140 O   0  0  0  0  0  0  0  0  0  0  0  0
   37.9227   26.7311   55.3810 H   0  0  0  0  0  0  0  0  0  0  0  0
   36.9745   26.8513   53.8601 H   0  0  0  0  0  0  0  0  0  0  0  0
   38.5717   26.0293   53.8601 H   0  0  0  0  0  0  0  0  0  0  0  0
   38.3910   28.1130   56.6650 H   0  0  0  0  0  0  0  0  0  0  0  0
   40.9243   28.7538   57.7007 H   0  0  0  0  0  0  0  0  0  0  0  0
   39.8970   26.4600   56.1660 H   0  0  0  0  0  0  0  0  0  0  0  0
   38.5361   28.2724   58.6810 H   0  0  0  0  0  0  0  0  0  0  0  0
   39.5876   26.8761   59.0356 H   0  0  0  0  0  0  0  0  0  0  0  0
   41.4093   28.3818   59.6983 H   0  0  0  0  0  0  0  0  0  0  0  0
   40.4483   29.8074   59.2447 H   0  0  0  0  0  0  0  0  0  0  0  0
   39.3614   27.7001   61.1774 H   0  0  0  0  0  0  0  0  0  0  0  0
   40.4273   29.0658   61.7369 H   0  0  0  0  0  0  0  0  0  0  0  0
   37.6669   28.9528   60.8330 H   0  0  0  0  0  0  0  0  0  0  0  0
   39.1340   31.2450   62.1870 H   0  0  0  0  0  0  0  0  0  0  0  0
   38.5697   31.5406   60.2631 H   0  0  0  0  0  0  0  0  0  0  0  0
   37.7195   29.9393   59.3384 H   0  0  0  0  0  0  0  0  0  0  0  0
   36.0340   30.5470   59.7460 H   0  0  0  0  0  0  0  0  0  0  0  0
   37.2310   33.8530   61.1020 H   0  0  0  0  0  0  0  0  0  0  0  0
   34.5920   30.8990   61.1390 H   0  0  0  0  0  0  0  0  0  0  0  0
   35.8890   33.8570   59.4210 H   0  0  0  0  0  0  0  0  0  0  0  0
   38.0279   30.5505   56.5290 H   0  0  0  0  0  0  0  0  0  0  0  0
   39.9097   30.9761   56.6567 H   0  0  0  0  0  0  0  0  0  0  0  0
   39.4995   33.0634   55.5994 H   0  0  0  0  0  0  0  0  0  0  0  0
   37.7202   32.7504   55.6318 H   0  0  0  0  0  0  0  0  0  0  0  0
   38.6636   32.2461   58.2701 H   0  0  0  0  0  0  0  0  0  0  0  0
   39.4436   33.7929   57.7128 H   0  0  0  0  0  0  0  0  0  0  0  0
   36.9800   33.4170   58.6670 H   0  0  0  0  0  0  0  0  0  0  0  0
   37.6470   34.7900   57.9580 H   0  0  0  0  0  0  0  0  0  0  0  0
   36.7940   33.6880   57.0170 H   0  0  0  0  0  0  0  0  0  0  0  0
   40.3551   31.4971   53.6893 H   0  0  0  0  0  0  0  0  0  0  0  0
   38.6300   26.5610   50.1550 H   0  0  0  0  0  0  0  0  0  0  0  0
  1  2  1  0
  2  3  1  0
  3  4  1  0
  4  5  1  0
  5  6  1  0
  5  7  1  0
  7  8  1  0
  8  9  1  0
  9 10  1  0
 10 11  1  0
 10 12  1  0
 12 13  1  0
 13 14  1  0
 14 15  1  0
 14 16  1  0
 14 17  1  0
  3 18  2  0
 18 19  1  0
 19 20  1  0
 20 21  1  0
 21 22  1  0
 18 23  1  0
 23 24  2  0
 24 25  1  0
 24 26  1  0
 26 27  1  0
 27 28  1  0
 26  2  2  0
  1 29  1  0
  1 30  1  0
  1 31  1  0
  4 32  1  0
  5 33  1  1
  6 34  1  0
  7 35  1  0
  7 36  1  0
  8 37  1  0
  8 38  1  0
  9 39  1  0
  9 40  1  0
 10 41  1  1
 11 42  1  0
 12 43  1  0
 12 44  1  0
 13 45  1  0
 15 46  1  0
 16 47  1  0
 17 48  1  0
 19 49  1  0
 19 50  1  0
 20 51  1  0
 20 52  1  0
 21 53  1  0
 21 54  1  0
 22 55  1  0
 22 56  1  0
 22 57  1  0
 23 58  1  0
 28 59  1  0
M  CHG  1  22   1
M  END
>  <docking_score>  (47) 
-7.569

>  <plif_similarity>  (47) 
0.556

$$$$
DiffSBDD_66
     RDKit          3D

 62 65  0  0  0  0  0  0  0  0999 V2000
   40.1950   30.0620   49.3120 C   0  0  0  0  0  0  0  0  0  0  0  0
   40.2580   29.5890   50.5870 C   0  0  0  0  0  0  0  0  0  0  0  0
   40.0870   28.3140   50.9150 C   0  0  0  0  0  0  0  0  0  0  0  0
   39.7900   27.9290   52.0880 C   0  0  0  0  0  0  0  0  0  0  0  0
   39.4270   27.4820   53.2030 C   0  0  0  0  0  0  0  0  0  0  0  0
   39.1840   28.3570   54.3580 C   0  0  2  0  0  0  0  0  0  0  0  0
   38.8920   27.7600   55.5850 C   0  0  0  0  0  0  0  0  0  0  0  0
   39.7080   28.3320   56.7130 C   0  0  0  0  0  0  0  0  0  0  0  0
   39.0960   29.3180   57.7530 C   0  0  0  0  0  0  0  0  0  0  0  0
   37.6420   29.3960   57.7730 N   0  0  0  0  0  0  0  0  0  0  0  0
   36.8860   29.7070   58.9280 C   0  0  0  0  0  0  0  0  0  0  0  0
   37.3420   30.9250   59.6970 C   0  0  0  0  0  0  0  0  0  0  0  0
   37.9250   31.0120   60.8950 C   0  0  0  0  0  0  0  0  0  0  0  0
   38.1050   32.3540   61.2200 C   0  0  0  0  0  0  0  0  0  0  0  0
   37.6190   33.0260   60.2150 N   0  0  0  0  0  0  0  0  0  0  0  0
   37.7010   34.4050   60.0570 C   0  0  0  0  0  0  0  0  0  0  0  0
   36.9700   35.0080   59.3230 O   0  0  0  0  0  0  0  0  0  0  0  0
   38.6610   35.1450   60.8890 C   0  0  0  0  0  0  0  0  0  0  0  0
   40.0470   34.7640   60.7040 C   0  0  0  0  0  0  0  0  0  0  0  0
   41.0450   35.3470   61.4780 C   0  0  0  0  0  0  0  0  0  0  0  0
   40.6790   36.1510   62.5040 C   0  0  0  0  0  0  0  0  0  0  0  0
   41.7520   36.4830   63.4640 O   0  0  0  0  0  0  0  0  0  0  0  0
   39.3960   36.5180   62.7910 C   0  0  0  0  0  0  0  0  0  0  0  0
   38.3670   36.0260   61.8650 C   0  0  0  0  0  0  0  0  0  0  0  0
   36.8790   36.6380   62.1860 Cl  0  0  0  0  0  0  0  0  0  0  0  0
   37.1350   32.1840   59.2380 N   0  0  0  0  0  0  0  0  0  0  0  0
   37.1510   29.6060   56.3270 C   0  0  0  0  0  0  0  0  0  0  0  0
   38.0840   30.3650   55.4040 C   0  0  1  0  0  0  0  0  0  0  0  0
   38.2090   31.7970   55.5020 C   0  0  1  0  0  0  0  0  0  0  0  0
   37.6610   32.6370   54.5620 O   0  0  0  0  0  0  0  0  0  0  0  0
   38.8850   32.6460   56.5340 C   0  0  0  0  0  0  0  0  0  0  0  0
   37.9200   33.6210   56.8540 O   0  0  0  0  0  0  0  0  0  0  0  0
   38.9110   29.7310   54.3040 C   0  0  0  0  0  0  0  0  0  0  0  0
   39.3880   30.4450   53.0600 C   0  0  0  0  0  0  0  0  0  0  0  0
   39.9210   30.3990   51.8050 C   0  0  0  0  0  0  0  0  0  0  0  0
   40.3473   31.1334   49.1147 H   0  0  0  0  0  0  0  0  0  0  0  0
   39.9918   29.3728   48.4791 H   0  0  0  0  0  0  0  0  0  0  0  0
   40.2088   27.5524   50.1307 H   0  0  0  0  0  0  0  0  0  0  0  0
   39.2858   26.3974   53.3197 H   0  0  0  0  0  0  0  0  0  0  0  0
   40.2398   28.5485   54.1161 H   0  0  0  0  0  0  0  0  0  0  0  0
   37.8258   27.9141   55.8074 H   0  0  0  0  0  0  0  0  0  0  0  0
   39.1377   26.6909   55.5034 H   0  0  0  0  0  0  0  0  0  0  0  0
   40.7661   28.0460   56.8059 H   0  0  0  0  0  0  0  0  0  0  0  0
   39.7229   29.9174   58.4295 H   0  0  0  0  0  0  0  0  0  0  0  0
   35.8444   29.8738   58.6162 H   0  0  0  0  0  0  0  0  0  0  0  0
   37.0141   28.8541   59.6108 H   0  0  0  0  0  0  0  0  0  0  0  0
   38.2168   30.1590   61.5252 H   0  0  0  0  0  0  0  0  0  0  0  0
   38.5619   32.7615   62.1339 H   0  0  0  0  0  0  0  0  0  0  0  0
   40.3111   34.0101   59.9478 H   0  0  0  0  0  0  0  0  0  0  0  0
   42.1070   35.1591   61.2615 H   0  0  0  0  0  0  0  0  0  0  0  0
   39.1480   37.1432   63.6614 H   0  0  0  0  0  0  0  0  0  0  0  0
   36.9763   28.6139   55.8850 H   0  0  0  0  0  0  0  0  0  0  0  0
   36.2497   30.2309   56.4113 H   0  0  0  0  0  0  0  0  0  0  0  0
   37.2669   30.4860   54.6776 H   0  0  0  0  0  0  0  0  0  0  0  0
   39.1420   31.7553   54.9208 H   0  0  0  0  0  0  0  0  0  0  0  0
   37.2870   33.4360   55.0100 H   0  0  0  0  0  0  0  0  0  0  0  0
   39.1482   32.0499   57.4202 H   0  0  0  0  0  0  0  0  0  0  0  0
   39.8274   33.0836   56.1730 H   0  0  0  0  0  0  0  0  0  0  0  0
   37.8890   34.3020   56.1360 H   0  0  0  0  0  0  0  0  0  0  0  0
   39.2293   31.5141   53.2648 H   0  0  0  0  0  0  0  0  0  0  0  0
   39.3097   31.1800   51.3292 H   0  0  0  0  0  0  0  0  0  0  0  0
   40.8927   30.1243   52.2412 H   0  0  0  0  0  0  0  0  0  0  0  0
  1  2  2  0
  2  3  1  0
  3  4  2  0
  4  5  2  0
  5  6  1  0
  6  7  1  0
  7  8  1  0
  8  9  2  0
  9 10  1  0
 10 11  1  0
 11 12  1  0
 12 13  1  0
 13 14  2  0
 14 15  1  0
 15 16  1  0
 16 17  2  0
 16 18  1  0
 18 19  1  0
 19 20  2  0
 20 21  1  0
 21 22  1  0
 21 23  2  0
 23 24  1  0
 24 25  1  0
 15 26  1  0
 10 27  1  0
 27 28  1  0
 28 29  1  0
 29 30  1  0
 29 31  1  0
 31 32  1  0
 28 33  1  0
 33 34  2  0
 34 35  1  0
 35  2  1  0
 33  6  1  0
 26 12  2  0
 24 18  2  0
  1 36  1  0
  1 37  1  0
  3 38  1  0
  5 39  1  0
  6 40  1  1
  7 41  1  0
  7 42  1  0
  8 43  1  0
  9 44  1  0
 11 45  1  0
 11 46  1  0
 13 47  1  0
 14 48  1  0
 19 49  1  0
 20 50  1  0
 23 51  1  0
 27 52  1  0
 27 53  1  0
 28 54  1  6
 29 55  1  6
 30 56  1  0
 31 57  1  0
 31 58  1  0
 32 59  1  0
 34 60  1  0
 35 61  1  0
 35 62  1  0
M  CHG  1  22  -1
M  END
>  <docking_score>  (48) 
-12.6

>  <plif_similarity>  (48) 
0.556

$$$$
DiffSBDD_68
     RDKit          3D

 77 79  0  0  0  0  0  0  0  0999 V2000
   35.7450   33.1130   61.2610 C   0  0  0  0  0  0  0  0  0  0  0  0
   37.0000   34.1370   61.0890 C   0  0  2  0  0  0  0  0  0  0  0  0
   36.7250   35.5450   61.5700 C   0  0  0  0  0  0  0  0  0  0  0  0
   38.1480   36.0180   61.6650 C   0  0  2  0  0  0  0  0  0  0  0  0
   38.3260   37.3940   61.3380 N   0  0  0  0  0  0  0  0  0  0  0  0
   37.7390   38.1480   60.6830 O   0  0  0  0  0  0  0  0  0  0  0  0
   39.1180   35.1250   60.8100 C   0  0  1  0  0  0  0  0  0  0  0  0
   40.6810   35.0150   61.0280 C   0  0  0  0  0  0  0  0  0  0  0  0
   40.7960   35.4990   62.2260 C   0  0  0  0  0  0  0  0  0  0  0  0
   41.1600   36.7390   62.5010 O   0  0  0  0  0  0  0  0  0  0  0  0
   41.2380   34.5930   63.0590 N   0  0  0  0  0  0  0  0  0  0  0  0
   40.4850   33.3680   63.3190 C   0  0  0  0  0  0  0  0  0  0  0  0
   41.4550   32.3390   63.9030 C   0  0  1  0  0  0  0  0  0  0  0  0
   42.0510   32.8160   65.1890 C   0  0  0  0  0  0  0  0  0  0  0  0
   41.9070   33.8090   65.6650 O   0  0  0  0  0  0  0  0  0  0  0  0
   42.5830   31.7600   65.7500 O   0  0  0  0  0  0  0  0  0  0  0  0
   42.1900   30.8250   64.9160 C   0  0  1  0  0  0  0  0  0  0  0  0
   41.3980   29.6780   65.8120 C   0  0  0  0  0  0  0  0  0  0  0  0
   43.5280   30.0470   64.4230 C   0  0  0  0  0  0  0  0  0  0  0  0
   43.0670   29.1660   63.5150 O   0  0  0  0  0  0  0  0  0  0  0  0
   38.2240   33.8710   60.6480 C   0  0  2  0  0  0  0  0  0  0  0  0
   38.6710   32.8320   59.6080 C   0  0  0  0  0  0  0  0  0  0  0  0
   38.7860   33.1690   58.4020 O   0  0  0  0  0  0  0  0  0  0  0  0
   38.4020   31.3340   59.9500 C   0  0  1  0  0  0  0  0  0  0  0  0
   38.6380   30.4650   58.8340 O   0  0  0  0  0  0  0  0  0  0  0  0
   39.1830   29.2840   59.4040 C   0  0  1  0  0  0  0  0  0  0  0  0
   40.2790   28.1530   58.8560 S   0  0  0  0  0  0  0  0  0  0  0  0
   40.2640   28.4710   57.0150 S   0  0  0  0  0  0  0  0  0  0  0  0
   39.4550   28.0250   55.4410 C   0  0  0  0  0  0  0  0  0  0  0  0
   37.9750   27.5320   55.4200 C   0  0  0  0  0  0  0  0  0  0  0  0
   37.1930   27.9830   54.4880 F   0  0  0  0  0  0  0  0  0  0  0  0
   37.5580   28.0430   56.5770 F   0  0  0  0  0  0  0  0  0  0  0  0
   38.1590   26.0770   55.5390 C   0  0  1  0  0  0  0  0  0  0  0  0
   39.0850   25.4010   54.8270 O   0  0  0  0  0  0  0  0  0  0  0  0
   37.5630   25.5660   56.8290 C   0  0  1  0  0  0  0  0  0  0  0  0
   36.3770   25.2520   57.1100 F   0  0  0  0  0  0  0  0  0  0  0  0
   38.4560   24.3390   57.4030 C   0  0  0  0  0  0  0  0  0  0  0  0
   39.7980   24.7530   57.3500 O   0  0  0  0  0  0  0  0  0  0  0  0
   39.9660   29.8360   60.5770 C   0  0  2  0  0  0  0  0  0  0  0  0
   40.7730   29.4920   61.7880 O   0  0  0  0  0  0  0  0  0  0  0  0
   39.0680   30.8620   61.0570 C   0  0  2  0  0  0  0  0  0  0  0  0
   38.4590   30.8900   62.2920 O   0  0  0  0  0  0  0  0  0  0  0  0
   35.5473   32.9517   62.3310 H   0  0  0  0  0  0  0  0  0  0  0  0
   34.8523   33.5438   60.7841 H   0  0  0  0  0  0  0  0  0  0  0  0
   35.9879   32.1520   60.7841 H   0  0  0  0  0  0  0  0  0  0  0  0
   37.3598   33.8646   62.0922 H   0  0  0  0  0  0  0  0  0  0  0  0
   36.1407   36.1269   60.8420 H   0  0  0  0  0  0  0  0  0  0  0  0
   36.1261   35.6320   62.4885 H   0  0  0  0  0  0  0  0  0  0  0  0
   38.4085   35.9135   62.7286 H   0  0  0  0  0  0  0  0  0  0  0  0
   39.4485   35.6227   59.8864 H   0  0  0  0  0  0  0  0  0  0  0  0
   41.0237   33.9709   60.9790 H   0  0  0  0  0  0  0  0  0  0  0  0
   41.2836   35.5342   60.2682 H   0  0  0  0  0  0  0  0  0  0  0  0
   42.1350   34.7460   63.5420 H   0  0  0  0  0  0  0  0  0  0  0  0
   39.6770   33.5706   64.0373 H   0  0  0  0  0  0  0  0  0  0  0  0
   40.0352   32.9884   62.3897 H   0  0  0  0  0  0  0  0  0  0  0  0
   41.3065   32.1027   62.8390 H   0  0  0  0  0  0  0  0  0  0  0  0
   41.5414   29.8857   66.8827 H   0  0  0  0  0  0  0  0  0  0  0  0
   40.3243   29.7038   65.5741 H   0  0  0  0  0  0  0  0  0  0  0  0
   41.8025   28.6831   65.5741 H   0  0  0  0  0  0  0  0  0  0  0  0
   44.2421   30.7465   63.9639 H   0  0  0  0  0  0  0  0  0  0  0  0
   44.0700   29.5641   65.2495 H   0  0  0  0  0  0  0  0  0  0  0  0
   43.6390   28.3570   63.5200 H   0  0  0  0  0  0  0  0  0  0  0  0
   38.3659   32.9854   61.2849 H   0  0  0  0  0  0  0  0  0  0  0  0
   37.3312   31.3195   60.2012 H   0  0  0  0  0  0  0  0  0  0  0  0
   38.2639   28.6819   59.3523 H   0  0  0  0  0  0  0  0  0  0  0  0
   39.4980   28.9186   54.8010 H   0  0  0  0  0  0  0  0  0  0  0  0
   40.0155   27.1346   55.1199 H   0  0  0  0  0  0  0  0  0  0  0  0
   37.6083   25.5820   54.7256 H   0  0  0  0  0  0  0  0  0  0  0  0
   39.4460   25.9860   54.1150 H   0  0  0  0  0  0  0  0  0  0  0  0
   37.5588   26.5818   57.2510 H   0  0  0  0  0  0  0  0  0  0  0  0
   38.1695   24.1156   58.4413 H   0  0  0  0  0  0  0  0  0  0  0  0
   38.3010   23.4266   56.8085 H   0  0  0  0  0  0  0  0  0  0  0  0
   39.9870   25.3570   58.1110 H   0  0  0  0  0  0  0  0  0  0  0  0
   40.8911   29.6578   60.0092 H   0  0  0  0  0  0  0  0  0  0  0  0
   41.5470   28.9360   61.5210 H   0  0  0  0  0  0  0  0  0  0  0  0
   39.7131   31.5941   61.5648 H   0  0  0  0  0  0  0  0  0  0  0  0
   38.2000   31.8210   62.5110 H   0  0  0  0  0  0  0  0  0  0  0  0
  1  2  1  0
  2  3  1  0
  3  4  1  0
  4  5  1  0
  5  6  2  0
  4  7  1  0
  7  8  1  0
  8  9  1  0
  9 10  2  0
  9 11  1  0
 11 12  1  0
 12 13  1  0
 13 14  1  0
 14 15  2  0
 14 16  1  0
 16 17  1  0
 17 18  1  1
 17 19  1  0
 19 20  1  0
  7 21  1  0
 21 22  1  0
 22 23  2  0
 22 24  1  0
 24 25  1  0
 25 26  1  0
 26 27  1  0
 27 28  1  0
 28 29  1  0
 29 30  1  0
 30 31  1  0
 30 32  1  0
 30 33  1  0
 33 34  1  0
 33 35  1  0
 35 36  1  0
 35 37  1  0
 37 38  1  0
 26 39  1  0
 39 40  1  0
 39 41  1  0
 41 42  1  0
 21  2  1  0
 41 24  1  0
 17 13  1  0
  1 43  1  0
  1 44  1  0
  1 45  1  0
  2 46  1  6
  3 47  1  0
  3 48  1  0
  4 49  1  1
  7 50  1  6
  8 51  1  0
  8 52  1  0
 11 53  1  0
 12 54  1  0
 12 55  1  0
 13 56  1  6
 18 57  1  0
 18 58  1  0
 18 59  1  0
 19 60  1  0
 19 61  1  0
 20 62  1  0
 21 63  1  1
 24 64  1  1
 26 65  1  1
 29 66  1  0
 29 67  1  0
 33 68  1  6
 34 69  1  0
 35 70  1  1
 37 71  1  0
 37 72  1  0
 38 73  1  0
 39 74  1  6
 40 75  1  0
 41 76  1  1
 42 77  1  0
M  END
>  <docking_score>  (49) 
-9.017

>  <plif_similarity>  (49) 
0.222

$$$$
DiffSBDD_69
     RDKit          3D

 57 57  0  0  0  0  0  0  0  0999 V2000
   40.6110   30.3810   50.2180 C   0  0  0  0  0  0  0  0  0  0  0  0
   39.9820   30.0810   51.5480 C   0  0  0  0  0  0  0  0  0  0  0  0
   39.0860   28.8570   51.5130 C   0  0  1  0  0  0  0  0  0  0  0  0
   39.7060   27.6190   50.8830 C   0  0  0  0  0  0  0  0  0  0  0  0
   38.5210   28.5960   52.9470 C   0  0  2  0  0  0  0  0  0  0  0  0
   37.1480   28.2580   52.9040 N   0  0  0  0  0  0  0  0  0  0  0  0
   38.8880   29.6560   53.9470 C   0  0  0  0  0  0  0  0  0  0  0  0
   37.5630   30.1200   54.7370 C   0  0  0  0  0  0  0  0  0  0  0  0
   37.5590   31.4640   55.2550 N   0  0  0  0  0  0  0  0  0  0  0  0
   38.3060   31.5350   56.5520 C   0  0  0  0  0  0  0  0  0  0  0  0
   38.1660   30.2370   57.3310 C   0  0  0  0  0  0  0  0  0  0  0  0
   39.2650   29.5930   57.7790 C   0  0  0  0  0  0  0  0  0  0  0  0
   40.0790   28.6430   58.3790 C   0  0  0  0  0  0  0  0  0  0  0  0
   41.0130   27.8490   57.6040 C   0  0  1  0  0  0  0  0  0  0  0  0
   42.3910   27.7480   57.8860 C   0  0  0  0  0  0  0  0  0  0  0  0
   40.2910   27.1530   56.5230 C   0  0  0  0  0  0  0  0  0  0  0  0
   39.4720   26.0270   56.5960 C   0  0  1  0  0  0  0  0  0  0  0  0
   39.3450   25.2430   57.8230 C   0  0  0  0  0  0  0  0  0  0  0  0
   37.9830   24.6510   57.7370 C   0  0  0  0  0  0  0  0  0  0  0  0
   37.6400   24.4300   56.2860 C   0  0  0  0  0  0  0  0  0  0  0  0
   38.3630   25.6730   55.3360 S   0  0  0  0  0  0  0  0  0  0  0  0
   41.5937   30.8497   50.3746 H   0  0  0  0  0  0  0  0  0  0  0  0
   40.7367   29.4459   49.6525 H   0  0  0  0  0  0  0  0  0  0  0  0
   39.9634   31.0672   49.6525 H   0  0  0  0  0  0  0  0  0  0  0  0
   40.7814   29.9102   52.2841 H   0  0  0  0  0  0  0  0  0  0  0  0
   39.3543   30.9428   51.8190 H   0  0  0  0  0  0  0  0  0  0  0  0
   38.2564   29.0839   50.8273 H   0  0  0  0  0  0  0  0  0  0  0  0
   40.0478   26.9365   51.6751 H   0  0  0  0  0  0  0  0  0  0  0  0
   38.9562   27.1104   50.2592 H   0  0  0  0  0  0  0  0  0  0  0  0
   40.5623   27.9148   50.2592 H   0  0  0  0  0  0  0  0  0  0  0  0
   39.0333   27.7069   53.3433 H   0  0  0  0  0  0  0  0  0  0  0  0
   36.9540   27.5220   53.5980 H   0  0  0  0  0  0  0  0  0  0  0  0
   36.5820   29.0920   53.1200 H   0  0  0  0  0  0  0  0  0  0  0  0
   36.9080   27.9160   51.9630 H   0  0  0  0  0  0  0  0  0  0  0  0
   39.6193   29.2503   54.6616 H   0  0  0  0  0  0  0  0  0  0  0  0
   39.3290   30.5187   53.4262 H   0  0  0  0  0  0  0  0  0  0  0  0
   36.7123   30.0260   54.0460 H   0  0  0  0  0  0  0  0  0  0  0  0
   37.5090   29.4680   55.6213 H   0  0  0  0  0  0  0  0  0  0  0  0
   36.5850   31.7630   55.4090 H   0  0  0  0  0  0  0  0  0  0  0  0
   38.0210   32.0820   54.5730 H   0  0  0  0  0  0  0  0  0  0  0  0
   39.3708   31.7175   56.3447 H   0  0  0  0  0  0  0  0  0  0  0  0
   37.8859   32.3535   57.1549 H   0  0  0  0  0  0  0  0  0  0  0  0
   37.1671   29.8215   57.5301 H   0  0  0  0  0  0  0  0  0  0  0  0
   40.0145   28.4887   59.4662 H   0  0  0  0  0  0  0  0  0  0  0  0
   41.2094   28.7145   56.9541 H   0  0  0  0  0  0  0  0  0  0  0  0
   42.5425   27.7369   58.9755 H   0  0  0  0  0  0  0  0  0  0  0  0
   42.7871   26.8184   57.4513 H   0  0  0  0  0  0  0  0  0  0  0  0
   42.9184   28.6099   57.4513 H   0  0  0  0  0  0  0  0  0  0  0  0
   39.6496   27.9288   56.0795 H   0  0  0  0  0  0  0  0  0  0  0  0
   41.1579   26.6823   56.0363 H   0  0  0  0  0  0  0  0  0  0  0  0
   40.4268   25.6028   56.2517 H   0  0  0  0  0  0  0  0  0  0  0  0
   40.1113   24.4549   57.8637 H   0  0  0  0  0  0  0  0  0  0  0  0
   39.4840   25.8516   58.7287 H   0  0  0  0  0  0  0  0  0  0  0  0
   37.9631   23.6901   58.2721 H   0  0  0  0  0  0  0  0  0  0  0  0
   37.2501   25.3317   58.1948 H   0  0  0  0  0  0  0  0  0  0  0  0
   38.0225   23.4506   55.9628 H   0  0  0  0  0  0  0  0  0  0  0  0
   36.5479   24.4547   56.1569 H   0  0  0  0  0  0  0  0  0  0  0  0
  1  2  1  0
  2  3  1  0
  3  4  1  0
  3  5  1  0
  5  6  1  0
  5  7  1  0
  7  8  1  0
  8  9  1  0
  9 10  1  0
 10 11  1  0
 11 12  2  0
 12 13  2  0
 13 14  1  0
 14 15  1  0
 14 16  1  0
 16 17  1  0
 17 18  1  0
 18 19  1  0
 19 20  1  0
 20 21  1  0
 21 17  1  0
  1 22  1  0
  1 23  1  0
  1 24  1  0
  2 25  1  0
  2 26  1  0
  3 27  1  6
  4 28  1  0
  4 29  1  0
  4 30  1  0
  5 31  1  1
  6 32  1  0
  6 33  1  0
  6 34  1  0
  7 35  1  0
  7 36  1  0
  8 37  1  0
  8 38  1  0
  9 39  1  0
  9 40  1  0
 10 41  1  0
 10 42  1  0
 11 43  1  0
 13 44  1  0
 14 45  1  6
 15 46  1  0
 15 47  1  0
 15 48  1  0
 16 49  1  0
 16 50  1  0
 17 51  1  6
 18 52  1  0
 18 53  1  0
 19 54  1  0
 19 55  1  0
 20 56  1  0
 20 57  1  0
M  CHG  2   6   1   9   1
M  END
>  <docking_score>  (50) 
-7.663

>  <plif_similarity>  (50) 
0.556

$$$$
DiffSBDD_70
     RDKit          3D

 44 43  0  0  0  0  0  0  0  0999 V2000
   39.8080   30.4210   52.1880 C   0  0  0  0  0  0  0  0  0  0  0  0
   40.3480   29.5690   51.0460 C   0  0  0  0  0  0  0  0  0  0  0  0
   40.4610   30.4930   49.8320 C   0  0  0  0  0  0  0  0  0  0  0  0
   39.6280   28.2620   50.7410 C   0  0  0  0  0  0  0  0  0  0  0  0
   38.7600   27.7870   51.8660 C   0  0  0  0  0  0  0  0  0  0  0  0
   39.3870   26.9130   52.8820 C   0  0  0  0  0  0  0  0  0  0  0  0
   39.2460   27.4330   54.3360 C   0  0  0  0  0  0  0  0  0  0  0  0
   37.7840   27.3310   54.8780 C   0  0  0  0  0  0  0  0  0  0  0  0
   37.1060   26.0360   54.5110 C   0  0  0  0  0  0  0  0  0  0  0  0
   37.2920   24.9730   55.5840 C   0  0  0  0  0  0  0  0  0  0  0  0
   37.1190   25.2170   56.8590 C   0  0  0  0  0  0  0  0  0  0  0  0
   38.1560   24.6980   57.8520 C   0  0  0  0  0  0  0  0  0  0  0  0
   39.2630   25.7020   58.1140 C   0  0  0  0  0  0  0  0  0  0  0  0
   39.0380   27.0210   58.2790 C   0  0  0  0  0  0  0  0  0  0  0  0
   38.2280   28.2710   58.3840 Cl  0  0  0  0  0  0  0  0  0  0  0  0
   40.0942   29.9695   53.1494 H   0  0  0  0  0  0  0  0  0  0  0  0
   40.2286   31.4351   52.1195 H   0  0  0  0  0  0  0  0  0  0  0  0
   38.7114   30.4735   52.1195 H   0  0  0  0  0  0  0  0  0  0  0  0
   41.3244   29.1736   51.3627 H   0  0  0  0  0  0  0  0  0  0  0  0
   40.5880   31.5314   50.1721 H   0  0  0  0  0  0  0  0  0  0  0  0
   41.3296   30.1970   49.2255 H   0  0  0  0  0  0  0  0  0  0  0  0
   39.5466   30.4150   49.2255 H   0  0  0  0  0  0  0  0  0  0  0  0
   38.9974   28.4100   49.8520 H   0  0  0  0  0  0  0  0  0  0  0  0
   40.3997   27.4951   50.5788 H   0  0  0  0  0  0  0  0  0  0  0  0
   38.3766   28.6770   52.3865 H   0  0  0  0  0  0  0  0  0  0  0  0
   37.9935   27.1600   51.3871 H   0  0  0  0  0  0  0  0  0  0  0  0
   38.9161   25.9207   52.8225 H   0  0  0  0  0  0  0  0  0  0  0  0
   40.4634   26.8857   52.6571 H   0  0  0  0  0  0  0  0  0  0  0  0
   39.9041   26.8387   54.9869 H   0  0  0  0  0  0  0  0  0  0  0  0
   39.5247   28.4971   54.3350 H   0  0  0  0  0  0  0  0  0  0  0  0
   37.8107   27.4136   55.9746 H   0  0  0  0  0  0  0  0  0  0  0  0
   37.2060   28.1457   54.4173 H   0  0  0  0  0  0  0  0  0  0  0  0
   36.0301   26.2231   54.3787 H   0  0  0  0  0  0  0  0  0  0  0  0
   37.5617   25.6647   53.5812 H   0  0  0  0  0  0  0  0  0  0  0  0
   36.5945   24.1606   55.3320 H   0  0  0  0  0  0  0  0  0  0  0  0
   38.3763   24.7944   55.5359 H   0  0  0  0  0  0  0  0  0  0  0  0
   37.0766   26.3099   56.9767 H   0  0  0  0  0  0  0  0  0  0  0  0
   36.2035   24.6635   57.1151 H   0  0  0  0  0  0  0  0  0  0  0  0
   37.6517   24.4727   58.8033 H   0  0  0  0  0  0  0  0  0  0  0  0
   38.6163   23.7993   57.4155 H   0  0  0  0  0  0  0  0  0  0  0  0
   39.7667   25.3641   59.0317 H   0  0  0  0  0  0  0  0  0  0  0  0
   39.8001   25.6904   57.1541 H   0  0  0  0  0  0  0  0  0  0  0  0
   39.5512   27.1188   59.2470 H   0  0  0  0  0  0  0  0  0  0  0  0
   38.9181   27.0900   57.1877 H   0  0  0  0  0  0  0  0  0  0  0  0
  1  2  1  0
  2  3  1  0
  2  4  1  0
  4  5  1  0
  5  6  1  0
  6  7  1  0
  7  8  1  0
  8  9  1  0
  9 10  1  0
 10 11  1  0
 11 12  1  0
 12 13  1  0
 13 14  1  0
 14 15  1  0
  1 16  1  0
  1 17  1  0
  1 18  1  0
  2 19  1  0
  3 20  1  0
  3 21  1  0
  3 22  1  0
  4 23  1  0
  4 24  1  0
  5 25  1  0
  5 26  1  0
  6 27  1  0
  6 28  1  0
  7 29  1  0
  7 30  1  0
  8 31  1  0
  8 32  1  0
  9 33  1  0
  9 34  1  0
 10 35  1  0
 10 36  1  0
 11 37  1  0
 11 38  1  0
 12 39  1  0
 12 40  1  0
 13 41  1  0
 13 42  1  0
 14 43  1  0
 14 44  1  0
M  END
>  <docking_score>  (51) 
-6.108

>  <plif_similarity>  (51) 
0.444

$$$$
DiffSBDD_71
     RDKit          3D

 51 53  0  0  0  0  0  0  0  0999 V2000
   35.6870   33.5530   60.8830 O   0  0  0  0  0  0  0  0  0  0  0  0
   36.3840   33.9110   59.9200 C   0  0  0  0  0  0  0  0  0  0  0  0
   36.2530   34.9710   59.2460 O   0  0  0  0  0  0  0  0  0  0  0  0
   37.7550   33.2150   59.7130 C   0  0  2  0  0  0  0  0  0  0  0  0
   38.5120   33.1830   61.0360 C   0  0  0  0  0  0  0  0  0  0  0  0
   38.5450   34.6110   61.5230 N   0  0  0  0  0  0  0  0  0  0  0  0
   39.6980   35.2150   61.9650 C   0  0  0  0  0  0  0  0  0  0  0  0
   40.7520   35.0830   61.1740 C   0  0  0  0  0  0  0  0  0  0  0  0
   40.8510   35.9920   62.1610 C   0  0  0  0  0  0  0  0  0  0  0  0
   38.4490   33.7830   58.4370 C   0  0  0  0  0  0  0  0  0  0  0  0
   37.9260   33.1080   57.2360 N   0  0  0  0  0  0  0  0  0  0  0  0
   38.6460   31.9490   56.7310 C   0  0  1  0  0  0  0  0  0  0  0  0
   38.2380   30.5900   57.3020 C   0  0  0  0  0  0  0  0  0  0  0  0
   39.0870   29.3590   57.0080 C   0  0  0  0  0  0  0  0  0  0  0  0
   39.4380   29.0740   55.7070 C   0  0  0  0  0  0  0  0  0  0  0  0
   40.0710   27.7920   55.7020 O   0  0  0  0  0  0  0  0  0  0  0  0
   39.2050   29.8120   54.4860 C   0  0  1  0  0  0  0  0  0  0  0  0
   39.1930   29.2950   53.1120 C   0  0  0  0  0  0  0  0  0  0  0  0
   39.9290   30.0940   52.2040 C   0  0  0  0  0  0  0  0  0  0  0  0
   40.1490   29.5530   50.8810 C   0  0  0  0  0  0  0  0  0  0  0  0
   39.5840   28.3640   50.4980 C   0  0  0  0  0  0  0  0  0  0  0  0
   38.7710   27.6780   51.3980 C   0  0  0  0  0  0  0  0  0  0  0  0
   38.5620   28.1730   52.7000 C   0  0  0  0  0  0  0  0  0  0  0  0
   37.3370   27.4720   53.6580 Cl  0  0  0  0  0  0  0  0  0  0  0  0
   39.0110   31.2290   54.5810 O   0  0  0  0  0  0  0  0  0  0  0  0
   38.0760   32.0150   55.2540 C   0  0  0  0  0  0  0  0  0  0  0  0
   37.6770   32.1460   59.4659 H   0  0  0  0  0  0  0  0  0  0  0  0
   37.9892   32.5425   61.7615 H   0  0  0  0  0  0  0  0  0  0  0  0
   39.5252   32.7725   60.9139 H   0  0  0  0  0  0  0  0  0  0  0  0
   37.8780   34.6610   62.3060 H   0  0  0  0  0  0  0  0  0  0  0  0
   38.3520   35.1330   60.6560 H   0  0  0  0  0  0  0  0  0  0  0  0
   38.9207   35.2007   62.7432 H   0  0  0  0  0  0  0  0  0  0  0  0
   41.3534   34.1633   61.2243 H   0  0  0  0  0  0  0  0  0  0  0  0
   40.8910   35.1312   60.0839 H   0  0  0  0  0  0  0  0  0  0  0  0
   41.5068   35.8070   63.0245 H   0  0  0  0  0  0  0  0  0  0  0  0
   41.0804   37.0657   62.2288 H   0  0  0  0  0  0  0  0  0  0  0  0
   38.2500   34.8624   58.3640 H   0  0  0  0  0  0  0  0  0  0  0  0
   39.5326   33.6073   58.5069 H   0  0  0  0  0  0  0  0  0  0  0  0
   37.9020   33.8050   56.4790 H   0  0  0  0  0  0  0  0  0  0  0  0
   37.0140   32.7330   57.5310 H   0  0  0  0  0  0  0  0  0  0  0  0
   39.7259   31.9974   56.9349 H   0  0  0  0  0  0  0  0  0  0  0  0
   38.2059   30.7008   58.3959 H   0  0  0  0  0  0  0  0  0  0  0  0
   37.2887   30.3731   56.7904 H   0  0  0  0  0  0  0  0  0  0  0  0
   39.4166   28.7038   57.8278 H   0  0  0  0  0  0  0  0  0  0  0  0
   40.2833   30.0122   54.4012 H   0  0  0  0  0  0  0  0  0  0  0  0
   40.3163   31.0824   52.4921 H   0  0  0  0  0  0  0  0  0  0  0  0
   40.7807   30.1051   50.1696 H   0  0  0  0  0  0  0  0  0  0  0  0
   39.7701   27.9568   49.4932 H   0  0  0  0  0  0  0  0  0  0  0  0
   38.2872   26.7399   51.0884 H   0  0  0  0  0  0  0  0  0  0  0  0
   38.0620   33.0459   54.8706 H   0  0  0  0  0  0  0  0  0  0  0  0
   37.0349   31.6753   55.1507 H   0  0  0  0  0  0  0  0  0  0  0  0
  1  2  2  0
  2  3  1  0
  2  4  1  0
  4  5  1  0
  5  6  1  0
  6  7  1  0
  7  8  1  0
  8  9  1  0
  4 10  1  0
 10 11  1  0
 11 12  1  0
 12 13  1  0
 13 14  1  0
 14 15  2  0
 15 16  1  0
 15 17  1  0
 17 18  1  0
 18 19  2  0
 19 20  1  0
 20 21  2  0
 21 22  1  0
 22 23  2  0
 23 24  1  0
 17 25  1  0
 25 26  1  0
  9  7  1  0
 26 12  1  0
 23 18  1  0
  4 27  1  6
  5 28  1  0
  5 29  1  0
  6 30  1  0
  6 31  1  0
  7 32  1  0
  8 33  1  0
  8 34  1  0
  9 35  1  0
  9 36  1  0
 10 37  1  0
 10 38  1  0
 11 39  1  0
 11 40  1  0
 12 41  1  6
 13 42  1  0
 13 43  1  0
 14 44  1  0
 17 45  1  1
 19 46  1  0
 20 47  1  0
 21 48  1  0
 22 49  1  0
 26 50  1  0
 26 51  1  0
M  CHG  4   3  -1   6   1  11   1  16  -1
M  END
>  <docking_score>  (52) 
-8.899

>  <plif_similarity>  (52) 
0.667

$$$$
DiffSBDD_72
     RDKit          3D

 31 30  0  0  0  0  0  0  0  0999 V2000
   40.3350   29.6450   49.9040 C   0  0  0  0  0  0  0  0  0  0  0  0
   40.2360   30.4350   51.1480 C   0  0  0  0  0  0  0  0  0  0  0  0
   39.4820   29.8820   52.5250 C   0  0  1  0  0  0  0  0  0  0  0  0
   38.8620   28.6000   52.6690 C   0  0  0  0  0  0  0  0  0  0  0  0
   38.1680   27.3010   53.1220 C   0  0  0  0  0  0  0  0  0  0  0  0
   36.7660   27.4660   53.3060 O   0  0  0  0  0  0  0  0  0  0  0  0
   39.6700   30.7110   53.5260 C   0  0  0  0  0  0  0  0  0  0  0  0
   39.7820   30.6990   55.0070 C   0  0  0  0  0  0  0  0  0  0  0  0
   38.5090   31.2910   55.6630 C   0  0  0  0  0  0  0  0  0  0  0  0
   37.4490   30.2510   55.5770 C   0  0  0  0  0  0  0  0  0  0  0  0
   36.4180   30.7940   54.7170 O   0  0  0  0  0  0  0  0  0  0  0  0
   40.4682   28.5822   50.1542 H   0  0  0  0  0  0  0  0  0  0  0  0
   39.4141   29.7706   49.3156 H   0  0  0  0  0  0  0  0  0  0  0  0
   41.1964   29.9939   49.3156 H   0  0  0  0  0  0  0  0  0  0  0  0
   41.2707   30.6646   51.4424 H   0  0  0  0  0  0  0  0  0  0  0  0
   39.5560   31.2422   50.8382 H   0  0  0  0  0  0  0  0  0  0  0  0
   38.4864   29.4677   52.3078 H   0  0  0  0  0  0  0  0  0  0  0  0
   38.1153   28.8019   51.8869 H   0  0  0  0  0  0  0  0  0  0  0  0
   39.7136   28.3110   53.3024 H   0  0  0  0  0  0  0  0  0  0  0  0
   38.3346   26.5274   52.3579 H   0  0  0  0  0  0  0  0  0  0  0  0
   38.6001   27.0125   54.0916 H   0  0  0  0  0  0  0  0  0  0  0  0
   36.5500   28.4310   53.3560 H   0  0  0  0  0  0  0  0  0  0  0  0
   40.6205   31.1851   53.2400 H   0  0  0  0  0  0  0  0  0  0  0  0
   38.6063   30.9893   53.5596 H   0  0  0  0  0  0  0  0  0  0  0  0
   39.9148   29.6622   55.3497 H   0  0  0  0  0  0  0  0  0  0  0  0
   40.6461   31.3140   55.2989 H   0  0  0  0  0  0  0  0  0  0  0  0
   38.7082   31.5407   56.7156 H   0  0  0  0  0  0  0  0  0  0  0  0
   38.1963   32.2123   55.1498 H   0  0  0  0  0  0  0  0  0  0  0  0
   37.8573   29.3254   55.1450 H   0  0  0  0  0  0  0  0  0  0  0  0
   37.0507   30.0018   56.5716 H   0  0  0  0  0  0  0  0  0  0  0  0
   36.4050   30.2950   53.8630 H   0  0  0  0  0  0  0  0  0  0  0  0
  1  2  1  0
  2  3  1  0
  3  4  1  0
  4  5  1  0
  5  6  1  0
  3  7  1  0
  7  8  1  0
  8  9  1  0
  9 10  1  0
 10 11  1  0
  1 12  1  0
  1 13  1  0
  1 14  1  0
  2 15  1  0
  2 16  1  0
  3 17  1  6
  4 18  1  0
  4 19  1  0
  5 20  1  0
  5 21  1  0
  6 22  1  0
  7 23  1  0
  7 24  1  0
  8 25  1  0
  8 26  1  0
  9 27  1  0
  9 28  1  0
 10 29  1  0
 10 30  1  0
 11 31  1  0
M  END
>  <docking_score>  (53) 
-5.239

>  <plif_similarity>  (53) 
0.333

$$$$
DiffSBDD_74
     RDKit          3D

 72 74  0  0  0  0  0  0  0  0999 V2000
   37.6390   37.8200   61.3170 C   0  0  0  0  0  0  0  0  0  0  0  0
   36.8980   36.7840   60.3870 C   0  0  0  0  0  0  0  0  0  0  0  0
   37.3510   35.3490   60.6630 C   0  0  2  0  0  0  0  0  0  0  0  0
   36.2920   34.7440   61.5560 O   0  0  0  0  0  0  0  0  0  0  0  0
   38.6110   35.4930   61.4540 C   0  0  0  0  0  0  0  0  0  0  0  0
   39.7690   34.5500   61.1440 C   0  0  0  0  0  0  0  0  0  0  0  0
   41.0590   34.7320   61.8070 C   0  0  0  0  0  0  0  0  0  0  0  0
   41.8350   35.2370   60.8590 F   0  0  0  0  0  0  0  0  0  0  0  0
   41.1630   35.6430   62.8210 F   0  0  0  0  0  0  0  0  0  0  0  0
   41.3000   33.5130   62.3570 C   0  0  0  0  0  0  0  0  0  0  0  0
   42.2080   32.7190   61.9590 F   0  0  0  0  0  0  0  0  0  0  0  0
   40.5320   33.2300   63.3670 F   0  0  0  0  0  0  0  0  0  0  0  0
   39.5230   33.4840   60.1320 C   0  0  0  0  0  0  0  0  0  0  0  0
   38.3350   33.4400   59.3740 C   0  0  0  0  0  0  0  0  0  0  0  0
   38.0020   32.2620   58.5180 C   0  0  0  0  0  0  0  0  0  0  0  0
   37.4700   30.8700   58.9750 N   0  0  1  0  0  0  0  0  0  0  0  0
   36.2150   30.7490   59.7050 C   0  0  0  0  0  0  0  0  0  0  0  0
   38.0530   29.5950   58.5800 C   0  0  2  0  0  0  0  0  0  0  0  0
   39.0210   29.0410   59.7200 C   0  0  0  0  0  0  0  0  0  0  0  0
   39.2970   27.5750   59.5090 C   0  0  0  0  0  0  0  0  0  0  0  0
   39.2580   27.1250   58.0340 C   0  0  0  0  0  0  0  0  0  0  0  0
   39.6630   28.2530   57.2970 C   0  0  2  0  0  0  0  0  0  0  0  0
   40.9270   28.2250   56.7260 O   0  0  0  0  0  0  0  0  0  0  0  0
   38.8480   29.5760   57.2840 C   0  0  1  0  0  0  0  0  0  0  0  0
   39.3470   30.3750   55.9980 N   0  0  0  0  0  0  0  0  0  0  0  0
   38.5140   29.7730   54.9240 C   0  0  0  0  0  0  0  0  0  0  0  0
   38.9380   29.2330   53.7270 C   0  0  0  0  0  0  0  0  0  0  0  0
   38.8970   27.8180   53.5680 C   0  0  0  0  0  0  0  0  0  0  0  0
   39.1920   27.1970   52.3560 C   0  0  0  0  0  0  0  0  0  0  0  0
   39.5780   27.9970   51.2640 C   0  0  0  0  0  0  0  0  0  0  0  0
   39.7700   29.3890   51.4950 C   0  0  0  0  0  0  0  0  0  0  0  0
   40.3750   30.2390   50.4150 C   0  0  0  0  0  0  0  0  0  0  0  0
   39.5720   31.2990   50.2210 F   0  0  0  0  0  0  0  0  0  0  0  0
   41.5850   30.5760   50.7500 F   0  0  0  0  0  0  0  0  0  0  0  0
   40.4390   29.4630   49.1810 F   0  0  0  0  0  0  0  0  0  0  0  0
   39.3980   30.0290   52.6560 C   0  0  0  0  0  0  0  0  0  0  0  0
   37.2960   34.5340   59.3730 C   0  0  0  0  0  0  0  0  0  0  0  0
   37.4555   37.5634   62.3708 H   0  0  0  0  0  0  0  0  0  0  0  0
   38.7197   37.7871   61.1144 H   0  0  0  0  0  0  0  0  0  0  0  0
   37.2587   38.8321   61.1144 H   0  0  0  0  0  0  0  0  0  0  0  0
   35.8150   36.8562   60.5653 H   0  0  0  0  0  0  0  0  0  0  0  0
   37.1430   37.0254   59.3422 H   0  0  0  0  0  0  0  0  0  0  0  0
   35.3950   34.9950   61.2200 H   0  0  0  0  0  0  0  0  0  0  0  0
   38.7007   36.2586   62.2387 H   0  0  0  0  0  0  0  0  0  0  0  0
   40.5904   33.0548   61.6523 H   0  0  0  0  0  0  0  0  0  0  0  0
   40.2889   32.7108   59.9721 H   0  0  0  0  0  0  0  0  0  0  0  0
   37.2433   32.6338   57.8136 H   0  0  0  0  0  0  0  0  0  0  0  0
   39.0226   31.9670   58.2327 H   0  0  0  0  0  0  0  0  0  0  0  0
   38.2910   31.3160   59.4080 H   0  0  0  0  0  0  0  0  0  0  0  0
   36.4164   30.7684   60.7862 H   0  0  0  0  0  0  0  0  0  0  0  0
   35.5543   31.5876   59.4400 H   0  0  0  0  0  0  0  0  0  0  0  0
   35.7267   29.7996   59.4400 H   0  0  0  0  0  0  0  0  0  0  0  0
   37.1645   28.9672   58.4172 H   0  0  0  0  0  0  0  0  0  0  0  0
   39.9701   29.5962   59.6908 H   0  0  0  0  0  0  0  0  0  0  0  0
   38.5342   29.1751   60.6973 H   0  0  0  0  0  0  0  0  0  0  0  0
   40.2965   27.3518   59.9104 H   0  0  0  0  0  0  0  0  0  0  0  0
   38.4952   27.0271   60.0256 H   0  0  0  0  0  0  0  0  0  0  0  0
   39.9496   26.2860   57.8676 H   0  0  0  0  0  0  0  0  0  0  0  0
   38.2590   26.7742   57.7359 H   0  0  0  0  0  0  0  0  0  0  0  0
   38.9203   28.0314   56.5164 H   0  0  0  0  0  0  0  0  0  0  0  0
   40.9560   27.5320   56.0200 H   0  0  0  0  0  0  0  0  0  0  0  0
   39.6277   30.0623   57.8887 H   0  0  0  0  0  0  0  0  0  0  0  0
   40.3510   30.2190   55.8260 H   0  0  0  0  0  0  0  0  0  0  0  0
   39.2500   31.3970   56.0770 H   0  0  0  0  0  0  0  0  0  0  0  0
   37.9656   28.9582   55.4194 H   0  0  0  0  0  0  0  0  0  0  0  0
   38.0477   30.6915   54.5382 H   0  0  0  0  0  0  0  0  0  0  0  0
   38.6231   27.1942   54.4316 H   0  0  0  0  0  0  0  0  0  0  0  0
   39.1246   26.1038   52.2546 H   0  0  0  0  0  0  0  0  0  0  0  0
   39.7265   27.5612   50.2650 H   0  0  0  0  0  0  0  0  0  0  0  0
   39.4573   31.1237   52.7458 H   0  0  0  0  0  0  0  0  0  0  0  0
   37.4792   35.2020   58.5185 H   0  0  0  0  0  0  0  0  0  0  0  0
   36.3016   34.0699   59.2964 H   0  0  0  0  0  0  0  0  0  0  0  0
  1  2  1  0
  2  3  1  0
  3  4  1  1
  3  5  1  0
  5  6  2  0
  6  7  1  0
  7  8  1  0
  7  9  1  0
  7 10  1  0
 10 11  1  0
 10 12  1  0
  6 13  1  0
 13 14  2  0
 14 15  1  0
 15 16  1  0
 16 17  1  0
 16 18  1  0
 18 19  1  0
 19 20  1  0
 20 21  1  0
 21 22  1  0
 22 23  1  0
 22 24  1  0
 24 25  1  0
 25 26  1  0
 26 27  1  0
 27 28  2  0
 28 29  1  0
 29 30  2  0
 30 31  1  0
 31 32  1  0
 32 33  1  0
 32 34  1  0
 32 35  1  0
 31 36  2  0
 14 37  1  0
 37  3  1  0
 24 18  1  0
 36 27  1  0
  1 38  1  0
  1 39  1  0
  1 40  1  0
  2 41  1  0
  2 42  1  0
  4 43  1  0
  5 44  1  0
 10 45  1  0
 13 46  1  0
 15 47  1  0
 15 48  1  0
 16 49  1  1
 17 50  1  0
 17 51  1  0
 17 52  1  0
 18 53  1  6
 19 54  1  0
 19 55  1  0
 20 56  1  0
 20 57  1  0
 21 58  1  0
 21 59  1  0
 22 60  1  6
 23 61  1  0
 24 62  1  6
 25 63  1  0
 25 64  1  0
 26 65  1  0
 26 66  1  0
 28 67  1  0
 29 68  1  0
 30 69  1  0
 36 70  1  0
 37 71  1  0
 37 72  1  0
M  CHG  2  16   1  25   1
M  END
>  <docking_score>  (54) 
-11.856

>  <plif_similarity>  (54) 
0.556

$$$$
DiffSBDD_75
     RDKit          3D

 76 77  0  0  0  0  0  0  0  0999 V2000
   41.2170   29.3750   62.9960 C   0  0  0  0  0  0  0  0  0  0  0  0
   40.7340   28.5910   61.7890 O   0  0  0  0  0  0  0  0  0  0  0  0
   39.6360   29.2530   61.1590 C   0  0  1  0  0  0  0  0  0  0  0  0
   39.0190   28.5860   60.0060 C   0  0  0  0  0  0  0  0  0  0  0  0
   39.5450   28.8780   58.7510 C   0  0  2  0  0  0  0  0  0  0  0  0
   39.0630   29.6970   57.6140 C   0  0  0  0  0  0  0  0  0  0  0  0
   38.0020   30.2530   57.8860 O   0  0  0  0  0  0  0  0  0  0  0  0
   39.4970   29.6740   56.1120 C   0  0  0  0  0  0  0  0  0  0  0  0
   38.6810   29.3180   54.8510 C   0  0  0  0  0  0  0  0  0  0  0  0
   39.1800   29.2690   53.5080 C   0  0  0  0  0  0  0  0  0  0  0  0
   39.1120   28.0640   52.7530 C   0  0  0  0  0  0  0  0  0  0  0  0
   39.3950   28.1030   51.3700 C   0  0  0  0  0  0  0  0  0  0  0  0
   39.7840   29.3290   50.7800 C   0  0  0  0  0  0  0  0  0  0  0  0
   39.9500   29.4230   49.3900 O   0  0  0  0  0  0  0  0  0  0  0  0
   40.0770   30.4920   51.5750 C   0  0  0  0  0  0  0  0  0  0  0  0
   39.7850   30.4750   52.9490 C   0  0  0  0  0  0  0  0  0  0  0  0
   40.2630   27.6850   58.1890 N   0  0  0  0  0  0  0  0  0  0  0  0
   41.6350   27.6680   58.1290 C   0  0  0  0  0  0  0  0  0  0  0  0
   39.4280   26.6480   58.2150 C   0  0  0  0  0  0  0  0  0  0  0  0
   39.4360   25.8630   56.8240 C   0  0  0  0  0  0  0  0  0  0  0  0
   39.8050   24.5950   57.2080 O   0  0  0  0  0  0  0  0  0  0  0  0
   38.7730   30.5420   61.6960 S   0  0  0  0  0  0  0  0  0  0  0  0
   39.4600   31.9240   60.8230 C   0  0  0  0  0  0  0  0  0  0  0  0
   39.1140   33.2110   60.0370 C   0  0  1  0  0  0  0  0  0  0  0  0
   38.8510   33.2030   58.6990 O   0  0  0  0  0  0  0  0  0  0  0  0
   38.7660   34.6380   60.5470 C   0  0  2  0  0  0  0  0  0  0  0  0
   37.4630   35.0950   60.2740 C   0  0  0  0  0  0  0  0  0  0  0  0
   36.1650   34.2190   60.0820 C   0  0  0  0  0  0  0  0  0  0  0  0
   37.2770   36.5050   60.1610 C   0  0  0  0  0  0  0  0  0  0  0  0
   36.3380   36.8780   59.2630 O   0  0  0  0  0  0  0  0  0  0  0  0
   38.1090   37.4170   60.9280 C   0  0  0  0  0  0  0  0  0  0  0  0
   39.2220   36.8410   61.5130 C   0  0  1  0  0  0  0  0  0  0  0  0
   40.0870   37.5820   62.3810 O   0  0  0  0  0  0  0  0  0  0  0  0
   39.5850   35.5360   61.3250 C   0  0  1  0  0  0  0  0  0  0  0  0
   40.9130   35.0190   61.7990 C   0  0  0  0  0  0  0  0  0  0  0  0
   40.9012   28.8623   63.9166 H   0  0  0  0  0  0  0  0  0  0  0  0
   42.3146   29.4443   62.9730 H   0  0  0  0  0  0  0  0  0  0  0  0
   40.7852   30.3865   62.9730 H   0  0  0  0  0  0  0  0  0  0  0  0
   40.5146   29.9093   61.2446 H   0  0  0  0  0  0  0  0  0  0  0  0
   39.1130   27.5010   60.1609 H   0  0  0  0  0  0  0  0  0  0  0  0
   37.9859   28.9627   59.9773 H   0  0  0  0  0  0  0  0  0  0  0  0
   39.9881   29.7672   59.2232 H   0  0  0  0  0  0  0  0  0  0  0  0
   39.8563   30.6958   55.9202 H   0  0  0  0  0  0  0  0  0  0  0  0
   40.1105   28.7618   56.1512 H   0  0  0  0  0  0  0  0  0  0  0  0
   38.2759   28.3138   55.0443 H   0  0  0  0  0  0  0  0  0  0  0  0
   38.0457   30.2133   54.7812 H   0  0  0  0  0  0  0  0  0  0  0  0
   38.8427   27.1153   53.2403 H   0  0  0  0  0  0  0  0  0  0  0  0
   39.3141   27.1918   50.7591 H   0  0  0  0  0  0  0  0  0  0  0  0
   39.4130   28.8500   48.7880 H   0  0  0  0  0  0  0  0  0  0  0  0
   40.5244   31.3840   51.1123 H   0  0  0  0  0  0  0  0  0  0  0  0
   40.0056   31.3447   53.5853 H   0  0  0  0  0  0  0  0  0  0  0  0
   42.0466   27.6629   59.1491 H   0  0  0  0  0  0  0  0  0  0  0  0
   41.9675   26.7657   57.5949 H   0  0  0  0  0  0  0  0  0  0  0  0
   41.9898   28.5618   57.5949 H   0  0  0  0  0  0  0  0  0  0  0  0
   39.7353   25.9602   59.0166 H   0  0  0  0  0  0  0  0  0  0  0  0
   38.4106   27.0253   58.3955 H   0  0  0  0  0  0  0  0  0  0  0  0
   38.4390   25.8647   56.3594 H   0  0  0  0  0  0  0  0  0  0  0  0
   40.1023   26.3075   56.0700 H   0  0  0  0  0  0  0  0  0  0  0  0
   39.4290   23.9350   56.5730 H   0  0  0  0  0  0  0  0  0  0  0  0
   40.1135   32.3418   61.6030 H   0  0  0  0  0  0  0  0  0  0  0  0
   39.4829   31.3422   59.8897 H   0  0  0  0  0  0  0  0  0  0  0  0
   39.9485   32.8648   60.6646 H   0  0  0  0  0  0  0  0  0  0  0  0
   39.2620   32.4020   58.2870 H   0  0  0  0  0  0  0  0  0  0  0  0
   38.4172   34.2125   61.4995 H   0  0  0  0  0  0  0  0  0  0  0  0
   35.7587   33.9448   61.0668 H   0  0  0  0  0  0  0  0  0  0  0  0
   35.4132   34.7952   59.5227 H   0  0  0  0  0  0  0  0  0  0  0  0
   36.4181   33.3062   59.5227 H   0  0  0  0  0  0  0  0  0  0  0  0
   35.3780   36.7530   59.4710 H   0  0  0  0  0  0  0  0  0  0  0  0
   38.4526   38.2149   60.2532 H   0  0  0  0  0  0  0  0  0  0  0  0
   37.4824   37.7836   61.7544 H   0  0  0  0  0  0  0  0  0  0  0  0
   39.8320   37.1417   60.6484 H   0  0  0  0  0  0  0  0  0  0  0  0
   40.4270   36.9860   63.0950 H   0  0  0  0  0  0  0  0  0  0  0  0
   40.0337   35.8004   60.3561 H   0  0  0  0  0  0  0  0  0  0  0  0
   40.9322   35.0115   62.8988 H   0  0  0  0  0  0  0  0  0  0  0  0
   41.0639   33.9964   61.4227 H   0  0  0  0  0  0  0  0  0  0  0  0
   41.7156   35.6704   61.4227 H   0  0  0  0  0  0  0  0  0  0  0  0
  1  2  1  0
  2  3  1  0
  3  4  1  0
  4  5  1  0
  5  6  1  0
  6  7  2  0
  6  8  1  0
  8  9  1  0
  9 10  1  0
 10 11  1  0
 11 12  2  0
 12 13  1  0
 13 14  1  0
 13 15  2  0
 15 16  1  0
  5 17  1  0
 17 18  1  0
 17 19  1  0
 19 20  1  0
 20 21  1  0
  3 22  1  0
 22 23  1  0
 23 24  1  0
 24 25  1  0
 24 26  1  0
 26 27  1  0
 27 28  1  0
 27 29  2  0
 29 30  1  0
 29 31  1  0
 31 32  1  0
 32 33  1  0
 32 34  1  0
 34 35  1  0
 16 10  2  0
 34 26  1  0
  1 36  1  0
  1 37  1  0
  1 38  1  0
  3 39  1  6
  4 40  1  0
  4 41  1  0
  5 42  1  1
  8 43  1  0
  8 44  1  0
  9 45  1  0
  9 46  1  0
 11 47  1  0
 12 48  1  0
 14 49  1  0
 15 50  1  0
 16 51  1  0
 18 52  1  0
 18 53  1  0
 18 54  1  0
 19 55  1  0
 19 56  1  0
 20 57  1  0
 20 58  1  0
 21 59  1  0
 23 60  1  0
 23 61  1  0
 24 62  1  6
 25 63  1  0
 26 64  1  6
 28 65  1  0
 28 66  1  0
 28 67  1  0
 30 68  1  0
 31 69  1  0
 31 70  1  0
 32 71  1  6
 33 72  1  0
 34 73  1  1
 35 74  1  0
 35 75  1  0
 35 76  1  0
M  END
>  <docking_score>  (55) 
-9.206

>  <plif_similarity>  (55) 
0.444

$$$$
DiffSBDD_76
     RDKit          3D

 22 21  0  0  0  0  0  0  0  0999 V2000
   40.5850   30.3480   49.9130 C   0  0  0  0  0  0  0  0  0  0  0  0
   40.2790   30.4280   51.4410 C   0  0  0  0  0  0  0  0  0  0  0  0
   39.2340   29.3680   51.7620 C   0  0  0  0  0  0  0  0  0  0  0  0
   39.5140   27.9280   51.1300 C   0  0  0  0  0  0  0  0  0  0  0  0
   39.5890   27.0130   52.2620 C   0  0  0  0  0  0  0  0  0  0  0  0
   39.2770   27.1310   53.7040 C   0  0  0  0  0  0  0  0  0  0  0  0
   39.3000   26.4260   54.7980 C   0  0  0  0  0  0  0  0  0  0  0  0
   39.2550   25.4780   56.1310 S   0  0  0  0  0  0  0  0  0  0  0  0
   41.6394   30.0723   49.7642 H   0  0  0  0  0  0  0  0  0  0  0  0
   39.9385   29.5887   49.4488 H   0  0  0  0  0  0  0  0  0  0  0  0
   40.3928   31.3266   49.4488 H   0  0  0  0  0  0  0  0  0  0  0  0
   41.1962   30.2358   52.0170 H   0  0  0  0  0  0  0  0  0  0  0  0
   39.9062   31.4282   51.7066 H   0  0  0  0  0  0  0  0  0  0  0  0
   39.1858   29.2569   52.8553 H   0  0  0  0  0  0  0  0  0  0  0  0
   38.2924   29.7208   51.3159 H   0  0  0  0  0  0  0  0  0  0  0  0
   38.6948   27.6385   50.4555 H   0  0  0  0  0  0  0  0  0  0  0  0
   40.4389   27.9168   50.5346 H   0  0  0  0  0  0  0  0  0  0  0  0
   39.9589   26.0152   51.9833 H   0  0  0  0  0  0  0  0  0  0  0  0
   38.9049   28.1429   53.9220 H   0  0  0  0  0  0  0  0  0  0  0  0
   40.3853   26.2745   54.7019 H   0  0  0  0  0  0  0  0  0  0  0  0
   38.5174   27.0682   55.2283 H   0  0  0  0  0  0  0  0  0  0  0  0
   38.6640   24.2820   55.8210 H   0  0  0  0  0  0  0  0  0  0  0  0
  1  2  1  0
  2  3  1  0
  3  4  1  0
  4  5  1  0
  5  6  2  3
  6  7  1  0
  7  8  1  0
  1  9  1  0
  1 10  1  0
  1 11  1  0
  2 12  1  0
  2 13  1  0
  3 14  1  0
  3 15  1  0
  4 16  1  0
  4 17  1  0
  5 18  1  0
  6 19  1  0
  7 20  1  0
  7 21  1  0
  8 22  1  0
M  END
>  <docking_score>  (56) 
-4.473

>  <plif_similarity>  (56) 
0.333

$$$$
DiffSBDD_77
     RDKit          3D

 71 74  0  0  0  0  0  0  0  0999 V2000
   38.3210   24.5150   57.7960 C   0  0  0  0  0  0  0  0  0  0  0  0
   38.9410   25.8250   57.7810 C   0  0  0  0  0  0  0  0  0  0  0  0
   40.2750   25.9070   57.7460 O   0  0  0  0  0  0  0  0  0  0  0  0
   38.0020   27.0420   57.8200 C   0  0  0  0  0  0  0  0  0  0  0  0
   38.2870   28.2800   58.0330 C   0  0  1  0  0  0  0  0  0  0  0  0
   38.7660   28.8040   59.5170 C   0  0  0  0  0  0  0  0  0  0  0  0
   39.4920   29.9420   59.7400 C   0  0  0  0  0  0  0  0  0  0  0  0
   38.4710   31.2030   59.6650 C   0  0  1  0  0  0  0  0  0  0  0  0
   38.7580   31.9260   60.8550 O   0  0  0  0  0  0  0  0  0  0  0  0
   39.3270   33.2170   61.1120 C   0  0  0  0  0  0  0  0  0  0  0  0
   38.4420   34.3470   60.4890 C   0  0  0  0  0  0  0  0  0  0  0  0
   38.4360   35.6200   61.0970 C   0  0  0  0  0  0  0  0  0  0  0  0
   39.3160   35.8820   62.1440 C   0  0  0  0  0  0  0  0  0  0  0  0
   39.1450   37.0610   63.0840 C   0  0  0  0  0  0  0  0  0  0  0  0
   40.1850   37.9900   62.6900 O   0  0  0  0  0  0  0  0  0  0  0  0
   40.3960   35.0120   62.4620 C   0  0  0  0  0  0  0  0  0  0  0  0
   41.3990   35.4350   63.2740 O   0  0  0  0  0  0  0  0  0  0  0  0
   40.3770   33.6970   61.9130 C   0  0  0  0  0  0  0  0  0  0  0  0
   41.5600   32.6750   62.2940 C   0  0  0  0  0  0  0  0  0  0  0  0
   38.4200   31.8710   58.1030 C   0  0  0  0  0  0  0  0  0  0  0  0
   38.0940   30.6020   57.1040 C   0  0  1  0  0  0  0  0  0  0  0  0
   37.9110   31.0240   55.9510 C   0  0  0  0  0  0  0  0  0  0  0  0
   39.0740   31.0210   54.7890 S   0  0  0  0  0  0  0  0  0  0  0  0
   39.2300   29.3170   54.4550 C   0  0  2  0  0  0  0  0  0  0  0  0
   39.7410   29.3040   52.7960 C   0  0  1  0  0  0  0  0  0  0  0  0
   40.1440   30.4670   52.0890 C   0  0  0  0  0  0  0  0  0  0  0  0
   40.1440   30.5910   50.6340 C   0  0  0  0  0  0  0  0  0  0  0  0
   41.2880   30.5740   49.8560 F   0  0  0  0  0  0  0  0  0  0  0  0
   39.3780   31.6900   50.0540 F   0  0  0  0  0  0  0  0  0  0  0  0
   39.9530   29.3930   49.8620 C   0  0  0  0  0  0  0  0  0  0  0  0
   39.6200   29.3640   48.4800 F   0  0  0  0  0  0  0  0  0  0  0  0
   39.7050   28.1840   50.6150 C   0  0  0  0  0  0  0  0  0  0  0  0
   39.7720   28.1220   51.8760 C   0  0  2  0  0  0  0  0  0  0  0  0
   39.6380   26.9550   52.6770 O   0  0  0  0  0  0  0  0  0  0  0  0
   38.3530   28.6610   55.4820 C   0  0  0  0  0  0  0  0  0  0  0  0
   38.6850   29.2260   56.7810 C   0  0  2  0  0  0  0  0  0  0  0  0
   38.1687   24.1933   58.8368 H   0  0  0  0  0  0  0  0  0  0  0  0
   37.3500   24.5630   57.2813 H   0  0  0  0  0  0  0  0  0  0  0  0
   38.9737   23.7945   57.2813 H   0  0  0  0  0  0  0  0  0  0  0  0
   40.8170   25.0970   57.5740 H   0  0  0  0  0  0  0  0  0  0  0  0
   36.9385   26.8252   57.6410 H   0  0  0  0  0  0  0  0  0  0  0  0
   37.2122   28.4782   58.1577 H   0  0  0  0  0  0  0  0  0  0  0  0
   37.8415   28.9239   60.1008 H   0  0  0  0  0  0  0  0  0  0  0  0
   39.5089   28.0348   59.7745 H   0  0  0  0  0  0  0  0  0  0  0  0
   39.9608   29.8983   60.7342 H   0  0  0  0  0  0  0  0  0  0  0  0
   40.2870   30.0451   58.9868 H   0  0  0  0  0  0  0  0  0  0  0  0
   37.3853   31.0331   59.7136 H   0  0  0  0  0  0  0  0  0  0  0  0
   37.8351   34.1522   59.5925 H   0  0  0  0  0  0  0  0  0  0  0  0
   37.7423   36.3987   60.7471 H   0  0  0  0  0  0  0  0  0  0  0  0
   38.1506   37.5152   62.9618 H   0  0  0  0  0  0  0  0  0  0  0  0
   39.2226   36.7687   64.1416 H   0  0  0  0  0  0  0  0  0  0  0  0
   40.5460   37.7270   61.8070 H   0  0  0  0  0  0  0  0  0  0  0  0
   41.3720   36.3470   63.6600 H   0  0  0  0  0  0  0  0  0  0  0  0
   41.6437   32.6026   63.3884 H   0  0  0  0  0  0  0  0  0  0  0  0
   41.3353   31.6822   61.8770 H   0  0  0  0  0  0  0  0  0  0  0  0
   42.5096   33.0415   61.8770 H   0  0  0  0  0  0  0  0  0  0  0  0
   37.6275   32.6307   58.0335 H   0  0  0  0  0  0  0  0  0  0  0  0
   39.3625   32.3725   57.8382 H   0  0  0  0  0  0  0  0  0  0  0  0
   37.4284   30.2785   57.9178 H   0  0  0  0  0  0  0  0  0  0  0  0
   37.0772   30.4335   55.5435 H   0  0  0  0  0  0  0  0  0  0  0  0
   37.7922   32.1023   56.1332 H   0  0  0  0  0  0  0  0  0  0  0  0
   39.8630   28.4274   54.5886 H   0  0  0  0  0  0  0  0  0  0  0  0
   38.7020   29.4687   52.4747 H   0  0  0  0  0  0  0  0  0  0  0  0
   39.4943   31.2757   52.4549 H   0  0  0  0  0  0  0  0  0  0  0  0
   41.2248   30.4661   52.2937 H   0  0  0  0  0  0  0  0  0  0  0  0
   39.4443   27.2698   50.0616 H   0  0  0  0  0  0  0  0  0  0  0  0
   40.5204   28.0453   51.0735 H   0  0  0  0  0  0  0  0  0  0  0  0
   38.9820   26.3420   52.2600 H   0  0  0  0  0  0  0  0  0  0  0  0
   37.2956   28.8552   55.2493 H   0  0  0  0  0  0  0  0  0  0  0  0
   38.5148   27.5730   55.4850 H   0  0  0  0  0  0  0  0  0  0  0  0
   39.7748   29.3204   56.6652 H   0  0  0  0  0  0  0  0  0  0  0  0
  1  2  1  0
  2  3  1  0
  2  4  2  3
  4  5  1  0
  5  6  1  0
  6  7  1  0
  7  8  1  0
  8  9  1  0
  9 10  1  0
 10 11  1  0
 11 12  2  0
 12 13  1  0
 13 14  1  0
 14 15  1  0
 13 16  2  0
 16 17  1  0
 16 18  1  0
 18 19  1  0
  8 20  1  0
 20 21  1  0
 21 22  1  0
 22 23  1  0
 23 24  1  0
 24 25  1  0
 25 26  1  0
 26 27  1  0
 27 28  1  0
 27 29  1  0
 27 30  1  0
 30 31  1  0
 30 32  2  0
 32 33  1  0
 33 34  1  0
 24 35  1  0
 35 36  1  0
 36  5  1  0
 18 10  2  0
 36 21  1  0
 33 25  1  0
  1 37  1  0
  1 38  1  0
  1 39  1  0
  3 40  1  0
  4 41  1  0
  5 42  1  1
  6 43  1  0
  6 44  1  0
  7 45  1  0
  7 46  1  0
  8 47  1  1
 11 48  1  0
 12 49  1  0
 14 50  1  0
 14 51  1  0
 15 52  1  0
 17 53  1  0
 19 54  1  0
 19 55  1  0
 19 56  1  0
 20 57  1  0
 20 58  1  0
 21 59  1  1
 22 60  1  0
 22 61  1  0
 24 62  1  1
 25 63  1  1
 26 64  1  0
 26 65  1  0
 32 66  1  0
 33 67  1  6
 34 68  1  0
 35 69  1  0
 35 70  1  0
 36 71  1  6
M  END
>  <docking_score>  (57) 
-12.139

>  <plif_similarity>  (57) 
0.222

$$$$
DiffSBDD_78
     RDKit          3D

105110  0  0  0  0  0  0  0  0999 V2000
   37.1100   24.4320   55.4530 C   0  0  0  0  0  0  0  0  0  0  0  0
   37.4870   25.8650   56.0590 C   0  0  0  0  0  0  0  0  0  0  0  0
   38.1110   27.0850   55.4720 O   0  0  0  0  0  0  0  0  0  0  0  0
   38.8770   27.4170   55.1130 C   0  0  0  0  0  0  0  0  0  0  0  0
   38.6120   29.1360   55.8380 C   0  0  1  0  0  0  0  0  0  0  0  0
   40.2020   29.0620   56.1140 C   0  0  0  0  0  0  0  0  0  0  0  0
   39.9080   28.4350   57.7400 C   0  0  0  0  0  0  0  0  0  0  0  0
   39.3830   27.4530   59.1050 S   0  0  0  0  0  0  0  0  0  0  0  0
   39.5770   28.7430   60.4220 C   0  0  0  0  0  0  0  0  0  0  0  0
   38.6690   28.7610   61.1710 O   0  0  0  0  0  0  0  0  0  0  0  0
   40.8430   28.9810   60.9240 N   0  0  0  0  0  0  0  0  0  0  0  0
   41.1480   29.4260   62.3430 C   0  0  0  0  0  0  0  0  0  0  0  0
   40.9150   30.7490   62.6070 C   0  0  0  0  0  0  0  0  0  0  0  0
   40.6040   31.6630   61.5930 C   0  0  0  0  0  0  0  0  0  0  0  0
   40.5720   33.0900   61.3990 C   0  0  2  0  0  0  0  0  0  0  0  0
   41.1580   34.8400   61.7360 C   0  0  2  0  0  0  0  0  0  0  0  0
   41.1030   36.0780   62.6770 C   0  0  0  0  0  0  0  0  0  0  0  0
   40.0520   37.0710   62.2950 C   0  0  0  0  0  0  0  0  0  0  0  0
   38.6140   37.2800   62.6080 C   0  0  0  0  0  0  0  0  0  0  0  0
   38.4330   37.0420   61.9170 C   0  0  0  0  0  0  0  0  0  0  0  0
   37.4100   36.4460   60.9600 C   0  0  2  0  0  0  0  0  0  0  0  0
   37.0800   35.2920   61.4340 C   0  0  0  0  0  0  0  0  0  0  0  0
   36.5440   34.3140   60.5050 C   0  0  0  0  0  0  0  0  0  0  0  0
   36.5460   35.1350   59.2870 O   0  0  0  0  0  0  0  0  0  0  0  0
   37.0340   36.4570   59.6690 C   0  0  0  0  0  0  0  0  0  0  0  0
   37.2250   37.4300   59.0680 O   0  0  0  0  0  0  0  0  0  0  0  0
   40.1590   34.0370   62.4280 C   0  0  2  0  0  0  0  0  0  0  0  0
   40.8310   33.5600   63.7760 N   0  0  0  0  0  0  0  0  0  0  0  0
   41.2620   32.6650   64.5580 N   0  0  2  0  0  0  0  0  0  0  0  0
   41.5790   31.3000   63.9130 C   0  0  1  0  0  0  0  0  0  0  0  0
   41.1710   30.5970   65.2220 C   0  0  0  0  0  0  0  0  0  0  0  0
   39.7300   30.0900   65.0740 C   0  0  0  0  0  0  0  0  0  0  0  0
   42.1260   29.5020   65.6720 C   0  0  0  0  0  0  0  0  0  0  0  0
   41.3350   31.9810   65.9180 C   0  0  1  0  0  0  0  0  0  0  0  0
   42.5460   32.6280   66.2230 C   0  0  2  0  0  0  0  0  0  0  0  0
   44.0090   32.7060   66.6550 C   0  0  2  0  0  0  0  0  0  0  0  0
   45.0100   31.8530   66.8900 C   0  0  0  0  0  0  0  0  0  0  0  0
   45.8020   31.6480   65.9850 O   0  0  0  0  0  0  0  0  0  0  0  0
   45.3390   31.1620   68.0090 C   0  0  0  0  0  0  0  0  0  0  0  0
   44.5730   31.8280   69.2970 C   0  0  0  0  0  0  0  0  0  0  0  0
   43.7620   33.0390   68.9000 C   0  0  0  0  0  0  0  0  0  0  0  0
   42.9810   32.9560   67.6480 N   0  0  0  0  0  0  0  0  0  0  0  0
   38.0330   29.6750   55.5790 O   0  0  0  0  0  0  0  0  0  0  0  0
   38.6950   30.6450   55.3010 C   0  0  1  0  0  0  0  0  0  0  0  0
   39.0700   30.7140   54.1430 C   0  0  0  0  0  0  0  0  0  0  0  0
   38.2130   31.8450   55.2550 C   0  0  0  0  0  0  0  0  0  0  0  0
   38.7430   32.5820   56.6910 C   0  0  0  0  0  0  0  0  0  0  0  0
   37.7510   33.4710   57.1150 O   0  0  0  0  0  0  0  0  0  0  0  0
   36.9238   23.7241   56.2741 H   0  0  0  0  0  0  0  0  0  0  0  0
   36.2050   24.5221   54.8342 H   0  0  0  0  0  0  0  0  0  0  0  0
   37.9422   24.0651   54.8342 H   0  0  0  0  0  0  0  0  0  0  0  0
   36.5278   26.2346   56.4506 H   0  0  0  0  0  0  0  0  0  0  0  0
   38.3831   25.5277   56.6005 H   0  0  0  0  0  0  0  0  0  0  0  0
   39.7840   26.9215   55.4895 H   0  0  0  0  0  0  0  0  0  0  0  0
   39.0307   27.3237   54.0278 H   0  0  0  0  0  0  0  0  0  0  0  0
   37.9790   29.5939   56.6123 H   0  0  0  0  0  0  0  0  0  0  0  0
   40.7378   28.3626   55.4554 H   0  0  0  0  0  0  0  0  0  0  0  0
   40.8289   29.9547   55.9718 H   0  0  0  0  0  0  0  0  0  0  0  0
   40.9703   28.4240   58.0252 H   0  0  0  0  0  0  0  0  0  0  0  0
   38.8513   28.7044   57.5955 H   0  0  0  0  0  0  0  0  0  0  0  0
   41.6410   28.8450   60.2860 H   0  0  0  0  0  0  0  0  0  0  0  0
   41.5301   28.7328   63.1069 H   0  0  0  0  0  0  0  0  0  0  0  0
   41.2784   31.3413   60.7857 H   0  0  0  0  0  0  0  0  0  0  0  0
   39.5226   31.6026   61.7851 H   0  0  0  0  0  0  0  0  0  0  0  0
   40.5241   32.5386   60.4484 H   0  0  0  0  0  0  0  0  0  0  0  0
   42.0114   34.4444   62.3063 H   0  0  0  0  0  0  0  0  0  0  0  0
   40.8972   35.7292   63.6997 H   0  0  0  0  0  0  0  0  0  0  0  0
   42.0743   36.5881   62.5979 H   0  0  0  0  0  0  0  0  0  0  0  0
   40.5036   38.0256   62.6028 H   0  0  0  0  0  0  0  0  0  0  0  0
   39.8596   36.6169   61.3118 H   0  0  0  0  0  0  0  0  0  0  0  0
   38.2322   36.6417   63.4184 H   0  0  0  0  0  0  0  0  0  0  0  0
   38.2573   38.2535   62.9756 H   0  0  0  0  0  0  0  0  0  0  0  0
   38.6704   37.9588   61.3574 H   0  0  0  0  0  0  0  0  0  0  0  0
   38.7231   36.0228   62.2122 H   0  0  0  0  0  0  0  0  0  0  0  0
   37.1178   37.5037   60.8833 H   0  0  0  0  0  0  0  0  0  0  0  0
   37.2004   35.0582   62.5021 H   0  0  0  0  0  0  0  0  0  0  0  0
   36.2306   33.2718   60.6649 H   0  0  0  0  0  0  0  0  0  0  0  0
   39.1276   34.3329   62.6703 H   0  0  0  0  0  0  0  0  0  0  0  0
   41.6950   34.1160   63.7080 H   0  0  0  0  0  0  0  0  0  0  0  0
   41.4020   33.6590   64.7890 H   0  0  0  0  0  0  0  0  0  0  0  0
   42.5660   31.2155   63.4349 H   0  0  0  0  0  0  0  0  0  0  0  0
   39.2914   29.9357   66.0709 H   0  0  0  0  0  0  0  0  0  0  0  0
   39.1348   30.8327   64.5225 H   0  0  0  0  0  0  0  0  0  0  0  0
   39.7310   29.1382   64.5225 H   0  0  0  0  0  0  0  0  0  0  0  0
   42.1545   29.4693   66.7711 H   0  0  0  0  0  0  0  0  0  0  0  0
   41.7802   28.5321   65.2851 H   0  0  0  0  0  0  0  0  0  0  0  0
   43.1339   29.7128   65.2851 H   0  0  0  0  0  0  0  0  0  0  0  0
   40.7482   31.9641   66.8483 H   0  0  0  0  0  0  0  0  0  0  0  0
   42.1598   32.8241   65.2119 H   0  0  0  0  0  0  0  0  0  0  0  0
   44.8490   33.1798   66.1260 H   0  0  0  0  0  0  0  0  0  0  0  0
   45.0285   30.1126   67.8983 H   0  0  0  0  0  0  0  0  0  0  0  0
   46.4273   31.2039   68.1633 H   0  0  0  0  0  0  0  0  0  0  0  0
   43.9006   31.0779   69.7388 H   0  0  0  0  0  0  0  0  0  0  0  0
   45.3361   32.1488   70.0214 H   0  0  0  0  0  0  0  0  0  0  0  0
   43.0544   33.2441   69.7169 H   0  0  0  0  0  0  0  0  0  0  0  0
   44.5069   33.8268   68.7142 H   0  0  0  0  0  0  0  0  0  0  0  0
   39.3770   30.4447   56.1405 H   0  0  0  0  0  0  0  0  0  0  0  0
   40.1516   30.9130   54.1191 H   0  0  0  0  0  0  0  0  0  0  0  0
   38.8609   29.7623   53.6326 H   0  0  0  0  0  0  0  0  0  0  0  0
   38.5359   31.5289   53.6326 H   0  0  0  0  0  0  0  0  0  0  0  0
   38.5993   32.3842   54.3775 H   0  0  0  0  0  0  0  0  0  0  0  0
   37.1165   31.8486   55.1671 H   0  0  0  0  0  0  0  0  0  0  0  0
   38.9120   31.8164   57.4626 H   0  0  0  0  0  0  0  0  0  0  0  0
   39.6871   33.1192   56.5175 H   0  0  0  0  0  0  0  0  0  0  0  0
   36.9340   33.3380   56.5710 H   0  0  0  0  0  0  0  0  0  0  0  0
  1  2  1  0
  2  3  1  0
  3  4  1  0
  4  5  1  0
  5  6  1  0
  6  7  1  0
  7  8  1  0
  8  9  1  0
  9 10  2  0
  9 11  1  0
 11 12  1  0
 12 13  2  3
 13 14  1  0
 14 15  1  0
 15 16  1  0
 16 17  1  0
 17 18  1  0
 18 19  1  0
 19 20  1  0
 20 21  1  0
 21 22  1  0
 22 23  2  0
 23 24  1  0
 24 25  1  0
 25 26  2  0
 16 27  1  0
 27 28  1  0
 28 29  1  0
 29 30  1  0
 30 31  1  0
 31 32  1  0
 31 33  1  0
 31 34  1  0
 34 35  1  0
 35 36  1  0
 36 37  1  0
 37 38  2  0
 37 39  1  0
 39 40  1  0
 40 41  1  0
 41 42  1  0
  5 43  1  0
 43 44  1  0
 44 45  1  0
 44 46  1  0
 46 47  1  0
 47 48  1  0
 30 13  1  0
 42 35  1  0
 27 15  1  0
 34 29  1  0
 42 36  1  0
 25 21  1  0
  1 49  1  0
  1 50  1  0
  1 51  1  0
  2 52  1  0
  2 53  1  0
  4 54  1  0
  4 55  1  0
  5 56  1  1
  6 57  1  0
  6 58  1  0
  7 59  1  0
  7 60  1  0
 11 61  1  0
 12 62  1  0
 14 63  1  0
 14 64  1  0
 15 65  1  6
 16 66  1  6
 17 67  1  0
 17 68  1  0
 18 69  1  0
 18 70  1  0
 19 71  1  0
 19 72  1  0
 20 73  1  0
 20 74  1  0
 21 75  1  1
 22 76  1  0
 23 77  1  0
 27 78  1  1
 28 79  1  0
 29 80  1  1
 30 81  1  6
 32 82  1  0
 32 83  1  0
 32 84  1  0
 33 85  1  0
 33 86  1  0
 33 87  1  0
 34 88  1  1
 35 89  1  6
 36 90  1  6
 39 91  1  0
 39 92  1  0
 40 93  1  0
 40 94  1  0
 41 95  1  0
 41 96  1  0
 44 97  1  1
 45 98  1  0
 45 99  1  0
 45100  1  0
 46101  1  0
 46102  1  0
 47103  1  0
 47104  1  0
 48105  1  0
M  CHG  1  29   1
M  END
>  <docking_score>  (58) 
-10.918

>  <plif_similarity>  (58) 
0.556

$$$$
DiffSBDD_79
     RDKit          3D

 42 42  0  0  0  0  0  0  0  0999 V2000
   38.8860   31.8380   55.9110 C   0  0  0  0  0  0  0  0  0  0  0  0
   39.4420   30.8120   55.3230 C   0  0  0  0  0  0  0  0  0  0  0  0
   38.7470   29.4260   55.1920 C   0  0  0  0  0  0  0  0  0  0  0  0
   39.0870   29.0730   53.6960 C   0  0  0  0  0  0  0  0  0  0  0  0
   39.6100   29.9550   52.7150 C   0  0  0  0  0  0  0  0  0  0  0  0
   39.8930   29.5490   51.4130 C   0  0  0  0  0  0  0  0  0  0  0  0
   40.3100   30.3050   50.3900 C   0  0  0  0  0  0  0  0  0  0  0  0
   40.5790   30.7980   49.5450 N   0  0  0  0  0  0  0  0  0  0  0  0
   39.7030   28.1640   51.0660 C   0  0  0  0  0  0  0  0  0  0  0  0
   39.1860   27.2160   52.0200 C   0  0  0  0  0  0  0  0  0  0  0  0
   38.8380   27.6370   53.2600 C   0  0  0  0  0  0  0  0  0  0  0  0
   37.9980   26.6990   54.1810 C   0  0  0  0  0  0  0  0  0  0  0  0
   36.8100   26.7520   54.0690 O   0  0  0  0  0  0  0  0  0  0  0  0
   38.5310   25.7780   55.0110 O   0  0  0  0  0  0  0  0  0  0  0  0
   39.8060   25.8640   55.7420 C   0  0  0  0  0  0  0  0  0  0  0  0
   39.7640   25.9000   57.2530 C   0  0  2  0  0  0  0  0  0  0  0  0
   38.2900   25.2250   57.6940 C   0  0  0  0  0  0  0  0  0  0  0  0
   38.1600   23.8350   57.4630 O   0  0  0  0  0  0  0  0  0  0  0  0
   40.5940   27.1030   57.8220 C   0  0  0  0  0  0  0  0  0  0  0  0
   41.9460   27.4610   58.0070 O   0  0  0  0  0  0  0  0  0  0  0  0
   39.9140   27.6370   58.8250 O   0  0  0  0  0  0  0  0  0  0  0  0
   39.2680   28.6430   59.3600 C   0  0  0  0  0  0  0  0  0  0  0  0
   38.1680   29.5630   58.9140 C   0  0  0  0  0  0  0  0  0  0  0  0
   39.4253   32.7946   55.9741 H   0  0  0  0  0  0  0  0  0  0  0  0
   37.8786   31.7451   56.3429 H   0  0  0  0  0  0  0  0  0  0  0  0
   40.4501   30.9340   54.9002 H   0  0  0  0  0  0  0  0  0  0  0  0
   39.1738   28.6904   55.8896 H   0  0  0  0  0  0  0  0  0  0  0  0
   37.6729   29.4283   55.4291 H   0  0  0  0  0  0  0  0  0  0  0  0
   39.7996   31.0019   52.9942 H   0  0  0  0  0  0  0  0  0  0  0  0
   39.9579   27.8230   50.0517 H   0  0  0  0  0  0  0  0  0  0  0  0
   39.0745   26.1572   51.7434 H   0  0  0  0  0  0  0  0  0  0  0  0
   40.4067   24.9888   55.4535 H   0  0  0  0  0  0  0  0  0  0  0  0
   40.2166   26.8442   55.4580 H   0  0  0  0  0  0  0  0  0  0  0  0
   40.3520   25.2732   57.9396 H   0  0  0  0  0  0  0  0  0  0  0  0
   38.1440   25.4044   58.7694 H   0  0  0  0  0  0  0  0  0  0  0  0
   37.5353   25.7078   57.0558 H   0  0  0  0  0  0  0  0  0  0  0  0
   37.7970   23.6850   56.5540 H   0  0  0  0  0  0  0  0  0  0  0  0
   38.8572   28.2040   60.2811 H   0  0  0  0  0  0  0  0  0  0  0  0
   40.0733   29.3719   59.1866 H   0  0  0  0  0  0  0  0  0  0  0  0
   37.6632   29.9852   59.7954 H   0  0  0  0  0  0  0  0  0  0  0  0
   38.5938   30.3778   58.3100 H   0  0  0  0  0  0  0  0  0  0  0  0
   37.4413   28.9999   58.3100 H   0  0  0  0  0  0  0  0  0  0  0  0
  1  2  2  0
  2  3  1  0
  3  4  1  0
  4  5  1  0
  5  6  2  0
  6  7  1  0
  7  8  3  0
  6  9  1  0
  9 10  2  0
 10 11  1  0
 11 12  1  0
 12 13  2  0
 12 14  1  0
 14 15  1  0
 15 16  1  0
 16 17  1  0
 17 18  1  0
 16 19  1  0
 19 20  2  0
 19 21  1  0
 21 22  1  0
 22 23  1  0
 11  4  2  0
  1 24  1  0
  1 25  1  0
  2 26  1  0
  3 27  1  0
  3 28  1  0
  5 29  1  0
  9 30  1  0
 10 31  1  0
 15 32  1  0
 15 33  1  0
 16 34  1  1
 17 35  1  0
 17 36  1  0
 18 37  1  0
 22 38  1  0
 22 39  1  0
 23 40  1  0
 23 41  1  0
 23 42  1  0
M  END
>  <docking_score>  (59) 
-7.628

>  <plif_similarity>  (59) 
0.444

$$$$
DiffSBDD_7
     RDKit          3D

 76 78  0  0  0  0  0  0  0  0999 V2000
   41.8460   28.1510   57.7860 C   0  0  0  0  0  0  0  0  0  0  0  0
   40.6870   27.6660   56.9110 C   0  0  0  0  0  0  0  0  0  0  0  0
   39.2950   28.3770   57.1610 C   0  0  1  0  0  0  0  0  0  0  0  0
   38.3400   28.4960   55.8780 C   0  0  1  0  0  0  0  0  0  0  0  0
   37.8080   30.0280   56.2260 C   0  0  2  0  0  0  0  0  0  0  0  0
   36.6290   30.3950   55.5220 O   0  0  0  0  0  0  0  0  0  0  0  0
   38.6770   31.1720   56.2780 C   0  0  0  0  0  0  0  0  0  0  0  0
   37.9970   32.3580   55.9630 O   0  0  0  0  0  0  0  0  0  0  0  0
   39.4720   27.4840   54.6800 S   0  0  1  0  0  4  0  0  0  0  0  0
   37.8730   27.0770   53.9210 C   0  0  2  0  0  0  0  0  0  0  0  0
   37.1210   25.9350   54.8150 C   0  0  0  0  0  0  0  0  0  0  0  0
   39.0980   26.8960   53.0070 C   0  0  1  0  0  0  0  0  0  0  0  0
   39.4790   28.1550   52.1110 C   0  0  0  0  0  0  0  0  0  0  0  0
   39.7920   28.0770   50.7640 C   0  0  0  0  0  0  0  0  0  0  0  0
   40.1710   29.2270   50.0130 C   0  0  0  0  0  0  0  0  0  0  0  0
   40.2270   30.4870   50.5600 C   0  0  0  0  0  0  0  0  0  0  0  0
   39.8380   30.5780   51.8950 C   0  0  0  0  0  0  0  0  0  0  0  0
   39.5300   29.4590   52.6800 C   0  0  0  0  0  0  0  0  0  0  0  0
   38.5200   27.6680   58.4050 C   0  0  1  0  0  0  0  0  0  0  0  0
   38.9410   26.2300   58.4430 C   0  0  0  0  0  0  0  0  0  0  0  0
   38.4270   25.3400   58.1290 O   0  0  0  0  0  0  0  0  0  0  0  0
   38.7300   28.3720   59.6410 N   0  0  0  0  0  0  0  0  0  0  0  0
   39.2440   29.7030   59.6650 C   0  0  2  0  0  0  0  0  0  0  0  0
   40.4810   29.8570   60.3460 O   0  0  0  0  0  0  0  0  0  0  0  0
   38.2360   30.7840   60.1600 C   0  0  2  0  0  0  0  0  0  0  0  0
   36.8380   30.4640   59.6640 C   0  0  0  0  0  0  0  0  0  0  0  0
   38.7040   32.1070   59.6950 N   0  0  0  0  0  0  0  0  0  0  0  0
   37.8020   33.2400   59.4870 C   0  0  0  0  0  0  0  0  0  0  0  0
   38.1730   34.5670   60.0810 C   0  0  0  0  0  0  0  0  0  0  0  0
   37.2340   35.6070   60.1410 C   0  0  0  0  0  0  0  0  0  0  0  0
   37.4930   36.8030   60.8380 C   0  0  0  0  0  0  0  0  0  0  0  0
   38.7430   36.9500   61.5050 C   0  0  0  0  0  0  0  0  0  0  0  0
   39.6240   35.9190   61.4920 C   0  0  0  0  0  0  0  0  0  0  0  0
   40.9480   36.2300   61.5150 O   0  0  0  0  0  0  0  0  0  0  0  0
   39.3510   34.7180   60.7690 C   0  0  0  0  0  0  0  0  0  0  0  0
   41.5768   28.0384   58.8466 H   0  0  0  0  0  0  0  0  0  0  0  0
   42.7437   27.5530   57.5700 H   0  0  0  0  0  0  0  0  0  0  0  0
   42.0502   29.2101   57.5700 H   0  0  0  0  0  0  0  0  0  0  0  0
   40.9659   27.8291   55.8595 H   0  0  0  0  0  0  0  0  0  0  0  0
   40.5352   26.6085   57.1730 H   0  0  0  0  0  0  0  0  0  0  0  0
   39.5421   29.4195   57.4103 H   0  0  0  0  0  0  0  0  0  0  0  0
   37.3932   28.1369   55.4482 H   0  0  0  0  0  0  0  0  0  0  0  0
   37.6549   29.8197   57.2952 H   0  0  0  0  0  0  0  0  0  0  0  0
   36.1110   29.5810   55.3000 H   0  0  0  0  0  0  0  0  0  0  0  0
   39.0916   31.2583   57.2932 H   0  0  0  0  0  0  0  0  0  0  0  0
   39.4757   31.0285   55.5354 H   0  0  0  0  0  0  0  0  0  0  0  0
   37.1420   32.1380   55.5150 H   0  0  0  0  0  0  0  0  0  0  0  0
   40.7290   27.5030   55.2240 H   0  0  0  0  0  0  0  0  0  0  0  0
   36.9194   27.5417   53.6299 H   0  0  0  0  0  0  0  0  0  0  0  0
   37.2643   26.1527   55.8837 H   0  0  0  0  0  0  0  0  0  0  0  0
   36.0460   25.9356   54.5816 H   0  0  0  0  0  0  0  0  0  0  0  0
   37.5463   24.9477   54.5816 H   0  0  0  0  0  0  0  0  0  0  0  0
   39.3391   26.0471   52.3503 H   0  0  0  0  0  0  0  0  0  0  0  0
   39.7467   27.1002   50.2601 H   0  0  0  0  0  0  0  0  0  0  0  0
   40.4296   29.1014   48.9512 H   0  0  0  0  0  0  0  0  0  0  0  0
   40.5565   31.3637   49.9831 H   0  0  0  0  0  0  0  0  0  0  0  0
   39.7695   31.5752   52.3542 H   0  0  0  0  0  0  0  0  0  0  0  0
   39.3244   29.5901   53.7526 H   0  0  0  0  0  0  0  0  0  0  0  0
   37.4305   27.7094   58.2591 H   0  0  0  0  0  0  0  0  0  0  0  0
   39.9431   26.0568   58.8622 H   0  0  0  0  0  0  0  0  0  0  0  0
   39.3820   27.7980   60.1950 H   0  0  0  0  0  0  0  0  0  0  0  0
   39.4304   29.8822   58.5958 H   0  0  0  0  0  0  0  0  0  0  0  0
   41.1520   29.2420   59.9560 H   0  0  0  0  0  0  0  0  0  0  0  0
   38.1879   30.7949   61.2589 H   0  0  0  0  0  0  0  0  0  0  0  0
   36.1698   30.3110   60.5243 H   0  0  0  0  0  0  0  0  0  0  0  0
   36.4650   31.3000   59.0541 H   0  0  0  0  0  0  0  0  0  0  0  0
   36.8658   29.5490   59.0541 H   0  0  0  0  0  0  0  0  0  0  0  0
   39.4000   32.4210   60.3870 H   0  0  0  0  0  0  0  0  0  0  0  0
   38.9980   31.8960   58.7320 H   0  0  0  0  0  0  0  0  0  0  0  0
   37.7076   33.3851   58.4007 H   0  0  0  0  0  0  0  0  0  0  0  0
   36.8823   32.9540   60.0184 H   0  0  0  0  0  0  0  0  0  0  0  0
   36.2680   35.4851   59.6292 H   0  0  0  0  0  0  0  0  0  0  0  0
   36.7443   37.6083   60.8668 H   0  0  0  0  0  0  0  0  0  0  0  0
   38.9906   37.8877   62.0240 H   0  0  0  0  0  0  0  0  0  0  0  0
   41.3770   36.5060   62.3630 H   0  0  0  0  0  0  0  0  0  0  0  0
   40.0925   33.9055   60.7635 H   0  0  0  0  0  0  0  0  0  0  0  0
  1  2  1  0
  2  3  1  0
  3  4  1  0
  4  5  1  0
  5  6  1  0
  5  7  1  0
  7  8  1  0
  4  9  1  0
  9 10  1  0
 10 11  1  0
 10 12  1  0
 12 13  1  0
 13 14  2  0
 14 15  1  0
 15 16  2  0
 16 17  1  0
 17 18  2  0
  3 19  1  0
 19 20  1  0
 20 21  2  0
 19 22  1  0
 22 23  1  0
 23 24  1  0
 23 25  1  0
 25 26  1  0
 25 27  1  0
 27 28  1  0
 28 29  1  0
 29 30  2  0
 30 31  1  0
 31 32  2  0
 32 33  1  0
 33 34  1  0
 33 35  2  0
 12  9  1  0
 18 13  1  0
 35 29  1  0
  1 36  1  0
  1 37  1  0
  1 38  1  0
  2 39  1  0
  2 40  1  0
  3 41  1  1
  4 42  1  1
  5 43  1  1
  6 44  1  0
  7 45  1  0
  7 46  1  0
  8 47  1  0
  9 48  1  0
 10 49  1  6
 11 50  1  0
 11 51  1  0
 11 52  1  0
 12 53  1  6
 14 54  1  0
 15 55  1  0
 16 56  1  0
 17 57  1  0
 18 58  1  0
 19 59  1  6
 20 60  1  0
 22 61  1  0
 23 62  1  6
 24 63  1  0
 25 64  1  1
 26 65  1  0
 26 66  1  0
 26 67  1  0
 27 68  1  0
 27 69  1  0
 28 70  1  0
 28 71  1  0
 30 72  1  0
 31 73  1  0
 32 74  1  0
 34 75  1  0
 35 76  1  0
M  CHG  1  27   1
M  END
>  <docking_score>  (60) 
-9.265

>  <plif_similarity>  (60) 
0.667

$$$$
DiffSBDD_80
     RDKit          3D

 52 52  0  0  0  0  0  0  0  0999 V2000
   37.0070   29.1750   58.5480 C   0  0  0  0  0  0  0  0  0  0  0  0
   38.0500   28.2630   57.8740 C   0  0  0  0  0  0  0  0  0  0  0  0
   39.6370   28.3200   57.5170 C   0  0  2  0  0  0  0  0  0  0  0  0
   39.8740   27.0280   56.7160 C   0  0  0  0  0  0  0  0  0  0  0  0
   38.9470   26.7660   55.6370 C   0  0  0  0  0  0  0  0  0  0  0  0
   38.0530   27.0940   54.3260 C   0  0  0  0  0  0  0  0  0  0  0  0
   38.8070   27.9690   53.0900 C   0  0  0  0  0  0  0  0  0  0  0  0
   39.1480   27.4220   51.8750 C   0  0  0  0  0  0  0  0  0  0  0  0
   39.7620   28.1800   50.8560 C   0  0  0  0  0  0  0  0  0  0  0  0
   40.0570   29.4660   51.0800 C   0  0  0  0  0  0  0  0  0  0  0  0
   40.9260   30.3970   49.8750 Cl  0  0  0  0  0  0  0  0  0  0  0  0
   39.7040   30.1320   52.2670 C   0  0  0  0  0  0  0  0  0  0  0  0
   38.9510   29.2950   53.2920 C   0  0  0  0  0  0  0  0  0  0  0  0
   38.4980   29.9080   54.4700 C   0  0  0  0  0  0  0  0  0  0  0  0
   38.2690   31.1130   54.5560 O   0  0  0  0  0  0  0  0  0  0  0  0
   40.4690   28.1110   58.8410 C   0  0  0  0  0  0  0  0  0  0  0  0
   40.5010   29.2750   59.4690 N   0  0  0  0  0  0  0  0  0  0  0  0
   40.0270   29.6400   60.7640 C   0  0  0  0  0  0  0  0  0  0  0  0
   39.4080   28.8600   61.4140 O   0  0  0  0  0  0  0  0  0  0  0  0
   40.0570   31.0920   61.2760 C   0  0  0  0  0  0  0  0  0  0  0  0
   38.6050   31.6960   60.9820 C   0  0  2  0  0  0  0  0  0  0  0  0
   37.1130   31.8920   61.2780 C   0  0  0  0  0  0  0  0  0  0  0  0
   38.8620   32.7930   59.7970 C   0  0  0  0  0  0  0  0  0  0  0  0
   38.2180   32.4510   58.4450 C   0  0  0  0  0  0  0  0  0  0  0  0
   38.0840   33.7340   57.5770 O   0  0  0  0  0  0  0  0  0  0  0  0
   37.9520   33.4730   56.2610 O   0  0  0  0  0  0  0  0  0  0  0  0
   37.1003   29.0934   59.6410 H   0  0  0  0  0  0  0  0  0  0  0  0
   37.1792   30.2175   58.2421 H   0  0  0  0  0  0  0  0  0  0  0  0
   35.9968   28.8652   58.2421 H   0  0  0  0  0  0  0  0  0  0  0  0
   37.9822   27.3474   58.4798 H   0  0  0  0  0  0  0  0  0  0  0  0
   37.7367   28.5352   56.8553 H   0  0  0  0  0  0  0  0  0  0  0  0
   39.9109   29.2597   57.0151 H   0  0  0  0  0  0  0  0  0  0  0  0
   40.7015   26.3423   56.9506 H   0  0  0  0  0  0  0  0  0  0  0  0
   37.0069   26.7638   54.2437 H   0  0  0  0  0  0  0  0  0  0  0  0
   38.9349   26.3585   51.6919 H   0  0  0  0  0  0  0  0  0  0  0  0
   39.9963   27.7180   49.8856 H   0  0  0  0  0  0  0  0  0  0  0  0
   39.9553   31.1883   52.4435 H   0  0  0  0  0  0  0  0  0  0  0  0
   38.3401   29.2803   55.3594 H   0  0  0  0  0  0  0  0  0  0  0  0
   39.9850   27.3535   59.4750 H   0  0  0  0  0  0  0  0  0  0  0  0
   41.4867   27.7617   58.6124 H   0  0  0  0  0  0  0  0  0  0  0  0
   40.9390   30.0410   58.9370 H   0  0  0  0  0  0  0  0  0  0  0  0
   40.2674   31.1119   62.3555 H   0  0  0  0  0  0  0  0  0  0  0  0
   40.8442   31.6775   60.7784 H   0  0  0  0  0  0  0  0  0  0  0  0
   38.8434   32.5716   61.6037 H   0  0  0  0  0  0  0  0  0  0  0  0
   36.9548   31.9128   62.3664 H   0  0  0  0  0  0  0  0  0  0  0  0
   36.7740   32.8424   60.8400 H   0  0  0  0  0  0  0  0  0  0  0  0
   36.5401   31.0614   60.8400 H   0  0  0  0  0  0  0  0  0  0  0  0
   38.4576   33.7592   60.1329 H   0  0  0  0  0  0  0  0  0  0  0  0
   39.9482   32.8104   59.6245 H   0  0  0  0  0  0  0  0  0  0  0  0
   38.8469   31.7188   57.9173 H   0  0  0  0  0  0  0  0  0  0  0  0
   37.2175   32.0284   58.6195 H   0  0  0  0  0  0  0  0  0  0  0  0
   36.9930   33.3670   56.0400 H   0  0  0  0  0  0  0  0  0  0  0  0
  1  2  1  0
  2  3  1  0
  3  4  1  0
  4  5  2  0
  5  6  2  0
  6  7  1  0
  7  8  1  0
  8  9  2  0
  9 10  1  0
 10 11  1  0
 10 12  2  0
 12 13  1  0
 13 14  1  0
 14 15  2  0
  3 16  1  0
 16 17  1  0
 17 18  1  0
 18 19  2  0
 18 20  1  0
 20 21  1  0
 21 22  1  0
 21 23  1  0
 23 24  1  0
 24 25  1  0
 25 26  1  0
 13  7  2  0
  1 27  1  0
  1 28  1  0
  1 29  1  0
  2 30  1  0
  2 31  1  0
  3 32  1  6
  4 33  1  0
  6 34  1  0
  8 35  1  0
  9 36  1  0
 12 37  1  0
 14 38  1  0
 16 39  1  0
 16 40  1  0
 17 41  1  0
 20 42  1  0
 20 43  1  0
 21 44  1  6
 22 45  1  0
 22 46  1  0
 22 47  1  0
 23 48  1  0
 23 49  1  0
 24 50  1  0
 24 51  1  0
 26 52  1  0
M  END
>  <docking_score>  (61) 
-7.905

>  <plif_similarity>  (61) 
0.556

$$$$
DiffSBDD_81
     RDKit          3D

 67 68  0  0  0  0  0  0  0  0999 V2000
   41.5650   27.9990   57.8750 C   0  0  0  0  0  0  0  0  0  0  0  0
   40.9060   28.1850   59.2010 C   0  0  0  0  0  0  0  0  0  0  0  0
   39.6050   28.4220   59.5760 C   0  0  0  0  0  0  0  0  0  0  0  0
   38.3050   28.4080   58.8510 C   0  0  0  0  0  0  0  0  0  0  0  0
   37.7300   29.3200   57.7500 C   0  0  0  0  0  0  0  0  0  0  0  0
   38.5450   30.6480   57.7120 C   0  0  0  0  0  0  0  0  0  0  0  0
   38.5280   31.1420   56.3130 C   0  0  0  0  0  0  0  0  0  0  0  0
   39.2330   30.8370   55.2710 C   0  0  0  0  0  0  0  0  0  0  0  0
   39.9650   30.5160   54.1270 C   0  0  0  0  0  0  0  0  0  0  0  0
   39.1450   29.7370   53.1980 C   0  0  0  0  0  0  0  0  0  0  0  0
   38.6670   28.2420   53.1570 C   0  0  2  0  0  0  0  0  0  0  0  0
   38.6020   27.9560   51.7430 C   0  0  0  0  0  0  0  0  0  0  0  0
   39.6080   28.1020   50.6970 C   0  0  0  0  0  0  0  0  0  0  0  0
   37.3930   27.8000   53.8090 C   0  0  0  0  0  0  0  0  0  0  0  0
   37.6000   26.9360   54.8980 C   0  0  0  0  0  0  0  0  0  0  0  0
   39.1570   26.9420   55.1560 C   0  0  1  0  0  0  0  0  0  0  0  0
   39.5970   25.6300   55.7360 C   0  0  0  0  0  0  0  0  0  0  0  0
   39.0010   25.2740   57.1240 C   0  0  0  0  0  0  0  0  0  0  0  0
   39.6100   27.2800   53.8250 O   0  0  0  0  0  0  0  0  0  0  0  0
   39.3580   28.8310   60.9770 C   0  0  0  0  0  0  0  0  0  0  0  0
   39.1910   30.0720   61.2490 C   0  0  1  0  0  0  0  0  0  0  0  0
   40.1440   31.2030   61.1520 C   0  0  0  0  0  0  0  0  0  0  0  0
   39.4190   32.1150   62.0340 C   0  0  0  0  0  0  0  0  0  0  0  0
   38.0200   32.0490   61.7750 C   0  0  0  0  0  0  0  0  0  0  0  0
   37.8990   30.6260   61.3320 O   0  0  0  0  0  0  0  0  0  0  0  0
   42.6137   27.7030   58.0251 H   0  0  0  0  0  0  0  0  0  0  0  0
   41.0395   27.2141   57.3113 H   0  0  0  0  0  0  0  0  0  0  0  0
   41.5275   28.9428   57.3113 H   0  0  0  0  0  0  0  0  0  0  0  0
   41.6023   28.1191   60.0500 H   0  0  0  0  0  0  0  0  0  0  0  0
   38.2711   27.4052   58.4001 H   0  0  0  0  0  0  0  0  0  0  0  0
   37.6977   28.8095   59.6756 H   0  0  0  0  0  0  0  0  0  0  0  0
   37.8044   28.8139   56.7762 H   0  0  0  0  0  0  0  0  0  0  0  0
   36.6735   29.5391   57.9640 H   0  0  0  0  0  0  0  0  0  0  0  0
   38.0830   31.3913   58.3784 H   0  0  0  0  0  0  0  0  0  0  0  0
   39.5778   30.4785   58.0504 H   0  0  0  0  0  0  0  0  0  0  0  0
   37.4944   30.9536   55.9872 H   0  0  0  0  0  0  0  0  0  0  0  0
   39.0255   32.1014   56.5182 H   0  0  0  0  0  0  0  0  0  0  0  0
   40.0124   31.5492   55.5797 H   0  0  0  0  0  0  0  0  0  0  0  0
   38.8892   29.7946   55.3435 H   0  0  0  0  0  0  0  0  0  0  0  0
   40.2905   31.4434   53.6330 H   0  0  0  0  0  0  0  0  0  0  0  0
   40.8395   29.9164   54.4197 H   0  0  0  0  0  0  0  0  0  0  0  0
   38.2009   30.3006   53.1673 H   0  0  0  0  0  0  0  0  0  0  0  0
   39.9322   29.6162   52.4393 H   0  0  0  0  0  0  0  0  0  0  0  0
   38.3274   26.8917   51.7001 H   0  0  0  0  0  0  0  0  0  0  0  0
   37.9788   28.8160   51.4565 H   0  0  0  0  0  0  0  0  0  0  0  0
   40.5969   28.2455   51.1568 H   0  0  0  0  0  0  0  0  0  0  0  0
   39.6219   27.1965   50.0727 H   0  0  0  0  0  0  0  0  0  0  0  0
   39.3639   28.9741   50.0727 H   0  0  0  0  0  0  0  0  0  0  0  0
   36.8557   28.6908   54.1665 H   0  0  0  0  0  0  0  0  0  0  0  0
   36.8155   27.2443   53.0556 H   0  0  0  0  0  0  0  0  0  0  0  0
   37.0625   27.3015   55.7854 H   0  0  0  0  0  0  0  0  0  0  0  0
   37.2263   25.9226   54.6898 H   0  0  0  0  0  0  0  0  0  0  0  0
   39.5657   27.6351   55.9060 H   0  0  0  0  0  0  0  0  0  0  0  0
   39.3100   24.8357   55.0312 H   0  0  0  0  0  0  0  0  0  0  0  0
   40.6825   25.7192   55.8898 H   0  0  0  0  0  0  0  0  0  0  0  0
   39.6565   25.6655   57.9159 H   0  0  0  0  0  0  0  0  0  0  0  0
   38.0015   25.7231   57.2200 H   0  0  0  0  0  0  0  0  0  0  0  0
   38.9226   24.1810   57.2200 H   0  0  0  0  0  0  0  0  0  0  0  0
   38.4509   28.3050   61.3094 H   0  0  0  0  0  0  0  0  0  0  0  0
   40.2963   28.5762   61.4914 H   0  0  0  0  0  0  0  0  0  0  0  0
   39.6828   29.4307   61.9953 H   0  0  0  0  0  0  0  0  0  0  0  0
   41.1421   30.9478   61.5375 H   0  0  0  0  0  0  0  0  0  0  0  0
   40.3738   31.5708   60.1411 H   0  0  0  0  0  0  0  0  0  0  0  0
   39.6075   31.8335   63.0805 H   0  0  0  0  0  0  0  0  0  0  0  0
   39.7678   33.1419   61.8500 H   0  0  0  0  0  0  0  0  0  0  0  0
   37.4283   32.2451   62.6813 H   0  0  0  0  0  0  0  0  0  0  0  0
   37.6495   32.7902   61.0516 H   0  0  0  0  0  0  0  0  0  0  0  0
  1  2  1  0
  2  3  2  3
  3  4  1  0
  4  5  1  0
  5  6  1  0
  6  7  1  0
  7  8  1  0
  8  9  1  0
  9 10  1  0
 11 10  1  6
 11 12  1  0
 12 13  1  0
 11 14  1  0
 14 15  1  0
 15 16  1  0
 16 17  1  0
 17 18  1  0
 16 19  1  0
  3 20  1  0
 20 21  1  0
 21 22  1  0
 22 23  1  0
 23 24  1  0
 24 25  1  0
 19 11  1  0
 25 21  1  0
  1 26  1  0
  1 27  1  0
  1 28  1  0
  2 29  1  0
  4 30  1  0
  4 31  1  0
  5 32  1  0
  5 33  1  0
  6 34  1  0
  6 35  1  0
  7 36  1  0
  7 37  1  0
  8 38  1  0
  8 39  1  0
  9 40  1  0
  9 41  1  0
 10 42  1  0
 10 43  1  0
 12 44  1  0
 12 45  1  0
 13 46  1  0
 13 47  1  0
 13 48  1  0
 14 49  1  0
 14 50  1  0
 15 51  1  0
 15 52  1  0
 16 53  1  1
 17 54  1  0
 17 55  1  0
 18 56  1  0
 18 57  1  0
 18 58  1  0
 20 59  1  0
 20 60  1  0
 21 61  1  1
 22 62  1  0
 22 63  1  0
 23 64  1  0
 23 65  1  0
 24 66  1  0
 24 67  1  0
M  END
>  <docking_score>  (62) 
-7.714

>  <plif_similarity>  (62) 
0.222

$$$$
DiffSBDD_82
     RDKit          3D

 37 38  0  0  0  0  0  0  0  0999 V2000
   37.8900   24.3940   57.2590 C   0  0  0  0  0  0  0  0  0  0  0  0
   37.2280   24.8040   55.8190 C   0  0  0  0  0  0  0  0  0  0  0  0
   38.4350   25.4430   55.0280 C   0  0  0  0  0  0  0  0  0  0  0  0
   37.9160   26.6120   54.4680 O   0  0  0  0  0  0  0  0  0  0  0  0
   38.4980   27.8330   54.7890 C   0  0  2  0  0  0  0  0  0  0  0  0
   38.9480   28.4590   53.4640 C   0  0  0  0  0  0  0  0  0  0  0  0
   39.0530   27.8170   52.2320 C   0  0  0  0  0  0  0  0  0  0  0  0
   39.5110   28.3830   51.1310 C   0  0  0  0  0  0  0  0  0  0  0  0
   39.9300   29.7500   51.2310 C   0  0  0  0  0  0  0  0  0  0  0  0
   40.6220   30.4050   49.8320 Cl  0  0  0  0  0  0  0  0  0  0  0  0
   39.8790   30.4570   52.3910 C   0  0  0  0  0  0  0  0  0  0  0  0
   39.3790   29.8210   53.5680 C   0  0  0  0  0  0  0  0  0  0  0  0
   39.3560   30.4850   54.6520 F   0  0  0  0  0  0  0  0  0  0  0  0
   39.5510   27.4220   55.9380 C   0  0  1  0  0  0  0  0  0  0  0  0
   38.9670   28.3620   57.0910 C   0  0  0  0  0  0  0  0  0  0  0  0
   40.2900   27.5720   57.3750 C   0  0  2  0  0  0  0  0  0  0  0  0
   41.0520   28.1320   58.7430 C   0  0  0  0  0  0  0  0  0  0  0  0
   40.3840   28.2450   59.6800 O   0  0  0  0  0  0  0  0  0  0  0  0
   42.2870   28.0410   58.4690 N   0  0  0  0  0  0  0  0  0  0  0  0
   43.0270   26.9580   58.0790 O   0  0  0  0  0  0  0  0  0  0  0  0
   37.2627   24.7825   58.0748 H   0  0  0  0  0  0  0  0  0  0  0  0
   37.9531   23.2984   57.3349 H   0  0  0  0  0  0  0  0  0  0  0  0
   38.8990   24.8256   57.3349 H   0  0  0  0  0  0  0  0  0  0  0  0
   36.8415   23.9163   55.2968 H   0  0  0  0  0  0  0  0  0  0  0  0
   36.3718   25.4872   55.9198 H   0  0  0  0  0  0  0  0  0  0  0  0
   39.2656   25.6760   55.7106 H   0  0  0  0  0  0  0  0  0  0  0  0
   38.8388   24.7611   54.2651 H   0  0  0  0  0  0  0  0  0  0  0  0
   37.9021   28.6508   55.2204 H   0  0  0  0  0  0  0  0  0  0  0  0
   38.7323   26.7665   52.1727 H   0  0  0  0  0  0  0  0  0  0  0  0
   39.5684   27.8313   50.1811 H   0  0  0  0  0  0  0  0  0  0  0  0
   40.2177   31.5031   52.4226 H   0  0  0  0  0  0  0  0  0  0  0  0
   40.2199   28.2334   55.6153 H   0  0  0  0  0  0  0  0  0  0  0  0
   38.9994   29.4551   56.9721 H   0  0  0  0  0  0  0  0  0  0  0  0
   37.9947   28.4394   57.5996 H   0  0  0  0  0  0  0  0  0  0  0  0
   41.0933   26.8575   57.6080 H   0  0  0  0  0  0  0  0  0  0  0  0
   42.8170   28.9200   58.5520 H   0  0  0  0  0  0  0  0  0  0  0  0
   42.4510   26.1550   58.0560 H   0  0  0  0  0  0  0  0  0  0  0  0
  1  2  1  0
  2  3  1  0
  3  4  1  0
  4  5  1  0
  5  6  1  0
  6  7  1  0
  7  8  2  0
  8  9  1  0
  9 10  1  0
  9 11  2  0
 11 12  1  0
 12 13  1  0
  5 14  1  0
 14 15  1  0
 15 16  1  0
 16 17  1  0
 17 18  2  0
 17 19  1  0
 19 20  1  0
 12  6  2  0
 16 14  1  0
  1 21  1  0
  1 22  1  0
  1 23  1  0
  2 24  1  0
  2 25  1  0
  3 26  1  0
  3 27  1  0
  5 28  1  1
  7 29  1  0
  8 30  1  0
 11 31  1  0
 14 32  1  1
 15 33  1  0
 15 34  1  0
 16 35  1  1
 19 36  1  0
 20 37  1  0
M  END
>  <docking_score>  (63) 
-8.167

>  <plif_similarity>  (63) 
0.444

$$$$
DiffSBDD_83
     RDKit          3D

 53 54  0  0  0  0  0  0  0  0999 V2000
   41.6780   28.0610   58.1340 C   0  0  0  0  0  0  0  0  0  0  0  0
   40.6870   27.8170   59.2800 C   0  0  0  0  0  0  0  0  0  0  0  0
   39.7930   28.9240   59.6540 C   0  0  2  0  0  0  0  0  0  0  0  0
   39.5490   28.8780   61.1190 C   0  0  0  0  0  0  0  0  0  0  0  0
   38.5170   29.0550   58.9680 C   0  0  2  0  0  0  0  0  0  0  0  0
   37.7700   28.2630   58.1970 C   0  0  0  0  0  0  0  0  0  0  0  0
   37.9620   27.6410   56.8590 C   0  0  0  0  0  0  0  0  0  0  0  0
   38.1580   28.8800   55.9600 C   0  0  0  0  0  0  0  0  0  0  0  0
   39.3950   29.3130   55.5060 C   0  0  0  0  0  0  0  0  0  0  0  0
   39.1830   30.4250   54.7560 C   0  0  0  0  0  0  0  0  0  0  0  0
   39.9470   30.8680   53.8510 C   0  0  0  0  0  0  0  0  0  0  0  0
   39.8250   30.6630   52.3130 C   0  0  0  0  0  0  0  0  0  0  0  0
   39.9750   29.6340   51.2880 C   0  0  0  0  0  0  0  0  0  0  0  0
   40.5210   30.1390   49.9070 C   0  0  0  0  0  0  0  0  0  0  0  0
   39.6610   28.2030   51.1090 C   0  0  0  0  0  0  0  0  0  0  0  0
   38.9430   27.4620   52.3260 C   0  0  0  0  0  0  0  0  0  0  0  0
   39.3000   26.6900   53.0690 O   0  0  0  0  0  0  0  0  0  0  0  0
   37.5610   27.8760   52.3400 O   0  0  0  0  0  0  0  0  0  0  0  0
   36.8510   27.4750   53.3410 O   0  0  0  0  0  0  0  0  0  0  0  0
   37.6940   30.7840   54.7910 N   0  0  0  0  0  0  0  0  0  0  0  0
   37.0820   29.7800   55.4670 N   0  0  0  0  0  0  0  0  0  0  0  0
   37.8390   30.4400   59.4160 C   0  0  1  0  0  0  0  0  0  0  0  0
   38.4360   31.6800   59.2420 O   0  0  0  0  0  0  0  0  0  0  0  0
   37.5440   32.6290   59.8350 C   0  0  0  0  0  0  0  0  0  0  0  0
   36.5120   31.9580   60.3220 C   0  0  0  0  0  0  0  0  0  0  0  0
   35.2750   32.7100   61.2130 Cl  0  0  0  0  0  0  0  0  0  0  0  0
   36.6550   30.5800   60.0180 O   0  0  0  0  0  0  0  0  0  0  0  0
   42.6668   28.3045   58.5499 H   0  0  0  0  0  0  0  0  0  0  0  0
   41.7535   27.1546   57.5153 H   0  0  0  0  0  0  0  0  0  0  0  0
   41.3241   28.8988   57.5153 H   0  0  0  0  0  0  0  0  0  0  0  0
   40.0535   26.9653   58.9916 H   0  0  0  0  0  0  0  0  0  0  0  0
   41.3185   27.6560   60.1662 H   0  0  0  0  0  0  0  0  0  0  0  0
   40.3490   29.8127   59.3206 H   0  0  0  0  0  0  0  0  0  0  0  0
   40.4936   29.0561   61.6538 H   0  0  0  0  0  0  0  0  0  0  0  0
   38.8200   29.6545   61.3939 H   0  0  0  0  0  0  0  0  0  0  0  0
   39.1528   27.8893   61.3939 H   0  0  0  0  0  0  0  0  0  0  0  0
   37.9982   28.6754   59.8606 H   0  0  0  0  0  0  0  0  0  0  0  0
   37.5746   27.3973   58.8469 H   0  0  0  0  0  0  0  0  0  0  0  0
   37.1015   29.0623   57.8446 H   0  0  0  0  0  0  0  0  0  0  0  0
   38.8489   26.9904   56.8433 H   0  0  0  0  0  0  0  0  0  0  0  0
   37.1314   26.9909   56.5467 H   0  0  0  0  0  0  0  0  0  0  0  0
   40.3673   28.8429   55.7147 H   0  0  0  0  0  0  0  0  0  0  0  0
   39.9391   31.9593   53.9886 H   0  0  0  0  0  0  0  0  0  0  0  0
   40.8187   30.2234   54.0373 H   0  0  0  0  0  0  0  0  0  0  0  0
   38.7880   30.9857   52.1383 H   0  0  0  0  0  0  0  0  0  0  0  0
   40.8451   31.0375   52.1423 H   0  0  0  0  0  0  0  0  0  0  0  0
   41.3190   30.8770   50.0759 H   0  0  0  0  0  0  0  0  0  0  0  0
   40.9233   29.2877   49.3383 H   0  0  0  0  0  0  0  0  0  0  0  0
   39.7036   30.6064   49.3383 H   0  0  0  0  0  0  0  0  0  0  0  0
   39.9106   27.6715   50.1788 H   0  0  0  0  0  0  0  0  0  0  0  0
   36.0690   29.6650   55.6120 H   0  0  0  0  0  0  0  0  0  0  0  0
   38.3116   30.3513   60.4054 H   0  0  0  0  0  0  0  0  0  0  0  0
   37.6895   33.7185   59.8783 H   0  0  0  0  0  0  0  0  0  0  0  0
  1  2  1  0
  2  3  1  0
  3  4  1  0
  3  5  1  0
  5  6  1  0
  6  7  1  0
  7  8  1  0
  8  9  2  0
  9 10  1  0
 10 11  1  0
 11 12  1  0
 12 13  1  0
 13 14  1  0
 13 15  2  3
 15 16  1  0
 16 17  2  0
 16 18  1  0
 18 19  1  0
 10 20  2  0
 20 21  1  0
  5 22  1  0
 22 23  1  0
 23 24  1  0
 24 25  2  0
 25 26  1  0
 25 27  1  0
 21  8  1  0
 27 22  1  0
  1 28  1  0
  1 29  1  0
  1 30  1  0
  2 31  1  0
  2 32  1  0
  3 33  1  1
  4 34  1  0
  4 35  1  0
  4 36  1  0
  5 37  1  6
  6 38  1  0
  6 39  1  0
  7 40  1  0
  7 41  1  0
  9 42  1  0
 11 43  1  0
 11 44  1  0
 12 45  1  0
 12 46  1  0
 14 47  1  0
 14 48  1  0
 14 49  1  0
 15 50  1  0
 21 51  1  0
 22 52  1  1
 24 53  1  0
M  CHG  1  19  -1
M  END
>  <docking_score>  (64) 
-8.822

>  <plif_similarity>  (64) 
0.333

$$$$
DiffSBDD_84
     RDKit          3D

 76 80  0  0  0  0  0  0  0  0999 V2000
   37.8680   33.3970   56.8200 N   0  0  0  0  0  0  0  0  0  0  0  0
   38.7700   32.7670   55.9000 C   0  0  0  0  0  0  0  0  0  0  0  0
   38.3280   31.2930   55.8290 C   0  0  0  0  0  0  0  0  0  0  0  0
   38.5910   30.4240   56.7920 C   0  0  1  0  0  0  0  0  0  0  0  0
   39.4250   29.3850   56.3180 N   0  0  0  0  0  0  0  0  0  0  0  0
   39.6120   28.4750   57.3940 N   0  0  0  0  0  0  0  0  0  0  0  0
   40.2290   27.1850   57.1860 C   0  0  0  0  0  0  0  0  0  0  0  0
   41.5910   27.2750   57.9210 C   0  0  0  0  0  0  0  0  0  0  0  0
   42.5910   27.2860   58.1940 O   0  0  0  0  0  0  0  0  0  0  0  0
   39.4740   25.9800   57.7700 C   0  0  0  0  0  0  0  0  0  0  0  0
   39.8870   24.8350   57.0580 O   0  0  0  0  0  0  0  0  0  0  0  0
   39.4860   29.2350   58.8920 S   0  0  0  0  0  0  0  0  0  0  0  0
   38.6670   30.4810   58.2650 C   0  0  1  0  0  0  0  0  0  0  0  0
   38.2710   31.3050   59.2940 N   0  0  0  0  0  0  0  0  0  0  0  0
   37.1830   32.0230   59.5730 N   0  0  0  0  0  0  0  0  0  0  0  0
   37.4390   32.7540   60.8560 C   0  0  1  0  0  0  0  0  0  0  0  0
   38.4820   32.0160   61.9360 C   0  0  0  0  0  0  0  0  0  0  0  0
   38.1820   30.6590   62.0180 O   0  0  0  0  0  0  0  0  0  0  0  0
   39.6910   32.5080   62.2220 N   0  0  0  0  0  0  0  0  0  0  0  0
   40.3890   32.1840   63.3440 C   0  0  2  0  0  0  0  0  0  0  0  0
   40.7380   33.3020   64.1420 C   0  0  0  0  0  0  0  0  0  0  0  0
   41.9330   33.5180   64.8140 C   0  0  0  0  0  0  0  0  0  0  0  0
   42.7270   32.1640   65.1080 C   0  0  0  0  0  0  0  0  0  0  0  0
   42.5240   31.0910   64.3250 C   0  0  0  0  0  0  0  0  0  0  0  0
   43.2500   29.7610   64.4890 C   0  0  0  0  0  0  0  0  0  0  0  0
   44.4270   29.8300   65.2700 C   0  0  0  0  0  0  0  0  0  0  0  0
   44.4540   30.9410   66.3570 C   0  0  0  0  0  0  0  0  0  0  0  0
   43.9980   32.1940   66.1230 N   0  0  0  0  0  0  0  0  0  0  0  0
   41.3130   31.0600   63.1880 C   0  0  0  0  0  0  0  0  0  0  0  0
   39.6370   34.1530   62.3290 C   0  0  0  0  0  0  0  0  0  0  0  0
   38.8880   34.9520   61.4800 C   0  0  0  0  0  0  0  0  0  0  0  0
   39.1470   36.3390   61.2640 C   0  0  0  0  0  0  0  0  0  0  0  0
   38.2240   37.1450   60.6390 C   0  0  0  0  0  0  0  0  0  0  0  0
   37.0290   36.7160   60.1170 C   0  0  0  0  0  0  0  0  0  0  0  0
   36.7440   35.2760   60.1720 C   0  0  0  0  0  0  0  0  0  0  0  0
   37.6210   34.3750   60.8060 C   0  0  0  0  0  0  0  0  0  0  0  0
   38.0650   34.4080   56.8570 H   0  0  0  0  0  0  0  0  0  0  0  0
   36.8980   33.2480   56.5070 H   0  0  0  0  0  0  0  0  0  0  0  0
   37.9940   32.9890   57.7570 H   0  0  0  0  0  0  0  0  0  0  0  0
   38.6976   33.2376   54.9084 H   0  0  0  0  0  0  0  0  0  0  0  0
   39.8162   32.8626   56.2262 H   0  0  0  0  0  0  0  0  0  0  0  0
   37.2334   31.3073   55.7212 H   0  0  0  0  0  0  0  0  0  0  0  0
   38.9490   30.9111   55.0053 H   0  0  0  0  0  0  0  0  0  0  0  0
   37.5069   30.5208   56.9509 H   0  0  0  0  0  0  0  0  0  0  0  0
   40.3330   29.7690   56.0180 H   0  0  0  0  0  0  0  0  0  0  0  0
   40.2720   27.0037   56.1019 H   0  0  0  0  0  0  0  0  0  0  0  0
   41.3958   28.2833   58.3151 H   0  0  0  0  0  0  0  0  0  0  0  0
   41.7044   26.1963   57.7380 H   0  0  0  0  0  0  0  0  0  0  0  0
   42.9750   26.3810   58.0780 H   0  0  0  0  0  0  0  0  0  0  0  0
   39.7162   25.8663   58.8370 H   0  0  0  0  0  0  0  0  0  0  0  0
   38.3871   26.1222   57.6778 H   0  0  0  0  0  0  0  0  0  0  0  0
   39.6760   24.0240   57.5850 H   0  0  0  0  0  0  0  0  0  0  0  0
   37.7300   29.9126   58.3595 H   0  0  0  0  0  0  0  0  0  0  0  0
   38.3540   30.6920   60.1180 H   0  0  0  0  0  0  0  0  0  0  0  0
   37.0030   32.6960   58.8160 H   0  0  0  0  0  0  0  0  0  0  0  0
   36.4331   32.6392   61.2861 H   0  0  0  0  0  0  0  0  0  0  0  0
   39.6966   31.6923   64.0432 H   0  0  0  0  0  0  0  0  0  0  0  0
   40.6302   34.1692   63.4739 H   0  0  0  0  0  0  0  0  0  0  0  0
   40.0869   33.1065   65.0068 H   0  0  0  0  0  0  0  0  0  0  0  0
   42.5688   34.1728   64.2000 H   0  0  0  0  0  0  0  0  0  0  0  0
   41.6911   33.9789   65.7830 H   0  0  0  0  0  0  0  0  0  0  0  0
   42.5608   29.0496   64.9676 H   0  0  0  0  0  0  0  0  0  0  0  0
   43.5599   29.4463   63.4815 H   0  0  0  0  0  0  0  0  0  0  0  0
   44.5543   28.8610   65.7747 H   0  0  0  0  0  0  0  0  0  0  0  0
   45.2367   30.0791   64.5683 H   0  0  0  0  0  0  0  0  0  0  0  0
   43.8680   30.5550   67.2041 H   0  0  0  0  0  0  0  0  0  0  0  0
   45.5336   31.1114   66.4811 H   0  0  0  0  0  0  0  0  0  0  0  0
   44.4010   33.0490   66.5310 H   0  0  0  0  0  0  0  0  0  0  0  0
   41.7646   31.1073   62.1861 H   0  0  0  0  0  0  0  0  0  0  0  0
   40.7429   30.1289   63.3225 H   0  0  0  0  0  0  0  0  0  0  0  0
   39.2790   34.3762   63.3449 H   0  0  0  0  0  0  0  0  0  0  0  0
   40.6603   34.4206   62.0269 H   0  0  0  0  0  0  0  0  0  0  0  0
   40.1004   36.7704   61.6029 H   0  0  0  0  0  0  0  0  0  0  0  0
   38.4617   38.2154   60.5507 H   0  0  0  0  0  0  0  0  0  0  0  0
   36.3123   37.4235   59.6745 H   0  0  0  0  0  0  0  0  0  0  0  0
   35.8238   34.8925   59.7070 H   0  0  0  0  0  0  0  0  0  0  0  0
  1  2  1  0
  2  3  1  0
  3  4  1  0
  4  5  1  0
  5  6  1  0
  6  7  1  0
  7  8  1  0
  8  9  1  0
  7 10  1  0
 10 11  1  0
  6 12  1  0
 12 13  1  0
 13 14  1  0
 14 15  1  0
 15 16  1  0
 16 17  1  0
 17 18  2  0
 17 19  1  0
 19 20  1  0
 20 21  1  0
 21 22  1  0
 22 23  1  0
 23 24  2  0
 24 25  1  0
 25 26  1  0
 26 27  1  0
 27 28  1  0
 24 29  1  0
 19 30  1  0
 30 31  1  0
 31 32  2  0
 32 33  1  0
 33 34  2  0
 34 35  1  0
 35 36  2  0
 13  4  1  0
 36 16  1  0
 29 20  1  0
 36 31  1  0
 28 23  1  0
  1 37  1  0
  1 38  1  0
  1 39  1  0
  2 40  1  0
  2 41  1  0
  3 42  1  0
  3 43  1  0
  4 44  1  1
  5 45  1  0
  7 46  1  0
  8 47  1  0
  8 48  1  0
  9 49  1  0
 10 50  1  0
 10 51  1  0
 11 52  1  0
 13 53  1  1
 14 54  1  0
 15 55  1  0
 16 56  1  1
 20 57  1  1
 21 58  1  0
 21 59  1  0
 22 60  1  0
 22 61  1  0
 25 62  1  0
 25 63  1  0
 26 64  1  0
 26 65  1  0
 27 66  1  0
 27 67  1  0
 28 68  1  0
 29 69  1  0
 29 70  1  0
 30 71  1  0
 30 72  1  0
 32 73  1  0
 33 74  1  0
 34 75  1  0
 35 76  1  0
M  CHG  1   1   1
M  END
>  <docking_score>  (65) 
-9.614

>  <plif_similarity>  (65) 
0.222

$$$$
DiffSBDD_85
     RDKit          3D

 62 65  0  0  0  0  0  0  0  0999 V2000
   35.4510   30.9870   60.3010 C   0  0  0  0  0  0  0  0  0  0  0  0
   36.3330   32.0410   60.8540 C   0  0  1  0  0  0  0  0  0  0  0  0
   35.8870   33.4410   60.9190 C   0  0  0  0  0  0  0  0  0  0  0  0
   35.6780   34.0230   59.6170 O   0  0  0  0  0  0  0  0  0  0  0  0
   37.7170   31.6420   61.1990 C   0  0  0  0  0  0  0  0  0  0  0  0
   38.2050   31.4190   62.3390 O   0  0  0  0  0  0  0  0  0  0  0  0
   38.7040   31.6050   60.1860 N   0  0  0  0  0  0  0  0  0  0  0  0
   38.2420   32.1220   59.1140 C   0  0  2  0  0  0  0  0  0  0  0  0
   38.2220   31.6690   57.6670 C   0  0  2  0  0  0  0  0  0  0  0  0
   38.4160   32.1020   56.1830 C   0  0  1  0  0  0  0  0  0  0  0  0
   38.3820   31.2120   55.1210 C   0  0  2  0  0  0  0  0  0  0  0  0
   37.5240   30.2230   55.3490 C   0  0  0  0  0  0  0  0  0  0  0  0
   36.4250   29.9280   54.3840 O   0  0  0  0  0  0  0  0  0  0  0  0
   39.7130   30.7920   54.6440 N   0  0  0  0  0  0  0  0  0  0  0  0
   39.8350   30.9030   53.2320 C   0  0  0  0  0  0  0  0  0  0  0  0
   39.3930   29.6320   52.4420 C   0  0  0  0  0  0  0  0  0  0  0  0
   39.8270   29.4520   51.1400 C   0  0  0  0  0  0  0  0  0  0  0  0
   40.2630   30.5530   50.0870 Cl  0  0  0  0  0  0  0  0  0  0  0  0
   39.8570   28.0460   50.8080 C   0  0  0  0  0  0  0  0  0  0  0  0
   39.1440   27.2290   51.5810 C   0  0  0  0  0  0  0  0  0  0  0  0
   38.5470   27.2450   52.7670 C   0  0  2  0  0  0  0  0  0  0  0  0
   37.7720   26.6330   53.8720 C   0  0  0  0  0  0  0  0  0  0  0  0
   36.6960   26.8390   53.7140 O   0  0  0  0  0  0  0  0  0  0  0  0
   38.2250   26.0830   55.1600 O   0  0  0  0  0  0  0  0  0  0  0  0
   38.7200   26.8330   56.1370 C   0  0  0  0  0  0  0  0  0  0  0  0
   40.1100   27.3560   56.0790 C   0  0  0  0  0  0  0  0  0  0  0  0
   40.6660   27.9430   57.0600 C   0  0  0  0  0  0  0  0  0  0  0  0
   39.8950   28.2850   58.2090 C   0  0  0  0  0  0  0  0  0  0  0  0
   38.4550   28.0220   58.1600 C   0  0  0  0  0  0  0  0  0  0  0  0
   37.6360   28.6380   58.8530 F   0  0  0  0  0  0  0  0  0  0  0  0
   38.0030   27.1360   57.2750 C   0  0  0  0  0  0  0  0  0  0  0  0
   38.4450   28.6520   52.7990 O   0  0  0  0  0  0  0  0  0  0  0  0
   38.5640   33.4000   56.3770 C   0  0  0  0  0  0  0  0  0  0  0  0
   38.0360   33.8570   57.5280 O   0  0  0  0  0  0  0  0  0  0  0  0
   38.3700   33.1580   58.3590 N   0  0  0  0  0  0  0  0  0  0  0  0
   34.9843   30.4292   61.1263 H   0  0  0  0  0  0  0  0  0  0  0  0
   34.6681   31.4510   59.6831 H   0  0  0  0  0  0  0  0  0  0  0  0
   36.0457   30.2982   59.6831 H   0  0  0  0  0  0  0  0  0  0  0  0
   36.7481   32.2198   59.8511 H   0  0  0  0  0  0  0  0  0  0  0  0
   34.9407   33.4825   61.4783 H   0  0  0  0  0  0  0  0  0  0  0  0
   36.6809   34.0182   61.4155 H   0  0  0  0  0  0  0  0  0  0  0  0
   34.7690   34.4120   59.5710 H   0  0  0  0  0  0  0  0  0  0  0  0
   39.6520   31.2200   60.2980 H   0  0  0  0  0  0  0  0  0  0  0  0
   37.6537   31.9901   60.0340 H   0  0  0  0  0  0  0  0  0  0  0  0
   39.2900   31.4138   57.7321 H   0  0  0  0  0  0  0  0  0  0  0  0
   39.5006   31.9458   56.2792 H   0  0  0  0  0  0  0  0  0  0  0  0
   37.9845   31.7585   54.2530 H   0  0  0  0  0  0  0  0  0  0  0  0
   38.1211   29.3032   55.4353 H   0  0  0  0  0  0  0  0  0  0  0  0
   36.9803   30.5717   56.2394 H   0  0  0  0  0  0  0  0  0  0  0  0
   35.5610   29.8970   54.8680 H   0  0  0  0  0  0  0  0  0  0  0  0
   39.8680   29.8100   54.9150 H   0  0  0  0  0  0  0  0  0  0  0  0
   39.2140   31.7477   52.8989 H   0  0  0  0  0  0  0  0  0  0  0  0
   40.9050   31.0460   53.0209 H   0  0  0  0  0  0  0  0  0  0  0  0
   40.4416   27.6681   49.9563 H   0  0  0  0  0  0  0  0  0  0  0  0
   39.0100   26.2524   51.0928 H   0  0  0  0  0  0  0  0  0  0  0  0
   38.8125   26.2021   52.9946 H   0  0  0  0  0  0  0  0  0  0  0  0
   40.6818   27.2298   55.1478 H   0  0  0  0  0  0  0  0  0  0  0  0
   41.7381   28.1861   57.0223 H   0  0  0  0  0  0  0  0  0  0  0  0
   40.3639   28.7298   59.0991 H   0  0  0  0  0  0  0  0  0  0  0  0
   37.0397   26.6365   57.4551 H   0  0  0  0  0  0  0  0  0  0  0  0
   39.6405   33.6263   56.3793 H   0  0  0  0  0  0  0  0  0  0  0  0
   38.0202   33.9016   55.5629 H   0  0  0  0  0  0  0  0  0  0  0  0
  1  2  1  0
  2  3  1  0
  3  4  1  0
  2  5  1  0
  5  6  2  0
  5  7  1  0
  7  8  1  0
  8  9  1  0
  9 10  1  0
 10 11  1  0
 11 12  1  0
 12 13  1  0
 11 14  1  0
 14 15  1  0
 15 16  1  0
 16 17  2  0
 17 18  1  0
 17 19  1  0
 19 20  2  0
 20 21  1  0
 21 22  1  0
 22 23  2  0
 22 24  1  0
 24 25  1  0
 25 26  2  0
 26 27  1  0
 27 28  2  0
 28 29  1  0
 29 30  1  0
 29 31  2  0
 21 32  1  0
 10 33  1  0
 33 34  1  0
 34 35  1  0
 35  8  1  0
 35  9  1  0
 32 16  1  0
 31 25  1  0
  1 36  1  0
  1 37  1  0
  1 38  1  0
  2 39  1  1
  3 40  1  0
  3 41  1  0
  4 42  1  0
  7 43  1  0
  8 44  1  1
  9 45  1  6
 10 46  1  1
 11 47  1  6
 12 48  1  0
 12 49  1  0
 13 50  1  0
 14 51  1  0
 15 52  1  0
 15 53  1  0
 19 54  1  0
 20 55  1  0
 21 56  1  1
 26 57  1  0
 27 58  1  0
 28 59  1  0
 31 60  1  0
 33 61  1  0
 33 62  1  0
M  END
>  <docking_score>  (66) 
-9.526

>  <plif_similarity>  (66) 
0.333

$$$$
DiffSBDD_86
     RDKit          3D

 78 80  0  0  0  0  0  0  0  0999 V2000
   39.7760   29.3490   51.1150 C   0  0  0  0  0  0  0  0  0  0  0  0
   39.3780   27.9310   50.8920 C   0  0  0  0  0  0  0  0  0  0  0  0
   38.6830   27.3430   51.9520 N   0  0  0  0  0  0  0  0  0  0  0  0
   37.7700   28.0490   52.5970 C   0  0  0  0  0  0  0  0  0  0  0  0
   37.4360   28.3550   53.8650 C   0  0  0  0  0  0  0  0  0  0  0  0
   38.3910   29.1420   54.7580 C   0  0  0  0  0  0  0  0  0  0  0  0
   38.6220   28.5640   56.0250 N   0  0  1  0  0  0  0  0  0  0  0  0
   39.0180   29.4540   57.0050 C   0  0  0  0  0  0  0  0  0  0  0  0
   37.9650   29.6760   57.9910 C   0  0  0  0  0  0  0  0  0  0  0  0
   38.7510   30.2970   59.1310 C   0  0  2  0  0  0  0  0  0  0  0  0
   39.3180   29.8150   60.3900 O   0  0  0  0  0  0  0  0  0  0  0  0
   40.6740   30.1360   60.7640 O   0  0  0  0  0  0  0  0  0  0  0  0
   37.6960   31.4910   59.7500 C   0  0  1  0  0  0  0  0  0  0  0  0
   37.0070   31.5420   61.3050 C   0  0  0  0  0  0  0  0  0  0  0  0
   38.4730   32.5300   59.2190 N   0  0  0  0  0  0  0  0  0  0  0  0
   38.6810   33.1010   60.5730 C   0  0  0  0  0  0  0  0  0  0  0  0
   39.6620   33.9440   60.5890 C   0  0  0  0  0  0  0  0  0  0  0  0
   40.5530   33.9670   61.6910 C   0  0  0  0  0  0  0  0  0  0  0  0
   41.0550   32.8480   62.0990 N   0  0  0  0  0  0  0  0  0  0  0  0
   41.6880   32.7710   63.2500 C   0  0  0  0  0  0  0  0  0  0  0  0
   42.1480   31.5690   63.9250 C   0  0  0  0  0  0  0  0  0  0  0  0
   42.2240   30.4640   63.2040 O   0  0  0  0  0  0  0  0  0  0  0  0
   42.7020   31.7270   65.1970 C   0  0  0  0  0  0  0  0  0  0  0  0
   42.7550   33.0420   65.7990 C   0  0  0  0  0  0  0  0  0  0  0  0
   42.3050   34.1890   65.1190 C   0  0  0  0  0  0  0  0  0  0  0  0
   41.7170   34.0390   63.8790 C   0  0  0  0  0  0  0  0  0  0  0  0
   41.0000   35.1560   62.8770 S   0  0  0  0  0  0  0  0  0  0  0  0
   37.9830   33.4760   58.3600 C   0  0  0  0  0  0  0  0  0  0  0  0
   38.4100   33.1080   57.0310 O   0  0  0  0  0  0  0  0  0  0  0  0
   37.1860   34.3290   58.2690 O   0  0  0  0  0  0  0  0  0  0  0  0
   38.6060   27.0980   56.2630 C   0  0  2  0  0  0  0  0  0  0  0  0
   39.9450   26.6650   55.7280 C   0  0  0  0  0  0  0  0  0  0  0  0
   40.1850   26.3000   54.6020 O   0  0  0  0  0  0  0  0  0  0  0  0
   40.9720   26.7350   56.5140 O   0  0  0  0  0  0  0  0  0  0  0  0
   38.1980   25.3240   56.5000 C   0  0  0  0  0  0  0  0  0  0  0  0
   36.9460   25.1700   55.5860 C   0  0  0  0  0  0  0  0  0  0  0  0
   38.3890   24.1300   57.3290 C   0  0  0  0  0  0  0  0  0  0  0  0
   37.5130   25.2020   57.9800 C   0  0  0  0  0  0  0  0  0  0  0  0
   39.8320   29.5486   52.1953 H   0  0  0  0  0  0  0  0  0  0  0  0
   40.7597   29.5301   50.6572 H   0  0  0  0  0  0  0  0  0  0  0  0
   39.0302   30.0155   50.6572 H   0  0  0  0  0  0  0  0  0  0  0  0
   38.7367   27.8921   49.9991 H   0  0  0  0  0  0  0  0  0  0  0  0
   40.3124   27.3613   50.7810 H   0  0  0  0  0  0  0  0  0  0  0  0
   38.2080   26.5100   51.5740 H   0  0  0  0  0  0  0  0  0  0  0  0
   39.4120   27.1790   52.6610 H   0  0  0  0  0  0  0  0  0  0  0  0
   37.9051   29.0469   52.1543 H   0  0  0  0  0  0  0  0  0  0  0  0
   37.0174   27.2497   52.5285 H   0  0  0  0  0  0  0  0  0  0  0  0
   36.5046   28.9379   53.8118 H   0  0  0  0  0  0  0  0  0  0  0  0
   37.4033   27.3695   54.3526 H   0  0  0  0  0  0  0  0  0  0  0  0
   39.3566   29.2256   54.2379 H   0  0  0  0  0  0  0  0  0  0  0  0
   37.9142   30.1160   54.9421 H   0  0  0  0  0  0  0  0  0  0  0  0
   39.5940   28.4980   55.6910 H   0  0  0  0  0  0  0  0  0  0  0  0
   39.9049   29.0505   57.5155 H   0  0  0  0  0  0  0  0  0  0  0  0
   39.2441   30.4164   56.5227 H   0  0  0  0  0  0  0  0  0  0  0  0
   37.1957   30.3641   57.6106 H   0  0  0  0  0  0  0  0  0  0  0  0
   37.4095   28.7681   58.2689 H   0  0  0  0  0  0  0  0  0  0  0  0
   39.6802   30.3471   58.5445 H   0  0  0  0  0  0  0  0  0  0  0  0
   41.0690   29.3730   61.2550 H   0  0  0  0  0  0  0  0  0  0  0  0
   36.6275   31.3898   59.5089 H   0  0  0  0  0  0  0  0  0  0  0  0
   37.8037   31.4830   62.0612 H   0  0  0  0  0  0  0  0  0  0  0  0
   36.4522   32.4837   61.4295 H   0  0  0  0  0  0  0  0  0  0  0  0
   36.3196   30.6923   61.4295 H   0  0  0  0  0  0  0  0  0  0  0  0
   37.7619   33.6169   60.8879 H   0  0  0  0  0  0  0  0  0  0  0  0
   38.9243   32.2771   61.2601 H   0  0  0  0  0  0  0  0  0  0  0  0
   40.2684   33.7441   59.6933 H   0  0  0  0  0  0  0  0  0  0  0  0
   39.1585   34.9202   60.6477 H   0  0  0  0  0  0  0  0  0  0  0  0
   42.9960   30.3200   62.6000 H   0  0  0  0  0  0  0  0  0  0  0  0
   43.0967   30.8552   65.7394 H   0  0  0  0  0  0  0  0  0  0  0  0
   43.1584   33.1480   66.8169 H   0  0  0  0  0  0  0  0  0  0  0  0
   42.4197   35.1869   65.5674 H   0  0  0  0  0  0  0  0  0  0  0  0
   37.7019   27.4541   56.7785 H   0  0  0  0  0  0  0  0  0  0  0  0
   36.0474   25.0595   56.2107 H   0  0  0  0  0  0  0  0  0  0  0  0
   36.8436   26.0623   54.9510 H   0  0  0  0  0  0  0  0  0  0  0  0
   37.0629   24.2795   54.9510 H   0  0  0  0  0  0  0  0  0  0  0  0
   37.9258   23.1834   57.0136 H   0  0  0  0  0  0  0  0  0  0  0  0
   39.2922   23.6040   57.6718 H   0  0  0  0  0  0  0  0  0  0  0  0
   36.4284   25.0538   58.0881 H   0  0  0  0  0  0  0  0  0  0  0  0
   37.5088   25.7799   58.9159 H   0  0  0  0  0  0  0  0  0  0  0  0
  1  2  1  0
  2  3  1  0
  3  4  1  0
  4  5  1  0
  5  6  1  0
  6  7  1  0
  7  8  1  0
  8  9  1  0
  9 10  1  0
 10 11  1  0
 11 12  1  0
 10 13  1  0
 13 14  1  0
 13 15  1  0
 15 16  1  0
 16 17  1  0
 17 18  1  0
 18 19  2  0
 19 20  1  0
 20 21  2  0
 21 22  1  0
 21 23  1  0
 23 24  2  0
 24 25  1  0
 25 26  2  0
 26 27  1  0
 15 28  1  0
 28 29  2  0
 28 30  1  0
  7 31  1  0
 31 32  1  0
 32 33  2  0
 32 34  1  0
 31 35  1  0
 35 36  1  0
 35 37  1  0
 37 38  1  0
 27 18  1  0
 38 35  1  0
 26 20  1  0
  1 39  1  0
  1 40  1  0
  1 41  1  0
  2 42  1  0
  2 43  1  0
  3 44  1  0
  3 45  1  0
  4 46  1  0
  4 47  1  0
  5 48  1  0
  5 49  1  0
  6 50  1  0
  6 51  1  0
  7 52  1  1
  8 53  1  0
  8 54  1  0
  9 55  1  0
  9 56  1  0
 10 57  1  6
 12 58  1  0
 13 59  1  6
 14 60  1  0
 14 61  1  0
 14 62  1  0
 16 63  1  0
 16 64  1  0
 17 65  1  0
 17 66  1  0
 22 67  1  0
 23 68  1  0
 24 69  1  0
 25 70  1  0
 31 71  1  1
 36 72  1  0
 36 73  1  0
 36 74  1  0
 37 75  1  0
 37 76  1  0
 38 77  1  0
 38 78  1  0
M  CHG  4   3   1   7   1  30  -1  34  -1
M  END
>  <docking_score>  (67) 
-8.487

>  <plif_similarity>  (67) 
0.222

$$$$
DiffSBDD_87
     RDKit          3D

 80 80  0  0  0  0  0  0  0  0999 V2000
   40.8130   32.9060   61.9620 C   0  0  0  0  0  0  0  0  0  0  0  0
   39.3030   33.3240   61.4800 C   0  0  2  0  0  0  0  0  0  0  0  0
   38.4510   32.1070   60.9870 C   0  0  0  0  0  0  0  0  0  0  0  0
   37.2020   31.2270   60.4490 C   0  0  0  0  0  0  0  0  0  0  0  0
   36.0360   31.3870   60.8810 O   0  0  0  0  0  0  0  0  0  0  0  0
   37.7870   30.3150   59.5790 N   0  0  0  0  0  0  0  0  0  0  0  0
   37.1530   29.2760   58.9100 C   0  0  0  0  0  0  0  0  0  0  0  0
   38.2490   28.3930   58.3070 C   0  0  0  0  0  0  0  0  0  0  0  0
   39.2020   28.6580   57.1610 C   0  0  0  0  0  0  0  0  0  0  0  0
   39.8080   28.2810   55.9200 C   0  0  0  0  0  0  0  0  0  0  0  0
   39.4600   29.2400   54.7750 C   0  0  1  0  0  0  0  0  0  0  0  0
   39.8230   30.7910   54.5290 C   0  0  0  0  0  0  0  0  0  0  0  0
   38.4170   31.4470   54.7300 C   0  0  0  0  0  0  0  0  0  0  0  0
   38.1860   31.9530   56.0450 C   0  0  0  0  0  0  0  0  0  0  0  0
   38.4840   32.1540   57.0430 N   0  0  0  0  0  0  0  0  0  0  0  0
   38.5750   28.6150   53.8310 C   0  0  1  0  0  0  0  0  0  0  0  0
   37.1130   28.6970   53.5370 C   0  0  0  0  0  0  0  0  0  0  0  0
   36.7520   27.3560   53.3660 O   0  0  0  0  0  0  0  0  0  0  0  0
   39.1180   28.2780   52.7530 C   0  0  1  0  0  0  0  0  0  0  0  0
   38.8670   27.3560   51.6710 O   0  0  0  0  0  0  0  0  0  0  0  0
   39.7650   27.9670   50.5650 C   0  0  0  0  0  0  0  0  0  0  0  0
   39.7800   28.9810   51.4970 C   0  0  1  0  0  0  0  0  0  0  0  0
   39.9070   30.3760   51.2020 C   0  0  0  0  0  0  0  0  0  0  0  0
   39.5290   34.4780   60.4290 C   0  0  0  0  0  0  0  0  0  0  0  0
   38.3680   35.4620   60.5980 N   0  0  0  0  0  0  0  0  0  0  0  0
   38.2240   36.2410   61.8280 C   0  0  2  0  0  0  0  0  0  0  0  0
   37.0730   36.9590   62.6200 C   0  0  0  0  0  0  0  0  0  0  0  0
   39.5710   36.8080   62.0970 C   0  0  1  0  0  0  0  0  0  0  0  0
   39.7300   38.3560   61.9010 C   0  0  0  0  0  0  0  0  0  0  0  0
   39.9990   36.3430   63.3810 O   0  0  0  0  0  0  0  0  0  0  0  0
   36.8960   35.2330   59.7880 S   0  0  0  0  0  0  0  0  0  0  0  0
   36.8380   36.6960   59.1780 O   0  0  0  0  0  0  0  0  0  0  0  0
   36.0250   34.3800   60.6420 O   0  0  0  0  0  0  0  0  0  0  0  0
   36.9030   34.3120   58.5640 O   0  0  0  0  0  0  0  0  0  0  0  0
   40.8569   32.8939   63.0611 H   0  0  0  0  0  0  0  0  0  0  0  0
   41.0581   31.9062   61.5742 H   0  0  0  0  0  0  0  0  0  0  0  0
   41.5373   33.6374   61.5742 H   0  0  0  0  0  0  0  0  0  0  0  0
   38.6763   33.6864   62.3082 H   0  0  0  0  0  0  0  0  0  0  0  0
   39.1351   31.8244   60.1732 H   0  0  0  0  0  0  0  0  0  0  0  0
   37.9422   32.1362   61.9618 H   0  0  0  0  0  0  0  0  0  0  0  0
   38.7980   30.4200   59.4140 H   0  0  0  0  0  0  0  0  0  0  0  0
   36.5421   28.6914   59.6136 H   0  0  0  0  0  0  0  0  0  0  0  0
   36.4874   29.6644   58.1251 H   0  0  0  0  0  0  0  0  0  0  0  0
   38.9102   28.1707   59.1575 H   0  0  0  0  0  0  0  0  0  0  0  0
   37.5886   27.6879   57.7810 H   0  0  0  0  0  0  0  0  0  0  0  0
   38.8103   29.6389   56.8537 H   0  0  0  0  0  0  0  0  0  0  0  0
   39.9559   28.0502   57.6828 H   0  0  0  0  0  0  0  0  0  0  0  0
   40.9002   28.2708   56.0506 H   0  0  0  0  0  0  0  0  0  0  0  0
   39.4209   27.2874   55.6500 H   0  0  0  0  0  0  0  0  0  0  0  0
   38.5428   29.5385   55.3038 H   0  0  0  0  0  0  0  0  0  0  0  0
   40.5522   31.1594   55.2656 H   0  0  0  0  0  0  0  0  0  0  0  0
   40.2939   31.0036   53.5579 H   0  0  0  0  0  0  0  0  0  0  0  0
   38.3211   32.2805   54.0186 H   0  0  0  0  0  0  0  0  0  0  0  0
   37.6732   30.6539   54.5631 H   0  0  0  0  0  0  0  0  0  0  0  0
   37.1561   32.3366   55.9988 H   0  0  0  0  0  0  0  0  0  0  0  0
   37.8290   32.6130   57.6940 H   0  0  0  0  0  0  0  0  0  0  0  0
   38.4079   28.0895   54.7828 H   0  0  0  0  0  0  0  0  0  0  0  0
   36.5655   29.1501   54.3766 H   0  0  0  0  0  0  0  0  0  0  0  0
   36.8804   29.3239   52.6636 H   0  0  0  0  0  0  0  0  0  0  0  0
   37.3940   26.9170   52.7540 H   0  0  0  0  0  0  0  0  0  0  0  0
   39.4106   28.1637   53.8072 H   0  0  0  0  0  0  0  0  0  0  0  0
   40.7233   27.4605   50.3778 H   0  0  0  0  0  0  0  0  0  0  0  0
   39.5012   28.0701   49.5021 H   0  0  0  0  0  0  0  0  0  0  0  0
   40.6982   29.5358   51.7400 H   0  0  0  0  0  0  0  0  0  0  0  0
   39.9589   30.9462   52.1413 H   0  0  0  0  0  0  0  0  0  0  0  0
   40.8243   30.5455   50.6190 H   0  0  0  0  0  0  0  0  0  0  0  0
   39.0354   30.7083   50.6190 H   0  0  0  0  0  0  0  0  0  0  0  0
   40.4862   34.9845   60.6223 H   0  0  0  0  0  0  0  0  0  0  0  0
   39.5627   34.0786   59.4046 H   0  0  0  0  0  0  0  0  0  0  0  0
   37.5408   35.4724   62.2184 H   0  0  0  0  0  0  0  0  0  0  0  0
   37.2480   36.8498   63.7005 H   0  0  0  0  0  0  0  0  0  0  0  0
   37.0579   38.0270   62.3571 H   0  0  0  0  0  0  0  0  0  0  0  0
   36.1072   36.5029   62.3571 H   0  0  0  0  0  0  0  0  0  0  0  0
   40.2439   36.4350   61.3108 H   0  0  0  0  0  0  0  0  0  0  0  0
   39.7804   38.8468   62.8841 H   0  0  0  0  0  0  0  0  0  0  0  0
   40.6540   38.5617   61.3407 H   0  0  0  0  0  0  0  0  0  0  0  0
   38.8671   38.7452   61.3407 H   0  0  0  0  0  0  0  0  0  0  0  0
   35.8950   36.9920   59.1200 H   0  0  0  0  0  0  0  0  0  0  0  0
   35.4860   34.9540   61.2420 H   0  0  0  0  0  0  0  0  0  0  0  0
   37.6240   34.5910   57.9450 H   0  0  0  0  0  0  0  0  0  0  0  0
  1  2  1  0
  2  3  1  0
  3  4  1  0
  4  5  2  0
  4  6  1  0
  6  7  1  0
  7  8  1  0
  8  9  1  0
  9 10  1  0
 10 11  1  0
 11 12  1  0
 12 13  1  0
 13 14  1  0
 14 15  2  3
 11 16  1  0
 16 17  1  0
 17 18  1  0
 16 19  1  0
 19 20  1  0
 20 21  1  0
 21 22  1  0
 22 23  1  0
  2 24  1  0
 24 25  1  0
 25 26  1  0
 26 27  1  0
 26 28  1  0
 28 29  1  0
 28 30  1  0
 25 31  1  0
 31 32  1  0
 31 33  1  0
 31 34  1  0
 22 19  1  0
  1 35  1  0
  1 36  1  0
  1 37  1  0
  2 38  1  1
  3 39  1  0
  3 40  1  0
  6 41  1  0
  7 42  1  0
  7 43  1  0
  8 44  1  0
  8 45  1  0
  9 46  1  0
  9 47  1  0
 10 48  1  0
 10 49  1  0
 11 50  1  6
 12 51  1  0
 12 52  1  0
 13 53  1  0
 13 54  1  0
 14 55  1  0
 15 56  1  0
 16 57  1  1
 17 58  1  0
 17 59  1  0
 18 60  1  0
 19 61  1  1
 21 62  1  0
 21 63  1  0
 22 64  1  1
 23 65  1  0
 23 66  1  0
 23 67  1  0
 24 68  1  0
 24 69  1  0
 26 70  1  1
 27 71  1  0
 27 72  1  0
 27 73  1  0
 28 74  1  6
 29 75  1  0
 29 76  1  0
 29 77  1  0
 32 78  1  0
 33 79  1  0
 34 80  1  0
M  CHG  1  30  -1
M  END
>  <docking_score>  (68) 
-7.943

>  <plif_similarity>  (68) 
0.333

$$$$
DiffSBDD_88
     RDKit          3D

 46 47  0  0  0  0  0  0  0  0999 V2000
   40.5080   29.0940   61.6600 C   0  0  0  0  0  0  0  0  0  0  0  0
   40.7930   29.0900   60.5970 N   0  0  0  0  0  0  0  0  0  0  0  0
   40.5430   28.6610   59.4260 C   0  0  0  0  0  0  0  0  0  0  0  0
   41.2610   27.8990   58.8180 O   0  0  0  0  0  0  0  0  0  0  0  0
   39.3660   29.3590   58.8830 C   0  0  2  0  0  0  0  0  0  0  0  0
   38.1920   28.5550   58.9260 C   0  0  0  0  0  0  0  0  0  0  0  0
   37.8000   28.2610   57.5120 C   0  0  0  0  0  0  0  0  0  0  0  0
   38.5280   29.3900   56.8010 C   0  0  1  0  0  0  0  0  0  0  0  0
   37.9720   29.6510   55.5320 C   0  0  1  0  0  0  0  0  0  0  0  0
   36.7570   30.4220   55.1390 C   0  0  0  0  0  0  0  0  0  0  0  0
   38.8760   28.8940   54.9510 O   0  0  0  0  0  0  0  0  0  0  0  0
   38.6360   28.0880   53.9250 C   0  0  2  0  0  0  0  0  0  0  0  0
   38.5080   26.6370   54.0770 C   0  0  0  0  0  0  0  0  0  0  0  0
   39.6910   26.2570   54.9090 C   0  0  0  0  0  0  0  0  0  0  0  0
   39.1300   25.3030   55.8190 C   0  0  0  0  0  0  0  0  0  0  0  0
   38.0080   24.7560   55.5230 O   0  0  0  0  0  0  0  0  0  0  0  0
   39.8220   24.9730   56.8490 O   0  0  0  0  0  0  0  0  0  0  0  0
   39.2980   28.7390   52.6030 C   0  0  0  0  0  0  0  0  0  0  0  0
   39.7150   29.9900   52.4990 C   0  0  0  0  0  0  0  0  0  0  0  0
   40.1290   30.4980   51.2800 C   0  0  0  0  0  0  0  0  0  0  0  0
   40.1840   29.6880   50.1250 C   0  0  0  0  0  0  0  0  0  0  0  0
   39.7770   28.2940   50.2940 C   0  0  0  0  0  0  0  0  0  0  0  0
   39.3240   27.9250   51.5240 C   0  0  0  0  0  0  0  0  0  0  0  0
   39.6100   29.8140   57.5790 O   0  0  0  0  0  0  0  0  0  0  0  0
   41.0915   29.6821   62.3837 H   0  0  0  0  0  0  0  0  0  0  0  0
   39.6397   28.5099   61.9988 H   0  0  0  0  0  0  0  0  0  0  0  0
   39.1847   30.2299   59.5300 H   0  0  0  0  0  0  0  0  0  0  0  0
   38.3980   27.6168   59.4620 H   0  0  0  0  0  0  0  0  0  0  0  0
   37.3811   29.0789   59.4533 H   0  0  0  0  0  0  0  0  0  0  0  0
   38.1582   27.2736   57.1852 H   0  0  0  0  0  0  0  0  0  0  0  0
   36.7161   28.2187   57.3291 H   0  0  0  0  0  0  0  0  0  0  0  0
   39.2170   28.6612   56.3492 H   0  0  0  0  0  0  0  0  0  0  0  0
   37.3664   28.7360   55.6091 H   0  0  0  0  0  0  0  0  0  0  0  0
   36.2276   30.7579   56.0428 H   0  0  0  0  0  0  0  0  0  0  0  0
   37.0549   31.2967   54.5422 H   0  0  0  0  0  0  0  0  0  0  0  0
   36.0925   29.7800   54.5422 H   0  0  0  0  0  0  0  0  0  0  0  0
   37.5443   28.0451   53.7974 H   0  0  0  0  0  0  0  0  0  0  0  0
   37.5697   26.3784   54.5896 H   0  0  0  0  0  0  0  0  0  0  0  0
   38.4812   26.1100   53.1118 H   0  0  0  0  0  0  0  0  0  0  0  0
   40.4818   25.8033   54.2935 H   0  0  0  0  0  0  0  0  0  0  0  0
   40.1719   27.1115   55.4075 H   0  0  0  0  0  0  0  0  0  0  0  0
   39.7329   30.6335   53.3910 H   0  0  0  0  0  0  0  0  0  0  0  0
   40.4216   31.5560   51.2095 H   0  0  0  0  0  0  0  0  0  0  0  0
   40.5143   30.0833   49.1531 H   0  0  0  0  0  0  0  0  0  0  0  0
   39.8342   27.5746   49.4638 H   0  0  0  0  0  0  0  0  0  0  0  0
   38.9547   26.8963   51.6478 H   0  0  0  0  0  0  0  0  0  0  0  0
  1  2  2  0
  2  3  1  0
  3  4  2  0
  3  5  1  0
  5  6  1  0
  6  7  1  0
  7  8  1  0
  8  9  1  0
  9 10  1  0
  9 11  1  0
 11 12  1  0
 12 13  1  0
 13 14  1  0
 14 15  1  0
 15 16  2  0
 15 17  1  0
 12 18  1  0
 18 19  2  0
 19 20  1  0
 20 21  2  0
 21 22  1  0
 22 23  2  0
  8 24  1  0
 24  5  1  0
 23 18  1  0
  1 25  1  0
  1 26  1  0
  5 27  1  1
  6 28  1  0
  6 29  1  0
  7 30  1  0
  7 31  1  0
  8 32  1  1
  9 33  1  6
 10 34  1  0
 10 35  1  0
 10 36  1  0
 12 37  1  6
 13 38  1  0
 13 39  1  0
 14 40  1  0
 14 41  1  0
 19 42  1  0
 20 43  1  0
 21 44  1  0
 22 45  1  0
 23 46  1  0
M  CHG  1  17  -1
M  END
>  <docking_score>  (69) 
-8.219

>  <plif_similarity>  (69) 
0.444

$$$$
DiffSBDD_89
     RDKit          3D

 60 62  0  0  0  0  0  0  0  0999 V2000
   38.2910   32.5170   59.2650 C   0  0  0  0  0  0  0  0  0  0  0  0
   38.7700   32.3190   60.7830 C   0  0  0  0  0  0  0  0  0  0  0  0
   39.7160   31.2160   60.6970 C   0  0  0  0  0  0  0  0  0  0  0  0
   40.5750   29.9980   60.2930 O   0  0  0  0  0  0  0  0  0  0  0  0
   40.0170   28.7210   60.4470 C   0  0  2  0  0  0  0  0  0  0  0  0
   39.4390   28.3340   61.5270 O   0  0  0  0  0  0  0  0  0  0  0  0
   41.0310   27.6490   59.1690 C   0  0  0  0  0  0  0  0  0  0  0  0
   39.7110   28.2310   58.7570 C   0  0  2  0  0  0  0  0  0  0  0  0
   39.2870   29.0830   57.8170 C   0  0  2  0  0  0  0  0  0  0  0  0
   37.8510   28.8770   58.0130 C   0  0  0  0  0  0  0  0  0  0  0  0
   39.7060   29.2880   56.3600 C   0  0  0  0  0  0  0  0  0  0  0  0
   39.4490   30.4960   55.6330 C   0  0  2  0  0  0  0  0  0  0  0  0
   39.3440   32.0580   55.7090 C   0  0  0  0  0  0  0  0  0  0  0  0
   37.9500   32.4250   55.3240 C   0  0  0  0  0  0  0  0  0  0  0  0
   37.4010   31.3210   54.5400 O   0  0  0  0  0  0  0  0  0  0  0  0
   38.3100   30.3050   54.6700 C   0  0  1  0  0  0  0  0  0  0  0  0
   38.8560   29.7640   53.3010 C   0  0  0  0  0  0  0  0  0  0  0  0
   39.5870   30.3220   52.3440 N   0  0  0  0  0  0  0  0  0  0  0  0
   40.1120   29.6460   51.1480 C   0  0  0  0  0  0  0  0  0  0  0  0
   40.8680   30.2320   50.3070 C   0  0  0  0  0  0  0  0  0  0  0  0
   39.7500   28.2010   50.9650 C   0  0  0  0  0  0  0  0  0  0  0  0
   38.9510   27.5700   51.8910 C   0  0  0  0  0  0  0  0  0  0  0  0
   38.5120   28.2370   53.1820 C   0  0  0  0  0  0  0  0  0  0  0  0
   37.8700   27.5010   54.1890 C   0  0  0  0  0  0  0  0  0  0  0  0
   37.3800   26.3680   54.3670 C   0  0  0  0  0  0  0  0  0  0  0  0
   38.3650   25.9830   55.2240 C   0  0  0  0  0  0  0  0  0  0  0  0
   39.4680   25.6040   54.8720 O   0  0  0  0  0  0  0  0  0  0  0  0
   38.1910   25.8890   56.4490 O   0  0  0  0  0  0  0  0  0  0  0  0
   37.2745   32.9372   59.2531 H   0  0  0  0  0  0  0  0  0  0  0  0
   38.9781   33.2048   58.7504 H   0  0  0  0  0  0  0  0  0  0  0  0
   38.2919   31.5448   58.7504 H   0  0  0  0  0  0  0  0  0  0  0  0
   39.2588   33.2281   61.1633 H   0  0  0  0  0  0  0  0  0  0  0  0
   37.9375   32.1180   61.4733 H   0  0  0  0  0  0  0  0  0  0  0  0
   40.5884   31.8538   60.9025 H   0  0  0  0  0  0  0  0  0  0  0  0
   38.8507   30.5371   60.7164 H   0  0  0  0  0  0  0  0  0  0  0  0
   39.8030   28.8400   62.2960 H   0  0  0  0  0  0  0  0  0  0  0  0
   41.9629   28.0448   58.7389 H   0  0  0  0  0  0  0  0  0  0  0  0
   41.4619   26.6369   59.1775 H   0  0  0  0  0  0  0  0  0  0  0  0
   38.9344   27.6774   58.2089 H   0  0  0  0  0  0  0  0  0  0  0  0
   39.8505   30.0128   57.9842 H   0  0  0  0  0  0  0  0  0  0  0  0
   37.6288   28.8451   59.0898 H   0  0  0  0  0  0  0  0  0  0  0  0
   37.2951   29.7046   57.5482 H   0  0  0  0  0  0  0  0  0  0  0  0
   37.5501   27.9265   57.5482 H   0  0  0  0  0  0  0  0  0  0  0  0
   40.7967   29.1473   56.3365 H   0  0  0  0  0  0  0  0  0  0  0  0
   39.0468   28.5765   55.8411 H   0  0  0  0  0  0  0  0  0  0  0  0
   40.5387   30.4510   55.7760 H   0  0  0  0  0  0  0  0  0  0  0  0
   39.5550   32.4007   56.7327 H   0  0  0  0  0  0  0  0  0  0  0  0
   40.0731   32.5319   55.0353 H   0  0  0  0  0  0  0  0  0  0  0  0
   37.3412   32.5828   56.2265 H   0  0  0  0  0  0  0  0  0  0  0  0
   37.9445   33.3551   54.7367 H   0  0  0  0  0  0  0  0  0  0  0  0
   37.6704   29.5453   55.1430 H   0  0  0  0  0  0  0  0  0  0  0  0
   41.6269   30.8202   50.8437 H   0  0  0  0  0  0  0  0  0  0  0  0
   41.3653   29.4811   49.6755 H   0  0  0  0  0  0  0  0  0  0  0  0
   40.2648   30.9008   49.6755 H   0  0  0  0  0  0  0  0  0  0  0  0
   40.1231   27.6466   50.0912 H   0  0  0  0  0  0  0  0  0  0  0  0
   38.6173   26.5418   51.6876 H   0  0  0  0  0  0  0  0  0  0  0  0
   38.6069   27.5531   55.0041 H   0  0  0  0  0  0  0  0  0  0  0  0
   36.8903   27.9496   53.9678 H   0  0  0  0  0  0  0  0  0  0  0  0
   36.3838   26.3934   54.8328 H   0  0  0  0  0  0  0  0  0  0  0  0
   37.1761   25.7407   53.4867 H   0  0  0  0  0  0  0  0  0  0  0  0
  1  2  1  0
  2  3  1  0
  3  4  1  0
  5  4  1  6
  5  6  1  0
  5  7  1  0
  7  8  1  0
  8  9  1  0
  9 10  1  0
  9 11  1  0
 11 12  1  0
 12 13  1  0
 13 14  1  0
 14 15  1  0
 15 16  1  0
 16 17  1  0
 17 18  1  0
 18 19  2  0
 19 20  1  0
 19 21  1  0
 21 22  2  0
 22 23  1  0
 23 24  1  0
 24 25  1  0
 25 26  1  0
 26 27  2  0
 26 28  1  0
  8  5  1  0
 16 12  1  0
 23 17  2  0
  1 29  1  0
  1 30  1  0
  1 31  1  0
  2 32  1  0
  2 33  1  0
  3 34  1  0
  3 35  1  0
  6 36  1  0
  7 37  1  0
  7 38  1  0
  8 39  1  1
  9 40  1  1
 10 41  1  0
 10 42  1  0
 10 43  1  0
 11 44  1  0
 11 45  1  0
 12 46  1  6
 13 47  1  0
 13 48  1  0
 14 49  1  0
 14 50  1  0
 16 51  1  1
 20 52  1  0
 20 53  1  0
 20 54  1  0
 21 55  1  0
 22 56  1  0
 24 57  1  0
 24 58  1  0
 25 59  1  0
 25 60  1  0
M  CHG  1  28  -1
M  END
>  <docking_score>  (70) 
-8.348

>  <plif_similarity>  (70) 
0.556

$$$$
DiffSBDD_91
     RDKit          3D

 47 48  0  0  0  0  0  0  0  0999 V2000
   42.0650   27.8920   57.7620 C   0  0  0  0  0  0  0  0  0  0  0  0
   40.9960   28.1960   58.7370 C   0  0  0  0  0  0  0  0  0  0  0  0
   39.6390   28.8000   58.2750 C   0  0  1  0  0  0  0  0  0  0  0  0
   39.0130   27.9990   57.1660 C   0  0  0  0  0  0  0  0  0  0  0  0
   39.1800   28.9530   56.0440 C   0  0  0  0  0  0  0  0  0  0  0  0
   39.5280   30.2440   55.6030 C   0  0  0  0  0  0  0  0  0  0  0  0
   39.7160   30.7460   54.4030 C   0  0  0  0  0  0  0  0  0  0  0  0
   39.5540   29.9700   53.2830 C   0  0  0  0  0  0  0  0  0  0  0  0
   39.0750   28.6280   53.7690 C   0  0  0  0  0  0  0  0  0  0  0  0
   39.0390   28.1740   54.8940 N   0  0  0  0  0  0  0  0  0  0  0  0
   38.6470   27.8720   52.8700 C   0  0  0  0  0  0  0  0  0  0  0  0
   39.0430   27.8110   51.5090 C   0  0  0  0  0  0  0  0  0  0  0  0
   39.5480   28.7140   50.6980 N   0  0  0  0  0  0  0  0  0  0  0  0
   39.8220   30.0180   50.6810 N   0  0  0  0  0  0  0  0  0  0  0  0
   40.0970   30.6430   49.5880 N   0  0  0  0  0  0  0  0  0  0  0  0
   39.8930   30.6110   52.0450 C   0  0  0  0  0  0  0  0  0  0  0  0
   38.5010   29.1020   59.3680 C   0  0  1  0  0  0  0  0  0  0  0  0
   38.8840   28.7750   60.8710 C   0  0  0  0  0  0  0  0  0  0  0  0
   39.5320   30.0640   61.6320 C   0  0  2  0  0  0  0  0  0  0  0  0
   40.7550   29.4650   62.3530 C   0  0  0  0  0  0  0  0  0  0  0  0
   38.6660   30.5970   62.6460 O   0  0  0  0  0  0  0  0  0  0  0  0
   38.0330   30.5950   59.2020 C   0  0  0  0  0  0  0  0  0  0  0  0
   38.5470   31.4450   58.5350 O   0  0  0  0  0  0  0  0  0  0  0  0
   37.0340   30.8840   59.8290 O   0  0  0  0  0  0  0  0  0  0  0  0
   42.9880   27.6295   58.2998 H   0  0  0  0  0  0  0  0  0  0  0  0
   41.7555   27.0463   57.1304 H   0  0  0  0  0  0  0  0  0  0  0  0
   42.2469   28.7740   57.1304 H   0  0  0  0  0  0  0  0  0  0  0  0
   40.7600   27.2506   59.2474 H   0  0  0  0  0  0  0  0  0  0  0  0
   41.4345   29.0117   59.3306 H   0  0  0  0  0  0  0  0  0  0  0  0
   39.9808   29.7935   57.9493 H   0  0  0  0  0  0  0  0  0  0  0  0
   39.5521   27.0572   56.9864 H   0  0  0  0  0  0  0  0  0  0  0  0
   37.9786   27.6743   57.3519 H   0  0  0  0  0  0  0  0  0  0  0  0
   39.6693   30.9701   56.4171 H   0  0  0  0  0  0  0  0  0  0  0  0
   40.0068   31.8014   54.2952 H   0  0  0  0  0  0  0  0  0  0  0  0
   37.8626   27.1630   53.1732 H   0  0  0  0  0  0  0  0  0  0  0  0
   38.9009   26.8235   51.0458 H   0  0  0  0  0  0  0  0  0  0  0  0
   39.9000   30.0300   48.7840 H   0  0  0  0  0  0  0  0  0  0  0  0
   39.5180   31.4920   49.5220 H   0  0  0  0  0  0  0  0  0  0  0  0
   40.2428   31.6519   52.1105 H   0  0  0  0  0  0  0  0  0  0  0  0
   37.6775   28.4021   59.1631 H   0  0  0  0  0  0  0  0  0  0  0  0
   37.9762   28.4645   61.4091 H   0  0  0  0  0  0  0  0  0  0  0  0
   39.6363   27.9725   60.8625 H   0  0  0  0  0  0  0  0  0  0  0  0
   39.7399   30.8766   60.9203 H   0  0  0  0  0  0  0  0  0  0  0  0
   40.6102   29.5359   63.4411 H   0  0  0  0  0  0  0  0  0  0  0  0
   40.8689   28.4091   62.0663 H   0  0  0  0  0  0  0  0  0  0  0  0
   41.6590   30.0223   62.0663 H   0  0  0  0  0  0  0  0  0  0  0  0
   38.2710   31.4470   62.3290 H   0  0  0  0  0  0  0  0  0  0  0  0
  1  2  1  0
  2  3  1  0
  3  4  1  0
  4  5  1  0
  5  6  1  0
  6  7  2  0
  7  8  1  0
  8  9  1  0
  9 10  1  0
  9 11  2  0
 11 12  1  0
 12 13  2  0
 13 14  1  0
 14 15  1  0
 14 16  1  0
  3 17  1  0
 17 18  1  0
 18 19  1  0
 19 20  1  0
 19 21  1  0
 17 22  1  0
 22 23  2  0
 22 24  1  0
 10  5  2  0
 16  8  2  0
  1 25  1  0
  1 26  1  0
  1 27  1  0
  2 28  1  0
  2 29  1  0
  3 30  1  6
  4 31  1  0
  4 32  1  0
  6 33  1  0
  7 34  1  0
 11 35  1  0
 12 36  1  0
 15 37  1  0
 15 38  1  0
 16 39  1  0
 17 40  1  6
 18 41  1  0
 18 42  1  0
 19 43  1  6
 20 44  1  0
 20 45  1  0
 20 46  1  0
 21 47  1  0
M  CHG  1  24  -1
M  END
>  <docking_score>  (71) 
-8.399

>  <plif_similarity>  (71) 
0.222

$$$$
DiffSBDD_94
     RDKit          3D

 96 99  0  0  0  0  0  0  0  0999 V2000
   36.1790   31.5160   60.4820 C   0  0  0  0  0  0  0  0  0  0  0  0
   37.6610   31.2910   60.0560 C   0  0  1  0  0  0  0  0  0  0  0  0
   38.5530   32.5140   60.5600 C   0  0  0  0  0  0  0  0  0  0  0  0
   37.9210   33.8490   60.8080 N   0  0  0  0  0  0  0  0  0  0  0  0
   37.0580   34.8360   60.2030 C   0  0  0  0  0  0  0  0  0  0  0  0
   36.1950   34.6540   59.2930 O   0  0  0  0  0  0  0  0  0  0  0  0
   37.7840   36.2160   60.1600 C   0  0  2  0  0  0  0  0  0  0  0  0
   39.0080   35.9750   61.1870 C   0  0  0  0  0  0  0  0  0  0  0  0
   38.8560   36.4590   62.6030 C   0  0  0  0  0  0  0  0  0  0  0  0
   37.6960   37.4520   62.8260 C   0  0  0  0  0  0  0  0  0  0  0  0
   37.2440   38.2840   61.5750 C   0  0  1  0  0  0  0  0  0  0  0  0
   38.1880   39.1150   60.8750 O   0  0  0  0  0  0  0  0  0  0  0  0
   36.7610   37.2870   60.4740 C   0  0  0  0  0  0  0  0  0  0  0  0
   38.0210   29.7430   60.3010 C   0  0  0  0  0  0  0  0  0  0  0  0
   37.9320   28.5220   59.3690 C   0  0  0  0  0  0  0  0  0  0  0  0
   39.1980   28.2480   58.4180 C   0  0  0  0  0  0  0  0  0  0  0  0
   38.6120   26.9990   57.8000 C   0  0  0  0  0  0  0  0  0  0  0  0
   38.2630   25.8580   57.5740 C   0  0  0  0  0  0  0  0  0  0  0  0
   39.2120   24.9640   57.1040 C   0  0  0  0  0  0  0  0  0  0  0  0
   39.2430   25.6040   55.9510 C   0  0  0  0  0  0  0  0  0  0  0  0
   39.3780   25.9810   54.9050 C   0  0  0  0  0  0  0  0  0  0  0  0
   39.9520   26.0400   54.2220 C   0  0  0  0  0  0  0  0  0  0  0  0
   40.1320   26.5300   52.9450 C   0  0  0  0  0  0  0  0  0  0  0  0
   39.4630   27.4690   52.8390 C   0  0  1  0  0  0  0  0  0  0  0  0
   38.1460   27.2180   53.1610 C   0  0  0  0  0  0  0  0  0  0  0  0
   39.4720   28.6840   53.0650 C   0  0  2  0  0  0  0  0  0  0  0  0
   39.3430   29.9030   53.1160 C   0  0  1  0  0  0  0  0  0  0  0  0
   39.3780   30.7320   54.4190 C   0  0  0  0  0  0  0  0  0  0  0  0
   38.3410   31.3540   55.3340 C   0  0  0  0  0  0  0  0  0  0  0  0
   39.0390   31.2550   56.6290 C   0  0  0  0  0  0  0  0  0  0  0  0
   38.6160   31.8570   57.8000 C   0  0  0  0  0  0  0  0  0  0  0  0
   37.9130   31.0360   58.5500 C   0  0  0  0  0  0  0  0  0  0  0  0
   39.6470   30.8050   51.9830 C   0  0  0  0  0  0  0  0  0  0  0  0
   39.5210   30.5110   50.7890 C   0  0  0  0  0  0  0  0  0  0  0  0
   40.4770   29.6790   49.7470 C   0  0  0  0  0  0  0  0  0  0  0  0
   39.9760   28.2000   50.4680 C   0  0  0  0  0  0  0  0  0  0  0  0
   39.9790   28.5380   51.7030 C   0  0  2  0  0  0  0  0  0  0  0  0
   36.1106   31.5264   61.5798 H   0  0  0  0  0  0  0  0  0  0  0  0
   35.8250   32.4782   60.0834 H   0  0  0  0  0  0  0  0  0  0  0  0
   35.5553   30.7023   60.0834 H   0  0  0  0  0  0  0  0  0  0  0  0
   39.0155   32.2006   61.5075 H   0  0  0  0  0  0  0  0  0  0  0  0
   39.2236   32.7056   59.7094 H   0  0  0  0  0  0  0  0  0  0  0  0
   38.2020   34.1810   61.7420 H   0  0  0  0  0  0  0  0  0  0  0  0
   38.2036   36.5730   59.2079 H   0  0  0  0  0  0  0  0  0  0  0  0
   39.1877   34.8907   61.2309 H   0  0  0  0  0  0  0  0  0  0  0  0
   39.8288   36.5829   60.7788 H   0  0  0  0  0  0  0  0  0  0  0  0
   38.6861   35.5839   63.2475 H   0  0  0  0  0  0  0  0  0  0  0  0
   39.7807   37.0032   62.8454 H   0  0  0  0  0  0  0  0  0  0  0  0
   36.8265   36.8781   63.1789 H   0  0  0  0  0  0  0  0  0  0  0  0
   38.0759   38.1900   63.5478 H   0  0  0  0  0  0  0  0  0  0  0  0
   36.5111   38.9667   62.0298 H   0  0  0  0  0  0  0  0  0  0  0  0
   37.9850   39.1020   59.9060 H   0  0  0  0  0  0  0  0  0  0  0  0
   35.8382   36.7998   60.8219 H   0  0  0  0  0  0  0  0  0  0  0  0
   36.5958   37.8661   59.5535 H   0  0  0  0  0  0  0  0  0  0  0  0
   39.0779   29.7644   60.6052 H   0  0  0  0  0  0  0  0  0  0  0  0
   37.1459   29.5001   60.9216 H   0  0  0  0  0  0  0  0  0  0  0  0
   37.7888   27.6315   59.9986 H   0  0  0  0  0  0  0  0  0  0  0  0
   37.0980   28.7394   58.6856 H   0  0  0  0  0  0  0  0  0  0  0  0
   39.3699   29.0514   57.6865 H   0  0  0  0  0  0  0  0  0  0  0  0
   40.1902   28.1753   58.8872 H   0  0  0  0  0  0  0  0  0  0  0  0
   37.6001   27.4190   57.7015 H   0  0  0  0  0  0  0  0  0  0  0  0
   39.6451   26.6606   57.6322 H   0  0  0  0  0  0  0  0  0  0  0  0
   37.8643   25.4468   58.5131 H   0  0  0  0  0  0  0  0  0  0  0  0
   37.5436   25.9516   56.7472 H   0  0  0  0  0  0  0  0  0  0  0  0
   40.1631   24.9870   57.6562 H   0  0  0  0  0  0  0  0  0  0  0  0
   39.0207   23.8812   57.1350 H   0  0  0  0  0  0  0  0  0  0  0  0
   38.1485   25.7061   55.9102 H   0  0  0  0  0  0  0  0  0  0  0  0
   40.3346   25.6718   56.0688 H   0  0  0  0  0  0  0  0  0  0  0  0
   38.4401   26.4677   54.5992 H   0  0  0  0  0  0  0  0  0  0  0  0
   40.8752   25.5180   54.5140 H   0  0  0  0  0  0  0  0  0  0  0  0
   41.1871   26.8002   52.7907 H   0  0  0  0  0  0  0  0  0  0  0  0
   39.8609   25.7721   52.1953 H   0  0  0  0  0  0  0  0  0  0  0  0
   38.0337   27.1966   54.2550 H   0  0  0  0  0  0  0  0  0  0  0  0
   37.5087   28.0108   52.7424 H   0  0  0  0  0  0  0  0  0  0  0  0
   37.8450   26.2463   52.7424 H   0  0  0  0  0  0  0  0  0  0  0  0
   39.2379   28.7733   54.1361 H   0  0  0  0  0  0  0  0  0  0  0  0
   38.3478   29.4472   53.0077 H   0  0  0  0  0  0  0  0  0  0  0  0
   39.9424   30.0811   55.1029 H   0  0  0  0  0  0  0  0  0  0  0  0
   39.6325   31.6770   53.9169 H   0  0  0  0  0  0  0  0  0  0  0  0
   38.1334   32.3995   55.0624 H   0  0  0  0  0  0  0  0  0  0  0  0
   37.3530   30.8713   55.3054 H   0  0  0  0  0  0  0  0  0  0  0  0
   39.0925   30.1795   56.8533 H   0  0  0  0  0  0  0  0  0  0  0  0
   39.9435   31.8435   56.4156 H   0  0  0  0  0  0  0  0  0  0  0  0
   39.4980   32.1891   58.3673 H   0  0  0  0  0  0  0  0  0  0  0  0
   37.9722   32.7076   57.5315 H   0  0  0  0  0  0  0  0  0  0  0  0
   36.9199   30.9697   58.0816 H   0  0  0  0  0  0  0  0  0  0  0  0
   38.5609   30.1475   58.5782 H   0  0  0  0  0  0  0  0  0  0  0  0
   39.0131   31.6910   52.1353 H   0  0  0  0  0  0  0  0  0  0  0  0
   40.7431   30.8570   52.0597 H   0  0  0  0  0  0  0  0  0  0  0  0
   38.5698   29.9594   50.7600 H   0  0  0  0  0  0  0  0  0  0  0  0
   39.7547   31.5107   50.3940 H   0  0  0  0  0  0  0  0  0  0  0  0
   40.1881   29.7842   48.6909 H   0  0  0  0  0  0  0  0  0  0  0  0
   41.5464   29.9209   49.6584 H   0  0  0  0  0  0  0  0  0  0  0  0
   38.9729   27.9010   50.1298 H   0  0  0  0  0  0  0  0  0  0  0  0
   40.6061   27.3316   50.2256 H   0  0  0  0  0  0  0  0  0  0  0  0
   40.5674   29.2604   51.1183 H   0  0  0  0  0  0  0  0  0  0  0  0
  2  1  1  6
  2  3  1  0
  3  4  1  0
  4  5  1  0
  5  6  2  0
  5  7  1  0
  7  8  1  0
  8  9  1  0
  9 10  1  0
 10 11  1  0
 11 12  1  0
 11 13  1  0
  2 14  1  0
 14 15  1  0
 15 16  1  0
 16 17  1  0
 17 18  1  0
 18 19  1  0
 19 20  1  0
 20 21  1  0
 21 22  2  0
 22 23  1  0
 23 24  1  0
 24 25  1  6
 24 26  1  0
 26 27  1  0
 27 28  1  0
 28 29  1  0
 29 30  1  0
 30 31  1  0
 31 32  1  0
 27 33  1  0
 33 34  1  0
 34 35  1  0
 35 36  1  0
 36 37  1  0
 32  2  1  0
 13  7  1  0
 37 24  1  0
 37 26  1  0
  1 38  1  0
  1 39  1  0
  1 40  1  0
  3 41  1  0
  3 42  1  0
  4 43  1  0
  7 44  1  6
  8 45  1  0
  8 46  1  0
  9 47  1  0
  9 48  1  0
 10 49  1  0
 10 50  1  0
 11 51  1  1
 12 52  1  0
 13 53  1  0
 13 54  1  0
 14 55  1  0
 14 56  1  0
 15 57  1  0
 15 58  1  0
 16 59  1  0
 16 60  1  0
 17 61  1  0
 17 62  1  0
 18 63  1  0
 18 64  1  0
 19 65  1  0
 19 66  1  0
 20 67  1  0
 20 68  1  0
 21 69  1  0
 22 70  1  0
 23 71  1  0
 23 72  1  0
 25 73  1  0
 25 74  1  0
 25 75  1  0
 26 76  1  1
 27 77  1  6
 28 78  1  0
 28 79  1  0
 29 80  1  0
 29 81  1  0
 30 82  1  0
 30 83  1  0
 31 84  1  0
 31 85  1  0
 32 86  1  0
 32 87  1  0
 33 88  1  0
 33 89  1  0
 34 90  1  0
 34 91  1  0
 35 92  1  0
 35 93  1  0
 36 94  1  0
 36 95  1  0
 37 96  1  1
M  END
>  <docking_score>  (72) 
-14.383

>  <plif_similarity>  (72) 
0.333

$$$$
DiffSBDD_95
     RDKit          3D

 57 59  0  0  0  0  0  0  0  0999 V2000
   40.5780   27.7600   56.9850 C   0  0  0  0  0  0  0  0  0  0  0  0
   39.9520   28.4440   57.7770 C   0  0  0  0  0  0  0  0  0  0  0  0
   40.6310   28.5820   59.1180 C   0  0  0  0  0  0  0  0  0  0  0  0
   38.4020   28.5990   57.5470 C   0  0  0  0  0  0  0  0  0  0  0  0
   38.0810   30.0540   57.9230 C   0  0  0  0  0  0  0  0  0  0  0  0
   38.6620   31.0720   56.9630 C   0  0  1  0  0  0  0  0  0  0  0  0
   38.4810   30.7490   55.4220 C   0  0  1  0  0  0  0  0  0  0  0  0
   39.8860   30.8180   54.7180 C   0  0  0  0  0  0  0  0  0  0  0  0
   38.7610   30.1980   53.9890 C   0  0  2  0  0  0  0  0  0  0  0  0
   39.3050   29.6770   52.7120 C   0  0  0  0  0  0  0  0  0  0  0  0
   38.9840   28.3780   52.3320 C   0  0  0  0  0  0  0  0  0  0  0  0
   39.4100   27.9260   51.0370 C   0  0  0  0  0  0  0  0  0  0  0  0
   40.1390   28.7670   50.2220 C   0  0  0  0  0  0  0  0  0  0  0  0
   40.5020   30.0690   50.6310 C   0  0  0  0  0  0  0  0  0  0  0  0
   40.0920   30.5000   51.8770 C   0  0  0  0  0  0  0  0  0  0  0  0
   38.6860   32.5920   57.2680 C   0  0  1  0  0  0  0  0  0  0  0  0
   37.9030   33.3820   56.3030 O   0  0  0  0  0  0  0  0  0  0  0  0
   38.3960   32.8920   58.7090 C   0  0  0  0  0  0  0  0  0  0  0  0
   37.5150   34.1260   59.0220 C   0  0  0  0  0  0  0  0  0  0  0  0
   37.1800   35.1990   60.3860 P   0  0  1  0  0  5  0  0  0  0  0  0
   36.7250   36.6620   60.0150 O   0  0  0  0  0  0  0  0  0  0  0  0
   36.2320   34.6650   61.4670 O   0  0  0  0  0  0  0  0  0  0  0  0
   38.9530   35.3640   61.0110 C   0  0  2  0  0  0  0  0  0  0  0  0
   38.9470   34.1480   61.7070 O   0  0  0  0  0  0  0  0  0  0  0  0
   39.1100   36.7000   61.6380 C   0  0  0  0  0  0  0  0  0  0  0  0
   40.5550   36.8850   62.1870 C   0  0  0  0  0  0  0  0  0  0  0  0
   39.3030   37.0730   63.0420 C   0  0  0  0  0  0  0  0  0  0  0  0
   40.1816   27.5880   55.9734 H   0  0  0  0  0  0  0  0  0  0  0  0
   41.5391   27.3150   57.2821 H   0  0  0  0  0  0  0  0  0  0  0  0
   39.8930   28.4320   59.9198 H   0  0  0  0  0  0  0  0  0  0  0  0
   41.4263   27.8271   59.2057 H   0  0  0  0  0  0  0  0  0  0  0  0
   41.0685   29.5874   59.2057 H   0  0  0  0  0  0  0  0  0  0  0  0
   38.1475   28.4078   56.4941 H   0  0  0  0  0  0  0  0  0  0  0  0
   37.8239   27.8823   58.1488 H   0  0  0  0  0  0  0  0  0  0  0  0
   36.9879   30.1758   57.9390 H   0  0  0  0  0  0  0  0  0  0  0  0
   38.5378   30.2409   58.9060 H   0  0  0  0  0  0  0  0  0  0  0  0
   39.6951   30.8479   57.2672 H   0  0  0  0  0  0  0  0  0  0  0  0
   37.4406   30.8414   55.7669 H   0  0  0  0  0  0  0  0  0  0  0  0
   40.2831   31.7885   54.3858 H   0  0  0  0  0  0  0  0  0  0  0  0
   40.8999   30.4899   54.9907 H   0  0  0  0  0  0  0  0  0  0  0  0
   38.9774   29.2348   54.4742 H   0  0  0  0  0  0  0  0  0  0  0  0
   38.4196   27.7154   53.0046 H   0  0  0  0  0  0  0  0  0  0  0  0
   39.1556   26.9117   50.6959 H   0  0  0  0  0  0  0  0  0  0  0  0
   40.4459   28.4138   49.2265 H   0  0  0  0  0  0  0  0  0  0  0  0
   41.0955   30.7223   49.9745 H   0  0  0  0  0  0  0  0  0  0  0  0
   40.3835   31.5019   52.2252 H   0  0  0  0  0  0  0  0  0  0  0  0
   39.7208   32.9328   57.1164 H   0  0  0  0  0  0  0  0  0  0  0  0
   38.2330   34.3160   56.2960 H   0  0  0  0  0  0  0  0  0  0  0  0
   38.7950   32.2579   59.5144 H   0  0  0  0  0  0  0  0  0  0  0  0
   36.9272   34.4202   58.1400 H   0  0  0  0  0  0  0  0  0  0  0  0
   39.8521   35.4232   60.3801 H   0  0  0  0  0  0  0  0  0  0  0  0
   39.8410   33.7270   61.6440 H   0  0  0  0  0  0  0  0  0  0  0  0
   38.3635   37.1122   60.9431 H   0  0  0  0  0  0  0  0  0  0  0  0
   41.2105   36.0149   62.3396 H   0  0  0  0  0  0  0  0  0  0  0  0
   41.4366   37.4872   61.9223 H   0  0  0  0  0  0  0  0  0  0  0  0
   39.0722   36.3448   63.8335 H   0  0  0  0  0  0  0  0  0  0  0  0
   38.9261   37.8927   63.6714 H   0  0  0  0  0  0  0  0  0  0  0  0
  1  2  2  0
  2  3  1  0
  2  4  1  0
  4  5  1  0
  5  6  1  0
  6  7  1  0
  7  8  1  0
  8  9  1  0
  9 10  1  0
 10 11  2  0
 11 12  1  0
 12 13  2  0
 13 14  1  0
 14 15  2  0
  6 16  1  0
 16 17  1  0
 16 18  1  0
 18 19  2  3
 19 20  1  0
 20 21  2  0
 20 22  1  1
 20 23  1  0
 23 24  1  0
 23 25  1  0
 25 26  1  0
 26 27  1  0
  9  7  1  0
 15 10  1  0
 27 25  1  0
  1 28  1  0
  1 29  1  0
  3 30  1  0
  3 31  1  0
  3 32  1  0
  4 33  1  0
  4 34  1  0
  5 35  1  0
  5 36  1  0
  6 37  1  1
  7 38  1  6
  8 39  1  0
  8 40  1  0
  9 41  1  6
 11 42  1  0
 12 43  1  0
 13 44  1  0
 14 45  1  0
 15 46  1  0
 16 47  1  6
 17 48  1  0
 18 49  1  0
 19 50  1  0
 23 51  1  6
 24 52  1  0
 25 53  1  0
 26 54  1  0
 26 55  1  0
 27 56  1  0
 27 57  1  0
M  CHG  1  22  -1
M  END
>  <docking_score>  (73) 
-9.321

>  <plif_similarity>  (73) 
0.444

$$$$
DiffSBDD_96
     RDKit          3D

 66 69  0  0  0  0  0  0  0  0999 V2000
   40.4850   36.4930   62.4640 C   0  0  0  0  0  0  0  0  0  0  0  0
   39.6240   37.7080   62.0670 C   0  0  0  0  0  0  0  0  0  0  0  0
   38.4080   36.8480   62.2750 O   0  0  0  0  0  0  0  0  0  0  0  0
   37.8120   36.1190   61.1870 C   0  0  2  0  0  0  0  0  0  0  0  0
   37.0790   37.1310   60.6200 C   0  0  0  0  0  0  0  0  0  0  0  0
   36.3910   38.0160   61.1860 O   0  0  0  0  0  0  0  0  0  0  0  0
   37.1380   36.9450   59.2730 O   0  0  0  0  0  0  0  0  0  0  0  0
   37.2790   34.8300   60.7550 C   0  0  2  0  0  0  0  0  0  0  0  0
   36.3130   34.2670   61.4980 C   0  0  0  0  0  0  0  0  0  0  0  0
   36.7030   32.7760   61.2540 C   0  0  1  0  0  0  0  0  0  0  0  0
   37.4420   32.6850   59.9060 C   0  0  1  0  0  0  0  0  0  0  0  0
   37.6110   33.5300   58.6660 C   0  0  0  0  0  0  0  0  0  0  0  0
   38.6760   33.1500   57.6630 C   0  0  0  0  0  0  0  0  0  0  0  0
   37.9720   32.6480   56.4250 N   0  0  0  0  0  0  0  0  0  0  0  0
   39.0710   32.0550   55.6420 C   0  0  0  0  0  0  0  0  0  0  0  0
   38.3760   31.3810   54.5270 C   0  0  0  0  0  0  0  0  0  0  0  0
   37.3090   30.4890   55.1590 C   0  0  0  0  0  0  0  0  0  0  0  0
   37.9250   29.1890   55.6010 N   0  0  0  0  0  0  0  0  0  0  0  0
   38.1820   28.9530   56.9340 C   0  0  0  0  0  0  0  0  0  0  0  0
   37.5980   29.5130   58.1450 C   0  0  0  0  0  0  0  0  0  0  0  0
   38.1450   29.1740   59.4280 C   0  0  0  0  0  0  0  0  0  0  0  0
   39.1570   28.2390   59.4770 C   0  0  0  0  0  0  0  0  0  0  0  0
   39.7120   27.9290   60.5570 F   0  0  0  0  0  0  0  0  0  0  0  0
   39.6280   27.5520   58.3380 C   0  0  0  0  0  0  0  0  0  0  0  0
   39.1930   27.9040   57.0610 C   0  0  0  0  0  0  0  0  0  0  0  0
   39.5270   27.2620   55.5320 S   0  0  0  0  0  0  0  0  0  0  0  0
   38.4570   28.2930   54.6790 C   0  0  2  0  0  0  0  0  0  0  0  0
   38.1020   28.2020   53.3290 C   0  0  0  0  0  0  0  0  0  0  0  0
   36.8730   28.0090   52.9150 N   0  0  0  0  0  0  0  0  0  0  0  0
   39.1720   28.3110   52.3400 C   0  0  0  0  0  0  0  0  0  0  0  0
   39.4600   27.3050   51.4650 O   0  0  0  0  0  0  0  0  0  0  0  0
   39.5810   29.4670   51.7610 O   0  0  0  0  0  0  0  0  0  0  0  0
   38.2600   32.8770   61.0310 C   0  0  2  0  0  0  0  0  0  0  0  0
   39.0720   32.0390   61.7890 C   0  0  0  0  0  0  0  0  0  0  0  0
   38.4280   31.0260   62.5060 F   0  0  0  0  0  0  0  0  0  0  0  0
   40.0580   31.5340   60.9970 F   0  0  0  0  0  0  0  0  0  0  0  0
   39.7140   32.8320   62.7930 F   0  0  0  0  0  0  0  0  0  0  0  0
   38.6680   34.2320   61.0320 O   0  0  0  0  0  0  0  0  0  0  0  0
   40.5354   36.4219   63.5605 H   0  0  0  0  0  0  0  0  0  0  0  0
   40.0343   35.5756   62.0574 H   0  0  0  0  0  0  0  0  0  0  0  0
   41.4999   36.6142   62.0574 H   0  0  0  0  0  0  0  0  0  0  0  0
   39.6999   38.5651   62.7522 H   0  0  0  0  0  0  0  0  0  0  0  0
   39.7917   38.2466   61.1226 H   0  0  0  0  0  0  0  0  0  0  0  0
   38.6914   35.4637   61.1016 H   0  0  0  0  0  0  0  0  0  0  0  0
   36.7625   34.7600   59.7863 H   0  0  0  0  0  0  0  0  0  0  0  0
   36.3838   34.5492   62.5588 H   0  0  0  0  0  0  0  0  0  0  0  0
   35.2799   34.5464   61.2437 H   0  0  0  0  0  0  0  0  0  0  0  0
   35.9478   32.1803   61.7876 H   0  0  0  0  0  0  0  0  0  0  0  0
   37.2387   31.9694   59.0957 H   0  0  0  0  0  0  0  0  0  0  0  0
   36.6481   33.5192   58.1342 H   0  0  0  0  0  0  0  0  0  0  0  0
   37.9463   34.5037   59.0525 H   0  0  0  0  0  0  0  0  0  0  0  0
   39.2904   34.0284   57.4160 H   0  0  0  0  0  0  0  0  0  0  0  0
   39.3381   32.3741   58.0748 H   0  0  0  0  0  0  0  0  0  0  0  0
   37.5280   33.4230   55.9120 H   0  0  0  0  0  0  0  0  0  0  0  0
   37.2130   31.9840   56.6290 H   0  0  0  0  0  0  0  0  0  0  0  0
   39.7516   32.8338   55.2676 H   0  0  0  0  0  0  0  0  0  0  0  0
   39.6968   31.3701   56.2330 H   0  0  0  0  0  0  0  0  0  0  0  0
   37.9071   32.1248   53.8660 H   0  0  0  0  0  0  0  0  0  0  0  0
   39.0777   30.7924   53.9178 H   0  0  0  0  0  0  0  0  0  0  0  0
   36.8742   31.0014   56.0299 H   0  0  0  0  0  0  0  0  0  0  0  0
   36.5226   30.2838   54.4177 H   0  0  0  0  0  0  0  0  0  0  0  0
   36.7381   30.1955   58.0764 H   0  0  0  0  0  0  0  0  0  0  0  0
   37.7673   29.6470   60.3465 H   0  0  0  0  0  0  0  0  0  0  0  0
   40.3472   26.7286   58.4591 H   0  0  0  0  0  0  0  0  0  0  0  0
   37.6141   27.6381   54.9448 H   0  0  0  0  0  0  0  0  0  0  0  0
   36.6730   27.9510   51.9060 H   0  0  0  0  0  0  0  0  0  0  0  0
  1  2  1  0
  2  3  1  0
  3  4  1  0
  4  5  1  0
  5  6  2  0
  5  7  1  0
  4  8  1  0
  8  9  1  0
  9 10  1  0
 10 11  1  0
 11 12  1  0
 12 13  1  0
 13 14  1  0
 14 15  1  0
 15 16  1  0
 16 17  1  0
 17 18  1  0
 18 19  1  0
 19 20  1  0
 20 21  2  0
 21 22  1  0
 22 23  1  0
 22 24  2  0
 24 25  1  0
 25 26  1  0
 26 27  1  0
 27 28  1  0
 28 29  2  3
 28 30  1  0
 30 31  2  0
 30 32  1  0
 11 33  1  0
 33 34  1  1
 34 35  1  0
 34 36  1  0
 34 37  1  0
 33 38  1  0
 38  8  1  0
 33 10  1  0
 27 18  1  0
 25 19  2  0
  1 39  1  0
  1 40  1  0
  1 41  1  0
  2 42  1  0
  2 43  1  0
  4 44  1  6
  8 45  1  6
  9 46  1  0
  9 47  1  0
 10 48  1  1
 11 49  1  6
 12 50  1  0
 12 51  1  0
 13 52  1  0
 13 53  1  0
 14 54  1  0
 14 55  1  0
 15 56  1  0
 15 57  1  0
 16 58  1  0
 16 59  1  0
 17 60  1  0
 17 61  1  0
 20 62  1  0
 21 63  1  0
 24 64  1  0
 27 65  1  6
 29 66  1  0
M  CHG  3   7  -1  14   1  32  -1
M  END
>  <docking_score>  (74) 
-9.483

>  <plif_similarity>  (74) 
0.444

$$$$
DiffSBDD_97
     RDKit          3D

 54 56  0  0  0  0  0  0  0  0999 V2000
   40.7700   35.0600   61.0360 C   0  0  0  0  0  0  0  0  0  0  0  0
   39.5360   34.1640   61.0200 C   0  0  0  0  0  0  0  0  0  0  0  0
   38.5230   34.7390   60.4080 C   0  0  2  0  0  0  0  0  0  0  0  0
   37.6650   35.8060   61.2230 C   0  0  0  0  0  0  0  0  0  0  0  0
   37.2840   36.6490   60.8470 N   0  0  0  0  0  0  0  0  0  0  0  0
   36.7230   37.3940   62.1020 C   0  0  0  0  0  0  0  0  0  0  0  0
   37.6940   33.6040   59.6590 C   0  0  0  0  0  0  0  0  0  0  0  0
   37.5570   33.7050   58.1720 N   0  0  0  0  0  0  0  0  0  0  0  0
   38.3130   32.8460   57.7230 C   0  0  0  0  0  0  0  0  0  0  0  0
   38.4940   31.3210   57.9790 C   0  0  0  0  0  0  0  0  0  0  0  0
   38.4290   30.5710   56.6030 C   0  0  2  0  0  0  0  0  0  0  0  0
   38.7780   31.5690   55.3740 S   0  0  0  0  0  0  0  0  0  0  0  0
   38.9190   30.0120   54.2530 C   0  0  0  0  0  0  0  0  0  0  0  0
   39.1510   29.6750   52.9070 C   0  0  0  0  0  0  0  0  0  0  0  0
   40.1160   30.5110   52.1200 C   0  0  0  0  0  0  0  0  0  0  0  0
   39.9370   30.0610   50.5980 C   0  0  0  0  0  0  0  0  0  0  0  0
   40.1460   28.6230   50.4460 C   0  0  0  0  0  0  0  0  0  0  0  0
   39.0000   27.8450   51.2420 C   0  0  0  0  0  0  0  0  0  0  0  0
   38.7420   28.3880   52.6450 C   0  0  0  0  0  0  0  0  0  0  0  0
   38.0050   27.9500   53.8760 C   0  0  0  0  0  0  0  0  0  0  0  0
   38.2950   28.9950   54.8790 C   0  0  2  0  0  0  0  0  0  0  0  0
   38.1820   29.1110   56.3270 S   0  0  0  0  0  0  0  0  0  0  0  0
   41.0579   35.2690   62.0769 H   0  0  0  0  0  0  0  0  0  0  0  0
   41.5988   34.5519   60.5213 H   0  0  0  0  0  0  0  0  0  0  0  0
   40.5434   36.0054   60.5213 H   0  0  0  0  0  0  0  0  0  0  0  0
   39.7825   33.2277   60.4980 H   0  0  0  0  0  0  0  0  0  0  0  0
   39.2408   33.9697   62.0617 H   0  0  0  0  0  0  0  0  0  0  0  0
   38.9441   35.4381   59.6705 H   0  0  0  0  0  0  0  0  0  0  0  0
   36.8036   35.2473   61.6179 H   0  0  0  0  0  0  0  0  0  0  0  0
   38.4433   36.2204   61.8807 H   0  0  0  0  0  0  0  0  0  0  0  0
   38.0140   37.2080   60.3830 H   0  0  0  0  0  0  0  0  0  0  0  0
   36.5650   36.4770   60.1300 H   0  0  0  0  0  0  0  0  0  0  0  0
   37.0922   36.9037   63.0149 H   0  0  0  0  0  0  0  0  0  0  0  0
   37.0585   38.4415   62.0870 H   0  0  0  0  0  0  0  0  0  0  0  0
   35.6236   37.3609   62.0870 H   0  0  0  0  0  0  0  0  0  0  0  0
   38.1815   32.6427   59.8789 H   0  0  0  0  0  0  0  0  0  0  0  0
   36.6678   33.7143   60.0395 H   0  0  0  0  0  0  0  0  0  0  0  0
   37.8380   34.6410   57.8460 H   0  0  0  0  0  0  0  0  0  0  0  0
   36.5840   33.5640   57.8640 H   0  0  0  0  0  0  0  0  0  0  0  0
   38.1280   32.8950   56.6398 H   0  0  0  0  0  0  0  0  0  0  0  0
   39.1851   33.1548   58.3180 H   0  0  0  0  0  0  0  0  0  0  0  0
   39.4688   31.1383   58.4549 H   0  0  0  0  0  0  0  0  0  0  0  0
   37.6983   30.9548   58.6444 H   0  0  0  0  0  0  0  0  0  0  0  0
   39.4939   30.3111   56.6944 H   0  0  0  0  0  0  0  0  0  0  0  0
   39.8798   31.5792   52.2343 H   0  0  0  0  0  0  0  0  0  0  0  0
   41.1507   30.3702   52.4658 H   0  0  0  0  0  0  0  0  0  0  0  0
   38.9189   30.3130   50.2663 H   0  0  0  0  0  0  0  0  0  0  0  0
   40.6845   30.5889   49.9876 H   0  0  0  0  0  0  0  0  0  0  0  0
   40.1024   28.3544   49.3802 H   0  0  0  0  0  0  0  0  0  0  0  0
   41.1318   28.3458   50.8476 H   0  0  0  0  0  0  0  0  0  0  0  0
   38.0664   27.9192   50.6651 H   0  0  0  0  0  0  0  0  0  0  0  0
   39.3428   26.8065   51.3602 H   0  0  0  0  0  0  0  0  0  0  0  0
   37.3857   27.0499   54.0035 H   0  0  0  0  0  0  0  0  0  0  0  0
   39.3174   28.6047   54.9901 H   0  0  0  0  0  0  0  0  0  0  0  0
  1  2  1  0
  2  3  1  0
  3  4  1  0
  4  5  1  0
  5  6  1  0
  3  7  1  0
  7  8  1  0
  8  9  1  0
  9 10  1  0
 10 11  1  0
 11 12  1  0
 12 13  1  0
 13 14  2  0
 14 15  1  0
 15 16  1  0
 16 17  1  0
 17 18  1  0
 18 19  1  0
 19 20  2  0
 20 21  1  0
 21 22  1  0
 22 11  1  0
 21 13  1  0
 19 14  1  0
  1 23  1  0
  1 24  1  0
  1 25  1  0
  2 26  1  0
  2 27  1  0
  3 28  1  6
  4 29  1  0
  4 30  1  0
  5 31  1  0
  5 32  1  0
  6 33  1  0
  6 34  1  0
  6 35  1  0
  7 36  1  0
  7 37  1  0
  8 38  1  0
  8 39  1  0
  9 40  1  0
  9 41  1  0
 10 42  1  0
 10 43  1  0
 11 44  1  6
 15 45  1  0
 15 46  1  0
 16 47  1  0
 16 48  1  0
 17 49  1  0
 17 50  1  0
 18 51  1  0
 18 52  1  0
 20 53  1  0
 21 54  1  6
M  CHG  2   5   1   8   1
M  END
>  <docking_score>  (75) 
-8.083

>  <plif_similarity>  (75) 
0.444

$$$$
DiffSBDD_9
     RDKit          3D

 66 67  0  0  0  0  0  0  0  0999 V2000
   40.1110   25.9200   54.7230 C   0  0  0  0  0  0  0  0  0  0  0  0
   40.1830   26.8050   55.7660 O   0  0  0  0  0  0  0  0  0  0  0  0
   39.0750   27.6830   55.6670 C   0  0  2  0  0  0  0  0  0  0  0  0
   39.5030   28.5890   54.6060 C   0  0  0  0  0  0  0  0  0  0  0  0
   38.5770   29.3260   53.6660 C   0  0  1  0  0  0  0  0  0  0  0  0
   38.8310   28.8330   52.3490 C   0  0  1  0  0  0  0  0  0  0  0  0
   39.8020   29.1810   51.4130 C   0  0  0  0  0  0  0  0  0  0  0  0
   37.9320   27.8370   51.9980 O   0  0  0  0  0  0  0  0  0  0  0  0
   37.7110   30.0520   54.4130 C   0  0  0  0  0  0  0  0  0  0  0  0
   37.3670   29.8860   55.6800 C   0  0  0  0  0  0  0  0  0  0  0  0
   37.8130   29.5630   57.0310 C   0  0  0  0  0  0  0  0  0  0  0  0
   37.3740   29.9910   58.2470 C   0  0  0  0  0  0  0  0  0  0  0  0
   36.6080   29.4450   58.9380 O   0  0  0  0  0  0  0  0  0  0  0  0
   38.3100   31.1440   58.6040 C   0  0  0  0  0  0  0  0  0  0  0  0
   37.5570   32.3020   58.9330 N   0  0  0  0  0  0  0  0  0  0  0  0
   37.1140   32.5920   60.2280 C   0  0  2  0  0  0  0  0  0  0  0  0
   38.0630   31.9960   61.2850 C   0  0  0  0  0  0  0  0  0  0  0  0
   35.8500   32.5680   60.6410 C   0  0  0  0  0  0  0  0  0  0  0  0
   36.3740   33.9780   60.2390 C   0  0  2  0  0  0  0  0  0  0  0  0
   35.7320   34.2890   58.9500 O   0  0  0  0  0  0  0  0  0  0  0  0
   37.5430   35.1150   60.2660 C   0  0  0  0  0  0  0  0  0  0  0  0
   36.9600   36.4560   59.6630 C   0  0  0  0  0  0  0  0  0  0  0  0
   37.5570   37.6080   60.3890 O   0  0  0  0  0  0  0  0  0  0  0  0
   36.9810   37.9760   61.5590 C   0  0  0  0  0  0  0  0  0  0  0  0
   36.0250   38.7450   61.7610 O   0  0  0  0  0  0  0  0  0  0  0  0
   38.8210   28.4130   56.9750 C   0  0  0  0  0  0  0  0  0  0  0  0
   39.3520   27.8130   58.2110 C   0  0  0  0  0  0  0  0  0  0  0  0
   39.0310   26.3390   58.5380 C   0  0  0  0  0  0  0  0  0  0  0  0
   40.6760   28.1940   58.8380 C   0  0  0  0  0  0  0  0  0  0  0  0
   40.0277   24.8960   55.1161 H   0  0  0  0  0  0  0  0  0  0  0  0
   39.2286   26.1495   54.1077 H   0  0  0  0  0  0  0  0  0  0  0  0
   41.0189   26.0038   54.1077 H   0  0  0  0  0  0  0  0  0  0  0  0
   38.1219   27.1773   55.4531 H   0  0  0  0  0  0  0  0  0  0  0  0
   40.0925   29.3701   55.1083 H   0  0  0  0  0  0  0  0  0  0  0  0
   39.9623   27.8728   53.9088 H   0  0  0  0  0  0  0  0  0  0  0  0
   38.1787   30.1078   53.0026 H   0  0  0  0  0  0  0  0  0  0  0  0
   38.1567   29.5962   51.9333 H   0  0  0  0  0  0  0  0  0  0  0  0
   40.7137   29.5077   51.9346 H   0  0  0  0  0  0  0  0  0  0  0  0
   40.0326   28.3096   50.7826 H   0  0  0  0  0  0  0  0  0  0  0  0
   39.4266   30.0005   50.7826 H   0  0  0  0  0  0  0  0  0  0  0  0
   38.2610   26.9640   52.3290 H   0  0  0  0  0  0  0  0  0  0  0  0
   38.1034   31.0786   54.3676 H   0  0  0  0  0  0  0  0  0  0  0  0
   36.7753   29.7063   53.9494 H   0  0  0  0  0  0  0  0  0  0  0  0
   36.8981   30.8625   55.8712 H   0  0  0  0  0  0  0  0  0  0  0  0
   37.1792   28.8193   55.4881 H   0  0  0  0  0  0  0  0  0  0  0  0
   38.9292   30.8559   59.4663 H   0  0  0  0  0  0  0  0  0  0  0  0
   38.9519   31.3667   57.7389 H   0  0  0  0  0  0  0  0  0  0  0  0
   36.7110   32.2640   58.3470 H   0  0  0  0  0  0  0  0  0  0  0  0
   37.6863   32.2326   62.2910 H   0  0  0  0  0  0  0  0  0  0  0  0
   38.1125   30.9043   61.1594 H   0  0  0  0  0  0  0  0  0  0  0  0
   39.0679   32.4255   61.1594 H   0  0  0  0  0  0  0  0  0  0  0  0
   35.0912   32.0803   60.0114 H   0  0  0  0  0  0  0  0  0  0  0  0
   35.3721   32.1836   61.5542 H   0  0  0  0  0  0  0  0  0  0  0  0
   34.8720   33.8020   58.8840 H   0  0  0  0  0  0  0  0  0  0  0  0
   37.8690   35.2862   61.3025 H   0  0  0  0  0  0  0  0  0  0  0  0
   38.4054   34.7802   59.6708 H   0  0  0  0  0  0  0  0  0  0  0  0
   37.2129   36.5214   58.5945 H   0  0  0  0  0  0  0  0  0  0  0  0
   35.8658   36.4709   59.7745 H   0  0  0  0  0  0  0  0  0  0  0  0
   37.4236   37.5294   62.4616 H   0  0  0  0  0  0  0  0  0  0  0  0
   38.6445   28.4966   58.7032 H   0  0  0  0  0  0  0  0  0  0  0  0
   39.0015   26.2035   59.6292 H   0  0  0  0  0  0  0  0  0  0  0  0
   38.0538   26.0726   58.1089 H   0  0  0  0  0  0  0  0  0  0  0  0
   39.8089   25.6904   58.1089 H   0  0  0  0  0  0  0  0  0  0  0  0
   40.5839   28.1675   59.9338 H   0  0  0  0  0  0  0  0  0  0  0  0
   41.4515   27.4826   58.5179 H   0  0  0  0  0  0  0  0  0  0  0  0
   40.9548   29.2088   58.5179 H   0  0  0  0  0  0  0  0  0  0  0  0
  1  2  1  0
  2  3  1  0
  3  4  1  0
  4  5  1  0
  5  6  1  0
  6  7  1  0
  6  8  1  0
  5  9  1  0
  9 10  1  0
 10 11  1  0
 11 12  1  0
 12 13  2  0
 12 14  1  0
 14 15  1  0
 16 15  1  6
 16 17  1  0
 16 18  1  0
 18 19  1  0
 19 20  1  1
 19 21  1  0
 21 22  1  0
 22 23  1  0
 23 24  1  0
 24 25  2  0
 11 26  2  0
 26 27  1  0
 27 28  1  0
 27 29  1  0
 26  3  1  0
 19 16  1  0
  1 30  1  0
  1 31  1  0
  1 32  1  0
  3 33  1  6
  4 34  1  0
  4 35  1  0
  5 36  1  6
  6 37  1  6
  7 38  1  0
  7 39  1  0
  7 40  1  0
  8 41  1  0
  9 42  1  0
  9 43  1  0
 10 44  1  0
 10 45  1  0
 14 46  1  0
 14 47  1  0
 15 48  1  0
 17 49  1  0
 17 50  1  0
 17 51  1  0
 18 52  1  0
 18 53  1  0
 20 54  1  0
 21 55  1  0
 21 56  1  0
 22 57  1  0
 22 58  1  0
 24 59  1  0
 27 60  1  0
 28 61  1  0
 28 62  1  0
 28 63  1  0
 29 64  1  0
 29 65  1  0
 29 66  1  0
M  END
>  <docking_score>  (76) 
-8.419

>  <plif_similarity>  (76) 
0.222

$$$$
