DiffSBDD_0_num_sample_100
     RDKit          3D

104109  0  0  0  0  0  0  0  0999 V2000
    5.3150   -5.7780  -20.6970 C   0  0  0  0  0  0  0  0  0  0  0  0
    5.7400   -4.8890  -21.3380 C   0  0  2  0  0  0  0  0  0  0  0  0
    7.0430   -4.9820  -21.8520 N   0  0  0  0  0  0  0  0  0  0  0  0
    8.3420   -4.3340  -21.4420 C   0  0  0  0  0  0  0  0  0  0  0  0
    7.8910   -3.7100  -20.2450 C   0  0  0  0  0  0  0  0  0  0  0  0
    6.6330   -3.0970  -20.2640 C   0  0  2  0  0  0  0  0  0  0  0  0
    6.8440   -1.8430  -19.7700 C   0  0  0  0  0  0  0  0  0  0  0  0
    6.0490   -0.9870  -18.9380 C   0  0  0  0  0  0  0  0  0  0  0  0
    4.4980   -1.2600  -18.6530 C   0  0  0  0  0  0  0  0  0  0  0  0
    4.1870   -2.6990  -18.3100 C   0  0  0  0  0  0  0  0  0  0  0  0
    4.5330   -4.2660  -17.8490 C   0  0  0  0  0  0  0  0  0  0  0  0
    5.5550   -4.9550  -18.8420 C   0  0  0  0  0  0  0  0  0  0  0  0
    5.5250   -3.8200  -20.0910 C   0  0  2  0  0  0  0  0  0  0  0  0
    6.6070    0.2570  -18.5640 C   0  0  1  0  0  0  0  0  0  0  0  0
    6.6030    1.2180  -17.4840 C   0  0  2  0  0  0  0  0  0  0  0  0
    6.1140    0.8580  -16.2040 O   0  0  0  0  0  0  0  0  0  0  0  0
    6.4850    1.0830  -14.9110 C   0  0  2  0  0  0  0  0  0  0  0  0
    6.7130   -0.1440  -14.3230 O   0  0  0  0  0  0  0  0  0  0  0  0
    6.5630   -0.6410  -15.0140 O   0  0  0  0  0  0  0  0  0  0  0  0
    5.3140    1.4300  -13.8820 C   0  0  0  0  0  0  0  0  0  0  0  0
    6.2890    2.3840  -13.2350 C   0  0  1  0  0  0  0  0  0  0  0  0
    6.9840    3.4060  -12.2760 N   0  0  0  0  0  0  0  0  0  0  0  0
    5.8390    4.2630  -11.9750 S   0  0  0  0  0  0  0  0  0  0  0  0
    5.6130    4.7720  -10.7080 O   0  0  0  0  0  0  0  0  0  0  0  0
    4.8460    4.6900  -12.8100 O   0  0  0  0  0  0  0  0  0  0  0  0
    7.1840    2.2530  -14.4440 C   0  0  2  0  0  0  0  0  0  0  0  0
    8.1120    3.5490  -14.7040 C   0  0  2  0  0  0  0  0  0  0  0  0
    8.6550    4.9870  -14.4140 C   0  0  0  0  0  0  0  0  0  0  0  0
    8.4010    5.9420  -13.7380 C   0  0  0  0  0  0  0  0  0  0  0  0
    8.4850    6.7270  -12.4470 C   0  0  0  0  0  0  0  0  0  0  0  0
    9.6660    6.3130  -11.5990 C   0  0  0  0  0  0  0  0  0  0  0  0
   10.6880    7.3110  -11.0370 C   0  0  0  0  0  0  0  0  0  0  0  0
   10.0050    8.2210  -10.0430 C   0  0  0  0  0  0  0  0  0  0  0  0
    9.9030    7.6300   -8.7490 N   0  0  0  0  0  0  0  0  0  0  0  0
   11.0540    7.1880   -8.0170 C   0  0  2  0  0  0  0  0  0  0  0  0
   10.8910    6.2840   -6.9160 C   0  0  0  0  0  0  0  0  0  0  0  0
   11.9370    8.3320   -7.5730 C   0  0  0  0  0  0  0  0  0  0  0  0
   12.7900    8.6340   -8.3300 O   0  0  0  0  0  0  0  0  0  0  0  0
   11.6380    8.8550   -6.2380 O   0  0  0  0  0  0  0  0  0  0  0  0
    8.3580    3.4950  -16.1750 C   0  0  0  0  0  0  0  0  0  0  0  0
    6.8730    3.4040  -16.7930 C   0  0  0  0  0  0  0  0  0  0  0  0
    6.6620    2.4500  -17.7180 C   0  0  1  0  0  0  0  0  0  0  0  0
    6.2810    2.8710  -19.2430 C   0  0  2  0  0  0  0  0  0  0  0  0
    5.9120    4.4050  -19.1660 O   0  0  0  0  0  0  0  0  0  0  0  0
    6.1300    1.8910  -20.1430 C   0  0  0  0  0  0  0  0  0  0  0  0
    7.3690    0.7930  -19.6270 C   0  0  2  0  0  0  0  0  0  0  0  0
    8.2530   -0.7490  -20.0940 S   0  0  0  0  0  0  0  0  0  0  0  0
    5.4264   -5.5451  -19.6277 H   0  0  0  0  0  0  0  0  0  0  0  0
    4.2502   -5.9230  -20.9317 H   0  0  0  0  0  0  0  0  0  0  0  0
    5.8708   -6.6978  -20.9317 H   0  0  0  0  0  0  0  0  0  0  0  0
    5.2799   -4.7024  -22.3196 H   0  0  0  0  0  0  0  0  0  0  0  0
    6.9340   -4.7010  -22.8360 H   0  0  0  0  0  0  0  0  0  0  0  0
    7.2520   -5.9130  -21.4660 H   0  0  0  0  0  0  0  0  0  0  0  0
    9.1336   -5.0738  -21.2521 H   0  0  0  0  0  0  0  0  0  0  0  0
    8.8021   -3.6678  -22.1866 H   0  0  0  0  0  0  0  0  0  0  0  0
    7.8686   -4.4813  -19.4610 H   0  0  0  0  0  0  0  0  0  0  0  0
    8.5993   -2.8851  -20.0782 H   0  0  0  0  0  0  0  0  0  0  0  0
    6.1913   -2.9769  -21.2643 H   0  0  0  0  0  0  0  0  0  0  0  0
    4.1829   -0.6264  -17.8108 H   0  0  0  0  0  0  0  0  0  0  0  0
    3.9548   -1.0261  -19.5805 H   0  0  0  0  0  0  0  0  0  0  0  0
    3.4466   -2.4904  -17.5237 H   0  0  0  0  0  0  0  0  0  0  0  0
    4.5308   -2.9674  -19.3198 H   0  0  0  0  0  0  0  0  0  0  0  0
    4.9703   -4.2526  -16.8397 H   0  0  0  0  0  0  0  0  0  0  0  0
    3.5968   -4.8432  -17.8647 H   0  0  0  0  0  0  0  0  0  0  0  0
    6.5570   -5.0529  -18.3988 H   0  0  0  0  0  0  0  0  0  0  0  0
    5.3048   -5.9852  -19.1356 H   0  0  0  0  0  0  0  0  0  0  0  0
    4.6688   -3.1407  -19.9663 H   0  0  0  0  0  0  0  0  0  0  0  0
    5.7582    0.7781  -19.0308 H   0  0  0  0  0  0  0  0  0  0  0  0
    7.6739    0.9914  -17.3754 H   0  0  0  0  0  0  0  0  0  0  0  0
    5.6960   -0.3890  -15.4190 H   0  0  0  0  0  0  0  0  0  0  0  0
    4.4300    1.9063  -14.3310 H   0  0  0  0  0  0  0  0  0  0  0  0
    4.7864    0.6527  -13.3098 H   0  0  0  0  0  0  0  0  0  0  0  0
    5.8538    3.2167  -13.8070 H   0  0  0  0  0  0  0  0  0  0  0  0
    7.7400    3.9250  -12.7470 H   0  0  0  0  0  0  0  0  0  0  0  0
    8.1082    2.1114  -15.0234 H   0  0  0  0  0  0  0  0  0  0  0  0
    8.2184    3.4119  -13.6178 H   0  0  0  0  0  0  0  0  0  0  0  0
    9.6893    4.7718  -14.1075 H   0  0  0  0  0  0  0  0  0  0  0  0
    8.1463    5.4107  -15.2924 H   0  0  0  0  0  0  0  0  0  0  0  0
    8.7922    6.7166  -14.4140 H   0  0  0  0  0  0  0  0  0  0  0  0
    7.5669    5.3729  -13.3017 H   0  0  0  0  0  0  0  0  0  0  0  0
    8.5805    7.7959  -12.6886 H   0  0  0  0  0  0  0  0  0  0  0  0
    7.5700    6.5253  -11.8707 H   0  0  0  0  0  0  0  0  0  0  0  0
    9.2440    5.7900  -10.7281 H   0  0  0  0  0  0  0  0  0  0  0  0
   10.2773    5.7636  -12.3301 H   0  0  0  0  0  0  0  0  0  0  0  0
   11.4992    6.7627  -10.5357 H   0  0  0  0  0  0  0  0  0  0  0  0
   11.1060    7.9113  -11.8585 H   0  0  0  0  0  0  0  0  0  0  0  0
   10.5832    9.1532   -9.9615 H   0  0  0  0  0  0  0  0  0  0  0  0
    8.9847    8.4115  -10.4072 H   0  0  0  0  0  0  0  0  0  0  0  0
    9.2960    6.8050   -8.8560 H   0  0  0  0  0  0  0  0  0  0  0  0
    9.5780    8.4240   -8.1770 H   0  0  0  0  0  0  0  0  0  0  0  0
   11.5248    6.5724   -8.7977 H   0  0  0  0  0  0  0  0  0  0  0  0
   10.9906    6.8365   -5.9701 H   0  0  0  0  0  0  0  0  0  0  0  0
    9.8948    5.8204   -6.9666 H   0  0  0  0  0  0  0  0  0  0  0  0
   11.6626    5.5016   -6.9666 H   0  0  0  0  0  0  0  0  0  0  0  0
    8.8749    4.4018  -16.5221 H   0  0  0  0  0  0  0  0  0  0  0  0
    9.0022    2.6551  -16.4743 H   0  0  0  0  0  0  0  0  0  0  0  0
    6.1762    3.2223  -15.9615 H   0  0  0  0  0  0  0  0  0  0  0  0
    6.7197    4.3573  -17.3200 H   0  0  0  0  0  0  0  0  0  0  0  0
    5.5938    2.4322  -17.4560 H   0  0  0  0  0  0  0  0  0  0  0  0
    6.6508    2.9350  -20.2770 H   0  0  0  0  0  0  0  0  0  0  0  0
    5.1980    4.6050  -19.8210 H   0  0  0  0  0  0  0  0  0  0  0  0
    5.1313    1.4340  -20.0818 H   0  0  0  0  0  0  0  0  0  0  0  0
    6.2124    2.2149  -21.1910 H   0  0  0  0  0  0  0  0  0  0  0  0
    8.2278    1.4433  -19.8497 H   0  0  0  0  0  0  0  0  0  0  0  0
  1  2  1  0
  2  3  1  0
  3  4  1  0
  4  5  1  0
  5  6  1  0
  6  7  1  0
  7  8  2  0
  8  9  1  0
  9 10  1  0
 10 11  1  0
 11 12  1  0
 12 13  1  0
  8 14  1  0
 14 15  1  0
 15 16  1  0
 16 17  1  0
 17 18  1  1
 18 19  1  0
 17 20  1  0
 20 21  1  0
 21 22  1  0
 22 23  1  0
 23 24  2  0
 23 25  1  0
 21 26  1  0
 26 27  1  0
 27 28  1  0
 28 29  1  0
 29 30  1  0
 30 31  1  0
 31 32  1  0
 32 33  1  0
 33 34  1  0
 34 35  1  0
 35 36  1  0
 35 37  1  0
 37 38  2  0
 37 39  1  0
 27 40  1  0
 40 41  1  0
 41 42  1  0
 42 43  1  0
 43 44  1  0
 43 45  1  0
 45 46  1  0
 46 47  1  0
 13  2  1  0
 46 14  1  0
 13  6  1  0
 42 15  1  0
 47  7  1  0
 26 17  1  0
  1 48  1  0
  1 49  1  0
  1 50  1  0
  2 51  1  6
  3 52  1  0
  3 53  1  0
  4 54  1  0
  4 55  1  0
  5 56  1  0
  5 57  1  0
  6 58  1  6
  9 59  1  0
  9 60  1  0
 10 61  1  0
 10 62  1  0
 11 63  1  0
 11 64  1  0
 12 65  1  0
 12 66  1  0
 13 67  1  6
 14 68  1  1
 15 69  1  1
 19 70  1  0
 20 71  1  0
 20 72  1  0
 21 73  1  1
 22 74  1  0
 26 75  1  1
 27 76  1  1
 28 77  1  0
 28 78  1  0
 29 79  1  0
 29 80  1  0
 30 81  1  0
 30 82  1  0
 31 83  1  0
 31 84  1  0
 32 85  1  0
 32 86  1  0
 33 87  1  0
 33 88  1  0
 34 89  1  0
 34 90  1  0
 35 91  1  6
 36 92  1  0
 36 93  1  0
 36 94  1  0
 40 95  1  0
 40 96  1  0
 41 97  1  0
 41 98  1  0
 42 99  1  6
 43100  1  6
 44101  1  0
 45102  1  0
 45103  1  0
 46104  1  1
M  CHG  4   3   1  25  -1  34   1  39  -1
M  END

>  <ID>
DiffSBDD_0_num_sample_100

>  <docking_score>
-8.431

$$$$
DiffSBDD_10_num_sample_100
     RDKit          3D

 72 75  0  0  0  0  0  0  0  0999 V2000
    4.8860   -0.6570  -18.1250 C   0  0  0  0  0  0  0  0  0  0  0  0
    6.2900   -0.1650  -18.3340 C   0  0  1  0  0  0  0  0  0  0  0  0
    6.3990    0.9680  -19.2120 N   0  0  0  0  0  0  0  0  0  0  0  0
    6.5860    0.8730  -20.4710 C   0  0  0  0  0  0  0  0  0  0  0  0
    8.4880    0.9320  -20.7010 S   0  0  0  0  0  0  0  0  0  0  0  0
   10.0870    0.1840  -20.0310 C   0  0  0  0  0  0  0  0  0  0  0  0
   10.7520    1.1010  -18.9400 C   0  0  0  0  0  0  0  0  0  0  0  0
   10.7900    2.4240  -19.3700 N   0  0  0  0  0  0  0  0  0  0  0  0
    9.9430    3.3590  -19.2070 C   0  0  2  0  0  0  0  0  0  0  0  0
   10.5150    4.7430  -19.9900 C   0  0  0  0  0  0  0  0  0  0  0  0
   11.3670    5.8360  -19.5450 C   0  0  2  0  0  0  0  0  0  0  0  0
   12.1940    6.5530  -20.1440 C   0  0  0  0  0  0  0  0  0  0  0  0
   13.2990    7.5190  -19.8130 C   0  0  0  0  0  0  0  0  0  0  0  0
   14.1930    8.1970  -19.0470 C   0  0  0  0  0  0  0  0  0  0  0  0
   14.2880    8.1400  -17.6540 N   0  0  0  0  0  0  0  0  0  0  0  0
   13.3020    7.2880  -17.4300 C   0  0  0  0  0  0  0  0  0  0  0  0
   12.5600    6.5590  -17.2710 C   0  0  0  0  0  0  0  0  0  0  0  0
   11.7760    5.4480  -18.2180 C   0  0  1  0  0  0  0  0  0  0  0  0
   11.2390    4.5630  -17.4290 C   0  0  0  0  0  0  0  0  0  0  0  0
   10.0060    4.3560  -16.8270 C   0  0  0  0  0  0  0  0  0  0  0  0
    9.2310    3.6730  -17.9200 C   0  0  2  0  0  0  0  0  0  0  0  0
    8.7730    2.1990  -17.2760 O   0  0  0  0  0  0  0  0  0  0  0  0
    7.9400    2.5890  -16.4290 C   0  0  0  0  0  0  0  0  0  0  0  0
    7.2470    3.9070  -15.9920 O   0  0  0  0  0  0  0  0  0  0  0  0
    6.8540    1.4310  -16.3150 C   0  0  2  0  0  0  0  0  0  0  0  0
    6.3180    0.9900  -14.9080 C   0  0  0  0  0  0  0  0  0  0  0  0
    7.5300    0.8360  -13.6070 S   0  0  0  0  0  0  0  0  0  0  0  0
    7.2950    2.3400  -12.9890 C   0  0  0  0  0  0  0  0  0  0  0  0
    6.1600    2.8350  -12.7780 C   0  0  0  0  0  0  0  0  0  0  0  0
    5.7070    4.0510  -12.6110 C   0  0  0  0  0  0  0  0  0  0  0  0
    4.3740    4.1440  -12.8920 F   0  0  0  0  0  0  0  0  0  0  0  0
    6.7260    4.9330  -12.1990 C   0  0  0  0  0  0  0  0  0  0  0  0
    8.0670    4.4490  -12.2320 C   0  0  0  0  0  0  0  0  0  0  0  0
    9.3400    5.2650  -11.4650 Cl  0  0  0  0  0  0  0  0  0  0  0  0
    8.3170    3.1060  -12.5690 N   0  0  0  0  0  0  0  0  0  0  0  0
    7.1300    0.1440  -16.9960 C   0  0  0  0  0  0  0  0  0  0  0  0
    8.0470   -0.5590  -16.6900 O   0  0  0  0  0  0  0  0  0  0  0  0
    4.6795   -0.7294  -17.0470 H   0  0  0  0  0  0  0  0  0  0  0  0
    4.1782    0.0467  -18.5875 H   0  0  0  0  0  0  0  0  0  0  0  0
    4.7723   -1.6485  -18.5875 H   0  0  0  0  0  0  0  0  0  0  0  0
    6.7432   -1.0429  -18.8176 H   0  0  0  0  0  0  0  0  0  0  0  0
    5.5220    1.4970  -19.0970 H   0  0  0  0  0  0  0  0  0  0  0  0
    6.1806   -0.0764  -20.8508 H   0  0  0  0  0  0  0  0  0  0  0  0
    6.0794    1.6776  -21.0242 H   0  0  0  0  0  0  0  0  0  0  0  0
    9.8612   -0.7949  -19.5830 H   0  0  0  0  0  0  0  0  0  0  0  0
   10.7933    0.0838  -20.8684 H   0  0  0  0  0  0  0  0  0  0  0  0
   10.1670    1.0395  -18.0105 H   0  0  0  0  0  0  0  0  0  0  0  0
   11.7814    0.7550  -18.7650 H   0  0  0  0  0  0  0  0  0  0  0  0
   10.8940    2.3540  -20.3920 H   0  0  0  0  0  0  0  0  0  0  0  0
   11.4990    2.7650  -18.7060 H   0  0  0  0  0  0  0  0  0  0  0  0
    9.0600    2.8721  -19.6465 H   0  0  0  0  0  0  0  0  0  0  0  0
   11.0468    4.3422  -20.8655 H   0  0  0  0  0  0  0  0  0  0  0  0
    9.5690    5.3032  -19.9552 H   0  0  0  0  0  0  0  0  0  0  0  0
   10.6925    6.6678  -19.7963 H   0  0  0  0  0  0  0  0  0  0  0  0
   12.0826    6.4481  -21.2333 H   0  0  0  0  0  0  0  0  0  0  0  0
   14.9067    8.8499  -19.5707 H   0  0  0  0  0  0  0  0  0  0  0  0
   14.9280    8.6150  -17.0020 H   0  0  0  0  0  0  0  0  0  0  0  0
   13.1835    7.6629  -16.4027 H   0  0  0  0  0  0  0  0  0  0  0  0
   12.9673    7.4015  -18.4717 H   0  0  0  0  0  0  0  0  0  0  0  0
   13.0017    5.9337  -16.4812 H   0  0  0  0  0  0  0  0  0  0  0  0
   11.7269    7.2772  -17.2650 H   0  0  0  0  0  0  0  0  0  0  0  0
   12.3491    4.7811  -18.8789 H   0  0  0  0  0  0  0  0  0  0  0  0
   11.3819    3.6301  -17.9940 H   0  0  0  0  0  0  0  0  0  0  0  0
   11.6969    4.9829  -16.5213 H   0  0  0  0  0  0  0  0  0  0  0  0
   10.0980    3.7115  -15.9404 H   0  0  0  0  0  0  0  0  0  0  0  0
    9.5329    5.2787  -16.4598 H   0  0  0  0  0  0  0  0  0  0  0  0
    8.4371    4.3793  -18.2044 H   0  0  0  0  0  0  0  0  0  0  0  0
    6.0990    2.0356  -16.8389 H   0  0  0  0  0  0  0  0  0  0  0  0
    5.5742    1.7335  -14.5856 H   0  0  0  0  0  0  0  0  0  0  0  0
    5.9168   -0.0238  -15.0538 H   0  0  0  0  0  0  0  0  0  0  0  0
    5.3678    2.0740  -12.7207 H   0  0  0  0  0  0  0  0  0  0  0  0
    6.4958    5.9554  -11.8648 H   0  0  0  0  0  0  0  0  0  0  0  0
  1  2  1  0
  2  3  1  0
  3  4  1  0
  4  5  1  0
  5  6  1  0
  6  7  1  0
  7  8  1  0
  8  9  1  0
  9 10  1  0
 10 11  1  0
 11 12  1  0
 12 13  2  0
 13 14  2  0
 14 15  1  0
 15 16  1  0
 16 17  1  0
 17 18  1  0
 18 19  1  0
 19 20  1  0
 20 21  1  0
 21 22  1  0
 22 23  1  0
 23 24  2  0
 23 25  1  0
 25 26  1  0
 26 27  1  0
 27 28  1  0
 28 29  2  0
 29 30  1  0
 30 31  1  0
 30 32  2  0
 32 33  1  0
 33 34  1  0
 33 35  2  0
 25 36  1  0
 36 37  2  0
 36  2  1  0
 21  9  1  0
 35 28  1  0
 18 11  1  0
  1 38  1  0
  1 39  1  0
  1 40  1  0
  2 41  1  6
  3 42  1  0
  4 43  1  0
  4 44  1  0
  6 45  1  0
  6 46  1  0
  7 47  1  0
  7 48  1  0
  8 49  1  0
  8 50  1  0
  9 51  1  6
 10 52  1  0
 10 53  1  0
 11 54  1  1
 12 55  1  0
 14 56  1  0
 15 57  1  0
 16 58  1  0
 16 59  1  0
 17 60  1  0
 17 61  1  0
 18 62  1  6
 19 63  1  0
 19 64  1  0
 20 65  1  0
 20 66  1  0
 21 67  1  6
 25 68  1  6
 26 69  1  0
 26 70  1  0
 29 71  1  0
 32 72  1  0
M  CHG  1   8   1
M  END

>  <ID>
DiffSBDD_10_num_sample_100

>  <docking_score>
-9.018

$$$$
DiffSBDD_11_num_sample_100
     RDKit          3D

 56 58  0  0  0  0  0  0  0  0999 V2000
    6.7900    1.5970  -13.6280 C   0  0  0  0  0  0  0  0  0  0  0  0
    7.5210    2.8540  -13.3420 C   0  0  0  0  0  0  0  0  0  0  0  0
    8.7560    2.9060  -12.4660 O   0  0  0  0  0  0  0  0  0  0  0  0
    7.1070    3.9500  -13.5310 N   0  0  0  0  0  0  0  0  0  0  0  0
    7.6530    5.2590  -14.0240 C   0  0  0  0  0  0  0  0  0  0  0  0
    7.2890    6.0620  -12.8970 C   0  0  2  0  0  0  0  0  0  0  0  0
    6.0180    6.7690  -13.3750 C   0  0  0  0  0  0  0  0  0  0  0  0
    8.4730    6.9670  -12.7990 C   0  0  0  0  0  0  0  0  0  0  0  0
    9.6240    6.5190  -11.8860 C   0  0  0  0  0  0  0  0  0  0  0  0
   10.6340    5.8760  -12.2590 O   0  0  0  0  0  0  0  0  0  0  0  0
    9.5290    6.8050  -10.3810 C   0  0  0  0  0  0  0  0  0  0  0  0
    9.0010    5.8800   -9.3830 C   0  0  0  0  0  0  0  0  0  0  0  0
    8.3910    4.5450   -9.5460 C   0  0  0  0  0  0  0  0  0  0  0  0
    9.2310    6.4040   -8.0230 C   0  0  0  0  0  0  0  0  0  0  0  0
   10.2450    7.0510   -7.4170 C   0  0  2  0  0  0  0  0  0  0  0  0
   10.7410    6.3670   -6.0380 S   0  0  0  0  0  0  0  0  0  0  0  0
   11.4930    7.3070   -4.9260 C   0  0  0  0  0  0  0  0  0  0  0  0
   11.8800    6.8630   -3.5720 C   0  0  0  0  0  0  0  0  0  0  0  0
   12.1820    7.8600   -2.6940 C   0  0  2  0  0  0  0  0  0  0  0  0
   12.9130    7.5210   -1.2690 Cl  0  0  0  0  0  0  0  0  0  0  0  0
   11.9770    9.2630   -3.0190 C   0  0  2  0  0  0  0  0  0  0  0  0
   11.9960   10.2510   -2.1160 O   0  0  0  0  0  0  0  0  0  0  0  0
   11.8020    9.6460   -4.3760 C   0  0  0  0  0  0  0  0  0  0  0  0
   11.7410    8.5520   -5.2970 C   0  0  0  0  0  0  0  0  0  0  0  0
   11.9190    8.7080   -6.8490 O   0  0  0  0  0  0  0  0  0  0  0  0
   10.6170    8.5230   -7.4810 C   0  0  1  0  0  0  0  0  0  0  0  0
   10.5920    8.8800   -8.9510 C   0  0  0  0  0  0  0  0  0  0  0  0
   10.1310    8.1280   -9.8940 C   0  0  0  0  0  0  0  0  0  0  0  0
    6.5085    1.1130  -12.6812 H   0  0  0  0  0  0  0  0  0  0  0  0
    5.8830    1.8240  -14.2076 H   0  0  0  0  0  0  0  0  0  0  0  0
    7.4358    0.9210  -14.2076 H   0  0  0  0  0  0  0  0  0  0  0  0
    6.1080    4.0230  -13.2940 H   0  0  0  0  0  0  0  0  0  0  0  0
    8.7417    5.2253  -14.1777 H   0  0  0  0  0  0  0  0  0  0  0  0
    7.2809    5.6006  -15.0012 H   0  0  0  0  0  0  0  0  0  0  0  0
    7.0854    5.5865  -11.9262 H   0  0  0  0  0  0  0  0  0  0  0  0
    5.4306    7.0957  -12.5042 H   0  0  0  0  0  0  0  0  0  0  0  0
    6.2917    7.6445  -13.9821 H   0  0  0  0  0  0  0  0  0  0  0  0
    5.4185    6.0747  -13.9821 H   0  0  0  0  0  0  0  0  0  0  0  0
    8.8823    7.0877  -13.8128 H   0  0  0  0  0  0  0  0  0  0  0  0
    8.0882    7.8892  -12.3392 H   0  0  0  0  0  0  0  0  0  0  0  0
    8.1920    4.1094   -8.5557 H   0  0  0  0  0  0  0  0  0  0  0  0
    7.4464    4.6389  -10.1018 H   0  0  0  0  0  0  0  0  0  0  0  0
    9.0802    3.8923  -10.1018 H   0  0  0  0  0  0  0  0  0  0  0  0
    8.3821    7.0883   -7.8774 H   0  0  0  0  0  0  0  0  0  0  0  0
    9.4600    5.4244   -7.5780 H   0  0  0  0  0  0  0  0  0  0  0  0
   10.7747    6.8791   -8.3656 H   0  0  0  0  0  0  0  0  0  0  0  0
   11.9216    5.8002   -3.2915 H   0  0  0  0  0  0  0  0  0  0  0  0
   13.1662    7.9811   -3.1701 H   0  0  0  0  0  0  0  0  0  0  0  0
   13.0590    9.3849   -3.1752 H   0  0  0  0  0  0  0  0  0  0  0  0
   12.1640   11.1130   -2.5730 H   0  0  0  0  0  0  0  0  0  0  0  0
   10.8635   10.2143   -4.4546 H   0  0  0  0  0  0  0  0  0  0  0  0
   12.6871   10.2384   -4.6511 H   0  0  0  0  0  0  0  0  0  0  0  0
   10.6571    8.7042   -5.4060 H   0  0  0  0  0  0  0  0  0  0  0  0
    9.9269    9.1856   -6.9382 H   0  0  0  0  0  0  0  0  0  0  0  0
   10.9997    9.8599   -9.2400 H   0  0  0  0  0  0  0  0  0  0  0  0
   10.2095    8.7451  -10.8012 H   0  0  0  0  0  0  0  0  0  0  0  0
  1  2  1  0
  2  3  2  0
  2  4  1  0
  4  5  1  0
  5  6  1  0
  6  7  1  0
  6  8  1  0
  8  9  1  0
  9 10  2  0
  9 11  1  0
 11 12  2  0
 12 13  1  0
 12 14  1  0
 14 15  1  0
 15 16  1  0
 16 17  1  0
 17 18  2  0
 18 19  1  0
 19 20  1  0
 19 21  1  0
 21 22  1  0
 21 23  1  0
 23 24  1  0
 24 25  1  0
 25 26  1  0
 26 27  1  0
 27 28  2  0
 28 11  1  0
 26 15  1  0
 24 17  1  0
  1 29  1  0
  1 30  1  0
  1 31  1  0
  4 32  1  0
  5 33  1  0
  5 34  1  0
  6 35  1  1
  7 36  1  0
  7 37  1  0
  7 38  1  0
  8 39  1  0
  8 40  1  0
 13 41  1  0
 13 42  1  0
 13 43  1  0
 14 44  1  0
 14 45  1  0
 15 46  1  6
 18 47  1  0
 19 48  1  1
 21 49  1  1
 22 50  1  0
 23 51  1  0
 23 52  1  0
 24 53  1  0
 26 54  1  1
 27 55  1  0
 28 56  1  0
M  END

>  <ID>
DiffSBDD_11_num_sample_100

>  <docking_score>
-9.538

$$$$
DiffSBDD_12_num_sample_100
     RDKit          3D

 68 72  0  0  0  0  0  0  0  0999 V2000
    4.0080    6.9410  -18.3440 C   0  0  0  0  0  0  0  0  0  0  0  0
    4.9900    5.9460  -18.2600 C   0  0  0  0  0  0  0  0  0  0  0  0
    6.2350    6.4430  -18.0130 C   0  0  0  0  0  0  0  0  0  0  0  0
    6.0040    7.2880  -16.6710 C   0  0  0  0  0  0  0  0  0  0  0  0
    5.8050    6.2420  -15.5230 C   0  0  0  0  0  0  0  0  0  0  0  0
    6.8950    5.5620  -14.2670 C   0  0  1  0  0  0  0  0  0  0  0  0
    6.1740    5.6330  -13.3790 C   0  0  1  0  0  0  0  0  0  0  0  0
    6.0340    3.9150  -12.9970 C   0  0  1  0  0  0  0  0  0  0  0  0
    6.7490    3.6190  -14.0870 C   0  0  0  0  0  0  0  0  0  0  0  0
    7.1440    4.2210  -15.1900 C   0  0  2  0  0  0  0  0  0  0  0  0
    8.2720    4.2300  -15.3550 O   0  0  0  0  0  0  0  0  0  0  0  0
    6.1820    4.8990  -11.7540 P   0  0  2  0  0  5  0  0  0  0  0  0
    5.0770    5.1010  -10.9700 O   0  0  0  0  0  0  0  0  0  0  0  0
    7.5490    4.6700  -10.5870 O   0  0  0  0  0  0  0  0  0  0  0  0
    8.6420    5.5870  -10.6860 C   0  0  2  0  0  0  0  0  0  0  0  0
    9.4000    4.7870  -11.7690 C   0  0  0  0  0  0  0  0  0  0  0  0
    9.4110    3.5580  -11.6790 O   0  0  0  0  0  0  0  0  0  0  0  0
    8.9290    6.3540   -9.7250 N   0  0  0  0  0  0  0  0  0  0  0  0
    9.3260    7.3040  -10.2140 C   0  0  0  0  0  0  0  0  0  0  0  0
   10.0920    8.1090   -9.5860 C   0  0  0  0  0  0  0  0  0  0  0  0
   10.5270    8.0100   -8.3290 C   0  0  0  0  0  0  0  0  0  0  0  0
   11.3500    8.9100   -7.7250 C   0  0  0  0  0  0  0  0  0  0  0  0
   11.6730    8.6530   -6.4350 C   0  0  0  0  0  0  0  0  0  0  0  0
   12.5810    9.6670   -5.9790 C   0  0  0  0  0  0  0  0  0  0  0  0
   12.8340    9.5460   -4.7210 F   0  0  0  0  0  0  0  0  0  0  0  0
   13.5650    9.6970   -6.5020 F   0  0  0  0  0  0  0  0  0  0  0  0
   12.2020   10.9330   -6.1560 F   0  0  0  0  0  0  0  0  0  0  0  0
   11.2030    7.5370   -5.6360 C   0  0  0  0  0  0  0  0  0  0  0  0
   10.4200    6.6360   -6.3600 C   0  0  0  0  0  0  0  0  0  0  0  0
   10.0060    6.9110   -7.7420 C   0  0  0  0  0  0  0  0  0  0  0  0
    9.1360    6.1720   -8.5190 C   0  0  0  0  0  0  0  0  0  0  0  0
    5.9390    7.3510  -19.2510 C   0  0  0  0  0  0  0  0  0  0  0  0
    7.1050    6.8900  -20.2010 C   0  0  0  0  0  0  0  0  0  0  0  0
    8.3090    6.3200  -19.3130 C   0  0  0  0  0  0  0  0  0  0  0  0
    7.4530    5.9820  -18.3230 C   0  0  0  0  0  0  0  0  0  0  0  0
    3.7072    7.2458  -17.3308 H   0  0  0  0  0  0  0  0  0  0  0  0
    4.4120    7.8103  -18.8836 H   0  0  0  0  0  0  0  0  0  0  0  0
    3.1335    6.5485  -18.8836 H   0  0  0  0  0  0  0  0  0  0  0  0
    4.7207    5.2561  -17.4466 H   0  0  0  0  0  0  0  0  0  0  0  0
    5.0270    5.4385  -19.2352 H   0  0  0  0  0  0  0  0  0  0  0  0
    6.8800    7.9199  -16.4631 H   0  0  0  0  0  0  0  0  0  0  0  0
    5.1326    7.9531  -16.7619 H   0  0  0  0  0  0  0  0  0  0  0  0
    4.9802    6.6698  -14.9342 H   0  0  0  0  0  0  0  0  0  0  0  0
    5.8260    5.3573  -16.1764 H   0  0  0  0  0  0  0  0  0  0  0  0
    7.8530    5.8922  -13.8389 H   0  0  0  0  0  0  0  0  0  0  0  0
    5.7903    6.6345  -13.6233 H   0  0  0  0  0  0  0  0  0  0  0  0
    5.5359    2.9503  -12.8201 H   0  0  0  0  0  0  0  0  0  0  0  0
    7.7044    3.2916  -13.6511 H   0  0  0  0  0  0  0  0  0  0  0  0
    5.9079    3.1134  -14.5839 H   0  0  0  0  0  0  0  0  0  0  0  0
    6.7246    3.9365  -16.1663 H   0  0  0  0  0  0  0  0  0  0  0  0
    8.4730    4.6330  -16.2360 H   0  0  0  0  0  0  0  0  0  0  0  0
    8.7318    6.6543  -10.9365 H   0  0  0  0  0  0  0  0  0  0  0  0
    9.9144    5.2991  -12.5955 H   0  0  0  0  0  0  0  0  0  0  0  0
    9.0422    7.5325  -11.2519 H   0  0  0  0  0  0  0  0  0  0  0  0
   10.4344    8.9899  -10.1488 H   0  0  0  0  0  0  0  0  0  0  0  0
   11.4028    7.4425   -8.6768 H   0  0  0  0  0  0  0  0  0  0  0  0
   11.7312    9.7957   -8.2543 H   0  0  0  0  0  0  0  0  0  0  0  0
   11.4394    7.4134   -4.5688 H   0  0  0  0  0  0  0  0  0  0  0  0
   10.1051    5.6961   -5.8832 H   0  0  0  0  0  0  0  0  0  0  0  0
    8.5838    5.3577   -8.0271 H   0  0  0  0  0  0  0  0  0  0  0  0
    4.9501    7.1423  -19.6851 H   0  0  0  0  0  0  0  0  0  0  0  0
    5.9070    8.4303  -19.0412 H   0  0  0  0  0  0  0  0  0  0  0  0
    6.7403    6.1022  -20.8765 H   0  0  0  0  0  0  0  0  0  0  0  0
    7.4567    7.7443  -20.7980 H   0  0  0  0  0  0  0  0  0  0  0  0
    8.8275    5.4616  -19.7651 H   0  0  0  0  0  0  0  0  0  0  0  0
    9.1761    6.9597  -19.0918 H   0  0  0  0  0  0  0  0  0  0  0  0
    7.2953    4.9033  -18.4700 H   0  0  0  0  0  0  0  0  0  0  0  0
    7.9944    6.4799  -17.5051 H   0  0  0  0  0  0  0  0  0  0  0  0
  1  2  1  0
  2  3  1  0
  3  4  1  0
  4  5  1  0
  5  6  1  0
  6  7  1  0
  7  8  1  0
  8  9  1  0
  9 10  1  0
 10 11  1  0
  8 12  1  0
 12 13  2  0
 12 14  1  1
 14 15  1  0
 15 16  1  0
 16 17  2  0
 15 18  1  0
 18 19  1  0
 19 20  2  0
 20 21  1  0
 21 22  1  0
 22 23  2  0
 23 24  1  0
 24 25  1  0
 24 26  1  0
 24 27  1  0
 23 28  1  0
 28 29  2  0
 29 30  1  0
 30 31  2  0
  3 32  1  0
 32 33  1  0
 33 34  1  0
 34 35  1  0
 35  3  1  0
 10  6  1  0
 31 18  1  0
 12  7  1  0
 30 21  1  0
  1 36  1  0
  1 37  1  0
  1 38  1  0
  2 39  1  0
  2 40  1  0
  4 41  1  0
  4 42  1  0
  5 43  1  0
  5 44  1  0
  6 45  1  1
  7 46  1  1
  8 47  1  1
  9 48  1  0
  9 49  1  0
 10 50  1  6
 11 51  1  0
 15 52  1  6
 16 53  1  0
 19 54  1  0
 20 55  1  0
 21 56  1  0
 22 57  1  0
 28 58  1  0
 29 59  1  0
 31 60  1  0
 32 61  1  0
 32 62  1  0
 33 63  1  0
 33 64  1  0
 34 65  1  0
 34 66  1  0
 35 67  1  0
 35 68  1  0
M  END

>  <ID>
DiffSBDD_12_num_sample_100

>  <docking_score>
-10.819

$$$$
DiffSBDD_13_num_sample_100
     RDKit          3D

 83 88  0  0  0  0  0  0  0  0999 V2000
    4.2010   -0.3860  -16.3970 O   0  0  0  0  0  0  0  0  0  0  0  0
    5.1630   -1.0540  -16.5140 C   0  0  0  0  0  0  0  0  0  0  0  0
    5.7180   -1.3470  -17.8870 C   0  0  2  0  0  0  0  0  0  0  0  0
    6.8280   -2.0210  -17.8140 C   0  0  0  0  0  0  0  0  0  0  0  0
    7.8070   -1.7430  -18.9220 C   0  0  0  0  0  0  0  0  0  0  0  0
    7.5380   -0.8490  -20.0210 C   0  0  0  0  0  0  0  0  0  0  0  0
    8.1300    0.3190  -19.1980 C   0  0  2  0  0  0  0  0  0  0  0  0
    8.4150   -0.0980  -17.8330 C   0  0  0  0  0  0  0  0  0  0  0  0
    7.3180    0.7530  -17.9730 C   0  0  1  0  0  0  0  0  0  0  0  0
    7.7940    2.1900  -16.9310 C   0  0  1  0  0  0  0  0  0  0  0  0
    7.5140    3.7360  -16.7240 C   0  0  0  0  0  0  0  0  0  0  0  0
    7.7550    4.4650  -15.6670 C   0  0  0  0  0  0  0  0  0  0  0  0
    8.1670    5.4970  -15.8720 O   0  0  0  0  0  0  0  0  0  0  0  0
    7.8310    3.9980  -14.3520 C   0  0  1  0  0  0  0  0  0  0  0  0
    8.1570    5.1070  -13.8860 C   0  0  0  0  0  0  0  0  0  0  0  0
    8.0430    5.9070  -12.6530 C   0  0  0  0  0  0  0  0  0  0  0  0
    8.5010    5.0560  -11.3710 C   0  0  2  0  0  0  0  0  0  0  0  0
    8.7600    5.7670  -10.3260 C   0  0  0  0  0  0  0  0  0  0  0  0
    9.5000    6.7220  -10.2210 C   0  0  0  0  0  0  0  0  0  0  0  0
   10.4880    7.4310   -9.8750 C   0  0  0  0  0  0  0  0  0  0  0  0
   10.9210    7.3070   -8.7080 C   0  0  0  0  0  0  0  0  0  0  0  0
   11.8890    8.3340   -8.1870 C   0  0  0  0  0  0  0  0  0  0  0  0
   13.2590    8.1990   -8.7030 F   0  0  0  0  0  0  0  0  0  0  0  0
   11.4850    9.3860   -8.8200 F   0  0  0  0  0  0  0  0  0  0  0  0
   12.0740    8.2390   -6.8190 O   0  0  0  0  0  0  0  0  0  0  0  0
   11.8830    9.5010   -6.1800 C   0  0  0  0  0  0  0  0  0  0  0  0
   10.7260    9.9510   -5.7310 O   0  0  0  0  0  0  0  0  0  0  0  0
   12.9760    9.9650   -6.0730 O   0  0  0  0  0  0  0  0  0  0  0  0
   10.3090    6.4860   -7.8660 C   0  0  0  0  0  0  0  0  0  0  0  0
    9.2580    5.7870   -8.0580 C   0  0  0  0  0  0  0  0  0  0  0  0
    8.3950    5.2380   -8.9330 C   0  0  0  0  0  0  0  0  0  0  0  0
    8.8660    3.9680  -11.4610 C   0  0  0  0  0  0  0  0  0  0  0  0
    8.6700    3.0380  -12.4550 C   0  0  0  0  0  0  0  0  0  0  0  0
    7.8130    3.3620  -13.0920 C   0  0  2  0  0  0  0  0  0  0  0  0
    7.8190    2.6350  -14.4340 C   0  0  1  0  0  0  0  0  0  0  0  0
    7.1810    1.7760  -15.6850 C   0  0  1  0  0  0  0  0  0  0  0  0
    5.9170    1.9600  -15.9800 O   0  0  0  0  0  0  0  0  0  0  0  0
    7.5600    0.4070  -15.0740 C   0  0  0  0  0  0  0  0  0  0  0  0
    7.4490   -0.1410  -13.8240 O   0  0  0  0  0  0  0  0  0  0  0  0
    6.1710    1.6470  -18.5470 C   0  0  0  0  0  0  0  0  0  0  0  0
    5.4440    0.7300  -19.4570 C   0  0  0  0  0  0  0  0  0  0  0  0
    5.1110   -0.6060  -18.8300 C   0  0  0  0  0  0  0  0  0  0  0  0
    5.6582   -1.4652  -15.6220 H   0  0  0  0  0  0  0  0  0  0  0  0
    5.6105   -2.0609  -18.7169 H   0  0  0  0  0  0  0  0  0  0  0  0
    7.3144   -1.7773  -16.8580 H   0  0  0  0  0  0  0  0  0  0  0  0
    6.5530   -3.0824  -17.9018 H   0  0  0  0  0  0  0  0  0  0  0  0
    8.7111   -1.3523  -18.4321 H   0  0  0  0  0  0  0  0  0  0  0  0
    7.8259   -2.7144  -19.4378 H   0  0  0  0  0  0  0  0  0  0  0  0
    8.0967   -1.0823  -20.9394 H   0  0  0  0  0  0  0  0  0  0  0  0
    6.5283   -0.7769  -20.4516 H   0  0  0  0  0  0  0  0  0  0  0  0
    8.6246    0.8424  -20.0295 H   0  0  0  0  0  0  0  0  0  0  0  0
    8.2463   -1.1467  -17.5470 H   0  0  0  0  0  0  0  0  0  0  0  0
    9.3215   -0.0525  -17.2116 H   0  0  0  0  0  0  0  0  0  0  0  0
    8.7760    2.2953  -17.4153 H   0  0  0  0  0  0  0  0  0  0  0  0
    8.0698    4.2299  -17.5347 H   0  0  0  0  0  0  0  0  0  0  0  0
    6.4172    3.6962  -16.6499 H   0  0  0  0  0  0  0  0  0  0  0  0
    9.2480    5.0837  -14.0245 H   0  0  0  0  0  0  0  0  0  0  0  0
    7.2830    5.6001  -14.3366 H   0  0  0  0  0  0  0  0  0  0  0  0
    8.6831    6.7972  -12.7413 H   0  0  0  0  0  0  0  0  0  0  0  0
    6.9910    6.2004  -12.5215 H   0  0  0  0  0  0  0  0  0  0  0  0
    7.5793    4.5171  -11.1064 H   0  0  0  0  0  0  0  0  0  0  0  0
   10.9532    8.1362  -10.5795 H   0  0  0  0  0  0  0  0  0  0  0  0
   10.7674    6.3950   -6.8702 H   0  0  0  0  0  0  0  0  0  0  0  0
    9.5482    4.8804   -7.5068 H   0  0  0  0  0  0  0  0  0  0  0  0
    8.6577    6.7088   -8.0599 H   0  0  0  0  0  0  0  0  0  0  0  0
    8.4833    4.1418   -8.9115 H   0  0  0  0  0  0  0  0  0  0  0  0
    7.3585    5.5015   -8.6754 H   0  0  0  0  0  0  0  0  0  0  0  0
    9.9604    4.0479  -11.3842 H   0  0  0  0  0  0  0  0  0  0  0  0
    8.1785    3.5293  -10.7228 H   0  0  0  0  0  0  0  0  0  0  0  0
    9.5781    2.9594  -13.0707 H   0  0  0  0  0  0  0  0  0  0  0  0
    8.4507    2.0571  -12.0081 H   0  0  0  0  0  0  0  0  0  0  0  0
    7.2255    3.5987  -12.1927 H   0  0  0  0  0  0  0  0  0  0  0  0
    8.2229    1.6295  -14.6233 H   0  0  0  0  0  0  0  0  0  0  0  0
    5.5950    1.2090  -16.5380 H   0  0  0  0  0  0  0  0  0  0  0  0
    7.0132   -0.3071  -15.7073 H   0  0  0  0  0  0  0  0  0  0  0  0
    8.6362    0.6214  -14.9982 H   0  0  0  0  0  0  0  0  0  0  0  0
    7.7960   -1.0680  -13.8380 H   0  0  0  0  0  0  0  0  0  0  0  0
    5.5127    2.0072  -17.7427 H   0  0  0  0  0  0  0  0  0  0  0  0
    6.5427    2.5498  -19.0538 H   0  0  0  0  0  0  0  0  0  0  0  0
    4.5049    1.2148  -19.7621 H   0  0  0  0  0  0  0  0  0  0  0  0
    6.1075    0.5295  -20.3111 H   0  0  0  0  0  0  0  0  0  0  0  0
    4.1014   -0.4512  -18.4216 H   0  0  0  0  0  0  0  0  0  0  0  0
    5.4307   -1.2197  -19.6851 H   0  0  0  0  0  0  0  0  0  0  0  0
  1  2  2  0
  2  3  1  0
  3  4  1  0
  4  5  1  0
  5  6  1  0
  6  7  1  0
  7  8  1  0
  9  8  1  6
  9 10  1  0
 10 11  1  0
 11 12  1  0
 12 13  2  0
 12 14  1  0
 14 15  1  1
 15 16  1  0
 16 17  1  0
 17 18  1  0
 18 19  2  0
 19 20  2  0
 20 21  1  0
 21 22  1  0
 22 23  1  0
 22 24  1  0
 22 25  1  0
 25 26  1  0
 26 27  2  0
 26 28  1  0
 21 29  2  0
 29 30  1  0
 30 31  1  0
 17 32  1  0
 32 33  1  0
 33 34  1  0
 34 35  1  0
 35 36  1  0
 36 37  1  6
 36 38  1  0
 38 39  1  0
  9 40  1  0
 40 41  1  0
 41 42  1  0
 42  3  1  0
  9  7  1  0
 36 10  1  0
 34 14  1  0
 35 14  1  0
 31 18  1  0
  2 43  1  0
  3 44  1  6
  4 45  1  0
  4 46  1  0
  5 47  1  0
  5 48  1  0
  6 49  1  0
  6 50  1  0
  7 51  1  6
  8 52  1  0
  8 53  1  0
 10 54  1  1
 11 55  1  0
 11 56  1  0
 15 57  1  0
 15 58  1  0
 16 59  1  0
 16 60  1  0
 17 61  1  1
 20 62  1  0
 29 63  1  0
 30 64  1  0
 30 65  1  0
 31 66  1  0
 31 67  1  0
 32 68  1  0
 32 69  1  0
 33 70  1  0
 33 71  1  0
 34 72  1  1
 35 73  1  1
 37 74  1  0
 38 75  1  0
 38 76  1  0
 39 77  1  0
 40 78  1  0
 40 79  1  0
 41 80  1  0
 41 81  1  0
 42 82  1  0
 42 83  1  0
M  CHG  1  28  -1
M  END

>  <ID>
DiffSBDD_13_num_sample_100

>  <docking_score>
-10.992

$$$$
DiffSBDD_14_num_sample_100
     RDKit          3D

 60 64  0  0  0  0  0  0  0  0999 V2000
    6.0180    2.4080  -13.1880 C   0  0  0  0  0  0  0  0  0  0  0  0
    7.5900    2.8630  -13.7420 S   0  0  0  0  0  0  0  0  0  0  0  0
    7.6680    4.6540  -14.1370 C   0  0  2  0  0  0  0  0  0  0  0  0
    6.7250    5.4800  -15.2680 C   0  0  0  0  0  0  0  0  0  0  0  0
    5.7330    6.4070  -14.9930 C   0  0  0  0  0  0  0  0  0  0  0  0
    6.3930    7.1360  -13.6450 S   0  0  0  0  0  0  0  0  0  0  0  0
    8.0110    6.8200  -12.9070 C   0  0  2  0  0  0  0  0  0  0  0  0
    9.1830    7.4210  -11.7790 C   0  0  0  0  0  0  0  0  0  0  0  0
    9.4130    6.6190  -10.7650 C   0  0  1  0  0  0  0  0  0  0  0  0
    9.7820    6.5860   -9.3040 C   0  0  1  0  0  0  0  0  0  0  0  0
    9.9910    7.9110   -8.8370 C   0  0  0  0  0  0  0  0  0  0  0  0
   10.7950    7.8220   -7.4900 C   0  0  2  0  0  0  0  0  0  0  0  0
   10.6870    6.4870   -6.7740 C   0  0  0  0  0  0  0  0  0  0  0  0
   11.4550    6.3640   -5.6160 C   0  0  0  0  0  0  0  0  0  0  0  0
   11.2870    7.4980   -4.6940 C   0  0  1  0  0  0  0  0  0  0  0  0
   12.0260    6.9670   -3.4680 C   0  0  0  0  0  0  0  0  0  0  0  0
   12.6780    8.1800   -2.7660 C   0  0  2  0  0  0  0  0  0  0  0  0
   12.7100    8.1230   -1.3540 C   0  0  0  0  0  0  0  0  0  0  0  0
   11.8670    7.7850   -1.2880 O   0  0  0  0  0  0  0  0  0  0  0  0
   13.6400    8.4710   -0.5630 O   0  0  0  0  0  0  0  0  0  0  0  0
   12.0740    9.5040   -3.4630 S   0  0  0  0  0  0  0  0  0  0  0  0
   11.7880    8.7740   -5.1450 C   0  0  2  0  0  0  0  0  0  0  0  0
   10.8020    9.0570   -6.4290 C   0  0  0  0  0  0  0  0  0  0  0  0
    8.6520    5.5620   -9.0470 C   0  0  0  0  0  0  0  0  0  0  0  0
    7.9090    4.8740  -10.2270 C   0  0  0  0  0  0  0  0  0  0  0  0
    8.8320    4.9200  -11.4840 C   0  0  1  0  0  0  0  0  0  0  0  0
    8.5100    5.4670  -13.2810 C   0  0  1  0  0  0  0  0  0  0  0  0
    6.0038    2.4039  -12.0881 H   0  0  0  0  0  0  0  0  0  0  0  0
    5.2750    3.1279  -13.5616 H   0  0  0  0  0  0  0  0  0  0  0  0
    5.7744    1.4025  -13.5616 H   0  0  0  0  0  0  0  0  0  0  0  0
    6.9157    4.8579  -13.3608 H   0  0  0  0  0  0  0  0  0  0  0  0
    7.4452    6.0127  -15.9064 H   0  0  0  0  0  0  0  0  0  0  0  0
    6.1023    4.6481  -15.6287 H   0  0  0  0  0  0  0  0  0  0  0  0
    5.5988    7.1202  -15.8196 H   0  0  0  0  0  0  0  0  0  0  0  0
    4.7278    5.9843  -14.8487 H   0  0  0  0  0  0  0  0  0  0  0  0
    7.5313    6.2442  -12.1018 H   0  0  0  0  0  0  0  0  0  0  0  0
   10.1299    7.5787  -12.3161 H   0  0  0  0  0  0  0  0  0  0  0  0
    8.7715    8.3511  -11.3601 H   0  0  0  0  0  0  0  0  0  0  0  0
   10.0330    7.3971  -10.2958 H   0  0  0  0  0  0  0  0  0  0  0  0
   10.6947    6.2636   -8.7814 H   0  0  0  0  0  0  0  0  0  0  0  0
   10.5663    8.4835   -9.5795 H   0  0  0  0  0  0  0  0  0  0  0  0
    9.0287    8.4196   -8.6782 H   0  0  0  0  0  0  0  0  0  0  0  0
   11.7896    7.9318   -7.9469 H   0  0  0  0  0  0  0  0  0  0  0  0
    9.6329    6.3336   -6.4997 H   0  0  0  0  0  0  0  0  0  0  0  0
   11.0758    5.7348   -7.4762 H   0  0  0  0  0  0  0  0  0  0  0  0
   11.1592    5.4414   -5.0951 H   0  0  0  0  0  0  0  0  0  0  0  0
   12.5114    6.3410   -5.9217 H   0  0  0  0  0  0  0  0  0  0  0  0
   10.2296    7.7602   -4.5416 H   0  0  0  0  0  0  0  0  0  0  0  0
   11.3183    6.4727   -2.7862 H   0  0  0  0  0  0  0  0  0  0  0  0
   12.7878    6.2294   -3.7606 H   0  0  0  0  0  0  0  0  0  0  0  0
   13.7665    8.1864   -2.9248 H   0  0  0  0  0  0  0  0  0  0  0  0
   12.6965    9.1390   -5.6463 H   0  0  0  0  0  0  0  0  0  0  0  0
    9.7773    9.2117   -6.0602 H   0  0  0  0  0  0  0  0  0  0  0  0
   11.1805    9.9472   -6.9528 H   0  0  0  0  0  0  0  0  0  0  0  0
    9.0928    4.7555   -8.4426 H   0  0  0  0  0  0  0  0  0  0  0  0
    7.8638    6.1813   -8.5940 H   0  0  0  0  0  0  0  0  0  0  0  0
    7.6871    3.8284   -9.9672 H   0  0  0  0  0  0  0  0  0  0  0  0
    6.9629    5.3958  -10.4335 H   0  0  0  0  0  0  0  0  0  0  0  0
    9.2377    3.9186  -11.6907 H   0  0  0  0  0  0  0  0  0  0  0  0
    9.3637    5.3978  -13.9712 H   0  0  0  0  0  0  0  0  0  0  0  0
  1  2  1  0
  2  3  1  0
  3  4  1  0
  4  5  1  0
  5  6  1  0
  6  7  1  0
  7  8  1  0
  8  9  1  0
  9 10  1  0
 10 11  1  0
 11 12  1  0
 12 13  1  0
 13 14  1  0
 14 15  1  0
 15 16  1  0
 16 17  1  0
 17 18  1  0
 18 19  2  0
 18 20  1  0
 17 21  1  0
 21 22  1  0
 22 23  1  0
 10 24  1  0
 24 25  1  0
 25 26  1  0
 26 27  1  0
 27  3  1  0
 27  7  1  0
 26  9  1  0
 23 12  1  0
 22 15  1  0
  1 28  1  0
  1 29  1  0
  1 30  1  0
  3 31  1  6
  4 32  1  0
  4 33  1  0
  5 34  1  0
  5 35  1  0
  7 36  1  6
  8 37  1  0
  8 38  1  0
  9 39  1  6
 10 40  1  6
 11 41  1  0
 11 42  1  0
 12 43  1  6
 13 44  1  0
 13 45  1  0
 14 46  1  0
 14 47  1  0
 15 48  1  1
 16 49  1  0
 16 50  1  0
 17 51  1  6
 22 52  1  6
 23 53  1  0
 23 54  1  0
 24 55  1  0
 24 56  1  0
 25 57  1  0
 25 58  1  0
 26 59  1  6
 27 60  1  6
M  CHG  1  20  -1
M  END

>  <ID>
DiffSBDD_14_num_sample_100

>  <docking_score>
-10.369

$$$$
DiffSBDD_15_num_sample_100
     RDKit          3D

 48 51  0  0  0  0  0  0  0  0999 V2000
    6.9560    7.2250  -13.9860 F   0  0  0  0  0  0  0  0  0  0  0  0
    6.7930    6.0310  -13.3090 C   0  0  0  0  0  0  0  0  0  0  0  0
    6.4610    5.0940  -14.2820 F   0  0  0  0  0  0  0  0  0  0  0  0
    5.6370    5.8980  -12.4640 O   0  0  0  0  0  0  0  0  0  0  0  0
    5.6280    4.5690  -11.9020 C   0  0  0  0  0  0  0  0  0  0  0  0
    6.9500    3.7790  -12.0570 C   0  0  0  0  0  0  0  0  0  0  0  0
    7.9150    4.7150  -11.5210 C   0  0  2  0  0  0  0  0  0  0  0  0
    8.7220    4.8400  -10.2720 C   0  0  0  0  0  0  0  0  0  0  0  0
    9.1410    6.2930  -10.1180 N   0  0  0  0  0  0  0  0  0  0  0  0
    9.6450    6.5410   -8.7490 C   0  0  0  0  0  0  0  0  0  0  0  0
   10.8000    7.3800   -8.5750 C   0  0  0  0  0  0  0  0  0  0  0  0
   11.1680    7.9910   -7.3580 C   0  0  0  0  0  0  0  0  0  0  0  0
   11.6140    9.2440   -7.2790 C   0  0  0  0  0  0  0  0  0  0  0  0
   12.0680    9.7140   -6.0750 C   0  0  0  0  0  0  0  0  0  0  0  0
   12.1010    8.7990   -4.9310 C   0  0  0  0  0  0  0  0  0  0  0  0
   11.5360    7.5420   -5.0340 C   0  0  0  0  0  0  0  0  0  0  0  0
   11.0960    7.1890   -6.2810 C   0  0  0  0  0  0  0  0  0  0  0  0
   11.4710    6.6590   -4.0120 C   0  0  0  0  0  0  0  0  0  0  0  0
   11.7780    6.6410   -2.6950 C   0  0  0  0  0  0  0  0  0  0  0  0
   12.3880    7.6330   -1.9770 C   0  0  0  0  0  0  0  0  0  0  0  0
   12.7470    8.8090   -2.5050 C   0  0  0  0  0  0  0  0  0  0  0  0
   12.5800    9.2500   -3.7690 C   0  0  0  0  0  0  0  0  0  0  0  0
    9.9910    6.8230  -11.1720 C   0  0  0  0  0  0  0  0  0  0  0  0
    9.2570    6.5750  -12.5330 C   0  0  0  0  0  0  0  0  0  0  0  0
    7.9870    5.9710  -12.3210 C   0  0  1  0  0  0  0  0  0  0  0  0
    5.4070    4.6552  -10.8279 H   0  0  0  0  0  0  0  0  0  0  0  0
    4.8680    4.0054  -12.4631 H   0  0  0  0  0  0  0  0  0  0  0  0
    6.9302    2.8459  -11.4749 H   0  0  0  0  0  0  0  0  0  0  0  0
    7.1618    3.4604  -13.0883 H   0  0  0  0  0  0  0  0  0  0  0  0
    8.2014    3.6847  -11.2631 H   0  0  0  0  0  0  0  0  0  0  0  0
    8.1169    4.5336   -9.4060 H   0  0  0  0  0  0  0  0  0  0  0  0
    9.6101    4.1934  -10.3282 H   0  0  0  0  0  0  0  0  0  0  0  0
    9.1445    6.0911   -7.8789 H   0  0  0  0  0  0  0  0  0  0  0  0
   11.4407    7.5575   -9.4514 H   0  0  0  0  0  0  0  0  0  0  0  0
   11.6176    9.8919   -8.1679 H   0  0  0  0  0  0  0  0  0  0  0  0
   12.4010   10.7570   -5.9692 H   0  0  0  0  0  0  0  0  0  0  0  0
   10.6569    6.1887   -6.4100 H   0  0  0  0  0  0  0  0  0  0  0  0
   11.0563    5.6946   -4.3406 H   0  0  0  0  0  0  0  0  0  0  0  0
   11.5079    5.7299   -2.1410 H   0  0  0  0  0  0  0  0  0  0  0  0
   11.7033    7.8707   -1.1495 H   0  0  0  0  0  0  0  0  0  0  0  0
   13.3690    7.1796   -1.7721 H   0  0  0  0  0  0  0  0  0  0  0  0
   13.2442    9.5089   -1.8173 H   0  0  0  0  0  0  0  0  0  0  0  0
   12.9450   10.2825   -3.8726 H   0  0  0  0  0  0  0  0  0  0  0  0
   10.1495    7.9010  -11.0211 H   0  0  0  0  0  0  0  0  0  0  0  0
   10.9737    6.3288  -11.1645 H   0  0  0  0  0  0  0  0  0  0  0  0
    9.1170    7.5372  -13.0474 H   0  0  0  0  0  0  0  0  0  0  0  0
    9.8707    5.8981  -13.1455 H   0  0  0  0  0  0  0  0  0  0  0  0
    7.8080    6.8776  -11.7243 H   0  0  0  0  0  0  0  0  0  0  0  0
  1  2  1  0
  2  3  1  0
  2  4  1  0
  4  5  1  0
  5  6  1  0
  6  7  1  0
  7  8  1  0
  8  9  1  0
  9 10  1  0
 10 11  2  3
 11 12  1  0
 12 13  2  0
 13 14  1  0
 14 15  2  0
 15 16  1  0
 16 17  2  0
 16 18  1  0
 18 19  2  0
 19 20  1  0
 20 21  1  0
 21 22  2  0
  9 23  1  0
 23 24  1  0
 24 25  1  0
 25  2  1  0
 25  7  1  0
 17 12  1  0
 22 15  1  0
  5 26  1  0
  5 27  1  0
  6 28  1  0
  6 29  1  0
  7 30  1  6
  8 31  1  0
  8 32  1  0
 10 33  1  0
 11 34  1  0
 13 35  1  0
 14 36  1  0
 17 37  1  0
 18 38  1  0
 19 39  1  0
 20 40  1  0
 20 41  1  0
 21 42  1  0
 22 43  1  0
 23 44  1  0
 23 45  1  0
 24 46  1  0
 24 47  1  0
 25 48  1  1
M  END

>  <ID>
DiffSBDD_15_num_sample_100

>  <docking_score>
-11.948

$$$$
DiffSBDD_16_num_sample_100
     RDKit          3D

 53 56  0  0  0  0  0  0  0  0999 V2000
    8.4800    7.7400  -11.9540 C   0  0  0  0  0  0  0  0  0  0  0  0
    7.9010    6.0040  -12.3530 C   0  0  2  0  0  0  0  0  0  0  0  0
    9.1250    5.4050  -11.2020 C   0  0  0  0  0  0  0  0  0  0  0  0
    8.3600    4.9570  -10.0910 C   0  0  0  0  0  0  0  0  0  0  0  0
    8.9820    5.6060   -8.9960 C   0  0  0  0  0  0  0  0  0  0  0  0
    9.8950    6.4230   -8.8010 C   0  0  0  0  0  0  0  0  0  0  0  0
   10.0480    5.8520   -7.9390 C   0  0  0  0  0  0  0  0  0  0  0  0
   10.5870    6.1650   -6.7820 C   0  0  0  0  0  0  0  0  0  0  0  0
   11.4100    7.2600   -6.7070 C   0  0  0  0  0  0  0  0  0  0  0  0
   11.6330    8.0830   -7.9250 C   0  0  0  0  0  0  0  0  0  0  0  0
   12.4560    9.2260   -7.7920 N   0  0  0  0  0  0  0  0  0  0  0  0
   11.1610    7.5660   -8.8870 C   0  0  0  0  0  0  0  0  0  0  0  0
    8.1790    5.9530  -13.6580 N   0  0  0  0  0  0  0  0  0  0  0  0
    7.1100    6.0740  -14.5780 C   0  0  0  0  0  0  0  0  0  0  0  0
    7.8090    4.7450  -14.4200 C   0  0  1  0  0  0  0  0  0  0  0  0
    8.4290    4.1810  -15.7890 C   0  0  0  0  0  0  0  0  0  0  0  0
    7.2880    3.3680  -13.6930 C   0  0  1  0  0  0  0  0  0  0  0  0
    6.0380    3.4060  -13.1300 C   0  0  0  0  0  0  0  0  0  0  0  0
    5.3510    2.1940  -13.3820 C   0  0  0  0  0  0  0  0  0  0  0  0
    6.1070    0.9610  -13.1560 C   0  0  2  0  0  0  0  0  0  0  0  0
    7.5180    0.2680  -13.3700 C   0  0  0  0  0  0  0  0  0  0  0  0
    7.4210    1.4030  -13.9890 C   0  0  2  0  0  0  0  0  0  0  0  0
    7.4090    2.4220  -14.7320 O   0  0  0  0  0  0  0  0  0  0  0  0
    8.5234    7.8703  -10.8626 H   0  0  0  0  0  0  0  0  0  0  0  0
    9.4803    7.9005  -12.3825 H   0  0  0  0  0  0  0  0  0  0  0  0
    7.7763    8.4688  -12.3825 H   0  0  0  0  0  0  0  0  0  0  0  0
    6.9054    5.5467  -12.2545 H   0  0  0  0  0  0  0  0  0  0  0  0
    9.7014    4.5766  -11.6397 H   0  0  0  0  0  0  0  0  0  0  0  0
    9.8611    6.1748  -10.9271 H   0  0  0  0  0  0  0  0  0  0  0  0
    7.3076    5.2625  -10.1862 H   0  0  0  0  0  0  0  0  0  0  0  0
    8.3386    3.8617   -9.9917 H   0  0  0  0  0  0  0  0  0  0  0  0
    8.1277    6.1017   -8.5118 H   0  0  0  0  0  0  0  0  0  0  0  0
    9.6197    4.7406   -8.7626 H   0  0  0  0  0  0  0  0  0  0  0  0
    9.6982    4.8117   -8.0128 H   0  0  0  0  0  0  0  0  0  0  0  0
   10.3814    5.5584   -5.8877 H   0  0  0  0  0  0  0  0  0  0  0  0
   11.8986    7.5257   -5.7580 H   0  0  0  0  0  0  0  0  0  0  0  0
   12.4650    9.9440   -8.5310 H   0  0  0  0  0  0  0  0  0  0  0  0
   13.0460    9.3410   -6.9560 H   0  0  0  0  0  0  0  0  0  0  0  0
   11.5580    7.8364   -9.8766 H   0  0  0  0  0  0  0  0  0  0  0  0
    6.0810    6.1999  -14.2101 H   0  0  0  0  0  0  0  0  0  0  0  0
    6.8896    6.7377  -15.4271 H   0  0  0  0  0  0  0  0  0  0  0  0
    9.2249    3.4570  -15.5602 H   0  0  0  0  0  0  0  0  0  0  0  0
    7.6391    3.6854  -16.3725 H   0  0  0  0  0  0  0  0  0  0  0  0
    8.8479    5.0141  -16.3725 H   0  0  0  0  0  0  0  0  0  0  0  0
    7.8814    3.1397  -12.7954 H   0  0  0  0  0  0  0  0  0  0  0  0
    6.1331    3.5507  -12.0437 H   0  0  0  0  0  0  0  0  0  0  0  0
    5.4707    4.2386  -13.5716 H   0  0  0  0  0  0  0  0  0  0  0  0
    4.4657    2.1687  -12.7296 H   0  0  0  0  0  0  0  0  0  0  0  0
    5.1221    2.2048  -14.4579 H   0  0  0  0  0  0  0  0  0  0  0  0
    6.4438    1.3460  -12.1822 H   0  0  0  0  0  0  0  0  0  0  0  0
    8.2038    0.1902  -12.5135 H   0  0  0  0  0  0  0  0  0  0  0  0
    7.7938   -0.7367  -13.7229 H   0  0  0  0  0  0  0  0  0  0  0  0
    6.4384    1.1042  -14.3830 H   0  0  0  0  0  0  0  0  0  0  0  0
  1  2  1  0
  2  3  1  0
  3  4  1  0
  4  5  1  0
  5  6  1  0
  6  7  2  0
  7  8  1  0
  8  9  2  0
  9 10  1  0
 10 11  1  0
 10 12  2  0
  2 13  1  0
 13 14  1  0
 14 15  1  0
 15 16  1  6
 15 17  1  0
 17 18  1  0
 18 19  1  0
 19 20  1  0
 20 21  1  0
 21 22  1  0
 22 23  1  0
 12  6  1  0
 15 13  1  0
 23 17  1  0
 22 20  1  0
  1 24  1  0
  1 25  1  0
  1 26  1  0
  2 27  1  6
  3 28  1  0
  3 29  1  0
  4 30  1  0
  4 31  1  0
  5 32  1  0
  5 33  1  0
  7 34  1  0
  8 35  1  0
  9 36  1  0
 11 37  1  0
 11 38  1  0
 12 39  1  0
 14 40  1  0
 14 41  1  0
 16 42  1  0
 16 43  1  0
 16 44  1  0
 17 45  1  1
 18 46  1  0
 18 47  1  0
 19 48  1  0
 19 49  1  0
 20 50  1  6
 21 51  1  0
 21 52  1  0
 22 53  1  1
M  END

>  <ID>
DiffSBDD_16_num_sample_100

>  <docking_score>
-8.258

$$$$
DiffSBDD_17_num_sample_100
     RDKit          3D

 55 57  0  0  0  0  0  0  0  0999 V2000
   11.2310    6.9680  -11.8330 C   0  0  0  0  0  0  0  0  0  0  0  0
    9.7010    6.9840  -11.4240 C   0  0  2  0  0  0  0  0  0  0  0  0
    9.7980    7.5520  -10.0100 C   0  0  0  0  0  0  0  0  0  0  0  0
    9.0830    6.7730   -8.9930 N   0  0  0  0  0  0  0  0  0  0  0  0
    9.8540    6.1800   -8.1870 C   0  0  0  0  0  0  0  0  0  0  0  0
   10.4620    6.3920   -7.1560 C   0  0  0  0  0  0  0  0  0  0  0  0
   10.9360    7.2560   -6.1210 C   0  0  0  0  0  0  0  0  0  0  0  0
   11.2580    8.6000   -6.2580 C   0  0  0  0  0  0  0  0  0  0  0  0
   11.8660    9.3290   -5.2100 C   0  0  0  0  0  0  0  0  0  0  0  0
   12.0670    8.6900   -3.9600 C   0  0  0  0  0  0  0  0  0  0  0  0
   11.7200    7.2790   -3.8180 C   0  0  0  0  0  0  0  0  0  0  0  0
   11.0960    6.5780   -4.8490 C   0  0  0  0  0  0  0  0  0  0  0  0
   12.0770    6.7770   -2.4820 C   0  0  0  0  0  0  0  0  0  0  0  0
   12.8600    7.9200   -1.8350 C   0  0  0  0  0  0  0  0  0  0  0  0
   12.6400    9.1410   -2.7480 N   0  0  0  0  0  0  0  0  0  0  0  0
    9.2350    5.4860  -11.6420 C   0  0  0  0  0  0  0  0  0  0  0  0
    7.8810    5.5440  -12.1460 N   0  0  0  0  0  0  0  0  0  0  0  0
    7.2080    5.5700  -11.3870 N   0  0  0  0  0  0  0  0  0  0  0  0
    6.6870    5.3010  -10.5180 O   0  0  0  0  0  0  0  0  0  0  0  0
    7.3810    5.9210  -13.4430 C   0  0  0  0  0  0  0  0  0  0  0  0
    7.8660    5.1540  -14.5770 C   0  0  0  0  0  0  0  0  0  0  0  0
    7.1610    5.2820  -15.7660 C   0  0  0  0  0  0  0  0  0  0  0  0
    6.4910    6.3980  -16.1420 C   0  0  0  0  0  0  0  0  0  0  0  0
    5.9530    7.1650  -14.8930 C   0  0  1  0  0  0  0  0  0  0  0  0
    5.0690    8.0290  -15.6350 F   0  0  0  0  0  0  0  0  0  0  0  0
    6.3940    6.9450  -13.5260 C   0  0  0  0  0  0  0  0  0  0  0  0
   11.8530    6.9615  -10.9258 H   0  0  0  0  0  0  0  0  0  0  0  0
   11.4419    6.0676  -12.4286 H   0  0  0  0  0  0  0  0  0  0  0  0
   11.4607    7.8638  -12.4286 H   0  0  0  0  0  0  0  0  0  0  0  0
    8.9509    7.5796  -11.9648 H   0  0  0  0  0  0  0  0  0  0  0  0
   10.8604    7.5929   -9.7279 H   0  0  0  0  0  0  0  0  0  0  0  0
    9.3227    8.5437  -10.0370 H   0  0  0  0  0  0  0  0  0  0  0  0
    8.0560    6.7140   -8.9420 H   0  0  0  0  0  0  0  0  0  0  0  0
   10.0306    5.1478   -8.5239 H   0  0  0  0  0  0  0  0  0  0  0  0
   10.8495    5.4028   -6.8709 H   0  0  0  0  0  0  0  0  0  0  0  0
   11.0343    9.1106   -7.2063 H   0  0  0  0  0  0  0  0  0  0  0  0
   12.1775   10.3730   -5.3616 H   0  0  0  0  0  0  0  0  0  0  0  0
   10.7381    5.5482   -4.7030 H   0  0  0  0  0  0  0  0  0  0  0  0
   11.1727    6.5476   -1.8993 H   0  0  0  0  0  0  0  0  0  0  0  0
   12.6615    5.8463   -2.5293 H   0  0  0  0  0  0  0  0  0  0  0  0
   12.4781    8.1229   -0.8236 H   0  0  0  0  0  0  0  0  0  0  0  0
   13.9275    7.6754   -1.7323 H   0  0  0  0  0  0  0  0  0  0  0  0
   12.8710   10.1180   -2.5160 H   0  0  0  0  0  0  0  0  0  0  0  0
    9.8903    4.9869  -12.3710 H   0  0  0  0  0  0  0  0  0  0  0  0
    9.2849    4.9144  -10.7035 H   0  0  0  0  0  0  0  0  0  0  0  0
    6.3760    5.6180  -11.9920 H   0  0  0  0  0  0  0  0  0  0  0  0
    7.1530    4.5490  -10.0730 H   0  0  0  0  0  0  0  0  0  0  0  0
    8.7492    4.5032  -14.4975 H   0  0  0  0  0  0  0  0  0  0  0  0
    7.8919    5.0917  -16.5657 H   0  0  0  0  0  0  0  0  0  0  0  0
    6.3239    4.5923  -15.5831 H   0  0  0  0  0  0  0  0  0  0  0  0
    7.1707    7.0551  -16.7043 H   0  0  0  0  0  0  0  0  0  0  0  0
    5.6380    6.1036  -16.7711 H   0  0  0  0  0  0  0  0  0  0  0  0
    6.7620    7.9029  -14.9976 H   0  0  0  0  0  0  0  0  0  0  0  0
    6.8193    7.8810  -13.1348 H   0  0  0  0  0  0  0  0  0  0  0  0
    5.5229    6.6267  -12.9345 H   0  0  0  0  0  0  0  0  0  0  0  0
  1  2  1  0
  2  3  1  0
  3  4  1  0
  4  5  1  0
  5  6  2  3
  6  7  1  0
  7  8  2  0
  8  9  1  0
  9 10  2  0
 10 11  1  0
 11 12  2  0
 11 13  1  0
 13 14  1  0
 14 15  1  0
  2 16  1  0
 16 17  1  0
 17 18  1  0
 18 19  1  0
 17 20  1  0
 20 21  2  0
 21 22  1  0
 22 23  1  0
 23 24  1  0
 24 25  1  0
 24 26  1  0
 12  7  1  0
 26 20  1  0
 15 10  1  0
  1 27  1  0
  1 28  1  0
  1 29  1  0
  2 30  1  6
  3 31  1  0
  3 32  1  0
  4 33  1  0
  5 34  1  0
  6 35  1  0
  8 36  1  0
  9 37  1  0
 12 38  1  0
 13 39  1  0
 13 40  1  0
 14 41  1  0
 14 42  1  0
 15 43  1  0
 16 44  1  0
 16 45  1  0
 18 46  1  0
 19 47  1  0
 21 48  1  0
 22 49  1  0
 22 50  1  0
 23 51  1  0
 23 52  1  0
 24 53  1  1
 26 54  1  0
 26 55  1  0
M  END

>  <ID>
DiffSBDD_17_num_sample_100

>  <docking_score>
-10.19

$$$$
DiffSBDD_18_num_sample_100
     RDKit          3D

 53 56  0  0  0  0  0  0  0  0999 V2000
    6.3890    2.1660  -13.8510 C   0  0  0  0  0  0  0  0  0  0  0  0
    7.2790    3.1180  -13.8880 O   0  0  0  0  0  0  0  0  0  0  0  0
    7.2400    4.3140  -14.6660 C   0  0  2  0  0  0  0  0  0  0  0  0
    8.6630    4.6110  -14.9710 C   0  0  0  0  0  0  0  0  0  0  0  0
    6.3080    5.3270  -13.9510 C   0  0  1  0  0  0  0  0  0  0  0  0
    6.9200    5.9070  -12.8390 C   0  0  2  0  0  0  0  0  0  0  0  0
    8.1690    4.8190  -11.7760 S   0  0  0  0  0  0  0  0  0  0  0  0
    8.9700    5.6970  -10.7430 C   0  0  0  0  0  0  0  0  0  0  0  0
    9.6940    6.8400  -11.1560 C   0  0  0  0  0  0  0  0  0  0  0  0
   10.4830    7.6590  -10.3540 C   0  0  0  0  0  0  0  0  0  0  0  0
   10.4230    7.2900   -8.8950 C   0  0  0  0  0  0  0  0  0  0  0  0
    9.6510    6.2000   -8.5160 C   0  0  0  0  0  0  0  0  0  0  0  0
    9.0020    5.3490   -9.3100 C   0  0  0  0  0  0  0  0  0  0  0  0
    9.8060    6.1090   -7.1090 O   0  0  0  0  0  0  0  0  0  0  0  0
   10.9850    6.7230   -6.7480 C   0  0  0  0  0  0  0  0  0  0  0  0
   11.1710    7.7210   -7.8270 N   0  0  0  0  0  0  0  0  0  0  0  0
   11.9940    8.8260   -7.8530 C   0  0  0  0  0  0  0  0  0  0  0  0
   11.9520    9.4300   -6.4820 C   0  0  0  0  0  0  0  0  0  0  0  0
   13.0710    9.5850   -5.9720 O   0  0  0  0  0  0  0  0  0  0  0  0
   10.9180    9.9240   -6.0820 O   0  0  0  0  0  0  0  0  0  0  0  0
    6.0990    7.4290  -13.2790 S   0  0  0  0  0  0  0  0  0  0  0  0
    5.8660    6.7970  -14.7560 C   0  0  1  0  0  0  0  0  0  0  0  0
    5.7950    6.7020  -16.2180 N   0  0  0  0  0  0  0  0  0  0  0  0
    6.7800    6.6120  -17.3520 C   0  0  0  0  0  0  0  0  0  0  0  0
    6.5380    5.2350  -18.0410 C   0  0  0  0  0  0  0  0  0  0  0  0
    5.3180    5.2370  -18.8050 O   0  0  0  0  0  0  0  0  0  0  0  0
    4.6060    6.2440  -18.2700 C   0  0  0  0  0  0  0  0  0  0  0  0
    4.4760    7.0070  -16.9570 C   0  0  0  0  0  0  0  0  0  0  0  0
    6.1588    1.9198  -12.8039 H   0  0  0  0  0  0  0  0  0  0  0  0
    5.4726    2.5009  -14.3589 H   0  0  0  0  0  0  0  0  0  0  0  0
    6.7847    1.2741  -14.3589 H   0  0  0  0  0  0  0  0  0  0  0  0
    6.7639    4.2953  -15.6574 H   0  0  0  0  0  0  0  0  0  0  0  0
    9.2227    4.7278  -14.0313 H   0  0  0  0  0  0  0  0  0  0  0  0
    9.0936    3.7834  -15.5538 H   0  0  0  0  0  0  0  0  0  0  0  0
    8.7266    5.5418  -15.5538 H   0  0  0  0  0  0  0  0  0  0  0  0
    5.4472    4.6569  -13.8099 H   0  0  0  0  0  0  0  0  0  0  0  0
    7.7532    6.2438  -13.4733 H   0  0  0  0  0  0  0  0  0  0  0  0
    9.6263    7.1090  -12.2204 H   0  0  0  0  0  0  0  0  0  0  0  0
   11.0881    8.4901  -10.7453 H   0  0  0  0  0  0  0  0  0  0  0  0
    8.5189    4.4410   -8.9199 H   0  0  0  0  0  0  0  0  0  0  0  0
   10.8945    7.2112   -5.7664 H   0  0  0  0  0  0  0  0  0  0  0  0
   11.8292    6.0252   -6.6461 H   0  0  0  0  0  0  0  0  0  0  0  0
   13.0224    8.5264   -8.1034 H   0  0  0  0  0  0  0  0  0  0  0  0
   11.6608    9.5483   -8.6127 H   0  0  0  0  0  0  0  0  0  0  0  0
    5.3415    7.5812  -15.3216 H   0  0  0  0  0  0  0  0  0  0  0  0
    6.6110    7.4299  -18.0679 H   0  0  0  0  0  0  0  0  0  0  0  0
    7.8144    6.6980  -16.9878 H   0  0  0  0  0  0  0  0  0  0  0  0
    7.3810    5.0183  -18.7135 H   0  0  0  0  0  0  0  0  0  0  0  0
    6.4551    4.4663  -17.2586 H   0  0  0  0  0  0  0  0  0  0  0  0
    4.8159    7.0600  -18.9772 H   0  0  0  0  0  0  0  0  0  0  0  0
    3.7581    5.5854  -18.0305 H   0  0  0  0  0  0  0  0  0  0  0  0
    4.3709    8.0865  -17.1405 H   0  0  0  0  0  0  0  0  0  0  0  0
    3.5880    6.7096  -16.3799 H   0  0  0  0  0  0  0  0  0  0  0  0
  1  2  1  0
  2  3  1  0
  3  4  1  0
  3  5  1  0
  5  6  1  0
  6  7  1  0
  7  8  1  0
  8  9  2  0
  9 10  1  0
 10 11  2  0
 11 12  1  0
 12 13  2  0
 12 14  1  0
 14 15  1  0
 15 16  1  0
 16 17  1  0
 17 18  1  0
 18 19  2  0
 18 20  1  0
  6 21  1  0
 21 22  1  0
 22 23  1  0
 23 24  1  0
 24 25  1  0
 25 26  1  0
 26 27  1  0
 27 28  1  0
 22  5  1  0
 28 23  1  0
 13  8  1  0
 16 11  1  0
  1 29  1  0
  1 30  1  0
  1 31  1  0
  3 32  1  6
  4 33  1  0
  4 34  1  0
  4 35  1  0
  5 36  1  1
  6 37  1  1
  9 38  1  0
 10 39  1  0
 13 40  1  0
 15 41  1  0
 15 42  1  0
 17 43  1  0
 17 44  1  0
 22 45  1  1
 24 46  1  0
 24 47  1  0
 25 48  1  0
 25 49  1  0
 27 50  1  0
 27 51  1  0
 28 52  1  0
 28 53  1  0
M  CHG  1  20  -1
M  END

>  <ID>
DiffSBDD_18_num_sample_100

>  <docking_score>
-7.806

$$$$
DiffSBDD_19_num_sample_100
     RDKit          3D

 54 57  0  0  0  0  0  0  0  0999 V2000
    6.0550    3.4390  -11.9810 C   0  0  0  0  0  0  0  0  0  0  0  0
    7.1250    4.2490  -12.6980 C   0  0  2  0  0  0  0  0  0  0  0  0
    7.1550    5.7200  -12.4530 C   0  0  2  0  0  0  0  0  0  0  0  0
    7.5040    5.7270  -10.9570 N   0  0  0  0  0  0  0  0  0  0  0  0
    8.6750    5.7460  -10.2970 C   0  0  0  0  0  0  0  0  0  0  0  0
    9.1300    4.7030   -9.9210 O   0  0  0  0  0  0  0  0  0  0  0  0
    9.2880    6.9650   -9.9050 N   0  0  0  0  0  0  0  0  0  0  0  0
   10.1590    7.1250   -8.7540 C   0  0  2  0  0  0  0  0  0  0  0  0
    9.2690    7.0440   -7.5320 C   0  0  0  0  0  0  0  0  0  0  0  0
   10.4720    7.0890   -6.6570 C   0  0  2  0  0  0  0  0  0  0  0  0
   10.7580    6.5340   -5.4590 O   0  0  0  0  0  0  0  0  0  0  0  0
   11.4840    7.1540   -4.4780 C   0  0  0  0  0  0  0  0  0  0  0  0
   11.7070    6.5080   -3.2100 C   0  0  0  0  0  0  0  0  0  0  0  0
   12.3930    7.2010   -2.1880 C   0  0  0  0  0  0  0  0  0  0  0  0
   12.7520    8.5800   -2.4190 C   0  0  0  0  0  0  0  0  0  0  0  0
   12.5440    9.1700   -3.6260 C   0  0  0  0  0  0  0  0  0  0  0  0
   11.9100    8.5060   -4.7190 C   0  0  0  0  0  0  0  0  0  0  0  0
   11.7120    9.0660   -6.0540 C   0  0  0  0  0  0  0  0  0  0  0  0
   12.0780   10.1390   -6.3400 O   0  0  0  0  0  0  0  0  0  0  0  0
   11.2650    8.2140   -7.0030 N   0  0  0  0  0  0  0  0  0  0  0  0
   11.0060    8.3530   -8.4740 C   0  0  1  0  0  0  0  0  0  0  0  0
   12.3960    8.1960   -9.2870 C   0  0  0  0  0  0  0  0  0  0  0  0
    6.1940    6.1950  -13.5700 C   0  0  1  0  0  0  0  0  0  0  0  0
    6.2940    7.6400  -14.0040 C   0  0  0  0  0  0  0  0  0  0  0  0
    6.7820    5.1840  -15.0260 S   0  0  0  0  0  0  0  0  0  0  0  0
    6.8810    3.8680  -13.8620 C   0  0  1  0  0  0  0  0  0  0  0  0
    7.3490    2.5130  -14.6300 C   0  0  0  0  0  0  0  0  0  0  0  0
    6.1868    3.5388  -10.8935 H   0  0  0  0  0  0  0  0  0  0  0  0
    5.0602    3.8124  -12.2656 H   0  0  0  0  0  0  0  0  0  0  0  0
    6.1444    2.3802  -12.2656 H   0  0  0  0  0  0  0  0  0  0  0  0
    8.1540    4.0747  -12.3506 H   0  0  0  0  0  0  0  0  0  0  0  0
    7.7263    6.6521  -12.5747 H   0  0  0  0  0  0  0  0  0  0  0  0
    6.6800    5.7150  -10.3400 H   0  0  0  0  0  0  0  0  0  0  0  0
    9.1010    7.7980  -10.4810 H   0  0  0  0  0  0  0  0  0  0  0  0
   10.9091    6.3561   -8.9912 H   0  0  0  0  0  0  0  0  0  0  0  0
    8.5925    7.9029   -7.4108 H   0  0  0  0  0  0  0  0  0  0  0  0
    8.5347    6.2314   -7.4295 H   0  0  0  0  0  0  0  0  0  0  0  0
   10.5884    6.0083   -6.8262 H   0  0  0  0  0  0  0  0  0  0  0  0
   11.3459    5.4831   -3.0389 H   0  0  0  0  0  0  0  0  0  0  0  0
   12.6470    6.7028   -1.2408 H   0  0  0  0  0  0  0  0  0  0  0  0
   13.2023    9.1644   -1.6031 H   0  0  0  0  0  0  0  0  0  0  0  0
   12.8801   10.2079   -3.7669 H   0  0  0  0  0  0  0  0  0  0  0  0
   10.5504    9.3135   -8.7564 H   0  0  0  0  0  0  0  0  0  0  0  0
   13.2288    8.1019   -8.5746 H   0  0  0  0  0  0  0  0  0  0  0  0
   12.3513    7.2972   -9.9196 H   0  0  0  0  0  0  0  0  0  0  0  0
   12.5529    9.0821   -9.9196 H   0  0  0  0  0  0  0  0  0  0  0  0
    5.1593    6.0840  -13.2135 H   0  0  0  0  0  0  0  0  0  0  0  0
    6.3388    8.2874  -13.1158 H   0  0  0  0  0  0  0  0  0  0  0  0
    7.2040    7.7799  -14.6060 H   0  0  0  0  0  0  0  0  0  0  0  0
    5.4120    7.9039  -14.6060 H   0  0  0  0  0  0  0  0  0  0  0  0
    5.9793    3.4038  -13.4361 H   0  0  0  0  0  0  0  0  0  0  0  0
    7.6144    1.7446  -13.8890 H   0  0  0  0  0  0  0  0  0  0  0  0
    6.5256    2.1457  -15.2602 H   0  0  0  0  0  0  0  0  0  0  0  0
    8.2235    2.7322  -15.2602 H   0  0  0  0  0  0  0  0  0  0  0  0
  1  2  1  0
  2  3  1  0
  3  4  1  0
  4  5  1  0
  5  6  2  0
  5  7  1  0
  7  8  1  0
  8  9  1  0
  9 10  1  0
 10 11  1  0
 11 12  1  0
 12 13  2  0
 13 14  1  0
 14 15  2  0
 15 16  1  0
 16 17  2  0
 17 18  1  0
 18 19  2  0
 18 20  1  0
 20 21  1  0
 21 22  1  0
  3 23  1  0
 23 24  1  0
 23 25  1  0
 25 26  1  0
 26 27  1  0
 26  2  1  0
 21  8  1  0
 20 10  1  0
 17 12  1  0
  1 28  1  0
  1 29  1  0
  1 30  1  0
  2 31  1  1
  3 32  1  6
  4 33  1  0
  7 34  1  0
  8 35  1  1
  9 36  1  0
  9 37  1  0
 10 38  1  6
 13 39  1  0
 14 40  1  0
 15 41  1  0
 16 42  1  0
 21 43  1  1
 22 44  1  0
 22 45  1  0
 22 46  1  0
 23 47  1  1
 24 48  1  0
 24 49  1  0
 24 50  1  0
 26 51  1  1
 27 52  1  0
 27 53  1  0
 27 54  1  0
M  END

>  <ID>
DiffSBDD_19_num_sample_100

>  <docking_score>
-12.108

$$$$
DiffSBDD_1_num_sample_100
     RDKit          3D

 37 38  0  0  0  0  0  0  0  0999 V2000
   13.7290    8.4000   -8.6240 O   0  0  0  0  0  0  0  0  0  0  0  0
   12.2540    8.6600   -8.5920 C   0  0  1  0  0  0  0  0  0  0  0  0
   11.5590    8.3300   -9.8360 C   0  0  0  0  0  0  0  0  0  0  0  0
   10.4620    7.2700   -9.9270 C   0  0  0  0  0  0  0  0  0  0  0  0
    9.5270    8.1400   -9.2140 O   0  0  0  0  0  0  0  0  0  0  0  0
    9.2180    7.9020   -7.7870 C   0  0  2  0  0  0  0  0  0  0  0  0
   10.1070    8.7020   -6.8880 C   0  0  0  0  0  0  0  0  0  0  0  0
   11.6080    8.3840   -7.0920 C   0  0  2  0  0  0  0  0  0  0  0  0
   12.4330    9.7490   -6.4720 C   0  0  0  0  0  0  0  0  0  0  0  0
   12.9700    9.5880   -5.0060 C   0  0  0  0  0  0  0  0  0  0  0  0
   11.8840    9.5830   -3.9460 P   0  0  0  0  0  0  0  0  0  0  0  0
   10.9040   10.6740   -3.8720 O   0  0  0  0  0  0  0  0  0  0  0  0
   12.3770    9.6060   -2.5230 O   0  0  0  0  0  0  0  0  0  0  0  0
   11.6290    6.7280   -7.0960 C   0  0  0  0  0  0  0  0  0  0  0  0
   10.3940    6.1040   -6.4790 C   0  0  0  0  0  0  0  0  0  0  0  0
    9.1750    6.4680   -7.3430 C   0  0  2  0  0  0  0  0  0  0  0  0
    8.7820    5.3310   -8.5890 Cl  0  0  0  0  0  0  0  0  0  0  0  0
   14.1450    8.9450   -9.3370 H   0  0  0  0  0  0  0  0  0  0  0  0
   12.0272    9.7345   -8.6561 H   0  0  0  0  0  0  0  0  0  0  0  0
   11.1020    9.2680  -10.1844 H   0  0  0  0  0  0  0  0  0  0  0  0
   12.3654    7.8587  -10.4170 H   0  0  0  0  0  0  0  0  0  0  0  0
   10.1545    7.0349  -10.9566 H   0  0  0  0  0  0  0  0  0  0  0  0
   10.6525    6.2513   -9.5582 H   0  0  0  0  0  0  0  0  0  0  0  0
    8.1785    8.2500   -7.6956 H   0  0  0  0  0  0  0  0  0  0  0  0
    9.9432    9.7705   -7.0917 H   0  0  0  0  0  0  0  0  0  0  0  0
    9.8509    8.4407   -5.8506 H   0  0  0  0  0  0  0  0  0  0  0  0
   13.2904    9.9573   -7.1289 H   0  0  0  0  0  0  0  0  0  0  0  0
   11.6976   10.5665   -6.4428 H   0  0  0  0  0  0  0  0  0  0  0  0
   13.5199    8.6375   -4.9419 H   0  0  0  0  0  0  0  0  0  0  0  0
   13.6072   10.4615   -4.8036 H   0  0  0  0  0  0  0  0  0  0  0  0
   10.5460   10.8590   -4.7770 H   0  0  0  0  0  0  0  0  0  0  0  0
   11.8180   10.2260   -1.9900 H   0  0  0  0  0  0  0  0  0  0  0  0
   11.7090    6.3838   -8.1377 H   0  0  0  0  0  0  0  0  0  0  0  0
   12.4882    6.4149   -6.4846 H   0  0  0  0  0  0  0  0  0  0  0  0
   10.5097    5.0107   -6.4437 H   0  0  0  0  0  0  0  0  0  0  0  0
   10.2545    6.4814   -5.4552 H   0  0  0  0  0  0  0  0  0  0  0  0
    8.3032    6.3775   -6.6783 H   0  0  0  0  0  0  0  0  0  0  0  0
  1  2  1  0
  2  3  1  0
  3  4  1  0
  4  5  1  0
  5  6  1  0
  6  7  1  0
  7  8  1  0
  8  9  1  1
  9 10  1  0
 10 11  1  0
 11 12  1  0
 11 13  1  0
  8 14  1  0
 14 15  1  0
 15 16  1  0
 16 17  1  0
  8  2  1  0
 16  6  1  0
  1 18  1  0
  2 19  1  6
  3 20  1  0
  3 21  1  0
  4 22  1  0
  4 23  1  0
  6 24  1  6
  7 25  1  0
  7 26  1  0
  9 27  1  0
  9 28  1  0
 10 29  1  0
 10 30  1  0
 12 31  1  0
 13 32  1  0
 14 33  1  0
 14 34  1  0
 15 35  1  0
 15 36  1  0
 16 37  1  1
M  END

>  <ID>
DiffSBDD_1_num_sample_100

>  <docking_score>
-7.636

$$$$
DiffSBDD_20_num_sample_100
     RDKit          3D

 52 53  0  0  0  0  0  0  0  0999 V2000
    9.2830    7.4770  -11.4870 C   0  0  0  0  0  0  0  0  0  0  0  0
    9.6690    6.4600  -10.4520 C   0  0  1  0  0  0  0  0  0  0  0  0
   10.1490    7.1230   -9.1420 C   0  0  0  0  0  0  0  0  0  0  0  0
    9.7410    6.6710   -7.9040 C   0  0  0  0  0  0  0  0  0  0  0  0
   10.9340    6.4520   -7.0110 C   0  0  0  0  0  0  0  0  0  0  0  0
   11.0860    6.5860   -5.7480 C   0  0  0  0  0  0  0  0  0  0  0  0
   11.5910    7.1940   -4.5860 C   0  0  0  0  0  0  0  0  0  0  0  0
   11.7120    6.5450   -3.4170 C   0  0  0  0  0  0  0  0  0  0  0  0
   12.1680    7.1710   -2.3260 C   0  0  0  0  0  0  0  0  0  0  0  0
   12.4370    8.5500   -2.3140 C   0  0  0  0  0  0  0  0  0  0  0  0
   12.3220    9.1760   -3.5780 C   0  0  0  0  0  0  0  0  0  0  0  0
   11.9260    8.5280   -4.7170 C   0  0  0  0  0  0  0  0  0  0  0  0
    8.3360    5.4060  -10.1750 S   0  0  0  0  0  0  0  0  0  0  0  0
    7.0730    4.7590  -11.2680 C   0  0  0  0  0  0  0  0  0  0  0  0
    6.0610    4.4960  -10.8290 O   0  0  0  0  0  0  0  0  0  0  0  0
    7.4160    4.6590  -12.7690 C   0  0  1  0  0  0  0  0  0  0  0  0
    7.3200    3.1920  -13.2940 C   0  0  0  0  0  0  0  0  0  0  0  0
    7.5370    3.1720  -14.7570 C   0  0  0  0  0  0  0  0  0  0  0  0
    8.1310    4.4000  -15.2520 C   0  0  0  0  0  0  0  0  0  0  0  0
    7.0340    5.5100  -15.0640 C   0  0  0  0  0  0  0  0  0  0  0  0
    6.3840    5.2610  -13.6990 C   0  0  2  0  0  0  0  0  0  0  0  0
    6.1360    6.7730  -13.1250 C   0  0  0  0  0  0  0  0  0  0  0  0
    8.9351    8.3937  -10.9884 H   0  0  0  0  0  0  0  0  0  0  0  0
   10.1553    7.7099  -12.1154 H   0  0  0  0  0  0  0  0  0  0  0  0
    8.4759    7.0725  -12.1154 H   0  0  0  0  0  0  0  0  0  0  0  0
   10.5208    5.8755  -10.8299 H   0  0  0  0  0  0  0  0  0  0  0  0
   11.2470    7.0576   -9.1476 H   0  0  0  0  0  0  0  0  0  0  0  0
    9.6736    8.1135   -9.1956 H   0  0  0  0  0  0  0  0  0  0  0  0
    9.0762    7.4179   -7.4455 H   0  0  0  0  0  0  0  0  0  0  0  0
    9.2060    5.7179   -8.0283 H   0  0  0  0  0  0  0  0  0  0  0  0
   11.2087    5.4031   -7.1963 H   0  0  0  0  0  0  0  0  0  0  0  0
   11.4811    7.3606   -7.3030 H   0  0  0  0  0  0  0  0  0  0  0  0
   10.0196    6.6498   -5.4858 H   0  0  0  0  0  0  0  0  0  0  0  0
   12.0539    6.0736   -5.8513 H   0  0  0  0  0  0  0  0  0  0  0  0
   11.4321    5.4830   -3.3553 H   0  0  0  0  0  0  0  0  0  0  0  0
   12.3377    6.5874   -1.4091 H   0  0  0  0  0  0  0  0  0  0  0  0
   12.7134    9.0964   -1.4002 H   0  0  0  0  0  0  0  0  0  0  0  0
   12.5652   10.2464   -3.6495 H   0  0  0  0  0  0  0  0  0  0  0  0
   11.8770    9.0434   -5.6876 H   0  0  0  0  0  0  0  0  0  0  0  0
    8.4019    5.1464  -12.7917 H   0  0  0  0  0  0  0  0  0  0  0  0
    8.0873    2.5764  -12.8019 H   0  0  0  0  0  0  0  0  0  0  0  0
    6.3221    2.7882  -13.0677 H   0  0  0  0  0  0  0  0  0  0  0  0
    8.2059    2.3338  -15.0021 H   0  0  0  0  0  0  0  0  0  0  0  0
    6.5535    3.0616  -15.2372 H   0  0  0  0  0  0  0  0  0  0  0  0
    9.0326    4.6501  -14.6736 H   0  0  0  0  0  0  0  0  0  0  0  0
    8.4377    4.3069  -16.3043 H   0  0  0  0  0  0  0  0  0  0  0  0
    7.4966    6.5077  -15.0871 H   0  0  0  0  0  0  0  0  0  0  0  0
    6.2875    5.4687  -15.8708 H   0  0  0  0  0  0  0  0  0  0  0  0
    5.4939    4.6184  -13.7682 H   0  0  0  0  0  0  0  0  0  0  0  0
    6.1393    6.7528  -12.0252 H   0  0  0  0  0  0  0  0  0  0  0  0
    6.9373    7.4367  -13.4820 H   0  0  0  0  0  0  0  0  0  0  0  0
    5.1647    7.1460  -13.4820 H   0  0  0  0  0  0  0  0  0  0  0  0
  1  2  1  0
  2  3  1  0
  3  4  1  0
  4  5  1  0
  5  6  1  0
  6  7  1  0
  7  8  2  0
  8  9  1  0
  9 10  2  0
 10 11  1  0
 11 12  2  0
  2 13  1  0
 13 14  1  0
 14 15  2  0
 14 16  1  0
 16 17  1  0
 17 18  1  0
 18 19  1  0
 19 20  1  0
 20 21  1  0
 21 22  1  0
 12  7  1  0
 21 16  1  0
  1 23  1  0
  1 24  1  0
  1 25  1  0
  2 26  1  6
  3 27  1  0
  3 28  1  0
  4 29  1  0
  4 30  1  0
  5 31  1  0
  5 32  1  0
  6 33  1  0
  6 34  1  0
  8 35  1  0
  9 36  1  0
 10 37  1  0
 11 38  1  0
 12 39  1  0
 16 40  1  1
 17 41  1  0
 17 42  1  0
 18 43  1  0
 18 44  1  0
 19 45  1  0
 19 46  1  0
 20 47  1  0
 20 48  1  0
 21 49  1  6
 22 50  1  0
 22 51  1  0
 22 52  1  0
M  END

>  <ID>
DiffSBDD_20_num_sample_100

>  <docking_score>
-8.923

$$$$
DiffSBDD_21_num_sample_100
     RDKit          3D

 68 72  0  0  0  0  0  0  0  0999 V2000
    5.3620    2.7320  -19.7000 C   0  0  0  0  0  0  0  0  0  0  0  0
    6.1010    1.8590  -18.6820 C   0  0  1  0  0  0  0  0  0  0  0  0
    6.5220    2.8410  -17.4800 C   0  0  0  0  0  0  0  0  0  0  0  0
    7.4700    3.2850  -16.1590 C   0  0  0  0  0  0  0  0  0  0  0  0
    7.7670    4.6440  -15.9570 C   0  0  0  0  0  0  0  0  0  0  0  0
    8.0560    5.0390  -14.6160 C   0  0  0  0  0  0  0  0  0  0  0  0
    8.1770    4.0100  -13.6420 C   0  0  0  0  0  0  0  0  0  0  0  0
    8.7270    4.3160  -12.3870 O   0  0  0  0  0  0  0  0  0  0  0  0
    7.9160    4.8240  -11.3410 C   0  0  0  0  0  0  0  0  0  0  0  0
    8.6060    4.7850  -10.0030 C   0  0  1  0  0  0  0  0  0  0  0  0
    9.1310    4.4480   -8.9620 C   0  0  0  0  0  0  0  0  0  0  0  0
    8.8010    5.8960   -9.1490 C   0  0  1  0  0  0  0  0  0  0  0  0
    9.9750    6.6480   -8.6590 C   0  0  0  0  0  0  0  0  0  0  0  0
   10.4500    6.6180   -7.3100 C   0  0  0  0  0  0  0  0  0  0  0  0
   11.4570    7.5400   -6.8780 C   0  0  0  0  0  0  0  0  0  0  0  0
   12.1700    8.3410   -7.7580 C   0  0  0  0  0  0  0  0  0  0  0  0
   13.1150    9.1310   -7.3610 F   0  0  0  0  0  0  0  0  0  0  0  0
   11.8330    8.2840   -9.1650 C   0  0  0  0  0  0  0  0  0  0  0  0
   10.7520    7.4930   -9.5250 C   0  0  0  0  0  0  0  0  0  0  0  0
   10.4370    7.3990  -10.8290 F   0  0  0  0  0  0  0  0  0  0  0  0
    7.7710    2.6390  -13.8870 C   0  0  0  0  0  0  0  0  0  0  0  0
    7.8280    1.6700  -12.9170 O   0  0  0  0  0  0  0  0  0  0  0  0
    7.6230    2.2600  -15.2160 C   0  0  0  0  0  0  0  0  0  0  0  0
    7.5470    0.7870  -15.6870 C   0  0  2  0  0  0  0  0  0  0  0  0
    7.1290   -0.0940  -14.7310 O   0  0  0  0  0  0  0  0  0  0  0  0
    8.1050    0.0080  -16.7680 C   0  0  0  0  0  0  0  0  0  0  0  0
    7.2780   -0.8970  -17.4820 C   0  0  0  0  0  0  0  0  0  0  0  0
    5.8830   -0.7810  -18.2370 C   0  0  2  0  0  0  0  0  0  0  0  0
    4.7190   -0.7780  -17.1120 C   0  0  0  0  0  0  0  0  0  0  0  0
    5.0340   -1.9670  -19.4490 S   0  0  0  0  0  0  0  0  0  0  0  0
    6.0510   -2.6200  -20.7710 C   0  0  0  0  0  0  0  0  0  0  0  0
    7.2760   -1.4940  -20.4610 C   0  0  0  0  0  0  0  0  0  0  0  0
    8.1110   -1.5630  -21.6660 F   0  0  0  0  0  0  0  0  0  0  0  0
    8.1350   -2.4650  -19.5500 F   0  0  0  0  0  0  0  0  0  0  0  0
    6.9380    0.0920  -20.3850 C   0  0  0  0  0  0  0  0  0  0  0  0
    6.2940    0.4140  -19.0420 C   0  0  0  0  0  0  0  0  0  0  0  0
    4.7396    3.4673  -19.1691 H   0  0  0  0  0  0  0  0  0  0  0  0
    6.0933    3.2582  -20.3311 H   0  0  0  0  0  0  0  0  0  0  0  0
    4.7223    2.0976  -20.3311 H   0  0  0  0  0  0  0  0  0  0  0  0
    7.0530    2.0726  -19.1899 H   0  0  0  0  0  0  0  0  0  0  0  0
    6.6718    3.7507  -18.0800 H   0  0  0  0  0  0  0  0  0  0  0  0
    5.9393    2.2011  -16.8010 H   0  0  0  0  0  0  0  0  0  0  0  0
    7.7762    5.3647  -16.7880 H   0  0  0  0  0  0  0  0  0  0  0  0
    8.1803    6.0982  -14.3466 H   0  0  0  0  0  0  0  0  0  0  0  0
    7.6547    5.8671  -11.5725 H   0  0  0  0  0  0  0  0  0  0  0  0
    7.0214    4.1874  -11.2735 H   0  0  0  0  0  0  0  0  0  0  0  0
    7.6294    4.8227   -9.4983 H   0  0  0  0  0  0  0  0  0  0  0  0
    8.5632    3.8495   -8.2344 H   0  0  0  0  0  0  0  0  0  0  0  0
   10.0493    3.8975   -8.7097 H   0  0  0  0  0  0  0  0  0  0  0  0
    8.1700    6.7908   -9.0432 H   0  0  0  0  0  0  0  0  0  0  0  0
   10.0399    5.8834   -6.6013 H   0  0  0  0  0  0  0  0  0  0  0  0
   11.6744    7.6163   -5.8024 H   0  0  0  0  0  0  0  0  0  0  0  0
   12.4095    8.8439   -9.9161 H   0  0  0  0  0  0  0  0  0  0  0  0
    7.1480    1.6480  -12.1990 H   0  0  0  0  0  0  0  0  0  0  0  0
    7.1622    1.4808  -16.4489 H   0  0  0  0  0  0  0  0  0  0  0  0
    6.2240    0.1620  -14.4200 H   0  0  0  0  0  0  0  0  0  0  0  0
    8.5048    0.7224  -17.5027 H   0  0  0  0  0  0  0  0  0  0  0  0
    8.8281   -0.6495  -16.2632 H   0  0  0  0  0  0  0  0  0  0  0  0
    7.9499   -1.2752  -18.2666 H   0  0  0  0  0  0  0  0  0  0  0  0
    6.8628   -1.3783  -16.5842 H   0  0  0  0  0  0  0  0  0  0  0  0
    5.1761   -0.7792  -16.1115 H   0  0  0  0  0  0  0  0  0  0  0  0
    4.0973    0.1218  -17.2300 H   0  0  0  0  0  0  0  0  0  0  0  0
    4.0927   -1.6745  -17.2300 H   0  0  0  0  0  0  0  0  0  0  0  0
    6.3610   -3.6639  -20.6152 H   0  0  0  0  0  0  0  0  0  0  0  0
    5.6331   -2.6972  -21.7856 H   0  0  0  0  0  0  0  0  0  0  0  0
    7.8677    0.6700  -20.4931 H   0  0  0  0  0  0  0  0  0  0  0  0
    6.2434    0.3566  -21.1958 H   0  0  0  0  0  0  0  0  0  0  0  0
    7.2872    0.4289  -18.5693 H   0  0  0  0  0  0  0  0  0  0  0  0
  1  2  1  0
  2  3  1  0
  3  4  1  0
  4  5  2  0
  5  6  1  0
  6  7  2  0
  7  8  1  0
  8  9  1  0
  9 10  1  0
 10 11  1  0
 11 12  1  0
 12 13  1  0
 13 14  2  0
 14 15  1  0
 15 16  2  0
 16 17  1  0
 16 18  1  0
 18 19  2  0
 19 20  1  0
  7 21  1  0
 21 22  1  0
 21 23  2  0
 23 24  1  0
 24 25  1  0
 24 26  1  0
 26 27  1  0
 27 28  1  0
 28 29  1  1
 28 30  1  0
 30 31  1  0
 31 32  1  0
 32 33  1  0
 32 34  1  0
 32 35  1  0
 35 36  1  0
 36  2  1  0
 23  4  1  0
 36 28  1  0
 12 10  1  0
 19 13  1  0
  1 37  1  0
  1 38  1  0
  1 39  1  0
  2 40  1  1
  3 41  1  0
  3 42  1  0
  5 43  1  0
  6 44  1  0
  9 45  1  0
  9 46  1  0
 10 47  1  6
 11 48  1  0
 11 49  1  0
 12 50  1  1
 14 51  1  0
 15 52  1  0
 18 53  1  0
 22 54  1  0
 24 55  1  6
 25 56  1  0
 26 57  1  0
 26 58  1  0
 27 59  1  0
 27 60  1  0
 29 61  1  0
 29 62  1  0
 29 63  1  0
 31 64  1  0
 31 65  1  0
 35 66  1  0
 35 67  1  0
 36 68  1  0
M  END

>  <ID>
DiffSBDD_21_num_sample_100

>  <docking_score>
-10.703

$$$$
DiffSBDD_22_num_sample_100
     RDKit          3D

 46 48  0  0  0  0  0  0  0  0999 V2000
    4.7660   -1.2990  -17.8390 C   0  0  0  0  0  0  0  0  0  0  0  0
    6.0550   -0.9200  -17.1760 C   0  0  0  0  0  0  0  0  0  0  0  0
    7.0540   -1.6220  -17.3090 O   0  0  0  0  0  0  0  0  0  0  0  0
    6.1120    0.3860  -16.4360 N   0  0  0  0  0  0  0  0  0  0  0  0
    5.7790    0.2370  -15.0180 C   0  0  0  0  0  0  0  0  0  0  0  0
    6.9670    0.7060  -14.2890 C   0  0  0  0  0  0  0  0  0  0  0  0
    7.0100    2.2080  -14.5710 N   0  0  0  0  0  0  0  0  0  0  0  0
    6.6160    3.2910  -13.6400 C   0  0  0  0  0  0  0  0  0  0  0  0
    7.5190    3.6260  -12.4800 C   0  0  0  0  0  0  0  0  0  0  0  0
    8.6650    3.1820  -12.4950 O   0  0  0  0  0  0  0  0  0  0  0  0
    7.1000    4.4280  -11.3950 N   0  0  0  0  0  0  0  0  0  0  0  0
    8.1970    5.4520  -10.7550 C   0  0  0  0  0  0  0  0  0  0  0  0
    8.4250    5.1830   -9.4240 C   0  0  0  0  0  0  0  0  0  0  0  0
    9.2020    6.0070   -8.6920 C   0  0  0  0  0  0  0  0  0  0  0  0
   10.0790    7.0520   -9.2890 C   0  0  0  0  0  0  0  0  0  0  0  0
   10.7700    7.7690   -8.2520 N   0  0  0  0  0  0  0  0  0  0  0  0
    9.7790    8.1730   -6.8720 S   0  0  0  0  0  0  0  0  0  0  0  0
   10.8810    9.2540   -6.1200 C   0  0  0  0  0  0  0  0  0  0  0  0
   12.1480    9.1210   -6.8850 C   0  0  0  0  0  0  0  0  0  0  0  0
   13.2690    9.5840   -6.6270 O   0  0  0  0  0  0  0  0  0  0  0  0
   12.0330    8.3300   -8.1630 C   0  0  0  0  0  0  0  0  0  0  0  0
   12.9370    8.2360   -8.9400 O   0  0  0  0  0  0  0  0  0  0  0  0
    9.9680    7.2410  -10.6960 C   0  0  0  0  0  0  0  0  0  0  0  0
    9.0610    6.4300  -11.4070 C   0  0  0  0  0  0  0  0  0  0  0  0
    7.5280    2.3360  -15.7840 C   0  0  0  0  0  0  0  0  0  0  0  0
    7.3130    1.1690  -16.7070 C   0  0  0  0  0  0  0  0  0  0  0  0
    4.0103   -1.5212  -17.0712 H   0  0  0  0  0  0  0  0  0  0  0  0
    4.4173   -0.4654  -18.4663 H   0  0  0  0  0  0  0  0  0  0  0  0
    4.9240   -2.1887  -18.4663 H   0  0  0  0  0  0  0  0  0  0  0  0
    4.9026    0.8503  -14.7615 H   0  0  0  0  0  0  0  0  0  0  0  0
    5.5255   -0.8027  -14.7633 H   0  0  0  0  0  0  0  0  0  0  0  0
    6.8643    0.5141  -13.2108 H   0  0  0  0  0  0  0  0  0  0  0  0
    7.8863    0.1911  -14.6049 H   0  0  0  0  0  0  0  0  0  0  0  0
    6.5086    4.2072  -14.2392 H   0  0  0  0  0  0  0  0  0  0  0  0
    5.7042    2.9058  -13.1601 H   0  0  0  0  0  0  0  0  0  0  0  0
    6.1420    4.3690  -11.0230 H   0  0  0  0  0  0  0  0  0  0  0  0
    7.9730    4.2953   -8.9574 H   0  0  0  0  0  0  0  0  0  0  0  0
    9.1872    5.9018   -7.5971 H   0  0  0  0  0  0  0  0  0  0  0  0
   10.5051   10.2864   -6.1743 H   0  0  0  0  0  0  0  0  0  0  0  0
   11.0202    9.0206   -5.0541 H   0  0  0  0  0  0  0  0  0  0  0  0
   10.5737    7.9993  -11.2138 H   0  0  0  0  0  0  0  0  0  0  0  0
    9.0020    6.5390  -12.5000 H   0  0  0  0  0  0  0  0  0  0  0  0
    7.0796    3.2249  -16.2517 H   0  0  0  0  0  0  0  0  0  0  0  0
    8.6161    2.4109  -15.6409 H   0  0  0  0  0  0  0  0  0  0  0  0
    7.2453    1.5542  -17.7351 H   0  0  0  0  0  0  0  0  0  0  0  0
    8.1654    0.4912  -16.5519 H   0  0  0  0  0  0  0  0  0  0  0  0
  1  2  1  0
  2  3  2  0
  2  4  1  0
  4  5  1  0
  5  6  1  0
  6  7  1  0
  7  8  1  0
  8  9  1  0
  9 10  2  0
  9 11  1  0
 11 12  1  0
 12 13  2  0
 13 14  1  0
 14 15  2  0
 15 16  1  0
 16 17  1  0
 17 18  1  0
 18 19  1  0
 19 20  2  0
 19 21  1  0
 21 22  2  0
 15 23  1  0
 23 24  2  0
  7 25  1  0
 25 26  1  0
 26  4  1  0
 24 12  1  0
 21 16  1  0
  1 27  1  0
  1 28  1  0
  1 29  1  0
  5 30  1  0
  5 31  1  0
  6 32  1  0
  6 33  1  0
  8 34  1  0
  8 35  1  0
 11 36  1  0
 13 37  1  0
 14 38  1  0
 18 39  1  0
 18 40  1  0
 23 41  1  0
 24 42  1  0
 25 43  1  0
 25 44  1  0
 26 45  1  0
 26 46  1  0
M  END

>  <ID>
DiffSBDD_22_num_sample_100

>  <docking_score>
-9.292

$$$$
DiffSBDD_23_num_sample_100
     RDKit          3D

 72 74  0  0  0  0  0  0  0  0999 V2000
    6.0660    7.6110  -13.1310 C   0  0  0  0  0  0  0  0  0  0  0  0
    6.6600    6.8260  -13.3030 C   0  0  0  0  0  0  0  0  0  0  0  0
    6.4580    5.6290  -14.1450 S   0  0  1  0  0  4  0  0  0  0  0  0
    7.0910    5.6160  -15.7760 C   0  0  0  0  0  0  0  0  0  0  0  0
    7.5380    4.3500  -16.2620 C   0  0  0  0  0  0  0  0  0  0  0  0
    7.5180    3.2790  -15.3400 N   0  0  0  0  0  0  0  0  0  0  0  0
    7.6940    1.8900  -15.9210 C   0  0  0  0  0  0  0  0  0  0  0  0
    8.3340    1.7390  -17.3200 C   0  0  0  0  0  0  0  0  0  0  0  0
    7.3910    1.0770  -18.1210 C   0  0  0  0  0  0  0  0  0  0  0  0
    7.3590   -0.1780  -18.8150 N   0  0  0  0  0  0  0  0  0  0  0  0
    7.9870   -1.3320  -18.3940 C   0  0  0  0  0  0  0  0  0  0  0  0
    8.9280   -1.3470  -17.6350 O   0  0  0  0  0  0  0  0  0  0  0  0
    7.3030   -2.4220  -19.2230 N   0  0  0  0  0  0  0  0  0  0  0  0
    7.9050   -3.5880  -19.9350 C   0  0  0  0  0  0  0  0  0  0  0  0
    8.0590   -4.7130  -19.0360 C   0  0  0  0  0  0  0  0  0  0  0  0
    5.8110   -2.4960  -19.2440 C   0  0  2  0  0  0  0  0  0  0  0  0
    5.1240   -2.5690  -20.4480 O   0  0  0  0  0  0  0  0  0  0  0  0
    4.4730   -3.6640  -20.8000 C   0  0  0  0  0  0  0  0  0  0  0  0
    5.3390   -1.2770  -18.5810 C   0  0  1  0  0  0  0  0  0  0  0  0
    5.5240   -1.3420  -17.0480 C   0  0  0  0  0  0  0  0  0  0  0  0
    5.9250   -2.3830  -16.5240 O   0  0  0  0  0  0  0  0  0  0  0  0
    4.9800   -0.4100  -16.4220 O   0  0  0  0  0  0  0  0  0  0  0  0
    6.0500   -0.3460  -19.4570 C   0  0  2  0  0  0  0  0  0  0  0  0
    6.0330   -0.5770  -20.7530 O   0  0  0  0  0  0  0  0  0  0  0  0
    7.5880    3.4000  -13.9350 C   0  0  0  0  0  0  0  0  0  0  0  0
    7.5140    2.3740  -13.2330 O   0  0  0  0  0  0  0  0  0  0  0  0
    7.5940    4.7570  -13.3790 C   0  0  2  0  0  0  0  0  0  0  0  0
    8.1720    5.0900  -12.0870 C   0  0  0  0  0  0  0  0  0  0  0  0
    9.0790    5.3380  -11.0130 C   0  0  2  0  0  0  0  0  0  0  0  0
    8.3590    4.8880   -9.6950 C   0  0  0  0  0  0  0  0  0  0  0  0
    9.1030    5.0580   -8.4800 C   0  0  0  0  0  0  0  0  0  0  0  0
    9.9570    6.1720   -8.4530 C   0  0  0  0  0  0  0  0  0  0  0  0
   10.6710    6.3800   -7.3990 C   0  0  0  0  0  0  0  0  0  0  0  0
   11.2640    6.5480   -6.4700 N   0  0  0  0  0  0  0  0  0  0  0  0
   10.1940    7.0580   -9.5210 C   0  0  2  0  0  0  0  0  0  0  0  0
   10.7880    8.2320   -9.4520 O   0  0  0  0  0  0  0  0  0  0  0  0
    9.5630    6.7670  -10.8940 C   0  0  0  0  0  0  0  0  0  0  0  0
    6.3997    8.4168  -12.4607 H   0  0  0  0  0  0  0  0  0  0  0  0
    5.0784    7.6693  -13.6120 H   0  0  0  0  0  0  0  0  0  0  0  0
    7.6258    6.8586  -12.7775 H   0  0  0  0  0  0  0  0  0  0  0  0
    5.1260    5.3330  -14.2670 H   0  0  0  0  0  0  0  0  0  0  0  0
    7.1415    6.5275  -16.3896 H   0  0  0  0  0  0  0  0  0  0  0  0
    7.8798    4.2154  -17.2989 H   0  0  0  0  0  0  0  0  0  0  0  0
    8.3206    1.3230  -15.2169 H   0  0  0  0  0  0  0  0  0  0  0  0
    6.6641    1.5301  -16.0616 H   0  0  0  0  0  0  0  0  0  0  0  0
    8.5628    2.7288  -17.7419 H   0  0  0  0  0  0  0  0  0  0  0  0
    9.2767    1.1746  -17.2670 H   0  0  0  0  0  0  0  0  0  0  0  0
    6.5119    1.0147  -17.4627 H   0  0  0  0  0  0  0  0  0  0  0  0
    7.5870    1.6799  -19.0199 H   0  0  0  0  0  0  0  0  0  0  0  0
    7.2497   -3.8794  -20.7691 H   0  0  0  0  0  0  0  0  0  0  0  0
    8.8969   -3.2984  -20.3121 H   0  0  0  0  0  0  0  0  0  0  0  0
    8.0107   -4.3600  -17.9953 H   0  0  0  0  0  0  0  0  0  0  0  0
    7.2518   -5.4385  -19.2149 H   0  0  0  0  0  0  0  0  0  0  0  0
    9.0315   -5.1949  -19.2149 H   0  0  0  0  0  0  0  0  0  0  0  0
    5.5979   -3.4674  -18.7739 H   0  0  0  0  0  0  0  0  0  0  0  0
    4.1512   -4.2052  -19.8980 H   0  0  0  0  0  0  0  0  0  0  0  0
    3.5910   -3.3901  -21.3975 H   0  0  0  0  0  0  0  0  0  0  0  0
    5.1350   -4.3081  -21.3975 H   0  0  0  0  0  0  0  0  0  0  0  0
    4.2753   -1.0050  -18.5130 H   0  0  0  0  0  0  0  0  0  0  0  0
    5.5112    0.6104  -19.5282 H   0  0  0  0  0  0  0  0  0  0  0  0
    5.1010   -0.7340  -21.0480 H   0  0  0  0  0  0  0  0  0  0  0  0
    8.5638    5.2621  -13.4987 H   0  0  0  0  0  0  0  0  0  0  0  0
    7.6899    6.0768  -12.0257 H   0  0  0  0  0  0  0  0  0  0  0  0
    8.4256    4.0245  -11.9851 H   0  0  0  0  0  0  0  0  0  0  0  0
    9.9970    4.7652  -11.2108 H   0  0  0  0  0  0  0  0  0  0  0  0
    7.4297    5.4695   -9.6043 H   0  0  0  0  0  0  0  0  0  0  0  0
    8.2047    3.8037   -9.7979 H   0  0  0  0  0  0  0  0  0  0  0  0
    9.0109    4.3652   -7.6306 H   0  0  0  0  0  0  0  0  0  0  0  0
   11.0305    6.5820   -8.9884 H   0  0  0  0  0  0  0  0  0  0  0  0
   10.9740    8.4530   -8.5050 H   0  0  0  0  0  0  0  0  0  0  0  0
    8.7080    7.4433  -11.0408 H   0  0  0  0  0  0  0  0  0  0  0  0
   10.3366    6.9249  -11.6599 H   0  0  0  0  0  0  0  0  0  0  0  0
  1  2  2  0
  2  3  1  0
  3  4  1  0
  4  5  2  0
  5  6  1  0
  6  7  1  0
  7  8  1  0
  8  9  1  0
  9 10  1  0
 10 11  1  0
 11 12  2  0
 11 13  1  0
 13 14  1  0
 14 15  1  0
 13 16  1  0
 16 17  1  0
 17 18  1  0
 16 19  1  0
 19 20  1  0
 20 21  2  0
 20 22  1  0
 19 23  1  0
 23 24  1  0
  6 25  1  0
 25 26  2  0
 25 27  1  0
 27 28  1  0
 28 29  1  0
 29 30  1  0
 30 31  1  0
 31 32  2  0
 32 33  1  0
 33 34  3  0
 32 35  1  0
 35 36  1  0
 35 37  1  0
 27  3  1  0
 37 29  1  0
 23 10  1  0
  1 38  1  0
  1 39  1  0
  2 40  1  0
  3 41  1  6
  4 42  1  0
  5 43  1  0
  7 44  1  0
  7 45  1  0
  8 46  1  0
  8 47  1  0
  9 48  1  0
  9 49  1  0
 14 50  1  0
 14 51  1  0
 15 52  1  0
 15 53  1  0
 15 54  1  0
 16 55  1  1
 18 56  1  0
 18 57  1  0
 18 58  1  0
 19 59  1  1
 23 60  1  6
 24 61  1  0
 27 62  1  6
 28 63  1  0
 28 64  1  0
 29 65  1  6
 30 66  1  0
 30 67  1  0
 31 68  1  0
 35 69  1  6
 36 70  1  0
 37 71  1  0
 37 72  1  0
M  CHG  1  22  -1
M  END

>  <ID>
DiffSBDD_23_num_sample_100

>  <docking_score>
-8.306

$$$$
DiffSBDD_24_num_sample_100
     RDKit          3D

 25 25  0  0  0  0  0  0  0  0999 V2000
   12.5290    6.6340   -2.3070 C   0  0  0  0  0  0  0  0  0  0  0  0
   11.6490    7.4280   -3.3000 C   0  0  1  0  0  0  0  0  0  0  0  0
   12.5720    8.5870   -3.6560 O   0  0  0  0  0  0  0  0  0  0  0  0
   11.2660    6.7830   -4.7000 C   0  0  0  0  0  0  0  0  0  0  0  0
   10.8860    7.2280   -6.0110 C   0  0  2  0  0  0  0  0  0  0  0  0
   11.3670    6.5190   -7.1940 C   0  0  0  0  0  0  0  0  0  0  0  0
   12.0220    7.6560   -8.0950 C   0  0  0  0  0  0  0  0  0  0  0  0
   11.1270    8.8130   -7.8410 O   0  0  0  0  0  0  0  0  0  0  0  0
   10.3020    8.5770   -6.5440 S   0  0  0  0  0  0  0  0  0  0  0  0
    8.9250    8.5040   -6.8890 O   0  0  0  0  0  0  0  0  0  0  0  0
   10.5680    9.6580   -5.5740 O   0  0  0  0  0  0  0  0  0  0  0  0
   12.2432    6.8919   -1.2766 H   0  0  0  0  0  0  0  0  0  0  0  0
   12.3833    5.5558   -2.4690 H   0  0  0  0  0  0  0  0  0  0  0  0
   13.5866    6.8895   -2.4690 H   0  0  0  0  0  0  0  0  0  0  0  0
   10.6788    7.5932   -2.8086 H   0  0  0  0  0  0  0  0  0  0  0  0
   12.2910    9.3970   -3.1610 H   0  0  0  0  0  0  0  0  0  0  0  0
   12.1509    6.1665   -4.9164 H   0  0  0  0  0  0  0  0  0  0  0  0
   10.2290    6.5764   -4.3967 H   0  0  0  0  0  0  0  0  0  0  0  0
   10.1534    7.0041   -5.2216 H   0  0  0  0  0  0  0  0  0  0  0  0
   12.1154    5.7619   -6.9170 H   0  0  0  0  0  0  0  0  0  0  0  0
   10.5631    5.9798   -7.7165 H   0  0  0  0  0  0  0  0  0  0  0  0
   13.0528    7.8720   -7.7774 H   0  0  0  0  0  0  0  0  0  0  0  0
   12.1021    7.3851   -9.1581 H   0  0  0  0  0  0  0  0  0  0  0  0
    8.4100    9.1410   -6.3330 H   0  0  0  0  0  0  0  0  0  0  0  0
    9.8150   10.3010   -5.5810 H   0  0  0  0  0  0  0  0  0  0  0  0
  1  2  1  0
  2  3  1  0
  2  4  1  0
  4  5  1  0
  5  6  1  0
  6  7  1  0
  7  8  1  0
  8  9  1  0
  9 10  1  0
  9 11  1  0
  9  5  1  0
  1 12  1  0
  1 13  1  0
  1 14  1  0
  2 15  1  1
  3 16  1  0
  4 17  1  0
  4 18  1  0
  5 19  1  1
  6 20  1  0
  6 21  1  0
  7 22  1  0
  7 23  1  0
 10 24  1  0
 11 25  1  0
M  END

>  <ID>
DiffSBDD_24_num_sample_100

>  <docking_score>
-5.483

$$$$
DiffSBDD_25_num_sample_100
     RDKit          3D

 65 68  0  0  0  0  0  0  0  0999 V2000
   11.6180   10.0590   -5.7690 C   0  0  0  0  0  0  0  0  0  0  0  0
   10.3890    9.2680   -6.1230 O   0  0  0  0  0  0  0  0  0  0  0  0
   10.5240    8.7390   -7.4370 C   0  0  0  0  0  0  0  0  0  0  0  0
   11.7880    8.8180   -8.1320 N   0  0  0  0  0  0  0  0  0  0  0  0
   11.6340    8.1320   -9.2520 C   0  0  0  0  0  0  0  0  0  0  0  0
   10.3230    7.5430   -9.3630 C   0  0  0  0  0  0  0  0  0  0  0  0
   10.0130    6.6310  -10.5040 C   0  0  2  0  0  0  0  0  0  0  0  0
   10.6860    6.9000  -11.7830 C   0  0  0  0  0  0  0  0  0  0  0  0
    8.7000    5.8650  -10.4940 C   0  0  2  0  0  0  0  0  0  0  0  0
    8.8750    4.9950   -9.3220 C   0  0  0  0  0  0  0  0  0  0  0  0
    8.1720    5.2630   -8.1540 O   0  0  0  0  0  0  0  0  0  0  0  0
    7.5510    5.4700  -11.5030 C   0  0  1  0  0  0  0  0  0  0  0  0
    6.3630    5.4250  -10.6580 O   0  0  0  0  0  0  0  0  0  0  0  0
    7.4580    6.3290  -12.7480 C   0  0  0  0  0  0  0  0  0  0  0  0
    7.3970    5.4280  -13.9440 N   0  0  0  0  0  0  0  0  0  0  0  0
    6.0410    5.9160  -14.5440 C   0  0  0  0  0  0  0  0  0  0  0  0
    6.0160    5.9220  -16.1540 C   0  0  2  0  0  0  0  0  0  0  0  0
    7.4190    5.8210  -16.4710 C   0  0  0  0  0  0  0  0  0  0  0  0
    7.3910    5.6290  -18.1370 C   0  0  1  0  0  0  0  0  0  0  0  0
    7.2050    4.3940  -18.5240 C   0  0  0  0  0  0  0  0  0  0  0  0
    6.3260    4.0100  -19.6550 C   0  0  0  0  0  0  0  0  0  0  0  0
    5.7890    5.4980  -19.9130 C   0  0  1  0  0  0  0  0  0  0  0  0
    4.9110    5.8660  -18.9720 C   0  0  0  0  0  0  0  0  0  0  0  0
    4.7610    7.0260  -18.1100 C   0  0  0  0  0  0  0  0  0  0  0  0
    5.2890    7.0820  -16.6550 C   0  0  0  0  0  0  0  0  0  0  0  0
    4.0940    7.3800  -16.2270 F   0  0  0  0  0  0  0  0  0  0  0  0
    6.1220    8.1890  -16.3350 F   0  0  0  0  0  0  0  0  0  0  0  0
    6.6900    6.4130  -19.1720 O   0  0  0  0  0  0  0  0  0  0  0  0
    7.4960    3.8540  -13.4600 C   0  0  0  0  0  0  0  0  0  0  0  0
    7.9350    4.0560  -12.0910 C   0  0  1  0  0  0  0  0  0  0  0  0
    9.3110    4.1210  -12.4170 F   0  0  0  0  0  0  0  0  0  0  0  0
    9.5000    8.0370   -8.2700 O   0  0  0  0  0  0  0  0  0  0  0  0
   11.7124   10.1197   -4.6747 H   0  0  0  0  0  0  0  0  0  0  0  0
   12.5064    9.5627   -6.1867 H   0  0  0  0  0  0  0  0  0  0  0  0
   11.5342   11.0732   -6.1867 H   0  0  0  0  0  0  0  0  0  0  0  0
   12.4193    8.0229  -10.0145 H   0  0  0  0  0  0  0  0  0  0  0  0
   10.6108    5.7575  -10.2046 H   0  0  0  0  0  0  0  0  0  0  0  0
   11.6917    7.3020  -11.5907 H   0  0  0  0  0  0  0  0  0  0  0  0
   10.7683    5.9657  -12.3577 H   0  0  0  0  0  0  0  0  0  0  0  0
   10.1016    7.6336  -12.3577 H   0  0  0  0  0  0  0  0  0  0  0  0
    8.0760    6.6914  -10.8651 H   0  0  0  0  0  0  0  0  0  0  0  0
    8.5967    3.9780   -9.6354 H   0  0  0  0  0  0  0  0  0  0  0  0
    9.9233    5.1620   -9.0337 H   0  0  0  0  0  0  0  0  0  0  0  0
    8.6990    4.9580   -7.3740 H   0  0  0  0  0  0  0  0  0  0  0  0
    5.7840    6.2010  -10.8610 H   0  0  0  0  0  0  0  0  0  0  0  0
    6.5505    6.9491  -12.7040 H   0  0  0  0  0  0  0  0  0  0  0  0
    8.3357    6.9884  -12.8173 H   0  0  0  0  0  0  0  0  0  0  0  0
    5.2421    5.2501  -14.1859 H   0  0  0  0  0  0  0  0  0  0  0  0
    5.8968    6.9555  -14.2143 H   0  0  0  0  0  0  0  0  0  0  0  0
    5.4636    5.1079  -16.6460 H   0  0  0  0  0  0  0  0  0  0  0  0
    7.9599    6.7347  -16.1836 H   0  0  0  0  0  0  0  0  0  0  0  0
    7.9347    5.0069  -15.9407 H   0  0  0  0  0  0  0  0  0  0  0  0
    8.3759    6.1189  -18.1302 H   0  0  0  0  0  0  0  0  0  0  0  0
    8.2029    4.0049  -18.7745 H   0  0  0  0  0  0  0  0  0  0  0  0
    6.6436    3.9861  -17.6705 H   0  0  0  0  0  0  0  0  0  0  0  0
    6.8808    3.5981  -20.5109 H   0  0  0  0  0  0  0  0  0  0  0  0
    5.5829    3.2174  -19.4830 H   0  0  0  0  0  0  0  0  0  0  0  0
    5.5627    5.5266  -20.9891 H   0  0  0  0  0  0  0  0  0  0  0  0
    3.9509    5.8342  -19.5080 H   0  0  0  0  0  0  0  0  0  0  0  0
    5.3308    5.2174  -18.1891 H   0  0  0  0  0  0  0  0  0  0  0  0
    5.2474    7.8589  -18.6389 H   0  0  0  0  0  0  0  0  0  0  0  0
    3.6735    7.0322  -17.9448 H   0  0  0  0  0  0  0  0  0  0  0  0
    6.5211    3.3469  -13.5085 H   0  0  0  0  0  0  0  0  0  0  0  0
    8.1478    3.2140  -14.0729 H   0  0  0  0  0  0  0  0  0  0  0  0
    7.5477    3.3273  -11.3637 H   0  0  0  0  0  0  0  0  0  0  0  0
  1  2  1  0
  2  3  1  0
  3  4  2  0
  4  5  1  0
  5  6  2  0
  6  7  1  0
  7  8  1  0
  7  9  1  0
  9 10  1  0
 10 11  1  0
  9 12  1  0
 12 13  1  1
 12 14  1  0
 14 15  1  0
 15 16  1  0
 16 17  1  0
 17 18  1  0
 18 19  1  0
 19 20  1  0
 20 21  1  0
 21 22  1  0
 22 23  1  0
 23 24  1  0
 24 25  1  0
 25 26  1  0
 25 27  1  0
 22 28  1  0
 15 29  1  0
 29 30  1  0
 30 31  1  0
  6 32  1  0
 32  3  1  0
 30 12  1  0
 25 17  1  0
 28 19  1  0
  1 33  1  0
  1 34  1  0
  1 35  1  0
  5 36  1  0
  7 37  1  1
  8 38  1  0
  8 39  1  0
  8 40  1  0
  9 41  1  1
 10 42  1  0
 10 43  1  0
 11 44  1  0
 13 45  1  0
 14 46  1  0
 14 47  1  0
 16 48  1  0
 16 49  1  0
 17 50  1  6
 18 51  1  0
 18 52  1  0
 19 53  1  6
 20 54  1  0
 20 55  1  0
 21 56  1  0
 21 57  1  0
 22 58  1  6
 23 59  1  0
 23 60  1  0
 24 61  1  0
 24 62  1  0
 29 63  1  0
 29 64  1  0
 30 65  1  1
M  END

>  <ID>
DiffSBDD_25_num_sample_100

>  <docking_score>
-8.851

$$$$
DiffSBDD_26_num_sample_100
     RDKit          3D

 72 77  0  0  0  0  0  0  0  0999 V2000
    4.6750    6.7680  -18.2320 C   0  0  0  0  0  0  0  0  0  0  0  0
    5.5060    5.8000  -18.5430 C   0  0  0  0  0  0  0  0  0  0  0  0
    5.2550    5.0830  -19.5470 N   0  0  0  0  0  0  0  0  0  0  0  0
    6.3470    4.0260  -19.6770 O   0  0  0  0  0  0  0  0  0  0  0  0
    7.0170    4.0930  -18.4730 C   0  0  0  0  0  0  0  0  0  0  0  0
    7.9930    3.2990  -18.1480 N   0  0  0  0  0  0  0  0  0  0  0  0
    6.6870    5.2020  -17.6980 C   0  0  1  0  0  0  0  0  0  0  0  0
    7.8900    5.4370  -16.8630 N   0  0  0  0  0  0  0  0  0  0  0  0
    7.4050    5.4290  -15.5880 C   0  0  0  0  0  0  0  0  0  0  0  0
    6.2630    6.1350  -15.1870 C   0  0  0  0  0  0  0  0  0  0  0  0
    5.6880    5.9390  -13.9790 C   0  0  0  0  0  0  0  0  0  0  0  0
    6.1550    5.0340  -13.0310 C   0  0  0  0  0  0  0  0  0  0  0  0
    5.2710    4.5150  -12.0740 F   0  0  0  0  0  0  0  0  0  0  0  0
    7.4890    4.5260  -13.3390 C   0  0  0  0  0  0  0  0  0  0  0  0
    8.2760    3.7960  -12.3840 C   0  0  0  0  0  0  0  0  0  0  0  0
    8.6400    4.6790  -11.0760 C   0  0  0  0  0  0  0  0  0  0  0  0
    8.5860    4.3670   -9.7660 C   0  0  0  0  0  0  0  0  0  0  0  0
    9.1230    5.2630   -8.7870 C   0  0  0  0  0  0  0  0  0  0  0  0
    9.6410    6.3780   -9.1710 C   0  0  0  0  0  0  0  0  0  0  0  0
   10.2940    7.1220   -8.4430 O   0  0  0  0  0  0  0  0  0  0  0  0
   10.3500    6.2100   -7.3890 C   0  0  0  0  0  0  0  0  0  0  0  0
   11.4520    6.6810   -6.7480 C   0  0  1  0  0  0  0  0  0  0  0  0
   12.0040    8.1480   -6.8630 C   0  0  0  0  0  0  0  0  0  0  0  0
   11.2610    7.8740   -5.6340 C   0  0  2  0  0  0  0  0  0  0  0  0
   12.0510    7.8440   -4.4170 C   0  0  1  0  0  0  0  0  0  0  0  0
   11.6050    6.7550   -3.3520 C   0  0  0  0  0  0  0  0  0  0  0  0
   11.7000    6.8720   -2.0290 C   0  0  0  0  0  0  0  0  0  0  0  0
   12.4610    7.9680   -1.5180 C   0  0  0  0  0  0  0  0  0  0  0  0
   12.6010    8.8310   -2.7060 C   0  0  0  0  0  0  0  0  0  0  0  0
   12.9890    8.9850   -4.5080 C   0  0  2  0  0  0  0  0  0  0  0  0
   12.6810    9.9780   -5.6340 C   0  0  0  0  0  0  0  0  0  0  0  0
   12.3250    9.3200   -6.7810 C   0  0  2  0  0  0  0  0  0  0  0  0
   11.1670    9.8560   -7.2160 C   0  0  0  0  0  0  0  0  0  0  0  0
    9.3380    6.8890  -10.4000 C   0  0  0  0  0  0  0  0  0  0  0  0
    9.6980    8.0380  -10.7160 C   0  0  0  0  0  0  0  0  0  0  0  0
    8.8680    5.9820  -11.3380 N   0  0  0  0  0  0  0  0  0  0  0  0
    7.9410    4.5040  -14.7200 C   0  0  0  0  0  0  0  0  0  0  0  0
    4.8759    7.4060  -17.3587 H   0  0  0  0  0  0  0  0  0  0  0  0
    3.7780    6.9409  -18.8448 H   0  0  0  0  0  0  0  0  0  0  0  0
    4.4470    5.1920  -20.1750 H   0  0  0  0  0  0  0  0  0  0  0  0
    8.2150    2.4860  -18.7400 H   0  0  0  0  0  0  0  0  0  0  0  0
    6.1939    5.6302  -16.8128 H   0  0  0  0  0  0  0  0  0  0  0  0
    8.8620    5.5750  -17.1730 H   0  0  0  0  0  0  0  0  0  0  0  0
    5.8212    6.8705  -15.8753 H   0  0  0  0  0  0  0  0  0  0  0  0
    4.7955    6.5319  -13.7303 H   0  0  0  0  0  0  0  0  0  0  0  0
    7.7094    2.9090  -12.0643 H   0  0  0  0  0  0  0  0  0  0  0  0
    9.2212    3.5175  -12.8729 H   0  0  0  0  0  0  0  0  0  0  0  0
    8.1271    3.4194   -9.4475 H   0  0  0  0  0  0  0  0  0  0  0  0
    9.0935    5.0021   -7.7188 H   0  0  0  0  0  0  0  0  0  0  0  0
    9.4528    6.2596   -6.7545 H   0  0  0  0  0  0  0  0  0  0  0  0
   10.3955    5.1517   -7.6855 H   0  0  0  0  0  0  0  0  0  0  0  0
   11.8920    5.6780   -6.8497 H   0  0  0  0  0  0  0  0  0  0  0  0
   11.0720    8.4600   -7.3569 H   0  0  0  0  0  0  0  0  0  0  0  0
   10.3823    8.2944   -5.1229 H   0  0  0  0  0  0  0  0  0  0  0  0
   11.3690    8.5738   -3.9563 H   0  0  0  0  0  0  0  0  0  0  0  0
   11.1789    5.8189   -3.7421 H   0  0  0  0  0  0  0  0  0  0  0  0
   11.2114    6.1526   -1.3554 H   0  0  0  0  0  0  0  0  0  0  0  0
   11.9224    8.4854   -0.7104 H   0  0  0  0  0  0  0  0  0  0  0  0
   13.4219    7.6692   -1.0736 H   0  0  0  0  0  0  0  0  0  0  0  0
   11.6002    9.2876   -2.7059 H   0  0  0  0  0  0  0  0  0  0  0  0
   13.6710    8.9478   -2.4790 H   0  0  0  0  0  0  0  0  0  0  0  0
   14.0275    9.1901   -4.8072 H   0  0  0  0  0  0  0  0  0  0  0  0
   11.8530   10.6314   -5.3217 H   0  0  0  0  0  0  0  0  0  0  0  0
   13.5842   10.5727   -5.8355 H   0  0  0  0  0  0  0  0  0  0  0  0
   13.2977    9.4150   -7.2858 H   0  0  0  0  0  0  0  0  0  0  0  0
   10.5484   10.1423   -6.3527 H   0  0  0  0  0  0  0  0  0  0  0  0
   11.3812   10.7466   -7.8251 H   0  0  0  0  0  0  0  0  0  0  0  0
   10.6266    9.1164   -7.8251 H   0  0  0  0  0  0  0  0  0  0  0  0
    9.8827    8.6276   -9.8060 H   0  0  0  0  0  0  0  0  0  0  0  0
   10.6217    7.9823  -11.3106 H   0  0  0  0  0  0  0  0  0  0  0  0
    8.9076    8.5194  -11.3106 H   0  0  0  0  0  0  0  0  0  0  0  0
    8.6876    3.7717  -15.0611 H   0  0  0  0  0  0  0  0  0  0  0  0
  1  2  2  0
  2  3  1  0
  3  4  1  0
  4  5  1  0
  5  6  2  3
  5  7  1  0
  7  8  1  0
  8  9  1  0
  9 10  2  0
 10 11  1  0
 11 12  2  0
 12 13  1  0
 12 14  1  0
 14 15  1  0
 15 16  1  0
 16 17  2  0
 17 18  1  0
 18 19  2  0
 19 20  1  0
 20 21  1  0
 21 22  1  0
 22 23  1  0
 23 24  1  0
 24 25  1  0
 25 26  1  0
 26 27  2  0
 27 28  1  0
 28 29  1  0
 29 30  1  0
 30 31  1  0
 31 32  1  0
 32 33  1  0
 19 34  1  0
 34 35  1  0
 34 36  2  0
 14 37  2  0
  7  2  1  0
 37  9  1  0
 36 16  1  0
 24 22  1  0
 30 25  1  0
 32 23  1  0
  1 38  1  0
  1 39  1  0
  3 40  1  0
  6 41  1  0
  7 42  1  1
  8 43  1  0
 10 44  1  0
 11 45  1  0
 15 46  1  0
 15 47  1  0
 17 48  1  0
 18 49  1  0
 21 50  1  0
 21 51  1  0
 22 52  1  1
 23 53  1  0
 24 54  1  1
 25 55  1  6
 26 56  1  0
 27 57  1  0
 28 58  1  0
 28 59  1  0
 29 60  1  0
 29 61  1  0
 30 62  1  1
 31 63  1  0
 31 64  1  0
 32 65  1  6
 33 66  1  0
 33 67  1  0
 33 68  1  0
 35 69  1  0
 35 70  1  0
 35 71  1  0
 37 72  1  0
M  END

>  <ID>
DiffSBDD_26_num_sample_100

>  <docking_score>
-11.642

$$$$
DiffSBDD_27_num_sample_100
     RDKit          3D

 58 58  0  0  0  0  0  0  0  0999 V2000
   11.6770   10.3160   -5.9420 C   0  0  0  0  0  0  0  0  0  0  0  0
   11.6460    8.9000   -5.8260 C   0  0  0  0  0  0  0  0  0  0  0  0
   11.7260    8.1910   -4.5460 C   0  0  0  0  0  0  0  0  0  0  0  0
   11.5460    6.8050   -4.3130 C   0  0  0  0  0  0  0  0  0  0  0  0
   11.9850    6.5670   -2.9280 C   0  0  0  0  0  0  0  0  0  0  0  0
   12.3480    7.9030   -2.3760 C   0  0  0  0  0  0  0  0  0  0  0  0
   12.8660    8.1240   -1.3610 O   0  0  0  0  0  0  0  0  0  0  0  0
   12.0620    8.8610   -3.3720 C   0  0  2  0  0  0  0  0  0  0  0  0
   11.9270   10.2100   -3.2330 N   0  0  0  0  0  0  0  0  0  0  0  0
   11.3490    8.1910   -6.9560 N   0  0  0  0  0  0  0  0  0  0  0  0
   12.4170    8.0000   -7.9690 C   0  0  0  0  0  0  0  0  0  0  0  0
   10.0410    7.7990   -7.4350 C   0  0  0  0  0  0  0  0  0  0  0  0
   10.1380    8.2690   -8.8070 C   0  0  0  0  0  0  0  0  0  0  0  0
    9.4280    7.5850   -9.7420 C   0  0  0  0  0  0  0  0  0  0  0  0
    9.4260    7.5580  -11.2780 C   0  0  2  0  0  0  0  0  0  0  0  0
    8.2660    8.1910  -11.7840 N   0  0  0  0  0  0  0  0  0  0  0  0
    9.8740    6.2140  -11.8290 C   0  0  0  0  0  0  0  0  0  0  0  0
    9.1500    5.0320  -11.1580 C   0  0  0  0  0  0  0  0  0  0  0  0
    8.5530    4.2370  -12.1370 N   0  0  0  0  0  0  0  0  0  0  0  0
    7.1320    4.3820  -12.5790 C   0  0  0  0  0  0  0  0  0  0  0  0
    6.5170    2.9580  -12.8610 C   0  0  0  0  0  0  0  0  0  0  0  0
    7.0370    5.2600  -13.9020 C   0  0  0  0  0  0  0  0  0  0  0  0
    6.3150    5.0050  -11.4750 C   0  0  0  0  0  0  0  0  0  0  0  0
   11.6869   10.7660   -4.9383 H   0  0  0  0  0  0  0  0  0  0  0  0
   12.5820   10.6194   -6.4887 H   0  0  0  0  0  0  0  0  0  0  0  0
   10.7861   10.6587   -6.4887 H   0  0  0  0  0  0  0  0  0  0  0  0
   11.1576    6.0591   -5.0221 H   0  0  0  0  0  0  0  0  0  0  0  0
   12.0349    5.5997   -2.4066 H   0  0  0  0  0  0  0  0  0  0  0  0
   12.7453    9.7052   -3.1977 H   0  0  0  0  0  0  0  0  0  0  0  0
   11.3620   10.5810   -4.0100 H   0  0  0  0  0  0  0  0  0  0  0  0
   11.4610   10.4180   -2.3390 H   0  0  0  0  0  0  0  0  0  0  0  0
   12.8580   10.6510   -3.2450 H   0  0  0  0  0  0  0  0  0  0  0  0
   13.3775    7.8282   -7.4612 H   0  0  0  0  0  0  0  0  0  0  0  0
   12.1743    7.1310   -8.5983 H   0  0  0  0  0  0  0  0  0  0  0  0
   12.4906    8.8992   -8.5983 H   0  0  0  0  0  0  0  0  0  0  0  0
    9.8944    6.7100   -7.3836 H   0  0  0  0  0  0  0  0  0  0  0  0
    9.1924    8.2000   -6.8613 H   0  0  0  0  0  0  0  0  0  0  0  0
   10.7571    9.1376   -9.0757 H   0  0  0  0  0  0  0  0  0  0  0  0
    8.6908    6.8979   -9.3011 H   0  0  0  0  0  0  0  0  0  0  0  0
   10.2186    8.1925  -11.7014 H   0  0  0  0  0  0  0  0  0  0  0  0
    8.2330    8.0800  -12.8070 H   0  0  0  0  0  0  0  0  0  0  0  0
    7.4290    7.7620  -11.3640 H   0  0  0  0  0  0  0  0  0  0  0  0
    8.2920    9.1940  -11.5480 H   0  0  0  0  0  0  0  0  0  0  0  0
    9.6661    6.1882  -12.9089 H   0  0  0  0  0  0  0  0  0  0  0  0
   10.9493    6.1090  -11.6221 H   0  0  0  0  0  0  0  0  0  0  0  0
    9.8761    4.4315  -10.5904 H   0  0  0  0  0  0  0  0  0  0  0  0
    8.3776    5.4148  -10.4747 H   0  0  0  0  0  0  0  0  0  0  0  0
    9.1230    4.3630  -12.9860 H   0  0  0  0  0  0  0  0  0  0  0  0
    8.5160    3.3270  -11.6550 H   0  0  0  0  0  0  0  0  0  0  0  0
    6.3004    2.4565  -11.9062 H   0  0  0  0  0  0  0  0  0  0  0  0
    5.5862    3.0681  -13.4368 H   0  0  0  0  0  0  0  0  0  0  0  0
    7.2353    2.3559  -13.4368 H   0  0  0  0  0  0  0  0  0  0  0  0
    6.9223    6.3200  -13.6312 H   0  0  0  0  0  0  0  0  0  0  0  0
    7.9544    5.1302  -14.4949 H   0  0  0  0  0  0  0  0  0  0  0  0
    6.1686    4.9370  -14.4949 H   0  0  0  0  0  0  0  0  0  0  0  0
    6.7201    4.6961  -10.5001 H   0  0  0  0  0  0  0  0  0  0  0  0
    6.3591    6.1008  -11.5599 H   0  0  0  0  0  0  0  0  0  0  0  0
    5.2699    4.6725  -11.5599 H   0  0  0  0  0  0  0  0  0  0  0  0
  1  2  1  0
  2  3  2  3
  3  4  1  0
  4  5  2  0
  5  6  1  0
  6  7  2  0
  6  8  1  0
  8  9  1  0
  2 10  1  0
 10 11  1  0
 10 12  1  0
 12 13  1  0
 13 14  2  3
 14 15  1  0
 15 16  1  0
 15 17  1  0
 17 18  1  0
 18 19  1  0
 19 20  1  0
 20 21  1  0
 20 22  1  0
 20 23  1  0
  8  3  1  0
  1 24  1  0
  1 25  1  0
  1 26  1  0
  4 27  1  0
  5 28  1  0
  8 29  1  6
  9 30  1  0
  9 31  1  0
  9 32  1  0
 11 33  1  0
 11 34  1  0
 11 35  1  0
 12 36  1  0
 12 37  1  0
 13 38  1  0
 14 39  1  0
 15 40  1  6
 16 41  1  0
 16 42  1  0
 16 43  1  0
 17 44  1  0
 17 45  1  0
 18 46  1  0
 18 47  1  0
 19 48  1  0
 19 49  1  0
 21 50  1  0
 21 51  1  0
 21 52  1  0
 22 53  1  0
 22 54  1  0
 22 55  1  0
 23 56  1  0
 23 57  1  0
 23 58  1  0
M  CHG  3   9   1  16   1  19   1
M  END

>  <ID>
DiffSBDD_27_num_sample_100

>  <docking_score>
-7.83

$$$$
DiffSBDD_28_num_sample_100
     RDKit          3D

 43 44  0  0  0  0  0  0  0  0999 V2000
    5.5870    4.2100  -11.9820 C   0  0  0  0  0  0  0  0  0  0  0  0
    6.5530    5.3280  -11.7810 C   0  0  0  0  0  0  0  0  0  0  0  0
    7.7720    5.0100  -10.7980 N   0  0  2  0  0  0  0  0  0  0  0  0
    8.6610    4.2640  -11.6470 C   0  0  0  0  0  0  0  0  0  0  0  0
    8.2890    4.8650   -9.3500 C   0  0  0  0  0  0  0  0  0  0  0  0
    9.4690    5.0160   -8.6360 C   0  0  0  0  0  0  0  0  0  0  0  0
   10.0690    6.2960   -8.1540 C   0  0  0  0  0  0  0  0  0  0  0  0
   10.4340    6.6100   -7.0010 N   0  0  0  0  0  0  0  0  0  0  0  0
   10.9490    7.7630   -6.5180 C   0  0  0  0  0  0  0  0  0  0  0  0
   11.4760    7.8920   -5.1860 C   0  0  0  0  0  0  0  0  0  0  0  0
   12.1560    9.0870   -4.5900 C   0  0  0  0  0  0  0  0  0  0  0  0
   12.8840    8.9340   -3.2570 C   0  0  0  0  0  0  0  0  0  0  0  0
   12.0170    8.1440   -2.2430 C   0  0  0  0  0  0  0  0  0  0  0  0
   11.9970    6.6630   -2.7640 C   0  0  0  0  0  0  0  0  0  0  0  0
   11.4490    6.6350   -4.2460 C   0  0  0  0  0  0  0  0  0  0  0  0
   11.0800    8.8700   -7.3970 C   0  0  0  0  0  0  0  0  0  0  0  0
   10.7110    8.4820   -8.8280 N   0  0  0  0  0  0  0  0  0  0  0  0
   10.1590    7.2810   -9.2460 C   0  0  0  0  0  0  0  0  0  0  0  0
    9.8760    7.1590  -10.4450 O   0  0  0  0  0  0  0  0  0  0  0  0
    5.2581    3.8293  -11.0038 H   0  0  0  0  0  0  0  0  0  0  0  0
    4.7156    4.5752  -12.5452 H   0  0  0  0  0  0  0  0  0  0  0  0
    6.0748    3.4008  -12.5452 H   0  0  0  0  0  0  0  0  0  0  0  0
    6.9697    5.5975  -12.7627 H   0  0  0  0  0  0  0  0  0  0  0  0
    5.9832    6.1400  -11.3056 H   0  0  0  0  0  0  0  0  0  0  0  0
    7.4010    5.8170  -10.2760 H   0  0  0  0  0  0  0  0  0  0  0  0
    9.3568    3.6802  -11.0265 H   0  0  0  0  0  0  0  0  0  0  0  0
    8.0758    3.5826  -12.2820 H   0  0  0  0  0  0  0  0  0  0  0  0
    9.2305    4.9586  -12.2820 H   0  0  0  0  0  0  0  0  0  0  0  0
    7.6125    5.5396   -8.8048 H   0  0  0  0  0  0  0  0  0  0  0  0
    8.4213    3.7773   -9.4468 H   0  0  0  0  0  0  0  0  0  0  0  0
    9.3319    4.4080   -7.7296 H   0  0  0  0  0  0  0  0  0  0  0  0
   10.1894    4.7705   -9.4302 H   0  0  0  0  0  0  0  0  0  0  0  0
   12.1310   10.0588   -5.1048 H   0  0  0  0  0  0  0  0  0  0  0  0
   13.8281    8.3940   -3.4217 H   0  0  0  0  0  0  0  0  0  0  0  0
   13.0818    9.9352   -2.8466 H   0  0  0  0  0  0  0  0  0  0  0  0
   12.4629    8.1912   -1.2385 H   0  0  0  0  0  0  0  0  0  0  0  0
   11.0020    8.5608   -2.1655 H   0  0  0  0  0  0  0  0  0  0  0  0
   13.0173    6.2525   -2.7422 H   0  0  0  0  0  0  0  0  0  0  0  0
   11.3444    6.0557   -2.1195 H   0  0  0  0  0  0  0  0  0  0  0  0
   12.0211    5.8532   -4.7671 H   0  0  0  0  0  0  0  0  0  0  0  0
   10.3694    6.5034   -4.0815 H   0  0  0  0  0  0  0  0  0  0  0  0
   11.4044    9.8748   -7.0885 H   0  0  0  0  0  0  0  0  0  0  0  0
   10.8920    9.1860   -9.5570 H   0  0  0  0  0  0  0  0  0  0  0  0
  1  2  1  0
  2  3  1  0
  3  4  1  0
  3  5  1  0
  5  6  1  0
  6  7  1  0
  7  8  2  0
  8  9  1  0
  9 10  1  0
 10 11  2  0
 11 12  1  0
 12 13  1  0
 13 14  1  0
 14 15  1  0
  9 16  2  0
 16 17  1  0
 17 18  1  0
 18 19  2  0
 18  7  1  0
 15 10  1  0
  1 20  1  0
  1 21  1  0
  1 22  1  0
  2 23  1  0
  2 24  1  0
  3 25  1  6
  4 26  1  0
  4 27  1  0
  4 28  1  0
  5 29  1  0
  5 30  1  0
  6 31  1  0
  6 32  1  0
 11 33  1  0
 12 34  1  0
 12 35  1  0
 13 36  1  0
 13 37  1  0
 14 38  1  0
 14 39  1  0
 15 40  1  0
 15 41  1  0
 16 42  1  0
 17 43  1  0
M  CHG  1   3   1
M  END

>  <ID>
DiffSBDD_28_num_sample_100

>  <docking_score>
-8.019

$$$$
DiffSBDD_29_num_sample_100
     RDKit          3D

 73 77  0  0  0  0  0  0  0  0999 V2000
    8.5310    4.3590   -9.3510 C   0  0  0  0  0  0  0  0  0  0  0  0
    8.1360    5.4450  -10.6430 C   0  0  1  0  0  0  0  0  0  0  0  0
    7.0600    4.5620  -11.5820 C   0  0  1  0  0  0  0  0  0  0  0  0
    6.0530    3.9870  -10.7260 O   0  0  0  0  0  0  0  0  0  0  0  0
    6.3390    4.4440  -13.0440 C   0  0  2  0  0  0  0  0  0  0  0  0
    5.4910    3.4010  -13.1820 C   0  0  0  0  0  0  0  0  0  0  0  0
    6.3550    2.3810  -13.9470 C   0  0  2  0  0  0  0  0  0  0  0  0
    6.5630    1.2700  -13.4190 C   0  0  0  0  0  0  0  0  0  0  0  0
    6.9840    0.1880  -14.1750 C   0  0  0  0  0  0  0  0  0  0  0  0
    7.4680    0.5420  -15.5340 C   0  0  0  0  0  0  0  0  0  0  0  0
    7.8520   -0.5450  -16.2880 O   0  0  0  0  0  0  0  0  0  0  0  0
    7.5360    1.8510  -15.9600 C   0  0  0  0  0  0  0  0  0  0  0  0
    7.1330    2.8170  -14.9840 C   0  0  2  0  0  0  0  0  0  0  0  0
    7.8640    4.1180  -14.9650 C   0  0  0  0  0  0  0  0  0  0  0  0
    7.1650    5.1040  -14.0590 C   0  0  2  0  0  0  0  0  0  0  0  0
    8.3710    6.0590  -13.4830 N   0  0  0  0  0  0  0  0  0  0  0  0
    8.2710    6.7350  -12.1680 C   0  0  0  0  0  0  0  0  0  0  0  0
    9.2630    7.4240  -11.4970 C   0  0  0  0  0  0  0  0  0  0  0  0
    8.8110    6.7640  -10.1510 C   0  0  2  0  0  0  0  0  0  0  0  0
    9.9070    6.4670   -9.3910 N   0  0  0  0  0  0  0  0  0  0  0  0
   10.6140    7.3690   -8.4180 S   0  0  0  0  0  0  0  0  0  0  0  0
   11.8720    7.9830   -9.1320 O   0  0  0  0  0  0  0  0  0  0  0  0
    9.5750    8.1590   -7.9170 O   0  0  0  0  0  0  0  0  0  0  0  0
   11.3410    6.5510   -7.2980 N   0  0  0  0  0  0  0  0  0  0  0  0
   11.5230    6.5320   -6.1510 C   0  0  0  0  0  0  0  0  0  0  0  0
   11.7460    7.7630   -5.3260 C   0  0  0  0  0  0  0  0  0  0  0  0
   11.8680    7.6000   -3.9370 C   0  0  0  0  0  0  0  0  0  0  0  0
   11.6280    6.5350   -3.0150 C   0  0  0  0  0  0  0  0  0  0  0  0
   11.9510    6.7410   -1.7150 C   0  0  0  0  0  0  0  0  0  0  0  0
   12.4500    7.9180   -1.2880 C   0  0  0  0  0  0  0  0  0  0  0  0
   12.5740    9.0700   -2.0860 C   0  0  0  0  0  0  0  0  0  0  0  0
   12.2550    8.8700   -3.4060 C   0  0  0  0  0  0  0  0  0  0  0  0
   12.1350    9.7990   -4.4670 N   0  0  0  0  0  0  0  0  0  0  0  0
   11.7960    9.2590   -5.5770 C   0  0  1  0  0  0  0  0  0  0  0  0
   11.8690   10.2900   -6.5430 C   0  0  0  0  0  0  0  0  0  0  0  0
   12.2830   11.4730   -6.1770 F   0  0  0  0  0  0  0  0  0  0  0  0
   12.0310   10.0650   -7.7510 F   0  0  0  0  0  0  0  0  0  0  0  0
    8.3503    4.8557   -8.3863 H   0  0  0  0  0  0  0  0  0  0  0  0
    7.9026    3.4591   -9.4234 H   0  0  0  0  0  0  0  0  0  0  0  0
    9.5907    4.0731   -9.4234 H   0  0  0  0  0  0  0  0  0  0  0  0
    8.0998    6.0200  -11.5801 H   0  0  0  0  0  0  0  0  0  0  0  0
    8.0320    4.4553  -12.0858 H   0  0  0  0  0  0  0  0  0  0  0  0
    5.3710    3.5300  -11.2790 H   0  0  0  0  0  0  0  0  0  0  0  0
    5.4430    5.0363  -13.2813 H   0  0  0  0  0  0  0  0  0  0  0  0
    5.1806    3.0067  -12.2031 H   0  0  0  0  0  0  0  0  0  0  0  0
    4.5526    3.6587  -13.6948 H   0  0  0  0  0  0  0  0  0  0  0  0
    5.6008    1.9901  -14.6458 H   0  0  0  0  0  0  0  0  0  0  0  0
    7.3302    1.4294  -12.6470 H   0  0  0  0  0  0  0  0  0  0  0  0
    5.5569    0.9632  -13.0971 H   0  0  0  0  0  0  0  0  0  0  0  0
    7.8036   -0.3102  -13.6365 H   0  0  0  0  0  0  0  0  0  0  0  0
    6.1060   -0.4602  -14.3127 H   0  0  0  0  0  0  0  0  0  0  0  0
    8.4928    0.6342  -15.1450 H   0  0  0  0  0  0  0  0  0  0  0  0
    8.3680   -1.1730  -15.7230 H   0  0  0  0  0  0  0  0  0  0  0  0
    8.5765    2.0653  -16.2455 H   0  0  0  0  0  0  0  0  0  0  0  0
    6.8306    1.9427  -16.7991 H   0  0  0  0  0  0  0  0  0  0  0  0
    6.2510    3.3482  -15.3712 H   0  0  0  0  0  0  0  0  0  0  0  0
    8.8879    3.9526  -14.5987 H   0  0  0  0  0  0  0  0  0  0  0  0
    7.8881    4.5276  -15.9856 H   0  0  0  0  0  0  0  0  0  0  0  0
    6.4180    5.7193  -14.5819 H   0  0  0  0  0  0  0  0  0  0  0  0
    9.2200    6.1910  -14.0500 H   0  0  0  0  0  0  0  0  0  0  0  0
    7.2928    6.6820  -11.6677 H   0  0  0  0  0  0  0  0  0  0  0  0
   10.2839    7.1570  -11.8075 H   0  0  0  0  0  0  0  0  0  0  0  0
    9.3369    8.5181  -11.5833 H   0  0  0  0  0  0  0  0  0  0  0  0
    8.1570    7.4003   -9.5366 H   0  0  0  0  0  0  0  0  0  0  0  0
   11.8270    5.7510   -7.7290 H   0  0  0  0  0  0  0  0  0  0  0  0
   11.5322    5.5567   -5.6423 H   0  0  0  0  0  0  0  0  0  0  0  0
   11.1957    5.5803   -3.3491 H   0  0  0  0  0  0  0  0  0  0  0  0
   11.8022    5.9271   -0.9901 H   0  0  0  0  0  0  0  0  0  0  0  0
   12.7838    7.9824   -0.2419 H   0  0  0  0  0  0  0  0  0  0  0  0
   12.8974   10.0432   -1.6880 H   0  0  0  0  0  0  0  0  0  0  0  0
   12.3030   10.8090   -4.3570 H   0  0  0  0  0  0  0  0  0  0  0  0
   11.1456    8.8806   -6.3793 H   0  0  0  0  0  0  0  0  0  0  0  0
   10.7695   10.3019   -6.5110 H   0  0  0  0  0  0  0  0  0  0  0  0
  1  2  1  0
  2  3  1  0
  3  4  1  0
  3  5  1  0
  5  6  1  0
  6  7  1  0
  7  8  1  0
  8  9  1  0
  9 10  1  0
 10 11  1  0
 10 12  1  0
 12 13  1  0
 13 14  1  0
 14 15  1  0
 15 16  1  0
 16 17  2  0
 17 18  1  0
 18 19  1  0
 19 20  1  0
 20 21  1  0
 21 22  2  0
 21 23  2  0
 21 24  1  0
 24 25  1  0
 25 26  2  3
 26 27  1  0
 27 28  2  0
 28 29  1  0
 29 30  2  0
 30 31  1  0
 31 32  2  0
 32 33  1  0
 33 34  1  0
 34 35  1  0
 35 36  1  0
 35 37  1  0
 19  2  1  0
 34 26  1  0
 15  5  1  0
 32 27  1  0
 13  7  1  0
  1 38  1  0
  1 39  1  0
  1 40  1  0
  2 41  1  6
  3 42  1  6
  4 43  1  0
  5 44  1  1
  6 45  1  0
  6 46  1  0
  7 47  1  6
  8 48  1  0
  8 49  1  0
  9 50  1  0
  9 51  1  0
 10 52  1  0
 11 53  1  0
 12 54  1  0
 12 55  1  0
 13 56  1  6
 14 57  1  0
 14 58  1  0
 15 59  1  6
 16 60  1  0
 17 61  1  0
 18 62  1  0
 18 63  1  0
 19 64  1  1
 24 65  1  0
 25 66  1  0
 28 67  1  0
 29 68  1  0
 30 69  1  0
 31 70  1  0
 33 71  1  0
 34 72  1  1
 35 73  1  0
M  CHG  2  16   1  20  -1
M  END

>  <ID>
DiffSBDD_29_num_sample_100

>  <docking_score>
-11.522

$$$$
DiffSBDD_2_num_sample_100
     RDKit          3D

 31 32  0  0  0  0  0  0  0  0999 V2000
    8.7080    4.1140  -11.8050 C   0  0  0  0  0  0  0  0  0  0  0  0
    7.7270    5.1070  -11.3230 C   0  0  1  0  0  0  0  0  0  0  0  0
    6.6230    5.1340  -10.6030 O   0  0  0  0  0  0  0  0  0  0  0  0
    8.5340    6.1290  -11.2520 C   0  0  0  0  0  0  0  0  0  0  0  0
    8.7500    6.2610  -10.2260 N   0  0  0  0  0  0  0  0  0  0  0  0
    9.5640    6.4770   -9.0840 C   0  0  0  0  0  0  0  0  0  0  0  0
   10.3130    6.7480   -8.1430 C   0  0  0  0  0  0  0  0  0  0  0  0
   10.8530    7.2600   -6.9160 C   0  0  0  0  0  0  0  0  0  0  0  0
   10.9710    6.5550   -5.6900 C   0  0  0  0  0  0  0  0  0  0  0  0
   11.5180    7.1480   -4.5170 C   0  0  0  0  0  0  0  0  0  0  0  0
   11.5980    6.5540   -3.3120 C   0  0  0  0  0  0  0  0  0  0  0  0
   12.3010    7.1140   -2.3200 C   0  0  0  0  0  0  0  0  0  0  0  0
   12.7580    8.4510   -2.4380 C   0  0  0  0  0  0  0  0  0  0  0  0
   12.5510    9.1300   -3.5950 C   0  0  0  0  0  0  0  0  0  0  0  0
   11.9560    8.5210   -4.6430 C   0  0  0  0  0  0  0  0  0  0  0  0
   11.5410    9.2240   -5.8880 C   0  0  0  0  0  0  0  0  0  0  0  0
   11.6940   10.5060   -6.0420 O   0  0  0  0  0  0  0  0  0  0  0  0
   11.1250    8.5330   -6.9830 O   0  0  0  0  0  0  0  0  0  0  0  0
    9.1895    3.6266  -10.9444 H   0  0  0  0  0  0  0  0  0  0  0  0
    8.1937    3.3566  -12.4148 H   0  0  0  0  0  0  0  0  0  0  0  0
    9.4716    4.6191  -12.4148 H   0  0  0  0  0  0  0  0  0  0  0  0
    6.8185    4.8385  -11.8820 H   0  0  0  0  0  0  0  0  0  0  0  0
    6.4000    6.0710  -10.3740 H   0  0  0  0  0  0  0  0  0  0  0  0
    9.4578    5.9258  -11.8136 H   0  0  0  0  0  0  0  0  0  0  0  0
    8.0789    7.0314  -11.6863 H   0  0  0  0  0  0  0  0  0  0  0  0
    7.8130    6.1890   -9.8050 H   0  0  0  0  0  0  0  0  0  0  0  0
   10.6269    5.5112   -5.6443 H   0  0  0  0  0  0  0  0  0  0  0  0
   11.0804    5.5986   -3.1405 H   0  0  0  0  0  0  0  0  0  0  0  0
   12.5246    6.5357   -1.4114 H   0  0  0  0  0  0  0  0  0  0  0  0
   13.2769    8.9349   -1.5974 H   0  0  0  0  0  0  0  0  0  0  0  0
   12.8690   10.1797   -3.6791 H   0  0  0  0  0  0  0  0  0  0  0  0
  1  2  1  0
  2  3  1  0
  2  4  1  0
  4  5  1  0
  5  6  1  0
  6  7  3  0
  7  8  1  0
  8  9  2  0
  9 10  1  0
 10 11  2  0
 11 12  1  0
 12 13  2  0
 13 14  1  0
 14 15  2  0
 15 16  1  0
 16 17  2  0
 16 18  1  0
 18  8  1  0
 15 10  1  0
  1 19  1  0
  1 20  1  0
  1 21  1  0
  2 22  1  6
  3 23  1  0
  4 24  1  0
  4 25  1  0
  5 26  1  0
  9 27  1  0
 11 28  1  0
 12 29  1  0
 13 30  1  0
 14 31  1  0
M  END

>  <ID>
DiffSBDD_2_num_sample_100

>  <docking_score>
-9.27

$$$$
DiffSBDD_30_num_sample_100
     RDKit          3D

 48 50  0  0  0  0  0  0  0  0999 V2000
    8.6990    5.4750   -8.4300 C   0  0  0  0  0  0  0  0  0  0  0  0
    9.8950    6.3670   -8.8310 C   0  0  2  0  0  0  0  0  0  0  0  0
   10.3310    7.2110   -7.9530 N   0  0  0  0  0  0  0  0  0  0  0  0
   11.1310    7.8470   -8.2190 C   0  0  0  0  0  0  0  0  0  0  0  0
   11.9450    8.5430   -7.2510 N   0  0  0  0  0  0  0  0  0  0  0  0
   11.1670    8.8200   -6.1410 C   0  0  0  0  0  0  0  0  0  0  0  0
   11.6700    8.3120   -4.8840 C   0  0  0  0  0  0  0  0  0  0  0  0
   12.3420    9.2130   -4.1940 C   0  0  0  0  0  0  0  0  0  0  0  0
   12.7890    8.8760   -2.8880 C   0  0  0  0  0  0  0  0  0  0  0  0
   12.5250    7.6310   -2.4480 C   0  0  0  0  0  0  0  0  0  0  0  0
   12.8960    7.2820   -1.2160 F   0  0  0  0  0  0  0  0  0  0  0  0
   11.8520    6.7380   -3.1980 C   0  0  0  0  0  0  0  0  0  0  0  0
   11.4670    7.0770   -4.4740 C   0  0  0  0  0  0  0  0  0  0  0  0
   10.8730    6.1920   -5.1860 F   0  0  0  0  0  0  0  0  0  0  0  0
   11.1620    8.0970   -9.8490 S   0  0  0  0  0  0  0  0  0  0  0  0
   10.2470    6.6720  -10.2520 C   0  0  2  0  0  0  0  0  0  0  0  0
    8.9870    6.5740  -11.1090 C   0  0  1  0  0  0  0  0  0  0  0  0
    8.7370    7.8680  -11.7690 C   0  0  0  0  0  0  0  0  0  0  0  0
    7.5220    7.7900  -12.3610 O   0  0  0  0  0  0  0  0  0  0  0  0
    9.2100    5.4180  -12.0500 C   0  0  0  0  0  0  0  0  0  0  0  0
    8.3760    4.1200  -12.0020 C   0  0  0  0  0  0  0  0  0  0  0  0
    7.0860    4.3740  -12.7260 C   0  0  0  0  0  0  0  0  0  0  0  0
    6.2680    3.1230  -12.7460 C   0  0  0  0  0  0  0  0  0  0  0  0
    5.9400    4.2790  -11.7870 C   0  0  0  0  0  0  0  0  0  0  0  0
    8.6309    5.4242   -7.3333 H   0  0  0  0  0  0  0  0  0  0  0  0
    7.7703    5.9028   -8.8356 H   0  0  0  0  0  0  0  0  0  0  0  0
    8.8442    4.4629   -8.8356 H   0  0  0  0  0  0  0  0  0  0  0  0
   10.5390    5.4760   -8.7928 H   0  0  0  0  0  0  0  0  0  0  0  0
   12.9370    8.7920   -7.3680 H   0  0  0  0  0  0  0  0  0  0  0  0
   11.0788    9.9130   -6.0535 H   0  0  0  0  0  0  0  0  0  0  0  0
   10.2077    8.3090   -6.3103 H   0  0  0  0  0  0  0  0  0  0  0  0
   12.5521   10.2048   -4.6207 H   0  0  0  0  0  0  0  0  0  0  0  0
   13.3285    9.6022   -2.2622 H   0  0  0  0  0  0  0  0  0  0  0  0
   11.6117    5.7440   -2.7928 H   0  0  0  0  0  0  0  0  0  0  0  0
   10.8432    6.0585  -10.9436 H   0  0  0  0  0  0  0  0  0  0  0  0
    8.0741    6.3751  -10.5285 H   0  0  0  0  0  0  0  0  0  0  0  0
    8.7416    8.6775  -11.0242 H   0  0  0  0  0  0  0  0  0  0  0  0
    9.5190    8.0837  -12.5119 H   0  0  0  0  0  0  0  0  0  0  0  0
    7.5620    8.2110  -13.2560 H   0  0  0  0  0  0  0  0  0  0  0  0
    9.0803    5.8238  -13.0641 H   0  0  0  0  0  0  0  0  0  0  0  0
   10.1966    5.0569  -11.7239 H   0  0  0  0  0  0  0  0  0  0  0  0
    8.9260    3.3039  -12.4934 H   0  0  0  0  0  0  0  0  0  0  0  0
    8.1797    3.8288  -10.9596 H   0  0  0  0  0  0  0  0  0  0  0  0
    7.4014    5.1083  -13.4818 H   0  0  0  0  0  0  0  0  0  0  0  0
    5.6078    2.9066  -13.5988 H   0  0  0  0  0  0  0  0  0  0  0  0
    6.4737    2.0477  -12.6393 H   0  0  0  0  0  0  0  0  0  0  0  0
    5.0414    4.8925  -11.9488 H   0  0  0  0  0  0  0  0  0  0  0  0
    5.8095    4.3799  -10.6994 H   0  0  0  0  0  0  0  0  0  0  0  0
  1  2  1  0
  2  3  1  0
  3  4  2  0
  4  5  1  0
  5  6  1  0
  6  7  1  0
  7  8  2  0
  8  9  1  0
  9 10  2  0
 10 11  1  0
 10 12  1  0
 12 13  2  0
 13 14  1  0
  4 15  1  0
 15 16  1  0
 16 17  1  0
 17 18  1  0
 18 19  1  0
 17 20  1  0
 20 21  1  0
 21 22  1  0
 22 23  1  0
 23 24  1  0
 16  2  1  0
 24 22  1  0
 13  7  1  0
  1 25  1  0
  1 26  1  0
  1 27  1  0
  2 28  1  1
  5 29  1  0
  6 30  1  0
  6 31  1  0
  8 32  1  0
  9 33  1  0
 12 34  1  0
 16 35  1  6
 17 36  1  1
 18 37  1  0
 18 38  1  0
 19 39  1  0
 20 40  1  0
 20 41  1  0
 21 42  1  0
 21 43  1  0
 22 44  1  0
 23 45  1  0
 23 46  1  0
 24 47  1  0
 24 48  1  0
M  END

>  <ID>
DiffSBDD_30_num_sample_100

>  <docking_score>
-8.712

$$$$
DiffSBDD_31_num_sample_100
     RDKit          3D

 50 53  0  0  0  0  0  0  0  0999 V2000
   12.3090    8.1800   -1.5250 O   0  0  0  0  0  0  0  0  0  0  0  0
   12.0010    8.0070   -2.7730 C   0  0  0  0  0  0  0  0  0  0  0  0
   11.8020    6.7330   -3.3760 C   0  0  0  0  0  0  0  0  0  0  0  0
   11.4350    6.5980   -4.6350 C   0  0  0  0  0  0  0  0  0  0  0  0
   11.2360    7.6540   -5.4230 C   0  0  0  0  0  0  0  0  0  0  0  0
   10.9140    7.5440   -6.7960 C   0  0  0  0  0  0  0  0  0  0  0  0
   11.2400    8.3270   -7.7000 N   0  0  0  0  0  0  0  0  0  0  0  0
   10.7750    7.9510   -9.0160 N   0  0  0  0  0  0  0  0  0  0  0  0
   10.0640    6.9410   -8.9440 C   0  0  0  0  0  0  0  0  0  0  0  0
    9.3110    6.5230  -10.0320 N   0  0  0  0  0  0  0  0  0  0  0  0
    9.0950    7.4130  -11.1950 C   0  0  0  0  0  0  0  0  0  0  0  0
    9.2640    6.6870  -12.4450 C   0  0  0  0  0  0  0  0  0  0  0  0
    8.4140    5.5300  -12.1590 C   0  0  0  0  0  0  0  0  0  0  0  0
    7.3910    5.8380  -13.2570 C   0  0  2  0  0  0  0  0  0  0  0  0
    8.2650    5.0690  -14.2460 C   0  0  0  0  0  0  0  0  0  0  0  0
    7.7750    5.0880  -15.5240 C   0  0  0  0  0  0  0  0  0  0  0  0
    8.3420    4.1900  -16.7710 Cl  0  0  0  0  0  0  0  0  0  0  0  0
    6.5810    6.0140  -15.7850 C   0  0  0  0  0  0  0  0  0  0  0  0
    6.4560    7.2990  -14.9700 C   0  0  0  0  0  0  0  0  0  0  0  0
    6.4360    6.7730  -13.6050 C   0  0  2  0  0  0  0  0  0  0  0  0
    5.6410    7.8490  -12.4980 Cl  0  0  0  0  0  0  0  0  0  0  0  0
    8.0070    4.8260  -11.0910 C   0  0  0  0  0  0  0  0  0  0  0  0
    8.5200    5.4020   -9.8260 C   0  0  0  0  0  0  0  0  0  0  0  0
   10.0470    6.1760   -7.3910 S   0  0  0  0  0  0  0  0  0  0  0  0
   11.4340    8.9470   -4.9270 C   0  0  0  0  0  0  0  0  0  0  0  0
   11.8610    9.0950   -3.5540 C   0  0  0  0  0  0  0  0  0  0  0  0
   11.9670   10.3580   -3.1020 O   0  0  0  0  0  0  0  0  0  0  0  0
   12.0800    9.0300   -1.0720 H   0  0  0  0  0  0  0  0  0  0  0  0
   11.9601    5.8288   -2.7698 H   0  0  0  0  0  0  0  0  0  0  0  0
   11.2893    5.5879   -5.0455 H   0  0  0  0  0  0  0  0  0  0  0  0
    8.0745    7.8212  -11.1511 H   0  0  0  0  0  0  0  0  0  0  0  0
    9.8364    8.2248  -11.1579 H   0  0  0  0  0  0  0  0  0  0  0  0
    8.8990    7.2628  -13.3083 H   0  0  0  0  0  0  0  0  0  0  0  0
   10.3036    6.4526  -12.7174 H   0  0  0  0  0  0  0  0  0  0  0  0
    9.1069    4.7010  -11.9523 H   0  0  0  0  0  0  0  0  0  0  0  0
    6.3486    5.8902  -12.9097 H   0  0  0  0  0  0  0  0  0  0  0  0
    9.2688    5.5189  -14.2493 H   0  0  0  0  0  0  0  0  0  0  0  0
    8.2850    4.0192  -13.9182 H   0  0  0  0  0  0  0  0  0  0  0  0
    8.4800    5.8919  -15.7824 H   0  0  0  0  0  0  0  0  0  0  0  0
    6.6236    6.3059  -16.8447 H   0  0  0  0  0  0  0  0  0  0  0  0
    5.7092    5.4177  -15.4776 H   0  0  0  0  0  0  0  0  0  0  0  0
    7.3170    7.9641  -15.1325 H   0  0  0  0  0  0  0  0  0  0  0  0
    5.5806    7.9128  -15.2287 H   0  0  0  0  0  0  0  0  0  0  0  0
    5.7436    5.9270  -13.4831 H   0  0  0  0  0  0  0  0  0  0  0  0
    6.9074    4.8258  -11.0623 H   0  0  0  0  0  0  0  0  0  0  0  0
    8.3995    3.8027  -11.1854 H   0  0  0  0  0  0  0  0  0  0  0  0
    7.6643    5.6857   -9.1956 H   0  0  0  0  0  0  0  0  0  0  0  0
    9.1453    4.6376   -9.3415 H   0  0  0  0  0  0  0  0  0  0  0  0
   11.2691    9.8278   -5.5650 H   0  0  0  0  0  0  0  0  0  0  0  0
   12.7210   10.9280   -3.3970 H   0  0  0  0  0  0  0  0  0  0  0  0
  1  2  1  0
  2  3  2  0
  3  4  1  0
  4  5  2  0
  5  6  1  0
  6  7  2  0
  7  8  1  0
  8  9  2  0
  9 10  1  0
 10 11  1  0
 11 12  1  0
 12 13  1  0
 13 14  1  0
 14 15  1  0
 15 16  1  0
 16 17  1  0
 16 18  1  0
 18 19  1  0
 19 20  1  0
 20 21  1  0
 13 22  1  0
 22 23  1  0
  9 24  1  0
  5 25  1  0
 25 26  2  0
 26 27  1  0
 26  2  1  0
 24  6  1  0
 23 10  1  0
 20 14  1  0
  1 28  1  0
  3 29  1  0
  4 30  1  0
 11 31  1  0
 11 32  1  0
 12 33  1  0
 12 34  1  0
 13 35  1  0
 14 36  1  1
 15 37  1  0
 15 38  1  0
 16 39  1  0
 18 40  1  0
 18 41  1  0
 19 42  1  0
 19 43  1  0
 20 44  1  6
 22 45  1  0
 22 46  1  0
 23 47  1  0
 23 48  1  0
 25 49  1  0
 27 50  1  0
M  END

>  <ID>
DiffSBDD_31_num_sample_100

>  <docking_score>
-9.894

$$$$
DiffSBDD_32_num_sample_100
     RDKit          3D

119123  0  0  0  0  0  0  0  0999 V2000
   11.7430    4.7100  -17.3790 C   0  0  0  0  0  0  0  0  0  0  0  0
   10.4140    5.1870  -16.8510 C   0  0  0  0  0  0  0  0  0  0  0  0
    9.3650    4.0840  -17.1250 C   0  0  2  0  0  0  0  0  0  0  0  0
    9.5380    3.4280  -18.4900 C   0  0  0  0  0  0  0  0  0  0  0  0
    8.3930    3.2120  -19.3850 C   0  0  0  0  0  0  0  0  0  0  0  0
    8.0100    1.7310  -19.4070 C   0  0  2  0  0  0  0  0  0  0  0  0
    6.7240    1.4550  -19.4420 F   0  0  0  0  0  0  0  0  0  0  0  0
    8.6760    0.9630  -18.5520 C   0  0  2  0  0  0  0  0  0  0  0  0
    8.9990   -0.3620  -18.5750 C   0  0  1  0  0  0  0  0  0  0  0  0
   10.3210   -0.3260  -18.1420 C   0  0  0  0  0  0  0  0  0  0  0  0
   11.5410    0.3920  -18.3830 C   0  0  0  0  0  0  0  0  0  0  0  0
   12.5080    1.0140  -18.9550 C   0  0  0  0  0  0  0  0  0  0  0  0
   13.8340    0.8780  -18.6070 C   0  0  0  0  0  0  0  0  0  0  0  0
   14.5520    1.4180  -17.4470 C   0  0  0  0  0  0  0  0  0  0  0  0
   14.4510   -0.0540  -17.8660 C   0  0  0  0  0  0  0  0  0  0  0  0
    8.1250   -1.4460  -18.6890 C   0  0  0  0  0  0  0  0  0  0  0  0
    6.8200   -1.9230  -17.9090 C   0  0  0  0  0  0  0  0  0  0  0  0
    5.5960   -0.9500  -17.9360 C   0  0  1  0  0  0  0  0  0  0  0  0
    4.5880   -1.3360  -18.9680 C   0  0  0  0  0  0  0  0  0  0  0  0
    5.0110   -0.9340  -16.4660 C   0  0  0  0  0  0  0  0  0  0  0  0
    4.6560    0.1280  -15.6070 C   0  0  0  0  0  0  0  0  0  0  0  0
    5.1570    0.3800  -14.5010 N   0  0  0  0  0  0  0  0  0  0  0  0
    8.1130    1.3790  -17.1130 C   0  0  0  0  0  0  0  0  0  0  0  0
    7.0870    2.4210  -16.9040 C   0  0  0  0  0  0  0  0  0  0  0  0
    7.6120    3.4620  -15.7290 C   0  0  2  0  0  0  0  0  0  0  0  0
    7.7450    4.1470  -14.3760 O   0  0  0  0  0  0  0  0  0  0  0  0
    7.3460    3.5250  -12.9560 P   0  0  1  0  0  5  0  0  0  0  0  0
    5.9160    3.1020  -12.9690 O   0  0  0  0  0  0  0  0  0  0  0  0
    8.1020    2.2860  -12.8630 O   0  0  0  0  0  0  0  0  0  0  0  0
    7.3520    4.4600  -11.5480 N   0  0  0  0  0  0  0  0  0  0  0  0
    8.4670    5.2890  -11.0180 C   0  0  2  0  0  0  0  0  0  0  0  0
    9.6120    5.2880  -11.8130 C   0  0  0  0  0  0  0  0  0  0  0  0
    8.6690    5.2870   -9.4340 C   0  0  0  0  0  0  0  0  0  0  0  0
    9.1320    6.7100   -9.2720 C   0  0  1  0  0  0  0  0  0  0  0  0
    8.8080    7.6620  -10.4810 O   0  0  0  0  0  0  0  0  0  0  0  0
    9.8460    7.0710   -8.2430 C   0  0  2  0  0  0  0  0  0  0  0  0
    9.6840    8.1350   -7.0510 C   0  0  1  0  0  0  0  0  0  0  0  0
    8.2720    8.4370   -6.9640 F   0  0  0  0  0  0  0  0  0  0  0  0
   10.5120    9.2770   -6.2760 C   0  0  0  0  0  0  0  0  0  0  0  0
   11.7740    8.5140   -5.8940 C   0  0  1  0  0  0  0  0  0  0  0  0
   12.0830    8.1470   -4.3620 C   0  0  0  0  0  0  0  0  0  0  0  0
   12.6720    9.1140   -3.5160 C   0  0  0  0  0  0  0  0  0  0  0  0
   12.9160    8.6960   -2.1360 C   0  0  0  0  0  0  0  0  0  0  0  0
   12.4300    7.3890   -1.5430 C   0  0  0  0  0  0  0  0  0  0  0  0
   11.8070    6.5380   -2.5230 C   0  0  0  0  0  0  0  0  0  0  0  0
   11.6920    6.8910   -3.8770 C   0  0  0  0  0  0  0  0  0  0  0  0
   12.0180    7.5380   -6.9040 C   0  0  0  0  0  0  0  0  0  0  0  0
   11.1060    7.6860   -8.2270 C   0  0  1  0  0  0  0  0  0  0  0  0
   11.9910    8.2560   -9.3200 S   0  0  0  0  0  0  0  0  0  0  0  0
   13.5070    8.3130   -8.8710 O   0  0  0  0  0  0  0  0  0  0  0  0
   11.7890    7.3290  -10.3820 O   0  0  0  0  0  0  0  0  0  0  0  0
   11.1550    9.5250   -9.3790 O   0  0  0  0  0  0  0  0  0  0  0  0
    8.0110    4.6740  -16.5280 C   0  0  1  0  0  0  0  0  0  0  0  0
    6.9480    6.1300  -15.9730 S   0  0  0  0  0  0  0  0  0  0  0  0
    6.2730    6.6670  -17.5770 C   0  0  0  0  0  0  0  0  0  0  0  0
   12.4081    4.4713  -16.5360 H   0  0  0  0  0  0  0  0  0  0  0  0
   11.5919    3.8100  -17.9931 H   0  0  0  0  0  0  0  0  0  0  0  0
   12.1987    5.5007  -17.9931 H   0  0  0  0  0  0  0  0  0  0  0  0
   10.4871    5.3717  -15.7691 H   0  0  0  0  0  0  0  0  0  0  0  0
   10.1206    6.1240  -17.3470 H   0  0  0  0  0  0  0  0  0  0  0  0
    9.4515    3.1135  -16.6145 H   0  0  0  0  0  0  0  0  0  0  0  0
   10.2541    4.0509  -19.0459 H   0  0  0  0  0  0  0  0  0  0  0  0
    9.8302    2.4011  -18.2252 H   0  0  0  0  0  0  0  0  0  0  0  0
    7.5367    3.8032  -19.0283 H   0  0  0  0  0  0  0  0  0  0  0  0
    8.6692    3.5259  -20.4024 H   0  0  0  0  0  0  0  0  0  0  0  0
    8.3675    1.4457  -20.4074 H   0  0  0  0  0  0  0  0  0  0  0  0
    9.6815    1.1804  -18.9414 H   0  0  0  0  0  0  0  0  0  0  0  0
    8.7177   -1.0727  -19.3661 H   0  0  0  0  0  0  0  0  0  0  0  0
   10.4831   -1.0914  -17.3688 H   0  0  0  0  0  0  0  0  0  0  0  0
   12.2611    1.7012  -19.7777 H   0  0  0  0  0  0  0  0  0  0  0  0
   13.8469    1.1033  -19.6836 H   0  0  0  0  0  0  0  0  0  0  0  0
   15.4890    1.9809  -17.5702 H   0  0  0  0  0  0  0  0  0  0  0  0
   14.3288    2.0321  -16.5621 H   0  0  0  0  0  0  0  0  0  0  0  0
   15.3362   -0.5719  -18.2638 H   0  0  0  0  0  0  0  0  0  0  0  0
   14.1302   -0.9793  -17.3650 H   0  0  0  0  0  0  0  0  0  0  0  0
    7.7731   -1.3676  -19.7283 H   0  0  0  0  0  0  0  0  0  0  0  0
    8.7983   -2.1646  -18.1989 H   0  0  0  0  0  0  0  0  0  0  0  0
    6.4976   -2.8779  -18.3497 H   0  0  0  0  0  0  0  0  0  0  0  0
    7.1190   -1.9853  -16.8523 H   0  0  0  0  0  0  0  0  0  0  0  0
    5.9013    0.0641  -18.2334 H   0  0  0  0  0  0  0  0  0  0  0  0
    3.6712   -1.6871  -18.4718 H   0  0  0  0  0  0  0  0  0  0  0  0
    4.3540   -0.4639  -19.5962 H   0  0  0  0  0  0  0  0  0  0  0  0
    4.9963   -2.1414  -19.5962 H   0  0  0  0  0  0  0  0  0  0  0  0
    4.0847   -1.5214  -16.5490 H   0  0  0  0  0  0  0  0  0  0  0  0
    5.9468   -1.2034  -15.9543 H   0  0  0  0  0  0  0  0  0  0  0  0
    3.8556    0.7986  -15.9528 H   0  0  0  0  0  0  0  0  0  0  0  0
    4.8200    1.1850  -13.9540 H   0  0  0  0  0  0  0  0  0  0  0  0
    7.6986    0.4586  -16.6759 H   0  0  0  0  0  0  0  0  0  0  0  0
    8.9975    1.8601  -16.6700 H   0  0  0  0  0  0  0  0  0  0  0  0
    6.9254    2.9734  -17.8414 H   0  0  0  0  0  0  0  0  0  0  0  0
    6.1403    1.9550  -16.5933 H   0  0  0  0  0  0  0  0  0  0  0  0
    7.5581    2.5042  -15.1908 H   0  0  0  0  0  0  0  0  0  0  0  0
    7.1340    3.7960  -10.7910 H   0  0  0  0  0  0  0  0  0  0  0  0
    8.1020    6.3197  -11.1382 H   0  0  0  0  0  0  0  0  0  0  0  0
   10.5047    5.2872  -11.1702 H   0  0  0  0  0  0  0  0  0  0  0  0
    9.6167    4.3899  -12.4481 H   0  0  0  0  0  0  0  0  0  0  0  0
    9.6182    6.1861  -12.4481 H   0  0  0  0  0  0  0  0  0  0  0  0
    7.7297    5.0920   -8.8957 H   0  0  0  0  0  0  0  0  0  0  0  0
    9.3444    4.5146   -9.0375 H   0  0  0  0  0  0  0  0  0  0  0  0
   10.0950    6.4494   -9.7353 H   0  0  0  0  0  0  0  0  0  0  0  0
    9.2810    7.3410  -11.2890 H   0  0  0  0  0  0  0  0  0  0  0  0
    9.5270    6.0193   -8.1973 H   0  0  0  0  0  0  0  0  0  0  0  0
   10.7387   10.1285   -6.9344 H   0  0  0  0  0  0  0  0  0  0  0  0
    9.9782    9.7248   -5.4248 H   0  0  0  0  0  0  0  0  0  0  0  0
   12.5968    9.2441   -5.8852 H   0  0  0  0  0  0  0  0  0  0  0  0
   12.9314   10.1211   -3.8743 H   0  0  0  0  0  0  0  0  0  0  0  0
   13.4892    9.3740   -1.4867 H   0  0  0  0  0  0  0  0  0  0  0  0
   12.5408    7.1204   -0.4821 H   0  0  0  0  0  0  0  0  0  0  0  0
   11.4032    5.5683   -2.1965 H   0  0  0  0  0  0  0  0  0  0  0  0
   11.2800    6.1551   -4.5832 H   0  0  0  0  0  0  0  0  0  0  0  0
   13.0729    7.6152   -7.2059 H   0  0  0  0  0  0  0  0  0  0  0  0
   11.7619    6.5646   -6.4603 H   0  0  0  0  0  0  0  0  0  0  0  0
   13.5640    8.1990   -7.8880 H   0  0  0  0  0  0  0  0  0  0  0  0
   12.5070    6.6470  -10.3660 H   0  0  0  0  0  0  0  0  0  0  0  0
   11.6000   10.1860   -9.9660 H   0  0  0  0  0  0  0  0  0  0  0  0
    7.9722    5.4077  -17.3466 H   0  0  0  0  0  0  0  0  0  0  0  0
    5.4223    7.3438  -17.4088 H   0  0  0  0  0  0  0  0  0  0  0  0
    7.0537    7.1936  -18.1455 H   0  0  0  0  0  0  0  0  0  0  0  0
    5.9353    5.7879  -18.1455 H   0  0  0  0  0  0  0  0  0  0  0  0
  1  2  1  0
  2  3  1  0
  3  4  1  0
  4  5  1  0
  5  6  1  0
  6  7  1  0
  6  8  1  0
  8  9  1  0
  9 10  1  0
 10 11  2  0
 11 12  2  0
 12 13  1  0
 13 14  1  0
 14 15  1  0
  9 16  1  0
 16 17  1  0
 17 18  1  0
 18 19  1  0
 18 20  1  0
 20 21  1  0
 21 22  2  3
  8 23  1  0
 23 24  1  0
 24 25  1  0
 25 26  1  0
 26 27  1  0
 27 28  2  0
 27 29  1  1
 27 30  1  0
 30 31  1  0
 31 32  1  0
 31 33  1  0
 33 34  1  0
 34 35  1  0
 34 36  1  0
 36 37  1  0
 37 38  1  6
 37 39  1  0
 39 40  1  0
 40 41  1  0
 41 42  2  0
 42 43  1  0
 43 44  2  0
 44 45  1  0
 45 46  2  0
 40 47  1  0
 47 48  1  0
 48 49  1  6
 49 50  1  0
 49 51  1  0
 49 52  1  0
 25 53  1  0
 53 54  1  0
 54 55  1  0
 53  3  1  0
 15 13  1  0
 48 36  1  0
 48 37  1  0
 46 41  1  0
  1 56  1  0
  1 57  1  0
  1 58  1  0
  2 59  1  0
  2 60  1  0
  3 61  1  1
  4 62  1  0
  4 63  1  0
  5 64  1  0
  5 65  1  0
  6 66  1  6
  8 67  1  1
  9 68  1  6
 10 69  1  0
 12 70  1  0
 13 71  1  0
 14 72  1  0
 14 73  1  0
 15 74  1  0
 15 75  1  0
 16 76  1  0
 16 77  1  0
 17 78  1  0
 17 79  1  0
 18 80  1  6
 19 81  1  0
 19 82  1  0
 19 83  1  0
 20 84  1  0
 20 85  1  0
 21 86  1  0
 22 87  1  0
 23 88  1  0
 23 89  1  0
 24 90  1  0
 24 91  1  0
 25 92  1  1
 30 93  1  0
 31 94  1  1
 32 95  1  0
 32 96  1  0
 32 97  1  0
 33 98  1  0
 33 99  1  0
 34100  1  1
 35101  1  0
 36102  1  1
 39103  1  0
 39104  1  0
 40105  1  6
 42106  1  0
 43107  1  0
 44108  1  0
 45109  1  0
 46110  1  0
 47111  1  0
 47112  1  0
 50113  1  0
 51114  1  0
 52115  1  0
 53116  1  6
 55117  1  0
 55118  1  0
 55119  1  0
M  CHG  1  29  -1
M  END

>  <ID>
DiffSBDD_32_num_sample_100

>  <docking_score>
-9.452

$$$$
DiffSBDD_33_num_sample_100
     RDKit          3D

 82 83  0  0  0  0  0  0  0  0999 V2000
   13.4660    9.7080   -4.8010 C   0  0  0  0  0  0  0  0  0  0  0  0
   12.1580    9.6120   -5.0140 C   0  0  0  0  0  0  0  0  0  0  0  0
   11.5940    8.0350   -4.7840 C   0  0  1  0  0  0  0  0  0  0  0  0
   11.2580    6.9540   -3.7860 C   0  0  0  0  0  0  0  0  0  0  0  0
   12.4550    6.6410   -2.7500 C   0  0  0  0  0  0  0  0  0  0  0  0
   12.0550    7.6880   -2.0360 C   0  0  0  0  0  0  0  0  0  0  0  0
   12.1470    8.8640   -1.5650 O   0  0  0  0  0  0  0  0  0  0  0  0
   10.5130    8.1900   -5.7330 O   0  0  0  0  0  0  0  0  0  0  0  0
   10.5460    8.8110   -6.7120 C   0  0  0  0  0  0  0  0  0  0  0  0
   10.9840    7.4060   -7.3040 C   0  0  2  0  0  0  0  0  0  0  0  0
   12.3190    7.6480   -8.0790 C   0  0  0  0  0  0  0  0  0  0  0  0
   12.0050    8.3540   -9.4100 C   0  0  0  0  0  0  0  0  0  0  0  0
   11.2860    7.7180  -10.4070 C   0  0  0  0  0  0  0  0  0  0  0  0
   10.5590    7.2130  -10.8990 C   0  0  0  0  0  0  0  0  0  0  0  0
    9.7250    7.3920  -11.9700 C   0  0  0  0  0  0  0  0  0  0  0  0
    8.7420    6.7940  -11.9480 C   0  0  0  0  0  0  0  0  0  0  0  0
    7.3040    6.5860  -12.8790 C   0  0  0  0  0  0  0  0  0  0  0  0
    7.8840    5.9640  -14.0980 C   0  0  0  0  0  0  0  0  0  0  0  0
    7.2920    4.7680  -13.9270 C   0  0  0  0  0  0  0  0  0  0  0  0
    6.2380    4.4640  -13.1380 C   0  0  0  0  0  0  0  0  0  0  0  0
    5.4350    3.2650  -12.8220 C   0  0  0  0  0  0  0  0  0  0  0  0
    5.5530    2.1310  -13.3550 C   0  0  0  0  0  0  0  0  0  0  0  0
    6.7210    2.0370  -14.3680 C   0  0  0  0  0  0  0  0  0  0  0  0
    6.6220    0.7130  -14.6880 C   0  0  1  0  0  0  0  0  0  0  0  0
    6.8440    0.0190  -13.2980 N   0  0  0  0  0  0  0  0  0  0  0  0
    5.9330    0.1030  -15.7730 C   0  0  2  0  0  0  0  0  0  0  0  0
    6.4260    0.5970  -17.1170 C   0  0  0  0  0  0  0  0  0  0  0  0
    4.5970   -0.1860  -15.5180 O   0  0  0  0  0  0  0  0  0  0  0  0
    7.5730    3.4430  -15.0090 C   0  0  0  0  0  0  0  0  0  0  0  0
    8.4670    6.1150  -10.6860 C   0  0  0  0  0  0  0  0  0  0  0  0
    8.3170    5.0110   -9.9810 C   0  0  0  0  0  0  0  0  0  0  0  0
    9.3100    4.3240   -8.7410 C   0  0  0  0  0  0  0  0  0  0  0  0
   10.1890    5.1640   -7.6960 C   0  0  0  0  0  0  0  0  0  0  0  0
    9.7610    6.6890   -7.6470 C   0  0  0  0  0  0  0  0  0  0  0  0
   13.6611    9.7223   -3.7185 H   0  0  0  0  0  0  0  0  0  0  0  0
   13.9756    8.8448   -5.2541 H   0  0  0  0  0  0  0  0  0  0  0  0
   13.8441   10.6363   -5.2541 H   0  0  0  0  0  0  0  0  0  0  0  0
   11.6343   10.2820   -4.3162 H   0  0  0  0  0  0  0  0  0  0  0  0
   11.9619    9.8944   -6.0589 H   0  0  0  0  0  0  0  0  0  0  0  0
   12.5584    7.5444   -4.5859 H   0  0  0  0  0  0  0  0  0  0  0  0
   10.3750    7.2719   -3.2123 H   0  0  0  0  0  0  0  0  0  0  0  0
   11.0743    6.0319   -4.3569 H   0  0  0  0  0  0  0  0  0  0  0  0
   12.3680    5.6750   -2.2310 H   0  0  0  0  0  0  0  0  0  0  0  0
   13.4964    6.5448   -3.0908 H   0  0  0  0  0  0  0  0  0  0  0  0
   11.0678    7.8058   -2.5067 H   0  0  0  0  0  0  0  0  0  0  0  0
   12.7500    7.3630   -1.2477 H   0  0  0  0  0  0  0  0  0  0  0  0
   13.0920    9.0560   -1.3380 H   0  0  0  0  0  0  0  0  0  0  0  0
    9.5815    9.2036   -7.0663 H   0  0  0  0  0  0  0  0  0  0  0  0
   11.1018    9.7511   -6.8435 H   0  0  0  0  0  0  0  0  0  0  0  0
   11.3899    6.5496   -6.7456 H   0  0  0  0  0  0  0  0  0  0  0  0
   12.9867    8.2799   -7.4750 H   0  0  0  0  0  0  0  0  0  0  0  0
   12.8136    6.6856   -8.2766 H   0  0  0  0  0  0  0  0  0  0  0  0
   12.3585    9.3830   -9.5719 H   0  0  0  0  0  0  0  0  0  0  0  0
   10.3891    6.2298  -10.4360 H   0  0  0  0  0  0  0  0  0  0  0  0
    9.9791    8.0664  -12.8010 H   0  0  0  0  0  0  0  0  0  0  0  0
    6.5861    5.9182  -12.3803 H   0  0  0  0  0  0  0  0  0  0  0  0
    6.7246    7.5045  -13.0543 H   0  0  0  0  0  0  0  0  0  0  0  0
    7.5703    6.4671  -15.0246 H   0  0  0  0  0  0  0  0  0  0  0  0
    8.9791    5.9769  -14.2010 H   0  0  0  0  0  0  0  0  0  0  0  0
    5.8831    5.3447  -12.5826 H   0  0  0  0  0  0  0  0  0  0  0  0
    4.6610    3.3736  -12.0479 H   0  0  0  0  0  0  0  0  0  0  0  0
    4.8887    1.2855  -13.1231 H   0  0  0  0  0  0  0  0  0  0  0  0
    7.2702    0.4769  -15.5448 H   0  0  0  0  0  0  0  0  0  0  0  0
    7.4300    0.6220  -12.7020 H   0  0  0  0  0  0  0  0  0  0  0  0
    5.9330   -0.1330  -12.8420 H   0  0  0  0  0  0  0  0  0  0  0  0
    7.3140   -0.8870  -13.4370 H   0  0  0  0  0  0  0  0  0  0  0  0
    6.2241   -0.9518  -15.8859 H   0  0  0  0  0  0  0  0  0  0  0  0
    7.1955    1.3681  -16.9645 H   0  0  0  0  0  0  0  0  0  0  0  0
    6.8560   -0.2436  -17.6814 H   0  0  0  0  0  0  0  0  0  0  0  0
    5.5846    1.0253  -17.6814 H   0  0  0  0  0  0  0  0  0  0  0  0
    4.5330   -1.0440  -15.0290 H   0  0  0  0  0  0  0  0  0  0  0  0
    8.1743    3.4733  -15.9296 H   0  0  0  0  0  0  0  0  0  0  0  0
    9.2497    6.5891  -10.0757 H   0  0  0  0  0  0  0  0  0  0  0  0
    7.4121    6.0358  -10.9875 H   0  0  0  0  0  0  0  0  0  0  0  0
    7.3367    5.1356   -9.4977 H   0  0  0  0  0  0  0  0  0  0  0  0
    8.5785    4.3000  -10.7785 H   0  0  0  0  0  0  0  0  0  0  0  0
    8.6322    3.7114   -8.1284 H   0  0  0  0  0  0  0  0  0  0  0  0
   10.1058    3.8726   -9.3517 H   0  0  0  0  0  0  0  0  0  0  0  0
   10.0620    4.7276   -6.6943 H   0  0  0  0  0  0  0  0  0  0  0  0
   11.2386    5.1171   -8.0217 H   0  0  0  0  0  0  0  0  0  0  0  0
    9.3807    7.0168   -8.6257 H   0  0  0  0  0  0  0  0  0  0  0  0
    8.9542    6.8717   -6.9220 H   0  0  0  0  0  0  0  0  0  0  0  0
  1  2  1  0
  2  3  1  0
  3  4  1  0
  4  5  1  0
  5  6  1  0
  6  7  1  0
  3  8  1  0
  8  9  1  0
  9 10  1  0
 10 11  1  0
 11 12  1  0
 12 13  2  0
 13 14  2  0
 14 15  1  0
 15 16  2  0
 16 17  1  0
 17 18  1  0
 18 19  1  0
 19 20  2  0
 20 21  1  0
 21 22  2  0
 22 23  1  0
 23 24  1  0
 24 25  1  0
 24 26  1  0
 26 27  1  0
 26 28  1  0
 23 29  2  0
 16 30  1  0
 30 31  1  0
 31 32  1  0
 32 33  1  0
 33 34  1  0
 34 10  1  0
 29 19  1  0
  1 35  1  0
  1 36  1  0
  1 37  1  0
  2 38  1  0
  2 39  1  0
  3 40  1  6
  4 41  1  0
  4 42  1  0
  5 43  1  0
  5 44  1  0
  6 45  1  0
  6 46  1  0
  7 47  1  0
  9 48  1  0
  9 49  1  0
 10 50  1  1
 11 51  1  0
 11 52  1  0
 12 53  1  0
 14 54  1  0
 15 55  1  0
 17 56  1  0
 17 57  1  0
 18 58  1  0
 18 59  1  0
 20 60  1  0
 21 61  1  0
 22 62  1  0
 24 63  1  6
 25 64  1  0
 25 65  1  0
 25 66  1  0
 26 67  1  6
 27 68  1  0
 27 69  1  0
 27 70  1  0
 28 71  1  0
 29 72  1  0
 30 73  1  0
 30 74  1  0
 31 75  1  0
 31 76  1  0
 32 77  1  0
 32 78  1  0
 33 79  1  0
 33 80  1  0
 34 81  1  0
 34 82  1  0
M  CHG  1  25   1
M  END

>  <ID>
DiffSBDD_33_num_sample_100

>  <docking_score>
-9.424

$$$$
DiffSBDD_34_num_sample_100
     RDKit          3D

 61 64  0  0  0  0  0  0  0  0999 V2000
   12.1430    7.2770   -2.9500 C   0  0  0  0  0  0  0  0  0  0  0  0
   12.4630    8.7350   -3.0720 C   0  0  0  0  0  0  0  0  0  0  0  0
   12.7000    9.1250   -4.4830 N   0  0  0  0  0  0  0  0  0  0  0  0
   13.8000    9.8790   -4.7200 O   0  0  0  0  0  0  0  0  0  0  0  0
   11.5640    9.6350   -5.0460 C   0  0  0  0  0  0  0  0  0  0  0  0
   11.0210   10.5810   -4.7690 O   0  0  0  0  0  0  0  0  0  0  0  0
   11.1510    8.9040   -6.4150 C   0  0  0  0  0  0  0  0  0  0  0  0
    9.8270    8.4690   -6.5120 C   0  0  0  0  0  0  0  0  0  0  0  0
    9.5100    7.5430   -7.5830 C   0  0  0  0  0  0  0  0  0  0  0  0
   10.4790    7.3710   -8.5460 C   0  0  0  0  0  0  0  0  0  0  0  0
   10.1690    6.3350   -9.6750 C   0  0  0  0  0  0  0  0  0  0  0  0
    9.1210    6.6940  -10.4640 C   0  0  0  0  0  0  0  0  0  0  0  0
    8.6770    7.3470  -11.1820 O   0  0  0  0  0  0  0  0  0  0  0  0
    8.2790    5.4210  -10.9300 C   0  0  1  0  0  0  0  0  0  0  0  0
    7.2040    5.5720  -10.0170 O   0  0  0  0  0  0  0  0  0  0  0  0
    7.8770    5.2950  -12.2680 C   0  0  2  0  0  0  0  0  0  0  0  0
    6.3940    5.1250  -12.5720 C   0  0  0  0  0  0  0  0  0  0  0  0
    6.2140    3.8390  -13.3430 C   0  0  2  0  0  0  0  0  0  0  0  0
    6.2810    2.4600  -12.7440 C   0  0  0  0  0  0  0  0  0  0  0  0
    6.1240    1.2870  -13.7890 C   0  0  0  0  0  0  0  0  0  0  0  0
    4.7930    0.5930  -14.2800 C   0  0  0  0  0  0  0  0  0  0  0  0
    7.1460    0.1500  -13.2720 C   0  0  0  0  0  0  0  0  0  0  0  0
    6.6240    1.6250  -15.1790 C   0  0  0  0  0  0  0  0  0  0  0  0
    6.5650    0.9340  -16.3000 N   0  0  0  0  0  0  0  0  0  0  0  0
    7.0030    1.8500  -17.3470 C   0  0  0  0  0  0  0  0  0  0  0  0
    7.1770    3.0960  -16.8530 N   0  0  0  0  0  0  0  0  0  0  0  0
    7.0280    2.9420  -15.4860 C   0  0  2  0  0  0  0  0  0  0  0  0
    7.4150    3.9070  -14.3090 C   0  0  2  0  0  0  0  0  0  0  0  0
    8.7880    3.9380  -13.0310 S   0  0  0  0  0  0  0  0  0  0  0  0
   11.6530    8.0040   -8.5810 C   0  0  0  0  0  0  0  0  0  0  0  0
   11.9920    8.8270   -7.5150 C   0  0  0  0  0  0  0  0  0  0  0  0
   12.0828    7.0026   -1.8865 H   0  0  0  0  0  0  0  0  0  0  0  0
   11.1783    7.0713   -3.4370 H   0  0  0  0  0  0  0  0  0  0  0  0
   12.9329    6.6862   -3.4370 H   0  0  0  0  0  0  0  0  0  0  0  0
   11.6195    9.3200   -2.6767 H   0  0  0  0  0  0  0  0  0  0  0  0
   13.3814    8.9350   -2.5006 H   0  0  0  0  0  0  0  0  0  0  0  0
   14.5270    9.6030   -4.1080 H   0  0  0  0  0  0  0  0  0  0  0  0
    9.0572    8.8140   -5.8061 H   0  0  0  0  0  0  0  0  0  0  0  0
    8.5495    7.0084   -7.6234 H   0  0  0  0  0  0  0  0  0  0  0  0
   11.0626    6.2311  -10.3080 H   0  0  0  0  0  0  0  0  0  0  0  0
    9.8963    5.3898   -9.1828 H   0  0  0  0  0  0  0  0  0  0  0  0
    8.8683    4.4924  -10.9093 H   0  0  0  0  0  0  0  0  0  0  0  0
    6.4100    5.0880  -10.3580 H   0  0  0  0  0  0  0  0  0  0  0  0
    8.1092    6.2835  -12.6910 H   0  0  0  0  0  0  0  0  0  0  0  0
    5.8243    5.0784  -11.6322 H   0  0  0  0  0  0  0  0  0  0  0  0
    6.0277    5.9769  -13.1637 H   0  0  0  0  0  0  0  0  0  0  0  0
    5.1605    3.8621  -13.6588 H   0  0  0  0  0  0  0  0  0  0  0  0
    7.2551    2.3484  -12.2453 H   0  0  0  0  0  0  0  0  0  0  0  0
    5.4319    2.3777  -12.0495 H   0  0  0  0  0  0  0  0  0  0  0  0
    4.1981    0.2828  -13.4083 H   0  0  0  0  0  0  0  0  0  0  0  0
    4.2117    1.3028  -14.8868 H   0  0  0  0  0  0  0  0  0  0  0  0
    5.0422   -0.2900  -14.8868 H   0  0  0  0  0  0  0  0  0  0  0  0
    7.1561    0.1388  -12.1721 H   0  0  0  0  0  0  0  0  0  0  0  0
    6.8213   -0.8323  -13.6458 H   0  0  0  0  0  0  0  0  0  0  0  0
    8.1572    0.3685  -13.6458 H   0  0  0  0  0  0  0  0  0  0  0  0
    6.2720   -0.0460  -16.4140 H   0  0  0  0  0  0  0  0  0  0  0  0
    7.1692    1.5654  -18.3965 H   0  0  0  0  0  0  0  0  0  0  0  0
    6.6874    3.9827  -15.3809 H   0  0  0  0  0  0  0  0  0  0  0  0
    7.7733    4.6920  -14.9912 H   0  0  0  0  0  0  0  0  0  0  0  0
   12.3360    7.8770   -9.4338 H   0  0  0  0  0  0  0  0  0  0  0  0
   12.9218    9.4141   -7.5430 H   0  0  0  0  0  0  0  0  0  0  0  0
  1  2  1  0
  2  3  1  0
  3  4  1  0
  3  5  1  0
  5  6  2  0
  5  7  1  0
  7  8  2  0
  8  9  1  0
  9 10  2  0
 10 11  1  0
 11 12  1  0
 12 13  2  0
 12 14  1  0
 14 15  1  0
 14 16  1  0
 16 17  1  0
 17 18  1  0
 18 19  1  0
 19 20  1  0
 20 21  1  0
 20 22  1  0
 20 23  1  0
 23 24  2  0
 24 25  1  0
 25 26  2  0
 26 27  1  0
 27 28  1  0
 28 29  1  0
 10 30  1  0
 30 31  2  0
 31  7  1  0
 29 16  1  0
 28 18  1  0
 27 23  1  0
  1 32  1  0
  1 33  1  0
  1 34  1  0
  2 35  1  0
  2 36  1  0
  4 37  1  0
  8 38  1  0
  9 39  1  0
 11 40  1  0
 11 41  1  0
 14 42  1  1
 15 43  1  0
 16 44  1  6
 17 45  1  0
 17 46  1  0
 18 47  1  6
 19 48  1  0
 19 49  1  0
 21 50  1  0
 21 51  1  0
 21 52  1  0
 22 53  1  0
 22 54  1  0
 22 55  1  0
 24 56  1  0
 25 57  1  0
 27 58  1  6
 28 59  1  6
 30 60  1  0
 31 61  1  0
M  CHG  1  24   1
M  END

>  <ID>
DiffSBDD_34_num_sample_100

>  <docking_score>
-8.68

$$$$
DiffSBDD_35_num_sample_100
     RDKit          3D

 57 63  0  0  0  0  0  0  0  0999 V2000
   10.9550    5.8430  -12.1350 O   0  0  0  0  0  0  0  0  0  0  0  0
    9.8430    6.9100  -12.4210 C   0  0  0  0  0  0  0  0  0  0  0  0
    9.4830    7.1520  -11.0240 C   0  0  2  0  0  0  0  0  0  0  0  0
   10.5810    7.3900   -9.9610 C   0  0  0  0  0  0  0  0  0  0  0  0
   11.7720    8.0640  -10.2230 C   0  0  0  0  0  0  0  0  0  0  0  0
   12.5070    8.7160   -9.2290 C   0  0  0  0  0  0  0  0  0  0  0  0
   12.0790    8.7650   -7.9050 C   0  0  0  0  0  0  0  0  0  0  0  0
   12.4060    9.9390   -7.1520 N   0  0  0  0  0  0  0  0  0  0  0  0
   12.2280    9.9750   -5.8520 C   0  0  0  0  0  0  0  0  0  0  0  0
   11.9190    8.8710   -5.2070 C   0  0  0  0  0  0  0  0  0  0  0  0
   11.9880    8.5690   -3.7660 C   0  0  0  0  0  0  0  0  0  0  0  0
   12.1870    9.4340   -2.7080 N   0  0  0  0  0  0  0  0  0  0  0  0
   12.4910    8.9290   -1.5630 C   0  0  0  0  0  0  0  0  0  0  0  0
   12.5480    7.5750   -1.3020 N   0  0  0  0  0  0  0  0  0  0  0  0
   12.1780    6.6950   -2.2160 C   0  0  0  0  0  0  0  0  0  0  0  0
   11.7780    7.2190   -3.5430 C   0  0  0  0  0  0  0  0  0  0  0  0
   11.2890    6.4850   -4.9490 S   0  0  0  0  0  0  0  0  0  0  0  0
   11.4920    7.7250   -5.9240 C   0  0  0  0  0  0  0  0  0  0  0  0
   11.2860    7.7430   -7.3990 C   0  0  0  0  0  0  0  0  0  0  0  0
   10.2980    7.0150   -8.6540 C   0  0  0  0  0  0  0  0  0  0  0  0
    9.0470    6.0850   -9.1390 C   0  0  0  0  0  0  0  0  0  0  0  0
    8.7120    6.0700  -10.6180 N   0  0  0  0  0  0  0  0  0  0  0  0
    7.8390    5.0880  -10.9710 C   0  0  0  0  0  0  0  0  0  0  0  0
    7.1660    4.4310  -12.3030 C   0  0  2  0  0  0  0  0  0  0  0  0
    6.3380    5.0560  -12.9900 C   0  0  0  0  0  0  0  0  0  0  0  0
    6.4380    4.8170  -14.3590 C   0  0  0  0  0  0  0  0  0  0  0  0
    6.3620    5.9180  -15.2350 C   0  0  0  0  0  0  0  0  0  0  0  0
    6.9990    5.8710  -16.5250 C   0  0  0  0  0  0  0  0  0  0  0  0
    7.4610    4.7420  -17.0640 C   0  0  0  0  0  0  0  0  0  0  0  0
    7.4890    3.5820  -16.2460 C   0  0  0  0  0  0  0  0  0  0  0  0
    7.0330    3.5930  -14.7780 C   0  0  0  0  0  0  0  0  0  0  0  0
    7.3700    2.6550  -13.8260 C   0  0  0  0  0  0  0  0  0  0  0  0
    7.7310    3.2470  -12.5350 N   0  0  0  0  0  0  0  0  0  0  0  0
   11.0350    5.2330  -12.9110 H   0  0  0  0  0  0  0  0  0  0  0  0
   10.2370    7.8087  -12.9180 H   0  0  0  0  0  0  0  0  0  0  0  0
    9.0302    6.6115  -13.0994 H   0  0  0  0  0  0  0  0  0  0  0  0
    8.9855    8.1326  -11.0544 H   0  0  0  0  0  0  0  0  0  0  0  0
   12.1498    8.0838  -11.2559 H   0  0  0  0  0  0  0  0  0  0  0  0
   13.4535    9.2059   -9.5013 H   0  0  0  0  0  0  0  0  0  0  0  0
   12.3366   10.9231   -5.3050 H   0  0  0  0  0  0  0  0  0  0  0  0
   12.7201    9.6217   -0.7397 H   0  0  0  0  0  0  0  0  0  0  0  0
   12.1674    5.6164   -2.0002 H   0  0  0  0  0  0  0  0  0  0  0  0
    9.2728    5.0500   -8.8427 H   0  0  0  0  0  0  0  0  0  0  0  0
    8.1647    6.5330   -8.6585 H   0  0  0  0  0  0  0  0  0  0  0  0
    8.3055    4.2065  -10.5069 H   0  0  0  0  0  0  0  0  0  0  0  0
    6.9664    5.7328  -10.7899 H   0  0  0  0  0  0  0  0  0  0  0  0
    7.9828    4.8385  -12.9167 H   0  0  0  0  0  0  0  0  0  0  0  0
    5.3286    4.7671  -12.6618 H   0  0  0  0  0  0  0  0  0  0  0  0
    6.5441    6.1259  -12.8391 H   0  0  0  0  0  0  0  0  0  0  0  0
    5.8116    6.8205  -14.9307 H   0  0  0  0  0  0  0  0  0  0  0  0
    7.1096    6.8076  -17.0912 H   0  0  0  0  0  0  0  0  0  0  0  0
    7.8086    4.7106  -18.1072 H   0  0  0  0  0  0  0  0  0  0  0  0
    7.8512    2.6382  -16.6797 H   0  0  0  0  0  0  0  0  0  0  0  0
    6.5105    1.9853  -13.6754 H   0  0  0  0  0  0  0  0  0  0  0  0
    8.2540    2.1156  -14.1970 H   0  0  0  0  0  0  0  0  0  0  0  0
    8.7540    3.3670  -12.5090 H   0  0  0  0  0  0  0  0  0  0  0  0
    7.3870    2.6050  -11.8060 H   0  0  0  0  0  0  0  0  0  0  0  0
  1  2  1  0
  2  3  1  0
  3  4  1  0
  4  5  2  0
  5  6  1  0
  6  7  2  0
  7  8  1  0
  8  9  2  0
  9 10  1  0
 10 11  1  0
 11 12  2  0
 12 13  1  0
 13 14  2  0
 14 15  1  0
 15 16  2  0
 16 17  1  0
 17 18  1  0
 18 19  1  0
 19 20  2  0
 20 21  1  0
 21 22  1  0
 22 23  1  0
 23 24  1  0
 24 25  1  0
 25 26  1  0
 26 27  2  0
 27 28  1  0
 28 29  2  0
 29 30  1  0
 30 31  2  0
 31 32  1  0
 32 33  1  0
 22  3  1  0
 33 24  1  0
 20  4  1  0
 31 26  1  0
 19  7  1  0
 18 10  2  0
 16 11  1  0
  1 34  1  0
  2 35  1  0
  2 36  1  0
  3 37  1  6
  5 38  1  0
  6 39  1  0
  9 40  1  0
 13 41  1  0
 15 42  1  0
 21 43  1  0
 21 44  1  0
 23 45  1  0
 23 46  1  0
 24 47  1  1
 25 48  1  0
 25 49  1  0
 27 50  1  0
 28 51  1  0
 29 52  1  0
 30 53  1  0
 32 54  1  0
 32 55  1  0
 33 56  1  0
 33 57  1  0
M  CHG  1  33   1
M  END

>  <ID>
DiffSBDD_35_num_sample_100

>  <docking_score>
-10.801

$$$$
DiffSBDD_36_num_sample_100
     RDKit          3D

101106  0  0  0  0  0  0  0  0999 V2000
   13.5390    6.0880  -16.0170 C   0  0  0  0  0  0  0  0  0  0  0  0
   14.3620    5.2740  -16.2550 C   0  0  0  0  0  0  0  0  0  0  0  0
   16.1920    5.5220  -16.4570 S   0  0  0  0  0  0  0  0  0  0  0  0
   14.8000    4.2040  -16.8350 C   0  0  0  0  0  0  0  0  0  0  0  0
   15.5210    3.8120  -17.4960 O   0  0  0  0  0  0  0  0  0  0  0  0
   14.1880    3.1960  -17.6840 C   0  0  0  0  0  0  0  0  0  0  0  0
   13.8700    3.0460  -18.8680 C   0  0  1  0  0  0  0  0  0  0  0  0
   14.0630    1.4600  -19.9420 S   0  0  0  0  0  0  0  0  0  0  0  0
   13.7160    0.6800  -18.1360 C   0  0  0  0  0  0  0  0  0  0  0  0
   14.4320   -0.4800  -18.1300 C   0  0  0  0  0  0  0  0  0  0  0  0
   12.4670    1.3040  -17.8630 C   0  0  2  0  0  0  0  0  0  0  0  0
   10.7250    0.9720  -18.1280 C   0  0  0  0  0  0  0  0  0  0  0  0
   10.0080    0.1070  -18.7480 C   0  0  0  0  0  0  0  0  0  0  0  0
    8.6360    0.1080  -18.4910 C   0  0  1  0  0  0  0  0  0  0  0  0
    8.0150    0.0400  -17.0240 O   0  0  0  0  0  0  0  0  0  0  0  0
    7.1870    0.6460  -16.3620 C   0  0  1  0  0  0  0  0  0  0  0  0
    6.8520    0.0380  -15.0410 C   0  0  0  0  0  0  0  0  0  0  0  0
    7.0040    1.3720  -13.7510 C   0  0  0  0  0  0  0  0  0  0  0  0
    7.1670    2.5850  -14.7590 C   0  0  1  0  0  0  0  0  0  0  0  0
    7.2660    3.9670  -14.0860 C   0  0  0  0  0  0  0  0  0  0  0  0
    6.8400    4.9210  -15.0140 O   0  0  0  0  0  0  0  0  0  0  0  0
    7.3600    3.8090  -12.5800 C   0  0  0  0  0  0  0  0  0  0  0  0
    7.1730    5.0920  -11.6360 C   0  0  1  0  0  0  0  0  0  0  0  0
    6.0510    5.9900  -12.1270 C   0  0  0  0  0  0  0  0  0  0  0  0
    6.8330    4.5900  -10.2000 C   0  0  0  0  0  0  0  0  0  0  0  0
    8.1740    4.5120   -9.4800 C   0  0  0  0  0  0  0  0  0  0  0  0
    9.2500    5.2420  -10.2990 C   0  0  2  0  0  0  0  0  0  0  0  0
    9.8510    6.4460   -9.4540 C   0  0  0  0  0  0  0  0  0  0  0  0
    9.9060    6.5260   -8.0650 C   0  0  0  0  0  0  0  0  0  0  0  0
   11.0590    7.0050   -7.2740 C   0  0  0  0  0  0  0  0  0  0  0  0
   10.6510    6.6990   -5.7350 C   0  0  0  0  0  0  0  0  0  0  0  0
   11.9750    7.6690   -7.8200 C   0  0  0  0  0  0  0  0  0  0  0  0
   12.3660    8.1240   -9.0690 C   0  0  0  0  0  0  0  0  0  0  0  0
   11.6950    8.0310  -10.2570 C   0  0  0  0  0  0  0  0  0  0  0  0
   10.4320    7.4540  -10.4120 C   0  0  2  0  0  0  0  0  0  0  0  0
    9.3760    7.9430  -11.2850 C   0  0  0  0  0  0  0  0  0  0  0  0
    8.6920    7.0440  -12.1960 C   0  0  0  0  0  0  0  0  0  0  0  0
    8.5350    5.7450  -11.5040 N   0  0  2  0  0  0  0  0  0  0  0  0
    8.0780    2.1650  -15.7960 O   0  0  0  0  0  0  0  0  0  0  0  0
    7.7120    0.0710  -19.2980 C   0  0  0  0  0  0  0  0  0  0  0  0
    6.8120    1.2290  -19.7920 O   0  0  0  0  0  0  0  0  0  0  0  0
    7.3430    0.1730  -20.7070 O   0  0  0  0  0  0  0  0  0  0  0  0
   12.3100    2.8940  -18.4040 C   0  0  2  0  0  0  0  0  0  0  0  0
   11.5750    3.3160  -19.1200 O   0  0  0  0  0  0  0  0  0  0  0  0
   11.2200    4.6180  -19.9160 C   0  0  0  0  0  0  0  0  0  0  0  0
   11.0250    5.5550  -18.7370 C   0  0  0  0  0  0  0  0  0  0  0  0
    9.4840    5.3540  -18.1840 C   0  0  0  0  0  0  0  0  0  0  0  0
    9.9530    5.0100  -16.5110 C   0  0  0  0  0  0  0  0  0  0  0  0
   12.4835    5.7923  -15.9248 H   0  0  0  0  0  0  0  0  0  0  0  0
   13.8284    7.1413  -15.8877 H   0  0  0  0  0  0  0  0  0  0  0  0
   14.8507    2.3335  -17.5198 H   0  0  0  0  0  0  0  0  0  0  0  0
   13.1679    3.4781  -17.3843 H   0  0  0  0  0  0  0  0  0  0  0  0
   14.4137    3.7708  -19.4918 H   0  0  0  0  0  0  0  0  0  0  0  0
   14.4238   -1.1268  -17.2403 H   0  0  0  0  0  0  0  0  0  0  0  0
   15.0180   -0.7692  -19.0148 H   0  0  0  0  0  0  0  0  0  0  0  0
   12.7383    0.8406  -16.9030 H   0  0  0  0  0  0  0  0  0  0  0  0
   10.3486    0.8861  -17.0980 H   0  0  0  0  0  0  0  0  0  0  0  0
   10.6314    1.7241  -18.9252 H   0  0  0  0  0  0  0  0  0  0  0  0
   10.1420    0.2791  -19.8262 H   0  0  0  0  0  0  0  0  0  0  0  0
   10.3625   -0.8676  -18.3812 H   0  0  0  0  0  0  0  0  0  0  0  0
    8.6248   -0.9905  -18.5467 H   0  0  0  0  0  0  0  0  0  0  0  0
    6.2857    0.7255  -16.9875 H   0  0  0  0  0  0  0  0  0  0  0  0
    5.8235   -0.3519  -15.0577 H   0  0  0  0  0  0  0  0  0  0  0  0
    7.5334   -0.7957  -14.8160 H   0  0  0  0  0  0  0  0  0  0  0  0
    6.1027    1.4601  -13.1265 H   0  0  0  0  0  0  0  0  0  0  0  0
    7.7948    1.2445  -12.9971 H   0  0  0  0  0  0  0  0  0  0  0  0
    6.2466    2.8317  -15.3085 H   0  0  0  0  0  0  0  0  0  0  0  0
    6.4890    4.6340  -15.8940 H   0  0  0  0  0  0  0  0  0  0  0  0
    7.5552    2.8207  -12.1383 H   0  0  0  0  0  0  0  0  0  0  0  0
    5.5183    6.4163  -11.2642 H   0  0  0  0  0  0  0  0  0  0  0  0
    6.4722    6.8033  -12.7362 H   0  0  0  0  0  0  0  0  0  0  0  0
    5.3498    5.4008  -12.7362 H   0  0  0  0  0  0  0  0  0  0  0  0
    6.1622    5.2984   -9.6918 H   0  0  0  0  0  0  0  0  0  0  0  0
    6.3151    3.6196  -10.2140 H   0  0  0  0  0  0  0  0  0  0  0  0
    8.0850    4.9849   -8.4908 H   0  0  0  0  0  0  0  0  0  0  0  0
    8.4616    3.4567   -9.3629 H   0  0  0  0  0  0  0  0  0  0  0  0
   10.0938    4.5893  -10.5675 H   0  0  0  0  0  0  0  0  0  0  0  0
    9.0136    6.2047   -7.5078 H   0  0  0  0  0  0  0  0  0  0  0  0
   11.3463    7.2205   -5.0607 H   0  0  0  0  0  0  0  0  0  0  0  0
    9.6261    7.0530   -5.5501 H   0  0  0  0  0  0  0  0  0  0  0  0
   10.7038    5.6159   -5.5501 H   0  0  0  0  0  0  0  0  0  0  0  0
   12.7017    7.9945   -7.0611 H   0  0  0  0  0  0  0  0  0  0  0  0
   13.3441    8.6256   -9.1104 H   0  0  0  0  0  0  0  0  0  0  0  0
   12.1841    8.4392  -11.1537 H   0  0  0  0  0  0  0  0  0  0  0  0
   11.2887    7.1224  -11.0171 H   0  0  0  0  0  0  0  0  0  0  0  0
    8.6039    8.3759  -10.6320 H   0  0  0  0  0  0  0  0  0  0  0  0
    9.9141    8.6190  -11.9657 H   0  0  0  0  0  0  0  0  0  0  0  0
    7.7045    7.4527  -12.4564 H   0  0  0  0  0  0  0  0  0  0  0  0
    9.2681    6.9212  -13.1250 H   0  0  0  0  0  0  0  0  0  0  0  0
    9.3050    5.4760  -12.1330 H   0  0  0  0  0  0  0  0  0  0  0  0
    7.7967   -0.8111  -18.6463 H   0  0  0  0  0  0  0  0  0  0  0  0
   11.8173    3.4946  -17.6252 H   0  0  0  0  0  0  0  0  0  0  0  0
   12.0428    4.9410  -20.5707 H   0  0  0  0  0  0  0  0  0  0  0  0
   10.3694    4.5379  -20.6089 H   0  0  0  0  0  0  0  0  0  0  0  0
   11.7434    5.3096  -17.9410 H   0  0  0  0  0  0  0  0  0  0  0  0
   11.1906    6.5984  -19.0434 H   0  0  0  0  0  0  0  0  0  0  0  0
    8.8736    6.2642  -18.2785 H   0  0  0  0  0  0  0  0  0  0  0  0
    8.8526    4.6137  -18.6971 H   0  0  0  0  0  0  0  0  0  0  0  0
    9.2602    5.5181  -15.8241 H   0  0  0  0  0  0  0  0  0  0  0  0
    9.9138    3.9249  -16.3349 H   0  0  0  0  0  0  0  0  0  0  0  0
   10.9762    5.3733  -16.3349 H   0  0  0  0  0  0  0  0  0  0  0  0
  1  2  2  0
  2  3  1  0
  2  4  1  0
  4  5  2  0
  4  6  1  0
  6  7  1  0
  7  8  1  0
  8  9  1  0
  9 10  2  0
  9 11  1  0
 11 12  1  0
 12 13  1  0
 13 14  1  0
 14 15  1  0
 15 16  1  0
 16 17  1  0
 17 18  1  0
 18 19  1  0
 19 20  1  0
 20 21  1  0
 20 22  2  3
 22 23  1  0
 23 24  1  6
 23 25  1  0
 25 26  1  0
 26 27  1  0
 27 28  1  0
 28 29  2  0
 29 30  1  0
 30 31  1  0
 30 32  2  0
 32 33  1  0
 33 34  2  0
 34 35  1  0
 35 36  1  0
 36 37  1  0
 37 38  1  0
 19 39  1  0
 14 40  1  0
 40 41  1  0
 41 42  1  0
 11 43  1  0
 43 44  1  0
 44 45  1  0
 45 46  1  0
 46 47  1  0
 47 48  1  0
 43  7  1  0
 39 16  1  0
 42 40  1  0
 38 23  1  0
 38 27  1  0
 35 28  1  0
  1 49  1  0
  1 50  1  0
  6 51  1  0
  6 52  1  0
  7 53  1  6
 10 54  1  0
 10 55  1  0
 11 56  1  1
 12 57  1  0
 12 58  1  0
 13 59  1  0
 13 60  1  0
 14 61  1  1
 16 62  1  6
 17 63  1  0
 17 64  1  0
 18 65  1  0
 18 66  1  0
 19 67  1  6
 21 68  1  0
 22 69  1  0
 24 70  1  0
 24 71  1  0
 24 72  1  0
 25 73  1  0
 25 74  1  0
 26 75  1  0
 26 76  1  0
 27 77  1  6
 29 78  1  0
 31 79  1  0
 31 80  1  0
 31 81  1  0
 32 82  1  0
 33 83  1  0
 34 84  1  0
 35 85  1  6
 36 86  1  0
 36 87  1  0
 37 88  1  0
 37 89  1  0
 38 90  1  6
 40 91  1  0
 43 92  1  1
 45 93  1  0
 45 94  1  0
 46 95  1  0
 46 96  1  0
 47 97  1  0
 47 98  1  0
 48 99  1  0
 48100  1  0
 48101  1  0
M  CHG  2   3  -1  38   1
M  END

>  <ID>
DiffSBDD_36_num_sample_100

>  <docking_score>
-9.126

$$$$
DiffSBDD_37_num_sample_100
     RDKit          3D

 41 43  0  0  0  0  0  0  0  0999 V2000
   12.9730    7.9010   -1.3900 C   0  0  0  0  0  0  0  0  0  0  0  0
   12.0200    7.8770   -2.7350 C   0  0  2  0  0  0  0  0  0  0  0  0
   11.7290    6.6720   -3.6940 C   0  0  0  0  0  0  0  0  0  0  0  0
   11.2130    6.9320   -5.1190 C   0  0  0  0  0  0  0  0  0  0  0  0
   11.2770    8.3370   -5.5420 C   0  0  2  0  0  0  0  0  0  0  0  0
   12.0280    8.7000   -6.8630 C   0  0  0  0  0  0  0  0  0  0  0  0
   12.3920    7.6750   -7.7870 O   0  0  0  0  0  0  0  0  0  0  0  0
   11.3750    8.0430   -8.7670 C   0  0  0  0  0  0  0  0  0  0  0  0
   11.4640    8.9750   -9.4660 O   0  0  0  0  0  0  0  0  0  0  0  0
   10.2730    7.0230   -9.0950 C   0  0  0  0  0  0  0  0  0  0  0  0
    9.9130    6.0020   -8.1780 C   0  0  0  0  0  0  0  0  0  0  0  0
    8.8910    5.1750   -8.6150 C   0  0  0  0  0  0  0  0  0  0  0  0
    8.3300    5.3050   -9.8200 C   0  0  0  0  0  0  0  0  0  0  0  0
    8.9180    6.2320  -11.0470 C   0  0  0  0  0  0  0  0  0  0  0  0
    9.7690    7.2150  -10.3650 C   0  0  0  0  0  0  0  0  0  0  0  0
    8.0130    6.1390  -12.3690 S   0  0  0  0  0  0  0  0  0  0  0  0
    6.8910    4.8800  -11.7140 C   0  0  0  0  0  0  0  0  0  0  0  0
    7.1960    4.6250  -10.4090 O   0  0  0  0  0  0  0  0  0  0  0  0
   11.9170    9.4860   -4.6170 C   0  0  0  0  0  0  0  0  0  0  0  0
   12.4380    9.1040   -3.4380 C   0  0  1  0  0  0  0  0  0  0  0  0
   11.9660    9.9700   -2.3500 O   0  0  0  0  0  0  0  0  0  0  0  0
   12.3391    7.8850   -0.4912 H   0  0  0  0  0  0  0  0  0  0  0  0
   13.6305    7.0191   -1.3907 H   0  0  0  0  0  0  0  0  0  0  0  0
   13.5853    8.8148   -1.3907 H   0  0  0  0  0  0  0  0  0  0  0  0
   11.0057    7.7602   -2.3256 H   0  0  0  0  0  0  0  0  0  0  0  0
   12.6700    6.1112   -3.7942 H   0  0  0  0  0  0  0  0  0  0  0  0
   10.8851    6.1600   -3.2085 H   0  0  0  0  0  0  0  0  0  0  0  0
   11.8173    6.3348   -5.8177 H   0  0  0  0  0  0  0  0  0  0  0  0
   10.1493    6.6518   -5.1230 H   0  0  0  0  0  0  0  0  0  0  0  0
   10.1773    8.3498   -5.5654 H   0  0  0  0  0  0  0  0  0  0  0  0
   11.3843    9.4049   -7.4096 H   0  0  0  0  0  0  0  0  0  0  0  0
   12.9996    9.0711   -6.5050 H   0  0  0  0  0  0  0  0  0  0  0  0
   10.4043    5.8774   -7.2017 H   0  0  0  0  0  0  0  0  0  0  0  0
    8.5282    4.3819   -7.9446 H   0  0  0  0  0  0  0  0  0  0  0  0
   10.0165    8.1486  -10.8914 H   0  0  0  0  0  0  0  0  0  0  0  0
    5.8547    5.2425  -11.7830 H   0  0  0  0  0  0  0  0  0  0  0  0
    6.9994    3.9556  -12.3003 H   0  0  0  0  0  0  0  0  0  0  0  0
   12.7206    9.9667   -5.1942 H   0  0  0  0  0  0  0  0  0  0  0  0
   11.0745   10.1433   -4.3561 H   0  0  0  0  0  0  0  0  0  0  0  0
   13.4776    9.0602   -3.7949 H   0  0  0  0  0  0  0  0  0  0  0  0
   12.4120    9.7090   -1.5040 H   0  0  0  0  0  0  0  0  0  0  0  0
  1  2  1  0
  2  3  1  0
  3  4  1  0
  4  5  1  0
  5  6  1  0
  6  7  1  0
  7  8  1  0
  8  9  2  0
  8 10  1  0
 10 11  2  0
 11 12  1  0
 12 13  2  0
 13 14  1  0
 14 15  2  0
 14 16  1  0
 16 17  1  0
 17 18  1  0
  5 19  1  0
 19 20  1  0
 20 21  1  0
 20  2  1  0
 15 10  1  0
 18 13  1  0
  1 22  1  0
  1 23  1  0
  1 24  1  0
  2 25  1  1
  3 26  1  0
  3 27  1  0
  4 28  1  0
  4 29  1  0
  5 30  1  6
  6 31  1  0
  6 32  1  0
 11 33  1  0
 12 34  1  0
 15 35  1  0
 17 36  1  0
 17 37  1  0
 19 38  1  0
 19 39  1  0
 20 40  1  6
 21 41  1  0
M  END

>  <ID>
DiffSBDD_37_num_sample_100

>  <docking_score>
-9.75

$$$$
DiffSBDD_38_num_sample_100
     RDKit          3D

 50 52  0  0  0  0  0  0  0  0999 V2000
   12.6300    8.2680   -1.1370 C   0  0  0  0  0  0  0  0  0  0  0  0
   12.5490    9.0990   -2.1940 N   0  0  0  0  0  0  0  0  0  0  0  0
   12.9200    8.3840   -2.8030 C   0  0  0  0  0  0  0  0  0  0  0  0
   12.8210    9.1790   -4.1560 C   0  0  0  0  0  0  0  0  0  0  0  0
   11.6400    8.3590   -4.9270 C   0  0  2  0  0  0  0  0  0  0  0  0
   11.0430    6.7720   -5.4040 C   0  0  0  0  0  0  0  0  0  0  0  0
   10.8100    6.7500   -6.7860 C   0  0  0  0  0  0  0  0  0  0  0  0
   10.3510    6.1480   -8.0220 C   0  0  0  0  0  0  0  0  0  0  0  0
   10.3640    6.9230   -9.0580 C   0  0  1  0  0  0  0  0  0  0  0  0
    9.5350    7.0610  -10.3920 C   0  0  0  0  0  0  0  0  0  0  0  0
    8.9130    5.8380  -11.0220 C   0  0  0  0  0  0  0  0  0  0  0  0
    8.1370    5.2320  -10.7120 C   0  0  0  0  0  0  0  0  0  0  0  0
    7.2730    4.4670  -11.7070 N   0  0  0  0  0  0  0  0  0  0  0  0
    5.9060    4.4730  -11.6500 C   0  0  0  0  0  0  0  0  0  0  0  0
    5.2130    5.0140  -10.8680 O   0  0  0  0  0  0  0  0  0  0  0  0
    5.6410    4.3020  -13.1100 C   0  0  0  0  0  0  0  0  0  0  0  0
    6.8340    3.7380  -13.7170 C   0  0  0  0  0  0  0  0  0  0  0  0
    7.7500    3.5250  -12.8200 C   0  0  0  0  0  0  0  0  0  0  0  0
    8.6580    2.8650  -12.5230 O   0  0  0  0  0  0  0  0  0  0  0  0
   11.2810    8.6060   -8.7660 S   0  0  0  0  0  0  0  0  0  0  0  0
   11.1360    8.1900   -7.0530 C   0  0  2  0  0  0  0  0  0  0  0  0
   11.2480    9.1800   -6.2790 C   0  0  2  0  0  0  0  0  0  0  0  0
   11.8100   10.4300   -6.2970 O   0  0  0  0  0  0  0  0  0  0  0  0
   12.5731    8.8518   -0.2064 H   0  0  0  0  0  0  0  0  0  0  0  0
   11.7976    7.5497   -1.1707 H   0  0  0  0  0  0  0  0  0  0  0  0
   13.5854    7.7239   -1.1707 H   0  0  0  0  0  0  0  0  0  0  0  0
   13.1490    9.9330   -2.1170 H   0  0  0  0  0  0  0  0  0  0  0  0
   11.6560    9.5560   -2.4230 H   0  0  0  0  0  0  0  0  0  0  0  0
   13.9571    8.1181   -2.5505 H   0  0  0  0  0  0  0  0  0  0  0  0
   12.4071    7.4113   -2.7751 H   0  0  0  0  0  0  0  0  0  0  0  0
   12.5372   10.2281   -3.9862 H   0  0  0  0  0  0  0  0  0  0  0  0
   13.7671    9.2351   -4.7143 H   0  0  0  0  0  0  0  0  0  0  0  0
   11.3967    8.1813   -3.8691 H   0  0  0  0  0  0  0  0  0  0  0  0
   11.7912    6.0077   -5.1473 H   0  0  0  0  0  0  0  0  0  0  0  0
   10.1028    6.5621   -4.8730 H   0  0  0  0  0  0  0  0  0  0  0  0
   10.0141    5.1022   -8.0757 H   0  0  0  0  0  0  0  0  0  0  0  0
   10.5473    5.8827   -9.3649 H   0  0  0  0  0  0  0  0  0  0  0  0
    8.7147    7.7642  -10.1853 H   0  0  0  0  0  0  0  0  0  0  0  0
   10.2905    7.3699  -11.1294 H   0  0  0  0  0  0  0  0  0  0  0  0
    8.5910    6.1892  -12.0135 H   0  0  0  0  0  0  0  0  0  0  0  0
    9.7285    5.1389  -10.7851 H   0  0  0  0  0  0  0  0  0  0  0  0
    8.5803    4.4789  -10.0439 H   0  0  0  0  0  0  0  0  0  0  0  0
    7.4251    5.9583  -10.2929 H   0  0  0  0  0  0  0  0  0  0  0  0
    4.7891    3.6221  -13.2581 H   0  0  0  0  0  0  0  0  0  0  0  0
    5.3975    5.2704  -13.5713 H   0  0  0  0  0  0  0  0  0  0  0  0
    6.5760    2.7853  -14.2026 H   0  0  0  0  0  0  0  0  0  0  0  0
    7.2243    4.4512  -14.4580 H   0  0  0  0  0  0  0  0  0  0  0  0
   10.0495    8.3537   -7.1052 H   0  0  0  0  0  0  0  0  0  0  0  0
   10.3728    9.7665   -6.5953 H   0  0  0  0  0  0  0  0  0  0  0  0
   11.6330   10.8580   -7.1720 H   0  0  0  0  0  0  0  0  0  0  0  0
  1  2  1  0
  2  3  1  0
  3  4  1  0
  4  5  1  0
  5  6  1  0
  6  7  1  0
  7  8  2  0
  8  9  1  0
  9 10  1  0
 10 11  1  0
 11 12  1  0
 12 13  1  0
 13 14  1  0
 14 15  2  0
 14 16  1  0
 16 17  1  0
 17 18  1  0
 18 19  2  0
  9 20  1  0
 20 21  1  0
 21 22  1  0
 22 23  1  0
 22  5  1  0
 21  7  1  0
 18 13  1  0
  1 24  1  0
  1 25  1  0
  1 26  1  0
  2 27  1  0
  2 28  1  0
  3 29  1  0
  3 30  1  0
  4 31  1  0
  4 32  1  0
  5 33  1  1
  6 34  1  0
  6 35  1  0
  8 36  1  0
  9 37  1  6
 10 38  1  0
 10 39  1  0
 11 40  1  0
 11 41  1  0
 12 42  1  0
 12 43  1  0
 16 44  1  0
 16 45  1  0
 17 46  1  0
 17 47  1  0
 21 48  1  1
 22 49  1  1
 23 50  1  0
M  CHG  1   2   1
M  END

>  <ID>
DiffSBDD_38_num_sample_100

>  <docking_score>
-8.761

$$$$
DiffSBDD_39_num_sample_100
     RDKit          3D

 68 72  0  0  0  0  0  0  0  0999 V2000
    6.8650   -0.0870  -12.9610 C   0  0  0  0  0  0  0  0  0  0  0  0
    7.5650    0.5190  -14.1130 C   0  0  0  0  0  0  0  0  0  0  0  0
    7.1710    1.4910  -14.6470 C   0  0  1  0  0  0  0  0  0  0  0  0
    7.3850    2.0840  -13.4370 C   0  0  0  0  0  0  0  0  0  0  0  0
    6.7060    3.5080  -13.3020 C   0  0  1  0  0  0  0  0  0  0  0  0
    5.3430    3.1140  -12.5470 C   0  0  0  0  0  0  0  0  0  0  0  0
    7.6800    3.9500  -12.0390 C   0  0  0  0  0  0  0  0  0  0  0  0
    8.2460    4.9280  -11.2680 C   0  0  0  0  0  0  0  0  0  0  0  0
    8.7890    5.2310   -9.8400 C   0  0  0  0  0  0  0  0  0  0  0  0
    9.5070    6.2240   -8.9770 C   0  0  1  0  0  0  0  0  0  0  0  0
   10.1100    5.7940   -7.5810 C   0  0  0  0  0  0  0  0  0  0  0  0
   10.0700    6.5680   -6.3990 C   0  0  0  0  0  0  0  0  0  0  0  0
   11.2770    7.0720   -5.4830 C   0  0  2  0  0  0  0  0  0  0  0  0
   11.2480    6.5060   -4.1580 C   0  0  0  0  0  0  0  0  0  0  0  0
   11.9060    7.2050   -3.0960 C   0  0  0  0  0  0  0  0  0  0  0  0
   12.4120    8.4840   -3.3500 C   0  0  0  0  0  0  0  0  0  0  0  0
   13.0880    9.1540   -2.5640 N   0  0  0  0  0  0  0  0  0  0  0  0
   12.2920    9.0960   -4.6400 N   0  0  0  0  0  0  0  0  0  0  0  0
   11.6410    8.4800   -5.6860 C   0  0  0  0  0  0  0  0  0  0  0  0
   11.4480    9.0960   -6.8930 N   0  0  0  0  0  0  0  0  0  0  0  0
   10.8630    8.8220   -7.9320 C   0  0  0  0  0  0  0  0  0  0  0  0
   10.3460    7.6730   -9.1270 C   0  0  2  0  0  0  0  0  0  0  0  0
   10.5400    7.5070  -10.5600 C   0  0  0  0  0  0  0  0  0  0  0  0
   10.0140    7.1500  -11.3200 C   0  0  0  0  0  0  0  0  0  0  0  0
    8.9590    6.2850  -12.1280 C   0  0  0  0  0  0  0  0  0  0  0  0
    8.2840    6.5660  -13.4320 C   0  0  0  0  0  0  0  0  0  0  0  0
    7.9480    5.4580  -14.4660 C   0  0  1  0  0  0  0  0  0  0  0  0
    8.9370    4.5090  -14.6040 O   0  0  0  0  0  0  0  0  0  0  0  0
    6.6390    5.0140  -14.1250 C   0  0  0  0  0  0  0  0  0  0  0  0
    7.3970    1.6990  -16.1030 C   0  0  0  0  0  0  0  0  0  0  0  0
    6.0630    1.6860  -15.4780 O   0  0  0  0  0  0  0  0  0  0  0  0
    7.3025    0.2918  -12.0255 H   0  0  0  0  0  0  0  0  0  0  0  0
    5.7979    0.1771  -13.0000 H   0  0  0  0  0  0  0  0  0  0  0  0
    6.9736   -1.1809  -13.0000 H   0  0  0  0  0  0  0  0  0  0  0  0
    8.5828    0.7509  -13.7660 H   0  0  0  0  0  0  0  0  0  0  0  0
    7.4229   -0.2434  -14.8931 H   0  0  0  0  0  0  0  0  0  0  0  0
    6.9793    1.4291  -12.6518 H   0  0  0  0  0  0  0  0  0  0  0  0
    8.4703    2.2326  -13.3372 H   0  0  0  0  0  0  0  0  0  0  0  0
    5.5001    3.1594  -11.4592 H   0  0  0  0  0  0  0  0  0  0  0  0
    4.5486    3.8193  -12.8325 H   0  0  0  0  0  0  0  0  0  0  0  0
    5.0474    2.0936  -12.8325 H   0  0  0  0  0  0  0  0  0  0  0  0
    7.1872    3.3750  -11.2412 H   0  0  0  0  0  0  0  0  0  0  0  0
    8.5170    4.0505  -12.7457 H   0  0  0  0  0  0  0  0  0  0  0  0
    8.5473    4.3637   -9.2080 H   0  0  0  0  0  0  0  0  0  0  0  0
    8.5526    6.3968   -9.4959 H   0  0  0  0  0  0  0  0  0  0  0  0
    9.6102    4.8477   -7.3267 H   0  0  0  0  0  0  0  0  0  0  0  0
   11.1847    5.8445   -7.8099 H   0  0  0  0  0  0  0  0  0  0  0  0
    9.5483    7.4902   -6.6944 H   0  0  0  0  0  0  0  0  0  0  0  0
    9.6753    5.7956   -5.7225 H   0  0  0  0  0  0  0  0  0  0  0  0
   12.2136    6.6277   -5.8511 H   0  0  0  0  0  0  0  0  0  0  0  0
   10.7300    5.5547   -3.9663 H   0  0  0  0  0  0  0  0  0  0  0  0
   12.0114    6.7462   -2.1018 H   0  0  0  0  0  0  0  0  0  0  0  0
   13.2460    8.8170   -1.6040 H   0  0  0  0  0  0  0  0  0  0  0  0
   13.4940   10.0500   -2.8680 H   0  0  0  0  0  0  0  0  0  0  0  0
   12.7060   10.0270   -4.7900 H   0  0  0  0  0  0  0  0  0  0  0  0
   11.9100   10.0150   -6.9380 H   0  0  0  0  0  0  0  0  0  0  0  0
    9.8774    9.2365   -7.6734 H   0  0  0  0  0  0  0  0  0  0  0  0
   11.8227    8.9037   -8.4634 H   0  0  0  0  0  0  0  0  0  0  0  0
   11.2452    7.0690   -8.9353 H   0  0  0  0  0  0  0  0  0  0  0  0
   11.5260    7.8726  -10.8828 H   0  0  0  0  0  0  0  0  0  0  0  0
    7.3268    7.0462  -13.1805 H   0  0  0  0  0  0  0  0  0  0  0  0
    9.0608    7.1350  -13.9638 H   0  0  0  0  0  0  0  0  0  0  0  0
    7.9288    5.8271  -15.5020 H   0  0  0  0  0  0  0  0  0  0  0  0
    8.6940    3.7020  -14.0850 H   0  0  0  0  0  0  0  0  0  0  0  0
    6.1623    5.7611  -13.4733 H   0  0  0  0  0  0  0  0  0  0  0  0
    6.0559    4.8872  -15.0491 H   0  0  0  0  0  0  0  0  0  0  0  0
    7.8326    2.6388  -16.4732 H   0  0  0  0  0  0  0  0  0  0  0  0
    7.9024    1.1597  -16.9177 H   0  0  0  0  0  0  0  0  0  0  0  0
  1  2  1  0
  3  2  1  1
  3  4  1  0
  5  4  1  6
  5  6  1  0
  5  7  1  0
  7  8  1  0
  8  9  2  0
  9 10  1  0
 10 11  1  0
 11 12  1  0
 12 13  1  0
 13 14  1  0
 14 15  2  0
 15 16  1  0
 16 17  2  0
 16 18  1  0
 18 19  2  0
 19 20  1  0
 20 21  1  0
 21 22  1  0
 22 23  1  0
 23 24  2  0
 24 25  2  0
 25 26  1  0
 26 27  1  0
 27 28  1  0
 27 29  1  0
  3 30  1  0
 30 31  1  0
 31  3  1  0
 29  5  1  0
 25  8  1  0
 22 10  1  0
 19 13  1  0
  1 32  1  0
  1 33  1  0
  1 34  1  0
  2 35  1  0
  2 36  1  0
  4 37  1  0
  4 38  1  0
  6 39  1  0
  6 40  1  0
  6 41  1  0
  7 42  1  0
  7 43  1  0
  9 44  1  0
 10 45  1  1
 11 46  1  0
 11 47  1  0
 12 48  1  0
 12 49  1  0
 13 50  1  6
 14 51  1  0
 15 52  1  0
 17 53  1  0
 17 54  1  0
 18 55  1  0
 20 56  1  0
 21 57  1  0
 21 58  1  0
 22 59  1  6
 23 60  1  0
 26 61  1  0
 26 62  1  0
 27 63  1  6
 28 64  1  0
 29 65  1  0
 29 66  1  0
 30 67  1  0
 30 68  1  0
M  CHG  2  17   1  18   1
M  END

>  <ID>
DiffSBDD_39_num_sample_100

>  <docking_score>
-11.688

$$$$
DiffSBDD_3_num_sample_100
     RDKit          3D

 44 45  0  0  0  0  0  0  0  0999 V2000
   12.4920    8.3170   -9.0570 C   0  0  0  0  0  0  0  0  0  0  0  0
   11.2060    7.6020   -9.1430 C   0  0  0  0  0  0  0  0  0  0  0  0
   10.5700    7.4880  -10.3600 C   0  0  0  0  0  0  0  0  0  0  0  0
    9.4290    6.7890  -10.5570 C   0  0  0  0  0  0  0  0  0  0  0  0
    8.9130    6.5850  -11.8190 C   0  0  0  0  0  0  0  0  0  0  0  0
    7.9040    6.4280  -12.3490 O   0  0  0  0  0  0  0  0  0  0  0  0
    8.7790    6.2150   -9.4030 C   0  0  0  0  0  0  0  0  0  0  0  0
    7.7480    5.4070   -9.5620 O   0  0  0  0  0  0  0  0  0  0  0  0
    9.3350    6.3930   -8.1190 C   0  0  0  0  0  0  0  0  0  0  0  0
   10.6260    6.9600   -8.0350 C   0  0  0  0  0  0  0  0  0  0  0  0
   11.4650    6.7880   -6.8720 O   0  0  0  0  0  0  0  0  0  0  0  0
   11.2570    7.6310   -5.8290 C   0  0  0  0  0  0  0  0  0  0  0  0
   10.4820    8.6360   -5.7740 C   0  0  0  0  0  0  0  0  0  0  0  0
   11.1850    9.7200   -5.9730 C   0  0  0  0  0  0  0  0  0  0  0  0
   12.4640    9.7970   -5.4840 C   0  0  0  0  0  0  0  0  0  0  0  0
   13.1650    9.5450   -4.5060 C   0  0  0  0  0  0  0  0  0  0  0  0
   12.9550    8.5490   -3.5010 C   0  0  0  0  0  0  0  0  0  0  0  0
   11.8260    7.9940   -2.6920 C   0  0  0  0  0  0  0  0  0  0  0  0
   11.2150    6.7640   -3.4960 C   0  0  0  0  0  0  0  0  0  0  0  0
   11.5900    6.5460   -4.8730 C   0  0  0  0  0  0  0  0  0  0  0  0
   12.7590    8.4655   -8.0003 H   0  0  0  0  0  0  0  0  0  0  0  0
   13.2748    7.7246   -9.5533 H   0  0  0  0  0  0  0  0  0  0  0  0
   12.4019    9.2946   -9.5533 H   0  0  0  0  0  0  0  0  0  0  0  0
   11.0184    7.9975  -11.2257 H   0  0  0  0  0  0  0  0  0  0  0  0
    9.7286    6.5663  -12.5568 H   0  0  0  0  0  0  0  0  0  0  0  0
    7.8790    4.5060   -9.9520 H   0  0  0  0  0  0  0  0  0  0  0  0
    8.7822    6.1003   -7.2141 H   0  0  0  0  0  0  0  0  0  0  0  0
   11.6742    8.6384   -5.6836 H   0  0  0  0  0  0  0  0  0  0  0  0
    9.7080    8.5492   -6.5508 H   0  0  0  0  0  0  0  0  0  0  0  0
    9.9963    8.6806   -4.7881 H   0  0  0  0  0  0  0  0  0  0  0  0
   11.2500    9.8633   -7.0617 H   0  0  0  0  0  0  0  0  0  0  0  0
   10.6436   10.4867   -5.3994 H   0  0  0  0  0  0  0  0  0  0  0  0
   13.0093    9.2485   -6.2662 H   0  0  0  0  0  0  0  0  0  0  0  0
   12.2847   10.8187   -5.1181 H   0  0  0  0  0  0  0  0  0  0  0  0
   14.1542    9.3109   -4.9264 H   0  0  0  0  0  0  0  0  0  0  0  0
   12.9343   10.4366   -3.9044 H   0  0  0  0  0  0  0  0  0  0  0  0
   13.3430    7.6459   -3.9948 H   0  0  0  0  0  0  0  0  0  0  0  0
   13.2945    9.2085   -2.6887 H   0  0  0  0  0  0  0  0  0  0  0  0
   12.1972    7.6550   -1.7136 H   0  0  0  0  0  0  0  0  0  0  0  0
   11.0584    8.7634   -2.5223 H   0  0  0  0  0  0  0  0  0  0  0  0
   11.4916    5.8540   -2.9433 H   0  0  0  0  0  0  0  0  0  0  0  0
   10.1447    7.0096   -3.5604 H   0  0  0  0  0  0  0  0  0  0  0  0
   12.6794    6.3965   -4.9032 H   0  0  0  0  0  0  0  0  0  0  0  0
   11.0007    5.6772   -5.2015 H   0  0  0  0  0  0  0  0  0  0  0  0
  1  2  1  0
  2  3  2  0
  3  4  1  0
  4  5  1  0
  5  6  2  0
  4  7  2  0
  7  8  1  0
  7  9  1  0
  9 10  2  0
 10 11  1  0
 11 12  1  0
 12 13  1  0
 13 14  1  0
 14 15  1  0
 15 16  1  0
 16 17  1  0
 17 18  1  0
 18 19  1  0
 19 20  1  0
 10  2  1  0
 20 12  1  0
  1 21  1  0
  1 22  1  0
  1 23  1  0
  3 24  1  0
  5 25  1  0
  8 26  1  0
  9 27  1  0
 12 28  1  0
 13 29  1  0
 13 30  1  0
 14 31  1  0
 14 32  1  0
 15 33  1  0
 15 34  1  0
 16 35  1  0
 16 36  1  0
 17 37  1  0
 17 38  1  0
 18 39  1  0
 18 40  1  0
 19 41  1  0
 19 42  1  0
 20 43  1  0
 20 44  1  0
M  END

>  <ID>
DiffSBDD_3_num_sample_100

>  <docking_score>
-8.918

$$$$
DiffSBDD_40_num_sample_100
     RDKit          3D

 62 66  0  0  0  0  0  0  0  0999 V2000
    4.9180    5.0590  -12.1990 C   0  0  0  0  0  0  0  0  0  0  0  0
    5.6320    4.2330  -11.7130 C   0  0  0  0  0  0  0  0  0  0  0  0
    6.8140    4.3660  -10.7370 C   0  0  0  0  0  0  0  0  0  0  0  0
    8.0620    4.8510  -11.4180 C   0  0  2  0  0  0  0  0  0  0  0  0
    8.1800    6.1870  -11.9300 O   0  0  0  0  0  0  0  0  0  0  0  0
    9.3650    6.9990  -11.5410 C   0  0  2  0  0  0  0  0  0  0  0  0
    8.8610    8.4390  -12.0100 C   0  0  0  0  0  0  0  0  0  0  0  0
   10.7910    6.9570  -12.1590 C   0  0  0  0  0  0  0  0  0  0  0  0
   11.0220    6.5400  -13.2600 O   0  0  0  0  0  0  0  0  0  0  0  0
   11.6340    7.3180  -11.1660 N   0  0  0  0  0  0  0  0  0  0  0  0
   11.0560    7.2400   -9.8090 C   0  0  1  0  0  0  0  0  0  0  0  0
    9.4500    7.1590  -10.0780 C   0  0  2  0  0  0  0  0  0  0  0  0
   10.0720    6.5600   -8.7490 C   0  0  1  0  0  0  0  0  0  0  0  0
    9.1670    5.4620   -8.3520 C   0  0  0  0  0  0  0  0  0  0  0  0
   10.0840    7.7170   -7.7070 C   0  0  0  0  0  0  0  0  0  0  0  0
    9.0440    8.2930   -7.6800 O   0  0  0  0  0  0  0  0  0  0  0  0
   11.1400    7.9230   -7.0280 N   0  0  0  0  0  0  0  0  0  0  0  0
   11.4090    7.9410   -5.6490 C   0  0  0  0  0  0  0  0  0  0  0  0
   11.2760    6.7190   -4.8700 C   0  0  0  0  0  0  0  0  0  0  0  0
   11.6240    6.7370   -3.5140 C   0  0  0  0  0  0  0  0  0  0  0  0
   12.1740    7.8380   -2.8920 C   0  0  0  0  0  0  0  0  0  0  0  0
   12.7810    7.8250   -1.4140 C   0  0  0  0  0  0  0  0  0  0  0  0
   13.1670    6.5440   -1.3880 F   0  0  0  0  0  0  0  0  0  0  0  0
   11.5860    8.0650   -0.7200 F   0  0  0  0  0  0  0  0  0  0  0  0
   13.7040    8.7080   -1.1360 F   0  0  0  0  0  0  0  0  0  0  0  0
   12.2730    9.0780   -3.6060 C   0  0  0  0  0  0  0  0  0  0  0  0
   11.8780    9.1420   -4.9730 C   0  0  0  0  0  0  0  0  0  0  0  0
    8.5940    3.7000  -12.4800 C   0  0  0  0  0  0  0  0  0  0  0  0
    7.5020    2.7850  -12.8830 N   0  0  0  0  0  0  0  0  0  0  0  0
    7.5970    1.7220  -13.9980 C   0  0  1  0  0  0  0  0  0  0  0  0
    7.1750    0.3790  -13.2300 C   0  0  0  0  0  0  0  0  0  0  0  0
    6.4590    1.3530  -14.4680 C   0  0  2  0  0  0  0  0  0  0  0  0
    6.2290    0.5360  -15.5860 O   0  0  0  0  0  0  0  0  0  0  0  0
    6.0360    3.1090  -12.7030 C   0  0  0  0  0  0  0  0  0  0  0  0
    4.1147    4.7558  -12.8866 H   0  0  0  0  0  0  0  0  0  0  0  0
    5.0641    6.1224  -11.9587 H   0  0  0  0  0  0  0  0  0  0  0  0
    6.5416    5.0806   -9.9464 H   0  0  0  0  0  0  0  0  0  0  0  0
    7.0223    3.3689  -10.3218 H   0  0  0  0  0  0  0  0  0  0  0  0
    8.7347    4.9899  -10.5588 H   0  0  0  0  0  0  0  0  0  0  0  0
    8.6445    9.0574  -11.1264 H   0  0  0  0  0  0  0  0  0  0  0  0
    9.6433    8.9227  -12.6134 H   0  0  0  0  0  0  0  0  0  0  0  0
    7.9478    8.3293  -12.6134 H   0  0  0  0  0  0  0  0  0  0  0  0
   12.6020    7.6220  -11.3420 H   0  0  0  0  0  0  0  0  0  0  0  0
   12.0427    7.5846   -9.4659 H   0  0  0  0  0  0  0  0  0  0  0  0
    8.4057    7.5046  -10.0868 H   0  0  0  0  0  0  0  0  0  0  0  0
    9.1196    5.4045   -7.2545 H   0  0  0  0  0  0  0  0  0  0  0  0
    8.1607    5.6532   -8.7529 H   0  0  0  0  0  0  0  0  0  0  0  0
    9.5468    4.5107   -8.7529 H   0  0  0  0  0  0  0  0  0  0  0  0
   11.9690    8.1180   -7.6090 H   0  0  0  0  0  0  0  0  0  0  0  0
   10.9076    5.7950   -5.3395 H   0  0  0  0  0  0  0  0  0  0  0  0
   11.4505    5.8299   -2.9165 H   0  0  0  0  0  0  0  0  0  0  0  0
   12.6530    9.9773   -3.0992 H   0  0  0  0  0  0  0  0  0  0  0  0
   11.9272   10.0969   -5.5168 H   0  0  0  0  0  0  0  0  0  0  0  0
    8.9918    4.1979  -13.3765 H   0  0  0  0  0  0  0  0  0  0  0  0
    9.3746    3.1063  -11.9818 H   0  0  0  0  0  0  0  0  0  0  0  0
    8.4648    2.0346  -14.5973 H   0  0  0  0  0  0  0  0  0  0  0  0
    7.6443   -0.5921  -13.4459 H   0  0  0  0  0  0  0  0  0  0  0  0
    6.9738    0.0018  -12.2165 H   0  0  0  0  0  0  0  0  0  0  0  0
    5.5984    2.0033  -14.6838 H   0  0  0  0  0  0  0  0  0  0  0  0
    6.8290    0.8100  -16.3240 H   0  0  0  0  0  0  0  0  0  0  0  0
    5.6447    3.3932  -13.6910 H   0  0  0  0  0  0  0  0  0  0  0  0
    5.6167    2.1969  -12.2532 H   0  0  0  0  0  0  0  0  0  0  0  0
  1  2  2  0
  2  3  1  0
  3  4  1  0
  4  5  1  0
  6  5  1  1
  6  7  1  0
  6  8  1  0
  8  9  2  0
  8 10  1  0
 10 11  1  0
 11 12  1  0
 12 13  1  0
 13 14  1  1
 13 15  1  0
 15 16  2  0
 15 17  1  0
 17 18  1  0
 18 19  2  0
 19 20  1  0
 20 21  2  0
 21 22  1  0
 22 23  1  0
 22 24  1  0
 22 25  1  0
 21 26  1  0
 26 27  2  0
  4 28  1  0
 28 29  1  0
 29 30  1  0
 30 31  1  0
 31 32  1  0
 32 33  1  0
 29 34  1  0
 34  2  1  0
 12  6  1  0
 27 18  1  0
 32 30  1  0
 13 11  1  0
  1 35  1  0
  1 36  1  0
  3 37  1  0
  3 38  1  0
  4 39  1  1
  7 40  1  0
  7 41  1  0
  7 42  1  0
 10 43  1  0
 11 44  1  1
 12 45  1  1
 14 46  1  0
 14 47  1  0
 14 48  1  0
 17 49  1  0
 19 50  1  0
 20 51  1  0
 26 52  1  0
 27 53  1  0
 28 54  1  0
 28 55  1  0
 30 56  1  6
 31 57  1  0
 31 58  1  0
 32 59  1  1
 33 60  1  0
 34 61  1  0
 34 62  1  0
M  END

>  <ID>
DiffSBDD_40_num_sample_100

>  <docking_score>
-10.539

$$$$
DiffSBDD_41_num_sample_100
     RDKit          3D

 65 68  0  0  0  0  0  0  0  0999 V2000
   12.7390    8.2860   -8.7880 C   0  0  0  0  0  0  0  0  0  0  0  0
   11.8590    7.7570   -9.9030 C   0  0  0  0  0  0  0  0  0  0  0  0
   10.4880    7.7100   -9.5520 N   0  0  0  0  0  0  0  0  0  0  0  0
    9.4810    7.6000  -10.5970 C   0  0  0  0  0  0  0  0  0  0  0  0
    8.8550    6.1680  -10.2620 C   0  0  1  0  0  0  0  0  0  0  0  0
    8.3990    5.5150  -11.6490 C   0  0  0  0  0  0  0  0  0  0  0  0
    6.8620    5.3520  -11.5760 C   0  0  1  0  0  0  0  0  0  0  0  0
    6.1160    6.1190  -12.6300 C   0  0  0  0  0  0  0  0  0  0  0  0
    5.9840    4.7020  -12.5460 C   0  0  1  0  0  0  0  0  0  0  0  0
    6.5880    4.0900  -13.6960 N   0  0  0  0  0  0  0  0  0  0  0  0
    7.4020    4.6860  -14.6580 N   0  0  0  0  0  0  0  0  0  0  0  0
    7.6740    3.7480  -15.5950 C   0  0  2  0  0  0  0  0  0  0  0  0
    8.1360    4.1010  -17.0330 Cl  0  0  0  0  0  0  0  0  0  0  0  0
    7.2030    2.4510  -14.9180 C   0  0  0  0  0  0  0  0  0  0  0  0
    6.4980    2.8210  -13.8590 C   0  0  0  0  0  0  0  0  0  0  0  0
    5.8230    1.7980  -13.2610 C   0  0  0  0  0  0  0  0  0  0  0  0
    6.2510    0.6530  -13.8600 C   0  0  0  0  0  0  0  0  0  0  0  0
    7.1410    0.9150  -14.8680 C   0  0  0  0  0  0  0  0  0  0  0  0
    7.8230    0.0060  -15.5540 N   0  0  0  0  0  0  0  0  0  0  0  0
    7.5800   -0.5750  -16.7360 N   0  0  0  0  0  0  0  0  0  0  0  0
    8.8270   -0.2530  -17.7860 S   0  0  0  0  0  0  0  0  0  0  0  0
    9.7540   -1.3920  -17.4060 O   0  0  0  0  0  0  0  0  0  0  0  0
    9.4000    0.9960  -17.6880 O   0  0  0  0  0  0  0  0  0  0  0  0
    8.3740   -0.5140  -19.0940 O   0  0  0  0  0  0  0  0  0  0  0  0
    6.3530   -1.5660  -17.3030 S   0  0  0  0  0  0  0  0  0  0  0  0
    7.0940   -2.6600  -17.9330 O   0  0  0  0  0  0  0  0  0  0  0  0
    5.5240   -2.0770  -16.1820 O   0  0  0  0  0  0  0  0  0  0  0  0
    5.5230   -0.7910  -18.2370 O   0  0  0  0  0  0  0  0  0  0  0  0
    9.3270    5.0700   -9.2350 C   0  0  0  0  0  0  0  0  0  0  0  0
    9.1240    3.8340   -9.4850 O   0  0  0  0  0  0  0  0  0  0  0  0
    9.8290    5.3530   -7.9560 C   0  0  0  0  0  0  0  0  0  0  0  0
   10.2060    6.5440   -7.4230 C   0  0  0  0  0  0  0  0  0  0  0  0
   10.6360    6.6670   -6.0650 C   0  0  0  0  0  0  0  0  0  0  0  0
   10.1130    7.7760   -8.2610 C   0  0  0  0  0  0  0  0  0  0  0  0
    9.7180    8.8320   -7.7920 O   0  0  0  0  0  0  0  0  0  0  0  0
   12.2980    8.0209   -7.8158 H   0  0  0  0  0  0  0  0  0  0  0  0
   13.7415    7.8407   -8.8695 H   0  0  0  0  0  0  0  0  0  0  0  0
   12.8161    9.3803   -8.8695 H   0  0  0  0  0  0  0  0  0  0  0  0
   11.9739    8.4108  -10.7801 H   0  0  0  0  0  0  0  0  0  0  0  0
   12.1798    6.7261  -10.1138 H   0  0  0  0  0  0  0  0  0  0  0  0
    8.7286    8.3987  -10.5195 H   0  0  0  0  0  0  0  0  0  0  0  0
    9.8743    7.6966  -11.6197 H   0  0  0  0  0  0  0  0  0  0  0  0
    8.1391    6.5367   -9.5127 H   0  0  0  0  0  0  0  0  0  0  0  0
    8.6715    6.1739  -12.4866 H   0  0  0  0  0  0  0  0  0  0  0  0
    8.8935    4.5463  -11.8132 H   0  0  0  0  0  0  0  0  0  0  0  0
    6.9425    5.2201  -10.4869 H   0  0  0  0  0  0  0  0  0  0  0  0
    5.2744    6.7681  -12.3465 H   0  0  0  0  0  0  0  0  0  0  0  0
    6.3965    6.8297  -13.4214 H   0  0  0  0  0  0  0  0  0  0  0  0
    5.1768    3.9683  -12.4041 H   0  0  0  0  0  0  0  0  0  0  0  0
    8.2770    5.0140  -14.2250 H   0  0  0  0  0  0  0  0  0  0  0  0
    8.4335    3.4697  -16.3405 H   0  0  0  0  0  0  0  0  0  0  0  0
    6.0483    1.7714  -12.1846 H   0  0  0  0  0  0  0  0  0  0  0  0
    4.7352    1.9215  -13.3682 H   0  0  0  0  0  0  0  0  0  0  0  0
    5.9232   -0.3564  -13.5708 H   0  0  0  0  0  0  0  0  0  0  0  0
    8.6920   -0.3080  -15.0970 H   0  0  0  0  0  0  0  0  0  0  0  0
   10.3300   -1.6200  -18.1790 H   0  0  0  0  0  0  0  0  0  0  0  0
    9.6830    1.3000  -18.5870 H   0  0  0  0  0  0  0  0  0  0  0  0
    7.3870   -0.5900  -19.0920 H   0  0  0  0  0  0  0  0  0  0  0  0
    6.5200   -3.4640  -17.9810 H   0  0  0  0  0  0  0  0  0  0  0  0
    5.6460   -1.4950  -15.3900 H   0  0  0  0  0  0  0  0  0  0  0  0
    4.6010   -0.7260  -17.8830 H   0  0  0  0  0  0  0  0  0  0  0  0
    9.9322    4.4849   -7.2883 H   0  0  0  0  0  0  0  0  0  0  0  0
    9.7992    6.4276   -5.3923 H   0  0  0  0  0  0  0  0  0  0  0  0
   11.4668    5.9705   -5.8789 H   0  0  0  0  0  0  0  0  0  0  0  0
   10.9728    7.6975   -5.8789 H   0  0  0  0  0  0  0  0  0  0  0  0
  1  2  1  0
  2  3  1  0
  3  4  1  0
  4  5  1  0
  5  6  1  0
  6  7  1  0
  7  8  1  0
  8  9  1  0
  9 10  1  0
 10 11  1  0
 11 12  1  0
 12 13  1  0
 12 14  1  0
 14 15  2  0
 15 16  1  0
 16 17  1  0
 17 18  2  0
 18 19  1  0
 19 20  1  0
 20 21  1  0
 21 22  1  0
 21 23  1  0
 21 24  1  0
 20 25  1  0
 25 26  1  0
 25 27  1  0
 25 28  1  0
  5 29  1  0
 29 30  2  0
 29 31  1  0
 31 32  2  0
 32 33  1  0
 32 34  1  0
 34 35  2  0
 34  3  1  0
  9  7  1  0
 15 10  1  0
 18 14  1  0
  1 36  1  0
  1 37  1  0
  1 38  1  0
  2 39  1  0
  2 40  1  0
  4 41  1  0
  4 42  1  0
  5 43  1  1
  6 44  1  0
  6 45  1  0
  7 46  1  1
  8 47  1  0
  8 48  1  0
  9 49  1  1
 11 50  1  0
 12 51  1  1
 16 52  1  0
 16 53  1  0
 17 54  1  0
 19 55  1  0
 22 56  1  0
 23 57  1  0
 24 58  1  0
 26 59  1  0
 27 60  1  0
 28 61  1  0
 31 62  1  0
 33 63  1  0
 33 64  1  0
 33 65  1  0
M  END

>  <ID>
DiffSBDD_41_num_sample_100

>  <docking_score>
-8.157

$$$$
DiffSBDD_42_num_sample_100
     RDKit          3D

 44 45  0  0  0  0  0  0  0  0999 V2000
    6.6820    6.2120  -15.5070 C   0  0  0  0  0  0  0  0  0  0  0  0
    7.8170    5.6690  -16.2580 O   0  0  0  0  0  0  0  0  0  0  0  0
    8.7850    4.9600  -15.6190 C   0  0  0  0  0  0  0  0  0  0  0  0
    9.6340    4.3500  -16.1970 O   0  0  0  0  0  0  0  0  0  0  0  0
    8.7500    4.9630  -14.2020 N   0  0  0  0  0  0  0  0  0  0  0  0
    8.3110    3.6980  -13.4980 N   0  0  0  0  0  0  0  0  0  0  0  0
    7.1740    2.7850  -13.9570 C   0  0  0  0  0  0  0  0  0  0  0  0
    7.2260    1.5140  -13.2680 C   0  0  2  0  0  0  0  0  0  0  0  0
    7.4040    0.2160  -13.8590 C   0  0  0  0  0  0  0  0  0  0  0  0
    6.4060    0.4450  -12.9190 N   0  0  0  0  0  0  0  0  0  0  0  0
    7.9150    4.3300  -12.2090 C   0  0  2  0  0  0  0  0  0  0  0  0
    6.8340    5.2650  -12.0500 O   0  0  0  0  0  0  0  0  0  0  0  0
    5.6870    4.6720  -11.4150 C   0  0  0  0  0  0  0  0  0  0  0  0
    8.8810    4.1670  -11.2370 O   0  0  0  0  0  0  0  0  0  0  0  0
    9.1860    5.4870  -10.6980 C   0  0  1  0  0  0  0  0  0  0  0  0
    9.6450    6.8470  -11.2970 C   0  0  0  0  0  0  0  0  0  0  0  0
   10.6050    7.6430  -10.5510 C   0  0  0  0  0  0  0  0  0  0  0  0
   10.6930    7.2760   -9.1320 C   0  0  0  0  0  0  0  0  0  0  0  0
   11.7560    7.9240   -8.2680 C   0  0  0  0  0  0  0  0  0  0  0  0
    9.8600    6.4370   -8.5650 N   0  0  0  0  0  0  0  0  0  0  0  0
    8.8590    5.7550   -9.2940 C   0  0  0  0  0  0  0  0  0  0  0  0
    8.0970    5.0240   -8.7290 O   0  0  0  0  0  0  0  0  0  0  0  0
    6.8775    6.1185  -14.4286 H   0  0  0  0  0  0  0  0  0  0  0  0
    6.5458    7.2728  -15.7643 H   0  0  0  0  0  0  0  0  0  0  0  0
    5.7706    5.6524  -15.7643 H   0  0  0  0  0  0  0  0  0  0  0  0
    9.0170    5.8010  -13.6670 H   0  0  0  0  0  0  0  0  0  0  0  0
    6.2113    3.2722  -13.7428 H   0  0  0  0  0  0  0  0  0  0  0  0
    7.2801    2.6053  -15.0370 H   0  0  0  0  0  0  0  0  0  0  0  0
    7.7125    2.2832  -12.6501 H   0  0  0  0  0  0  0  0  0  0  0  0
    7.1418    0.0482  -14.9140 H   0  0  0  0  0  0  0  0  0  0  0  0
    8.2398   -0.4922  -13.9583 H   0  0  0  0  0  0  0  0  0  0  0  0
    5.4190    0.4430  -13.2140 H   0  0  0  0  0  0  0  0  0  0  0  0
    6.9534    3.8466  -11.9816 H   0  0  0  0  0  0  0  0  0  0  0  0
    5.8013    4.7311  -10.3225 H   0  0  0  0  0  0  0  0  0  0  0  0
    4.7790    5.2136  -11.7185 H   0  0  0  0  0  0  0  0  0  0  0  0
    5.6039    3.6180  -11.7185 H   0  0  0  0  0  0  0  0  0  0  0  0
    9.7095    4.9070  -11.4723 H   0  0  0  0  0  0  0  0  0  0  0  0
   10.0922    6.6351  -12.2794 H   0  0  0  0  0  0  0  0  0  0  0  0
    8.7323    7.4609  -11.3034 H   0  0  0  0  0  0  0  0  0  0  0  0
   11.5970    7.5099  -11.0073 H   0  0  0  0  0  0  0  0  0  0  0  0
   10.2626    8.6875  -10.5945 H   0  0  0  0  0  0  0  0  0  0  0  0
   11.5083    7.7730   -7.2069 H   0  0  0  0  0  0  0  0  0  0  0  0
   12.7331    7.4678   -8.4849 H   0  0  0  0  0  0  0  0  0  0  0  0
   11.7982    9.0016   -8.4849 H   0  0  0  0  0  0  0  0  0  0  0  0
  1  2  1  0
  2  3  1  0
  3  4  2  0
  3  5  1  0
  5  6  1  0
  6  7  1  0
  7  8  1  0
  8  9  1  0
  9 10  1  0
  6 11  1  0
 11 12  1  0
 12 13  1  0
 11 14  1  0
 14 15  1  0
 15 16  1  0
 16 17  1  0
 17 18  1  0
 18 19  1  0
 18 20  2  0
 20 21  1  0
 21 22  2  0
 10  8  1  0
 21 15  1  0
  1 23  1  0
  1 24  1  0
  1 25  1  0
  5 26  1  0
  7 27  1  0
  7 28  1  0
  8 29  1  1
  9 30  1  0
  9 31  1  0
 10 32  1  0
 11 33  1  1
 13 34  1  0
 13 35  1  0
 13 36  1  0
 15 37  1  1
 16 38  1  0
 16 39  1  0
 17 40  1  0
 17 41  1  0
 19 42  1  0
 19 43  1  0
 19 44  1  0
M  END

>  <ID>
DiffSBDD_42_num_sample_100

>  <docking_score>
-6.715

$$$$
DiffSBDD_43_num_sample_100
     RDKit          3D

 37 39  0  0  0  0  0  0  0  0999 V2000
    9.3550    5.8790  -11.2620 C   0  0  0  0  0  0  0  0  0  0  0  0
    9.4840    6.2190   -9.8160 N   0  0  0  0  0  0  0  0  0  0  0  0
   10.0520    7.1970   -9.3500 N   0  0  0  0  0  0  0  0  0  0  0  0
   10.2100    7.0260   -8.1620 N   0  0  0  0  0  0  0  0  0  0  0  0
   10.9070    7.8170   -7.3930 C   0  0  0  0  0  0  0  0  0  0  0  0
   11.6410    8.7980   -7.9570 C   0  0  0  0  0  0  0  0  0  0  0  0
   12.3880    9.5800   -7.2180 C   0  0  0  0  0  0  0  0  0  0  0  0
   12.3800    9.4820   -5.8710 C   0  0  0  0  0  0  0  0  0  0  0  0
   11.6420    8.5210   -5.2300 C   0  0  0  0  0  0  0  0  0  0  0  0
   11.9830    8.0380   -3.8550 N   0  0  0  0  0  0  0  0  0  0  0  0
   11.7890    6.8540   -3.2170 C   0  0  0  0  0  0  0  0  0  0  0  0
   12.4610    6.7750   -2.0420 C   0  0  0  0  0  0  0  0  0  0  0  0
   12.7780    8.0690   -1.7290 C   0  0  0  0  0  0  0  0  0  0  0  0
   12.6290    8.8320   -2.8670 C   0  0  0  0  0  0  0  0  0  0  0  0
   10.8680    7.6320   -5.9390 C   0  0  0  0  0  0  0  0  0  0  0  0
    9.6610    6.0420   -7.7770 C   0  0  0  0  0  0  0  0  0  0  0  0
    9.1030    5.5790   -8.8490 C   0  0  1  0  0  0  0  0  0  0  0  0
    8.3690    4.5300   -8.8170 F   0  0  0  0  0  0  0  0  0  0  0  0
    8.9665    4.8550  -11.3647 H   0  0  0  0  0  0  0  0  0  0  0  0
    8.6619    6.5842  -11.7441 H   0  0  0  0  0  0  0  0  0  0  0  0
   10.3414    5.9470  -11.7441 H   0  0  0  0  0  0  0  0  0  0  0  0
   10.9670    7.3160   -9.8070 H   0  0  0  0  0  0  0  0  0  0  0  0
   11.6120    8.9426   -9.0471 H   0  0  0  0  0  0  0  0  0  0  0  0
   13.0322   10.3286   -7.7023 H   0  0  0  0  0  0  0  0  0  0  0  0
   12.9780   10.1879   -5.2760 H   0  0  0  0  0  0  0  0  0  0  0  0
   10.7141    6.7348   -3.0160 H   0  0  0  0  0  0  0  0  0  0  0  0
   12.1719    6.0576   -3.8722 H   0  0  0  0  0  0  0  0  0  0  0  0
   11.8245    6.3329   -1.2613 H   0  0  0  0  0  0  0  0  0  0  0  0
   13.3539    6.1371   -2.1181 H   0  0  0  0  0  0  0  0  0  0  0  0
   12.1046    8.4381   -0.9414 H   0  0  0  0  0  0  0  0  0  0  0  0
   13.8128    8.1303   -1.3611 H   0  0  0  0  0  0  0  0  0  0  0  0
   12.0170    9.7182   -2.6433 H   0  0  0  0  0  0  0  0  0  0  0  0
   13.6119    9.1654   -3.2315 H   0  0  0  0  0  0  0  0  0  0  0  0
   10.2689    6.8467   -5.4549 H   0  0  0  0  0  0  0  0  0  0  0  0
   10.3836    5.3220   -7.3654 H   0  0  0  0  0  0  0  0  0  0  0  0
    8.9441    6.2361   -6.9655 H   0  0  0  0  0  0  0  0  0  0  0  0
    9.9879    4.9540   -9.0397 H   0  0  0  0  0  0  0  0  0  0  0  0
  1  2  1  0
  2  3  1  0
  3  4  1  0
  4  5  1  0
  5  6  2  0
  6  7  1  0
  7  8  2  0
  8  9  1  0
  9 10  1  0
 10 11  1  0
 11 12  1  0
 12 13  1  0
 13 14  1  0
  9 15  2  0
  4 16  1  0
 16 17  1  0
 17 18  1  0
 17  2  1  0
 15  5  1  0
 14 10  1  0
  1 19  1  0
  1 20  1  0
  1 21  1  0
  3 22  1  0
  6 23  1  0
  7 24  1  0
  8 25  1  0
 11 26  1  0
 11 27  1  0
 12 28  1  0
 12 29  1  0
 13 30  1  0
 13 31  1  0
 14 32  1  0
 14 33  1  0
 15 34  1  0
 16 35  1  0
 16 36  1  0
 17 37  1  1
M  END

>  <ID>
DiffSBDD_43_num_sample_100

>  <docking_score>
-8.825

$$$$
DiffSBDD_44_num_sample_100
     RDKit          3D

 55 57  0  0  0  0  0  0  0  0999 V2000
    6.3880    6.7270  -12.8880 C   0  0  0  0  0  0  0  0  0  0  0  0
    6.1320    5.6250  -13.8410 N   0  0  0  0  0  0  0  0  0  0  0  0
    6.0420    6.1620  -15.1710 C   0  0  0  0  0  0  0  0  0  0  0  0
    7.1630    5.6130  -16.0490 C   0  0  0  0  0  0  0  0  0  0  0  0
    8.2160    5.1860  -14.9530 C   0  0  0  0  0  0  0  0  0  0  0  0
    9.3330    4.7420  -15.1360 O   0  0  0  0  0  0  0  0  0  0  0  0
    7.2580    4.6280  -13.9440 C   0  0  2  0  0  0  0  0  0  0  0  0
    6.8010    3.2000  -14.3910 C   0  0  0  0  0  0  0  0  0  0  0  0
    7.7570    4.4480  -12.4490 C   0  0  0  0  0  0  0  0  0  0  0  0
    6.9160    4.2920  -11.6090 O   0  0  0  0  0  0  0  0  0  0  0  0
    9.0590    4.5220  -12.1500 N   0  0  0  0  0  0  0  0  0  0  0  0
    9.4400    5.4320  -11.2060 C   0  0  0  0  0  0  0  0  0  0  0  0
    9.9160    6.8660  -11.3130 C   0  0  0  0  0  0  0  0  0  0  0  0
    9.3790    7.6500  -10.1820 C   0  0  0  0  0  0  0  0  0  0  0  0
   10.3230    8.0450   -9.1190 C   0  0  0  0  0  0  0  0  0  0  0  0
   11.7680    8.3490   -9.4150 C   0  0  0  0  0  0  0  0  0  0  0  0
   12.4260    8.6040   -8.0220 C   0  0  0  0  0  0  0  0  0  0  0  0
   11.3790    8.3000   -7.1050 N   0  0  0  0  0  0  0  0  0  0  0  0
   11.6080    8.0220   -5.7940 C   0  0  0  0  0  0  0  0  0  0  0  0
   11.3350    6.7440   -5.3240 C   0  0  0  0  0  0  0  0  0  0  0  0
   11.4770    6.3680   -3.9880 C   0  0  0  0  0  0  0  0  0  0  0  0
   11.7700    7.3520   -3.0670 C   0  0  0  0  0  0  0  0  0  0  0  0
   12.0260    8.6690   -3.5070 C   0  0  0  0  0  0  0  0  0  0  0  0
   12.3180    9.7060   -2.6660 N   0  0  0  0  0  0  0  0  0  0  0  0
   11.9120    9.0160   -4.8560 C   0  0  0  0  0  0  0  0  0  0  0  0
   10.1860    8.1790   -7.7620 C   0  0  0  0  0  0  0  0  0  0  0  0
    9.0970    8.4250   -7.1390 O   0  0  0  0  0  0  0  0  0  0  0  0
    6.3003    6.3493  -11.8586 H   0  0  0  0  0  0  0  0  0  0  0  0
    7.4019    7.1223  -13.0484 H   0  0  0  0  0  0  0  0  0  0  0  0
    5.6522    7.5288  -13.0484 H   0  0  0  0  0  0  0  0  0  0  0  0
    5.0715    5.8843  -15.6081 H   0  0  0  0  0  0  0  0  0  0  0  0
    6.1365    7.2567  -15.1186 H   0  0  0  0  0  0  0  0  0  0  0  0
    6.8260    4.7513  -16.6439 H   0  0  0  0  0  0  0  0  0  0  0  0
    7.5461    6.3241  -16.7957 H   0  0  0  0  0  0  0  0  0  0  0  0
    6.6036    2.5831  -13.5019 H   0  0  0  0  0  0  0  0  0  0  0  0
    5.8836    3.2802  -14.9927 H   0  0  0  0  0  0  0  0  0  0  0  0
    7.5945    2.7327  -14.9927 H   0  0  0  0  0  0  0  0  0  0  0  0
    9.7490    3.9150  -12.6150 H   0  0  0  0  0  0  0  0  0  0  0  0
    8.5639    5.4996  -10.5443 H   0  0  0  0  0  0  0  0  0  0  0  0
   10.4255    4.9896  -10.9983 H   0  0  0  0  0  0  0  0  0  0  0  0
   11.0154    6.8901  -11.2864 H   0  0  0  0  0  0  0  0  0  0  0  0
    9.5620    7.2996  -12.2599 H   0  0  0  0  0  0  0  0  0  0  0  0
    8.9448    8.5718  -10.5965 H   0  0  0  0  0  0  0  0  0  0  0  0
    8.6650    6.9755   -9.6868 H   0  0  0  0  0  0  0  0  0  0  0  0
   10.5792    6.9881   -8.9538 H   0  0  0  0  0  0  0  0  0  0  0  0
   12.2467    7.4955   -9.9174 H   0  0  0  0  0  0  0  0  0  0  0  0
   11.8773    9.2138  -10.0860 H   0  0  0  0  0  0  0  0  0  0  0  0
   13.2903    7.9414   -7.8671 H   0  0  0  0  0  0  0  0  0  0  0  0
   12.8134    9.6274   -7.9095 H   0  0  0  0  0  0  0  0  0  0  0  0
   10.9883    5.9877   -6.0436 H   0  0  0  0  0  0  0  0  0  0  0  0
   11.3589    5.3190   -3.6787 H   0  0  0  0  0  0  0  0  0  0  0  0
   11.8041    7.1117   -1.9941 H   0  0  0  0  0  0  0  0  0  0  0  0
   13.2990    9.9540   -2.4750 H   0  0  0  0  0  0  0  0  0  0  0  0
   11.5570   10.2400   -2.2230 H   0  0  0  0  0  0  0  0  0  0  0  0
   12.0594   10.0577   -5.1770 H   0  0  0  0  0  0  0  0  0  0  0  0
  1  2  1  0
  2  3  1  0
  3  4  1  0
  4  5  1  0
  5  6  2  0
  5  7  1  0
  7  8  1  6
  7  9  1  0
  9 10  2  0
  9 11  1  0
 11 12  1  0
 12 13  1  0
 13 14  1  0
 14 15  1  0
 15 16  1  0
 16 17  1  0
 17 18  1  0
 18 19  1  0
 19 20  2  0
 20 21  1  0
 21 22  2  0
 22 23  1  0
 23 24  1  0
 23 25  2  0
 18 26  1  0
 26 27  2  0
  7  2  1  0
 26 15  1  0
 25 19  1  0
  1 28  1  0
  1 29  1  0
  1 30  1  0
  3 31  1  0
  3 32  1  0
  4 33  1  0
  4 34  1  0
  8 35  1  0
  8 36  1  0
  8 37  1  0
 11 38  1  0
 12 39  1  0
 12 40  1  0
 13 41  1  0
 13 42  1  0
 14 43  1  0
 14 44  1  0
 15 45  1  0
 16 46  1  0
 16 47  1  0
 17 48  1  0
 17 49  1  0
 20 50  1  0
 21 51  1  0
 22 52  1  0
 24 53  1  0
 24 54  1  0
 25 55  1  0
M  END

>  <ID>
DiffSBDD_44_num_sample_100

>  <docking_score>
-9.401

$$$$
DiffSBDD_45_num_sample_100
     RDKit          3D

 63 65  0  0  0  0  0  0  0  0999 V2000
   10.8480    7.9280   -9.9260 C   0  0  0  0  0  0  0  0  0  0  0  0
    9.5000    7.1680  -10.0270 C   0  0  2  0  0  0  0  0  0  0  0  0
    9.5260    5.9010   -9.1100 C   0  0  1  0  0  0  0  0  0  0  0  0
    9.4010    6.1940   -7.5930 C   0  0  0  0  0  0  0  0  0  0  0  0
   10.7420    6.1380   -6.8510 C   0  0  0  0  0  0  0  0  0  0  0  0
   10.8850    7.4990   -6.0430 C   0  0  0  0  0  0  0  0  0  0  0  0
   11.6620    7.6800   -4.9020 N   0  0  0  0  0  0  0  0  0  0  0  0
   11.2820    7.1470   -3.6100 C   0  0  0  0  0  0  0  0  0  0  0  0
   12.4270    6.6830   -2.7080 C   0  0  0  0  0  0  0  0  0  0  0  0
   12.5680    7.5040   -1.5620 C   0  0  0  0  0  0  0  0  0  0  0  0
   12.7920    8.8150   -2.1210 N   0  0  0  0  0  0  0  0  0  0  0  0
   12.1980    9.4560   -3.2360 C   0  0  0  0  0  0  0  0  0  0  0  0
   11.6100   10.4710   -3.1070 F   0  0  0  0  0  0  0  0  0  0  0  0
   12.3000    8.9410   -4.6600 C   0  0  2  0  0  0  0  0  0  0  0  0
   12.4470   10.0270   -5.8790 Cl  0  0  0  0  0  0  0  0  0  0  0  0
    8.3130    4.9730   -9.4560 C   0  0  0  0  0  0  0  0  0  0  0  0
    8.1290    4.5730  -10.8510 O   0  0  0  0  0  0  0  0  0  0  0  0
    8.7080    4.4350  -11.8560 C   0  0  1  0  0  0  0  0  0  0  0  0
    7.6170    3.8900  -12.7100 C   0  0  0  0  0  0  0  0  0  0  0  0
    6.2830    4.4070  -13.1100 C   0  0  0  0  0  0  0  0  0  0  0  0
    5.2380    3.2610  -13.0250 C   0  0  0  0  0  0  0  0  0  0  0  0
    5.5520    1.9520  -13.4360 C   0  0  0  0  0  0  0  0  0  0  0  0
    6.9290    1.6200  -13.5290 C   0  0  0  0  0  0  0  0  0  0  0  0
    7.9660    2.6530  -13.2380 C   0  0  0  0  0  0  0  0  0  0  0  0
    9.1310    5.8290  -12.3040 C   0  0  0  0  0  0  0  0  0  0  0  0
    9.3140    5.8640  -13.4310 O   0  0  0  0  0  0  0  0  0  0  0  0
    9.1060    6.9750  -11.4610 N   0  0  0  0  0  0  0  0  0  0  0  0
    8.6330    8.2260  -12.0800 C   0  0  0  0  0  0  0  0  0  0  0  0
   11.1079    8.0745   -8.8672 H   0  0  0  0  0  0  0  0  0  0  0  0
   11.6372    7.3419  -10.4196 H   0  0  0  0  0  0  0  0  0  0  0  0
   10.7550    8.9066  -10.4196 H   0  0  0  0  0  0  0  0  0  0  0  0
    8.6703    7.7653   -9.6210 H   0  0  0  0  0  0  0  0  0  0  0  0
   10.5075    5.4435   -9.3031 H   0  0  0  0  0  0  0  0  0  0  0  0
    8.9735    7.1995   -7.4658 H   0  0  0  0  0  0  0  0  0  0  0  0
    8.7579    5.4123   -7.1625 H   0  0  0  0  0  0  0  0  0  0  0  0
   10.7544    5.2842   -6.1575 H   0  0  0  0  0  0  0  0  0  0  0  0
   11.5758    6.0121   -7.5574 H   0  0  0  0  0  0  0  0  0  0  0  0
   11.2612    8.2325   -6.7714 H   0  0  0  0  0  0  0  0  0  0  0  0
    9.8780    7.5731   -5.6066 H   0  0  0  0  0  0  0  0  0  0  0  0
   10.7283    7.9313   -3.0730 H   0  0  0  0  0  0  0  0  0  0  0  0
   10.6925    6.2437   -3.8258 H   0  0  0  0  0  0  0  0  0  0  0  0
   12.2269    5.6513   -2.3830 H   0  0  0  0  0  0  0  0  0  0  0  0
   13.3606    6.7449   -3.2864 H   0  0  0  0  0  0  0  0  0  0  0  0
   11.6542    7.4871   -0.9499 H   0  0  0  0  0  0  0  0  0  0  0  0
   13.3777    7.1761   -0.8935 H   0  0  0  0  0  0  0  0  0  0  0  0
   13.7990    8.8240   -2.3360 H   0  0  0  0  0  0  0  0  0  0  0  0
   11.2677    8.8951   -3.0629 H   0  0  0  0  0  0  0  0  0  0  0  0
   13.3548    8.6355   -4.7245 H   0  0  0  0  0  0  0  0  0  0  0  0
    8.4263    4.0527   -8.8643 H   0  0  0  0  0  0  0  0  0  0  0  0
    7.4269    5.5830   -9.2265 H   0  0  0  0  0  0  0  0  0  0  0  0
    9.6087    3.8035  -11.8492 H   0  0  0  0  0  0  0  0  0  0  0  0
    7.1667    3.4101  -11.8285 H   0  0  0  0  0  0  0  0  0  0  0  0
    6.0686    5.4409  -13.4185 H   0  0  0  0  0  0  0  0  0  0  0  0
    4.2321    3.4768  -12.6357 H   0  0  0  0  0  0  0  0  0  0  0  0
    5.0910    1.2586  -12.7172 H   0  0  0  0  0  0  0  0  0  0  0  0
    5.1689    1.8751  -14.4643 H   0  0  0  0  0  0  0  0  0  0  0  0
    7.1034    0.7889  -12.8298 H   0  0  0  0  0  0  0  0  0  0  0  0
    7.0685    1.4160  -14.6009 H   0  0  0  0  0  0  0  0  0  0  0  0
    8.6703    2.1970  -12.5266 H   0  0  0  0  0  0  0  0  0  0  0  0
    8.3347    2.9140  -14.2409 H   0  0  0  0  0  0  0  0  0  0  0  0
    8.3613    8.9447  -11.2928 H   0  0  0  0  0  0  0  0  0  0  0  0
    9.4324    8.6512  -12.7046 H   0  0  0  0  0  0  0  0  0  0  0  0
    7.7522    8.0159  -12.7046 H   0  0  0  0  0  0  0  0  0  0  0  0
  1  2  1  0
  2  3  1  0
  3  4  1  0
  4  5  1  0
  5  6  1  0
  6  7  1  0
  7  8  1  0
  8  9  1  0
  9 10  1  0
 10 11  1  0
 11 12  1  0
 12 13  1  0
 12 14  1  0
 14 15  1  0
  3 16  1  0
 16 17  1  0
 17 18  1  0
 18 19  1  0
 19 20  1  0
 20 21  2  0
 21 22  1  0
 22 23  1  0
 23 24  1  0
 18 25  1  0
 25 26  2  0
 25 27  1  0
 27 28  1  0
 27  2  1  0
 14  7  1  0
 24 19  1  0
  1 29  1  0
  1 30  1  0
  1 31  1  0
  2 32  1  1
  3 33  1  1
  4 34  1  0
  4 35  1  0
  5 36  1  0
  5 37  1  0
  6 38  1  0
  6 39  1  0
  8 40  1  0
  8 41  1  0
  9 42  1  0
  9 43  1  0
 10 44  1  0
 10 45  1  0
 11 46  1  0
 12 47  1  0
 14 48  1  1
 16 49  1  0
 16 50  1  0
 18 51  1  1
 19 52  1  0
 20 53  1  0
 21 54  1  0
 22 55  1  0
 22 56  1  0
 23 57  1  0
 23 58  1  0
 24 59  1  0
 24 60  1  0
 28 61  1  0
 28 62  1  0
 28 63  1  0
M  END

>  <ID>
DiffSBDD_45_num_sample_100

>  <docking_score>
-9.857

$$$$
DiffSBDD_46_num_sample_100
     RDKit          3D

 40 39  0  0  0  0  0  0  0  0999 V2000
   12.8260    8.4660   -1.4160 N   0  0  0  0  0  0  0  0  0  0  0  0
   12.5520    7.5430   -2.0760 C   0  0  0  0  0  0  0  0  0  0  0  0
   11.8200    6.7580   -3.0490 C   0  0  0  0  0  0  0  0  0  0  0  0
   11.5150    7.3930   -4.3300 C   0  0  0  0  0  0  0  0  0  0  0  0
   11.1720    6.3930   -5.4630 C   0  0  0  0  0  0  0  0  0  0  0  0
   11.4700    7.0020   -6.8680 C   0  0  0  0  0  0  0  0  0  0  0  0
   11.6350    8.4340   -6.8620 C   0  0  0  0  0  0  0  0  0  0  0  0
   11.3440    8.6680   -8.4170 C   0  0  0  0  0  0  0  0  0  0  0  0
   10.5450    7.6370   -8.9610 C   0  0  0  0  0  0  0  0  0  0  0  0
    9.8780    8.0370  -10.2790 C   0  0  0  0  0  0  0  0  0  0  0  0
   10.4870    6.9200  -11.2970 C   0  0  0  0  0  0  0  0  0  0  0  0
   11.5650    7.1640  -11.7800 O   0  0  0  0  0  0  0  0  0  0  0  0
    9.4190    6.1110  -11.9150 C   0  0  0  0  0  0  0  0  0  0  0  0
    9.0740    4.4530  -11.1790 C   0  0  2  0  0  0  0  0  0  0  0  0
    9.0010    3.5100  -12.0830 O   0  0  0  0  0  0  0  0  0  0  0  0
    7.6360    5.0400  -10.7690 C   0  0  0  0  0  0  0  0  0  0  0  0
    7.6530    5.3490   -9.2590 O   0  0  0  0  0  0  0  0  0  0  0  0
   12.4137    5.8564   -3.2602 H   0  0  0  0  0  0  0  0  0  0  0  0
   10.8400    6.5746   -2.5843 H   0  0  0  0  0  0  0  0  0  0  0  0
   10.6543    8.0631   -4.1877 H   0  0  0  0  0  0  0  0  0  0  0  0
   12.4225    7.9300   -4.6432 H   0  0  0  0  0  0  0  0  0  0  0  0
   11.7755    5.4827   -5.3320 H   0  0  0  0  0  0  0  0  0  0  0  0
   10.0983    6.1604   -5.4067 H   0  0  0  0  0  0  0  0  0  0  0  0
   12.3955    6.5486   -7.2526 H   0  0  0  0  0  0  0  0  0  0  0  0
   10.5974    6.7843   -7.5014 H   0  0  0  0  0  0  0  0  0  0  0  0
   10.9025    8.9396   -6.2157 H   0  0  0  0  0  0  0  0  0  0  0  0
   12.5905    8.8186   -6.4758 H   0  0  0  0  0  0  0  0  0  0  0  0
   10.8206    9.6275   -8.5411 H   0  0  0  0  0  0  0  0  0  0  0  0
   12.3069    8.6720   -8.9489 H   0  0  0  0  0  0  0  0  0  0  0  0
   11.1808    6.7576   -9.1414 H   0  0  0  0  0  0  0  0  0  0  0  0
    9.7454    7.4206   -8.2373 H   0  0  0  0  0  0  0  0  0  0  0  0
    8.7822    7.9670  -10.2132 H   0  0  0  0  0  0  0  0  0  0  0  0
   10.0699    9.0764  -10.5837 H   0  0  0  0  0  0  0  0  0  0  0  0
    8.4890    6.6959  -11.8608 H   0  0  0  0  0  0  0  0  0  0  0  0
    9.7809    5.8974  -12.9316 H   0  0  0  0  0  0  0  0  0  0  0  0
    9.7439    3.9773  -10.4476 H   0  0  0  0  0  0  0  0  0  0  0  0
    8.9580    3.9190  -12.9830 H   0  0  0  0  0  0  0  0  0  0  0  0
    7.4351    5.9615  -11.3351 H   0  0  0  0  0  0  0  0  0  0  0  0
    6.8480    4.3073  -10.9974 H   0  0  0  0  0  0  0  0  0  0  0  0
    7.6010    6.3290   -9.1220 H   0  0  0  0  0  0  0  0  0  0  0  0
  1  2  3  0
  2  3  1  0
  3  4  1  0
  4  5  1  0
  5  6  1  0
  6  7  1  0
  7  8  1  0
  8  9  1  0
  9 10  1  0
 10 11  1  0
 11 12  2  0
 11 13  1  0
 13 14  1  0
 14 15  1  0
 14 16  1  0
 16 17  1  0
  3 18  1  0
  3 19  1  0
  4 20  1  0
  4 21  1  0
  5 22  1  0
  5 23  1  0
  6 24  1  0
  6 25  1  0
  7 26  1  0
  7 27  1  0
  8 28  1  0
  8 29  1  0
  9 30  1  0
  9 31  1  0
 10 32  1  0
 10 33  1  0
 13 34  1  0
 13 35  1  0
 14 36  1  1
 15 37  1  0
 16 38  1  0
 16 39  1  0
 17 40  1  0
M  END

>  <ID>
DiffSBDD_46_num_sample_100

>  <docking_score>
-6.512

$$$$
DiffSBDD_47_num_sample_100
     RDKit          3D

 65 71  0  0  0  0  0  0  0  0999 V2000
    7.8380    1.7460  -16.5840 C   0  0  0  0  0  0  0  0  0  0  0  0
    6.8050    1.0010  -16.0070 C   0  0  1  0  0  0  0  0  0  0  0  0
    6.0580    0.2130  -16.8870 C   0  0  1  0  0  0  0  0  0  0  0  0
    6.3360   -0.3160  -18.1050 N   0  0  0  0  0  0  0  0  0  0  0  0
    5.3310   -1.0850  -18.4010 C   0  0  0  0  0  0  0  0  0  0  0  0
    4.3820   -1.1150  -17.3710 N   0  0  0  0  0  0  0  0  0  0  0  0
    4.9080   -0.3110  -16.4270 C   0  0  0  0  0  0  0  0  0  0  0  0
    4.4140    0.0770  -15.2680 N   0  0  0  0  0  0  0  0  0  0  0  0
    5.1240    0.5250  -14.1710 C   0  0  0  0  0  0  0  0  0  0  0  0
    6.5200    0.7780  -14.5710 N   0  0  2  0  0  0  0  0  0  0  0  0
    7.5050    1.1160  -13.4970 C   0  0  0  0  0  0  0  0  0  0  0  0
    7.2290    2.5060  -12.9830 C   0  0  0  0  0  0  0  0  0  0  0  0
    8.5780    3.0580  -12.6780 N   0  0  0  0  0  0  0  0  0  0  0  0
    8.6390    4.0460  -11.6480 C   0  0  0  0  0  0  0  0  0  0  0  0
    8.3100    5.5960  -12.0440 C   0  0  1  0  0  0  0  0  0  0  0  0
    9.1120    6.3900  -10.7040 N   0  0  0  0  0  0  0  0  0  0  0  0
    8.7810    5.9330   -9.5470 N   0  0  0  0  0  0  0  0  0  0  0  0
    9.2160    6.0790   -8.2810 C   0  0  0  0  0  0  0  0  0  0  0  0
   10.2090    7.1680   -8.0050 C   0  0  0  0  0  0  0  0  0  0  0  0
   10.3530    7.4970   -6.6130 C   0  0  0  0  0  0  0  0  0  0  0  0
    9.7130    6.8340   -5.7700 F   0  0  0  0  0  0  0  0  0  0  0  0
   11.5060    8.3620   -6.3020 C   0  0  1  0  0  0  0  0  0  0  0  0
   11.8450    9.0750   -5.0480 C   0  0  0  0  0  0  0  0  0  0  0  0
   12.7280    9.4890   -6.2060 C   0  0  2  0  0  0  0  0  0  0  0  0
   11.9940    9.1560   -7.3380 C   0  0  1  0  0  0  0  0  0  0  0  0
   11.8220    8.8420   -8.6420 C   0  0  0  0  0  0  0  0  0  0  0  0
   10.9400    7.8690   -9.0710 C   0  0  0  0  0  0  0  0  0  0  0  0
   10.9860    7.7260  -10.4340 N   0  0  0  0  0  0  0  0  0  0  0  0
   10.1430    6.9990  -11.2420 C   0  0  0  0  0  0  0  0  0  0  0  0
   10.4590    6.9780  -12.4640 O   0  0  0  0  0  0  0  0  0  0  0  0
    6.7840    5.8650  -12.1000 O   0  0  0  0  0  0  0  0  0  0  0  0
    7.3580    5.9960  -13.4240 C   0  0  2  0  0  0  0  0  0  0  0  0
    6.0880    5.9770  -14.2660 C   0  0  0  0  0  0  0  0  0  0  0  0
    8.4560    2.1917  -15.7906 H   0  0  0  0  0  0  0  0  0  0  0  0
    8.4607    1.0877  -17.2076 H   0  0  0  0  0  0  0  0  0  0  0  0
    7.4100    2.5447  -17.2076 H   0  0  0  0  0  0  0  0  0  0  0  0
    6.7384    2.0205  -15.5993 H   0  0  0  0  0  0  0  0  0  0  0  0
    6.5558    1.1410  -17.2050 H   0  0  0  0  0  0  0  0  0  0  0  0
    7.1740   -0.1430  -18.6790 H   0  0  0  0  0  0  0  0  0  0  0  0
    5.2371   -1.6435  -19.3440 H   0  0  0  0  0  0  0  0  0  0  0  0
    3.4910   -1.6300  -17.3420 H   0  0  0  0  0  0  0  0  0  0  0  0
    3.3890    0.0410  -15.1700 H   0  0  0  0  0  0  0  0  0  0  0  0
    4.6738    1.4559  -13.7958 H   0  0  0  0  0  0  0  0  0  0  0  0
    5.0979   -0.2355  -13.3767 H   0  0  0  0  0  0  0  0  0  0  0  0
    6.9570   -0.1500  -14.6610 H   0  0  0  0  0  0  0  0  0  0  0  0
    7.4105    0.3944  -12.6722 H   0  0  0  0  0  0  0  0  0  0  0  0
    8.5248    1.0719  -13.9070 H   0  0  0  0  0  0  0  0  0  0  0  0
    6.7238    3.1121  -13.7494 H   0  0  0  0  0  0  0  0  0  0  0  0
    6.5656    2.5064  -12.1055 H   0  0  0  0  0  0  0  0  0  0  0  0
    8.9470    3.4810  -13.5410 H   0  0  0  0  0  0  0  0  0  0  0  0
    9.1280    2.2610  -12.3270 H   0  0  0  0  0  0  0  0  0  0  0  0
    7.9216    3.7493  -10.8687 H   0  0  0  0  0  0  0  0  0  0  0  0
    9.6969    4.0606  -11.3470 H   0  0  0  0  0  0  0  0  0  0  0  0
    7.9770    5.2910   -9.6050 H   0  0  0  0  0  0  0  0  0  0  0  0
    8.8550    5.4215   -7.4764 H   0  0  0  0  0  0  0  0  0  0  0  0
   11.1270    9.8042   -4.6446 H   0  0  0  0  0  0  0  0  0  0  0  0
   12.0866    8.7064   -4.0402 H   0  0  0  0  0  0  0  0  0  0  0  0
   13.6514   10.0844   -6.1523 H   0  0  0  0  0  0  0  0  0  0  0  0
   11.9258    9.9110   -8.1351 H   0  0  0  0  0  0  0  0  0  0  0  0
   12.4110    9.3859   -9.3952 H   0  0  0  0  0  0  0  0  0  0  0  0
   11.7490    8.2250  -10.9130 H   0  0  0  0  0  0  0  0  0  0  0  0
    7.8955    6.2619  -14.3462 H   0  0  0  0  0  0  0  0  0  0  0  0
    5.2095    5.9639  -13.6042 H   0  0  0  0  0  0  0  0  0  0  0  0
    6.0555    6.8748  -14.9008 H   0  0  0  0  0  0  0  0  0  0  0  0
    6.0823    5.0787  -14.9008 H   0  0  0  0  0  0  0  0  0  0  0  0
  1  2  1  0
  2  3  1  0
  3  4  1  0
  4  5  2  0
  5  6  1  0
  6  7  2  0
  7  8  1  0
  8  9  1  0
  9 10  1  0
 10 11  1  0
 11 12  1  0
 12 13  1  0
 13 14  1  0
 15 14  1  6
 15 16  1  0
 16 17  1  0
 17 18  2  0
 18 19  1  0
 19 20  2  0
 20 21  1  0
 20 22  1  0
 22 23  1  6
 23 24  1  0
 24 25  1  0
 25 26  1  0
 26 27  2  0
 27 28  1  0
 28 29  1  0
 29 30  2  0
 15 31  1  0
 31 32  1  0
 32 33  1  0
 10  2  1  0
 32 15  1  0
  7  3  1  0
 29 16  1  0
 27 19  1  0
 24 22  1  0
 25 22  1  0
  1 34  1  0
  1 35  1  0
  1 36  1  0
  2 37  1  6
  3 38  1  6
  4 39  1  0
  5 40  1  0
  6 41  1  0
  8 42  1  0
  9 43  1  0
  9 44  1  0
 10 45  1  6
 11 46  1  0
 11 47  1  0
 12 48  1  0
 12 49  1  0
 13 50  1  0
 13 51  1  0
 14 52  1  0
 14 53  1  0
 17 54  1  0
 18 55  1  0
 23 56  1  0
 23 57  1  0
 24 58  1  1
 25 59  1  6
 26 60  1  0
 28 61  1  0
 32 62  1  1
 33 63  1  0
 33 64  1  0
 33 65  1  0
M  CHG  5   4   1   6   1  10   1  13   1  17   1
M  END

>  <ID>
DiffSBDD_47_num_sample_100

>  <docking_score>
-10.958

$$$$
DiffSBDD_48_num_sample_100
     RDKit          3D

 51 53  0  0  0  0  0  0  0  0999 V2000
   12.4930    9.6670   -6.2960 C   0  0  0  0  0  0  0  0  0  0  0  0
   12.7290    9.1540   -7.6270 O   0  0  0  0  0  0  0  0  0  0  0  0
   11.8600    8.2000   -8.0370 C   0  0  0  0  0  0  0  0  0  0  0  0
   11.3910    7.2300   -7.0970 C   0  0  0  0  0  0  0  0  0  0  0  0
   10.4560    6.2540   -7.4700 C   0  0  0  0  0  0  0  0  0  0  0  0
    9.9280    6.3210   -8.7110 C   0  0  0  0  0  0  0  0  0  0  0  0
   10.4160    7.2530   -9.6570 C   0  0  0  0  0  0  0  0  0  0  0  0
   11.3060    8.1590   -9.2840 C   0  0  0  0  0  0  0  0  0  0  0  0
    9.7840    6.9830  -10.9530 C   0  0  0  0  0  0  0  0  0  0  0  0
    8.6360    6.0570  -10.6910 N   0  0  0  0  0  0  0  0  0  0  0  0
    8.0950    5.6900  -11.7560 N   0  0  0  0  0  0  0  0  0  0  0  0
    7.5140    4.4730  -12.1340 C   0  0  1  0  0  0  0  0  0  0  0  0
    6.0460    4.6610  -11.6950 C   0  0  0  0  0  0  0  0  0  0  0  0
    5.3300    3.8650  -12.6810 C   0  0  0  0  0  0  0  0  0  0  0  0
    6.5650    3.2180  -13.6960 N   0  0  1  0  0  0  0  0  0  0  0  0
    7.2080    2.4110  -14.8890 C   0  0  0  0  0  0  0  0  0  0  0  0
    6.4450    0.8570  -14.3980 C   0  0  1  0  0  0  0  0  0  0  0  0
    7.3700    0.3220  -13.2550 C   0  0  0  0  0  0  0  0  0  0  0  0
    5.1610    0.8070  -13.8450 O   0  0  0  0  0  0  0  0  0  0  0  0
    6.6350    0.0370  -15.7870 C   0  0  0  0  0  0  0  0  0  0  0  0
    6.1270   -1.3310  -15.7280 O   0  0  0  0  0  0  0  0  0  0  0  0
    7.6890    4.2570  -13.5830 C   0  0  0  0  0  0  0  0  0  0  0  0
    8.8190    5.6090   -9.3630 C   0  0  0  0  0  0  0  0  0  0  0  0
   12.8322    8.9298   -5.5534 H   0  0  0  0  0  0  0  0  0  0  0  0
   13.0496   10.6061   -6.1610 H   0  0  0  0  0  0  0  0  0  0  0  0
   11.4177    9.8554   -6.1610 H   0  0  0  0  0  0  0  0  0  0  0  0
   11.7699    7.2498   -6.0645 H   0  0  0  0  0  0  0  0  0  0  0  0
   10.1611    5.4567   -6.7718 H   0  0  0  0  0  0  0  0  0  0  0  0
   11.6154    8.9185  -10.0171 H   0  0  0  0  0  0  0  0  0  0  0  0
    9.4201    7.9202  -11.3993 H   0  0  0  0  0  0  0  0  0  0  0  0
   10.5011    6.5332  -11.6554 H   0  0  0  0  0  0  0  0  0  0  0  0
    7.3380    6.3750  -11.8930 H   0  0  0  0  0  0  0  0  0  0  0  0
    7.9579    3.5752  -11.6791 H   0  0  0  0  0  0  0  0  0  0  0  0
    5.8814    4.2785  -10.6769 H   0  0  0  0  0  0  0  0  0  0  0  0
    5.7259    5.7127  -11.6575 H   0  0  0  0  0  0  0  0  0  0  0  0
    4.7657    3.0570  -12.1924 H   0  0  0  0  0  0  0  0  0  0  0  0
    4.5956    4.4596  -13.2441 H   0  0  0  0  0  0  0  0  0  0  0  0
    5.9360    2.4140  -13.5550 H   0  0  0  0  0  0  0  0  0  0  0  0
    6.8803    2.7627  -15.8784 H   0  0  0  0  0  0  0  0  0  0  0  0
    8.3004    2.4421  -15.0145 H   0  0  0  0  0  0  0  0  0  0  0  0
    6.9310    0.5759  -12.2789 H   0  0  0  0  0  0  0  0  0  0  0  0
    7.4650   -0.7705  -13.3413 H   0  0  0  0  0  0  0  0  0  0  0  0
    8.3643    0.7845  -13.3413 H   0  0  0  0  0  0  0  0  0  0  0  0
    4.4890    0.8240  -14.5710 H   0  0  0  0  0  0  0  0  0  0  0  0
    6.0998    0.5734  -16.5844 H   0  0  0  0  0  0  0  0  0  0  0  0
    7.7159   -0.0265  -15.9810 H   0  0  0  0  0  0  0  0  0  0  0  0
    5.1990   -1.3540  -16.0740 H   0  0  0  0  0  0  0  0  0  0  0  0
    8.6779    3.8499  -13.8404 H   0  0  0  0  0  0  0  0  0  0  0  0
    7.6420    5.1367  -14.2418 H   0  0  0  0  0  0  0  0  0  0  0  0
    7.8946    5.7861   -8.7937 H   0  0  0  0  0  0  0  0  0  0  0  0
    9.0595    4.5359   -9.3869 H   0  0  0  0  0  0  0  0  0  0  0  0
  1  2  1  0
  2  3  1  0
  3  4  2  0
  4  5  1  0
  5  6  2  0
  6  7  1  0
  7  8  2  0
  7  9  1  0
  9 10  1  0
 10 11  1  0
 11 12  1  0
 12 13  1  0
 13 14  1  0
 14 15  1  0
 15 16  1  0
 16 17  1  0
 17 18  1  0
 17 19  1  1
 17 20  1  0
 20 21  1  0
 15 22  1  0
 10 23  1  0
  8  3  1  0
 22 12  1  0
 23  6  1  0
  1 24  1  0
  1 25  1  0
  1 26  1  0
  4 27  1  0
  5 28  1  0
  8 29  1  0
  9 30  1  0
  9 31  1  0
 11 32  1  0
 12 33  1  1
 13 34  1  0
 13 35  1  0
 14 36  1  0
 14 37  1  0
 15 38  1  1
 16 39  1  0
 16 40  1  0
 18 41  1  0
 18 42  1  0
 18 43  1  0
 19 44  1  0
 20 45  1  0
 20 46  1  0
 21 47  1  0
 22 48  1  0
 22 49  1  0
 23 50  1  0
 23 51  1  0
M  CHG  1  15   1
M  END

>  <ID>
DiffSBDD_48_num_sample_100

>  <docking_score>
-8.747

$$$$
DiffSBDD_49_num_sample_100
     RDKit          3D

 53 56  0  0  0  0  0  0  0  0999 V2000
    9.0100    4.7870  -15.3640 O   0  0  0  0  0  0  0  0  0  0  0  0
    7.6250    4.9670  -14.8470 C   0  0  0  0  0  0  0  0  0  0  0  0
    7.7190    5.1260  -13.3160 C   0  0  1  0  0  0  0  0  0  0  0  0
    6.4170    5.1210  -12.6330 C   0  0  0  0  0  0  0  0  0  0  0  0
    6.6380    4.8800  -11.0900 C   0  0  0  0  0  0  0  0  0  0  0  0
    7.8710    4.9030  -10.4960 C   0  0  1  0  0  0  0  0  0  0  0  0
    8.3060    4.9790   -9.0840 C   0  0  0  0  0  0  0  0  0  0  0  0
    9.3310    6.2500   -8.9680 C   0  0  0  0  0  0  0  0  0  0  0  0
    9.3350    6.8000  -10.1980 N   0  0  0  0  0  0  0  0  0  0  0  0
    9.7870    8.0910  -10.5660 C   0  0  0  0  0  0  0  0  0  0  0  0
   10.7190    8.4730   -9.4490 C   0  0  0  0  0  0  0  0  0  0  0  0
   11.0850    7.8640   -8.2290 C   0  0  1  0  0  0  0  0  0  0  0  0
   11.1020    8.9980   -6.7340 S   0  0  0  0  0  0  0  0  0  0  0  0
   11.1110    7.4340   -5.7690 C   0  0  2  0  0  0  0  0  0  0  0  0
   11.6820    7.5810   -4.5100 C   0  0  0  0  0  0  0  0  0  0  0  0
   11.6820    6.5260   -3.5930 C   0  0  0  0  0  0  0  0  0  0  0  0
   12.2330    6.7010   -2.3490 C   0  0  0  0  0  0  0  0  0  0  0  0
   12.6670    7.9400   -1.8690 C   0  0  0  0  0  0  0  0  0  0  0  0
   12.5480    9.0240   -2.7400 C   0  0  0  0  0  0  0  0  0  0  0  0
   12.0770    8.8320   -4.0390 C   0  0  0  0  0  0  0  0  0  0  0  0
   10.5160    6.5000   -6.3010 N   0  0  0  0  0  0  0  0  0  0  0  0
   10.0860    6.7970   -7.8310 C   0  0  2  0  0  0  0  0  0  0  0  0
    9.0240    4.2440  -11.2530 C   0  0  0  0  0  0  0  0  0  0  0  0
    8.5200    4.0100  -12.6530 C   0  0  0  0  0  0  0  0  0  0  0  0
    9.6600    5.0410  -14.6610 H   0  0  0  0  0  0  0  0  0  0  0  0
    7.1722    5.8659  -15.2909 H   0  0  0  0  0  0  0  0  0  0  0  0
    6.9981    4.1019  -15.1090 H   0  0  0  0  0  0  0  0  0  0  0  0
    8.2106    6.1039  -13.2068 H   0  0  0  0  0  0  0  0  0  0  0  0
    5.9183    6.0895  -12.7858 H   0  0  0  0  0  0  0  0  0  0  0  0
    5.7882    4.3178  -13.0448 H   0  0  0  0  0  0  0  0  0  0  0  0
    6.0410    5.6477  -10.5760 H   0  0  0  0  0  0  0  0  0  0  0  0
    6.3710    3.8171  -10.9956 H   0  0  0  0  0  0  0  0  0  0  0  0
    7.4881    5.9321  -10.5615 H   0  0  0  0  0  0  0  0  0  0  0  0
    7.4364    5.1337   -8.4284 H   0  0  0  0  0  0  0  0  0  0  0  0
    8.7999    4.0462   -8.7742 H   0  0  0  0  0  0  0  0  0  0  0  0
    8.9670    6.2120  -10.9590 H   0  0  0  0  0  0  0  0  0  0  0  0
   10.3192    8.0610  -11.5282 H   0  0  0  0  0  0  0  0  0  0  0  0
    8.9645    8.8090  -10.6999 H   0  0  0  0  0  0  0  0  0  0  0  0
   11.6834    8.6012   -9.9624 H   0  0  0  0  0  0  0  0  0  0  0  0
   10.0446    9.2159   -8.9981 H   0  0  0  0  0  0  0  0  0  0  0  0
   12.0982    7.4950   -8.4465 H   0  0  0  0  0  0  0  0  0  0  0  0
   10.1251    7.6861   -5.3513 H   0  0  0  0  0  0  0  0  0  0  0  0
   11.2408    5.5568   -3.8685 H   0  0  0  0  0  0  0  0  0  0  0  0
   12.3386    5.8219   -1.6962 H   0  0  0  0  0  0  0  0  0  0  0  0
   13.0812    8.0548   -0.8564 H   0  0  0  0  0  0  0  0  0  0  0  0
   12.8264   10.0328   -2.4012 H   0  0  0  0  0  0  0  0  0  0  0  0
   12.0152    9.6977   -4.7149 H   0  0  0  0  0  0  0  0  0  0  0  0
   11.1300    5.6730   -6.2890 H   0  0  0  0  0  0  0  0  0  0  0  0
    9.0723    6.4313   -7.6103 H   0  0  0  0  0  0  0  0  0  0  0  0
    9.9007    4.9082  -11.2682 H   0  0  0  0  0  0  0  0  0  0  0  0
    9.3359    3.3041  -10.7742 H   0  0  0  0  0  0  0  0  0  0  0  0
    9.3960    3.8127  -13.2884 H   0  0  0  0  0  0  0  0  0  0  0  0
    7.8075    3.1777  -12.5555 H   0  0  0  0  0  0  0  0  0  0  0  0
  1  2  1  0
  2  3  1  0
  3  4  1  0
  4  5  1  0
  5  6  1  0
  6  7  1  0
  7  8  1  0
  8  9  2  0
  9 10  1  0
 10 11  1  0
 11 12  1  0
 12 13  1  0
 13 14  1  0
 14 15  1  0
 15 16  2  0
 16 17  1  0
 17 18  2  0
 18 19  1  0
 19 20  2  0
 14 21  1  0
 21 22  1  0
  6 23  1  0
 23 24  1  0
 24  3  1  0
 22  8  1  0
 22 12  1  0
 20 15  1  0
  1 25  1  0
  2 26  1  0
  2 27  1  0
  3 28  1  6
  4 29  1  0
  4 30  1  0
  5 31  1  0
  5 32  1  0
  6 33  1  6
  7 34  1  0
  7 35  1  0
  9 36  1  0
 10 37  1  0
 10 38  1  0
 11 39  1  0
 11 40  1  0
 12 41  1  6
 14 42  1  6
 16 43  1  0
 17 44  1  0
 18 45  1  0
 19 46  1  0
 20 47  1  0
 21 48  1  0
 22 49  1  1
 23 50  1  0
 23 51  1  0
 24 52  1  0
 24 53  1  0
M  CHG  1   9   1
M  END

>  <ID>
DiffSBDD_49_num_sample_100

>  <docking_score>
-9.952

$$$$
DiffSBDD_4_num_sample_100
     RDKit          3D

 57 60  0  0  0  0  0  0  0  0999 V2000
    8.3750    4.7270  -17.5280 C   0  0  0  0  0  0  0  0  0  0  0  0
    7.1700    5.6910  -17.4260 C   0  0  0  0  0  0  0  0  0  0  0  0
    6.8160    6.5150  -18.5040 C   0  0  0  0  0  0  0  0  0  0  0  0
    7.5930    6.6200  -19.5840 O   0  0  0  0  0  0  0  0  0  0  0  0
    5.6260    7.3300  -18.5510 C   0  0  0  0  0  0  0  0  0  0  0  0
    4.6770    7.1710  -17.5430 C   0  0  0  0  0  0  0  0  0  0  0  0
    5.0720    6.6010  -16.3330 C   0  0  0  0  0  0  0  0  0  0  0  0
    6.3630    5.8640  -16.2740 C   0  0  0  0  0  0  0  0  0  0  0  0
    6.9450    5.8710  -15.0140 C   0  0  1  0  0  0  0  0  0  0  0  0
    8.1580    5.1710  -14.6300 C   0  0  0  0  0  0  0  0  0  0  0  0
    8.4150    4.8450  -13.2490 C   0  0  0  0  0  0  0  0  0  0  0  0
    7.7880    5.8060  -12.4070 C   0  0  1  0  0  0  0  0  0  0  0  0
    9.0510    6.0790  -11.1630 C   0  0  2  0  0  0  0  0  0  0  0  0
    8.2960    5.2930  -10.0260 C   0  0  0  0  0  0  0  0  0  0  0  0
    9.0650    5.5660   -8.6940 C   0  0  0  0  0  0  0  0  0  0  0  0
   10.1580    6.5150   -8.2560 C   0  0  0  0  0  0  0  0  0  0  0  0
   10.4460    6.0890   -7.1130 C   0  0  0  0  0  0  0  0  0  0  0  0
   11.3310    6.7660   -6.4450 C   0  0  0  0  0  0  0  0  0  0  0  0
   11.9920    7.7480   -6.7790 C   0  0  0  0  0  0  0  0  0  0  0  0
   11.9100    8.3110   -7.8790 C   0  0  0  0  0  0  0  0  0  0  0  0
   13.1360    8.1910   -8.4750 F   0  0  0  0  0  0  0  0  0  0  0  0
   12.9730    9.3930   -6.9960 F   0  0  0  0  0  0  0  0  0  0  0  0
   10.8710    7.5690   -8.7360 C   0  0  1  0  0  0  0  0  0  0  0  0
   10.7990    7.6300  -10.2250 C   0  0  0  0  0  0  0  0  0  0  0  0
    9.4700    7.4240  -10.6410 C   0  0  0  0  0  0  0  0  0  0  0  0
    7.2490    7.1610  -12.8530 C   0  0  0  0  0  0  0  0  0  0  0  0
    6.3860    6.9440  -14.0660 C   0  0  0  0  0  0  0  0  0  0  0  0
    8.7141    4.4557  -16.5173 H   0  0  0  0  0  0  0  0  0  0  0  0
    8.0729    3.8185  -18.0696 H   0  0  0  0  0  0  0  0  0  0  0  0
    9.1951    5.2211  -18.0696 H   0  0  0  0  0  0  0  0  0  0  0  0
    7.1860    6.6670  -20.4850 H   0  0  0  0  0  0  0  0  0  0  0  0
    5.4720    8.0578  -19.3614 H   0  0  0  0  0  0  0  0  0  0  0  0
    3.6356    7.4892  -17.6988 H   0  0  0  0  0  0  0  0  0  0  0  0
    4.4399    6.6947  -15.4377 H   0  0  0  0  0  0  0  0  0  0  0  0
    6.6824    4.8112  -14.8803 H   0  0  0  0  0  0  0  0  0  0  0  0
    8.1601    4.2200  -15.1828 H   0  0  0  0  0  0  0  0  0  0  0  0
    8.9462    5.9032  -14.8594 H   0  0  0  0  0  0  0  0  0  0  0  0
    8.0119    3.8458  -13.0276 H   0  0  0  0  0  0  0  0  0  0  0  0
    9.4999    4.8528  -13.0676 H   0  0  0  0  0  0  0  0  0  0  0  0
    6.8125    5.3553  -12.1721 H   0  0  0  0  0  0  0  0  0  0  0  0
   10.0367    5.8131  -11.5725 H   0  0  0  0  0  0  0  0  0  0  0  0
    7.2591    5.6510   -9.9438 H   0  0  0  0  0  0  0  0  0  0  0  0
    8.2647    4.2160  -10.2475 H   0  0  0  0  0  0  0  0  0  0  0  0
    8.2520    5.7931   -7.9887 H   0  0  0  0  0  0  0  0  0  0  0  0
    9.7341    4.6989   -8.7967 H   0  0  0  0  0  0  0  0  0  0  0  0
    9.9733    5.1873   -6.6964 H   0  0  0  0  0  0  0  0  0  0  0  0
   11.5181    6.4053   -5.4228 H   0  0  0  0  0  0  0  0  0  0  0  0
   12.7068    8.1551   -6.0487 H   0  0  0  0  0  0  0  0  0  0  0  0
   10.4738    8.5375   -8.3982 H   0  0  0  0  0  0  0  0  0  0  0  0
   11.1414    8.6174  -10.5682 H   0  0  0  0  0  0  0  0  0  0  0  0
   11.4423    6.8481  -10.6548 H   0  0  0  0  0  0  0  0  0  0  0  0
    8.8276    7.6440   -9.7756 H   0  0  0  0  0  0  0  0  0  0  0  0
    9.3730    8.0798  -11.5188 H   0  0  0  0  0  0  0  0  0  0  0  0
    6.6513    7.6088  -12.0454 H   0  0  0  0  0  0  0  0  0  0  0  0
    8.0794    7.8415  -13.0927 H   0  0  0  0  0  0  0  0  0  0  0  0
    5.3852    6.6314  -13.7333 H   0  0  0  0  0  0  0  0  0  0  0  0
    6.3548    7.8922  -14.6227 H   0  0  0  0  0  0  0  0  0  0  0  0
  1  2  1  0
  2  3  2  0
  3  4  1  0
  3  5  1  0
  5  6  2  0
  6  7  1  0
  7  8  2  0
  8  9  1  0
  9 10  1  0
 10 11  1  0
 11 12  1  0
 12 13  1  0
 13 14  1  0
 14 15  1  0
 15 16  1  0
 16 17  2  0
 17 18  1  0
 18 19  2  0
 19 20  1  0
 20 21  1  0
 20 22  1  0
 20 23  1  0
 23 24  1  0
 24 25  1  0
 12 26  1  0
 26 27  1  0
  8  2  1  0
 27  9  1  0
 25 13  1  0
 23 16  1  0
  1 28  1  0
  1 29  1  0
  1 30  1  0
  4 31  1  0
  5 32  1  0
  6 33  1  0
  7 34  1  0
  9 35  1  1
 10 36  1  0
 10 37  1  0
 11 38  1  0
 11 39  1  0
 12 40  1  1
 13 41  1  6
 14 42  1  0
 14 43  1  0
 15 44  1  0
 15 45  1  0
 17 46  1  0
 18 47  1  0
 19 48  1  0
 23 49  1  1
 24 50  1  0
 24 51  1  0
 25 52  1  0
 25 53  1  0
 26 54  1  0
 26 55  1  0
 27 56  1  0
 27 57  1  0
M  END

>  <ID>
DiffSBDD_4_num_sample_100

>  <docking_score>
-12.028

$$$$
DiffSBDD_50_num_sample_100
     RDKit          3D

 74 77  0  0  0  0  0  0  0  0999 V2000
    6.4070    7.2390  -13.6300 C   0  0  0  0  0  0  0  0  0  0  0  0
    6.6210    6.1340  -14.5590 C   0  0  1  0  0  0  0  0  0  0  0  0
    6.4510    6.5860  -15.9770 O   0  0  0  0  0  0  0  0  0  0  0  0
    5.8020    6.1140  -17.1050 C   0  0  1  0  0  0  0  0  0  0  0  0
    4.5230    6.9550  -16.8580 C   0  0  0  0  0  0  0  0  0  0  0  0
    3.9420    7.1110  -17.8760 C   0  0  0  0  0  0  0  0  0  0  0  0
    4.6770    6.4990  -18.9180 C   0  0  0  0  0  0  0  0  0  0  0  0
    5.7750    6.0140  -18.4280 C   0  0  0  0  0  0  0  0  0  0  0  0
    6.9240    5.4240  -19.1520 C   0  0  1  0  0  0  0  0  0  0  0  0
    7.9080    6.3340  -19.5600 C   0  0  0  0  0  0  0  0  0  0  0  0
    7.5530    7.2480  -20.3370 F   0  0  0  0  0  0  0  0  0  0  0  0
    9.0040    6.4500  -19.0980 F   0  0  0  0  0  0  0  0  0  0  0  0
    7.0650    4.0430  -19.5700 N   0  0  0  0  0  0  0  0  0  0  0  0
    6.4700    3.7970  -20.6670 O   0  0  0  0  0  0  0  0  0  0  0  0
    7.9090    3.4210  -19.0310 O   0  0  0  0  0  0  0  0  0  0  0  0
    7.6890    5.1280  -14.2860 C   0  0  1  0  0  0  0  0  0  0  0  0
    7.6700    4.7020  -13.1230 C   0  0  1  0  0  0  0  0  0  0  0  0
    6.3110    4.1220  -12.5220 C   0  0  0  0  0  0  0  0  0  0  0  0
    6.2750    4.7280  -11.1210 C   0  0  0  0  0  0  0  0  0  0  0  0
    7.5890    4.9050  -10.5210 C   0  0  0  0  0  0  0  0  0  0  0  0
    7.7830    5.4400   -9.3650 N   0  0  0  0  0  0  0  0  0  0  0  0
    8.8440    4.6860  -11.8000 S   0  0  0  0  0  0  0  0  0  0  0  0
    7.5190    3.8450  -15.3850 C   0  0  1  0  0  0  0  0  0  0  0  0
    8.4670    4.1370  -16.2340 O   0  0  0  0  0  0  0  0  0  0  0  0
    7.2440    2.3890  -15.0520 C   0  0  0  0  0  0  0  0  0  0  0  0
    6.4820    1.0220  -15.1670 C   0  0  1  0  0  0  0  0  0  0  0  0
    7.2800    0.1340  -14.3140 C   0  0  0  0  0  0  0  0  0  0  0  0
    6.7840   -0.1730  -13.2250 O   0  0  0  0  0  0  0  0  0  0  0  0
    8.3510   -0.1830  -14.7600 O   0  0  0  0  0  0  0  0  0  0  0  0
    4.9790    0.9090  -15.0080 C   0  0  0  0  0  0  0  0  0  0  0  0
    4.4670   -0.1610  -15.9730 C   0  0  0  0  0  0  0  0  0  0  0  0
    5.7890   -0.6370  -16.5710 C   0  0  1  0  0  0  0  0  0  0  0  0
    6.1700   -1.7430  -15.8080 O   0  0  0  0  0  0  0  0  0  0  0  0
    5.8100   -1.0880  -18.0500 C   0  0  0  0  0  0  0  0  0  0  0  0
    7.2380   -1.5770  -18.4410 C   0  0  0  0  0  0  0  0  0  0  0  0
    8.2950   -0.4440  -18.2520 C   0  0  0  0  0  0  0  0  0  0  0  0
    8.1380    0.3050  -16.8970 C   0  0  0  0  0  0  0  0  0  0  0  0
    6.6610    0.5960  -16.6170 C   0  0  2  0  0  0  0  0  0  0  0  0
    6.0980    1.6240  -17.5000 O   0  0  0  0  0  0  0  0  0  0  0  0
    6.4788    6.8685  -12.5968 H   0  0  0  0  0  0  0  0  0  0  0  0
    7.1722    8.0115  -13.7965 H   0  0  0  0  0  0  0  0  0  0  0  0
    5.4087    7.6699  -13.7965 H   0  0  0  0  0  0  0  0  0  0  0  0
    5.7992    5.4397  -14.3297 H   0  0  0  0  0  0  0  0  0  0  0  0
    6.2664    5.1172  -17.0769 H   0  0  0  0  0  0  0  0  0  0  0  0
    4.2037    7.3479  -15.8814 H   0  0  0  0  0  0  0  0  0  0  0  0
    2.9871    7.6443  -17.9933 H   0  0  0  0  0  0  0  0  0  0  0  0
    4.3675    6.4436  -19.9721 H   0  0  0  0  0  0  0  0  0  0  0  0
    6.3961    5.5670  -20.1064 H   0  0  0  0  0  0  0  0  0  0  0  0
    8.2888    5.3507  -19.8732 H   0  0  0  0  0  0  0  0  0  0  0  0
    8.6616    5.6259  -14.4132 H   0  0  0  0  0  0  0  0  0  0  0  0
    7.4024    5.7053  -12.7599 H   0  0  0  0  0  0  0  0  0  0  0  0
    5.4444    4.4467  -13.1166 H   0  0  0  0  0  0  0  0  0  0  0  0
    6.2688    3.0228  -12.5223 H   0  0  0  0  0  0  0  0  0  0  0  0
    5.7866    5.7118  -11.1816 H   0  0  0  0  0  0  0  0  0  0  0  0
    5.7247    4.0219  -10.4818 H   0  0  0  0  0  0  0  0  0  0  0  0
    8.7400    5.5360   -8.9970 H   0  0  0  0  0  0  0  0  0  0  0  0
    6.4765    3.8118  -15.7345 H   0  0  0  0  0  0  0  0  0  0  0  0
    8.1050    4.1120  -17.1550 H   0  0  0  0  0  0  0  0  0  0  0  0
    8.2496    2.0046  -15.2776 H   0  0  0  0  0  0  0  0  0  0  0  0
    6.4354    2.7362  -14.3920 H   0  0  0  0  0  0  0  0  0  0  0  0
    4.7359    0.6228  -13.9741 H   0  0  0  0  0  0  0  0  0  0  0  0
    4.5032    1.8755  -15.2306 H   0  0  0  0  0  0  0  0  0  0  0  0
    3.9438   -0.9709  -15.4436 H   0  0  0  0  0  0  0  0  0  0  0  0
    3.7286    0.1937  -16.7071 H   0  0  0  0  0  0  0  0  0  0  0  0
    5.4350   -1.9900  -15.1930 H   0  0  0  0  0  0  0  0  0  0  0  0
    5.0929   -1.9103  -18.1898 H   0  0  0  0  0  0  0  0  0  0  0  0
    5.5332   -0.2371  -18.6898 H   0  0  0  0  0  0  0  0  0  0  0  0
    7.5110   -2.4319  -17.8049 H   0  0  0  0  0  0  0  0  0  0  0  0
    7.2274   -1.8697  -19.5013 H   0  0  0  0  0  0  0  0  0  0  0  0
    9.2997   -0.8899  -18.2931 H   0  0  0  0  0  0  0  0  0  0  0  0
    8.1421    0.2902  -19.0567 H   0  0  0  0  0  0  0  0  0  0  0  0
    8.5441   -0.3200  -16.0880 H   0  0  0  0  0  0  0  0  0  0  0  0
    8.6859    1.2574  -16.9497 H   0  0  0  0  0  0  0  0  0  0  0  0
    6.8320    2.0960  -17.9680 H   0  0  0  0  0  0  0  0  0  0  0  0
  1  2  1  0
  2  3  1  0
  3  4  1  0
  4  5  1  0
  5  6  2  0
  6  7  1  0
  7  8  2  0
  8  9  1  0
  9 10  1  0
 10 11  1  0
 10 12  1  0
  9 13  1  0
 13 14  2  0
 13 15  1  0
  2 16  1  0
 16 17  1  0
 17 18  1  0
 18 19  1  0
 19 20  1  0
 20 21  2  3
 20 22  1  0
 16 23  1  0
 23 24  1  0
 23 25  1  0
 26 25  1  6
 26 27  1  0
 27 28  2  0
 27 29  1  0
 26 30  1  0
 30 31  1  0
 31 32  1  0
 32 33  1  1
 32 34  1  0
 34 35  1  0
 35 36  1  0
 36 37  1  0
 37 38  1  0
 38 39  1  6
  8  4  1  0
 22 17  1  0
 38 26  1  0
 38 32  1  0
  1 40  1  0
  1 41  1  0
  1 42  1  0
  2 43  1  1
  4 44  1  1
  5 45  1  0
  6 46  1  0
  7 47  1  0
  9 48  1  1
 10 49  1  0
 16 50  1  6
 17 51  1  6
 18 52  1  0
 18 53  1  0
 19 54  1  0
 19 55  1  0
 21 56  1  0
 23 57  1  6
 24 58  1  0
 25 59  1  0
 25 60  1  0
 30 61  1  0
 30 62  1  0
 31 63  1  0
 31 64  1  0
 33 65  1  0
 34 66  1  0
 34 67  1  0
 35 68  1  0
 35 69  1  0
 36 70  1  0
 36 71  1  0
 37 72  1  0
 37 73  1  0
 39 74  1  0
M  CHG  3  13   1  15  -1  29  -1
M  END

>  <ID>
DiffSBDD_50_num_sample_100

>  <docking_score>
-8.081

$$$$
DiffSBDD_51_num_sample_100
     RDKit          3D

 32 33  0  0  0  0  0  0  0  0999 V2000
   12.8670    8.8300   -8.0070 O   0  0  0  0  0  0  0  0  0  0  0  0
   11.6870    9.1060   -7.2910 C   0  0  0  0  0  0  0  0  0  0  0  0
   12.1740    9.6350   -5.8360 C   0  0  0  0  0  0  0  0  0  0  0  0
   11.8630    8.8470   -4.7020 C   0  0  0  0  0  0  0  0  0  0  0  0
   12.8740    8.9360   -3.5500 C   0  0  0  0  0  0  0  0  0  0  0  0
   12.2670    8.2830   -2.3790 C   0  0  0  0  0  0  0  0  0  0  0  0
   11.9870    6.8280   -2.5830 C   0  0  0  0  0  0  0  0  0  0  0  0
   11.3950    6.6170   -4.1390 C   0  0  0  0  0  0  0  0  0  0  0  0
   11.5600    7.5760   -5.3150 C   0  0  0  0  0  0  0  0  0  0  0  0
   10.8830    8.3610   -8.1900 N   0  0  0  0  0  0  0  0  0  0  0  0
   11.0270    7.7780   -9.1710 C   0  0  0  0  0  0  0  0  0  0  0  0
   11.4590    7.7430  -10.3400 N   0  0  0  0  0  0  0  0  0  0  0  0
   10.2530    7.1400  -10.9770 C   0  0  0  0  0  0  0  0  0  0  0  0
    9.5520    7.0780   -9.6490 C   0  0  0  0  0  0  0  0  0  0  0  0
   13.2688    9.7346   -5.8743 H   0  0  0  0  0  0  0  0  0  0  0  0
   11.6134   10.5689   -5.6825 H   0  0  0  0  0  0  0  0  0  0  0  0
   11.0104    9.1863   -4.0954 H   0  0  0  0  0  0  0  0  0  0  0  0
   13.8055    8.4206   -3.8269 H   0  0  0  0  0  0  0  0  0  0  0  0
   13.1164    9.9855   -3.3267 H   0  0  0  0  0  0  0  0  0  0  0  0
   12.9543    8.3887   -1.5267 H   0  0  0  0  0  0  0  0  0  0  0  0
   11.2999    8.7756   -2.2001 H   0  0  0  0  0  0  0  0  0  0  0  0
   12.9141    6.2497   -2.4564 H   0  0  0  0  0  0  0  0  0  0  0  0
   11.2488    6.4777   -1.8465 H   0  0  0  0  0  0  0  0  0  0  0  0
   11.8297    5.6669   -4.4829 H   0  0  0  0  0  0  0  0  0  0  0  0
   10.3213    6.7547   -3.9435 H   0  0  0  0  0  0  0  0  0  0  0  0
   12.3838    7.2527   -5.9683 H   0  0  0  0  0  0  0  0  0  0  0  0
   10.6624    7.6198   -5.9494 H   0  0  0  0  0  0  0  0  0  0  0  0
    9.9010    8.3330   -7.8790 H   0  0  0  0  0  0  0  0  0  0  0  0
    9.7612    7.7964  -11.7100 H   0  0  0  0  0  0  0  0  0  0  0  0
   10.3523    6.2305  -11.5876 H   0  0  0  0  0  0  0  0  0  0  0  0
    8.6570    7.7084   -9.5415 H   0  0  0  0  0  0  0  0  0  0  0  0
    9.0967    6.1796   -9.2068 H   0  0  0  0  0  0  0  0  0  0  0  0
  1  2  2  0
  2  3  1  0
  3  4  1  0
  4  5  1  0
  5  6  1  0
  6  7  1  0
  7  8  1  0
  8  9  1  0
  2 10  1  0
 10 11  1  0
 11 12  2  0
 12 13  1  0
 13 14  1  0
  9  4  1  0
 14 11  1  0
  3 15  1  0
  3 16  1  0
  4 17  1  0
  5 18  1  0
  5 19  1  0
  6 20  1  0
  6 21  1  0
  7 22  1  0
  7 23  1  0
  8 24  1  0
  8 25  1  0
  9 26  1  0
  9 27  1  0
 10 28  1  0
 13 29  1  0
 13 30  1  0
 14 31  1  0
 14 32  1  0
M  END

>  <ID>
DiffSBDD_51_num_sample_100

>  <docking_score>
-7.84

$$$$
DiffSBDD_52_num_sample_100
     RDKit          3D

 52 54  0  0  0  0  0  0  0  0999 V2000
    8.0800    4.3570  -14.6480 C   0  0  0  0  0  0  0  0  0  0  0  0
    7.5750    4.1240  -13.3370 C   0  0  1  0  0  0  0  0  0  0  0  0
    8.3940    3.7360  -12.0890 C   0  0  0  0  0  0  0  0  0  0  0  0
    8.1820    4.7920  -11.1940 N   0  0  0  0  0  0  0  0  0  0  0  0
    9.1530    5.3910  -10.4080 C   0  0  0  0  0  0  0  0  0  0  0  0
    9.2290    5.0610   -9.2650 O   0  0  0  0  0  0  0  0  0  0  0  0
    9.9930    6.3620  -10.8740 N   0  0  0  0  0  0  0  0  0  0  0  0
   10.4310    6.2310  -12.1010 O   0  0  0  0  0  0  0  0  0  0  0  0
   10.2610    7.6130  -10.2370 C   0  0  0  0  0  0  0  0  0  0  0  0
    9.2040    8.3680  -10.1190 O   0  0  0  0  0  0  0  0  0  0  0  0
   11.5260    8.0920   -9.9170 C   0  0  0  0  0  0  0  0  0  0  0  0
   12.6530    8.3900  -10.5520 N   0  0  0  0  0  0  0  0  0  0  0  0
   13.7540    8.2500   -9.7430 O   0  0  0  0  0  0  0  0  0  0  0  0
   13.2170    7.8180   -8.5390 N   0  0  0  0  0  0  0  0  0  0  0  0
   11.8730    8.1810   -8.3410 C   0  0  0  0  0  0  0  0  0  0  0  0
   11.1640    7.4180   -7.7170 N   0  0  0  0  0  0  0  0  0  0  0  0
   10.7940    7.7980   -6.4260 O   0  0  0  0  0  0  0  0  0  0  0  0
   11.4290    7.8090   -5.2570 C   0  0  0  0  0  0  0  0  0  0  0  0
   11.3730    6.5960   -4.5530 C   0  0  0  0  0  0  0  0  0  0  0  0
   11.8200    6.7160   -3.2460 C   0  0  0  0  0  0  0  0  0  0  0  0
   12.2710    7.8540   -2.6570 C   0  0  0  0  0  0  0  0  0  0  0  0
   12.6030    8.0720   -1.2950 C   0  0  0  0  0  0  0  0  0  0  0  0
   12.2870    9.4530   -1.4720 N   0  0  0  0  0  0  0  0  0  0  0  0
   12.3950    9.0150   -3.4480 C   0  0  0  0  0  0  0  0  0  0  0  0
   11.9690    8.9110   -4.7340 C   0  0  0  0  0  0  0  0  0  0  0  0
    6.7590    5.1280  -11.2690 C   0  0  0  0  0  0  0  0  0  0  0  0
    6.3170    4.8450  -12.7650 C   0  0  0  0  0  0  0  0  0  0  0  0
    6.1620    6.1680  -13.4620 C   0  0  0  0  0  0  0  0  0  0  0  0
    5.0830    3.9740  -12.9170 C   0  0  0  0  0  0  0  0  0  0  0  0
    9.0769    4.8170  -14.5805 H   0  0  0  0  0  0  0  0  0  0  0  0
    8.1528    3.4015  -15.1881 H   0  0  0  0  0  0  0  0  0  0  0  0
    7.4003    5.0325  -15.1881 H   0  0  0  0  0  0  0  0  0  0  0  0
    7.3873    3.2286  -13.9478 H   0  0  0  0  0  0  0  0  0  0  0  0
    8.0326    2.7875  -11.6651 H   0  0  0  0  0  0  0  0  0  0  0  0
    9.4597    3.5849  -12.3159 H   0  0  0  0  0  0  0  0  0  0  0  0
   11.0136    5.6529   -4.9905 H   0  0  0  0  0  0  0  0  0  0  0  0
   11.8084    5.8055   -2.6289 H   0  0  0  0  0  0  0  0  0  0  0  0
   11.9539    7.5458   -0.5796 H   0  0  0  0  0  0  0  0  0  0  0  0
   13.5772    7.7596   -0.8909 H   0  0  0  0  0  0  0  0  0  0  0  0
   11.3310    9.6330   -1.1320 H   0  0  0  0  0  0  0  0  0  0  0  0
   12.9540   10.0290   -0.9390 H   0  0  0  0  0  0  0  0  0  0  0  0
   12.3470    9.6940   -2.4710 H   0  0  0  0  0  0  0  0  0  0  0  0
   12.8124    9.9504   -3.0471 H   0  0  0  0  0  0  0  0  0  0  0  0
   12.0762    9.7912   -5.3850 H   0  0  0  0  0  0  0  0  0  0  0  0
    6.1815    4.4994  -10.5752 H   0  0  0  0  0  0  0  0  0  0  0  0
    6.5790    6.1764  -10.9889 H   0  0  0  0  0  0  0  0  0  0  0  0
    6.0682    6.9682  -12.7131 H   0  0  0  0  0  0  0  0  0  0  0  0
    7.0442    6.3564  -14.0914 H   0  0  0  0  0  0  0  0  0  0  0  0
    5.2601    6.1474  -14.0914 H   0  0  0  0  0  0  0  0  0  0  0  0
    4.7001    3.7037  -11.9218 H   0  0  0  0  0  0  0  0  0  0  0  0
    4.3094    4.5273  -13.4697 H   0  0  0  0  0  0  0  0  0  0  0  0
    5.3453    3.0598  -13.4697 H   0  0  0  0  0  0  0  0  0  0  0  0
  1  2  1  0
  2  3  1  0
  3  4  1  0
  4  5  1  0
  5  6  2  0
  5  7  1  0
  7  8  1  0
  7  9  1  0
  9 10  2  0
  9 11  1  0
 11 12  2  0
 12 13  1  0
 13 14  1  0
 14 15  1  0
 15 16  2  3
 16 17  1  0
 17 18  1  0
 18 19  2  0
 19 20  1  0
 20 21  2  0
 21 22  1  0
 22 23  1  0
 21 24  1  0
 24 25  2  0
  4 26  1  0
 26 27  1  0
 27 28  1  0
 27 29  1  0
 27  2  1  0
 15 11  1  0
 25 18  1  0
  1 30  1  0
  1 31  1  0
  1 32  1  0
  2 33  1  6
  3 34  1  0
  3 35  1  0
 19 36  1  0
 20 37  1  0
 22 38  1  0
 22 39  1  0
 23 40  1  0
 23 41  1  0
 23 42  1  0
 24 43  1  0
 25 44  1  0
 26 45  1  0
 26 46  1  0
 28 47  1  0
 28 48  1  0
 28 49  1  0
 29 50  1  0
 29 51  1  0
 29 52  1  0
M  CHG  3   8  -1  14  -1  23   1
M  END

>  <ID>
DiffSBDD_52_num_sample_100

>  <docking_score>
-9.894

$$$$
DiffSBDD_53_num_sample_100
     RDKit          3D

 57 60  0  0  0  0  0  0  0  0999 V2000
    9.0500    8.3130   -7.4850 C   0  0  0  0  0  0  0  0  0  0  0  0
   10.4000    8.0020   -8.2040 C   0  0  1  0  0  0  0  0  0  0  0  0
   10.1200    6.7170   -8.9330 C   0  0  1  0  0  0  0  0  0  0  0  0
    9.0610    5.7820   -8.1250 C   0  0  0  0  0  0  0  0  0  0  0  0
    8.4820    4.9120   -9.1980 C   0  0  0  0  0  0  0  0  0  0  0  0
    8.8810    5.5390  -10.5090 N   0  0  0  0  0  0  0  0  0  0  0  0
    8.0530    5.3210  -11.5640 C   0  0  0  0  0  0  0  0  0  0  0  0
    6.9870    6.1830  -12.0860 C   0  0  0  0  0  0  0  0  0  0  0  0
    6.0890    5.5030  -13.2080 S   0  0  0  0  0  0  0  0  0  0  0  0
    7.0680    3.9510  -13.2660 C   0  0  2  0  0  0  0  0  0  0  0  0
    7.1630    2.6240  -13.9760 C   0  0  0  0  0  0  0  0  0  0  0  0
    7.4910    2.6910  -15.2840 C   0  0  0  0  0  0  0  0  0  0  0  0
    7.5430    1.5340  -16.0960 C   0  0  0  0  0  0  0  0  0  0  0  0
    7.2250    0.2370  -15.5460 C   0  0  0  0  0  0  0  0  0  0  0  0
    7.1790   -0.7640  -16.4950 N   0  0  0  0  0  0  0  0  0  0  0  0
    6.1160   -1.0130  -17.1520 C   0  0  0  0  0  0  0  0  0  0  0  0
    6.0210   -1.9190  -17.9120 O   0  0  0  0  0  0  0  0  0  0  0  0
    5.0000   -0.2100  -16.8740 C   0  0  0  0  0  0  0  0  0  0  0  0
    4.1870   -0.5390  -15.8750 F   0  0  0  0  0  0  0  0  0  0  0  0
    4.6340    0.5530  -17.8420 F   0  0  0  0  0  0  0  0  0  0  0  0
    6.9520    0.1820  -14.2280 C   0  0  0  0  0  0  0  0  0  0  0  0
    6.9510    1.4130  -13.4110 C   0  0  0  0  0  0  0  0  0  0  0  0
    8.1140    4.1370  -12.3450 C   0  0  0  0  0  0  0  0  0  0  0  0
    9.0050    3.2910  -12.2110 O   0  0  0  0  0  0  0  0  0  0  0  0
    9.4080    6.9100  -10.2260 C   0  0  0  0  0  0  0  0  0  0  0  0
   11.0270    8.7490   -9.3860 C   0  0  0  0  0  0  0  0  0  0  0  0
   12.4040    8.1280   -9.2650 C   0  0  0  0  0  0  0  0  0  0  0  0
   13.3230    8.5070  -10.0310 O   0  0  0  0  0  0  0  0  0  0  0  0
   12.5980    7.4330   -7.9450 C   0  0  0  0  0  0  0  0  0  0  0  0
   11.5630    8.2070   -7.1370 C   0  0  2  0  0  0  0  0  0  0  0  0
   11.3310    7.8140   -5.7850 C   0  0  0  0  0  0  0  0  0  0  0  0
   11.7830    9.4840   -7.1950 F   0  0  0  0  0  0  0  0  0  0  0  0
    9.1984    8.2788   -6.3956 H   0  0  0  0  0  0  0  0  0  0  0  0
    8.7017    9.3149   -7.7763 H   0  0  0  0  0  0  0  0  0  0  0  0
    8.2985    7.5645   -7.7763 H   0  0  0  0  0  0  0  0  0  0  0  0
   11.1229    6.2812   -9.0529 H   0  0  0  0  0  0  0  0  0  0  0  0
    9.5718    5.1780   -7.3606 H   0  0  0  0  0  0  0  0  0  0  0  0
    8.2996    6.3626   -7.5836 H   0  0  0  0  0  0  0  0  0  0  0  0
    8.8889    3.8928   -9.1234 H   0  0  0  0  0  0  0  0  0  0  0  0
    7.3884    4.8367   -9.1062 H   0  0  0  0  0  0  0  0  0  0  0  0
    6.8231    7.2114  -11.7316 H   0  0  0  0  0  0  0  0  0  0  0  0
    7.7356    4.4001  -14.0161 H   0  0  0  0  0  0  0  0  0  0  0  0
    7.7236    3.6696  -15.7292 H   0  0  0  0  0  0  0  0  0  0  0  0
    7.8279    1.6228  -17.1548 H   0  0  0  0  0  0  0  0  0  0  0  0
    8.0250   -1.3230  -16.6770 H   0  0  0  0  0  0  0  0  0  0  0  0
    5.3478    0.5730  -16.1841 H   0  0  0  0  0  0  0  0  0  0  0  0
    6.7282   -0.7864  -13.7567 H   0  0  0  0  0  0  0  0  0  0  0  0
    6.7753    1.3440  -12.3273 H   0  0  0  0  0  0  0  0  0  0  0  0
   10.0987    7.2418  -11.0152 H   0  0  0  0  0  0  0  0  0  0  0  0
    8.6259    7.6825  -10.1865 H   0  0  0  0  0  0  0  0  0  0  0  0
   10.5387    8.5133  -10.3431 H   0  0  0  0  0  0  0  0  0  0  0  0
   10.9721    9.8475   -9.3673 H   0  0  0  0  0  0  0  0  0  0  0  0
   12.3634    6.3598   -8.0018 H   0  0  0  0  0  0  0  0  0  0  0  0
   13.6226    7.4388   -7.5448 H   0  0  0  0  0  0  0  0  0  0  0  0
   11.7709    8.5592   -5.1059 H   0  0  0  0  0  0  0  0  0  0  0  0
   10.2482    7.7465   -5.6034 H   0  0  0  0  0  0  0  0  0  0  0  0
   11.7951    6.8333   -5.6034 H   0  0  0  0  0  0  0  0  0  0  0  0
  2  1  1  1
  2  3  1  0
  3  4  1  0
  4  5  1  0
  5  6  1  0
  6  7  1  0
  7  8  2  0
  8  9  1  0
  9 10  1  0
 10 11  1  0
 11 12  2  0
 12 13  1  0
 13 14  2  0
 14 15  1  0
 15 16  1  0
 16 17  2  0
 16 18  1  0
 18 19  1  0
 18 20  1  0
 14 21  1  0
 21 22  2  0
 10 23  1  0
 23 24  2  0
  6 25  1  0
  2 26  1  0
 26 27  1  0
 27 28  2  0
 27 29  1  0
 29 30  1  0
 30 31  1  0
 30 32  1  1
 30  2  1  0
 25  3  1  0
 23  7  1  0
 22 11  1  0
  1 33  1  0
  1 34  1  0
  1 35  1  0
  3 36  1  6
  4 37  1  0
  4 38  1  0
  5 39  1  0
  5 40  1  0
  8 41  1  0
 10 42  1  1
 12 43  1  0
 13 44  1  0
 15 45  1  0
 18 46  1  0
 21 47  1  0
 22 48  1  0
 25 49  1  0
 25 50  1  0
 26 51  1  0
 26 52  1  0
 29 53  1  0
 29 54  1  0
 31 55  1  0
 31 56  1  0
 31 57  1  0
M  END

>  <ID>
DiffSBDD_53_num_sample_100

>  <docking_score>
-10.672

$$$$
DiffSBDD_54_num_sample_100
     RDKit          3D

 47 47  0  0  0  0  0  0  0  0999 V2000
   12.7260    8.3400   -1.5060 C   0  0  0  0  0  0  0  0  0  0  0  0
   12.7220    6.8580   -2.0780 C   0  0  0  0  0  0  0  0  0  0  0  0
   11.5270    6.8580   -2.7210 C   0  0  0  0  0  0  0  0  0  0  0  0
   11.1790    6.5950   -4.0150 C   0  0  0  0  0  0  0  0  0  0  0  0
   11.7200    7.6510   -4.9690 C   0  0  0  0  0  0  0  0  0  0  0  0
   10.9450    7.6360   -6.2100 N   0  0  0  0  0  0  0  0  0  0  0  0
   10.0780    8.6330   -6.5650 C   0  0  0  0  0  0  0  0  0  0  0  0
   10.8800    9.7360   -6.0490 C   0  0  0  0  0  0  0  0  0  0  0  0
   11.1060    6.6060   -6.9060 C   0  0  0  0  0  0  0  0  0  0  0  0
   11.8580    5.6570   -6.4950 O   0  0  0  0  0  0  0  0  0  0  0  0
   10.4470    6.6770   -7.9810 C   0  0  0  0  0  0  0  0  0  0  0  0
   10.7130    7.4330   -9.1940 C   0  0  0  0  0  0  0  0  0  0  0  0
   11.8150    8.1030   -9.5860 C   0  0  0  0  0  0  0  0  0  0  0  0
    9.6440    7.3050  -10.1800 C   0  0  0  0  0  0  0  0  0  0  0  0
    9.3040    8.7310  -10.6200 C   0  0  0  0  0  0  0  0  0  0  0  0
   10.0260    6.6380  -11.4960 C   0  0  0  0  0  0  0  0  0  0  0  0
    8.6740    6.4510   -9.6110 O   0  0  0  0  0  0  0  0  0  0  0  0
    9.2040    5.8070   -8.3270 S   0  0  0  0  0  0  0  0  0  0  0  0
    9.6810    4.4330   -8.3970 O   0  0  0  0  0  0  0  0  0  0  0  0
    8.2600    5.8480   -7.2900 O   0  0  0  0  0  0  0  0  0  0  0  0
   12.7259    8.3086   -0.4064 H   0  0  0  0  0  0  0  0  0  0  0  0
   13.6256    8.8664   -1.8577 H   0  0  0  0  0  0  0  0  0  0  0  0
   11.8293    8.8712   -1.8577 H   0  0  0  0  0  0  0  0  0  0  0  0
   13.5587    6.6854   -2.7710 H   0  0  0  0  0  0  0  0  0  0  0  0
   12.8415    6.0685   -1.3214 H   0  0  0  0  0  0  0  0  0  0  0  0
   10.9244    6.1422   -2.1426 H   0  0  0  0  0  0  0  0  0  0  0  0
   11.4260    7.9513   -2.7884 H   0  0  0  0  0  0  0  0  0  0  0  0
   11.5858    5.6139   -4.3013 H   0  0  0  0  0  0  0  0  0  0  0  0
   10.0811    6.6014   -4.0831 H   0  0  0  0  0  0  0  0  0  0  0  0
   11.6407    8.6429   -4.5000 H   0  0  0  0  0  0  0  0  0  0  0  0
   12.7743    7.4331   -5.1946 H   0  0  0  0  0  0  0  0  0  0  0  0
    9.9247    8.6935   -7.6526 H   0  0  0  0  0  0  0  0  0  0  0  0
    9.0457    8.5512   -6.1940 H   0  0  0  0  0  0  0  0  0  0  0  0
   10.8658    9.7165   -4.9493 H   0  0  0  0  0  0  0  0  0  0  0  0
   11.9160    9.6336   -6.4042 H   0  0  0  0  0  0  0  0  0  0  0  0
   10.4632   10.6900   -6.4042 H   0  0  0  0  0  0  0  0  0  0  0  0
   12.3725    8.4419   -8.7004 H   0  0  0  0  0  0  0  0  0  0  0  0
   12.4525    7.4395  -10.1888 H   0  0  0  0  0  0  0  0  0  0  0  0
   11.5193    8.9743  -10.1888 H   0  0  0  0  0  0  0  0  0  0  0  0
    9.1534    9.3626   -9.7321 H   0  0  0  0  0  0  0  0  0  0  0  0
   10.1308    9.1359  -11.2221 H   0  0  0  0  0  0  0  0  0  0  0  0
    8.3835    8.7193  -11.2221 H   0  0  0  0  0  0  0  0  0  0  0  0
   10.5630    5.7004  -11.2896 H   0  0  0  0  0  0  0  0  0  0  0  0
    9.1160    6.4197  -12.0741 H   0  0  0  0  0  0  0  0  0  0  0  0
   10.6748    7.3124  -12.0741 H   0  0  0  0  0  0  0  0  0  0  0  0
    8.9080    3.8180   -8.4630 H   0  0  0  0  0  0  0  0  0  0  0  0
    7.4070    5.4550   -7.6040 H   0  0  0  0  0  0  0  0  0  0  0  0
  1  2  1  0
  2  3  1  0
  3  4  1  0
  4  5  1  0
  5  6  1  0
  6  7  1  0
  7  8  1  0
  6  9  1  0
  9 10  2  0
  9 11  1  0
 11 12  2  0
 12 13  1  0
 12 14  1  0
 14 15  1  0
 14 16  1  0
 14 17  1  0
 17 18  1  0
 18 19  1  0
 18 20  1  0
 18 11  1  0
  1 21  1  0
  1 22  1  0
  1 23  1  0
  2 24  1  0
  2 25  1  0
  3 26  1  0
  3 27  1  0
  4 28  1  0
  4 29  1  0
  5 30  1  0
  5 31  1  0
  7 32  1  0
  7 33  1  0
  8 34  1  0
  8 35  1  0
  8 36  1  0
 13 37  1  0
 13 38  1  0
 13 39  1  0
 15 40  1  0
 15 41  1  0
 15 42  1  0
 16 43  1  0
 16 44  1  0
 16 45  1  0
 19 46  1  0
 20 47  1  0
M  END

>  <ID>
DiffSBDD_54_num_sample_100

>  <docking_score>
-7.087

$$$$
DiffSBDD_55_num_sample_100
     RDKit          3D

 51 54  0  0  0  0  0  0  0  0999 V2000
   10.1920    6.6080  -12.0960 C   0  0  0  0  0  0  0  0  0  0  0  0
    9.4090    5.4780  -11.5280 C   0  0  2  0  0  0  0  0  0  0  0  0
    8.5440    4.8590  -12.5170 C   0  0  0  0  0  0  0  0  0  0  0  0
    8.1210    3.5860  -12.6100 C   0  0  0  0  0  0  0  0  0  0  0  0
    7.5860    2.9620  -13.7350 C   0  0  0  0  0  0  0  0  0  0  0  0
    7.7300    3.5980  -15.3370 S   0  0  0  0  0  0  0  0  0  0  0  0
    7.1300    2.1120  -16.1480 C   0  0  0  0  0  0  0  0  0  0  0  0
    6.7010    1.2900  -15.1240 C   0  0  0  0  0  0  0  0  0  0  0  0
    6.9120    1.8400  -13.7950 C   0  0  0  0  0  0  0  0  0  0  0  0
    6.4200    1.2660  -12.8480 O   0  0  0  0  0  0  0  0  0  0  0  0
    8.9370    6.4760  -10.5990 N   0  0  2  0  0  0  0  0  0  0  0  0
    9.7030    7.4140  -10.2440 C   0  0  0  0  0  0  0  0  0  0  0  0
   10.3670    7.5080   -9.1680 C   0  0  1  0  0  0  0  0  0  0  0  0
   11.4240    8.4960   -9.2470 O   0  0  0  0  0  0  0  0  0  0  0  0
    9.9100    7.1280   -8.3860 C   0  0  2  0  0  0  0  0  0  0  0  0
   10.4310    7.2280   -6.9820 C   0  0  1  0  0  0  0  0  0  0  0  0
   11.1500    7.0080   -5.3120 C   0  0  0  0  0  0  0  0  0  0  0  0
   11.7750    8.4250   -5.3860 C   0  0  0  0  0  0  0  0  0  0  0  0
   10.5800    9.1740   -6.1100 C   0  0  0  0  0  0  0  0  0  0  0  0
    9.8650    7.9840   -6.4750 O   0  0  0  0  0  0  0  0  0  0  0  0
    9.0590    5.6010   -8.1780 C   0  0  2  0  0  0  0  0  0  0  0  0
    9.2070    4.4330   -8.8310 C   0  0  0  0  0  0  0  0  0  0  0  0
    8.3070    5.4290   -9.3830 C   0  0  2  0  0  0  0  0  0  0  0  0
   10.6106    7.2121  -11.2775 H   0  0  0  0  0  0  0  0  0  0  0  0
   11.0105    6.2123  -12.7153 H   0  0  0  0  0  0  0  0  0  0  0  0
    9.5340    7.2353  -12.7153 H   0  0  0  0  0  0  0  0  0  0  0  0
    9.7796    4.5193  -11.1362 H   0  0  0  0  0  0  0  0  0  0  0  0
    8.1808    5.5318  -13.3078 H   0  0  0  0  0  0  0  0  0  0  0  0
    8.2064    2.9720  -11.7013 H   0  0  0  0  0  0  0  0  0  0  0  0
    6.6477    3.5195  -13.5980 H   0  0  0  0  0  0  0  0  0  0  0  0
    6.2971    2.3515  -16.8254 H   0  0  0  0  0  0  0  0  0  0  0  0
    7.9089    1.6343  -16.7605 H   0  0  0  0  0  0  0  0  0  0  0  0
    5.6243    1.1072  -15.2555 H   0  0  0  0  0  0  0  0  0  0  0  0
    7.2983    0.3683  -15.1850 H   0  0  0  0  0  0  0  0  0  0  0  0
    8.2610    7.1370  -11.0070 H   0  0  0  0  0  0  0  0  0  0  0  0
   10.4555    7.4787  -11.0437 H   0  0  0  0  0  0  0  0  0  0  0  0
    8.9444    8.1846  -10.0424 H   0  0  0  0  0  0  0  0  0  0  0  0
   11.1662    6.8279   -8.8384 H   0  0  0  0  0  0  0  0  0  0  0  0
   12.3020    8.0390   -9.2730 H   0  0  0  0  0  0  0  0  0  0  0  0
    9.2946    7.9022   -8.8676 H   0  0  0  0  0  0  0  0  0  0  0  0
    9.4429    6.9386   -6.5947 H   0  0  0  0  0  0  0  0  0  0  0  0
   10.4019    6.8894   -4.5143 H   0  0  0  0  0  0  0  0  0  0  0  0
   11.7813    6.1347   -5.0910 H   0  0  0  0  0  0  0  0  0  0  0  0
   11.9798    8.8399   -4.3880 H   0  0  0  0  0  0  0  0  0  0  0  0
   12.7519    8.4897   -5.8874 H   0  0  0  0  0  0  0  0  0  0  0  0
   10.0088    9.8224   -5.4293 H   0  0  0  0  0  0  0  0  0  0  0  0
   10.8392    9.8743   -6.9177 H   0  0  0  0  0  0  0  0  0  0  0  0
    9.0077    5.6922   -7.0830 H   0  0  0  0  0  0  0  0  0  0  0  0
   10.1547    4.2098   -9.3429 H   0  0  0  0  0  0  0  0  0  0  0  0
    9.1040    3.3749   -8.5485 H   0  0  0  0  0  0  0  0  0  0  0  0
    7.2666    5.4005   -9.7390 H   0  0  0  0  0  0  0  0  0  0  0  0
  1  2  1  0
  2  3  1  0
  3  4  2  3
  4  5  1  0
  5  6  1  0
  6  7  1  0
  7  8  1  0
  8  9  1  0
  9 10  2  0
  2 11  1  0
 11 12  1  0
 12 13  1  0
 13 14  1  0
 13 15  1  0
 15 16  1  0
 16 17  1  0
 17 18  1  0
 18 19  1  0
 19 20  1  0
 15 21  1  0
 21 22  1  0
 22 23  1  0
  9  5  1  0
 23 11  1  0
 20 16  1  0
 23 21  1  0
  1 24  1  0
  1 25  1  0
  1 26  1  0
  2 27  1  1
  3 28  1  0
  4 29  1  0
  5 30  1  0
  7 31  1  0
  7 32  1  0
  8 33  1  0
  8 34  1  0
 11 35  1  6
 12 36  1  0
 12 37  1  0
 13 38  1  6
 14 39  1  0
 15 40  1  1
 16 41  1  6
 17 42  1  0
 17 43  1  0
 18 44  1  0
 18 45  1  0
 19 46  1  0
 19 47  1  0
 21 48  1  1
 22 49  1  0
 22 50  1  0
 23 51  1  1
M  CHG  1  11   1
M  END

>  <ID>
DiffSBDD_55_num_sample_100

>  <docking_score>
-8.577

$$$$
DiffSBDD_56_num_sample_100
     RDKit          3D

 70 76  0  0  0  0  0  0  0  0999 V2000
    7.2290   -0.0120  -14.2950 C   0  0  0  0  0  0  0  0  0  0  0  0
    7.0390    1.5040  -14.3210 C   0  0  0  0  0  0  0  0  0  0  0  0
    7.2130    2.0840  -12.9240 C   0  0  0  0  0  0  0  0  0  0  0  0
    7.9660    3.3740  -12.9600 C   0  0  0  0  0  0  0  0  0  0  0  0
    8.2470    4.3790  -14.1310 C   0  0  0  0  0  0  0  0  0  0  0  0
    7.6990    3.8000  -15.3630 C   0  0  0  0  0  0  0  0  0  0  0  0
    7.2140    2.4180  -15.5970 C   0  0  0  0  0  0  0  0  0  0  0  0
    6.7050    1.8830  -16.6410 O   0  0  0  0  0  0  0  0  0  0  0  0
    6.9870    2.7810  -17.8130 C   0  0  0  0  0  0  0  0  0  0  0  0
    7.2400    4.1610  -17.7610 C   0  0  0  0  0  0  0  0  0  0  0  0
    7.7550    4.6620  -16.5330 C   0  0  0  0  0  0  0  0  0  0  0  0
    8.2940    5.9790  -13.4480 C   0  0  0  0  0  0  0  0  0  0  0  0
    8.2000    5.6210  -11.9790 N   0  0  2  0  0  0  0  0  0  0  0  0
    8.8800    6.2440  -10.8790 C   0  0  1  0  0  0  0  0  0  0  0  0
    8.3620    5.7030   -9.3860 C   0  0  0  0  0  0  0  0  0  0  0  0
    9.2330    6.1610   -8.2280 C   0  0  0  0  0  0  0  0  0  0  0  0
    9.9820    6.8550   -7.7740 C   0  0  0  0  0  0  0  0  0  0  0  0
   10.7670    7.8760   -8.7600 C   0  0  0  0  0  0  0  0  0  0  0  0
   11.6620    9.0990   -8.4080 C   0  0  0  0  0  0  0  0  0  0  0  0
   11.8970    9.5190   -7.1420 C   0  0  0  0  0  0  0  0  0  0  0  0
   11.6090    9.2690   -5.8460 C   0  0  0  0  0  0  0  0  0  0  0  0
   11.9090    8.7890   -4.4210 C   0  0  0  0  0  0  0  0  0  0  0  0
   12.1520    9.7600   -3.5960 C   0  0  0  0  0  0  0  0  0  0  0  0
   10.8740   10.4080   -4.2330 O   0  0  0  0  0  0  0  0  0  0  0  0
   11.7120    7.1390   -3.9790 C   0  0  0  0  0  0  0  0  0  0  0  0
   12.0260    7.4080   -2.7760 C   0  0  0  0  0  0  0  0  0  0  0  0
   12.1030    6.2020   -3.5260 C   0  0  0  0  0  0  0  0  0  0  0  0
   10.5430    6.7320   -5.1930 C   0  0  0  0  0  0  0  0  0  0  0  0
   10.8240    7.0330   -6.5800 C   0  0  1  0  0  0  0  0  0  0  0  0
   12.2810    6.7280   -6.8900 F   0  0  0  0  0  0  0  0  0  0  0  0
   10.7930    7.6660  -10.0780 C   0  0  1  0  0  0  0  0  0  0  0  0
   10.9940    7.0980  -11.7440 C   0  0  0  0  0  0  0  0  0  0  0  0
   10.4170    6.2570  -10.7130 C   0  0  2  0  0  0  0  0  0  0  0  0
    7.5720    4.3660  -11.8340 C   0  0  1  0  0  0  0  0  0  0  0  0
    6.1020    4.6600  -12.1970 C   0  0  0  0  0  0  0  0  0  0  0  0
    7.2724   -0.3583  -13.2518 H   0  0  0  0  0  0  0  0  0  0  0  0
    6.3845   -0.4962  -14.8072 H   0  0  0  0  0  0  0  0  0  0  0  0
    8.1669   -0.2728  -14.8072 H   0  0  0  0  0  0  0  0  0  0  0  0
    6.8328    1.6133  -12.0054 H   0  0  0  0  0  0  0  0  0  0  0  0
    7.8710    2.3456  -18.3018 H   0  0  0  0  0  0  0  0  0  0  0  0
    5.9907    2.7939  -18.2790 H   0  0  0  0  0  0  0  0  0  0  0  0
    7.0505    4.8186  -18.6222 H   0  0  0  0  0  0  0  0  0  0  0  0
    8.1836    5.6731  -16.4703 H   0  0  0  0  0  0  0  0  0  0  0  0
    9.2335    6.4998  -13.6850 H   0  0  0  0  0  0  0  0  0  0  0  0
    7.5198    6.6694  -13.8141 H   0  0  0  0  0  0  0  0  0  0  0  0
    7.8410    6.4990  -11.5790 H   0  0  0  0  0  0  0  0  0  0  0  0
    8.5954    7.2579  -11.1968 H   0  0  0  0  0  0  0  0  0  0  0  0
    7.3402    6.0744   -9.2186 H   0  0  0  0  0  0  0  0  0  0  0  0
    8.4141    4.6045   -9.4092 H   0  0  0  0  0  0  0  0  0  0  0  0
    9.0141    5.4405   -7.4262 H   0  0  0  0  0  0  0  0  0  0  0  0
   12.1305    9.6540   -9.2341 H   0  0  0  0  0  0  0  0  0  0  0  0
   12.5735   10.3853   -7.1850 H   0  0  0  0  0  0  0  0  0  0  0  0
   12.0690    9.5042   -2.5294 H   0  0  0  0  0  0  0  0  0  0  0  0
   13.1234   10.2719   -3.5306 H   0  0  0  0  0  0  0  0  0  0  0  0
   10.1620    9.7250   -4.3110 H   0  0  0  0  0  0  0  0  0  0  0  0
   12.9230    7.9948   -2.5287 H   0  0  0  0  0  0  0  0  0  0  0  0
   11.5665    7.7961   -1.8550 H   0  0  0  0  0  0  0  0  0  0  0  0
   13.0808    5.8039   -3.8350 H   0  0  0  0  0  0  0  0  0  0  0  0
   11.7296    5.1748   -3.4015 H   0  0  0  0  0  0  0  0  0  0  0  0
   10.3784    5.6463   -5.1279 H   0  0  0  0  0  0  0  0  0  0  0  0
    9.6866    7.3803   -4.9556 H   0  0  0  0  0  0  0  0  0  0  0  0
   10.4511    8.0620   -6.4703 H   0  0  0  0  0  0  0  0  0  0  0  0
   10.9334    8.7003   -9.7307 H   0  0  0  0  0  0  0  0  0  0  0  0
   10.3621    7.5025  -12.5484 H   0  0  0  0  0  0  0  0  0  0  0  0
   11.8308    7.0144  -12.4531 H   0  0  0  0  0  0  0  0  0  0  0  0
   10.6710    5.2284  -10.4172 H   0  0  0  0  0  0  0  0  0  0  0  0
    7.8089    3.9548  -10.8416 H   0  0  0  0  0  0  0  0  0  0  0  0
    5.5132    4.7778  -11.2753 H   0  0  0  0  0  0  0  0  0  0  0  0
    6.0484    5.5867  -12.7873 H   0  0  0  0  0  0  0  0  0  0  0  0
    5.6961    3.8253  -12.7873 H   0  0  0  0  0  0  0  0  0  0  0  0
  1  2  1  0
  2  3  2  0
  3  4  1  0
  4  5  2  0
  5  6  1  0
  6  7  2  0
  7  8  1  0
  8  9  1  0
  9 10  1  0
 10 11  2  0
  5 12  1  0
 12 13  1  0
 13 14  1  0
 14 15  1  0
 15 16  1  0
 16 17  2  0
 17 18  1  0
 18 19  2  0
 19 20  1  0
 20 21  2  0
 21 22  2  0
 22 23  1  0
 23 24  1  0
 22 25  1  0
 25 26  1  0
 26 27  1  0
 25 28  1  0
 28 29  1  0
 29 30  1  0
 18 31  1  0
 31 32  1  0
 32 33  1  0
 13 34  1  0
 34 35  1  0
  7  2  1  0
 33 14  1  0
 34  4  1  0
 11  6  1  0
 29 17  1  0
 33 31  1  0
 27 25  1  0
  1 36  1  0
  1 37  1  0
  1 38  1  0
  3 39  1  0
  9 40  1  0
  9 41  1  0
 10 42  1  0
 11 43  1  0
 12 44  1  0
 12 45  1  0
 13 46  1  1
 14 47  1  1
 15 48  1  0
 15 49  1  0
 16 50  1  0
 19 51  1  0
 20 52  1  0
 23 53  1  0
 23 54  1  0
 24 55  1  0
 26 56  1  0
 26 57  1  0
 27 58  1  0
 27 59  1  0
 28 60  1  0
 28 61  1  0
 29 62  1  1
 31 63  1  6
 32 64  1  0
 32 65  1  0
 33 66  1  1
 34 67  1  1
 35 68  1  0
 35 69  1  0
 35 70  1  0
M  CHG  1  13   1
M  END

>  <ID>
DiffSBDD_56_num_sample_100

>  <docking_score>
-14.453

$$$$
DiffSBDD_57_num_sample_100
     RDKit          3D

 56 56  0  0  0  0  0  0  0  0999 V2000
    8.2440    4.7240   -9.6640 C   0  0  0  0  0  0  0  0  0  0  0  0
    8.4240    5.6150  -10.6360 C   0  0  1  0  0  0  0  0  0  0  0  0
    9.4400    6.1600  -11.3100 C   0  0  0  0  0  0  0  0  0  0  0  0
    9.7890    7.4900  -10.9240 C   0  0  0  0  0  0  0  0  0  0  0  0
   10.9350    7.4140  -10.1370 C   0  0  0  0  0  0  0  0  0  0  0  0
   10.7210    7.6320   -8.5860 C   0  0  0  0  0  0  0  0  0  0  0  0
   10.7600    8.5130   -8.0700 C   0  0  0  0  0  0  0  0  0  0  0  0
   10.5540    8.8770   -6.3000 C   0  0  2  0  0  0  0  0  0  0  0  0
   11.4830    9.3930   -4.9000 C   0  0  2  0  0  0  0  0  0  0  0  0
   10.8250   10.4900   -4.3280 N   0  0  0  0  0  0  0  0  0  0  0  0
   12.4920   10.2300   -6.0130 C   0  0  0  0  0  0  0  0  0  0  0  0
   13.4520    9.6410   -6.5220 F   0  0  0  0  0  0  0  0  0  0  0  0
   10.8020    7.2250   -5.9200 C   0  0  0  0  0  0  0  0  0  0  0  0
   11.1350    6.8400   -6.1870 C   0  0  0  0  0  0  0  0  0  0  0  0
   10.7410    6.3220   -7.5620 C   0  0  0  0  0  0  0  0  0  0  0  0
    7.9410    4.3690  -12.0080 C   0  0  1  0  0  0  0  0  0  0  0  0
    9.0800    3.3560  -11.8330 O   0  0  0  0  0  0  0  0  0  0  0  0
    6.9260    4.7510  -12.3070 C   0  0  2  0  0  0  0  0  0  0  0  0
    5.9740    5.5750  -12.6510 O   0  0  0  0  0  0  0  0  0  0  0  0
    6.6010    3.2000  -12.5450 C   0  0  0  0  0  0  0  0  0  0  0  0
    6.8190    1.9100  -13.8000 P   0  0  2  0  0  5  0  0  0  0  0  0
    5.3960    1.0620  -13.9290 C   0  0  0  0  0  0  0  0  0  0  0  0
    7.8880    0.9840  -13.1860 O   0  0  0  0  0  0  0  0  0  0  0  0
    7.2340    2.5890  -14.9730 O   0  0  0  0  0  0  0  0  0  0  0  0
    8.3444    5.2210   -8.6878 H   0  0  0  0  0  0  0  0  0  0  0  0
    7.2390    4.2851   -9.7504 H   0  0  0  0  0  0  0  0  0  0  0  0
    8.9998    3.9294   -9.7504 H   0  0  0  0  0  0  0  0  0  0  0  0
    8.0510    6.5263  -10.1457 H   0  0  0  0  0  0  0  0  0  0  0  0
   10.3242    5.5218  -11.1653 H   0  0  0  0  0  0  0  0  0  0  0  0
    9.1082    6.2259  -12.3567 H   0  0  0  0  0  0  0  0  0  0  0  0
    9.9877    8.0998  -11.8177 H   0  0  0  0  0  0  0  0  0  0  0  0
    8.9662    7.9575  -10.3633 H   0  0  0  0  0  0  0  0  0  0  0  0
   11.3767    6.4168  -10.2797 H   0  0  0  0  0  0  0  0  0  0  0  0
   11.5800    8.2411  -10.4684 H   0  0  0  0  0  0  0  0  0  0  0  0
   10.9619    9.3959   -8.6943 H   0  0  0  0  0  0  0  0  0  0  0  0
    9.8172    9.6927   -6.3423 H   0  0  0  0  0  0  0  0  0  0  0  0
   11.7885    8.6682   -4.1310 H   0  0  0  0  0  0  0  0  0  0  0  0
   11.3130   10.7720   -3.4650 H   0  0  0  0  0  0  0  0  0  0  0  0
   10.8240   11.2760   -4.9940 H   0  0  0  0  0  0  0  0  0  0  0  0
   11.8481   10.5669   -6.8388 H   0  0  0  0  0  0  0  0  0  0  0  0
   12.9627   11.0123   -5.3994 H   0  0  0  0  0  0  0  0  0  0  0  0
   11.1701    7.2341   -4.8834 H   0  0  0  0  0  0  0  0  0  0  0  0
    9.8243    6.8401   -6.2454 H   0  0  0  0  0  0  0  0  0  0  0  0
   12.1294    7.2982   -6.2925 H   0  0  0  0  0  0  0  0  0  0  0  0
   11.0565    5.9486   -5.5473 H   0  0  0  0  0  0  0  0  0  0  0  0
   11.4747    5.5805   -7.9111 H   0  0  0  0  0  0  0  0  0  0  0  0
    9.7563    5.8326   -7.5304 H   0  0  0  0  0  0  0  0  0  0  0  0
    7.7873    3.8195  -12.9484 H   0  0  0  0  0  0  0  0  0  0  0  0
    9.9250    3.7480  -12.1680 H   0  0  0  0  0  0  0  0  0  0  0  0
    7.1837    4.6064  -13.3666 H   0  0  0  0  0  0  0  0  0  0  0  0
    6.2320    6.0500  -13.4800 H   0  0  0  0  0  0  0  0  0  0  0  0
    7.0905    2.7399  -11.6740 H   0  0  0  0  0  0  0  0  0  0  0  0
    5.5747    3.4164  -12.8765 H   0  0  0  0  0  0  0  0  0  0  0  0
    5.0128    0.8336  -12.9235 H   0  0  0  0  0  0  0  0  0  0  0  0
    4.6568    1.6670  -14.4744 H   0  0  0  0  0  0  0  0  0  0  0  0
    5.5763    0.1239  -14.4744 H   0  0  0  0  0  0  0  0  0  0  0  0
  1  2  1  0
  2  3  1  0
  3  4  1  0
  4  5  1  0
  5  6  1  0
  6  7  2  0
  7  8  1  0
  8  9  1  0
  9 10  1  0
  9 11  1  0
 11 12  1  0
  8 13  1  0
 13 14  1  0
 14 15  1  0
  2 16  1  0
 16 17  1  0
 16 18  1  0
 18 19  1  0
 18 20  1  0
 20 21  1  0
 21 22  1  0
 21 23  2  0
 21 24  1  6
 15  6  1  0
  1 25  1  0
  1 26  1  0
  1 27  1  0
  2 28  1  1
  3 29  1  0
  3 30  1  0
  4 31  1  0
  4 32  1  0
  5 33  1  0
  5 34  1  0
  7 35  1  0
  8 36  1  6
  9 37  1  1
 10 38  1  0
 10 39  1  0
 11 40  1  0
 11 41  1  0
 13 42  1  0
 13 43  1  0
 14 44  1  0
 14 45  1  0
 15 46  1  0
 15 47  1  0
 16 48  1  6
 17 49  1  0
 18 50  1  1
 19 51  1  0
 20 52  1  0
 20 53  1  0
 22 54  1  0
 22 55  1  0
 22 56  1  0
M  CHG  1  24  -1
M  END

>  <ID>
DiffSBDD_57_num_sample_100

>  <docking_score>
-8.731

$$$$
DiffSBDD_58_num_sample_100
     RDKit          3D

 48 50  0  0  0  0  0  0  0  0999 V2000
   11.6590    8.1630   -9.1770 C   0  0  0  0  0  0  0  0  0  0  0  0
   10.1650    7.9500   -8.9270 C   0  0  1  0  0  0  0  0  0  0  0  0
    9.6570    6.9090  -10.0550 C   0  0  0  0  0  0  0  0  0  0  0  0
    8.6360    5.4060   -9.7790 S   0  0  0  0  0  0  0  0  0  0  0  0
    7.9410    5.1830  -11.5700 C   0  0  2  0  0  0  0  0  0  0  0  0
    7.8170    6.4930  -12.4040 C   0  0  0  0  0  0  0  0  0  0  0  0
    6.3880    6.4610  -13.0410 C   0  0  1  0  0  0  0  0  0  0  0  0
    6.2570    6.6520  -14.5450 C   0  0  0  0  0  0  0  0  0  0  0  0
    7.2190    5.7700  -15.3230 C   0  0  0  0  0  0  0  0  0  0  0  0
    6.6320    4.5480  -15.1330 O   0  0  0  0  0  0  0  0  0  0  0  0
    6.6940    4.1300  -13.6830 C   0  0  0  0  0  0  0  0  0  0  0  0
    5.9550    5.0380  -12.7690 C   0  0  1  0  0  0  0  0  0  0  0  0
    6.5750    4.6470  -11.4120 C   0  0  0  0  0  0  0  0  0  0  0  0
   10.0280    8.0490   -7.3710 C   0  0  0  0  0  0  0  0  0  0  0  0
    9.0510    8.6300   -6.8310 O   0  0  0  0  0  0  0  0  0  0  0  0
   11.0380    7.3830   -6.8430 O   0  0  0  0  0  0  0  0  0  0  0  0
   11.4400    7.6640   -5.5400 C   0  0  0  0  0  0  0  0  0  0  0  0
   11.3450    6.6620   -4.5910 C   0  0  0  0  0  0  0  0  0  0  0  0
   11.7570    7.0080   -3.2860 C   0  0  0  0  0  0  0  0  0  0  0  0
   12.1390    8.2680   -3.0140 C   0  0  0  0  0  0  0  0  0  0  0  0
   12.5480    8.6190   -1.6890 N   0  0  0  0  0  0  0  0  0  0  0  0
   12.3200    9.2250   -4.0050 C   0  0  0  0  0  0  0  0  0  0  0  0
   11.9080    8.9210   -5.3010 C   0  0  0  0  0  0  0  0  0  0  0  0
   12.1849    8.2380   -8.2138 H   0  0  0  0  0  0  0  0  0  0  0  0
   12.0600    7.3129   -9.7485 H   0  0  0  0  0  0  0  0  0  0  0  0
   11.8065    9.0912   -9.7485 H   0  0  0  0  0  0  0  0  0  0  0  0
    9.3068    8.6088   -9.1256 H   0  0  0  0  0  0  0  0  0  0  0  0
    9.0810    7.5184  -10.7670 H   0  0  0  0  0  0  0  0  0  0  0  0
   10.6160    6.4325  -10.3065 H   0  0  0  0  0  0  0  0  0  0  0  0
    8.6456    4.5360  -12.1131 H   0  0  0  0  0  0  0  0  0  0  0  0
    7.9263    7.3730  -11.7531 H   0  0  0  0  0  0  0  0  0  0  0  0
    8.6010    6.5585  -13.1728 H   0  0  0  0  0  0  0  0  0  0  0  0
    5.8172    7.3004  -12.6172 H   0  0  0  0  0  0  0  0  0  0  0  0
    5.2281    6.4042  -14.8450 H   0  0  0  0  0  0  0  0  0  0  0  0
    6.5002    7.7000  -14.7741 H   0  0  0  0  0  0  0  0  0  0  0  0
    7.2537    6.0446  -16.3876 H   0  0  0  0  0  0  0  0  0  0  0  0
    8.2686    5.8338  -15.0001 H   0  0  0  0  0  0  0  0  0  0  0  0
    6.2641    3.1215  -13.5934 H   0  0  0  0  0  0  0  0  0  0  0  0
    7.7519    4.1627  -13.3834 H   0  0  0  0  0  0  0  0  0  0  0  0
    4.8600    4.9676  -12.8471 H   0  0  0  0  0  0  0  0  0  0  0  0
    6.0472    5.1238  -10.5729 H   0  0  0  0  0  0  0  0  0  0  0  0
    6.5303    3.5721  -11.1826 H   0  0  0  0  0  0  0  0  0  0  0  0
   10.9714    5.6574   -4.8381 H   0  0  0  0  0  0  0  0  0  0  0  0
   11.7655    6.2469   -2.4918 H   0  0  0  0  0  0  0  0  0  0  0  0
   12.0350    9.3420   -1.1660 H   0  0  0  0  0  0  0  0  0  0  0  0
   13.3550    8.1470   -1.2580 H   0  0  0  0  0  0  0  0  0  0  0  0
   12.7770   10.1981   -3.7723 H   0  0  0  0  0  0  0  0  0  0  0  0
   11.9589    9.6708   -6.1042 H   0  0  0  0  0  0  0  0  0  0  0  0
  1  2  1  0
  2  3  1  0
  3  4  1  0
  4  5  1  0
  5  6  1  0
  6  7  1  0
  7  8  1  0
  8  9  1  0
  9 10  1  0
 10 11  1  0
 11 12  1  0
 12 13  1  0
  2 14  1  0
 14 15  2  0
 14 16  1  0
 16 17  1  0
 17 18  2  0
 18 19  1  0
 19 20  2  0
 20 21  1  0
 20 22  1  0
 22 23  2  0
 13  5  1  0
 23 17  1  0
 12  7  1  0
  1 24  1  0
  1 25  1  0
  1 26  1  0
  2 27  1  6
  3 28  1  0
  3 29  1  0
  5 30  1  6
  6 31  1  0
  6 32  1  0
  7 33  1  1
  8 34  1  0
  8 35  1  0
  9 36  1  0
  9 37  1  0
 11 38  1  0
 11 39  1  0
 12 40  1  1
 13 41  1  0
 13 42  1  0
 18 43  1  0
 19 44  1  0
 21 45  1  0
 21 46  1  0
 22 47  1  0
 23 48  1  0
M  END

>  <ID>
DiffSBDD_58_num_sample_100

>  <docking_score>
-8.782

$$$$
DiffSBDD_59_num_sample_100
     RDKit          3D

 73 76  0  0  0  0  0  0  0  0999 V2000
    8.6550    4.4160   -8.6860 C   0  0  0  0  0  0  0  0  0  0  0  0
    9.1520    5.6270   -9.3740 C   0  0  0  0  0  0  0  0  0  0  0  0
   10.1530    6.4920   -8.8690 C   0  0  0  0  0  0  0  0  0  0  0  0
   10.5400    7.6690   -9.3110 C   0  0  0  0  0  0  0  0  0  0  0  0
   10.9470    8.5690   -8.4760 N   0  0  0  0  0  0  0  0  0  0  0  0
   11.2010    8.1850   -7.2720 C   0  0  0  0  0  0  0  0  0  0  0  0
   11.2060    6.8390   -6.6230 C   0  0  0  0  0  0  0  0  0  0  0  0
   11.3940    6.6530   -5.2780 C   0  0  0  0  0  0  0  0  0  0  0  0
   11.8400    7.8650   -4.5370 C   0  0  0  0  0  0  0  0  0  0  0  0
   12.2590    7.8340   -3.2120 C   0  0  1  0  0  0  0  0  0  0  0  0
   12.2810    7.9740   -1.8190 C   0  0  0  0  0  0  0  0  0  0  0  0
   12.2360    6.6920   -2.3490 O   0  0  0  0  0  0  0  0  0  0  0  0
   11.7090    9.0490   -5.2120 C   0  0  0  0  0  0  0  0  0  0  0  0
   11.3870    9.2710   -6.4750 N   0  0  0  0  0  0  0  0  0  0  0  0
   10.1330    7.7260  -10.5140 C   0  0  0  0  0  0  0  0  0  0  0  0
    9.4470    6.7930  -11.2710 C   0  0  0  0  0  0  0  0  0  0  0  0
    8.7840    5.8440  -10.7390 C   0  0  0  0  0  0  0  0  0  0  0  0
    7.7150    4.9550  -11.4850 C   0  0  1  0  0  0  0  0  0  0  0  0
    6.3660    5.6900  -11.6530 C   0  0  0  0  0  0  0  0  0  0  0  0
    8.0530    4.6660  -12.8560 C   0  0  0  0  0  0  0  0  0  0  0  0
    7.9220    3.2380  -13.2930 C   0  0  0  0  0  0  0  0  0  0  0  0
    8.3520    2.4710  -12.4750 O   0  0  0  0  0  0  0  0  0  0  0  0
    7.1410    3.0040  -14.3780 N   0  0  0  0  0  0  0  0  0  0  0  0
    7.1680    1.8430  -15.2260 C   0  0  0  0  0  0  0  0  0  0  0  0
    6.4570    0.5380  -14.9070 C   0  0  2  0  0  0  0  0  0  0  0  0
    5.2420    0.8530  -14.0500 C   0  0  0  0  0  0  0  0  0  0  0  0
    7.4550   -0.1210  -14.1950 O   0  0  0  0  0  0  0  0  0  0  0  0
    5.9240    0.0960  -16.2750 N   0  0  0  0  0  0  0  0  0  0  0  0
    4.6910   -0.7710  -16.3970 C   0  0  0  0  0  0  0  0  0  0  0  0
    4.7240   -1.9540  -17.4540 C   0  0  0  0  0  0  0  0  0  0  0  0
    4.7930   -1.2660  -18.8250 C   0  0  0  0  0  0  0  0  0  0  0  0
    5.1980    0.2340  -19.3720 C   0  0  0  0  0  0  0  0  0  0  0  0
    5.6780    1.3600  -18.4120 C   0  0  2  0  0  0  0  0  0  0  0  0
    6.0060    2.6660  -19.1330 C   0  0  0  0  0  0  0  0  0  0  0  0
    6.6340    0.8210  -17.4250 C   0  0  0  0  0  0  0  0  0  0  0  0
    8.7150    4.5621   -7.5974 H   0  0  0  0  0  0  0  0  0  0  0  0
    7.6093    4.2336   -8.9744 H   0  0  0  0  0  0  0  0  0  0  0  0
    9.2711    3.5515   -8.9744 H   0  0  0  0  0  0  0  0  0  0  0  0
   10.6841    6.1267   -7.9777 H   0  0  0  0  0  0  0  0  0  0  0  0
   11.0630    9.5520   -8.7610 H   0  0  0  0  0  0  0  0  0  0  0  0
   11.0511    5.9530   -7.2563 H   0  0  0  0  0  0  0  0  0  0  0  0
   11.2283    5.6839   -4.7846 H   0  0  0  0  0  0  0  0  0  0  0  0
   12.5974    8.5913   -3.9345 H   0  0  0  0  0  0  0  0  0  0  0  0
   13.1965    8.3260   -1.3210 H   0  0  0  0  0  0  0  0  0  0  0  0
   11.6655    8.5263   -1.0937 H   0  0  0  0  0  0  0  0  0  0  0  0
   11.9005    9.9517   -4.6132 H   0  0  0  0  0  0  0  0  0  0  0  0
   10.3628    8.6666  -11.0360 H   0  0  0  0  0  0  0  0  0  0  0  0
    9.4749    6.8732  -12.3677 H   0  0  0  0  0  0  0  0  0  0  0  0
    7.6730    4.0546  -10.8545 H   0  0  0  0  0  0  0  0  0  0  0  0
    5.9469    5.9183  -10.6619 H   0  0  0  0  0  0  0  0  0  0  0  0
    6.5251    6.6261  -12.2083 H   0  0  0  0  0  0  0  0  0  0  0  0
    5.6657    5.0487  -12.2083 H   0  0  0  0  0  0  0  0  0  0  0  0
    7.3961    5.2726  -13.4967 H   0  0  0  0  0  0  0  0  0  0  0  0
    9.1241    4.8997  -12.9461 H   0  0  0  0  0  0  0  0  0  0  0  0
    6.4560    3.7350  -14.6190 H   0  0  0  0  0  0  0  0  0  0  0  0
    6.7647    2.1726  -16.1949 H   0  0  0  0  0  0  0  0  0  0  0  0
    8.2198    1.5367  -15.1259 H   0  0  0  0  0  0  0  0  0  0  0  0
    5.5150    0.7822  -12.9868 H   0  0  0  0  0  0  0  0  0  0  0  0
    4.8912    1.8718  -14.2715 H   0  0  0  0  0  0  0  0  0  0  0  0
    4.4404    0.1330  -14.2715 H   0  0  0  0  0  0  0  0  0  0  0  0
    7.0420   -0.7190  -13.5240 H   0  0  0  0  0  0  0  0  0  0  0  0
    4.5043   -1.2178  -15.4093 H   0  0  0  0  0  0  0  0  0  0  0  0
    3.9079   -0.0913  -16.7641 H   0  0  0  0  0  0  0  0  0  0  0  0
    5.6086   -2.5884  -17.2957 H   0  0  0  0  0  0  0  0  0  0  0  0
    3.8446   -2.6089  -17.3661 H   0  0  0  0  0  0  0  0  0  0  0  0
    4.4999   -1.9407  -19.6429 H   0  0  0  0  0  0  0  0  0  0  0  0
    5.1269    0.4460  -20.4490 H   0  0  0  0  0  0  0  0  0  0  0  0
    4.8476    1.7108  -17.7816 H   0  0  0  0  0  0  0  0  0  0  0  0
    6.2040    3.4543  -18.3918 H   0  0  0  0  0  0  0  0  0  0  0  0
    6.8962    2.5233  -19.7632 H   0  0  0  0  0  0  0  0  0  0  0  0
    5.1540    2.9609  -19.7632 H   0  0  0  0  0  0  0  0  0  0  0  0
    7.3054    0.1119  -17.9313 H   0  0  0  0  0  0  0  0  0  0  0  0
    7.1957    1.6656  -16.9993 H   0  0  0  0  0  0  0  0  0  0  0  0
  1  2  1  0
  2  3  2  0
  3  4  1  0
  4  5  1  0
  5  6  1  0
  6  7  2  0
  7  8  1  0
  8  9  2  0
  9 10  1  0
 10 11  1  0
 11 12  1  0
  9 13  1  0
 13 14  2  0
  4 15  2  0
 15 16  1  0
 16 17  2  0
 17 18  1  0
 18 19  1  0
 18 20  1  0
 20 21  1  0
 21 22  2  0
 21 23  1  0
 23 24  1  0
 24 25  1  0
 25 26  1  0
 25 27  1  1
 25 28  1  0
 28 29  1  0
 29 30  1  0
 30 31  1  0
 31 32  2  0
 32 33  1  0
 33 34  1  0
 33 35  1  0
 17  2  1  0
 35 28  1  0
 14  6  1  0
 12 10  1  0
  1 36  1  0
  1 37  1  0
  1 38  1  0
  3 39  1  0
  5 40  1  0
  7 41  1  0
  8 42  1  0
 10 43  1  6
 11 44  1  0
 11 45  1  0
 13 46  1  0
 15 47  1  0
 16 48  1  0
 18 49  1  1
 19 50  1  0
 19 51  1  0
 19 52  1  0
 20 53  1  0
 20 54  1  0
 23 55  1  0
 24 56  1  0
 24 57  1  0
 26 58  1  0
 26 59  1  0
 26 60  1  0
 27 61  1  0
 29 62  1  0
 29 63  1  0
 30 64  1  0
 30 65  1  0
 31 66  1  0
 32 67  1  0
 33 68  1  1
 34 69  1  0
 34 70  1  0
 34 71  1  0
 35 72  1  0
 35 73  1  0
M  END

>  <ID>
DiffSBDD_59_num_sample_100

>  <docking_score>
-10.328

$$$$
DiffSBDD_5_num_sample_100
     RDKit          3D

 68 72  0  0  0  0  0  0  0  0999 V2000
   12.7000    8.0120   -9.2200 C   0  0  0  0  0  0  0  0  0  0  0  0
   12.1760    8.0320   -7.7780 C   0  0  1  0  0  0  0  0  0  0  0  0
   11.2830    9.1850   -7.7580 C   0  0  0  0  0  0  0  0  0  0  0  0
    9.9930    9.1810   -7.5000 O   0  0  0  0  0  0  0  0  0  0  0  0
   10.2910    8.1110   -6.4910 C   0  0  2  0  0  0  0  0  0  0  0  0
   10.9880    8.5500   -5.3300 F   0  0  0  0  0  0  0  0  0  0  0  0
   11.1620    7.0920   -7.2140 C   0  0  2  0  0  0  0  0  0  0  0  0
   11.7200    6.1650   -6.2260 C   0  0  0  0  0  0  0  0  0  0  0  0
   10.2440    6.4830   -8.2740 C   0  0  0  0  0  0  0  0  0  0  0  0
   10.2220    6.9990   -9.6010 C   0  0  0  0  0  0  0  0  0  0  0  0
    9.4690    6.4640  -10.5990 C   0  0  0  0  0  0  0  0  0  0  0  0
    8.8180    5.2610  -10.3460 C   0  0  0  0  0  0  0  0  0  0  0  0
    8.4300    4.4610  -11.5070 C   0  0  0  0  0  0  0  0  0  0  0  0
    9.0840    3.5530  -11.9620 O   0  0  0  0  0  0  0  0  0  0  0  0
    7.2740    4.9180  -12.1000 N   0  0  0  0  0  0  0  0  0  0  0  0
    6.7600    4.6860  -13.4140 C   0  0  0  0  0  0  0  0  0  0  0  0
    7.2030    5.6620  -14.5100 C   0  0  2  0  0  0  0  0  0  0  0  0
    6.1210    6.7300  -14.7900 C   0  0  0  0  0  0  0  0  0  0  0  0
    5.2540    6.2870  -15.8570 C   0  0  1  0  0  0  0  0  0  0  0  0
    4.6980    6.9460  -17.0520 C   0  0  0  0  0  0  0  0  0  0  0  0
    3.7390    7.6250  -17.0310 O   0  0  0  0  0  0  0  0  0  0  0  0
    5.0850    6.1170  -18.4440 N   0  0  0  0  0  0  0  0  0  0  0  0
    4.8570    6.7130  -19.5390 C   0  0  0  0  0  0  0  0  0  0  0  0
    4.8550    5.2020  -20.3220 C   0  0  0  0  0  0  0  0  0  0  0  0
    6.0370    5.4550  -21.0460 C   0  0  0  0  0  0  0  0  0  0  0  0
    7.3760    6.3460  -20.5340 C   0  0  0  0  0  0  0  0  0  0  0  0
    7.4380    6.4760  -19.0480 C   0  0  0  0  0  0  0  0  0  0  0  0
    6.7770    6.4920  -17.9030 C   0  0  2  0  0  0  0  0  0  0  0  0
    6.5220    5.3760  -16.8190 C   0  0  1  0  0  0  0  0  0  0  0  0
    7.5590    4.9950  -15.7590 C   0  0  1  0  0  0  0  0  0  0  0  0
    8.9300    5.2110  -16.1510 O   0  0  0  0  0  0  0  0  0  0  0  0
    8.6020    4.8810   -9.0370 C   0  0  0  0  0  0  0  0  0  0  0  0
    9.3400    5.5200   -8.0010 C   0  0  0  0  0  0  0  0  0  0  0  0
   13.7992    7.9700   -9.2102 H   0  0  0  0  0  0  0  0  0  0  0  0
   12.3040    7.1283   -9.7418 H   0  0  0  0  0  0  0  0  0  0  0  0
   12.3725    8.9233   -9.7418 H   0  0  0  0  0  0  0  0  0  0  0  0
   13.1201    7.8849   -7.2329 H   0  0  0  0  0  0  0  0  0  0  0  0
   11.7189    9.8687   -7.0147 H   0  0  0  0  0  0  0  0  0  0  0  0
   11.2478    9.4011   -8.8360 H   0  0  0  0  0  0  0  0  0  0  0  0
    9.3315    7.7192   -6.1224 H   0  0  0  0  0  0  0  0  0  0  0  0
   11.4990    6.5322   -5.2129 H   0  0  0  0  0  0  0  0  0  0  0  0
   11.2705    5.1703   -6.3617 H   0  0  0  0  0  0  0  0  0  0  0  0
   12.8095    6.0966   -6.3617 H   0  0  0  0  0  0  0  0  0  0  0  0
   10.8461    7.8753   -9.8306 H   0  0  0  0  0  0  0  0  0  0  0  0
    9.3777    6.9657  -11.5737 H   0  0  0  0  0  0  0  0  0  0  0  0
    6.6880    5.5200  -11.5040 H   0  0  0  0  0  0  0  0  0  0  0  0
    7.0724    3.6768  -13.7205 H   0  0  0  0  0  0  0  0  0  0  0  0
    5.6722    4.8243  -13.3269 H   0  0  0  0  0  0  0  0  0  0  0  0
    8.1077    6.1509  -14.1194 H   0  0  0  0  0  0  0  0  0  0  0  0
    5.5249    6.8920  -13.8798 H   0  0  0  0  0  0  0  0  0  0  0  0
    6.6095    7.6694  -15.0882 H   0  0  0  0  0  0  0  0  0  0  0  0
    4.3574    6.0348  -15.2718 H   0  0  0  0  0  0  0  0  0  0  0  0
    3.8940    7.2435  -19.5746 H   0  0  0  0  0  0  0  0  0  0  0  0
    5.5069    7.5300  -19.8856 H   0  0  0  0  0  0  0  0  0  0  0  0
    4.9479    4.3551  -19.6262 H   0  0  0  0  0  0  0  0  0  0  0  0
    3.9555    4.9125  -20.8851 H   0  0  0  0  0  0  0  0  0  0  0  0
    6.4367    4.4599  -21.2908 H   0  0  0  0  0  0  0  0  0  0  0  0
    5.6371    6.1551  -21.7943 H   0  0  0  0  0  0  0  0  0  0  0  0
    8.2897    5.8428  -20.8831 H   0  0  0  0  0  0  0  0  0  0  0  0
    7.2871    7.3579  -20.9560 H   0  0  0  0  0  0  0  0  0  0  0  0
    8.1557    5.6719  -18.8284 H   0  0  0  0  0  0  0  0  0  0  0  0
    7.2884    7.5617  -19.1427 H   0  0  0  0  0  0  0  0  0  0  0  0
    7.3217    7.3419  -17.4660 H   0  0  0  0  0  0  0  0  0  0  0  0
    6.3747    4.4224  -17.3471 H   0  0  0  0  0  0  0  0  0  0  0  0
    7.5214    3.9044  -15.6205 H   0  0  0  0  0  0  0  0  0  0  0  0
    9.1780    4.5620  -16.8570 H   0  0  0  0  0  0  0  0  0  0  0  0
    7.8700    4.0956   -8.7976 H   0  0  0  0  0  0  0  0  0  0  0  0
    9.1695    5.2222   -6.9559 H   0  0  0  0  0  0  0  0  0  0  0  0
  1  2  1  0
  2  3  1  0
  3  4  1  0
  4  5  1  0
  5  6  1  0
  5  7  1  0
  7  8  1  1
  7  9  1  0
  9 10  2  0
 10 11  1  0
 11 12  2  0
 12 13  1  0
 13 14  2  0
 13 15  1  0
 15 16  1  0
 16 17  1  0
 17 18  1  0
 18 19  1  0
 19 20  1  0
 20 21  2  0
 20 22  1  0
 22 23  1  0
 23 24  1  0
 24 25  1  0
 25 26  1  0
 26 27  1  0
 27 28  1  0
 28 29  1  0
 29 30  1  0
 30 31  1  0
 12 32  1  0
 32 33  2  0
  7  2  1  0
 33  9  1  0
 30 17  1  0
 29 19  1  0
 28 22  1  0
  1 34  1  0
  1 35  1  0
  1 36  1  0
  2 37  1  1
  3 38  1  0
  3 39  1  0
  5 40  1  1
  8 41  1  0
  8 42  1  0
  8 43  1  0
 10 44  1  0
 11 45  1  0
 15 46  1  0
 16 47  1  0
 16 48  1  0
 17 49  1  1
 18 50  1  0
 18 51  1  0
 19 52  1  1
 23 53  1  0
 23 54  1  0
 24 55  1  0
 24 56  1  0
 25 57  1  0
 25 58  1  0
 26 59  1  0
 26 60  1  0
 27 61  1  0
 27 62  1  0
 28 63  1  1
 29 64  1  6
 30 65  1  1
 31 66  1  0
 32 67  1  0
 33 68  1  0
M  END

>  <ID>
DiffSBDD_5_num_sample_100

>  <docking_score>
-10.674

$$$$
DiffSBDD_60_num_sample_100
     RDKit          3D

 41 43  0  0  0  0  0  0  0  0999 V2000
   12.0210    7.0090  -13.4480 C   0  0  0  0  0  0  0  0  0  0  0  0
   10.8230    7.2290  -12.4080 C   0  0  0  0  0  0  0  0  0  0  0  0
   10.0880    6.0630  -11.6570 C   0  0  1  0  0  0  0  0  0  0  0  0
    9.5730    6.5570  -10.2490 C   0  0  0  0  0  0  0  0  0  0  0  0
    9.0030    5.2920   -9.6130 C   0  0  0  0  0  0  0  0  0  0  0  0
    7.6930    5.0240   -9.7500 C   0  0  0  0  0  0  0  0  0  0  0  0
    6.4840    5.0320  -10.5660 N   0  0  2  0  0  0  0  0  0  0  0  0
    5.6320    3.9970  -11.4380 C   0  0  0  0  0  0  0  0  0  0  0  0
    5.9830    5.2440  -11.9190 C   0  0  2  0  0  0  0  0  0  0  0  0
    6.9190    5.8420  -12.8180 C   0  0  2  0  0  0  0  0  0  0  0  0
    6.4230    6.9090  -13.3860 N   0  0  0  0  0  0  0  0  0  0  0  0
    6.5300    6.8810  -14.6550 C   0  0  0  0  0  0  0  0  0  0  0  0
    7.1690    6.1180  -15.2800 C   0  0  0  0  0  0  0  0  0  0  0  0
    8.1340    5.2200  -14.5160 C   0  0  0  0  0  0  0  0  0  0  0  0
    8.1090    5.4160  -13.3110 C   0  0  2  0  0  0  0  0  0  0  0  0
    9.3680    5.2350  -12.6750 N   0  0  0  0  0  0  0  0  0  0  0  0
   12.9576    6.8370  -12.8974 H   0  0  0  0  0  0  0  0  0  0  0  0
   11.8019    6.1361  -14.0804 H   0  0  0  0  0  0  0  0  0  0  0  0
   12.1263    7.9028  -14.0804 H   0  0  0  0  0  0  0  0  0  0  0  0
   11.2275    7.8824  -11.6210 H   0  0  0  0  0  0  0  0  0  0  0  0
   10.0256    7.5815  -13.0787 H   0  0  0  0  0  0  0  0  0  0  0  0
   10.6511    5.2282  -11.2142 H   0  0  0  0  0  0  0  0  0  0  0  0
   10.4006    6.9607   -9.6473 H   0  0  0  0  0  0  0  0  0  0  0  0
    8.8343    7.3686  -10.3241 H   0  0  0  0  0  0  0  0  0  0  0  0
    9.5521    4.4408  -10.0419 H   0  0  0  0  0  0  0  0  0  0  0  0
    9.1242    5.4636   -8.5333 H   0  0  0  0  0  0  0  0  0  0  0  0
    7.7155    3.9536   -9.4975 H   0  0  0  0  0  0  0  0  0  0  0  0
    7.4696    6.0566   -9.4436 H   0  0  0  0  0  0  0  0  0  0  0  0
    6.5310    5.5310   -9.6660 H   0  0  0  0  0  0  0  0  0  0  0  0
    6.1058    3.0913  -11.8446 H   0  0  0  0  0  0  0  0  0  0  0  0
    4.6942    3.4376  -11.3052 H   0  0  0  0  0  0  0  0  0  0  0  0
    5.2829    5.8357  -12.5271 H   0  0  0  0  0  0  0  0  0  0  0  0
    7.6237    5.4655  -12.0620 H   0  0  0  0  0  0  0  0  0  0  0  0
    5.9940    7.6880  -12.8650 H   0  0  0  0  0  0  0  0  0  0  0  0
    5.9717    7.6427  -15.2190 H   0  0  0  0  0  0  0  0  0  0  0  0
    7.0741    6.0546  -16.3741 H   0  0  0  0  0  0  0  0  0  0  0  0
    7.8641    4.1709  -14.7072 H   0  0  0  0  0  0  0  0  0  0  0  0
    9.1503    5.4504  -14.8682 H   0  0  0  0  0  0  0  0  0  0  0  0
    8.3462    6.4770  -13.4786 H   0  0  0  0  0  0  0  0  0  0  0  0
   10.0340    5.1770  -13.4590 H   0  0  0  0  0  0  0  0  0  0  0  0
    9.0770    4.4810  -12.0370 H   0  0  0  0  0  0  0  0  0  0  0  0
  1  2  1  0
  2  3  1  0
  3  4  1  0
  4  5  1  0
  5  6  1  0
  6  7  1  0
  7  8  1  0
  8  9  1  0
  9 10  1  0
 10 11  1  0
 11 12  1  0
 12 13  2  0
 13 14  1  0
 14 15  1  0
 15 16  1  0
 16  3  1  0
  9  7  1  0
 15 10  1  0
  1 17  1  0
  1 18  1  0
  1 19  1  0
  2 20  1  0
  2 21  1  0
  3 22  1  1
  4 23  1  0
  4 24  1  0
  5 25  1  0
  5 26  1  0
  6 27  1  0
  6 28  1  0
  7 29  1  1
  8 30  1  0
  8 31  1  0
  9 32  1  1
 10 33  1  1
 11 34  1  0
 12 35  1  0
 13 36  1  0
 14 37  1  0
 14 38  1  0
 15 39  1  1
 16 40  1  0
 16 41  1  0
M  CHG  2   7   1  16   1
M  END

>  <ID>
DiffSBDD_60_num_sample_100

>  <docking_score>
-5.863

$$$$
DiffSBDD_61_num_sample_100
     RDKit          3D

 51 53  0  0  0  0  0  0  0  0999 V2000
    6.0430    4.6460  -10.6980 O   0  0  0  0  0  0  0  0  0  0  0  0
    7.2680    4.7870  -10.5490 C   0  0  0  0  0  0  0  0  0  0  0  0
    7.8430    4.7820   -9.4780 O   0  0  0  0  0  0  0  0  0  0  0  0
    8.1300    4.9000  -11.9830 C   0  0  2  0  0  0  0  0  0  0  0  0
    8.5270    3.9490  -13.1240 O   0  0  0  0  0  0  0  0  0  0  0  0
    9.3650    5.6920  -11.5220 C   0  0  0  0  0  0  0  0  0  0  0  0
    8.9380    7.1470  -11.3740 C   0  0  1  0  0  0  0  0  0  0  0  0
    9.6700    8.0890  -10.5490 C   0  0  0  0  0  0  0  0  0  0  0  0
   11.0860    7.6190  -10.0990 C   0  0  0  0  0  0  0  0  0  0  0  0
   11.6910    8.5590   -9.1500 C   0  0  0  0  0  0  0  0  0  0  0  0
   10.9920    8.4330   -7.8110 C   0  0  0  0  0  0  0  0  0  0  0  0
   11.6330    9.4830   -6.9640 C   0  0  0  0  0  0  0  0  0  0  0  0
   11.4320    9.3870   -5.4430 C   0  0  0  0  0  0  0  0  0  0  0  0
   11.7280    7.9600   -5.0620 N   0  0  0  0  0  0  0  0  0  0  0  0
   11.9030    7.8400   -3.6920 C   0  0  0  0  0  0  0  0  0  0  0  0
   12.4360    8.8200   -2.8010 C   0  0  0  0  0  0  0  0  0  0  0  0
   12.6340    8.2250   -1.6730 C   0  0  0  0  0  0  0  0  0  0  0  0
   12.2640    6.8970   -1.8400 O   0  0  0  0  0  0  0  0  0  0  0  0
   11.7870    6.6990   -3.1230 C   0  0  0  0  0  0  0  0  0  0  0  0
   10.9650    6.8770   -5.7170 C   0  0  0  0  0  0  0  0  0  0  0  0
   11.1640    6.9700   -7.2890 C   0  0  0  0  0  0  0  0  0  0  0  0
    7.8510    7.4890  -12.7460 S   0  0  0  0  0  0  0  0  0  0  0  0
    7.1890    5.8980  -12.7750 C   0  0  1  0  0  0  0  0  0  0  0  0
    6.1650    5.7380  -13.9820 C   0  0  0  0  0  0  0  0  0  0  0  0
    6.1280    6.9330  -14.8740 O   0  0  0  0  0  0  0  0  0  0  0  0
    9.4340    4.1820  -13.4480 H   0  0  0  0  0  0  0  0  0  0  0  0
    9.7226    5.3042  -10.5568 H   0  0  0  0  0  0  0  0  0  0  0  0
   10.1836    5.5976  -12.2507 H   0  0  0  0  0  0  0  0  0  0  0  0
    8.4074    7.4911  -10.4740 H   0  0  0  0  0  0  0  0  0  0  0  0
    9.7870    9.0218  -11.1202 H   0  0  0  0  0  0  0  0  0  0  0  0
    9.0815    8.2079   -9.6273 H   0  0  0  0  0  0  0  0  0  0  0  0
   10.9989    6.6333   -9.6186 H   0  0  0  0  0  0  0  0  0  0  0  0
   11.7300    7.5669  -10.9892 H   0  0  0  0  0  0  0  0  0  0  0  0
   12.7593    8.3254   -9.0310 H   0  0  0  0  0  0  0  0  0  0  0  0
   11.5841    9.5865   -9.5279 H   0  0  0  0  0  0  0  0  0  0  0  0
    9.9043    8.5961   -7.8302 H   0  0  0  0  0  0  0  0  0  0  0  0
   12.7154    9.4464   -7.1565 H   0  0  0  0  0  0  0  0  0  0  0  0
   11.1354   10.4201   -7.2543 H   0  0  0  0  0  0  0  0  0  0  0  0
   12.1215   10.0696   -4.9247 H   0  0  0  0  0  0  0  0  0  0  0  0
   10.4081    9.6707   -5.1582 H   0  0  0  0  0  0  0  0  0  0  0  0
   12.6385    9.8764   -3.0311 H   0  0  0  0  0  0  0  0  0  0  0  0
   13.0229    8.6838   -0.7520 H   0  0  0  0  0  0  0  0  0  0  0  0
   11.3950    5.7678   -3.5580 H   0  0  0  0  0  0  0  0  0  0  0  0
   11.3282    5.9028   -5.3579 H   0  0  0  0  0  0  0  0  0  0  0  0
    9.8971    6.9806   -5.4745 H   0  0  0  0  0  0  0  0  0  0  0  0
   12.1755    6.6188   -7.5411 H   0  0  0  0  0  0  0  0  0  0  0  0
   10.3968    6.3440   -7.7681 H   0  0  0  0  0  0  0  0  0  0  0  0
    6.3810    5.4332  -12.1910 H   0  0  0  0  0  0  0  0  0  0  0  0
    6.4607    4.8630  -14.5795 H   0  0  0  0  0  0  0  0  0  0  0  0
    5.1608    5.6178  -13.5493 H   0  0  0  0  0  0  0  0  0  0  0  0
    5.4160    6.8170  -15.5520 H   0  0  0  0  0  0  0  0  0  0  0  0
  1  2  2  0
  2  3  1  0
  2  4  1  0
  4  5  1  6
  4  6  1  0
  6  7  1  0
  7  8  1  0
  8  9  1  0
  9 10  1  0
 10 11  1  0
 11 12  1  0
 12 13  1  0
 13 14  1  0
 14 15  1  0
 15 16  1  0
 16 17  2  0
 17 18  1  0
 18 19  1  0
 14 20  1  0
 20 21  1  0
  7 22  1  0
 22 23  1  0
 23 24  1  0
 24 25  1  0
 23  4  1  0
 21 11  1  0
 19 15  2  0
  5 26  1  0
  6 27  1  0
  6 28  1  0
  7 29  1  1
  8 30  1  0
  8 31  1  0
  9 32  1  0
  9 33  1  0
 10 34  1  0
 10 35  1  0
 11 36  1  0
 12 37  1  0
 12 38  1  0
 13 39  1  0
 13 40  1  0
 16 41  1  0
 17 42  1  0
 19 43  1  0
 20 44  1  0
 20 45  1  0
 21 46  1  0
 21 47  1  0
 23 48  1  1
 24 49  1  0
 24 50  1  0
 25 51  1  0
M  CHG  1   3  -1
M  END

>  <ID>
DiffSBDD_61_num_sample_100

>  <docking_score>
-8.434

$$$$
DiffSBDD_62_num_sample_100
     RDKit          3D

 82 88  0  0  0  0  0  0  0  0999 V2000
   15.3420    8.1710  -18.1030 C   0  0  0  0  0  0  0  0  0  0  0  0
   15.5950    6.9430  -18.3960 C   0  0  0  0  0  0  0  0  0  0  0  0
   16.8400    6.2770  -18.5930 C   0  0  0  0  0  0  0  0  0  0  0  0
   18.2090    6.9300  -18.2180 C   0  0  0  0  0  0  0  0  0  0  0  0
   18.9070    7.6810  -19.3450 C   0  0  1  0  0  0  0  0  0  0  0  0
   18.3300    7.8440  -20.7600 C   0  0  0  0  0  0  0  0  0  0  0  0
   19.0580    9.0930  -21.3410 C   0  0  0  0  0  0  0  0  0  0  0  0
   19.7870    9.7170  -20.1070 C   0  0  1  0  0  0  0  0  0  0  0  0
   20.3810   10.8030  -20.0410 F   0  0  0  0  0  0  0  0  0  0  0  0
   19.3710    8.9970  -18.8740 C   0  0  0  0  0  0  0  0  0  0  0  0
   16.5800    4.9010  -19.1680 C   0  0  0  0  0  0  0  0  0  0  0  0
   16.8930    4.3770  -19.0790 O   0  0  0  0  0  0  0  0  0  0  0  0
   15.1990    4.6770  -19.1290 N   0  0  0  0  0  0  0  0  0  0  0  0
   14.0970    3.7250  -19.5310 C   0  0  2  0  0  0  0  0  0  0  0  0
   12.5500    4.2700  -19.4190 C   0  0  1  0  0  0  0  0  0  0  0  0
   11.9930    4.0060  -18.1520 O   0  0  0  0  0  0  0  0  0  0  0  0
   10.5940    4.4600  -17.8860 C   0  0  2  0  0  0  0  0  0  0  0  0
    9.9010    5.1270  -16.7770 C   0  0  0  0  0  0  0  0  0  0  0  0
    9.2630    4.0170  -16.1080 O   0  0  0  0  0  0  0  0  0  0  0  0
    9.2550    2.9380  -16.9300 O   0  0  0  0  0  0  0  0  0  0  0  0
    9.4220    3.4950  -18.2970 C   0  0  1  0  0  0  0  0  0  0  0  0
    8.0970    4.1100  -18.6050 C   0  0  0  0  0  0  0  0  0  0  0  0
    9.7520    2.8040  -19.6370 C   0  0  0  0  0  0  0  0  0  0  0  0
    9.6060    1.3140  -19.4640 C   0  0  2  0  0  0  0  0  0  0  0  0
    8.9740    0.8330  -20.6560 O   0  0  0  0  0  0  0  0  0  0  0  0
    8.8400    0.7700  -18.3650 C   0  0  2  0  0  0  0  0  0  0  0  0
    9.3080   -0.6080  -17.9480 C   0  0  0  0  0  0  0  0  0  0  0  0
   10.4320   -0.7830  -17.8360 O   0  0  0  0  0  0  0  0  0  0  0  0
    8.2440   -1.3220  -17.4790 O   0  0  0  0  0  0  0  0  0  0  0  0
    6.9940   -0.7500  -17.5420 C   0  0  0  0  0  0  0  0  0  0  0  0
    5.6840   -1.0740  -17.0460 C   0  0  0  0  0  0  0  0  0  0  0  0
    4.6180   -0.5110  -17.6190 N   0  0  0  0  0  0  0  0  0  0  0  0
    4.7710    0.5060  -18.5790 C   0  0  0  0  0  0  0  0  0  0  0  0
    5.9680    0.8540  -19.0540 C   0  0  0  0  0  0  0  0  0  0  0  0
    7.1970    0.5460  -18.2350 C   0  0  0  0  0  0  0  0  0  0  0  0
   11.3800    1.0510  -18.9920 S   0  0  0  0  0  0  0  0  0  0  0  0
   13.0160    1.5840  -19.7210 S   0  0  0  0  0  0  0  0  0  0  0  0
   14.3390    2.3330  -18.8190 C   0  0  2  0  0  0  0  0  0  0  0  0
   14.6410    2.1740  -17.4090 C   0  0  0  0  0  0  0  0  0  0  0  0
   12.2230    5.8180  -19.4870 C   0  0  2  0  0  0  0  0  0  0  0  0
   11.6850    6.9120  -18.3800 C   0  0  0  0  0  0  0  0  0  0  0  0
   11.6050    6.1920  -20.8020 O   0  0  0  0  0  0  0  0  0  0  0  0
   13.6830    6.3600  -19.6760 C   0  0  0  0  0  0  0  0  0  0  0  0
   14.5950    5.9740  -18.6970 N   0  0  0  0  0  0  0  0  0  0  0  0
   14.3004    8.5060  -17.9896 H   0  0  0  0  0  0  0  0  0  0  0  0
   16.1674    8.8851  -17.9661 H   0  0  0  0  0  0  0  0  0  0  0  0
   16.9109    6.7081  -19.6025 H   0  0  0  0  0  0  0  0  0  0  0  0
   18.0324    7.6395  -17.3962 H   0  0  0  0  0  0  0  0  0  0  0  0
   18.8772    6.0985  -17.9494 H   0  0  0  0  0  0  0  0  0  0  0  0
   19.6797    6.9259  -19.5518 H   0  0  0  0  0  0  0  0  0  0  0  0
   18.5407    6.9532  -21.3701 H   0  0  0  0  0  0  0  0  0  0  0  0
   17.2367    7.9647  -20.7529 H   0  0  0  0  0  0  0  0  0  0  0  0
   19.7823    8.7982  -22.1146 H   0  0  0  0  0  0  0  0  0  0  0  0
   18.3660    9.7986  -21.8241 H   0  0  0  0  0  0  0  0  0  0  0  0
   20.8255    9.7451  -20.4685 H   0  0  0  0  0  0  0  0  0  0  0  0
   20.2215    8.8843  -18.1855 H   0  0  0  0  0  0  0  0  0  0  0  0
   18.5900    9.5388  -18.3204 H   0  0  0  0  0  0  0  0  0  0  0  0
   14.1785    3.6111  -20.6221 H   0  0  0  0  0  0  0  0  0  0  0  0
   12.1665    3.7515  -20.3101 H   0  0  0  0  0  0  0  0  0  0  0  0
   11.0873    5.2719  -18.4405 H   0  0  0  0  0  0  0  0  0  0  0  0
   10.6121    5.6389  -16.1119 H   0  0  0  0  0  0  0  0  0  0  0  0
    9.2004    5.9110  -17.1003 H   0  0  0  0  0  0  0  0  0  0  0  0
    7.5775    4.3511  -17.6659 H   0  0  0  0  0  0  0  0  0  0  0  0
    8.2467    5.0307  -19.1880 H   0  0  0  0  0  0  0  0  0  0  0  0
    7.4905    3.4013  -19.1880 H   0  0  0  0  0  0  0  0  0  0  0  0
    9.0583    3.1556  -20.4149 H   0  0  0  0  0  0  0  0  0  0  0  0
   10.7817    3.0461  -19.9387 H   0  0  0  0  0  0  0  0  0  0  0  0
    9.5480    1.0320  -21.4370 H   0  0  0  0  0  0  0  0  0  0  0  0
    9.0456    1.6934  -17.8037 H   0  0  0  0  0  0  0  0  0  0  0  0
    5.5621   -1.7751  -16.2072 H   0  0  0  0  0  0  0  0  0  0  0  0
    3.8772    1.0297  -18.9489 H   0  0  0  0  0  0  0  0  0  0  0  0
    6.0576    1.3577  -20.0278 H   0  0  0  0  0  0  0  0  0  0  0  0
   15.3228    1.8412  -18.8355 H   0  0  0  0  0  0  0  0  0  0  0  0
   13.8254    2.6034  -16.8086 H   0  0  0  0  0  0  0  0  0  0  0  0
   14.7449    1.1043  -17.1746 H   0  0  0  0  0  0  0  0  0  0  0  0
   15.5817    2.6937  -17.1746 H   0  0  0  0  0  0  0  0  0  0  0  0
   11.8729    6.5300  -17.3657 H   0  0  0  0  0  0  0  0  0  0  0  0
   12.2173    7.8648  -18.5174 H   0  0  0  0  0  0  0  0  0  0  0  0
   10.6054    7.0721  -18.5174 H   0  0  0  0  0  0  0  0  0  0  0  0
   11.0700    7.0180  -20.6920 H   0  0  0  0  0  0  0  0  0  0  0  0
   14.0552    6.0011  -20.6469 H   0  0  0  0  0  0  0  0  0  0  0  0
   13.6107    7.4555  -19.6077 H   0  0  0  0  0  0  0  0  0  0  0  0
  1  2  2  0
  2  3  1  0
  3  4  1  0
  4  5  1  0
  5  6  1  0
  6  7  1  0
  7  8  1  0
  8  9  1  0
  8 10  1  0
  3 11  1  0
 11 12  2  0
 11 13  1  0
 13 14  1  0
 14 15  1  0
 15 16  1  0
 16 17  1  0
 17 18  1  0
 18 19  1  0
 19 20  1  0
 20 21  1  0
 21 22  1  6
 21 23  1  0
 23 24  1  0
 24 25  1  6
 24 26  1  0
 26 27  1  0
 27 28  2  0
 27 29  1  0
 29 30  1  0
 30 31  2  0
 31 32  1  0
 32 33  2  0
 33 34  1  0
 34 35  2  0
 24 36  1  0
 36 37  1  0
 37 38  1  0
 38 39  1  0
 15 40  1  0
 40 41  1  0
 40 42  1  6
 40 43  1  0
 43 44  1  0
 44  2  1  0
 10  5  1  0
 44 13  1  0
 38 14  1  0
 21 17  1  0
 35 26  1  0
 35 30  1  0
  1 45  1  0
  1 46  1  0
  3 47  1  0
  4 48  1  0
  4 49  1  0
  5 50  1  6
  6 51  1  0
  6 52  1  0
  7 53  1  0
  7 54  1  0
  8 55  1  6
 10 56  1  0
 10 57  1  0
 14 58  1  6
 15 59  1  6
 17 60  1  6
 18 61  1  0
 18 62  1  0
 22 63  1  0
 22 64  1  0
 22 65  1  0
 23 66  1  0
 23 67  1  0
 25 68  1  0
 26 69  1  1
 31 70  1  0
 33 71  1  0
 34 72  1  0
 38 73  1  6
 39 74  1  0
 39 75  1  0
 39 76  1  0
 41 77  1  0
 41 78  1  0
 41 79  1  0
 42 80  1  0
 43 81  1  0
 43 82  1  0
M  END

>  <ID>
DiffSBDD_62_num_sample_100

>  <docking_score>
-7.41

$$$$
DiffSBDD_63_num_sample_100
     RDKit          3D

 56 56  0  0  0  0  0  0  0  0999 V2000
   11.0380    9.1220   -5.9330 C   0  0  0  0  0  0  0  0  0  0  0  0
   10.7130    7.9380   -6.1040 C   0  0  0  0  0  0  0  0  0  0  0  0
   11.0640    6.6420   -5.2800 C   0  0  0  0  0  0  0  0  0  0  0  0
   11.4390    7.2800   -4.6710 C   0  0  0  0  0  0  0  0  0  0  0  0
    9.8170    7.8740   -7.1400 C   0  0  0  0  0  0  0  0  0  0  0  0
   10.3890    7.2030   -8.2440 C   0  0  0  0  0  0  0  0  0  0  0  0
   10.7500    8.0890   -9.1760 C   0  0  0  0  0  0  0  0  0  0  0  0
   10.8530    7.8590   -9.8000 C   0  0  0  0  0  0  0  0  0  0  0  0
   10.2210    7.4360  -10.9750 N   0  0  0  0  0  0  0  0  0  0  0  0
   10.1300    6.3260  -11.9200 C   0  0  0  0  0  0  0  0  0  0  0  0
    8.9370    6.0760  -12.3660 C   0  0  0  0  0  0  0  0  0  0  0  0
    7.6310    5.9170  -12.2650 C   0  0  0  0  0  0  0  0  0  0  0  0
    6.8860    4.8660  -11.3600 C   0  0  0  0  0  0  0  0  0  0  0  0
    5.5740    4.4150  -11.5760 C   0  0  0  0  0  0  0  0  0  0  0  0
    5.4240    4.5210  -12.9040 C   0  0  0  0  0  0  0  0  0  0  0  0
    5.8220    5.2890  -13.8420 C   0  0  0  0  0  0  0  0  0  0  0  0
    6.4270    6.3840  -13.9500 C   0  0  2  0  0  0  0  0  0  0  0  0
    6.5550    6.9610  -15.2850 O   0  0  0  0  0  0  0  0  0  0  0  0
    5.1000    7.6360  -15.7620 C   0  0  0  0  0  0  0  0  0  0  0  0
    7.2690    7.0660  -13.1590 C   0  0  0  0  0  0  0  0  0  0  0  0
   10.2700    6.1550   -8.1550 C   0  0  0  0  0  0  0  0  0  0  0  0
    8.7780    5.5650   -8.1460 C   0  0  0  0  0  0  0  0  0  0  0  0
    9.1520    4.3610   -8.7270 C   0  0  0  0  0  0  0  0  0  0  0  0
   10.6847    9.8956   -6.6306 H   0  0  0  0  0  0  0  0  0  0  0  0
   11.6797    9.3990   -5.0836 H   0  0  0  0  0  0  0  0  0  0  0  0
   10.2041    6.0698   -4.9017 H   0  0  0  0  0  0  0  0  0  0  0  0
   11.6109    5.7787   -5.6869 H   0  0  0  0  0  0  0  0  0  0  0  0
   11.2485    6.9560   -3.6372 H   0  0  0  0  0  0  0  0  0  0  0  0
   12.5237    7.3530   -4.8384 H   0  0  0  0  0  0  0  0  0  0  0  0
   10.9751    8.2633   -4.8384 H   0  0  0  0  0  0  0  0  0  0  0  0
    8.9196    7.3300   -6.8102 H   0  0  0  0  0  0  0  0  0  0  0  0
    9.5483    8.8966   -7.4436 H   0  0  0  0  0  0  0  0  0  0  0  0
   10.8743    9.1545   -8.9328 H   0  0  0  0  0  0  0  0  0  0  0  0
   11.4905    8.6612  -10.2001 H   0  0  0  0  0  0  0  0  0  0  0  0
   10.8867    6.8242   -9.4285 H   0  0  0  0  0  0  0  0  0  0  0  0
    9.5870    8.1840  -11.2900 H   0  0  0  0  0  0  0  0  0  0  0  0
   11.0096    5.7436  -12.2314 H   0  0  0  0  0  0  0  0  0  0  0  0
    7.5148    3.9636  -11.3770 H   0  0  0  0  0  0  0  0  0  0  0  0
    6.7494    5.4524  -10.4394 H   0  0  0  0  0  0  0  0  0  0  0  0
    5.4576    3.3713  -11.2487 H   0  0  0  0  0  0  0  0  0  0  0  0
    4.8241    4.9889  -11.0118 H   0  0  0  0  0  0  0  0  0  0  0  0
    4.7764    3.7221  -13.2943 H   0  0  0  0  0  0  0  0  0  0  0  0
    5.5636    4.8782  -14.8292 H   0  0  0  0  0  0  0  0  0  0  0  0
    5.6613    6.2806  -13.1670 H   0  0  0  0  0  0  0  0  0  0  0  0
    4.5130    7.9083  -14.8725 H   0  0  0  0  0  0  0  0  0  0  0  0
    5.2932    8.5364  -16.3636 H   0  0  0  0  0  0  0  0  0  0  0  0
    4.5373    6.9070  -16.3636 H   0  0  0  0  0  0  0  0  0  0  0  0
    8.1354    7.4643  -13.7075 H   0  0  0  0  0  0  0  0  0  0  0  0
    6.8719    7.9688  -12.6718 H   0  0  0  0  0  0  0  0  0  0  0  0
   10.7996    5.6925   -9.0009 H   0  0  0  0  0  0  0  0  0  0  0  0
   10.6658    5.9171   -7.1566 H   0  0  0  0  0  0  0  0  0  0  0  0
    8.3636    5.4482   -7.1338 H   0  0  0  0  0  0  0  0  0  0  0  0
    7.9812    6.1518   -8.6265 H   0  0  0  0  0  0  0  0  0  0  0  0
    9.3795    3.6285   -7.9386 H   0  0  0  0  0  0  0  0  0  0  0  0
    8.3287    3.9838   -9.3514 H   0  0  0  0  0  0  0  0  0  0  0  0
   10.0441    4.5167   -9.3514 H   0  0  0  0  0  0  0  0  0  0  0  0
  1  2  2  0
  2  3  1  0
  3  4  1  0
  2  5  1  0
  5  6  1  0
  6  7  2  3
  7  8  1  0
  8  9  1  0
  9 10  1  0
 10 11  2  0
 11 12  2  0
 12 13  1  0
 13 14  1  0
 14 15  1  0
 15 16  2  0
 16 17  1  0
 17 18  1  0
 18 19  1  0
 17 20  1  0
  6 21  1  0
 21 22  1  0
 22 23  1  0
 20 12  1  0
  1 24  1  0
  1 25  1  0
  3 26  1  0
  3 27  1  0
  4 28  1  0
  4 29  1  0
  4 30  1  0
  5 31  1  0
  5 32  1  0
  7 33  1  0
  8 34  1  0
  8 35  1  0
  9 36  1  0
 10 37  1  0
 13 38  1  0
 13 39  1  0
 14 40  1  0
 14 41  1  0
 15 42  1  0
 16 43  1  0
 17 44  1  1
 19 45  1  0
 19 46  1  0
 19 47  1  0
 20 48  1  0
 20 49  1  0
 21 50  1  0
 21 51  1  0
 22 52  1  0
 22 53  1  0
 23 54  1  0
 23 55  1  0
 23 56  1  0
M  END

>  <ID>
DiffSBDD_63_num_sample_100

>  <docking_score>
-8.388

$$$$
DiffSBDD_64_num_sample_100
     RDKit          3D

 76 80  0  0  0  0  0  0  0  0999 V2000
    8.7770    4.9610   -8.8240 C   0  0  0  0  0  0  0  0  0  0  0  0
    9.1640    6.3190   -9.2980 C   0  0  2  0  0  0  0  0  0  0  0  0
    9.3720    7.3680  -10.2370 C   0  0  2  0  0  0  0  0  0  0  0  0
    8.6230    8.0570  -10.9610 O   0  0  0  0  0  0  0  0  0  0  0  0
   10.1010    6.9020  -11.5600 C   0  0  1  0  0  0  0  0  0  0  0  0
   10.0770    6.3010  -12.9210 C   0  0  0  0  0  0  0  0  0  0  0  0
   11.0970    6.2990  -13.6440 O   0  0  0  0  0  0  0  0  0  0  0  0
    8.8350    5.8530  -13.4490 N   0  0  0  0  0  0  0  0  0  0  0  0
    9.2900    5.4240  -14.8120 C   0  0  0  0  0  0  0  0  0  0  0  0
    7.9730    5.0280  -12.5310 C   0  0  2  0  0  0  0  0  0  0  0  0
    7.9190    3.6000  -13.1480 C   0  0  0  0  0  0  0  0  0  0  0  0
    6.7400    3.4950  -13.9870 C   0  0  0  0  0  0  0  0  0  0  0  0
    6.4600    2.9580  -12.7740 O   0  0  0  0  0  0  0  0  0  0  0  0
    6.2120    3.5000  -11.4460 C   0  0  0  0  0  0  0  0  0  0  0  0
    5.6530    4.8960  -11.7670 C   0  0  1  0  0  0  0  0  0  0  0  0
    5.0170    5.5150  -10.6640 O   0  0  0  0  0  0  0  0  0  0  0  0
    6.6080    5.7450  -12.4930 C   0  0  2  0  0  0  0  0  0  0  0  0
    6.1930    6.0270  -13.7750 O   0  0  0  0  0  0  0  0  0  0  0  0
   11.3860    7.6850  -11.3270 C   0  0  0  0  0  0  0  0  0  0  0  0
   11.7910    7.7050   -9.8330 C   0  0  0  0  0  0  0  0  0  0  0  0
   10.9510    7.9550   -8.5810 C   0  0  1  0  0  0  0  0  0  0  0  0
   10.1810    6.7360   -8.1850 C   0  0  1  0  0  0  0  0  0  0  0  0
    9.7670    6.3770   -6.8440 C   0  0  0  0  0  0  0  0  0  0  0  0
   11.1160    6.1640   -6.4360 C   0  0  0  0  0  0  0  0  0  0  0  0
   12.2130    7.0540   -6.6970 N   0  0  0  0  0  0  0  0  0  0  0  0
   11.5760    7.0890   -5.4300 O   0  0  0  0  0  0  0  0  0  0  0  0
   10.9760    8.2740   -4.9980 C   0  0  1  0  0  0  0  0  0  0  0  0
   11.0810    7.9200   -3.4110 C   0  0  0  0  0  0  0  0  0  0  0  0
   12.4100    8.4090   -3.1090 C   0  0  0  0  0  0  0  0  0  0  0  0
   13.2960    7.4520   -3.1020 F   0  0  0  0  0  0  0  0  0  0  0  0
   12.2860    8.9040   -1.9230 F   0  0  0  0  0  0  0  0  0  0  0  0
   12.8350    9.4680   -4.1430 C   0  0  0  0  0  0  0  0  0  0  0  0
   11.7100    9.7080   -5.2900 C   0  0  2  0  0  0  0  0  0  0  0  0
   11.2030   11.0850   -4.9580 O   0  0  0  0  0  0  0  0  0  0  0  0
   12.0130    9.6690   -6.8720 C   0  0  0  0  0  0  0  0  0  0  0  0
   12.0250    8.2910   -7.4910 C   0  0  2  0  0  0  0  0  0  0  0  0
    8.7722    4.9441   -7.7241 H   0  0  0  0  0  0  0  0  0  0  0  0
    7.7728    4.7142   -9.1989 H   0  0  0  0  0  0  0  0  0  0  0  0
    9.5003    4.2219   -9.1989 H   0  0  0  0  0  0  0  0  0  0  0  0
    8.2673    6.1653   -9.9163 H   0  0  0  0  0  0  0  0  0  0  0  0
    9.7050    7.9297   -9.3518 H   0  0  0  0  0  0  0  0  0  0  0  0
    7.8220    7.5280  -11.2060 H   0  0  0  0  0  0  0  0  0  0  0  0
    9.3698    6.0940  -11.7101 H   0  0  0  0  0  0  0  0  0  0  0  0
   10.0871    4.6725  -14.7128 H   0  0  0  0  0  0  0  0  0  0  0  0
    8.4422    4.9889  -15.3615 H   0  0  0  0  0  0  0  0  0  0  0  0
    9.6745    6.2959  -15.3615 H   0  0  0  0  0  0  0  0  0  0  0  0
    8.3382    4.9276  -11.4983 H   0  0  0  0  0  0  0  0  0  0  0  0
    8.8202    3.4252  -13.7540 H   0  0  0  0  0  0  0  0  0  0  0  0
    7.8737    2.8488  -12.3457 H   0  0  0  0  0  0  0  0  0  0  0  0
    6.2246    4.4242  -14.2715 H   0  0  0  0  0  0  0  0  0  0  0  0
    6.6261    3.0636  -14.9925 H   0  0  0  0  0  0  0  0  0  0  0  0
    5.4774    2.8922  -10.8975 H   0  0  0  0  0  0  0  0  0  0  0  0
    7.1033    3.5176  -10.8016 H   0  0  0  0  0  0  0  0  0  0  0  0
    4.8337    4.7405  -12.4843 H   0  0  0  0  0  0  0  0  0  0  0  0
    5.6890    6.0080  -10.1300 H   0  0  0  0  0  0  0  0  0  0  0  0
    6.6840    6.7060  -11.9632 H   0  0  0  0  0  0  0  0  0  0  0  0
    5.5450    6.7750  -13.7560 H   0  0  0  0  0  0  0  0  0  0  0  0
   12.1957    7.2195  -11.9081 H   0  0  0  0  0  0  0  0  0  0  0  0
   11.2132    8.7235  -11.6458 H   0  0  0  0  0  0  0  0  0  0  0  0
   12.2320    6.7116   -9.6635 H   0  0  0  0  0  0  0  0  0  0  0  0
   12.3177    8.6707   -9.8435 H   0  0  0  0  0  0  0  0  0  0  0  0
   10.2034    8.7485   -8.7277 H   0  0  0  0  0  0  0  0  0  0  0  0
   11.0717    6.0994   -8.0778 H   0  0  0  0  0  0  0  0  0  0  0  0
    9.2653    7.1929   -6.3031 H   0  0  0  0  0  0  0  0  0  0  0  0
    9.0267    5.5757   -6.7031 H   0  0  0  0  0  0  0  0  0  0  0  0
   11.0771    6.0622   -5.3414 H   0  0  0  0  0  0  0  0  0  0  0  0
   11.3872    5.3231   -7.0913 H   0  0  0  0  0  0  0  0  0  0  0  0
   10.0138    8.4678   -5.4946 H   0  0  0  0  0  0  0  0  0  0  0  0
   10.3132    8.4486   -2.8270 H   0  0  0  0  0  0  0  0  0  0  0  0
   10.9217    6.8585   -3.1706 H   0  0  0  0  0  0  0  0  0  0  0  0
   13.0135   10.4192   -3.6201 H   0  0  0  0  0  0  0  0  0  0  0  0
   13.7450    9.1015   -4.6405 H   0  0  0  0  0  0  0  0  0  0  0  0
   10.3320   11.2330   -5.4050 H   0  0  0  0  0  0  0  0  0  0  0  0
   11.2405   10.2640   -7.3812 H   0  0  0  0  0  0  0  0  0  0  0  0
   13.0299   10.0690   -6.9979 H   0  0  0  0  0  0  0  0  0  0  0  0
   13.0077    8.5287   -7.9243 H   0  0  0  0  0  0  0  0  0  0  0  0
  1  2  1  0
  2  3  1  0
  3  4  1  0
  3  5  1  0
  5  6  1  0
  6  7  2  0
  6  8  1  0
  8  9  1  0
  8 10  1  0
 10 11  1  0
 11 12  1  0
 12 13  1  0
 13 14  1  0
 14 15  1  0
 15 16  1  0
 15 17  1  0
 17 18  1  0
  5 19  1  0
 19 20  1  0
 20 21  1  0
 21 22  1  0
 22 23  1  0
 23 24  1  0
 24 25  1  0
 25 26  1  0
 26 27  1  0
 27 28  1  0
 28 29  1  0
 29 30  1  0
 29 31  1  0
 29 32  1  0
 32 33  1  0
 33 34  1  1
 33 35  1  0
 35 36  1  0
 22  2  1  0
 36 25  1  0
 17 10  1  0
 36 21  1  0
 33 27  1  0
  1 37  1  0
  1 38  1  0
  1 39  1  0
  2 40  1  1
  3 41  1  1
  4 42  1  0
  5 43  1  1
  9 44  1  0
  9 45  1  0
  9 46  1  0
 10 47  1  1
 11 48  1  0
 11 49  1  0
 12 50  1  0
 12 51  1  0
 14 52  1  0
 14 53  1  0
 15 54  1  6
 16 55  1  0
 17 56  1  1
 18 57  1  0
 19 58  1  0
 19 59  1  0
 20 60  1  0
 20 61  1  0
 21 62  1  6
 22 63  1  6
 23 64  1  0
 23 65  1  0
 24 66  1  0
 24 67  1  0
 27 68  1  6
 28 69  1  0
 28 70  1  0
 32 71  1  0
 32 72  1  0
 34 73  1  0
 35 74  1  0
 35 75  1  0
 36 76  1  6
M  END

>  <ID>
DiffSBDD_64_num_sample_100

>  <docking_score>
-9.419

$$$$
DiffSBDD_65_num_sample_100
     RDKit          3D

 38 38  0  0  0  0  0  0  0  0999 V2000
    7.7420    5.8330  -12.6600 C   0  0  0  0  0  0  0  0  0  0  0  0
    6.4150    5.1740  -12.1240 S   0  0  0  0  0  4  0  0  0  0  0  0
    6.3420    3.5010  -12.4380 C   0  0  0  0  0  0  0  0  0  0  0  0
    6.8540    5.1200  -10.4800 N   0  0  0  0  0  0  0  0  0  0  0  0
    8.3270    5.0780  -10.0670 C   0  0  0  0  0  0  0  0  0  0  0  0
    9.0540    4.9450   -8.8680 C   0  0  0  0  0  0  0  0  0  0  0  0
    9.0770    5.9660   -7.8660 C   0  0  0  0  0  0  0  0  0  0  0  0
   10.4620    6.1450   -7.2570 C   0  0  0  0  0  0  0  0  0  0  0  0
   11.1460    7.2910   -6.9210 C   0  0  0  0  0  0  0  0  0  0  0  0
   11.5950    8.3830   -7.8530 C   0  0  0  0  0  0  0  0  0  0  0  0
   12.2300    9.5860   -7.3320 C   0  0  0  0  0  0  0  0  0  0  0  0
   12.4330    9.8110   -5.8700 C   0  0  0  0  0  0  0  0  0  0  0  0
   12.0550    8.8300   -4.8640 C   0  0  0  0  0  0  0  0  0  0  0  0
   12.1440    9.0180   -3.2430 S   0  0  0  0  0  0  0  0  0  0  0  0
   12.2870    7.6160   -2.7730 C   0  0  0  0  0  0  0  0  0  0  0  0
   12.4860    6.6630   -2.1350 N   0  0  0  0  0  0  0  0  0  0  0  0
   11.4470    7.5240   -5.4790 C   0  0  0  0  0  0  0  0  0  0  0  0
    8.3668    6.1433  -11.8095 H   0  0  0  0  0  0  0  0  0  0  0  0
    8.2923    5.1035  -13.2724 H   0  0  0  0  0  0  0  0  0  0  0  0
    7.4933    6.7123  -13.2724 H   0  0  0  0  0  0  0  0  0  0  0  0
    5.2930    5.8070  -12.5930 H   0  0  0  0  0  0  0  0  0  0  0  0
    6.3180    2.9500  -11.4862 H   0  0  0  0  0  0  0  0  0  0  0  0
    5.4332    3.2756  -13.0152 H   0  0  0  0  0  0  0  0  0  0  0  0
    7.2277    3.1973  -13.0152 H   0  0  0  0  0  0  0  0  0  0  0  0
    6.4480    5.9570  -10.0390 H   0  0  0  0  0  0  0  0  0  0  0  0
    6.5030    4.1990  -10.1790 H   0  0  0  0  0  0  0  0  0  0  0  0
    8.7149    4.2433  -10.6694 H   0  0  0  0  0  0  0  0  0  0  0  0
    8.4509    6.1701  -10.1117 H   0  0  0  0  0  0  0  0  0  0  0  0
    8.6668    4.0413   -8.3746 H   0  0  0  0  0  0  0  0  0  0  0  0
   10.0923    4.9614   -9.2307 H   0  0  0  0  0  0  0  0  0  0  0  0
    8.7653    6.9171   -8.3224 H   0  0  0  0  0  0  0  0  0  0  0  0
    8.3910    5.6639   -7.0609 H   0  0  0  0  0  0  0  0  0  0  0  0
   10.4152    5.5768   -6.3163 H   0  0  0  0  0  0  0  0  0  0  0  0
   11.0451    5.8902   -8.1543 H   0  0  0  0  0  0  0  0  0  0  0  0
   11.4426    8.2722   -8.9367 H   0  0  0  0  0  0  0  0  0  0  0  0
   12.5718   10.3553   -8.0401 H   0  0  0  0  0  0  0  0  0  0  0  0
   12.8869   10.7571   -5.5399 H   0  0  0  0  0  0  0  0  0  0  0  0
   11.2211    6.7027   -4.7829 H   0  0  0  0  0  0  0  0  0  0  0  0
  1  2  1  0
  2  3  1  0
  2  4  1  0
  4  5  1  0
  5  6  1  0
  6  7  1  0
  7  8  1  0
  8  9  1  0
  9 10  2  0
 10 11  1  0
 11 12  2  0
 12 13  1  0
 13 14  1  0
 14 15  1  0
 15 16  3  0
 13 17  2  0
 17  9  1  0
  1 18  1  0
  1 19  1  0
  1 20  1  0
  2 21  1  0
  3 22  1  0
  3 23  1  0
  3 24  1  0
  4 25  1  0
  4 26  1  0
  5 27  1  0
  5 28  1  0
  6 29  1  0
  6 30  1  0
  7 31  1  0
  7 32  1  0
  8 33  1  0
  8 34  1  0
 10 35  1  0
 11 36  1  0
 12 37  1  0
 17 38  1  0
M  CHG  1   4   1
M  END

>  <ID>
DiffSBDD_65_num_sample_100

>  <docking_score>
-6.982

$$$$
DiffSBDD_66_num_sample_100
     RDKit          3D

 88 91  0  0  0  0  0  0  0  0999 V2000
   10.7320    6.7730   -6.4630 C   0  0  0  0  0  0  0  0  0  0  0  0
    9.9080    7.8330   -7.0690 C   0  0  0  0  0  0  0  0  0  0  0  0
    9.0450    7.2980   -8.1340 N   0  0  0  0  0  0  0  0  0  0  0  0
    8.9600    6.1420   -8.6470 C   0  0  0  0  0  0  0  0  0  0  0  0
    8.3540    5.2080   -8.3500 O   0  0  0  0  0  0  0  0  0  0  0  0
    9.8150    5.8480   -9.7270 C   0  0  0  0  0  0  0  0  0  0  0  0
    9.3480    5.7380  -11.1140 C   0  0  1  0  0  0  0  0  0  0  0  0
    8.4150    4.6760  -11.4650 C   0  0  0  0  0  0  0  0  0  0  0  0
    7.3800    4.4100  -12.5210 C   0  0  2  0  0  0  0  0  0  0  0  0
    7.2670    4.0390  -14.2080 C   0  0  0  0  0  0  0  0  0  0  0  0
    7.1480    2.8870  -14.6210 C   0  0  0  0  0  0  0  0  0  0  0  0
    6.9450    1.9380  -13.3580 C   0  0  0  0  0  0  0  0  0  0  0  0
    6.7520    0.6770  -13.8340 C   0  0  2  0  0  0  0  0  0  0  0  0
    7.7020   -0.1650  -13.2390 C   0  0  0  0  0  0  0  0  0  0  0  0
    5.6260    0.5170  -14.7410 C   0  0  1  0  0  0  0  0  0  0  0  0
    4.3530    0.5920  -14.2530 O   0  0  0  0  0  0  0  0  0  0  0  0
    5.5650    0.6070  -16.3920 C   0  0  0  0  0  0  0  0  0  0  0  0
    6.0350    0.0020  -17.6570 C   0  0  2  0  0  0  0  0  0  0  0  0
    7.6230    0.4270  -17.5630 C   0  0  0  0  0  0  0  0  0  0  0  0
    8.9960   -0.1480  -17.3640 C   0  0  0  0  0  0  0  0  0  0  0  0
    7.6000    1.9660  -17.7040 C   0  0  2  0  0  0  0  0  0  0  0  0
    7.4320    2.7040  -16.2530 C   0  0  0  0  0  0  0  0  0  0  0  0
    6.6480    2.6990  -18.5770 C   0  0  2  0  0  0  0  0  0  0  0  0
    6.2100    3.9020  -18.1970 F   0  0  0  0  0  0  0  0  0  0  0  0
    5.7180    1.8120  -19.4060 C   0  0  0  0  0  0  0  0  0  0  0  0
    4.8940    2.2410  -20.0350 O   0  0  0  0  0  0  0  0  0  0  0  0
    5.9690    0.3390  -19.3370 N   0  0  0  0  0  0  0  0  0  0  0  0
    6.2570   -1.1040  -19.6860 C   0  0  0  0  0  0  0  0  0  0  0  0
    5.2050   -2.0580  -19.8660 O   0  0  0  0  0  0  0  0  0  0  0  0
    7.3410   -1.4350  -20.4830 C   0  0  1  0  0  0  0  0  0  0  0  0
    8.3580   -0.4300  -20.9730 C   0  0  0  0  0  0  0  0  0  0  0  0
    9.3810   -1.2000  -21.7610 O   0  0  0  0  0  0  0  0  0  0  0  0
    7.6260   -2.8400  -19.5780 C   0  0  0  0  0  0  0  0  0  0  0  0
    7.9560   -3.0960  -18.3940 N   0  0  0  0  0  0  0  0  0  0  0  0
    7.8950   -4.3840  -18.1440 C   0  0  0  0  0  0  0  0  0  0  0  0
    7.7070   -5.0900  -19.2460 C   0  0  0  0  0  0  0  0  0  0  0  0
    7.6190   -4.1830  -20.3820 O   0  0  0  0  0  0  0  0  0  0  0  0
    6.4770    5.0580  -11.8960 C   0  0  1  0  0  0  0  0  0  0  0  0
    5.2980    4.7120  -11.7770 C   0  0  0  0  0  0  0  0  0  0  0  0
    6.2390    4.7430  -10.8770 O   0  0  0  0  0  0  0  0  0  0  0  0
    9.5240    6.6870  -11.6560 C   0  0  2  0  0  0  0  0  0  0  0  0
   10.7830    6.9520  -11.8720 O   0  0  0  0  0  0  0  0  0  0  0  0
    8.9150    7.5590  -11.7000 F   0  0  0  0  0  0  0  0  0  0  0  0
   10.6753    6.8460   -5.3669 H   0  0  0  0  0  0  0  0  0  0  0  0
   10.3589    5.7895   -6.7848 H   0  0  0  0  0  0  0  0  0  0  0  0
   11.7771    6.8919   -6.7848 H   0  0  0  0  0  0  0  0  0  0  0  0
    9.2767    8.2853   -6.2899 H   0  0  0  0  0  0  0  0  0  0  0  0
   10.5794    8.5838   -7.5113 H   0  0  0  0  0  0  0  0  0  0  0  0
    8.3930    7.9860   -8.5350 H   0  0  0  0  0  0  0  0  0  0  0  0
   10.5824    6.6361   -9.7281 H   0  0  0  0  0  0  0  0  0  0  0  0
   10.0937    4.8068   -9.5074 H   0  0  0  0  0  0  0  0  0  0  0  0
    9.8804    5.0760  -11.8128 H   0  0  0  0  0  0  0  0  0  0  0  0
    9.0847    3.8106  -11.5775 H   0  0  0  0  0  0  0  0  0  0  0  0
    7.6714    4.9873  -10.7165 H   0  0  0  0  0  0  0  0  0  0  0  0
    7.5568    3.4251  -12.9779 H   0  0  0  0  0  0  0  0  0  0  0  0
    7.3029    4.8628  -14.9361 H   0  0  0  0  0  0  0  0  0  0  0  0
    7.8380    1.9669  -12.7164 H   0  0  0  0  0  0  0  0  0  0  0  0
    6.0853    2.2657  -12.7551 H   0  0  0  0  0  0  0  0  0  0  0  0
    6.0539    0.4724  -13.0089 H   0  0  0  0  0  0  0  0  0  0  0  0
    7.6211   -0.0933  -12.1443 H   0  0  0  0  0  0  0  0  0  0  0  0
    7.5194   -1.2033  -13.5529 H   0  0  0  0  0  0  0  0  0  0  0  0
    8.7109    0.1410  -13.5529 H   0  0  0  0  0  0  0  0  0  0  0  0
    6.3560   -0.3034  -14.6777 H   0  0  0  0  0  0  0  0  0  0  0  0
    3.7080    0.4160  -14.9840 H   0  0  0  0  0  0  0  0  0  0  0  0
    4.4773    0.5505  -16.5461 H   0  0  0  0  0  0  0  0  0  0  0  0
    6.4190    1.3003  -16.3952 H   0  0  0  0  0  0  0  0  0  0  0  0
    5.4030   -0.8956  -17.5871 H   0  0  0  0  0  0  0  0  0  0  0  0
    7.5223    0.5628  -16.4761 H   0  0  0  0  0  0  0  0  0  0  0  0
    9.2045   -0.2353  -16.2875 H   0  0  0  0  0  0  0  0  0  0  0  0
    9.0477   -1.1434  -17.8294 H   0  0  0  0  0  0  0  0  0  0  0  0
    9.7415    0.5135  -17.8294 H   0  0  0  0  0  0  0  0  0  0  0  0
    8.5680    2.0340  -18.2221 H   0  0  0  0  0  0  0  0  0  0  0  0
    8.4248    3.1777  -16.2501 H   0  0  0  0  0  0  0  0  0  0  0  0
    6.3452    2.5875  -16.3770 H   0  0  0  0  0  0  0  0  0  0  0  0
    7.3308    3.0987  -19.3413 H   0  0  0  0  0  0  0  0  0  0  0  0
    7.2594   -1.5395  -21.5750 H   0  0  0  0  0  0  0  0  0  0  0  0
    7.8715    0.3199  -21.6140 H   0  0  0  0  0  0  0  0  0  0  0  0
    8.8253    0.1025  -20.1316 H   0  0  0  0  0  0  0  0  0  0  0  0
   10.0690   -1.5610  -21.1470 H   0  0  0  0  0  0  0  0  0  0  0  0
    8.8382   -4.7007  -17.6749 H   0  0  0  0  0  0  0  0  0  0  0  0
    7.0408   -4.5621  -17.4741 H   0  0  0  0  0  0  0  0  0  0  0  0
    8.5512   -5.7804  -19.3900 H   0  0  0  0  0  0  0  0  0  0  0  0
    6.7762   -5.6700  -19.1611 H   0  0  0  0  0  0  0  0  0  0  0  0
    6.8731    5.9758  -12.3552 H   0  0  0  0  0  0  0  0  0  0  0  0
    4.4813    5.4489  -11.7782 H   0  0  0  0  0  0  0  0  0  0  0  0
    4.6006    3.9856  -12.2196 H   0  0  0  0  0  0  0  0  0  0  0  0
    8.8844    6.2360  -12.4290 H   0  0  0  0  0  0  0  0  0  0  0  0
   11.2270    6.1550  -12.2560 H   0  0  0  0  0  0  0  0  0  0  0  0
  1  2  1  0
  2  3  1  0
  3  4  1  0
  4  5  2  0
  4  6  1  0
  6  7  1  0
  7  8  1  0
  8  9  1  0
  9 10  1  0
 10 11  2  3
 11 12  1  0
 12 13  1  0
 13 14  1  0
 13 15  1  0
 15 16  1  0
 15 17  1  0
 17 18  1  0
 18 19  1  0
 19 20  1  0
 19 21  1  0
 21 22  1  0
 21 23  1  0
 23 24  1  0
 23 25  1  0
 25 26  2  0
 25 27  1  0
 27 28  1  0
 28 29  2  0
 28 30  1  0
 30 31  1  0
 31 32  1  0
 30 33  1  0
 33 34  2  0
 34 35  1  0
 35 36  1  0
 36 37  1  0
  9 38  1  0
 38 39  1  0
 39 40  1  0
  7 41  1  0
 41 42  1  0
 41 43  1  0
 22 11  1  0
 37 33  1  0
 40 38  1  0
 27 18  1  0
  1 44  1  0
  1 45  1  0
  1 46  1  0
  2 47  1  0
  2 48  1  0
  3 49  1  0
  6 50  1  0
  6 51  1  0
  7 52  1  6
  8 53  1  0
  8 54  1  0
  9 55  1  1
 10 56  1  0
 12 57  1  0
 12 58  1  0
 13 59  1  6
 14 60  1  0
 14 61  1  0
 14 62  1  0
 15 63  1  6
 16 64  1  0
 17 65  1  0
 17 66  1  0
 18 67  1  6
 19 68  1  0
 20 69  1  0
 20 70  1  0
 20 71  1  0
 21 72  1  6
 22 73  1  0
 22 74  1  0
 23 75  1  6
 30 76  1  6
 31 77  1  0
 31 78  1  0
 32 79  1  0
 35 80  1  0
 35 81  1  0
 36 82  1  0
 36 83  1  0
 38 84  1  1
 39 85  1  0
 39 86  1  0
 41 87  1  6
 42 88  1  0
M  END

>  <ID>
DiffSBDD_66_num_sample_100

>  <docking_score>
-9.447

$$$$
DiffSBDD_67_num_sample_100
     RDKit          3D

 80 84  0  0  0  0  0  0  0  0999 V2000
    5.5370    8.7620  -20.7960 C   0  0  0  0  0  0  0  0  0  0  0  0
    5.4320    7.5560  -19.9130 C   0  0  1  0  0  0  0  0  0  0  0  0
    5.0400    6.3860  -20.7180 C   0  0  2  0  0  0  0  0  0  0  0  0
    4.6170    5.1500  -19.9000 C   0  0  0  0  0  0  0  0  0  0  0  0
    5.8190    4.2390  -19.8050 C   0  0  0  0  0  0  0  0  0  0  0  0
    7.1110    5.0650  -19.5360 C   0  0  2  0  0  0  0  0  0  0  0  0
    6.8370    5.9310  -18.4060 C   0  0  1  0  0  0  0  0  0  0  0  0
    5.9620    7.1160  -18.7070 C   0  0  2  0  0  0  0  0  0  0  0  0
    5.7400    6.1320  -17.7240 C   0  0  2  0  0  0  0  0  0  0  0  0
    5.6170    6.5840  -16.3540 C   0  0  2  0  0  0  0  0  0  0  0  0
    5.2290    7.9590  -16.1710 C   0  0  0  0  0  0  0  0  0  0  0  0
    6.0330    5.8190  -15.2970 C   0  0  0  0  0  0  0  0  0  0  0  0
    6.8740    5.5070  -14.3400 C   0  0  2  0  0  0  0  0  0  0  0  0
    7.8590    6.6600  -13.8340 C   0  0  0  0  0  0  0  0  0  0  0  0
    7.7860    7.3770  -12.5310 C   0  0  0  0  0  0  0  0  0  0  0  0
    7.8800    6.2720  -11.5070 N   0  0  2  0  0  0  0  0  0  0  0  0
    9.1500    6.2520  -10.8070 C   0  0  0  0  0  0  0  0  0  0  0  0
    9.1290    6.3940   -9.2520 C   0  0  1  0  0  0  0  0  0  0  0  0
    8.9260    5.1980   -8.3510 C   0  0  0  0  0  0  0  0  0  0  0  0
    8.2090    5.3230   -7.3280 O   0  0  0  0  0  0  0  0  0  0  0  0
    9.3900    4.0760   -8.6590 O   0  0  0  0  0  0  0  0  0  0  0  0
   10.3430    7.1120   -8.8240 C   0  0  0  0  0  0  0  0  0  0  0  0
   11.2790    7.4860   -9.8080 C   0  0  0  0  0  0  0  0  0  0  0  0
   12.3700    8.1930   -9.4280 C   0  0  0  0  0  0  0  0  0  0  0  0
   13.2080    8.5800  -10.3070 O   0  0  0  0  0  0  0  0  0  0  0  0
   12.5640    8.5740   -8.0550 C   0  0  0  0  0  0  0  0  0  0  0  0
   11.7390    8.2050   -7.1430 C   0  0  0  0  0  0  0  0  0  0  0  0
   11.9840    8.5010   -5.8440 F   0  0  0  0  0  0  0  0  0  0  0  0
   10.5820    7.4850   -7.4980 C   0  0  0  0  0  0  0  0  0  0  0  0
    7.0220    5.1080  -11.7230 C   0  0  0  0  0  0  0  0  0  0  0  0
    7.3530    3.9280  -12.6530 C   0  0  0  0  0  0  0  0  0  0  0  0
    6.8900    4.1120  -14.0010 N   0  0  2  0  0  0  0  0  0  0  0  0
    7.5610    3.1710  -14.8820 C   0  0  0  0  0  0  0  0  0  0  0  0
    7.4630    6.0040  -20.6480 C   0  0  2  0  0  0  0  0  0  0  0  0
    8.1610    7.0630  -20.0160 O   0  0  0  0  0  0  0  0  0  0  0  0
    6.2790    6.2090  -21.5100 C   0  0  0  0  0  0  0  0  0  0  0  0
    5.6157    9.6660  -20.1742 H   0  0  0  0  0  0  0  0  0  0  0  0
    6.4309    8.6748  -21.4310 H   0  0  0  0  0  0  0  0  0  0  0  0
    4.6414    8.8306  -21.4310 H   0  0  0  0  0  0  0  0  0  0  0  0
    4.9750    8.3096  -19.2548 H   0  0  0  0  0  0  0  0  0  0  0  0
    4.1273    6.5263  -21.3157 H   0  0  0  0  0  0  0  0  0  0  0  0
    4.2970    5.4567  -18.8933 H   0  0  0  0  0  0  0  0  0  0  0  0
    3.7749    4.6333  -20.3837 H   0  0  0  0  0  0  0  0  0  0  0  0
    5.6679    3.5254  -18.9816 H   0  0  0  0  0  0  0  0  0  0  0  0
    5.9332    3.7011  -20.7577 H   0  0  0  0  0  0  0  0  0  0  0  0
    7.9278    4.3419  -19.3943 H   0  0  0  0  0  0  0  0  0  0  0  0
    7.8344    5.6521  -18.0353 H   0  0  0  0  0  0  0  0  0  0  0  0
    5.9218    8.2149  -18.7350 H   0  0  0  0  0  0  0  0  0  0  0  0
    4.9570    5.3960  -17.4892 H   0  0  0  0  0  0  0  0  0  0  0  0
    4.7609    5.9826  -16.0143 H   0  0  0  0  0  0  0  0  0  0  0  0
    5.1660    8.1822  -15.0957 H   0  0  0  0  0  0  0  0  0  0  0  0
    5.9767    8.6163  -16.6388 H   0  0  0  0  0  0  0  0  0  0  0  0
    4.2479    8.1285  -16.6388 H   0  0  0  0  0  0  0  0  0  0  0  0
    5.1320    5.9232  -14.6747 H   0  0  0  0  0  0  0  0  0  0  0  0
    6.6762    5.2643  -15.9960 H   0  0  0  0  0  0  0  0  0  0  0  0
    6.9598    5.5846  -13.2461 H   0  0  0  0  0  0  0  0  0  0  0  0
    8.8623    6.2096  -13.8569 H   0  0  0  0  0  0  0  0  0  0  0  0
    7.5497    7.4730  -14.5074 H   0  0  0  0  0  0  0  0  0  0  0  0
    8.6232    8.0825  -12.4244 H   0  0  0  0  0  0  0  0  0  0  0  0
    6.8704    7.9776  -12.4263 H   0  0  0  0  0  0  0  0  0  0  0  0
    7.3220    6.4630  -10.6630 H   0  0  0  0  0  0  0  0  0  0  0  0
    9.6387    5.2950  -11.0421 H   0  0  0  0  0  0  0  0  0  0  0  0
    9.6737    7.1529  -11.1594 H   0  0  0  0  0  0  0  0  0  0  0  0
    8.1789    6.9284   -9.1045 H   0  0  0  0  0  0  0  0  0  0  0  0
   11.1272    7.2099  -10.8619 H   0  0  0  0  0  0  0  0  0  0  0  0
   13.4326    9.1911   -7.7819 H   0  0  0  0  0  0  0  0  0  0  0  0
   10.5999    6.5553   -6.9103 H   0  0  0  0  0  0  0  0  0  0  0  0
    9.7776    8.2094   -7.3025 H   0  0  0  0  0  0  0  0  0  0  0  0
    6.8739    4.6641  -10.7275 H   0  0  0  0  0  0  0  0  0  0  0  0
    6.1942    5.5724  -12.2790 H   0  0  0  0  0  0  0  0  0  0  0  0
    8.4451    3.7978  -12.6748 H   0  0  0  0  0  0  0  0  0  0  0  0
    6.8350    3.0447  -12.2512 H   0  0  0  0  0  0  0  0  0  0  0  0
    5.8990    3.8610  -14.1230 H   0  0  0  0  0  0  0  0  0  0  0  0
    8.0953    2.4217  -14.2795 H   0  0  0  0  0  0  0  0  0  0  0  0
    6.8165    2.6681  -15.5167 H   0  0  0  0  0  0  0  0  0  0  0  0
    8.2791    3.7110  -15.5167 H   0  0  0  0  0  0  0  0  0  0  0  0
    8.1628    5.6705  -21.4284 H   0  0  0  0  0  0  0  0  0  0  0  0
    8.1980    6.8980  -19.0400 H   0  0  0  0  0  0  0  0  0  0  0  0
    6.4387    7.1069  -22.1250 H   0  0  0  0  0  0  0  0  0  0  0  0
    6.1563    5.3137  -22.1372 H   0  0  0  0  0  0  0  0  0  0  0  0
  1  2  1  0
  2  3  1  0
  3  4  1  0
  4  5  1  0
  5  6  1  0
  6  7  1  0
  7  8  1  0
  8  9  1  0
  9 10  1  0
 10 11  1  0
 10 12  1  0
 12 13  1  0
 13 14  1  0
 14 15  1  0
 15 16  1  0
 16 17  1  0
 17 18  1  0
 18 19  1  0
 19 20  2  0
 19 21  1  0
 18 22  1  0
 22 23  2  0
 23 24  1  0
 24 25  2  0
 24 26  1  0
 26 27  2  0
 27 28  1  0
 27 29  1  0
 16 30  1  0
 30 31  1  0
 31 32  1  0
 32 33  1  0
  6 34  1  0
 34 35  1  0
 34 36  1  0
  8  2  1  0
 32 13  1  0
 36  3  1  0
  9  7  1  0
 29 22  1  0
  1 37  1  0
  1 38  1  0
  1 39  1  0
  2 40  1  1
  3 41  1  6
  4 42  1  0
  4 43  1  0
  5 44  1  0
  5 45  1  0
  6 46  1  1
  7 47  1  1
  8 48  1  1
  9 49  1  6
 10 50  1  1
 11 51  1  0
 11 52  1  0
 11 53  1  0
 12 54  1  0
 12 55  1  0
 13 56  1  1
 14 57  1  0
 14 58  1  0
 15 59  1  0
 15 60  1  0
 16 61  1  1
 17 62  1  0
 17 63  1  0
 18 64  1  6
 23 65  1  0
 26 66  1  0
 29 67  1  0
 29 68  1  0
 30 69  1  0
 30 70  1  0
 31 71  1  0
 31 72  1  0
 32 73  1  1
 33 74  1  0
 33 75  1  0
 33 76  1  0
 34 77  1  6
 35 78  1  0
 36 79  1  0
 36 80  1  0
M  CHG  3  16   1  21  -1  32   1
M  END

>  <ID>
DiffSBDD_67_num_sample_100

>  <docking_score>
-9.21

$$$$
DiffSBDD_68_num_sample_100
     RDKit          3D

 88 93  0  0  0  0  0  0  0  0999 V2000
   12.4160    6.7360   -2.0870 C   0  0  0  0  0  0  0  0  0  0  0  0
   12.0460    6.7740   -3.1870 C   0  0  0  0  0  0  0  0  0  0  0  0
   11.8660    7.9380   -3.8730 C   0  0  2  0  0  0  0  0  0  0  0  0
   12.7860    8.9980   -3.3990 O   0  0  0  0  0  0  0  0  0  0  0  0
   11.9630    9.8710   -2.7820 O   0  0  0  0  0  0  0  0  0  0  0  0
   11.1110    8.3820   -5.0490 O   0  0  0  0  0  0  0  0  0  0  0  0
   11.9350    8.6300   -6.0530 C   0  0  2  0  0  0  0  0  0  0  0  0
   11.6070   10.1300   -6.1860 C   0  0  0  0  0  0  0  0  0  0  0  0
   12.4620   11.0910   -5.8210 O   0  0  0  0  0  0  0  0  0  0  0  0
   11.0090   10.6420   -5.4140 O   0  0  0  0  0  0  0  0  0  0  0  0
   11.6280    7.9670   -7.4310 C   0  0  1  0  0  0  0  0  0  0  0  0
   12.7970    7.4900   -8.0350 O   0  0  0  0  0  0  0  0  0  0  0  0
   10.2930    7.4380   -7.8950 C   0  0  2  0  0  0  0  0  0  0  0  0
    9.0720    8.3530   -8.0900 C   0  0  0  0  0  0  0  0  0  0  0  0
    9.8460    6.4930   -6.8640 C   0  0  0  0  0  0  0  0  0  0  0  0
    8.6820    5.5160   -7.5590 C   0  0  0  0  0  0  0  0  0  0  0  0
    9.0140    4.5360   -8.5320 C   0  0  0  0  0  0  0  0  0  0  0  0
    9.4650    5.2060   -9.9540 C   0  0  1  0  0  0  0  0  0  0  0  0
    8.1400    5.0600  -10.8330 C   0  0  0  0  0  0  0  0  0  0  0  0
    6.8750    4.6840  -10.4350 C   0  0  0  0  0  0  0  0  0  0  0  0
    6.1260    4.6500  -11.8080 C   0  0  0  0  0  0  0  0  0  0  0  0
    7.0770    3.8170  -12.8430 C   0  0  1  0  0  0  0  0  0  0  0  0
    6.2450    2.9290  -13.6560 C   0  0  2  0  0  0  0  0  0  0  0  0
    6.1970    1.5480  -12.7600 C   0  0  0  0  0  0  0  0  0  0  0  0
    7.0290    0.6400  -13.5460 C   0  0  0  0  0  0  0  0  0  0  0  0
    7.9950    0.0690  -13.1650 O   0  0  0  0  0  0  0  0  0  0  0  0
    6.7780    0.9090  -15.1290 N   0  0  0  0  0  0  0  0  0  0  0  0
    7.8560    0.8490  -16.1870 C   0  0  1  0  0  0  0  0  0  0  0  0
    7.3160   -0.2350  -17.1530 C   0  0  2  0  0  0  0  0  0  0  0  0
    7.8200   -1.1120  -18.2610 C   0  0  0  0  0  0  0  0  0  0  0  0
    8.8600   -0.7680  -19.1790 C   0  0  0  0  0  0  0  0  0  0  0  0
    9.3980    0.5930  -19.0600 C   0  0  0  0  0  0  0  0  0  0  0  0
   10.9050    1.0950  -19.9460 S   0  0  0  0  0  0  0  0  0  0  0  0
    8.8220    1.4980  -18.1530 C   0  0  0  0  0  0  0  0  0  0  0  0
    7.4140    1.1860  -17.4840 C   0  0  2  0  0  0  0  0  0  0  0  0
    6.6540    2.2200  -14.9530 C   0  0  0  0  0  0  0  0  0  0  0  0
    8.3350    4.3900  -13.3370 C   0  0  0  0  0  0  0  0  0  0  0  0
    8.6470    5.4180  -12.2120 C   0  0  1  0  0  0  0  0  0  0  0  0
    9.4740    6.5350  -12.6840 O   0  0  0  0  0  0  0  0  0  0  0  0
   10.0960    7.5040  -11.9390 C   0  0  0  0  0  0  0  0  0  0  0  0
   10.8480    7.2540  -10.5910 C   0  0  0  0  0  0  0  0  0  0  0  0
   11.9320    7.9220  -10.4530 O   0  0  0  0  0  0  0  0  0  0  0  0
    9.9390    6.6000   -9.4920 C   0  0  2  0  0  0  0  0  0  0  0  0
   12.5433    5.7667   -1.5827 H   0  0  0  0  0  0  0  0  0  0  0  0
   12.6392    7.6693   -1.5493 H   0  0  0  0  0  0  0  0  0  0  0  0
   11.8304    5.8251   -3.7000 H   0  0  0  0  0  0  0  0  0  0  0  0
   12.6153    7.6182   -4.6122 H   0  0  0  0  0  0  0  0  0  0  0  0
   11.6160   10.5210   -3.4430 H   0  0  0  0  0  0  0  0  0  0  0  0
   12.9548    8.2739   -5.8451 H   0  0  0  0  0  0  0  0  0  0  0  0
   11.3036    9.9246   -7.2232 H   0  0  0  0  0  0  0  0  0  0  0  0
   12.7630   11.5870   -6.6230 H   0  0  0  0  0  0  0  0  0  0  0  0
   11.6090   11.1630   -4.8240 H   0  0  0  0  0  0  0  0  0  0  0  0
   11.1467    8.8364   -7.9027 H   0  0  0  0  0  0  0  0  0  0  0  0
   12.8300    6.5040   -7.9550 H   0  0  0  0  0  0  0  0  0  0  0  0
    8.6757    8.6500   -7.1078 H   0  0  0  0  0  0  0  0  0  0  0  0
    9.3722    9.2504   -8.6508 H   0  0  0  0  0  0  0  0  0  0  0  0
    8.2949    7.8130   -8.6508 H   0  0  0  0  0  0  0  0  0  0  0  0
   10.6937    5.8824   -6.5196 H   0  0  0  0  0  0  0  0  0  0  0  0
    9.4372    7.0288   -5.9946 H   0  0  0  0  0  0  0  0  0  0  0  0
    8.1954    4.9783   -6.7319 H   0  0  0  0  0  0  0  0  0  0  0  0
    8.0908    6.2359   -8.1440 H   0  0  0  0  0  0  0  0  0  0  0  0
    9.8442    3.9240   -8.1496 H   0  0  0  0  0  0  0  0  0  0  0  0
    8.1179    3.9250   -8.7155 H   0  0  0  0  0  0  0  0  0  0  0  0
   10.2729    4.7990  -10.5798 H   0  0  0  0  0  0  0  0  0  0  0  0
    8.3895    4.0077  -11.0342 H   0  0  0  0  0  0  0  0  0  0  0  0
    6.8806    3.6950   -9.9536 H   0  0  0  0  0  0  0  0  0  0  0  0
    6.4192    5.3493   -9.6869 H   0  0  0  0  0  0  0  0  0  0  0  0
    5.1545    4.1462  -11.6972 H   0  0  0  0  0  0  0  0  0  0  0  0
    5.9349    5.6677  -12.1791 H   0  0  0  0  0  0  0  0  0  0  0  0
    7.7374    3.1571  -12.2614 H   0  0  0  0  0  0  0  0  0  0  0  0
    5.4342    3.6271  -13.9114 H   0  0  0  0  0  0  0  0  0  0  0  0
    6.6195    1.7085  -11.7572 H   0  0  0  0  0  0  0  0  0  0  0  0
    5.1785    1.1718  -12.5834 H   0  0  0  0  0  0  0  0  0  0  0  0
    8.7634    1.1270  -15.6308 H   0  0  0  0  0  0  0  0  0  0  0  0
    6.7103   -1.1110  -16.8779 H   0  0  0  0  0  0  0  0  0  0  0  0
    7.3509   -2.1003  -18.3762 H   0  0  0  0  0  0  0  0  0  0  0  0
    9.2347   -1.4798  -19.9293 H   0  0  0  0  0  0  0  0  0  0  0  0
   11.9590    0.3270  -19.5250 H   0  0  0  0  0  0  0  0  0  0  0  0
    9.3497    2.4304  -17.9036 H   0  0  0  0  0  0  0  0  0  0  0  0
    6.6746    1.8486  -17.9574 H   0  0  0  0  0  0  0  0  0  0  0  0
    7.6386    2.6379  -15.2097 H   0  0  0  0  0  0  0  0  0  0  0  0
    5.7505    2.4010  -15.5537 H   0  0  0  0  0  0  0  0  0  0  0  0
    9.1232    3.6270  -13.4185 H   0  0  0  0  0  0  0  0  0  0  0  0
    8.2734    4.8232  -14.3462 H   0  0  0  0  0  0  0  0  0  0  0  0
    9.5556    4.8559  -11.9503 H   0  0  0  0  0  0  0  0  0  0  0  0
   10.8401    7.9575  -12.6102 H   0  0  0  0  0  0  0  0  0  0  0  0
    9.2230    8.0673  -11.5776 H   0  0  0  0  0  0  0  0  0  0  0  0
    8.8823    6.6695   -9.1944 H   0  0  0  0  0  0  0  0  0  0  0  0
  1  2  2  0
  2  3  1  0
  3  4  1  0
  4  5  1  0
  3  6  1  0
  6  7  1  0
  7  8  1  0
  8  9  1  0
  8 10  1  0
  7 11  1  0
 11 12  1  0
 11 13  1  0
 13 14  1  6
 13 15  1  0
 15 16  1  0
 16 17  1  0
 17 18  1  0
 18 19  1  0
 19 20  1  0
 20 21  1  0
 21 22  1  0
 22 23  1  0
 23 24  1  0
 24 25  1  0
 25 26  2  0
 25 27  1  0
 27 28  1  0
 28 29  1  0
 29 30  1  0
 30 31  2  0
 31 32  1  0
 32 33  1  0
 32 34  2  0
 34 35  1  0
 27 36  1  0
 22 37  1  0
 37 38  1  0
 38 39  1  0
 39 40  1  0
 40 41  1  0
 41 42  2  0
 41 43  1  0
 43 13  1  0
 43 18  1  0
 38 19  1  0
 36 23  1  0
 35 28  1  0
 35 29  1  0
  1 44  1  0
  1 45  1  0
  2 46  1  0
  3 47  1  1
  5 48  1  0
  7 49  1  1
  8 50  1  0
  9 51  1  0
 10 52  1  0
 11 53  1  6
 12 54  1  0
 14 55  1  0
 14 56  1  0
 14 57  1  0
 15 58  1  0
 15 59  1  0
 16 60  1  0
 16 61  1  0
 17 62  1  0
 17 63  1  0
 18 64  1  6
 19 65  1  0
 20 66  1  0
 20 67  1  0
 21 68  1  0
 21 69  1  0
 22 70  1  1
 23 71  1  6
 24 72  1  0
 24 73  1  0
 28 74  1  1
 29 75  1  1
 30 76  1  0
 31 77  1  0
 33 78  1  0
 34 79  1  0
 35 80  1  1
 36 81  1  0
 36 82  1  0
 37 83  1  0
 37 84  1  0
 38 85  1  6
 40 86  1  0
 40 87  1  0
 43 88  1  6
M  END

>  <ID>
DiffSBDD_68_num_sample_100

>  <docking_score>
-9.901

$$$$
DiffSBDD_69_num_sample_100
     RDKit          3D

 57 59  0  0  0  0  0  0  0  0999 V2000
    6.4090   -0.0030  -14.9650 C   0  0  0  0  0  0  0  0  0  0  0  0
    7.1230    0.2080  -13.5570 C   0  0  2  0  0  0  0  0  0  0  0  0
    6.3460   -0.2560  -12.4830 O   0  0  0  0  0  0  0  0  0  0  0  0
    7.4330    1.7460  -13.3760 C   0  0  0  0  0  0  0  0  0  0  0  0
    7.2570    2.5150  -14.7060 C   0  0  0  0  0  0  0  0  0  0  0  0
    6.6770    3.8580  -14.2200 C   0  0  2  0  0  0  0  0  0  0  0  0
    7.7370    4.9150  -14.7070 C   0  0  0  0  0  0  0  0  0  0  0  0
    6.4340    3.7430  -12.8470 O   0  0  0  0  0  0  0  0  0  0  0  0
    6.4400    5.0830  -11.9390 C   0  0  0  0  0  0  0  0  0  0  0  0
    6.1880    6.1020  -12.3150 O   0  0  0  0  0  0  0  0  0  0  0  0
    6.8190    4.8650  -10.6690 N   0  0  0  0  0  0  0  0  0  0  0  0
    8.1890    5.3000  -10.1560 C   0  0  1  0  0  0  0  0  0  0  0  0
    8.8750    5.7610  -11.2930 C   0  0  2  0  0  0  0  0  0  0  0  0
   10.0320    5.9180  -11.8270 O   0  0  0  0  0  0  0  0  0  0  0  0
    8.9960    6.0140   -9.7680 N   0  0  0  0  0  0  0  0  0  0  0  0
   10.1340    6.0080   -9.2060 O   0  0  0  0  0  0  0  0  0  0  0  0
   10.2800    7.2610   -8.3270 C   0  0  1  0  0  0  0  0  0  0  0  0
   10.5890    6.6650   -6.9970 O   0  0  0  0  0  0  0  0  0  0  0  0
   10.9650    7.3300   -5.8310 C   0  0  0  0  0  0  0  0  0  0  0  0
   11.2290    8.7290   -5.8060 C   0  0  0  0  0  0  0  0  0  0  0  0
   11.6910    9.3580   -4.7430 C   0  0  0  0  0  0  0  0  0  0  0  0
   12.0490    8.6130   -3.6170 C   0  0  0  0  0  0  0  0  0  0  0  0
   11.7810    7.2600   -3.5470 C   0  0  0  0  0  0  0  0  0  0  0  0
   11.2440    6.5670   -4.7220 C   0  0  0  0  0  0  0  0  0  0  0  0
   12.1230    6.7130   -2.3350 O   0  0  0  0  0  0  0  0  0  0  0  0
   12.7090    7.8930   -1.7420 C   0  0  0  0  0  0  0  0  0  0  0  0
   12.5940    9.0650   -2.4280 O   0  0  0  0  0  0  0  0  0  0  0  0
   11.2540    8.2360   -9.1260 C   0  0  2  0  0  0  0  0  0  0  0  0
   10.4260    8.4280   -9.8480 O   0  0  0  0  0  0  0  0  0  0  0  0
   12.5600    8.0690   -9.5940 C   0  0  0  0  0  0  0  0  0  0  0  0
   13.5920    8.3480   -9.1900 O   0  0  0  0  0  0  0  0  0  0  0  0
   12.3370    7.7100  -10.9620 F   0  0  0  0  0  0  0  0  0  0  0  0
    5.3654   -0.3114  -14.8043 H   0  0  0  0  0  0  0  0  0  0  0  0
    6.4297    0.9397  -15.5315 H   0  0  0  0  0  0  0  0  0  0  0  0
    6.9388   -0.7830  -15.5315 H   0  0  0  0  0  0  0  0  0  0  0  0
    8.0518   -0.3814  -13.5516 H   0  0  0  0  0  0  0  0  0  0  0  0
    5.3900   -0.2560  -12.7420 H   0  0  0  0  0  0  0  0  0  0  0  0
    6.7451    2.1644  -12.6265 H   0  0  0  0  0  0  0  0  0  0  0  0
    8.4776    1.8534  -13.0485 H   0  0  0  0  0  0  0  0  0  0  0  0
    8.2206    2.6566  -15.2172 H   0  0  0  0  0  0  0  0  0  0  0  0
    6.6232    1.9958  -15.4400 H   0  0  0  0  0  0  0  0  0  0  0  0
    5.7007    4.1723  -14.6176 H   0  0  0  0  0  0  0  0  0  0  0  0
    8.2111    5.3877  -13.8342 H   0  0  0  0  0  0  0  0  0  0  0  0
    8.5045    4.4119  -15.3135 H   0  0  0  0  0  0  0  0  0  0  0  0
    7.2361    5.6839  -15.3135 H   0  0  0  0  0  0  0  0  0  0  0  0
    6.1680    4.3930  -10.0240 H   0  0  0  0  0  0  0  0  0  0  0  0
    7.8904    4.6255   -9.3400 H   0  0  0  0  0  0  0  0  0  0  0  0
    8.5055    5.7930  -12.3286 H   0  0  0  0  0  0  0  0  0  0  0  0
    9.9980    5.6380  -12.7750 H   0  0  0  0  0  0  0  0  0  0  0  0
    9.4499    7.9524   -8.1200 H   0  0  0  0  0  0  0  0  0  0  0  0
   11.0382    9.3137   -6.7180 H   0  0  0  0  0  0  0  0  0  0  0  0
   11.7929   10.4533   -4.7431 H   0  0  0  0  0  0  0  0  0  0  0  0
   11.0713    5.4806   -4.7165 H   0  0  0  0  0  0  0  0  0  0  0  0
   12.2353    8.0382   -0.7599 H   0  0  0  0  0  0  0  0  0  0  0  0
   13.7893    7.6874   -1.7174 H   0  0  0  0  0  0  0  0  0  0  0  0
   11.7975    8.9613   -8.5027 H   0  0  0  0  0  0  0  0  0  0  0  0
   10.1130    9.3620   -9.7500 H   0  0  0  0  0  0  0  0  0  0  0  0
  1  2  1  0
  2  3  1  0
  2  4  1  0
  4  5  1  0
  5  6  1  0
  6  7  1  0
  6  8  1  0
  8  9  1  0
  9 10  2  0
  9 11  1  0
 11 12  1  0
 12 13  1  0
 13 14  1  0
 13 15  1  0
 15 16  1  0
 16 17  1  0
 17 18  1  0
 18 19  1  0
 19 20  2  0
 20 21  1  0
 21 22  2  0
 22 23  1  0
 23 24  2  0
 23 25  1  0
 25 26  1  0
 26 27  1  0
 17 28  1  0
 28 29  1  0
 28 30  1  0
 30 31  2  0
 30 32  1  0
 15 12  1  0
 24 19  1  0
 27 22  1  0
  1 33  1  0
  1 34  1  0
  1 35  1  0
  2 36  1  6
  3 37  1  0
  4 38  1  0
  4 39  1  0
  5 40  1  0
  5 41  1  0
  6 42  1  6
  7 43  1  0
  7 44  1  0
  7 45  1  0
 11 46  1  0
 12 47  1  1
 13 48  1  6
 14 49  1  0
 17 50  1  1
 20 51  1  0
 21 52  1  0
 24 53  1  0
 26 54  1  0
 26 55  1  0
 28 56  1  1
 29 57  1  0
M  END

>  <ID>
DiffSBDD_69_num_sample_100

>  <docking_score>
-8.662

$$$$
DiffSBDD_6_num_sample_100
     RDKit          3D

 65 68  0  0  0  0  0  0  0  0999 V2000
    8.6880    5.4390   -8.0020 C   0  0  0  0  0  0  0  0  0  0  0  0
    9.4250    6.2820   -9.0120 C   0  0  2  0  0  0  0  0  0  0  0  0
   10.2170    7.5150   -8.6360 C   0  0  1  0  0  0  0  0  0  0  0  0
   10.9610    7.5060   -7.3950 N   0  0  2  0  0  0  0  0  0  0  0  0
   11.4770    6.3680   -6.4900 C   0  0  0  0  0  0  0  0  0  0  0  0
   11.5770    7.6010   -5.4990 C   0  0  1  0  0  0  0  0  0  0  0  0
   10.9780    8.3910   -6.5740 C   0  0  1  0  0  0  0  0  0  0  0  0
   10.9720    9.7270   -6.5590 C   0  0  0  0  0  0  0  0  0  0  0  0
   11.3170   10.3080   -5.2890 C   0  0  0  0  0  0  0  0  0  0  0  0
   11.8230    9.9500   -4.0660 C   0  0  0  0  0  0  0  0  0  0  0  0
   12.1630    8.7430   -3.5980 C   0  0  0  0  0  0  0  0  0  0  0  0
   12.5290    8.1790   -2.2600 C   0  0  0  0  0  0  0  0  0  0  0  0
   13.5890    8.8120   -1.7360 F   0  0  0  0  0  0  0  0  0  0  0  0
   11.5080    8.2200   -1.3850 F   0  0  0  0  0  0  0  0  0  0  0  0
   11.8850    7.5760   -4.2860 N   0  0  0  0  0  0  0  0  0  0  0  0
   11.9510    6.4380   -3.4750 C   0  0  0  0  0  0  0  0  0  0  0  0
   10.6490    6.1880   -3.3370 F   0  0  0  0  0  0  0  0  0  0  0  0
   11.2140    8.0860   -9.6600 C   0  0  1  0  0  0  0  0  0  0  0  0
   12.6470    7.8880   -9.2300 C   0  0  0  0  0  0  0  0  0  0  0  0
   10.9380    7.3910  -10.9680 C   0  0  0  0  0  0  0  0  0  0  0  0
    9.4420    7.2980  -11.1830 C   0  0  0  0  0  0  0  0  0  0  0  0
    8.8870    6.2310  -10.3600 N   0  0  0  0  0  0  0  0  0  0  0  0
    8.2360    5.0660  -10.8780 C   0  0  0  0  0  0  0  0  0  0  0  0
    8.5430    4.2960  -12.0330 C   0  0  0  0  0  0  0  0  0  0  0  0
    8.0410    4.3170  -13.4650 C   0  0  0  0  0  0  0  0  0  0  0  0
    8.5200    5.0400  -14.8020 C   0  0  0  0  0  0  0  0  0  0  0  0
    9.5580    5.8110  -14.4180 F   0  0  0  0  0  0  0  0  0  0  0  0
    7.5670    5.8150  -15.2880 F   0  0  0  0  0  0  0  0  0  0  0  0
    8.9530    4.2000  -15.6770 F   0  0  0  0  0  0  0  0  0  0  0  0
    6.7100    4.1300  -13.7800 C   0  0  0  0  0  0  0  0  0  0  0  0
    5.7390    3.6670  -12.7390 C   0  0  0  0  0  0  0  0  0  0  0  0
    5.8790    4.2600  -11.4940 C   0  0  0  0  0  0  0  0  0  0  0  0
    6.7720    5.0320  -10.8500 C   0  0  0  0  0  0  0  0  0  0  0  0
    8.9660    5.7570   -6.9863 H   0  0  0  0  0  0  0  0  0  0  0  0
    7.6040    5.5637   -8.1415 H   0  0  0  0  0  0  0  0  0  0  0  0
    8.9564    4.3814   -8.1415 H   0  0  0  0  0  0  0  0  0  0  0  0
   10.3437    5.6777   -8.9850 H   0  0  0  0  0  0  0  0  0  0  0  0
    9.3203    8.1472   -8.5570 H   0  0  0  0  0  0  0  0  0  0  0  0
   11.3470    7.5040   -8.3500 H   0  0  0  0  0  0  0  0  0  0  0  0
   10.7503    5.5857   -6.2256 H   0  0  0  0  0  0  0  0  0  0  0  0
   12.2892    5.6671   -6.7331 H   0  0  0  0  0  0  0  0  0  0  0  0
   12.0560    8.1456   -4.6720 H   0  0  0  0  0  0  0  0  0  0  0  0
   10.0850    9.0152   -6.7254 H   0  0  0  0  0  0  0  0  0  0  0  0
   11.6948   10.0828   -7.3080 H   0  0  0  0  0  0  0  0  0  0  0  0
    9.9400   10.0391   -6.7773 H   0  0  0  0  0  0  0  0  0  0  0  0
   12.0282   11.0890   -5.5958 H   0  0  0  0  0  0  0  0  0  0  0  0
   10.2796   10.2478   -4.9283 H   0  0  0  0  0  0  0  0  0  0  0  0
   11.9723   10.7818   -3.3619 H   0  0  0  0  0  0  0  0  0  0  0  0
   12.7847    7.1239   -2.4371 H   0  0  0  0  0  0  0  0  0  0  0  0
   12.4770    5.6099   -3.9726 H   0  0  0  0  0  0  0  0  0  0  0  0
   12.5046    6.5667   -2.5332 H   0  0  0  0  0  0  0  0  0  0  0  0
   11.0802    9.1739   -9.7527 H   0  0  0  0  0  0  0  0  0  0  0  0
   12.7024    7.8803   -8.1314 H   0  0  0  0  0  0  0  0  0  0  0  0
   13.0186    6.9300   -9.6226 H   0  0  0  0  0  0  0  0  0  0  0  0
   13.2644    8.7094   -9.6226 H   0  0  0  0  0  0  0  0  0  0  0  0
   11.3920    7.9633  -11.7905 H   0  0  0  0  0  0  0  0  0  0  0  0
   11.3691    6.3793  -10.9443 H   0  0  0  0  0  0  0  0  0  0  0  0
    8.9737    8.2538  -10.9052 H   0  0  0  0  0  0  0  0  0  0  0  0
    9.2417    7.0792  -12.2422 H   0  0  0  0  0  0  0  0  0  0  0  0
    9.3039    3.5229  -11.8504 H   0  0  0  0  0  0  0  0  0  0  0  0
    6.3599    4.3229  -14.8048 H   0  0  0  0  0  0  0  0  0  0  0  0
    4.9688    2.9097  -12.9473 H   0  0  0  0  0  0  0  0  0  0  0  0
    5.0153    4.0356  -10.8509 H   0  0  0  0  0  0  0  0  0  0  0  0
    6.4839    6.0544  -11.1358 H   0  0  0  0  0  0  0  0  0  0  0  0
    6.6769    4.5423   -9.8696 H   0  0  0  0  0  0  0  0  0  0  0  0
  1  2  1  0
  2  3  1  0
  3  4  1  0
  4  5  1  0
  5  6  1  0
  6  7  1  0
  7  8  1  0
  8  9  1  0
  9 10  1  0
 10 11  2  0
 11 12  1  0
 12 13  1  0
 12 14  1  0
 11 15  1  0
 15 16  1  0
 16 17  1  0
  3 18  1  0
 18 19  1  0
 18 20  1  0
 20 21  1  0
 21 22  1  0
 22 23  1  0
 23 24  2  0
 24 25  1  0
 25 26  1  0
 26 27  1  0
 26 28  1  0
 26 29  1  0
 25 30  2  0
 30 31  1  0
 31 32  2  0
 32 33  1  0
 22  2  1  0
 33 23  1  0
  7  4  1  0
 15  6  1  0
  1 34  1  0
  1 35  1  0
  1 36  1  0
  2 37  1  6
  3 38  1  1
  4 39  1  6
  5 40  1  0
  5 41  1  0
  6 42  1  6
  7 43  1  1
  8 44  1  0
  8 45  1  0
  9 46  1  0
  9 47  1  0
 10 48  1  0
 12 49  1  0
 16 50  1  0
 16 51  1  0
 18 52  1  6
 19 53  1  0
 19 54  1  0
 19 55  1  0
 20 56  1  0
 20 57  1  0
 21 58  1  0
 21 59  1  0
 24 60  1  0
 30 61  1  0
 31 62  1  0
 32 63  1  0
 33 64  1  0
 33 65  1  0
M  CHG  1   4   1
M  END

>  <ID>
DiffSBDD_6_num_sample_100

>  <docking_score>
-11.422

$$$$
DiffSBDD_70_num_sample_100
     RDKit          3D

 77 79  0  0  0  0  0  0  0  0999 V2000
    8.1180    3.9890  -14.4430 C   0  0  0  0  0  0  0  0  0  0  0  0
    8.2460    3.6910  -13.1120 C   0  0  1  0  0  0  0  0  0  0  0  0
    7.2260    4.4400  -12.1210 C   0  0  0  0  0  0  0  0  0  0  0  0
    7.8510    5.6670  -12.0320 N   0  0  2  0  0  0  0  0  0  0  0  0
    7.5710    6.8330  -12.7910 C   0  0  0  0  0  0  0  0  0  0  0  0
    6.0300    7.3710  -12.9080 C   0  0  0  0  0  0  0  0  0  0  0  0
    6.4080    7.0770  -14.9470 Cl  0  0  0  0  0  0  0  0  0  0  0  0
    8.8330    5.5780  -10.9270 C   0  0  2  0  0  0  0  0  0  0  0  0
    8.4520    5.2540   -9.4500 C   0  0  0  0  0  0  0  0  0  0  0  0
    9.4810    5.4510   -8.3640 C   0  0  0  0  0  0  0  0  0  0  0  0
   10.0900    6.7350   -8.5090 N   0  0  2  0  0  0  0  0  0  0  0  0
   10.4550    7.4150   -7.3110 C   0  0  1  0  0  0  0  0  0  0  0  0
   10.9150    8.8410   -7.4620 C   0  0  0  0  0  0  0  0  0  0  0  0
   12.1490    9.1340   -6.6200 C   0  0  0  0  0  0  0  0  0  0  0  0
   11.7640    8.9090   -5.0970 C   0  0  2  0  0  0  0  0  0  0  0  0
   10.7620    9.9950   -4.9330 F   0  0  0  0  0  0  0  0  0  0  0  0
   12.7310    9.2280   -4.0440 C   0  0  0  0  0  0  0  0  0  0  0  0
   12.1200    9.3610   -2.7340 O   0  0  0  0  0  0  0  0  0  0  0  0
   11.3710    7.4460   -4.8920 C   0  0  1  0  0  0  0  0  0  0  0  0
   11.9250    6.6560   -3.8510 O   0  0  0  0  0  0  0  0  0  0  0  0
   11.0550    6.5400   -2.8650 O   0  0  0  0  0  0  0  0  0  0  0  0
   10.4820    6.7480   -5.9000 C   0  0  0  0  0  0  0  0  0  0  0  0
   10.1660    7.4060   -9.8650 C   0  0  0  0  0  0  0  0  0  0  0  0
    9.9630    6.6700  -11.0950 C   0  0  0  0  0  0  0  0  0  0  0  0
    7.5900    2.7320  -13.8230 O   0  0  0  0  0  0  0  0  0  0  0  0
    7.5570    1.8240  -14.4920 C   0  0  1  0  0  0  0  0  0  0  0  0
    7.6350    0.7260  -13.6160 C   0  0  0  0  0  0  0  0  0  0  0  0
    6.0540    0.4470  -12.8810 C   0  0  0  0  0  0  0  0  0  0  0  0
    5.3560    1.2250  -13.7840 C   0  0  0  0  0  0  0  0  0  0  0  0
    6.0570    1.3760  -15.0820 C   0  0  2  0  0  0  0  0  0  0  0  0
    6.0090   -0.2680  -15.5830 C   0  0  0  0  0  0  0  0  0  0  0  0
    5.1610   -0.7280  -15.8990 O   0  0  0  0  0  0  0  0  0  0  0  0
    7.1870   -0.6690  -16.6060 O   0  0  0  0  0  0  0  0  0  0  0  0
    7.6861    4.9946  -14.5537 H   0  0  0  0  0  0  0  0  0  0  0  0
    9.1078    3.9603  -14.9220 H   0  0  0  0  0  0  0  0  0  0  0  0
    7.4573    3.2514  -14.9220 H   0  0  0  0  0  0  0  0  0  0  0  0
    9.1365    3.7061  -12.4664 H   0  0  0  0  0  0  0  0  0  0  0  0
    6.2190    4.5235  -12.5557 H   0  0  0  0  0  0  0  0  0  0  0  0
    7.0515    3.9337  -11.1602 H   0  0  0  0  0  0  0  0  0  0  0  0
    7.1320    5.9860  -11.3670 H   0  0  0  0  0  0  0  0  0  0  0  0
    8.1620    7.6499  -12.3512 H   0  0  0  0  0  0  0  0  0  0  0  0
    7.8181    6.5350  -13.8206 H   0  0  0  0  0  0  0  0  0  0  0  0
    5.2596    6.7237  -12.4635 H   0  0  0  0  0  0  0  0  0  0  0  0
    5.6566    8.3071  -12.4672 H   0  0  0  0  0  0  0  0  0  0  0  0
    9.1953    4.5548  -11.1054 H   0  0  0  0  0  0  0  0  0  0  0  0
    7.5896    5.8872   -9.1943 H   0  0  0  0  0  0  0  0  0  0  0  0
    8.2828    4.1671   -9.4559 H   0  0  0  0  0  0  0  0  0  0  0  0
    8.9925    5.3864   -7.3806 H   0  0  0  0  0  0  0  0  0  0  0  0
   10.2513    4.6699   -8.4442 H   0  0  0  0  0  0  0  0  0  0  0  0
   11.0370    6.5690   -8.8790 H   0  0  0  0  0  0  0  0  0  0  0  0
   11.4920    7.0679   -7.4299 H   0  0  0  0  0  0  0  0  0  0  0  0
   11.1542    9.0270   -8.5195 H   0  0  0  0  0  0  0  0  0  0  0  0
   10.1036    9.4983   -7.1162 H   0  0  0  0  0  0  0  0  0  0  0  0
   12.9654    8.4536   -6.9037 H   0  0  0  0  0  0  0  0  0  0  0  0
   12.4866   10.1684   -6.7814 H   0  0  0  0  0  0  0  0  0  0  0  0
   13.4805    8.4240   -4.0012 H   0  0  0  0  0  0  0  0  0  0  0  0
   13.1836   10.1984   -4.2960 H   0  0  0  0  0  0  0  0  0  0  0  0
   11.1350    9.3050   -2.8230 H   0  0  0  0  0  0  0  0  0  0  0  0
   12.1851    7.1334   -5.5625 H   0  0  0  0  0  0  0  0  0  0  0  0
   10.7450    7.4390   -2.5920 H   0  0  0  0  0  0  0  0  0  0  0  0
   10.8395    5.7142   -6.0155 H   0  0  0  0  0  0  0  0  0  0  0  0
    9.4565    6.8072   -5.5064 H   0  0  0  0  0  0  0  0  0  0  0  0
    9.4110    8.2059   -9.8560 H   0  0  0  0  0  0  0  0  0  0  0  0
   11.2299    7.6780   -9.9301 H   0  0  0  0  0  0  0  0  0  0  0  0
    9.6685    7.3721  -11.8889 H   0  0  0  0  0  0  0  0  0  0  0  0
   10.9029    6.1617  -11.3562 H   0  0  0  0  0  0  0  0  0  0  0  0
    8.2953    2.0455  -15.2767 H   0  0  0  0  0  0  0  0  0  0  0  0
    7.9421   -0.1693  -14.1765 H   0  0  0  0  0  0  0  0  0  0  0  0
    8.3737    0.9365  -12.8286 H   0  0  0  0  0  0  0  0  0  0  0  0
    5.7519   -0.6105  -12.9038 H   0  0  0  0  0  0  0  0  0  0  0  0
    5.9409    0.6822  -11.8124 H   0  0  0  0  0  0  0  0  0  0  0  0
    4.3772    0.7574  -13.9665 H   0  0  0  0  0  0  0  0  0  0  0  0
    5.2561    2.2288  -13.3453 H   0  0  0  0  0  0  0  0  0  0  0  0
    5.7188    2.0510  -15.8820 H   0  0  0  0  0  0  0  0  0  0  0  0
    6.1275   -0.6636  -14.5635 H   0  0  0  0  0  0  0  0  0  0  0  0
    4.8400   -0.2930  -16.7280 H   0  0  0  0  0  0  0  0  0  0  0  0
    6.9210   -1.4760  -17.1140 H   0  0  0  0  0  0  0  0  0  0  0  0
  1  2  1  0
  2  3  1  0
  3  4  1  0
  4  5  1  0
  5  6  1  0
  6  7  1  0
  4  8  1  0
  8  9  1  0
  9 10  1  0
 10 11  1  0
 11 12  1  0
 12 13  1  0
 13 14  1  0
 14 15  1  0
 15 16  1  1
 15 17  1  0
 17 18  1  0
 15 19  1  0
 19 20  1  0
 20 21  1  0
 19 22  1  0
 11 23  1  0
 23 24  1  0
  2 25  1  0
 25 26  1  0
 26 27  1  0
 27 28  1  0
 28 29  1  0
 29 30  1  0
 30 31  1  0
 31 32  1  0
 31 33  1  0
 24  8  1  0
 30 26  1  0
 22 12  1  0
  1 34  1  0
  1 35  1  0
  1 36  1  0
  2 37  1  1
  3 38  1  0
  3 39  1  0
  4 40  1  6
  5 41  1  0
  5 42  1  0
  6 43  1  0
  6 44  1  0
  8 45  1  1
  9 46  1  0
  9 47  1  0
 10 48  1  0
 10 49  1  0
 11 50  1  1
 12 51  1  1
 13 52  1  0
 13 53  1  0
 14 54  1  0
 14 55  1  0
 17 56  1  0
 17 57  1  0
 18 58  1  0
 19 59  1  1
 21 60  1  0
 22 61  1  0
 22 62  1  0
 23 63  1  0
 23 64  1  0
 24 65  1  0
 24 66  1  0
 26 67  1  6
 27 68  1  0
 27 69  1  0
 28 70  1  0
 28 71  1  0
 29 72  1  0
 29 73  1  0
 30 74  1  6
 31 75  1  0
 32 76  1  0
 33 77  1  0
M  CHG  2   4   1  11   1
M  END

>  <ID>
DiffSBDD_70_num_sample_100

>  <docking_score>
-8.809

$$$$
DiffSBDD_71_num_sample_100
     RDKit          3D

 59 61  0  0  0  0  0  0  0  0999 V2000
    7.1680    0.5440  -13.5340 C   0  0  0  0  0  0  0  0  0  0  0  0
    6.5590    2.0250  -14.0880 C   0  0  0  0  0  0  0  0  0  0  0  0
    7.2700    2.2740  -15.3640 C   0  0  0  0  0  0  0  0  0  0  0  0
    7.1150    2.6230  -12.7940 N   0  0  0  0  0  0  0  0  0  0  0  0
    6.3560    3.9930  -12.2660 S   0  0  0  0  0  0  0  0  0  0  0  0
    5.6610    3.7770  -11.0090 O   0  0  0  0  0  0  0  0  0  0  0  0
    5.5980    4.6900  -13.2600 O   0  0  0  0  0  0  0  0  0  0  0  0
    7.8050    5.0200  -11.8260 C   0  0  0  0  0  0  0  0  0  0  0  0
    8.0600    5.2520  -10.5310 C   0  0  0  0  0  0  0  0  0  0  0  0
    9.1310    6.1470  -10.0450 C   0  0  1  0  0  0  0  0  0  0  0  0
    9.2620    5.7180   -8.5760 C   0  0  0  0  0  0  0  0  0  0  0  0
    9.7390    6.6680   -7.5310 C   0  0  0  0  0  0  0  0  0  0  0  0
   10.0020    8.0280   -8.0250 C   0  0  0  0  0  0  0  0  0  0  0  0
   10.9980    8.5360   -7.0250 N   0  0  0  0  0  0  0  0  0  0  0  0
   11.7890    9.5120   -7.1580 C   0  0  0  0  0  0  0  0  0  0  0  0
   12.4430    9.5860   -5.8820 N   0  0  0  0  0  0  0  0  0  0  0  0
   11.7350    8.5610   -5.2200 C   0  0  0  0  0  0  0  0  0  0  0  0
   11.8460    8.2400   -3.8550 C   0  0  2  0  0  0  0  0  0  0  0  0
   12.7910    8.9190   -2.9510 C   0  0  0  0  0  0  0  0  0  0  0  0
   12.7910    8.2090   -1.6190 C   0  0  0  0  0  0  0  0  0  0  0  0
   11.9480    6.8470   -1.9480 C   0  0  2  0  0  0  0  0  0  0  0  0
   12.8280    6.1000   -2.6490 F   0  0  0  0  0  0  0  0  0  0  0  0
   11.6690    6.7990   -3.3220 C   0  0  0  0  0  0  0  0  0  0  0  0
   10.9780    7.8550   -5.8730 N   0  0  0  0  0  0  0  0  0  0  0  0
   10.1870    6.2560  -11.1080 N   0  0  0  0  0  0  0  0  0  0  0  0
    9.7510    6.3660  -12.3280 C   0  0  0  0  0  0  0  0  0  0  0  0
    8.6980    5.6260  -12.9680 C   0  0  0  0  0  0  0  0  0  0  0  0
    8.6960    5.3440  -14.1560 O   0  0  0  0  0  0  0  0  0  0  0  0
    7.1708    0.5371  -12.4340 H   0  0  0  0  0  0  0  0  0  0  0  0
    6.5336   -0.2749  -13.9042 H   0  0  0  0  0  0  0  0  0  0  0  0
    8.1949    0.4083  -13.9042 H   0  0  0  0  0  0  0  0  0  0  0  0
    5.5268    2.2955  -14.3554 H   0  0  0  0  0  0  0  0  0  0  0  0
    8.2888    2.6308  -15.1525 H   0  0  0  0  0  0  0  0  0  0  0  0
    7.3214    1.3404  -15.9434 H   0  0  0  0  0  0  0  0  0  0  0  0
    6.7276    3.0357  -15.9434 H   0  0  0  0  0  0  0  0  0  0  0  0
    7.0360    1.9100  -12.0550 H   0  0  0  0  0  0  0  0  0  0  0  0
    7.4330    4.7446   -9.7830 H   0  0  0  0  0  0  0  0  0  0  0  0
    9.0456    7.2384   -9.9375 H   0  0  0  0  0  0  0  0  0  0  0  0
    8.2633    5.3829   -8.2594 H   0  0  0  0  0  0  0  0  0  0  0  0
   10.0755    4.9786   -8.6152 H   0  0  0  0  0  0  0  0  0  0  0  0
    8.9720    6.7292   -6.7449 H   0  0  0  0  0  0  0  0  0  0  0  0
   10.6982    6.2755   -7.1623 H   0  0  0  0  0  0  0  0  0  0  0  0
   10.4277    8.0095   -9.0391 H   0  0  0  0  0  0  0  0  0  0  0  0
    9.0998    8.6517   -8.1084 H   0  0  0  0  0  0  0  0  0  0  0  0
   12.5153    9.3233   -7.9623 H   0  0  0  0  0  0  0  0  0  0  0  0
   11.2767   10.4458   -7.4330 H   0  0  0  0  0  0  0  0  0  0  0  0
   13.2000   10.2000   -5.5500 H   0  0  0  0  0  0  0  0  0  0  0  0
   10.8791    8.7639   -3.8285 H   0  0  0  0  0  0  0  0  0  0  0  0
   13.8016    8.8904   -3.3844 H   0  0  0  0  0  0  0  0  0  0  0  0
   12.4872    9.9673   -2.8140 H   0  0  0  0  0  0  0  0  0  0  0  0
   13.8150    7.9744   -1.2930 H   0  0  0  0  0  0  0  0  0  0  0  0
   12.3600    8.8065   -0.8022 H   0  0  0  0  0  0  0  0  0  0  0  0
   11.2975    6.6820   -1.0764 H   0  0  0  0  0  0  0  0  0  0  0  0
   12.3684    6.1176   -3.8285 H   0  0  0  0  0  0  0  0  0  0  0  0
   10.6507    6.4273   -3.5090 H   0  0  0  0  0  0  0  0  0  0  0  0
   10.4760    6.9940   -5.6140 H   0  0  0  0  0  0  0  0  0  0  0  0
   10.7600    7.0870  -10.9010 H   0  0  0  0  0  0  0  0  0  0  0  0
    9.4443    7.4185  -12.4186 H   0  0  0  0  0  0  0  0  0  0  0  0
   10.6077    5.9131  -12.8485 H   0  0  0  0  0  0  0  0  0  0  0  0
  1  2  1  0
  2  3  1  0
  2  4  1  0
  4  5  1  0
  5  6  2  0
  5  7  2  0
  5  8  1  0
  8  9  2  0
  9 10  1  0
 10 11  1  0
 11 12  1  0
 12 13  1  0
 13 14  1  0
 14 15  1  0
 15 16  1  0
 16 17  2  0
 17 18  1  0
 18 19  1  0
 19 20  1  0
 20 21  1  0
 21 22  1  0
 21 23  1  0
 17 24  1  0
 10 25  1  0
 25 26  1  0
 26 27  1  0
 27 28  2  0
 27  8  1  0
 24 14  1  0
 23 18  1  0
  1 29  1  0
  1 30  1  0
  1 31  1  0
  2 32  1  0
  3 33  1  0
  3 34  1  0
  3 35  1  0
  4 36  1  0
  9 37  1  0
 10 38  1  1
 11 39  1  0
 11 40  1  0
 12 41  1  0
 12 42  1  0
 13 43  1  0
 13 44  1  0
 15 45  1  0
 15 46  1  0
 16 47  1  0
 18 48  1  1
 19 49  1  0
 19 50  1  0
 20 51  1  0
 20 52  1  0
 21 53  1  1
 23 54  1  0
 23 55  1  0
 24 56  1  0
 25 57  1  0
 26 58  1  0
 26 59  1  0
M  CHG  1  16   1
M  END

>  <ID>
DiffSBDD_71_num_sample_100

>  <docking_score>
-9.394

$$$$
DiffSBDD_72_num_sample_100
     RDKit          3D

 32 34  0  0  0  0  0  0  0  0999 V2000
   12.8490    8.3860   -1.1740 F   0  0  0  0  0  0  0  0  0  0  0  0
   12.2750    8.1370   -2.5180 C   0  0  0  0  0  0  0  0  0  0  0  0
   12.3240    9.2300   -3.5020 C   0  0  0  0  0  0  0  0  0  0  0  0
   12.0240    8.9480   -4.8330 C   0  0  0  0  0  0  0  0  0  0  0  0
   11.6550    7.7440   -5.2240 C   0  0  0  0  0  0  0  0  0  0  0  0
   11.4450    7.3600   -6.6570 C   0  0  0  0  0  0  0  0  0  0  0  0
   11.9580    8.0850   -7.7330 C   0  0  0  0  0  0  0  0  0  0  0  0
   11.3020    7.8630   -8.9580 C   0  0  0  0  0  0  0  0  0  0  0  0
   10.2000    6.9260   -9.0540 C   0  0  0  0  0  0  0  0  0  0  0  0
    9.0010    6.8140   -9.9950 C   0  0  0  0  0  0  0  0  0  0  0  0
    8.3840    5.4780   -9.6490 C   0  0  0  0  0  0  0  0  0  0  0  0
    9.3490    4.6870   -8.6550 C   0  0  0  0  0  0  0  0  0  0  0  0
   10.1440    5.8830   -8.1490 C   0  0  0  0  0  0  0  0  0  0  0  0
   10.6740    6.1150   -6.8680 N   0  0  0  0  0  0  0  0  0  0  0  0
   11.4050    6.5930   -4.2040 C   0  0  0  0  0  0  0  0  0  0  0  0
   11.7480    6.8580   -2.8740 C   0  0  0  0  0  0  0  0  0  0  0  0
   12.5925   10.2508   -3.1924 H   0  0  0  0  0  0  0  0  0  0  0  0
   12.0971    9.7529   -5.5792 H   0  0  0  0  0  0  0  0  0  0  0  0
   10.5280    7.9669   -6.6853 H   0  0  0  0  0  0  0  0  0  0  0  0
   11.8813    9.1556   -7.4924 H   0  0  0  0  0  0  0  0  0  0  0  0
   12.9952    7.7453   -7.8701 H   0  0  0  0  0  0  0  0  0  0  0  0
   10.9132    8.8383   -9.2862 H   0  0  0  0  0  0  0  0  0  0  0  0
   12.0820    7.3835   -9.5676 H   0  0  0  0  0  0  0  0  0  0  0  0
    9.6068    7.5539   -8.3729 H   0  0  0  0  0  0  0  0  0  0  0  0
    8.2871    7.6317   -9.8168 H   0  0  0  0  0  0  0  0  0  0  0  0
    9.2880    6.8847  -11.0546 H   0  0  0  0  0  0  0  0  0  0  0  0
    7.4100    5.6388   -9.1637 H   0  0  0  0  0  0  0  0  0  0  0  0
    8.2436    4.8903  -10.5682 H   0  0  0  0  0  0  0  0  0  0  0  0
    8.7961    4.1815   -7.8495 H   0  0  0  0  0  0  0  0  0  0  0  0
    9.9337    3.8662   -9.0959 H   0  0  0  0  0  0  0  0  0  0  0  0
   10.9822    5.6256   -4.5127 H   0  0  0  0  0  0  0  0  0  0  0  0
   11.6123    6.0837   -2.1046 H   0  0  0  0  0  0  0  0  0  0  0  0
  1  2  1  0
  2  3  2  0
  3  4  1  0
  4  5  2  0
  5  6  1  0
  6  7  1  0
  7  8  1  0
  8  9  1  0
  9 10  1  0
 10 11  1  0
 11 12  1  0
 12 13  1  0
 13 14  2  0
  5 15  1  0
 15 16  2  0
 16  2  1  0
 14  6  1  0
 13  9  1  0
  3 17  1  0
  4 18  1  0
  6 19  1  0
  7 20  1  0
  7 21  1  0
  8 22  1  0
  8 23  1  0
  9 24  1  0
 10 25  1  0
 10 26  1  0
 11 27  1  0
 11 28  1  0
 12 29  1  0
 12 30  1  0
 15 31  1  0
 16 32  1  0
M  END

>  <ID>
DiffSBDD_72_num_sample_100

>  <docking_score>
-9.162

$$$$
DiffSBDD_73_num_sample_100
     RDKit          3D

 43 45  0  0  0  0  0  0  0  0999 V2000
   12.6990    8.2870   -1.5930 C   0  0  0  0  0  0  0  0  0  0  0  0
   12.1780    7.2370   -2.4190 C   0  0  0  0  0  0  0  0  0  0  0  0
   12.0440    7.9970   -3.6550 N   0  0  2  0  0  0  0  0  0  0  0  0
   12.1490    9.5200   -3.5560 C   0  0  0  0  0  0  0  0  0  0  0  0
   12.7930    9.5790   -4.8890 C   0  0  0  0  0  0  0  0  0  0  0  0
   11.6890    9.3660   -6.0540 C   0  0  0  0  0  0  0  0  0  0  0  0
   10.9020    8.2650   -5.8810 C   0  0  1  0  0  0  0  0  0  0  0  0
   11.1730    7.6830   -7.3180 C   0  0  0  0  0  0  0  0  0  0  0  0
   12.3740    8.3670   -8.3270 C   0  0  0  0  0  0  0  0  0  0  0  0
   12.1000    8.0990   -9.8330 C   0  0  0  0  0  0  0  0  0  0  0  0
   10.8390    7.3210  -10.0200 C   0  0  0  0  0  0  0  0  0  0  0  0
   10.4520    7.0950  -11.3780 N   0  0  0  0  0  0  0  0  0  0  0  0
    9.3320    6.5100  -11.7400 C   0  0  0  0  0  0  0  0  0  0  0  0
    8.5530    5.8540  -10.7920 C   0  0  0  0  0  0  0  0  0  0  0  0
    7.4100    4.8260  -11.2430 C   0  0  0  0  0  0  0  0  0  0  0  0
    6.2380    4.9420  -10.9830 N   0  0  0  0  0  0  0  0  0  0  0  0
    8.8710    5.9830   -9.4750 C   0  0  0  0  0  0  0  0  0  0  0  0
    9.9790    6.7670   -9.2290 C   0  0  0  0  0  0  0  0  0  0  0  0
   10.0860    6.8600   -7.5450 C   0  0  0  0  0  0  0  0  0  0  0  0
   11.2280    7.3210   -4.5280 C   0  0  1  0  0  0  0  0  0  0  0  0
   11.6460    5.9900   -4.9570 O   0  0  0  0  0  0  0  0  0  0  0  0
   12.5667    8.0203   -0.5340 H   0  0  0  0  0  0  0  0  0  0  0  0
   13.7695    8.4239   -1.8057 H   0  0  0  0  0  0  0  0  0  0  0  0
   12.1604    9.2223   -1.8057 H   0  0  0  0  0  0  0  0  0  0  0  0
   12.8825    6.3983   -2.5202 H   0  0  0  0  0  0  0  0  0  0  0  0
   11.2645    6.7447   -2.0542 H   0  0  0  0  0  0  0  0  0  0  0  0
   12.9120    8.0330   -4.2100 H   0  0  0  0  0  0  0  0  0  0  0  0
   11.1769   10.0324   -3.5067 H   0  0  0  0  0  0  0  0  0  0  0  0
   12.6385    9.9832   -2.6866 H   0  0  0  0  0  0  0  0  0  0  0  0
   13.2722   10.5607   -5.0178 H   0  0  0  0  0  0  0  0  0  0  0  0
   13.5467    8.7808   -4.9588 H   0  0  0  0  0  0  0  0  0  0  0  0
   11.0400   10.2537   -6.0814 H   0  0  0  0  0  0  0  0  0  0  0  0
   12.2430    9.2157   -6.9924 H   0  0  0  0  0  0  0  0  0  0  0  0
    9.8433    8.4044   -5.6168 H   0  0  0  0  0  0  0  0  0  0  0  0
   13.2406    8.9316   -7.9525 H   0  0  0  0  0  0  0  0  0  0  0  0
   12.7495    8.4378  -10.6535 H   0  0  0  0  0  0  0  0  0  0  0  0
    9.0108    6.5390  -12.7917 H   0  0  0  0  0  0  0  0  0  0  0  0
    7.7167    3.9499  -11.8332 H   0  0  0  0  0  0  0  0  0  0  0  0
    5.5650    4.2350  -11.3120 H   0  0  0  0  0  0  0  0  0  0  0  0
    8.2922    5.5018   -8.6729 H   0  0  0  0  0  0  0  0  0  0  0  0
    9.4382    6.3759   -6.7994 H   0  0  0  0  0  0  0  0  0  0  0  0
   10.3287    7.1353   -3.9223 H   0  0  0  0  0  0  0  0  0  0  0  0
   10.8510    5.4670   -5.2310 H   0  0  0  0  0  0  0  0  0  0  0  0
  1  2  1  0
  2  3  1  0
  3  4  1  0
  4  5  1  0
  5  6  1  0
  6  7  1  0
  7  8  1  0
  8  9  2  0
  9 10  1  0
 10 11  2  0
 11 12  1  0
 12 13  2  0
 13 14  1  0
 14 15  1  0
 15 16  2  3
 14 17  2  0
 17 18  1  0
 18 19  2  0
  7 20  1  0
 20 21  1  0
 20  3  1  0
 19  8  1  0
 18 11  1  0
  1 22  1  0
  1 23  1  0
  1 24  1  0
  2 25  1  0
  2 26  1  0
  3 27  1  6
  4 28  1  0
  4 29  1  0
  5 30  1  0
  5 31  1  0
  6 32  1  0
  6 33  1  0
  7 34  1  6
  9 35  1  0
 10 36  1  0
 13 37  1  0
 15 38  1  0
 16 39  1  0
 17 40  1  0
 19 41  1  0
 20 42  1  1
 21 43  1  0
M  CHG  1   3   1
M  END

>  <ID>
DiffSBDD_73_num_sample_100

>  <docking_score>
-9.141

$$$$
DiffSBDD_74_num_sample_100
     RDKit          3D

 50 51  0  0  0  0  0  0  0  0999 V2000
    5.2200    3.5960  -13.2370 C   0  0  0  0  0  0  0  0  0  0  0  0
    5.4700    5.1070  -12.3600 C   0  0  1  0  0  0  0  0  0  0  0  0
    6.2110    4.3180  -11.3090 C   0  0  0  0  0  0  0  0  0  0  0  0
    7.7190    4.5610  -11.2600 C   0  0  2  0  0  0  0  0  0  0  0  0
    9.0500    4.9430  -10.7180 C   0  0  0  0  0  0  0  0  0  0  0  0
    8.8940    6.1080   -9.9040 O   0  0  0  0  0  0  0  0  0  0  0  0
    9.1410    6.0300   -8.6340 C   0  0  0  0  0  0  0  0  0  0  0  0
    8.4100    5.2730   -7.9350 O   0  0  0  0  0  0  0  0  0  0  0  0
   10.1670    6.8010   -8.1360 N   0  0  0  0  0  0  0  0  0  0  0  0
   10.3410    8.0770   -8.8450 C   0  0  0  0  0  0  0  0  0  0  0  0
   11.5370    8.7460   -8.2080 C   0  0  0  0  0  0  0  0  0  0  0  0
   11.7700    9.9690   -8.7990 F   0  0  0  0  0  0  0  0  0  0  0  0
   12.6640    8.0520   -8.3950 F   0  0  0  0  0  0  0  0  0  0  0  0
   11.1800    9.0220   -6.7110 C   0  0  0  0  0  0  0  0  0  0  0  0
   11.2110    7.6250   -6.1180 C   0  0  1  0  0  0  0  0  0  0  0  0
   11.3230    7.4010   -4.7780 C   0  0  0  0  0  0  0  0  0  0  0  0
   10.9170    6.3380   -4.2250 F   0  0  0  0  0  0  0  0  0  0  0  0
   12.1230    8.1210   -3.9990 F   0  0  0  0  0  0  0  0  0  0  0  0
   10.9320    6.5880   -7.1050 C   0  0  0  0  0  0  0  0  0  0  0  0
   11.5500    5.4400   -6.7780 F   0  0  0  0  0  0  0  0  0  0  0  0
    7.9880    3.7390  -12.6700 C   0  0  1  0  0  0  0  0  0  0  0  0
    7.3420    2.6170  -12.5570 F   0  0  0  0  0  0  0  0  0  0  0  0
    8.2330    5.2180  -13.4710 C   0  0  0  0  0  0  0  0  0  0  0  0
    7.7760    6.2050  -13.2090 C   0  0  0  0  0  0  0  0  0  0  0  0
    6.3000    6.2010  -13.2050 C   0  0  0  0  0  0  0  0  0  0  0  0
    5.6810    5.8850  -14.3440 O   0  0  0  0  0  0  0  0  0  0  0  0
    6.0780    7.3460  -12.4970 O   0  0  0  0  0  0  0  0  0  0  0  0
    5.0839    2.7736  -12.5192 H   0  0  0  0  0  0  0  0  0  0  0  0
    4.3240    3.6829  -13.8692 H   0  0  0  0  0  0  0  0  0  0  0  0
    6.0962    3.3897  -13.8692 H   0  0  0  0  0  0  0  0  0  0  0  0
    4.6497    5.7720  -12.0521 H   0  0  0  0  0  0  0  0  0  0  0  0
    5.7913    4.5805  -10.3267 H   0  0  0  0  0  0  0  0  0  0  0  0
    6.0796    3.2580  -11.5720 H   0  0  0  0  0  0  0  0  0  0  0  0
    7.8741    3.5287  -10.9133 H   0  0  0  0  0  0  0  0  0  0  0  0
    9.4537    4.1187  -10.1117 H   0  0  0  0  0  0  0  0  0  0  0  0
    9.7460    5.1521  -11.5438 H   0  0  0  0  0  0  0  0  0  0  0  0
   10.5273    7.8981   -9.9143 H   0  0  0  0  0  0  0  0  0  0  0  0
    9.4409    8.7051   -8.7721 H   0  0  0  0  0  0  0  0  0  0  0  0
   11.9268    9.6749   -6.2356 H   0  0  0  0  0  0  0  0  0  0  0  0
   10.2209    9.5423   -6.5718 H   0  0  0  0  0  0  0  0  0  0  0  0
   12.0960    7.3175   -5.5416 H   0  0  0  0  0  0  0  0  0  0  0  0
   10.4231    8.0067   -4.9608 H   0  0  0  0  0  0  0  0  0  0  0  0
   11.8154    6.8993   -7.6818 H   0  0  0  0  0  0  0  0  0  0  0  0
    8.6478    3.0943  -13.2691 H   0  0  0  0  0  0  0  0  0  0  0  0
    9.3191    5.3874  -13.4299 H   0  0  0  0  0  0  0  0  0  0  0  0
    7.6874    5.0096  -14.4032 H   0  0  0  0  0  0  0  0  0  0  0  0
    8.1238    6.4918  -12.2056 H   0  0  0  0  0  0  0  0  0  0  0  0
    8.0902    6.9175  -13.9859 H   0  0  0  0  0  0  0  0  0  0  0  0
    4.7800    5.5280  -14.1410 H   0  0  0  0  0  0  0  0  0  0  0  0
    5.2440    7.2530  -11.9720 H   0  0  0  0  0  0  0  0  0  0  0  0
  1  2  1  0
  2  3  1  0
  3  4  1  0
  4  5  1  0
  5  6  1  0
  6  7  1  0
  7  8  2  0
  7  9  1  0
  9 10  1  0
 10 11  1  0
 11 12  1  0
 11 13  1  0
 11 14  1  0
 14 15  1  0
 15 16  1  0
 16 17  1  0
 16 18  1  0
 15 19  1  0
 19 20  1  0
  4 21  1  0
 21 22  1  0
 21 23  1  0
 23 24  1  0
 24 25  1  0
 25 26  1  0
 25 27  1  0
 25  2  1  0
 19  9  1  0
  1 28  1  0
  1 29  1  0
  1 30  1  0
  2 31  1  1
  3 32  1  0
  3 33  1  0
  4 34  1  6
  5 35  1  0
  5 36  1  0
 10 37  1  0
 10 38  1  0
 14 39  1  0
 14 40  1  0
 15 41  1  6
 16 42  1  0
 19 43  1  0
 21 44  1  1
 23 45  1  0
 23 46  1  0
 24 47  1  0
 24 48  1  0
 26 49  1  0
 27 50  1  0
M  END

>  <ID>
DiffSBDD_74_num_sample_100

>  <docking_score>
-9.562

$$$$
DiffSBDD_75_num_sample_100
     RDKit          3D

 76 81  0  0  0  0  0  0  0  0999 V2000
   11.3130   10.1480   -4.2810 C   0  0  0  0  0  0  0  0  0  0  0  0
   12.1320    9.5850   -5.4930 C   0  0  1  0  0  0  0  0  0  0  0  0
   13.6690    9.5280   -5.1680 O   0  0  0  0  0  0  0  0  0  0  0  0
   11.1300    9.9200   -5.8540 C   0  0  2  0  0  0  0  0  0  0  0  0
   10.0560    8.6450   -6.4170 C   0  0  0  0  0  0  0  0  0  0  0  0
   10.9350    8.1500   -7.4980 N   0  0  1  0  0  0  0  0  0  0  0  0
   10.0110    7.0850   -8.2280 C   0  0  2  0  0  0  0  0  0  0  0  0
   10.1310    5.6900   -7.6980 C   0  0  0  0  0  0  0  0  0  0  0  0
    9.5140    4.6320   -8.5680 C   0  0  0  0  0  0  0  0  0  0  0  0
    9.4820    3.4030   -8.4250 O   0  0  0  0  0  0  0  0  0  0  0  0
    8.7090    5.2010   -9.6190 C   0  0  0  0  0  0  0  0  0  0  0  0
    8.6880    5.6510  -10.4320 C   0  0  2  0  0  0  0  0  0  0  0  0
    9.5410    6.8820   -9.8110 C   0  0  2  0  0  0  0  0  0  0  0  0
   10.8260    7.1900  -10.6010 C   0  0  0  0  0  0  0  0  0  0  0  0
   10.7760    6.7640  -12.1360 C   0  0  0  0  0  0  0  0  0  0  0  0
    9.1970    6.9090  -12.5420 C   0  0  2  0  0  0  0  0  0  0  0  0
    8.9250    8.2020  -12.4320 F   0  0  0  0  0  0  0  0  0  0  0  0
    7.6870    6.7650  -12.0610 C   0  0  0  0  0  0  0  0  0  0  0  0
    7.4920    5.6870  -11.1970 N   0  0  0  0  0  0  0  0  0  0  0  0
    6.6350    4.6340  -11.3950 C   0  0  0  0  0  0  0  0  0  0  0  0
    5.5230    5.0220  -11.0450 O   0  0  0  0  0  0  0  0  0  0  0  0
    6.9240    3.3630  -11.9160 C   0  0  0  0  0  0  0  0  0  0  0  0
    6.8520    2.9670  -13.3150 C   0  0  0  0  0  0  0  0  0  0  0  0
    6.1780    1.8450  -13.8130 C   0  0  0  0  0  0  0  0  0  0  0  0
    6.4150    1.3870  -15.0710 C   0  0  0  0  0  0  0  0  0  0  0  0
    5.9030    0.2100  -15.5200 N   0  0  0  0  0  0  0  0  0  0  0  0
    6.6030   -0.7180  -15.9160 O   0  0  0  0  0  0  0  0  0  0  0  0
    4.5730   -0.0580  -15.6390 O   0  0  0  0  0  0  0  0  0  0  0  0
    7.1830    2.1420  -15.8540 C   0  0  0  0  0  0  0  0  0  0  0  0
    7.7330    3.3790  -15.4460 C   0  0  0  0  0  0  0  0  0  0  0  0
    7.4750    3.8210  -14.2230 N   0  0  0  0  0  0  0  0  0  0  0  0
    8.6660    4.0630  -16.1790 C   0  0  0  0  0  0  0  0  0  0  0  0
    9.2630    3.2630  -17.2910 C   0  0  0  0  0  0  0  0  0  0  0  0
    8.2140    2.5570  -18.0270 C   0  0  1  0  0  0  0  0  0  0  0  0
    8.7100    1.5010  -18.9230 C   0  0  0  0  0  0  0  0  0  0  0  0
    8.4670    0.2920  -18.4010 O   0  0  0  0  0  0  0  0  0  0  0  0
    7.3240    1.7390  -17.2110 N   0  0  0  0  0  0  0  0  0  0  0  0
   11.6510    9.2200   -8.2110 C   0  0  0  0  0  0  0  0  0  0  0  0
   12.0180   10.2650   -6.7600 C   0  0  2  0  0  0  0  0  0  0  0  0
   11.7823    9.8254   -3.3399 H   0  0  0  0  0  0  0  0  0  0  0  0
   11.2998   11.2470   -4.3263 H   0  0  0  0  0  0  0  0  0  0  0  0
   10.2822    9.7667   -4.3263 H   0  0  0  0  0  0  0  0  0  0  0  0
   14.1810    9.4290   -6.0100 H   0  0  0  0  0  0  0  0  0  0  0  0
   10.3771   10.5162   -5.3176 H   0  0  0  0  0  0  0  0  0  0  0  0
    9.8634    7.8837   -5.6467 H   0  0  0  0  0  0  0  0  0  0  0  0
    9.0369    8.9442   -6.7031 H   0  0  0  0  0  0  0  0  0  0  0  0
   11.8010    7.6600   -7.2320 H   0  0  0  0  0  0  0  0  0  0  0  0
    9.2608    7.8420   -7.9559 H   0  0  0  0  0  0  0  0  0  0  0  0
   11.2001    5.4582   -7.5828 H   0  0  0  0  0  0  0  0  0  0  0  0
    9.5787    5.6707   -6.7469 H   0  0  0  0  0  0  0  0  0  0  0  0
    8.1167    4.3146   -9.8901 H   0  0  0  0  0  0  0  0  0  0  0  0
    8.7123    6.1661   -9.0913 H   0  0  0  0  0  0  0  0  0  0  0  0
    9.0756    5.2541  -11.3819 H   0  0  0  0  0  0  0  0  0  0  0  0
    8.6591    7.5343   -9.8935 H   0  0  0  0  0  0  0  0  0  0  0  0
   11.0088    8.2736  -10.5509 H   0  0  0  0  0  0  0  0  0  0  0  0
   11.6280    6.5967  -10.1376 H   0  0  0  0  0  0  0  0  0  0  0  0
   11.3990    7.4336  -12.7471 H   0  0  0  0  0  0  0  0  0  0  0  0
   11.1625    5.7479  -12.3040 H   0  0  0  0  0  0  0  0  0  0  0  0
    9.3983    6.0627  -13.2152 H   0  0  0  0  0  0  0  0  0  0  0  0
    7.3950    7.6890  -11.5405 H   0  0  0  0  0  0  0  0  0  0  0  0
    7.0718    6.5863  -12.9552 H   0  0  0  0  0  0  0  0  0  0  0  0
    7.9615    3.1583  -11.6133 H   0  0  0  0  0  0  0  0  0  0  0  0
    6.0630    2.8030  -11.5221 H   0  0  0  0  0  0  0  0  0  0  0  0
    5.4457    1.3264  -13.1767 H   0  0  0  0  0  0  0  0  0  0  0  0
    8.1838    4.9522  -16.6113 H   0  0  0  0  0  0  0  0  0  0  0  0
    9.4864    4.3210  -15.4932 H   0  0  0  0  0  0  0  0  0  0  0  0
    9.7972    3.9369  -17.9770 H   0  0  0  0  0  0  0  0  0  0  0  0
    9.9615    2.5263  -16.8675 H   0  0  0  0  0  0  0  0  0  0  0  0
    7.7344    3.4172  -18.5169 H   0  0  0  0  0  0  0  0  0  0  0  0
    8.2034    1.5840  -19.8959 H   0  0  0  0  0  0  0  0  0  0  0  0
    9.7959    1.6225  -19.0500 H   0  0  0  0  0  0  0  0  0  0  0  0
    9.3030   -0.2390  -18.3940 H   0  0  0  0  0  0  0  0  0  0  0  0
    6.8290    0.9200  -17.5930 H   0  0  0  0  0  0  0  0  0  0  0  0
   12.5630    8.8559   -8.7067 H   0  0  0  0  0  0  0  0  0  0  0  0
   11.1092    9.7040   -9.0370 H   0  0  0  0  0  0  0  0  0  0  0  0
   12.5297   11.1031   -7.2557 H   0  0  0  0  0  0  0  0  0  0  0  0
  1  2  1  0
  2  3  1  1
  2  4  1  0
  4  5  1  0
  5  6  1  0
  6  7  1  0
  7  8  1  0
  8  9  1  0
  9 10  2  0
  9 11  1  0
 11 12  1  0
 12 13  1  0
 13 14  1  0
 14 15  1  0
 15 16  1  0
 16 17  1  0
 16 18  1  0
 18 19  1  0
 19 20  1  0
 20 21  2  0
 20 22  1  0
 22 23  1  0
 23 24  2  0
 24 25  1  0
 25 26  1  0
 26 27  2  0
 26 28  1  0
 25 29  2  0
 29 30  1  0
 30 31  2  0
 30 32  1  0
 32 33  1  0
 33 34  1  0
 34 35  1  0
 35 36  1  0
 34 37  1  0
  6 38  1  0
 38 39  1  0
 39  2  1  0
 39  4  1  0
 13  7  1  0
 31 23  1  0
 19 12  1  0
 37 29  1  0
  1 40  1  0
  1 41  1  0
  1 42  1  0
  3 43  1  0
  4 44  1  1
  5 45  1  0
  5 46  1  0
  6 47  1  1
  7 48  1  1
  8 49  1  0
  8 50  1  0
 11 51  1  0
 11 52  1  0
 12 53  1  6
 13 54  1  6
 14 55  1  0
 14 56  1  0
 15 57  1  0
 15 58  1  0
 16 59  1  6
 18 60  1  0
 18 61  1  0
 22 62  1  0
 22 63  1  0
 24 64  1  0
 32 65  1  0
 32 66  1  0
 33 67  1  0
 33 68  1  0
 34 69  1  6
 35 70  1  0
 35 71  1  0
 36 72  1  0
 37 73  1  0
 38 74  1  0
 38 75  1  0
 39 76  1  6
M  CHG  3   6   1  26   1  28  -1
M  END

>  <ID>
DiffSBDD_75_num_sample_100

>  <docking_score>
-9.788

$$$$
DiffSBDD_76_num_sample_100
     RDKit          3D

 78 81  0  0  0  0  0  0  0  0999 V2000
   12.3790    8.4180   -2.4930 C   0  0  0  0  0  0  0  0  0  0  0  0
   12.5790    8.8010   -3.9460 C   0  0  0  0  0  0  0  0  0  0  0  0
   13.5770    9.5230   -4.2800 O   0  0  0  0  0  0  0  0  0  0  0  0
   11.7230    8.1840   -5.0250 C   0  0  0  0  0  0  0  0  0  0  0  0
   10.9700    6.9050   -5.0430 C   0  0  0  0  0  0  0  0  0  0  0  0
   10.4670    6.3800   -6.2580 C   0  0  0  0  0  0  0  0  0  0  0  0
   10.5600    7.1000   -7.4520 C   0  0  0  0  0  0  0  0  0  0  0  0
   10.1950    6.5340   -8.9000 C   0  0  0  0  0  0  0  0  0  0  0  0
   10.5680    7.2910  -10.0860 C   0  0  0  0  0  0  0  0  0  0  0  0
   11.0270    8.4400   -9.8130 C   0  0  0  0  0  0  0  0  0  0  0  0
   11.1360    9.1820   -8.5190 N   0  0  0  0  0  0  0  0  0  0  0  0
   11.1150    8.4170   -7.4240 C   0  0  0  0  0  0  0  0  0  0  0  0
   11.6610    8.9090   -6.1910 C   0  0  0  0  0  0  0  0  0  0  0  0
   12.1240   10.2030   -6.3130 O   0  0  0  0  0  0  0  0  0  0  0  0
   10.2660    6.8720  -11.5170 C   0  0  0  0  0  0  0  0  0  0  0  0
    9.0150    6.0310  -11.7370 C   0  0  0  0  0  0  0  0  0  0  0  0
    8.6010    5.5800  -10.5380 N   0  0  1  0  0  0  0  0  0  0  0  0
    7.4330    4.9690  -10.6190 C   0  0  0  0  0  0  0  0  0  0  0  0
    6.5520    4.6310  -11.6280 C   0  0  0  0  0  0  0  0  0  0  0  0
    6.3000    3.4070  -12.3310 C   0  0  0  0  0  0  0  0  0  0  0  0
    7.4860    2.9110  -13.2240 C   0  0  0  0  0  0  0  0  0  0  0  0
    7.0950    2.5140  -14.5620 N   0  0  2  0  0  0  0  0  0  0  0  0
    6.2730    1.3090  -14.6650 C   0  0  0  0  0  0  0  0  0  0  0  0
    6.8970    0.2630  -14.0410 O   0  0  0  0  0  0  0  0  0  0  0  0
    7.6900    3.1170  -15.6800 C   0  0  2  0  0  0  0  0  0  0  0  0
    7.8950    2.3660  -17.0230 C   0  0  0  0  0  0  0  0  0  0  0  0
    8.2870    4.4650  -15.3890 C   0  0  1  0  0  0  0  0  0  0  0  0
    9.5100    5.0570  -15.7560 C   0  0  0  0  0  0  0  0  0  0  0  0
   10.6970    4.6650  -16.6090 N   0  0  0  0  0  0  0  0  0  0  0  0
    7.1740    5.4760  -15.8610 C   0  0  1  0  0  0  0  0  0  0  0  0
    6.5610    5.6970  -17.3360 C   0  0  0  0  0  0  0  0  0  0  0  0
    5.8870    6.8770  -17.4960 C   0  0  0  0  0  0  0  0  0  0  0  0
    5.5930    7.7230  -16.3120 C   0  0  0  0  0  0  0  0  0  0  0  0
    5.8390    7.3410  -15.0140 C   0  0  0  0  0  0  0  0  0  0  0  0
    6.5200    6.1420  -14.8630 C   0  0  0  0  0  0  0  0  0  0  0  0
    9.3270    5.5350   -9.4260 C   0  0  0  0  0  0  0  0  0  0  0  0
   12.7908    9.2065   -1.8459 H   0  0  0  0  0  0  0  0  0  0  0  0
   11.3044    8.3005   -2.2893 H   0  0  0  0  0  0  0  0  0  0  0  0
   12.8967    7.4690   -2.2893 H   0  0  0  0  0  0  0  0  0  0  0  0
   10.8010    6.3595   -4.1029 H   0  0  0  0  0  0  0  0  0  0  0  0
    9.9942    5.3868   -6.2621 H   0  0  0  0  0  0  0  0  0  0  0  0
   11.4146    8.9901  -10.6832 H   0  0  0  0  0  0  0  0  0  0  0  0
   10.1609    7.7881  -12.1168 H   0  0  0  0  0  0  0  0  0  0  0  0
   11.1044    6.2229  -11.8099 H   0  0  0  0  0  0  0  0  0  0  0  0
    8.2275    6.6463  -12.1966 H   0  0  0  0  0  0  0  0  0  0  0  0
    9.2347    5.1872  -12.4077 H   0  0  0  0  0  0  0  0  0  0  0  0
    8.7590    6.4100   -9.9500 H   0  0  0  0  0  0  0  0  0  0  0  0
    7.6420    3.9956  -10.1513 H   0  0  0  0  0  0  0  0  0  0  0  0
    6.8567    5.8490  -10.2973 H   0  0  0  0  0  0  0  0  0  0  0  0
    5.5698    4.8882  -11.2049 H   0  0  0  0  0  0  0  0  0  0  0  0
    7.1120    5.1184  -12.4397 H   0  0  0  0  0  0  0  0  0  0  0  0
    6.0787    2.6251  -11.5896 H   0  0  0  0  0  0  0  0  0  0  0  0
    5.4598    3.6067  -13.0123 H   0  0  0  0  0  0  0  0  0  0  0  0
    8.2203    3.7258  -13.3064 H   0  0  0  0  0  0  0  0  0  0  0  0
    7.8973    2.0154  -12.7354 H   0  0  0  0  0  0  0  0  0  0  0  0
    6.3690    3.1790  -14.8640 H   0  0  0  0  0  0  0  0  0  0  0  0
    5.2991    1.4902  -14.1867 H   0  0  0  0  0  0  0  0  0  0  0  0
    6.1264    1.0611  -15.7266 H   0  0  0  0  0  0  0  0  0  0  0  0
    7.8670    0.4480  -13.9780 H   0  0  0  0  0  0  0  0  0  0  0  0
    6.9872    3.2282  -16.5189 H   0  0  0  0  0  0  0  0  0  0  0  0
    8.1797    1.3230  -16.8201 H   0  0  0  0  0  0  0  0  0  0  0  0
    6.9588    2.3849  -17.6003 H   0  0  0  0  0  0  0  0  0  0  0  0
    8.6917    2.8579  -17.6003 H   0  0  0  0  0  0  0  0  0  0  0  0
    8.6069    4.2399  -14.3609 H   0  0  0  0  0  0  0  0  0  0  0  0
    9.1877    6.0023  -16.2170 H   0  0  0  0  0  0  0  0  0  0  0  0
   10.0078    4.8200  -14.8041 H   0  0  0  0  0  0  0  0  0  0  0  0
   10.6070    3.6780  -16.8910 H   0  0  0  0  0  0  0  0  0  0  0  0
   10.7290    5.2610  -17.4490 H   0  0  0  0  0  0  0  0  0  0  0  0
   11.5650    4.7880  -16.0670 H   0  0  0  0  0  0  0  0  0  0  0  0
    8.0485    5.5739  -16.5211 H   0  0  0  0  0  0  0  0  0  0  0  0
    6.6751    4.9610  -18.1455 H   0  0  0  0  0  0  0  0  0  0  0  0
    5.5644    7.1974  -18.4976 H   0  0  0  0  0  0  0  0  0  0  0  0
    5.1515    8.7158  -16.4834 H   0  0  0  0  0  0  0  0  0  0  0  0
    5.5173    7.9457  -14.1533 H   0  0  0  0  0  0  0  0  0  0  0  0
    7.2809    6.3333  -14.0920 H   0  0  0  0  0  0  0  0  0  0  0  0
    5.6761    5.4577  -14.6912 H   0  0  0  0  0  0  0  0  0  0  0  0
    8.5959    5.3527   -8.6246 H   0  0  0  0  0  0  0  0  0  0  0  0
   10.0887    4.8136   -9.7566 H   0  0  0  0  0  0  0  0  0  0  0  0
  1  2  1  0
  2  3  2  0
  2  4  1  0
  4  5  2  0
  5  6  1  0
  6  7  2  0
  7  8  1  0
  8  9  2  0
  9 10  1  0
 10 11  2  0
 11 12  1  0
 12 13  2  0
 13 14  1  0
  9 15  1  0
 15 16  1  0
 16 17  1  0
 17 18  1  0
 18 19  1  0
 19 20  1  0
 20 21  1  0
 21 22  1  0
 22 23  1  0
 23 24  1  0
 22 25  1  0
 25 26  1  0
 25 27  1  0
 27 28  1  0
 28 29  1  0
 27 30  1  0
 30 31  1  0
 31 32  2  0
 32 33  1  0
 33 34  2  0
 34 35  1  0
 17 36  1  0
 13  4  1  0
 35 30  1  0
 12  7  1  0
 36  8  1  0
  1 37  1  0
  1 38  1  0
  1 39  1  0
  5 40  1  0
  6 41  1  0
 10 42  1  0
 15 43  1  0
 15 44  1  0
 16 45  1  0
 16 46  1  0
 17 47  1  1
 18 48  1  0
 18 49  1  0
 19 50  1  0
 19 51  1  0
 20 52  1  0
 20 53  1  0
 21 54  1  0
 21 55  1  0
 22 56  1  6
 23 57  1  0
 23 58  1  0
 24 59  1  0
 25 60  1  6
 26 61  1  0
 26 62  1  0
 26 63  1  0
 27 64  1  1
 28 65  1  0
 28 66  1  0
 29 67  1  0
 29 68  1  0
 29 69  1  0
 30 70  1  6
 31 71  1  0
 32 72  1  0
 33 73  1  0
 34 74  1  0
 35 75  1  0
 35 76  1  0
 36 77  1  0
 36 78  1  0
M  CHG  4  14  -1  17   1  22   1  29   1
M  END

>  <ID>
DiffSBDD_76_num_sample_100

>  <docking_score>
-9.613

$$$$
DiffSBDD_77_num_sample_100
     RDKit          3D

 44 46  0  0  0  0  0  0  0  0999 V2000
    8.6250    5.4830   -7.6890 C   0  0  0  0  0  0  0  0  0  0  0  0
    9.3690    5.2920   -9.1360 S   0  0  0  0  0  0  0  0  0  0  0  0
   10.0700    6.9460   -9.2940 C   0  0  1  0  0  0  0  0  0  0  0  0
   10.9110    6.9280  -10.6000 C   0  0  0  0  0  0  0  0  0  0  0  0
    9.7570    7.2820  -11.5050 C   0  0  1  0  0  0  0  0  0  0  0  0
   10.1460    6.1780  -12.7620 O   0  0  0  0  0  0  0  0  0  0  0  0
    9.0060    5.4480  -12.5550 N   0  0  0  0  0  0  0  0  0  0  0  0
    7.7740    6.5410  -12.6930 C   0  0  1  0  0  0  0  0  0  0  0  0
    6.4650    6.2340  -12.0630 N   0  0  0  0  0  0  0  0  0  0  0  0
    6.0880    4.9490  -11.7080 C   0  0  0  0  0  0  0  0  0  0  0  0
    5.2420    4.4090  -12.5140 O   0  0  0  0  0  0  0  0  0  0  0  0
    6.4420    4.3840  -10.6840 O   0  0  0  0  0  0  0  0  0  0  0  0
    8.4230    7.6420  -11.9220 C   0  0  2  0  0  0  0  0  0  0  0  0
    7.8920    8.9760  -11.8500 O   0  0  0  0  0  0  0  0  0  0  0  0
    9.4490    8.2430   -8.2200 S   0  0  0  0  0  0  0  0  0  0  0  0
   10.5740    8.2570   -6.6480 C   0  0  2  0  0  0  0  0  0  0  0  0
   11.3490    9.4030   -7.0530 C   0  0  0  0  0  0  0  0  0  0  0  0
   11.8130   10.3790   -6.0950 C   0  0  1  0  0  0  0  0  0  0  0  0
   11.0790   10.2710   -4.7800 O   0  0  0  0  0  0  0  0  0  0  0  0
   11.6720    9.2440   -3.9480 C   0  0  0  0  0  0  0  0  0  0  0  0
   12.3820    8.4190   -5.0170 C   0  0  2  0  0  0  0  0  0  0  0  0
   12.7920    9.3760   -5.9080 O   0  0  0  0  0  0  0  0  0  0  0  0
   11.4010    7.3960   -5.7300 C   0  0  0  0  0  0  0  0  0  0  0  0
   11.9970    6.3640   -6.3560 F   0  0  0  0  0  0  0  0  0  0  0  0
   10.4860    6.8660   -4.7810 F   0  0  0  0  0  0  0  0  0  0  0  0
    9.3457    5.2980   -6.8789 H   0  0  0  0  0  0  0  0  0  0  0  0
    8.2382    6.5096   -7.6083 H   0  0  0  0  0  0  0  0  0  0  0  0
    7.7915    4.7697   -7.6083 H   0  0  0  0  0  0  0  0  0  0  0  0
   10.7301    7.6498   -8.7658 H   0  0  0  0  0  0  0  0  0  0  0  0
   11.7092    7.6848  -10.6067 H   0  0  0  0  0  0  0  0  0  0  0  0
   11.4788    6.0143  -10.8296 H   0  0  0  0  0  0  0  0  0  0  0  0
    9.6597    8.1922  -10.8950 H   0  0  0  0  0  0  0  0  0  0  0  0
    9.0120    5.0240  -11.6160 H   0  0  0  0  0  0  0  0  0  0  0  0
    7.4684    6.6745  -13.7412 H   0  0  0  0  0  0  0  0  0  0  0  0
    5.8100    7.0080  -11.8840 H   0  0  0  0  0  0  0  0  0  0  0  0
    7.8288    7.9346  -11.0437 H   0  0  0  0  0  0  0  0  0  0  0  0
    7.6070    9.2660  -12.7530 H   0  0  0  0  0  0  0  0  0  0  0  0
    9.8157    7.9325   -5.9202 H   0  0  0  0  0  0  0  0  0  0  0  0
   12.2459    9.0094   -7.5537 H   0  0  0  0  0  0  0  0  0  0  0  0
   10.6238    9.9804   -7.6452 H   0  0  0  0  0  0  0  0  0  0  0  0
   11.8974   11.4471   -6.3442 H   0  0  0  0  0  0  0  0  0  0  0  0
   12.3803    9.6662   -3.2200 H   0  0  0  0  0  0  0  0  0  0  0  0
   10.9603    8.6828   -3.3246 H   0  0  0  0  0  0  0  0  0  0  0  0
   13.1946    7.8034   -4.6038 H   0  0  0  0  0  0  0  0  0  0  0  0
  1  2  1  0
  2  3  1  0
  3  4  1  0
  4  5  1  0
  5  6  1  0
  6  7  1  0
  7  8  1  0
  8  9  1  0
  9 10  1  0
 10 11  2  0
 10 12  1  0
  8 13  1  0
 13 14  1  0
  3 15  1  0
 15 16  1  0
 16 17  1  0
 17 18  1  0
 18 19  1  0
 19 20  1  0
 20 21  1  0
 21 22  1  0
 21 23  1  0
 23 24  1  0
 23 25  1  0
 13  5  1  0
 23 16  1  0
 22 18  1  0
  1 26  1  0
  1 27  1  0
  1 28  1  0
  3 29  1  1
  4 30  1  0
  4 31  1  0
  5 32  1  6
  7 33  1  0
  8 34  1  6
  9 35  1  0
 13 36  1  1
 14 37  1  0
 16 38  1  1
 17 39  1  0
 17 40  1  0
 18 41  1  6
 20 42  1  0
 20 43  1  0
 21 44  1  1
M  CHG  1  12  -1
M  END

>  <ID>
DiffSBDD_77_num_sample_100

>  <docking_score>
-7.616

$$$$
DiffSBDD_78_num_sample_100
     RDKit          3D

 75 84  0  0  0  0  0  0  0  0999 V2000
    8.6580    7.6010  -11.7700 C   0  0  0  0  0  0  0  0  0  0  0  0
    9.0160    6.5080  -11.0490 C   0  0  0  0  0  0  0  0  0  0  0  0
    9.1760    5.1860  -11.0610 C   0  0  2  0  0  0  0  0  0  0  0  0
    8.4760    4.1820  -11.8740 C   0  0  0  0  0  0  0  0  0  0  0  0
    7.0060    4.4470  -12.4440 C   0  0  2  0  0  0  0  0  0  0  0  0
    5.6780    4.4880  -12.3150 C   0  0  0  0  0  0  0  0  0  0  0  0
    6.3380    3.6870  -13.0280 C   0  0  2  0  0  0  0  0  0  0  0  0
    6.4250    2.3190  -12.8240 C   0  0  0  0  0  0  0  0  0  0  0  0
    6.7740    1.6260  -14.1010 C   0  0  0  0  0  0  0  0  0  0  0  0
    7.3930    0.2090  -13.8740 C   0  0  0  0  0  0  0  0  0  0  0  0
    6.3910   -0.5210  -14.6990 N   0  0  0  0  0  0  0  0  0  0  0  0
    5.7440    0.1200  -15.6590 C   0  0  1  0  0  0  0  0  0  0  0  0
    5.9880   -1.0280  -16.5560 C   0  0  0  0  0  0  0  0  0  0  0  0
    4.9130   -0.2940  -17.3570 C   0  0  1  0  0  0  0  0  0  0  0  0
    4.7970   -0.0610  -18.4780 C   0  0  1  0  0  0  0  0  0  0  0  0
    5.5870    0.7570  -18.0330 C   0  0  2  0  0  0  0  0  0  0  0  0
    6.4290    1.3860  -17.7710 C   0  0  0  0  0  0  0  0  0  0  0  0
    7.1140    0.2460  -18.3550 C   0  0  2  0  0  0  0  0  0  0  0  0
    8.2970    0.4740  -17.6790 C   0  0  0  0  0  0  0  0  0  0  0  0
    6.7610    0.7800  -19.6340 C   0  0  1  0  0  0  0  0  0  0  0  0
    6.9970   -0.5440  -20.5530 C   0  0  2  0  0  0  0  0  0  0  0  0
    5.8440   -0.2600  -19.6550 C   0  0  2  0  0  0  0  0  0  0  0  0
    6.7250   -1.0730  -18.9110 C   0  0  2  0  0  0  0  0  0  0  0  0
    7.3280   -2.3270  -18.5660 C   0  0  0  0  0  0  0  0  0  0  0  0
    8.5720    4.8230   -9.7320 O   0  0  0  0  0  0  0  0  0  0  0  0
    8.7140    6.0130   -9.1750 O   0  0  0  0  0  0  0  0  0  0  0  0
    9.5570    7.0400   -9.5810 C   0  0  2  0  0  0  0  0  0  0  0  0
   10.3960    8.2440   -9.9040 C   0  0  0  0  0  0  0  0  0  0  0  0
   11.6730    8.4500   -8.8230 C   0  0  1  0  0  0  0  0  0  0  0  0
   12.8000    8.0650   -9.6800 C   0  0  0  0  0  0  0  0  0  0  0  0
   12.4150    8.6200   -7.5510 C   0  0  0  0  0  0  0  0  0  0  0  0
   11.0710    7.8820   -7.5050 C   0  0  1  0  0  0  0  0  0  0  0  0
   10.6900    8.0020   -6.0800 O   0  0  0  0  0  0  0  0  0  0  0  0
    9.7760    6.7260   -7.9440 C   0  0  0  0  0  0  0  0  0  0  0  0
    9.3670    6.2480   -7.2410 O   0  0  0  0  0  0  0  0  0  0  0  0
    8.6783    8.5976  -11.3048 H   0  0  0  0  0  0  0  0  0  0  0  0
    8.3476    7.4901  -12.8195 H   0  0  0  0  0  0  0  0  0  0  0  0
   10.2153    5.1151  -11.4142 H   0  0  0  0  0  0  0  0  0  0  0  0
    9.1169    3.9874  -12.7466 H   0  0  0  0  0  0  0  0  0  0  0  0
    8.3072    3.3690  -11.1525 H   0  0  0  0  0  0  0  0  0  0  0  0
    7.7047    5.2951  -12.3936 H   0  0  0  0  0  0  0  0  0  0  0  0
    5.1873    4.1518  -11.3897 H   0  0  0  0  0  0  0  0  0  0  0  0
    4.8691    5.2212  -12.4494 H   0  0  0  0  0  0  0  0  0  0  0  0
    6.2412    3.4244  -14.0918 H   0  0  0  0  0  0  0  0  0  0  0  0
    7.2032    2.1125  -12.0745 H   0  0  0  0  0  0  0  0  0  0  0  0
    5.4524    1.9473  -12.4691 H   0  0  0  0  0  0  0  0  0  0  0  0
    5.8596    1.5174  -14.7027 H   0  0  0  0  0  0  0  0  0  0  0  0
    7.5305    2.2387  -14.6132 H   0  0  0  0  0  0  0  0  0  0  0  0
    8.4159    0.1220  -14.2692 H   0  0  0  0  0  0  0  0  0  0  0  0
    7.5296   -0.1224  -12.8340 H   0  0  0  0  0  0  0  0  0  0  0  0
    6.8860   -1.3070  -15.1450 H   0  0  0  0  0  0  0  0  0  0  0  0
    5.6490   -0.7560  -14.0250 H   0  0  0  0  0  0  0  0  0  0  0  0
    5.5964    1.0893  -15.1603 H   0  0  0  0  0  0  0  0  0  0  0  0
    6.9855   -1.0815  -17.0165 H   0  0  0  0  0  0  0  0  0  0  0  0
    5.9544   -2.0874  -16.2620 H   0  0  0  0  0  0  0  0  0  0  0  0
    3.8089   -0.3012  -18.8974 H   0  0  0  0  0  0  0  0  0  0  0  0
    5.9794    1.7023  -18.4360 H   0  0  0  0  0  0  0  0  0  0  0  0
    6.5152    2.3390  -18.3136 H   0  0  0  0  0  0  0  0  0  0  0  0
    6.6271    1.8209  -16.7802 H   0  0  0  0  0  0  0  0  0  0  0  0
    8.1127    0.4385  -16.5951 H   0  0  0  0  0  0  0  0  0  0  0  0
    9.0301   -0.2994  -17.9518 H   0  0  0  0  0  0  0  0  0  0  0  0
    8.6902    1.4645  -17.9518 H   0  0  0  0  0  0  0  0  0  0  0  0
    6.9108    1.8556  -19.8089 H   0  0  0  0  0  0  0  0  0  0  0  0
    7.4763   -0.8564  -21.4925 H   0  0  0  0  0  0  0  0  0  0  0  0
    7.3741   -2.4228  -17.4711 H   0  0  0  0  0  0  0  0  0  0  0  0
    6.7269   -3.1494  -18.9811 H   0  0  0  0  0  0  0  0  0  0  0  0
    8.3457   -2.3710  -18.9811 H   0  0  0  0  0  0  0  0  0  0  0  0
   10.8073    8.1258  -10.9174 H   0  0  0  0  0  0  0  0  0  0  0  0
    9.7497    9.1311   -9.8307 H   0  0  0  0  0  0  0  0  0  0  0  0
   13.6549    7.7730   -9.0524 H   0  0  0  0  0  0  0  0  0  0  0  0
   12.5047    7.2168  -10.3151 H   0  0  0  0  0  0  0  0  0  0  0  0
   13.0854    8.9166  -10.3151 H   0  0  0  0  0  0  0  0  0  0  0  0
   13.3483    8.0615   -7.3867 H   0  0  0  0  0  0  0  0  0  0  0  0
   12.8303    9.4876   -7.0174 H   0  0  0  0  0  0  0  0  0  0  0  0
   10.3710    7.1260   -5.7490 H   0  0  0  0  0  0  0  0  0  0  0  0
  1  2  2  0
  2  3  1  0
  3  4  1  0
  4  5  1  0
  5  6  1  0
  6  7  1  0
  7  8  1  0
  8  9  1  0
  9 10  1  0
 10 11  1  0
 11 12  1  0
 12 13  1  0
 14 13  1  1
 14 15  1  0
 15 16  1  0
 16 17  1  0
 17 18  1  0
 18 19  1  6
 18 20  1  0
 20 21  1  0
 21 22  1  0
 22 23  1  6
 23 24  1  1
  3 25  1  0
 25 26  1  0
 27 26  1  1
 27 28  1  0
 28 29  1  0
 29 30  1  6
 29 31  1  0
 31 32  1  0
 32 33  1  1
 32 34  1  0
 34 35  2  0
 27  2  1  0
 32 29  1  0
  7  5  1  0
 14 12  1  0
 22 15  1  0
 34 27  1  0
 16 14  1  0
 23 18  1  0
 22 20  1  0
 23 21  1  0
  1 36  1  0
  1 37  1  0
  3 38  1  1
  4 39  1  0
  4 40  1  0
  5 41  1  6
  6 42  1  0
  6 43  1  0
  7 44  1  6
  8 45  1  0
  8 46  1  0
  9 47  1  0
  9 48  1  0
 10 49  1  0
 10 50  1  0
 11 51  1  0
 11 52  1  0
 12 53  1  6
 13 54  1  0
 13 55  1  0
 15 56  1  6
 16 57  1  1
 17 58  1  0
 17 59  1  0
 19 60  1  0
 19 61  1  0
 19 62  1  0
 20 63  1  6
 21 64  1  6
 24 65  1  0
 24 66  1  0
 24 67  1  0
 28 68  1  0
 28 69  1  0
 30 70  1  0
 30 71  1  0
 30 72  1  0
 31 73  1  0
 31 74  1  0
 33 75  1  0
M  CHG  1  11   1
M  END

>  <ID>
DiffSBDD_78_num_sample_100

>  <docking_score>
-10.406

$$$$
DiffSBDD_79_num_sample_100
     RDKit          3D

 54 57  0  0  0  0  0  0  0  0999 V2000
   12.6720    8.3910   -8.0450 C   0  0  0  0  0  0  0  0  0  0  0  0
   11.4090    7.6830   -7.5130 C   0  0  2  0  0  0  0  0  0  0  0  0
   11.4900    7.2080   -6.2080 N   0  0  0  0  0  0  0  0  0  0  0  0
   11.6650    7.6620   -4.9080 C   0  0  0  0  0  0  0  0  0  0  0  0
   11.5730    6.5660   -3.5960 S   0  0  0  0  0  0  0  0  0  0  0  0
   12.2820    7.7350   -2.4770 C   0  0  0  0  0  0  0  0  0  0  0  0
   12.5360    8.9570   -3.1390 C   0  0  0  0  0  0  0  0  0  0  0  0
   12.0020    8.9430   -4.4230 C   0  0  2  0  0  0  0  0  0  0  0  0
   11.5150   10.1670   -4.9920 C   0  0  0  0  0  0  0  0  0  0  0  0
   10.8420   10.7210   -4.2410 O   0  0  0  0  0  0  0  0  0  0  0  0
   11.7680   10.6860   -6.0000 O   0  0  0  0  0  0  0  0  0  0  0  0
   10.3630    7.1040   -8.5480 C   0  0  1  0  0  0  0  0  0  0  0  0
   10.1310    7.7260   -9.9500 C   0  0  0  0  0  0  0  0  0  0  0  0
    9.4390    7.3610  -11.3110 C   0  0  0  0  0  0  0  0  0  0  0  0
    9.2860    5.8520  -11.1520 C   0  0  2  0  0  0  0  0  0  0  0  0
    7.8760    5.3720  -11.4260 C   0  0  1  0  0  0  0  0  0  0  0  0
    7.5970    5.9150  -13.1200 C   0  0  0  0  0  0  0  0  0  0  0  0
    6.6910    6.9000  -13.2770 C   0  0  0  0  0  0  0  0  0  0  0  0
    5.9930    7.2550  -14.4620 C   0  0  0  0  0  0  0  0  0  0  0  0
    5.9880    6.7600  -15.7620 C   0  0  0  0  0  0  0  0  0  0  0  0
    5.0810    7.2800  -16.5930 O   0  0  0  0  0  0  0  0  0  0  0  0
    6.7720    5.7610  -16.2780 C   0  0  0  0  0  0  0  0  0  0  0  0
    6.6930    5.3320  -17.4930 F   0  0  0  0  0  0  0  0  0  0  0  0
    7.8580    5.1410  -15.5560 C   0  0  0  0  0  0  0  0  0  0  0  0
    8.2440    5.2110  -14.2700 C   0  0  0  0  0  0  0  0  0  0  0  0
    8.7210    5.3280  -10.0000 C   0  0  2  0  0  0  0  0  0  0  0  0
    9.0580    5.0410   -8.8150 C   0  0  0  0  0  0  0  0  0  0  0  0
    9.6450    6.1840   -8.0530 C   0  0  0  0  0  0  0  0  0  0  0  0
   13.2842    8.7342   -7.1980 H   0  0  0  0  0  0  0  0  0  0  0  0
   13.2554    7.6884   -8.6582 H   0  0  0  0  0  0  0  0  0  0  0  0
   12.3770    9.2553   -8.6582 H   0  0  0  0  0  0  0  0  0  0  0  0
   10.7007    8.5001   -7.3115 H   0  0  0  0  0  0  0  0  0  0  0  0
   11.5834    7.9112   -1.6458 H   0  0  0  0  0  0  0  0  0  0  0  0
   13.2310    7.3323   -2.0934 H   0  0  0  0  0  0  0  0  0  0  0  0
   12.0795    9.7785   -2.5674 H   0  0  0  0  0  0  0  0  0  0  0  0
   13.6243    9.0995   -3.2111 H   0  0  0  0  0  0  0  0  0  0  0  0
   12.7917    9.1262   -5.1665 H   0  0  0  0  0  0  0  0  0  0  0  0
    9.5853    7.7592   -8.1286 H   0  0  0  0  0  0  0  0  0  0  0  0
    9.6302    8.6711   -9.6931 H   0  0  0  0  0  0  0  0  0  0  0  0
   11.1258    7.4252  -10.3103 H   0  0  0  0  0  0  0  0  0  0  0  0
    8.4638    7.8588  -11.4166 H   0  0  0  0  0  0  0  0  0  0  0  0
    9.9975    7.6724  -12.2061 H   0  0  0  0  0  0  0  0  0  0  0  0
   10.2695    5.6181  -11.5856 H   0  0  0  0  0  0  0  0  0  0  0  0
    7.4784    6.3278  -11.0541 H   0  0  0  0  0  0  0  0  0  0  0  0
    6.4655    7.4994  -12.3826 H   0  0  0  0  0  0  0  0  0  0  0  0
    4.9375    7.1776  -14.1620 H   0  0  0  0  0  0  0  0  0  0  0  0
    6.6090    8.1381  -14.6873 H   0  0  0  0  0  0  0  0  0  0  0  0
    8.4893    4.4873  -16.1758 H   0  0  0  0  0  0  0  0  0  0  0  0
    9.1716    4.6714  -14.0283 H   0  0  0  0  0  0  0  0  0  0  0  0
    9.3062    4.4746  -10.3731 H   0  0  0  0  0  0  0  0  0  0  0  0
    8.1648    4.6901   -8.2774 H   0  0  0  0  0  0  0  0  0  0  0  0
    9.8413    4.2720   -8.8859 H   0  0  0  0  0  0  0  0  0  0  0  0
    8.7883    6.6984   -7.5931 H   0  0  0  0  0  0  0  0  0  0  0  0
   10.3977    5.6515   -7.4531 H   0  0  0  0  0  0  0  0  0  0  0  0
  1  2  1  0
  2  3  1  0
  3  4  2  3
  4  5  1  0
  5  6  1  0
  6  7  1  0
  7  8  1  0
  8  9  1  0
  9 10  2  0
  9 11  1  0
  2 12  1  0
 12 13  1  0
 13 14  1  0
 14 15  1  0
 15 16  1  0
 16 17  1  0
 17 18  2  0
 18 19  1  0
 19 20  1  0
 20 21  1  0
 20 22  2  0
 22 23  1  0
 22 24  1  0
 24 25  2  0
 16 26  1  0
 26 27  1  0
 27 28  1  0
  8  4  1  0
 28 12  1  0
 26 15  1  0
 25 17  1  0
  1 29  1  0
  1 30  1  0
  1 31  1  0
  2 32  1  1
  6 33  1  0
  6 34  1  0
  7 35  1  0
  7 36  1  0
  8 37  1  6
 12 38  1  1
 13 39  1  0
 13 40  1  0
 14 41  1  0
 14 42  1  0
 15 43  1  6
 16 44  1  1
 18 45  1  0
 19 46  1  0
 19 47  1  0
 24 48  1  0
 25 49  1  0
 26 50  1  1
 27 51  1  0
 27 52  1  0
 28 53  1  0
 28 54  1  0
M  CHG  2  11  -1  21  -1
M  END

>  <ID>
DiffSBDD_79_num_sample_100

>  <docking_score>
-11.81

$$$$
DiffSBDD_7_num_sample_100
     RDKit          3D

 60 64  0  0  0  0  0  0  0  0999 V2000
    6.3990    0.4220  -12.8870 C   0  0  0  0  0  0  0  0  0  0  0  0
    5.7080    1.5390  -13.6840 C   0  0  1  0  0  0  0  0  0  0  0  0
    6.6640    2.4540  -14.1510 C   0  0  1  0  0  0  0  0  0  0  0  0
    7.3460    2.6790  -12.8460 C   0  0  0  0  0  0  0  0  0  0  0  0
    8.5580    2.8550  -12.8280 O   0  0  0  0  0  0  0  0  0  0  0  0
    6.5320    3.3870  -12.0420 O   0  0  0  0  0  0  0  0  0  0  0  0
    7.1590    2.1650  -15.5470 C   0  0  1  0  0  0  0  0  0  0  0  0
    7.3820    3.0520  -16.7770 O   0  0  0  0  0  0  0  0  0  0  0  0
    7.4580    4.4940  -16.6010 C   0  0  1  0  0  0  0  0  0  0  0  0
    7.2470    5.1350  -18.0410 C   0  0  0  0  0  0  0  0  0  0  0  0
    6.5150    6.4210  -17.6810 C   0  0  0  0  0  0  0  0  0  0  0  0
    6.8120    6.4890  -16.2200 C   0  0  2  0  0  0  0  0  0  0  0  0
    6.4790    5.0060  -15.6540 C   0  0  2  0  0  0  0  0  0  0  0  0
    6.6230    6.1160  -14.9350 N   0  0  0  0  0  0  0  0  0  0  0  0
    6.2090    6.8450  -13.8230 C   0  0  1  0  0  0  0  0  0  0  0  0
    6.2360    6.5820  -12.4690 O   0  0  0  0  0  0  0  0  0  0  0  0
    7.4170    6.7010  -12.7970 C   0  0  1  0  0  0  0  0  0  0  0  0
    8.5420    6.2310  -12.2990 C   0  0  0  0  0  0  0  0  0  0  0  0
    9.1180    6.2490  -10.9760 C   0  0  0  0  0  0  0  0  0  0  0  0
    8.7360    5.3390  -10.0180 C   0  0  0  0  0  0  0  0  0  0  0  0
    9.2580    5.4340   -8.7050 C   0  0  0  0  0  0  0  0  0  0  0  0
   10.0700    6.5090   -8.3960 C   0  0  0  0  0  0  0  0  0  0  0  0
   10.7270    6.6740   -7.0450 C   0  0  0  0  0  0  0  0  0  0  0  0
    9.8040    6.6450   -6.1270 F   0  0  0  0  0  0  0  0  0  0  0  0
   11.2020    7.8860   -6.9970 F   0  0  0  0  0  0  0  0  0  0  0  0
   11.6160    5.8270   -6.8240 F   0  0  0  0  0  0  0  0  0  0  0  0
   10.4990    7.4290   -9.3330 C   0  0  0  0  0  0  0  0  0  0  0  0
   10.0290    7.2920  -10.6340 C   0  0  0  0  0  0  0  0  0  0  0  0
    7.6780    0.8960  -15.6260 C   0  0  0  0  0  0  0  0  0  0  0  0
    6.7560   -0.0690  -16.0500 C   0  0  0  0  0  0  0  0  0  0  0  0
    5.4180   -0.0970  -15.7760 C   0  0  0  0  0  0  0  0  0  0  0  0
    4.8960    0.8640  -14.8030 C   0  0  1  0  0  0  0  0  0  0  0  0
    3.8500    0.2580  -14.1160 O   0  0  0  0  0  0  0  0  0  0  0  0
    6.2809    0.6130  -11.8102 H   0  0  0  0  0  0  0  0  0  0  0  0
    5.9416   -0.5459  -13.1401 H   0  0  0  0  0  0  0  0  0  0  0  0
    7.4692    0.3992  -13.1401 H   0  0  0  0  0  0  0  0  0  0  0  0
    5.0165    2.1279  -13.0635 H   0  0  0  0  0  0  0  0  0  0  0  0
    6.5117    3.4620  -14.5642 H   0  0  0  0  0  0  0  0  0  0  0  0
    6.3229    2.8233  -15.8254 H   0  0  0  0  0  0  0  0  0  0  0  0
    8.4349    4.7632  -16.1731 H   0  0  0  0  0  0  0  0  0  0  0  0
    8.2073    5.3416  -18.5361 H   0  0  0  0  0  0  0  0  0  0  0  0
    6.7085    4.4896  -18.7506 H   0  0  0  0  0  0  0  0  0  0  0  0
    6.9233    7.2879  -18.2212 H   0  0  0  0  0  0  0  0  0  0  0  0
    5.4453    6.4320  -17.9370 H   0  0  0  0  0  0  0  0  0  0  0  0
    7.2432    7.4685  -16.4743 H   0  0  0  0  0  0  0  0  0  0  0  0
    5.8662    4.1382  -15.3687 H   0  0  0  0  0  0  0  0  0  0  0  0
    5.4590    7.4059  -14.4000 H   0  0  0  0  0  0  0  0  0  0  0  0
    8.4311    7.1271  -12.7967 H   0  0  0  0  0  0  0  0  0  0  0  0
    8.4969    5.1588  -12.5405 H   0  0  0  0  0  0  0  0  0  0  0  0
    9.1876    7.0188  -12.7143 H   0  0  0  0  0  0  0  0  0  0  0  0
    8.0257    4.5382  -10.2715 H   0  0  0  0  0  0  0  0  0  0  0  0
    9.0228    4.6704   -7.9490 H   0  0  0  0  0  0  0  0  0  0  0  0
   11.1883    8.2414   -9.0592 H   0  0  0  0  0  0  0  0  0  0  0  0
   10.3638    7.9967  -11.4095 H   0  0  0  0  0  0  0  0  0  0  0  0
    8.5174    0.9088  -16.3368 H   0  0  0  0  0  0  0  0  0  0  0  0
    7.9896    0.6147  -14.6092 H   0  0  0  0  0  0  0  0  0  0  0  0
    7.1500   -0.8895  -16.6677 H   0  0  0  0  0  0  0  0  0  0  0  0
    4.7531   -0.8197  -16.2715 H   0  0  0  0  0  0  0  0  0  0  0  0
    4.7287    1.6917  -15.5080 H   0  0  0  0  0  0  0  0  0  0  0  0
    4.2180   -0.3530  -13.4290 H   0  0  0  0  0  0  0  0  0  0  0  0
  1  2  1  0
  2  3  1  0
  3  4  1  0
  4  5  2  0
  4  6  1  0
  3  7  1  0
  7  8  1  0
  8  9  1  0
  9 10  1  0
 10 11  1  0
 11 12  1  0
 12 13  1  0
 13 14  1  0
 14 15  1  0
 15 16  1  0
 16 17  1  0
 17 18  1  0
 18 19  1  0
 19 20  2  0
 20 21  1  0
 21 22  2  0
 22 23  1  0
 23 24  1  0
 23 25  1  0
 23 26  1  0
 22 27  1  0
 27 28  2  0
  7 29  1  0
 29 30  1  0
 30 31  2  0
 31 32  1  0
 32 33  1  0
 32  2  1  0
 13  9  1  0
 17 15  1  0
 28 19  1  0
 14 12  1  0
  1 34  1  0
  1 35  1  0
  1 36  1  0
  2 37  1  1
  3 38  1  6
  7 39  1  6
  9 40  1  1
 10 41  1  0
 10 42  1  0
 11 43  1  0
 11 44  1  0
 12 45  1  1
 13 46  1  6
 15 47  1  6
 17 48  1  1
 18 49  1  0
 18 50  1  0
 20 51  1  0
 21 52  1  0
 27 53  1  0
 28 54  1  0
 29 55  1  0
 29 56  1  0
 30 57  1  0
 31 58  1  0
 32 59  1  6
 33 60  1  0
M  CHG  1   6  -1
M  END

>  <ID>
DiffSBDD_7_num_sample_100

>  <docking_score>
-9.6

$$$$
DiffSBDD_80_num_sample_100
     RDKit          3D

 58 61  0  0  0  0  0  0  0  0999 V2000
    5.7540    4.3460  -12.8470 C   0  0  0  0  0  0  0  0  0  0  0  0
    6.2990    5.4940  -13.3870 C   0  0  0  0  0  0  0  0  0  0  0  0
    7.8590    5.5610  -13.4110 C   0  0  0  0  0  0  0  0  0  0  0  0
    8.3370    5.2660  -14.6940 C   0  0  0  0  0  0  0  0  0  0  0  0
    8.6680    4.2580  -15.7750 C   0  0  0  0  0  0  0  0  0  0  0  0
    7.6320    3.4030  -16.2860 C   0  0  0  0  0  0  0  0  0  0  0  0
    9.7370    4.3180  -16.2240 O   0  0  0  0  0  0  0  0  0  0  0  0
    8.4080    5.8920  -12.1260 C   0  0  1  0  0  0  0  0  0  0  0  0
    9.1160    5.0780  -11.3120 C   0  0  0  0  0  0  0  0  0  0  0  0
    8.4940    4.7850   -9.9020 C   0  0  0  0  0  0  0  0  0  0  0  0
    8.6370    5.3840   -8.8320 C   0  0  0  0  0  0  0  0  0  0  0  0
    9.5620    6.4660   -8.5230 C   0  0  0  0  0  0  0  0  0  0  0  0
   10.3600    7.3580   -9.5080 C   0  0  0  0  0  0  0  0  0  0  0  0
   10.2870    7.3940  -11.0510 C   0  0  0  0  0  0  0  0  0  0  0  0
    8.8250    7.3310  -11.5630 N   0  0  0  0  0  0  0  0  0  0  0  0
    8.1310    8.4750  -12.1740 C   0  0  0  0  0  0  0  0  0  0  0  0
   11.3500    8.2800   -8.7950 C   0  0  0  0  0  0  0  0  0  0  0  0
   11.8280    9.1650   -9.5000 O   0  0  0  0  0  0  0  0  0  0  0  0
   11.4470    8.3360   -7.3100 C   0  0  0  0  0  0  0  0  0  0  0  0
   12.0980    9.4070   -6.4650 S   0  0  0  0  0  0  0  0  0  0  0  0
   12.0170    8.6000   -5.0280 C   0  0  0  0  0  0  0  0  0  0  0  0
   12.4780    9.1090   -3.8400 C   0  0  0  0  0  0  0  0  0  0  0  0
   12.3860    8.4540   -2.5760 C   0  0  2  0  0  0  0  0  0  0  0  0
   12.9570    8.9800   -1.3700 O   0  0  0  0  0  0  0  0  0  0  0  0
   11.8860    6.9670   -2.4770 C   0  0  0  0  0  0  0  0  0  0  0  0
   12.9060    6.1990   -1.9780 F   0  0  0  0  0  0  0  0  0  0  0  0
   10.9270    6.9900   -1.5400 F   0  0  0  0  0  0  0  0  0  0  0  0
   11.3600    6.3810   -3.8600 C   0  0  0  0  0  0  0  0  0  0  0  0
   11.4110    7.2750   -5.1130 C   0  0  0  0  0  0  0  0  0  0  0  0
   10.8850    7.2510   -6.5080 C   0  0  0  0  0  0  0  0  0  0  0  0
    9.9830    6.2960   -7.0430 C   0  0  0  0  0  0  0  0  0  0  0  0
    5.7832    4.4075  -11.7491 H   0  0  0  0  0  0  0  0  0  0  0  0
    4.7109    4.2431  -13.1808 H   0  0  0  0  0  0  0  0  0  0  0  0
    6.3337    3.4728  -13.1808 H   0  0  0  0  0  0  0  0  0  0  0  0
    5.9417    5.5817  -14.4236 H   0  0  0  0  0  0  0  0  0  0  0  0
    5.9753    6.3151  -12.7305 H   0  0  0  0  0  0  0  0  0  0  0  0
    7.9089    4.4943  -13.1471 H   0  0  0  0  0  0  0  0  0  0  0  0
    7.6567    5.9080  -15.2728 H   0  0  0  0  0  0  0  0  0  0  0  0
    9.3325    5.0931  -14.2591 H   0  0  0  0  0  0  0  0  0  0  0  0
    7.0833    2.9502  -15.4470 H   0  0  0  0  0  0  0  0  0  0  0  0
    6.9382    3.9949  -16.9010 H   0  0  0  0  0  0  0  0  0  0  0  0
    8.0816    2.6095  -16.9010 H   0  0  0  0  0  0  0  0  0  0  0  0
    7.3339    5.7149  -12.2843 H   0  0  0  0  0  0  0  0  0  0  0  0
    9.2410    4.1150  -11.8288 H   0  0  0  0  0  0  0  0  0  0  0  0
   10.0554    5.6135  -11.1102 H   0  0  0  0  0  0  0  0  0  0  0  0
    7.8275    3.9109   -9.8602 H   0  0  0  0  0  0  0  0  0  0  0  0
    7.9838    5.0599   -8.0084 H   0  0  0  0  0  0  0  0  0  0  0  0
   10.7484    8.3269  -11.4070 H   0  0  0  0  0  0  0  0  0  0  0  0
   10.8216    6.5139  -11.4379 H   0  0  0  0  0  0  0  0  0  0  0  0
    7.7346    9.1285  -11.3829 H   0  0  0  0  0  0  0  0  0  0  0  0
    8.8376    9.0419  -12.7980 H   0  0  0  0  0  0  0  0  0  0  0  0
    7.3018    8.1102  -12.7980 H   0  0  0  0  0  0  0  0  0  0  0  0
   12.4006    7.7892   -7.3517 H   0  0  0  0  0  0  0  0  0  0  0  0
   12.9558   10.0995   -3.8642 H   0  0  0  0  0  0  0  0  0  0  0  0
   11.5438    9.1539   -2.6797 H   0  0  0  0  0  0  0  0  0  0  0  0
   13.4430    9.8170   -1.5740 H   0  0  0  0  0  0  0  0  0  0  0  0
   10.9669    5.3554   -3.9199 H   0  0  0  0  0  0  0  0  0  0  0  0
    9.5979    5.4674   -6.4305 H   0  0  0  0  0  0  0  0  0  0  0  0
  1  2  1  0
  2  3  1  0
  3  4  1  0
  4  5  1  0
  5  6  1  0
  5  7  2  0
  3  8  1  0
  8  9  1  0
  9 10  1  0
 10 11  2  0
 11 12  1  0
 12 13  2  0
 13 14  1  0
 14 15  1  0
 15 16  1  0
 13 17  1  0
 17 18  2  0
 17 19  1  0
 19 20  1  0
 20 21  1  0
 21 22  2  0
 22 23  1  0
 23 24  1  0
 23 25  1  0
 25 26  1  0
 25 27  1  0
 25 28  1  0
 28 29  2  0
 29 30  1  0
 30 31  2  0
 15  8  1  0
 30 19  1  0
 31 12  1  0
 29 21  1  0
  1 32  1  0
  1 33  1  0
  1 34  1  0
  2 35  1  0
  2 36  1  0
  3 37  1  0
  4 38  1  0
  4 39  1  0
  6 40  1  0
  6 41  1  0
  6 42  1  0
  8 43  1  1
  9 44  1  0
  9 45  1  0
 10 46  1  0
 11 47  1  0
 14 48  1  0
 14 49  1  0
 16 50  1  0
 16 51  1  0
 16 52  1  0
 19 53  1  0
 22 54  1  0
 23 55  1  1
 24 56  1  0
 28 57  1  0
 31 58  1  0
M  END

>  <ID>
DiffSBDD_80_num_sample_100

>  <docking_score>
-12.732

$$$$
DiffSBDD_81_num_sample_100
     RDKit          3D

 65 67  0  0  0  0  0  0  0  0999 V2000
   12.0530    6.7060   -2.4850 C   0  0  0  0  0  0  0  0  0  0  0  0
   11.7410    7.3070   -3.9560 C   0  0  0  0  0  0  0  0  0  0  0  0
   12.1760    8.7760   -4.0890 C   0  0  0  0  0  0  0  0  0  0  0  0
   11.8850    9.2860   -5.6040 C   0  0  1  0  0  0  0  0  0  0  0  0
   12.9600    9.9140   -6.3060 N   0  0  0  0  0  0  0  0  0  0  0  0
   11.4030    8.1750   -6.3860 C   0  0  0  0  0  0  0  0  0  0  0  0
   10.2030    8.2970   -7.1770 C   0  0  0  0  0  0  0  0  0  0  0  0
    9.2720    8.6840   -6.8060 O   0  0  0  0  0  0  0  0  0  0  0  0
   10.3460    7.3460   -8.8200 C   0  0  2  0  0  0  0  0  0  0  0  0
    9.3850    7.8530   -9.5780 C   0  0  1  0  0  0  0  0  0  0  0  0
    9.8450    6.8070  -11.0850 C   0  0  1  0  0  0  0  0  0  0  0  0
   11.0980    6.6570  -11.0630 O   0  0  0  0  0  0  0  0  0  0  0  0
   11.3520    6.9580  -12.5230 C   0  0  0  0  0  0  0  0  0  0  0  0
    9.4690    5.4710  -12.0280 C   0  0  1  0  0  0  0  0  0  0  0  0
    9.5640    4.1830  -11.4410 O   0  0  0  0  0  0  0  0  0  0  0  0
    8.1580    5.6210  -12.4740 C   0  0  1  0  0  0  0  0  0  0  0  0
    7.5640    6.9880  -12.7340 C   0  0  0  0  0  0  0  0  0  0  0  0
    7.5890    4.4580  -13.2190 N   0  0  0  0  0  0  0  0  0  0  0  0
    6.3060    4.0900  -12.6870 C   0  0  0  0  0  0  0  0  0  0  0  0
    6.0030    2.6620  -12.8530 C   0  0  0  0  0  0  0  0  0  0  0  0
    6.3380    1.9730  -14.0870 C   0  0  0  0  0  0  0  0  0  0  0  0
    5.7120    0.7010  -14.1280 C   0  0  0  0  0  0  0  0  0  0  0  0
    5.9470    0.1380  -15.3280 C   0  0  0  0  0  0  0  0  0  0  0  0
    6.9820    0.9630  -16.3070 S   0  0  0  0  0  0  0  0  0  0  0  0
    7.0640    2.1620  -15.1790 C   0  0  0  0  0  0  0  0  0  0  0  0
    8.1250    3.2020  -15.7100 C   0  0  0  0  0  0  0  0  0  0  0  0
    8.0490    4.3430  -14.6500 C   0  0  0  0  0  0  0  0  0  0  0  0
    9.1340    5.3020  -15.0220 O   0  0  0  0  0  0  0  0  0  0  0  0
    8.9090    6.7680   -8.9380 N   0  0  0  0  0  0  0  0  0  0  0  0
    9.0380    5.3840   -8.1170 C   0  0  0  0  0  0  0  0  0  0  0  0
    9.3950    4.5190   -8.7580 O   0  0  0  0  0  0  0  0  0  0  0  0
    8.2590    5.5550   -7.1980 O   0  0  0  0  0  0  0  0  0  0  0  0
   11.6896    7.4060   -1.7183 H   0  0  0  0  0  0  0  0  0  0  0  0
   11.5435    5.7380   -2.3688 H   0  0  0  0  0  0  0  0  0  0  0  0
   13.1378    6.5657   -2.3688 H   0  0  0  0  0  0  0  0  0  0  0  0
   12.2810    6.7087   -4.7047 H   0  0  0  0  0  0  0  0  0  0  0  0
   10.6535    7.2617   -4.1150 H   0  0  0  0  0  0  0  0  0  0  0  0
   11.6079    9.3935   -3.3777 H   0  0  0  0  0  0  0  0  0  0  0  0
   13.2504    8.8639   -3.8701 H   0  0  0  0  0  0  0  0  0  0  0  0
   11.1429   10.0882   -5.4782 H   0  0  0  0  0  0  0  0  0  0  0  0
   12.6900   10.0590   -7.2890 H   0  0  0  0  0  0  0  0  0  0  0  0
   13.1690   10.8240   -5.8700 H   0  0  0  0  0  0  0  0  0  0  0  0
   13.7950    9.3130   -6.2630 H   0  0  0  0  0  0  0  0  0  0  0  0
   12.2117    7.9059   -7.0814 H   0  0  0  0  0  0  0  0  0  0  0  0
   11.1172    7.4406   -5.6186 H   0  0  0  0  0  0  0  0  0  0  0  0
   11.3934    7.0363   -8.9504 H   0  0  0  0  0  0  0  0  0  0  0  0
    9.0220    8.8808   -9.7259 H   0  0  0  0  0  0  0  0  0  0  0  0
    9.0026    7.3873  -11.4894 H   0  0  0  0  0  0  0  0  0  0  0  0
   12.0593    7.7962  -12.6069 H   0  0  0  0  0  0  0  0  0  0  0  0
   11.7771    6.0691  -13.0121 H   0  0  0  0  0  0  0  0  0  0  0  0
   10.4043    7.2276  -13.0121 H   0  0  0  0  0  0  0  0  0  0  0  0
   10.2436    5.4758  -12.8090 H   0  0  0  0  0  0  0  0  0  0  0  0
   10.1360    3.6050  -12.0070 H   0  0  0  0  0  0  0  0  0  0  0  0
    7.6836    5.5722  -11.4828 H   0  0  0  0  0  0  0  0  0  0  0  0
    7.3490    7.4827  -11.7753 H   0  0  0  0  0  0  0  0  0  0  0  0
    8.2793    7.5955  -13.3078 H   0  0  0  0  0  0  0  0  0  0  0  0
    6.6318    6.8796  -13.3078 H   0  0  0  0  0  0  0  0  0  0  0  0
    6.2902    4.3290  -11.6134 H   0  0  0  0  0  0  0  0  0  0  0  0
    5.5446    4.6546  -13.2451 H   0  0  0  0  0  0  0  0  0  0  0  0
    6.5288    2.1329  -12.0446 H   0  0  0  0  0  0  0  0  0  0  0  0
    4.9032    2.6421  -12.8510 H   0  0  0  0  0  0  0  0  0  0  0  0
    5.1294    0.2483  -13.3122 H   0  0  0  0  0  0  0  0  0  0  0  0
    5.4790   -0.8094  -15.6338 H   0  0  0  0  0  0  0  0  0  0  0  0
    9.1314    2.7592  -15.7443 H   0  0  0  0  0  0  0  0  0  0  0  0
    7.9234    3.5454  -16.7354 H   0  0  0  0  0  0  0  0  0  0  0  0
  1  2  1  0
  2  3  1  0
  3  4  1  0
  4  5  1  0
  4  6  1  0
  6  7  1  0
  7  8  2  0
  7  9  1  0
  9 10  1  0
 10 11  1  0
 11 12  1  0
 12 13  1  0
 11 14  1  0
 14 15  1  0
 14 16  1  0
 16 17  1  0
 16 18  1  0
 18 19  1  0
 19 20  1  0
 20 21  1  0
 21 22  1  0
 22 23  2  0
 23 24  1  0
 24 25  1  0
 25 26  1  0
 26 27  1  0
 27 28  2  0
 10 29  1  0
 29 30  1  0
 30 31  2  0
 30 32  1  0
 29  9  1  0
 27 18  1  0
 25 21  2  0
  1 33  1  0
  1 34  1  0
  1 35  1  0
  2 36  1  0
  2 37  1  0
  3 38  1  0
  3 39  1  0
  4 40  1  1
  5 41  1  0
  5 42  1  0
  5 43  1  0
  6 44  1  0
  6 45  1  0
  9 46  1  6
 10 47  1  6
 11 48  1  6
 13 49  1  0
 13 50  1  0
 13 51  1  0
 14 52  1  6
 15 53  1  0
 16 54  1  1
 17 55  1  0
 17 56  1  0
 17 57  1  0
 19 58  1  0
 19 59  1  0
 20 60  1  0
 20 61  1  0
 22 62  1  0
 23 63  1  0
 26 64  1  0
 26 65  1  0
M  CHG  2   5   1  32  -1
M  END

>  <ID>
DiffSBDD_81_num_sample_100

>  <docking_score>
-8.28

$$$$
DiffSBDD_82_num_sample_100
     RDKit          3D

 64 68  0  0  0  0  0  0  0  0999 V2000
    5.7980    6.7520  -14.0660 C   0  0  0  0  0  0  0  0  0  0  0  0
    6.5470    6.2370  -13.1740 C   0  0  0  0  0  0  0  0  0  0  0  0
    6.3170    5.0150  -12.3340 C   0  0  1  0  0  0  0  0  0  0  0  0
    5.7510    3.3660  -12.2100 O   0  0  0  0  0  0  0  0  0  0  0  0
    6.6120    2.9280  -12.9040 C   0  0  0  0  0  0  0  0  0  0  0  0
    6.2090    1.8230  -13.6590 C   0  0  0  0  0  0  0  0  0  0  0  0
    7.6980    3.5700  -12.9300 N   0  0  0  0  0  0  0  0  0  0  0  0
    7.5300    4.5040  -11.9000 N   0  0  0  0  0  0  0  0  0  0  0  0
    8.5660    4.9660  -10.9790 C   0  0  2  0  0  0  0  0  0  0  0  0
    7.7450    5.0640   -9.6650 C   0  0  0  0  0  0  0  0  0  0  0  0
    8.7180    4.6160   -8.4990 C   0  0  0  0  0  0  0  0  0  0  0  0
    9.8710    5.1790   -8.5190 C   0  0  0  0  0  0  0  0  0  0  0  0
   10.1380    6.6580   -9.1830 C   0  0  1  0  0  0  0  0  0  0  0  0
   11.1750    7.4910   -8.5850 C   0  0  0  0  0  0  0  0  0  0  0  0
   12.0640    8.1050   -9.7020 C   0  0  0  0  0  0  0  0  0  0  0  0
   11.2560    7.6880   -7.3080 C   0  0  0  0  0  0  0  0  0  0  0  0
   10.7050    6.5040   -6.4910 C   0  0  0  0  0  0  0  0  0  0  0  0
   11.3620    6.2610   -5.2790 C   0  0  0  0  0  0  0  0  0  0  0  0
   11.7720    7.5110   -4.4830 C   0  0  0  0  0  0  0  0  0  0  0  0
   11.6530    8.7850   -5.1750 C   0  0  0  0  0  0  0  0  0  0  0  0
   11.5850    8.8590   -6.5910 C   0  0  0  0  0  0  0  0  0  0  0  0
   11.8090   10.0000   -7.2010 O   0  0  0  0  0  0  0  0  0  0  0  0
   11.5320   10.0770   -4.7160 C   0  0  0  0  0  0  0  0  0  0  0  0
   11.6640   10.6700   -3.4950 N   0  0  0  0  0  0  0  0  0  0  0  0
   12.0050    9.7850   -2.5950 C   0  0  0  0  0  0  0  0  0  0  0  0
   12.2230    8.4780   -2.3180 C   0  0  0  0  0  0  0  0  0  0  0  0
   12.6770    8.2820   -1.0240 O   0  0  0  0  0  0  0  0  0  0  0  0
   13.7900    8.4340   -0.8320 F   0  0  0  0  0  0  0  0  0  0  0  0
   12.0430    7.3470   -3.1730 C   0  0  0  0  0  0  0  0  0  0  0  0
   12.1180    6.1910   -2.6950 F   0  0  0  0  0  0  0  0  0  0  0  0
    9.3940    7.3940  -10.3180 C   0  0  0  0  0  0  0  0  0  0  0  0
    8.8800    6.4260  -11.5520 C   0  0  2  0  0  0  0  0  0  0  0  0
    7.9980    6.8750  -12.8310 C   0  0  0  0  0  0  0  0  0  0  0  0
    8.8070    6.6200  -13.9070 F   0  0  0  0  0  0  0  0  0  0  0  0
    7.9560    8.2450  -12.8400 F   0  0  0  0  0  0  0  0  0  0  0  0
    6.1188    7.6611  -14.5957 H   0  0  0  0  0  0  0  0  0  0  0  0
    4.8303    6.2877  -14.3067 H   0  0  0  0  0  0  0  0  0  0  0  0
    5.4366    5.6369  -12.1145 H   0  0  0  0  0  0  0  0  0  0  0  0
    5.9113    1.0068  -12.9843 H   0  0  0  0  0  0  0  0  0  0  0  0
    5.3555    2.1040  -14.2934 H   0  0  0  0  0  0  0  0  0  0  0  0
    7.0430    1.4885  -14.2934 H   0  0  0  0  0  0  0  0  0  0  0  0
    9.4892    4.3813  -10.8530 H   0  0  0  0  0  0  0  0  0  0  0  0
    7.4073    6.0983   -9.5031 H   0  0  0  0  0  0  0  0  0  0  0  0
    6.8489    4.4273   -9.7049 H   0  0  0  0  0  0  0  0  0  0  0  0
    8.2362    4.8549   -7.5394 H   0  0  0  0  0  0  0  0  0  0  0  0
    8.8947    3.5391   -8.6371 H   0  0  0  0  0  0  0  0  0  0  0  0
   10.1870    5.2580   -7.4683 H   0  0  0  0  0  0  0  0  0  0  0  0
   10.4206    4.5260   -9.2129 H   0  0  0  0  0  0  0  0  0  0  0  0
    9.3930    7.0976   -8.5034 H   0  0  0  0  0  0  0  0  0  0  0  0
   11.8441    6.6196   -8.5315 H   0  0  0  0  0  0  0  0  0  0  0  0
   12.8871    8.6735   -9.2445 H   0  0  0  0  0  0  0  0  0  0  0  0
   12.4775    7.2990  -10.3261 H   0  0  0  0  0  0  0  0  0  0  0  0
   11.4567    8.7771  -10.3261 H   0  0  0  0  0  0  0  0  0  0  0  0
    9.8569    5.8938   -6.8350 H   0  0  0  0  0  0  0  0  0  0  0  0
   11.5712    5.2426   -4.9197 H   0  0  0  0  0  0  0  0  0  0  0  0
   12.1140   10.0060   -8.1430 H   0  0  0  0  0  0  0  0  0  0  0  0
   12.2534   10.6281   -5.3372 H   0  0  0  0  0  0  0  0  0  0  0  0
   10.4320   10.0807   -4.7122 H   0  0  0  0  0  0  0  0  0  0  0  0
   12.3900   11.3980   -3.5480 H   0  0  0  0  0  0  0  0  0  0  0  0
   12.9778   10.1996   -2.2920 H   0  0  0  0  0  0  0  0  0  0  0  0
   10.9480    9.6660   -2.3145 H   0  0  0  0  0  0  0  0  0  0  0  0
    8.5139    7.8910   -9.8839 H   0  0  0  0  0  0  0  0  0  0  0  0
   10.1175    8.0966  -10.7571 H   0  0  0  0  0  0  0  0  0  0  0  0
    9.7639    6.5259  -12.1992 H   0  0  0  0  0  0  0  0  0  0  0  0
  1  2  2  0
  2  3  1  0
  3  4  1  0
  4  5  1  0
  5  6  1  0
  5  7  2  0
  7  8  1  0
  8  9  1  0
  9 10  1  0
 10 11  1  0
 11 12  1  0
 12 13  1  0
 13 14  1  0
 14 15  1  0
 14 16  1  0
 16 17  2  0
 17 18  1  0
 18 19  2  0
 19 20  1  0
 20 21  2  0
 21 22  1  0
 20 23  1  0
 23 24  1  0
 24 25  1  0
 25 26  1  0
 26 27  1  0
 27 28  1  0
 26 29  2  0
 29 30  1  0
 13 31  1  0
 31 32  1  0
 32 33  1  0
 33 34  1  0
 33 35  1  0
 33  2  1  0
  8  3  1  0
 32  9  1  0
 21 16  1  0
 29 19  1  0
  1 36  1  0
  1 37  1  0
  3 38  1  1
  6 39  1  0
  6 40  1  0
  6 41  1  0
  9 42  1  1
 10 43  1  0
 10 44  1  0
 11 45  1  0
 11 46  1  0
 12 47  1  0
 12 48  1  0
 13 49  1  6
 14 50  1  0
 15 51  1  0
 15 52  1  0
 15 53  1  0
 17 54  1  0
 18 55  1  0
 22 56  1  0
 23 57  1  0
 23 58  1  0
 24 59  1  0
 25 60  1  0
 25 61  1  0
 31 62  1  0
 31 63  1  0
 32 64  1  6
M  END

>  <ID>
DiffSBDD_82_num_sample_100

>  <docking_score>
-12.879

$$$$
DiffSBDD_83_num_sample_100
     RDKit          3D

 49 53  0  0  0  0  0  0  0  0999 V2000
   12.1010    9.6170   -1.3580 O   0  0  0  0  0  0  0  0  0  0  0  0
   12.8930    8.4720   -1.3190 C   0  0  0  0  0  0  0  0  0  0  0  0
   12.6530    7.4270   -2.1780 C   0  0  0  0  0  0  0  0  0  0  0  0
   12.0880    7.7640   -3.6510 C   0  0  0  0  0  0  0  0  0  0  0  0
   11.5020    6.6340   -4.1210 C   0  0  0  0  0  0  0  0  0  0  0  0
   10.9040    6.4490   -5.3270 C   0  0  0  0  0  0  0  0  0  0  0  0
   10.7960    7.5350   -6.1750 C   0  0  0  0  0  0  0  0  0  0  0  0
   10.1130    7.2790   -7.4870 C   0  0  1  0  0  0  0  0  0  0  0  0
    9.2700    6.1780   -7.6690 C   0  0  0  0  0  0  0  0  0  0  0  0
    9.3110    6.0560   -9.1740 C   0  0  0  0  0  0  0  0  0  0  0  0
    8.9600    5.3270  -10.3770 C   0  0  0  0  0  0  0  0  0  0  0  0
    9.3530    6.2910  -11.4200 C   0  0  0  0  0  0  0  0  0  0  0  0
    8.8320    6.1760  -12.8000 C   0  0  1  0  0  0  0  0  0  0  0  0
    8.1410    5.1860  -13.5130 C   0  0  2  0  0  0  0  0  0  0  0  0
    7.3660    5.0860  -14.8580 C   0  0  0  0  0  0  0  0  0  0  0  0
    6.0550    6.0540  -14.6660 C   0  0  0  0  0  0  0  0  0  0  0  0
    6.5680    7.1570  -13.5610 C   0  0  0  0  0  0  0  0  0  0  0  0
    7.2670    6.2160  -12.5820 C   0  0  2  0  0  0  0  0  0  0  0  0
    9.8080    7.3850  -10.9250 C   0  0  0  0  0  0  0  0  0  0  0  0
    9.8970    7.3070   -9.5850 C   0  0  0  0  0  0  0  0  0  0  0  0
   10.3680    7.9810   -8.5870 N   0  0  0  0  0  0  0  0  0  0  0  0
   11.4200    8.7470   -5.8590 C   0  0  0  0  0  0  0  0  0  0  0  0
   12.0770    8.8750   -4.5340 C   0  0  0  0  0  0  0  0  0  0  0  0
   11.8620    9.8220   -2.2970 H   0  0  0  0  0  0  0  0  0  0  0  0
   13.9275    8.7984   -1.5015 H   0  0  0  0  0  0  0  0  0  0  0  0
   12.6562    8.0417   -0.3348 H   0  0  0  0  0  0  0  0  0  0  0  0
   13.6028    6.8878   -2.3087 H   0  0  0  0  0  0  0  0  0  0  0  0
   11.8409    6.8612   -1.6980 H   0  0  0  0  0  0  0  0  0  0  0  0
   11.5123    5.7654   -3.4462 H   0  0  0  0  0  0  0  0  0  0  0  0
   10.5166    5.4622   -5.6203 H   0  0  0  0  0  0  0  0  0  0  0  0
   10.9719    6.6758   -7.8164 H   0  0  0  0  0  0  0  0  0  0  0  0
    9.6644    5.2770   -7.1763 H   0  0  0  0  0  0  0  0  0  0  0  0
    8.2625    6.2927   -7.2426 H   0  0  0  0  0  0  0  0  0  0  0  0
    8.5192    4.3247  -10.4827 H   0  0  0  0  0  0  0  0  0  0  0  0
    9.7209    6.6500  -13.2419 H   0  0  0  0  0  0  0  0  0  0  0  0
    8.5653    4.1849  -13.6796 H   0  0  0  0  0  0  0  0  0  0  0  0
    7.9902    5.4413  -15.6912 H   0  0  0  0  0  0  0  0  0  0  0  0
    7.0832    4.0499  -15.0958 H   0  0  0  0  0  0  0  0  0  0  0  0
    5.7814    6.5414  -15.6134 H   0  0  0  0  0  0  0  0  0  0  0  0
    5.1555    5.5071  -14.3469 H   0  0  0  0  0  0  0  0  0  0  0  0
    7.2651    7.8858  -14.0001 H   0  0  0  0  0  0  0  0  0  0  0  0
    5.7799    7.7888  -13.1255 H   0  0  0  0  0  0  0  0  0  0  0  0
    6.5847    6.2397  -11.7195 H   0  0  0  0  0  0  0  0  0  0  0  0
   10.0878    8.2684  -11.5178 H   0  0  0  0  0  0  0  0  0  0  0  0
   10.8561    6.7768   -9.6796 H   0  0  0  0  0  0  0  0  0  0  0  0
    9.9090    8.9020   -8.5330 H   0  0  0  0  0  0  0  0  0  0  0  0
   11.3800    8.1390   -8.6960 H   0  0  0  0  0  0  0  0  0  0  0  0
   11.4236    9.5831   -6.5738 H   0  0  0  0  0  0  0  0  0  0  0  0
   12.5512    9.8227   -4.2391 H   0  0  0  0  0  0  0  0  0  0  0  0
  1  2  1  0
  2  3  1  0
  3  4  1  0
  4  5  2  0
  5  6  1  0
  6  7  2  0
  7  8  1  0
  8  9  1  0
  9 10  1  0
 10 11  2  0
 11 12  1  0
 12 13  1  0
 13 14  1  0
 14 15  1  0
 15 16  1  0
 16 17  1  0
 17 18  1  0
 12 19  2  0
 19 20  1  0
 20 21  1  0
  7 22  1  0
 22 23  2  0
 23  4  1  0
 21  8  1  0
 20 10  1  0
 18 13  1  0
 18 14  1  0
  1 24  1  0
  2 25  1  0
  2 26  1  0
  3 27  1  0
  3 28  1  0
  5 29  1  0
  6 30  1  0
  8 31  1  1
  9 32  1  0
  9 33  1  0
 11 34  1  0
 13 35  1  6
 14 36  1  1
 15 37  1  0
 15 38  1  0
 16 39  1  0
 16 40  1  0
 17 41  1  0
 17 42  1  0
 18 43  1  1
 19 44  1  0
 20 45  1  0
 21 46  1  0
 21 47  1  0
 22 48  1  0
 23 49  1  0
M  CHG  1  21   1
M  END

>  <ID>
DiffSBDD_83_num_sample_100

>  <docking_score>
-10.254

$$$$
DiffSBDD_85_num_sample_100
     RDKit          3D

 86 88  0  0  0  0  0  0  0  0999 V2000
    5.5760   -1.3370  -19.1880 C   0  0  0  0  0  0  0  0  0  0  0  0
    6.1580   -1.0290  -18.4460 C   0  0  0  0  0  0  0  0  0  0  0  0
    6.4420   -0.2890  -17.4660 C   0  0  0  0  0  0  0  0  0  0  0  0
    6.9190    1.2760  -17.6650 C   0  0  0  0  0  0  0  0  0  0  0  0
    7.0750    2.0230  -18.7360 C   0  0  0  0  0  0  0  0  0  0  0  0
    7.1730    2.3870  -17.0340 C   0  0  1  0  0  0  0  0  0  0  0  0
    7.1770    3.2450  -16.7080 C   0  0  0  0  0  0  0  0  0  0  0  0
    7.5690    3.0660  -15.0800 C   0  0  0  0  0  0  0  0  0  0  0  0
    7.1510    2.4640  -14.3290 C   0  0  2  0  0  0  0  0  0  0  0  0
    7.2360    2.7700  -13.2150 C   0  0  0  0  0  0  0  0  0  0  0  0
    6.4380    3.3330  -12.3960 C   0  0  0  0  0  0  0  0  0  0  0  0
    7.2430    4.3620  -11.7760 C   0  0  2  0  0  0  0  0  0  0  0  0
    6.6730    4.6010  -10.5890 O   0  0  0  0  0  0  0  0  0  0  0  0
    7.3800    5.6220  -12.5210 C   0  0  1  0  0  0  0  0  0  0  0  0
    6.1220    6.2360  -13.1250 C   0  0  0  0  0  0  0  0  0  0  0  0
    8.0500    6.3700  -11.4090 N   0  0  0  0  0  0  0  0  0  0  0  0
    8.9670    7.3710  -11.9580 C   0  0  1  0  0  0  0  0  0  0  0  0
    8.5100    8.7540  -11.7400 C   0  0  0  0  0  0  0  0  0  0  0  0
   10.2880    7.1680  -11.4610 C   0  0  2  0  0  0  0  0  0  0  0  0
   11.2740    6.5510  -12.4060 O   0  0  0  0  0  0  0  0  0  0  0  0
   10.5060    7.6240  -10.2000 C   0  0  0  0  0  0  0  0  0  0  0  0
   11.6010    7.9950   -9.9670 O   0  0  0  0  0  0  0  0  0  0  0  0
    9.5200    7.5140   -9.1950 O   0  0  0  0  0  0  0  0  0  0  0  0
    9.8650    6.6160   -7.7610 C   0  0  1  0  0  0  0  0  0  0  0  0
    9.6350    5.3440   -8.3480 C   0  0  0  0  0  0  0  0  0  0  0  0
   11.3520    6.1540   -6.8710 C   0  0  0  0  0  0  0  0  0  0  0  0
   11.7460    7.3200   -6.2500 C   0  0  0  0  0  0  0  0  0  0  0  0
   10.5070    8.4390   -6.4960 C   0  0  0  0  0  0  0  0  0  0  0  0
    9.5020    8.3110   -7.1630 C   0  0  2  0  0  0  0  0  0  0  0  0
    8.4160    8.6410   -7.1460 O   0  0  0  0  0  0  0  0  0  0  0  0
    9.3820    6.5960   -6.6190 C   0  0  0  0  0  0  0  0  0  0  0  0
    7.1950    0.7310  -14.9530 C   0  0  0  0  0  0  0  0  0  0  0  0
    6.1890    0.1480  -15.3370 C   0  0  0  0  0  0  0  0  0  0  0  0
    4.9870    0.9070  -14.8170 C   0  0  0  0  0  0  0  0  0  0  0  0
    6.2700   -0.9790  -16.0350 C   0  0  1  0  0  0  0  0  0  0  0  0
    5.8110   -2.2380  -16.2220 O   0  0  0  0  0  0  0  0  0  0  0  0
    5.8977   -2.1705  -19.8297 H   0  0  0  0  0  0  0  0  0  0  0  0
    4.6090   -0.8450  -19.3691 H   0  0  0  0  0  0  0  0  0  0  0  0
    7.0296   -1.6963  -18.5173 H   0  0  0  0  0  0  0  0  0  0  0  0
    7.9733    1.9524  -19.3670 H   0  0  0  0  0  0  0  0  0  0  0  0
    6.5194    2.3350  -19.6327 H   0  0  0  0  0  0  0  0  0  0  0  0
    7.4112    2.5094  -15.9671 H   0  0  0  0  0  0  0  0  0  0  0  0
    7.9311    3.8557  -17.2261 H   0  0  0  0  0  0  0  0  0  0  0  0
    6.2146    3.7567  -16.8560 H   0  0  0  0  0  0  0  0  0  0  0  0
    8.6273    2.7664  -15.0969 H   0  0  0  0  0  0  0  0  0  0  0  0
    7.1422    4.0199  -14.7365 H   0  0  0  0  0  0  0  0  0  0  0  0
    6.0915    2.6836  -14.1309 H   0  0  0  0  0  0  0  0  0  0  0  0
    7.4830    1.8228  -12.7131 H   0  0  0  0  0  0  0  0  0  0  0  0
    7.8553    3.6613  -13.3938 H   0  0  0  0  0  0  0  0  0  0  0  0
    5.5803    3.7733  -12.9256 H   0  0  0  0  0  0  0  0  0  0  0  0
    6.0143    2.6285  -11.6651 H   0  0  0  0  0  0  0  0  0  0  0  0
    8.2752    3.9859  -11.7197 H   0  0  0  0  0  0  0  0  0  0  0  0
    7.0150    5.4570  -10.2260 H   0  0  0  0  0  0  0  0  0  0  0  0
    7.9114    5.5713  -13.4828 H   0  0  0  0  0  0  0  0  0  0  0  0
    5.4502    6.5639  -12.3180 H   0  0  0  0  0  0  0  0  0  0  0  0
    6.3980    7.1007  -13.7464 H   0  0  0  0  0  0  0  0  0  0  0  0
    5.6101    5.4864  -13.7464 H   0  0  0  0  0  0  0  0  0  0  0  0
    8.5790    5.7070  -10.8230 H   0  0  0  0  0  0  0  0  0  0  0  0
    7.3330    6.8450  -10.8410 H   0  0  0  0  0  0  0  0  0  0  0  0
    8.9796    7.2294  -13.0488 H   0  0  0  0  0  0  0  0  0  0  0  0
    8.4444    8.9526  -10.6601 H   0  0  0  0  0  0  0  0  0  0  0  0
    9.2249    9.4530  -12.1986 H   0  0  0  0  0  0  0  0  0  0  0  0
    7.5193    8.8894  -12.1986 H   0  0  0  0  0  0  0  0  0  0  0  0
   10.5751    8.1691  -11.8151 H   0  0  0  0  0  0  0  0  0  0  0  0
   10.9070    6.5710  -13.3250 H   0  0  0  0  0  0  0  0  0  0  0  0
    9.4993    4.5935   -7.5553 H   0  0  0  0  0  0  0  0  0  0  0  0
    8.7299    5.3863   -8.9718 H   0  0  0  0  0  0  0  0  0  0  0  0
   10.4976    5.0666   -8.9718 H   0  0  0  0  0  0  0  0  0  0  0  0
   11.1363    5.3702   -6.1300 H   0  0  0  0  0  0  0  0  0  0  0  0
   12.1297    5.7429   -7.5314 H   0  0  0  0  0  0  0  0  0  0  0  0
   11.8924    7.1462   -5.1737 H   0  0  0  0  0  0  0  0  0  0  0  0
   12.6986    7.6860   -6.6605 H   0  0  0  0  0  0  0  0  0  0  0  0
   10.1412    8.6744   -5.4857 H   0  0  0  0  0  0  0  0  0  0  0  0
   11.0476    9.1414   -7.1475 H   0  0  0  0  0  0  0  0  0  0  0  0
    9.7065    8.8938   -8.0732 H   0  0  0  0  0  0  0  0  0  0  0  0
    7.9820    8.3080   -6.3210 H   0  0  0  0  0  0  0  0  0  0  0  0
   10.0291    6.2711   -5.7909 H   0  0  0  0  0  0  0  0  0  0  0  0
    8.5168    6.0394   -6.2298 H   0  0  0  0  0  0  0  0  0  0  0  0
    7.8935    0.7289  -15.8027 H   0  0  0  0  0  0  0  0  0  0  0  0
    7.4511    0.1680  -14.0434 H   0  0  0  0  0  0  0  0  0  0  0  0
    6.1963   -0.4658  -14.4242 H   0  0  0  0  0  0  0  0  0  0  0  0
    4.9971    0.9006  -13.7171 H   0  0  0  0  0  0  0  0  0  0  0  0
    5.0247    1.9454  -15.1780 H   0  0  0  0  0  0  0  0  0  0  0  0
    4.0657    0.4265  -15.1780 H   0  0  0  0  0  0  0  0  0  0  0  0
    6.7413   -1.5426  -15.2164 H   0  0  0  0  0  0  0  0  0  0  0  0
    4.8860   -2.3070  -15.8780 H   0  0  0  0  0  0  0  0  0  0  0  0
  1  2  2  0
  2  3  1  0
  3  4  2  0
  4  5  1  0
  5  6  1  0
  6  7  1  0
  7  8  1  0
  8  9  1  0
  9 10  1  0
 10 11  1  0
 11 12  1  0
 12 13  1  0
 12 14  1  0
 14 15  1  0
 14 16  1  0
 16 17  1  0
 17 18  1  0
 17 19  1  0
 19 20  1  0
 19 21  1  0
 21 22  2  0
 21 23  1  0
 24 23  1  6
 24 25  1  0
 24 26  1  0
 26 27  1  0
 27 28  1  0
 28 29  1  0
 29 30  1  0
 29 31  1  0
  9 32  1  0
 32 33  1  0
 33 34  1  0
 33 35  1  0
 35 36  1  0
 35  3  1  0
  6  4  1  0
 31 24  1  0
  1 37  1  0
  1 38  1  0
  2 39  1  0
  5 40  1  0
  5 41  1  0
  6 42  1  6
  7 43  1  0
  7 44  1  0
  8 45  1  0
  8 46  1  0
  9 47  1  6
 10 48  1  0
 10 49  1  0
 11 50  1  0
 11 51  1  0
 12 52  1  1
 13 53  1  0
 14 54  1  6
 15 55  1  0
 15 56  1  0
 15 57  1  0
 16 58  1  0
 16 59  1  0
 17 60  1  6
 18 61  1  0
 18 62  1  0
 18 63  1  0
 19 64  1  1
 20 65  1  0
 25 66  1  0
 25 67  1  0
 25 68  1  0
 26 69  1  0
 26 70  1  0
 27 71  1  0
 27 72  1  0
 28 73  1  0
 28 74  1  0
 29 75  1  6
 30 76  1  0
 31 77  1  0
 31 78  1  0
 32 79  1  0
 32 80  1  0
 33 81  1  0
 34 82  1  0
 34 83  1  0
 34 84  1  0
 35 85  1  1
 36 86  1  0
M  CHG  1  16   1
M  END

>  <ID>
DiffSBDD_85_num_sample_100

>  <docking_score>
-9.239

$$$$
DiffSBDD_86_num_sample_100
     RDKit          3D

 53 55  0  0  0  0  0  0  0  0999 V2000
   12.1670    8.4410   -9.1730 C   0  0  0  0  0  0  0  0  0  0  0  0
   11.8000    7.3030   -8.3210 O   0  0  0  0  0  0  0  0  0  0  0  0
   10.3800    7.0350   -8.1610 C   0  0  2  0  0  0  0  0  0  0  0  0
   10.1610    5.5380   -8.0100 C   0  0  0  0  0  0  0  0  0  0  0  0
    9.4700    7.5040   -9.3320 C   0  0  0  0  0  0  0  0  0  0  0  0
    9.4470    6.4580  -10.4050 C   0  0  0  0  0  0  0  0  0  0  0  0
    8.0660    5.8580  -10.4090 O   0  0  0  0  0  0  0  0  0  0  0  0
    7.7330    5.5310  -11.7110 C   0  0  2  0  0  0  0  0  0  0  0  0
    6.2610    5.1790  -11.9160 C   0  0  0  0  0  0  0  0  0  0  0  0
    6.0420    3.7170  -11.7180 O   0  0  0  0  0  0  0  0  0  0  0  0
    6.6840    3.0200  -12.8040 C   0  0  0  0  0  0  0  0  0  0  0  0
    6.2460    1.8590  -13.3510 C   0  0  0  0  0  0  0  0  0  0  0  0
    6.6600    1.2320  -14.5560 C   0  0  0  0  0  0  0  0  0  0  0  0
    7.2840    1.8730  -15.5110 N   0  0  0  0  0  0  0  0  0  0  0  0
    7.6580    3.0500  -15.7270 C   0  0  0  0  0  0  0  0  0  0  0  0
    8.0800    3.6290  -17.2110 S   0  0  0  0  0  0  0  0  0  0  0  0
    8.2150    3.9630  -14.6670 N   0  0  0  0  0  0  0  0  0  0  0  0
    7.9080    3.6820  -13.3700 C   0  0  1  0  0  0  0  0  0  0  0  0
    8.6480    4.5340  -12.2930 C   0  0  2  0  0  0  0  0  0  0  0  0
    9.3230    3.5570  -11.4340 F   0  0  0  0  0  0  0  0  0  0  0  0
    9.8900    7.8140   -6.8630 C   0  0  2  0  0  0  0  0  0  0  0  0
    8.7570    8.4830   -7.1570 O   0  0  0  0  0  0  0  0  0  0  0  0
   10.6930    8.4570   -5.7570 C   0  0  0  0  0  0  0  0  0  0  0  0
   10.9760    9.7730   -5.5740 C   0  0  0  0  0  0  0  0  0  0  0  0
   11.8300   10.2120   -4.4530 C   0  0  0  0  0  0  0  0  0  0  0  0
   12.3030    9.2420   -3.5740 C   0  0  0  0  0  0  0  0  0  0  0  0
   12.0950    7.8880   -3.7910 C   0  0  0  0  0  0  0  0  0  0  0  0
   12.6340    6.9750   -3.0410 F   0  0  0  0  0  0  0  0  0  0  0  0
   11.2280    7.4740   -4.8070 C   0  0  0  0  0  0  0  0  0  0  0  0
   10.9090    6.2040   -4.8250 F   0  0  0  0  0  0  0  0  0  0  0  0
   12.4434    9.2980   -8.5412 H   0  0  0  0  0  0  0  0  0  0  0  0
   13.0211    8.1631   -9.8081 H   0  0  0  0  0  0  0  0  0  0  0  0
   11.3115    8.7145   -9.8081 H   0  0  0  0  0  0  0  0  0  0  0  0
   10.1231    5.2789   -6.9416 H   0  0  0  0  0  0  0  0  0  0  0  0
    9.2120    5.2560   -8.4896 H   0  0  0  0  0  0  0  0  0  0  0  0
   10.9894    4.9960   -8.4896 H   0  0  0  0  0  0  0  0  0  0  0  0
    8.4483    7.6668   -8.9583 H   0  0  0  0  0  0  0  0  0  0  0  0
    9.8658    8.4426   -9.7471 H   0  0  0  0  0  0  0  0  0  0  0  0
    9.6627    6.9150  -11.3821 H   0  0  0  0  0  0  0  0  0  0  0  0
   10.2083    5.6868  -10.2163 H   0  0  0  0  0  0  0  0  0  0  0  0
    7.8742    6.4606  -12.2819 H   0  0  0  0  0  0  0  0  0  0  0  0
    5.6506    5.7380  -11.1915 H   0  0  0  0  0  0  0  0  0  0  0  0
    5.9704    5.4469  -12.9425 H   0  0  0  0  0  0  0  0  0  0  0  0
    5.4643    1.3316  -12.7847 H   0  0  0  0  0  0  0  0  0  0  0  0
    6.4470    0.1615  -14.6925 H   0  0  0  0  0  0  0  0  0  0  0  0
    8.8050    4.7700  -14.9130 H   0  0  0  0  0  0  0  0  0  0  0  0
    8.2678    2.7067  -13.7297 H   0  0  0  0  0  0  0  0  0  0  0  0
    9.4414    5.2037  -12.6563 H   0  0  0  0  0  0  0  0  0  0  0  0
    9.8917    6.9118   -6.2336 H   0  0  0  0  0  0  0  0  0  0  0  0
    8.2670    8.6850   -6.3200 H   0  0  0  0  0  0  0  0  0  0  0  0
   10.5642   10.5197   -6.2689 H   0  0  0  0  0  0  0  0  0  0  0  0
   12.0848   11.2733   -4.3164 H   0  0  0  0  0  0  0  0  0  0  0  0
   12.8591    9.5591   -2.6794 H   0  0  0  0  0  0  0  0  0  0  0  0
  1  2  1  0
  3  2  1  6
  3  4  1  0
  3  5  1  0
  5  6  1  0
  6  7  1  0
  7  8  1  0
  8  9  1  0
  9 10  1  0
 10 11  1  0
 11 12  2  0
 12 13  1  0
 13 14  2  0
 14 15  1  0
 15 16  2  0
 15 17  1  0
 17 18  1  0
 18 19  1  0
 19 20  1  0
  3 21  1  0
 21 22  1  0
 21 23  1  0
 23 24  2  0
 24 25  1  0
 25 26  2  0
 26 27  1  0
 27 28  1  0
 27 29  2  0
 29 30  1  0
 19  8  1  0
 29 23  1  0
 18 11  1  0
  1 31  1  0
  1 32  1  0
  1 33  1  0
  4 34  1  0
  4 35  1  0
  4 36  1  0
  5 37  1  0
  5 38  1  0
  6 39  1  0
  6 40  1  0
  8 41  1  6
  9 42  1  0
  9 43  1  0
 12 44  1  0
 13 45  1  0
 17 46  1  0
 18 47  1  1
 19 48  1  6
 21 49  1  1
 22 50  1  0
 24 51  1  0
 25 52  1  0
 26 53  1  0
M  END

>  <ID>
DiffSBDD_86_num_sample_100

>  <docking_score>
-8.939

$$$$
DiffSBDD_87_num_sample_100
     RDKit          3D

 51 54  0  0  0  0  0  0  0  0999 V2000
   12.2680   10.3870   -6.7580 C   0  0  0  0  0  0  0  0  0  0  0  0
   12.0970    9.3130   -5.9160 C   0  0  0  0  0  0  0  0  0  0  0  0
   12.0870    9.5200   -4.3950 C   0  0  0  0  0  0  0  0  0  0  0  0
   12.0270    8.5090   -3.5170 C   0  0  0  0  0  0  0  0  0  0  0  0
   12.4520    8.8030   -2.2830 N   0  0  0  0  0  0  0  0  0  0  0  0
   12.6080    7.5060   -1.5600 N   0  0  0  0  0  0  0  0  0  0  0  0
   12.0910    6.4740   -2.5110 O   0  0  0  0  0  0  0  0  0  0  0  0
   11.8170    7.0480   -3.7140 C   0  0  0  0  0  0  0  0  0  0  0  0
   11.0960    6.4840   -4.8140 C   0  0  0  0  0  0  0  0  0  0  0  0
   11.3880    6.9880   -6.1690 C   0  0  0  0  0  0  0  0  0  0  0  0
   11.0120    8.3620   -6.5000 C   0  0  2  0  0  0  0  0  0  0  0  0
   10.9080    8.3420   -7.9810 C   0  0  0  0  0  0  0  0  0  0  0  0
    9.4470    8.2830   -9.0640 S   0  0  0  0  0  0  0  0  0  0  0  0
    9.8500    6.5640   -9.6130 C   0  0  1  0  0  0  0  0  0  0  0  0
    9.1190    5.4860   -8.8580 C   0  0  0  0  0  0  0  0  0  0  0  0
    7.9370    5.2200   -9.6830 N   0  0  0  0  0  0  0  0  0  0  0  0
    8.4850    5.0680  -10.9640 C   0  0  1  0  0  0  0  0  0  0  0  0
    9.0680    3.8510  -11.2170 O   0  0  0  0  0  0  0  0  0  0  0  0
    7.2590    5.3640  -12.3300 S   0  0  0  0  0  0  0  0  0  0  0  0
    7.9020    6.6190  -12.6180 O   0  0  0  0  0  0  0  0  0  0  0  0
    5.7810    5.4990  -12.1960 O   0  0  0  0  0  0  0  0  0  0  0  0
    7.2170    3.8720  -13.3760 C   0  0  0  0  0  0  0  0  0  0  0  0
    7.9050    3.8860  -14.6190 C   0  0  0  0  0  0  0  0  0  0  0  0
    7.6630    2.8240  -15.4770 C   0  0  0  0  0  0  0  0  0  0  0  0
    6.8550    1.7470  -15.0610 C   0  0  0  0  0  0  0  0  0  0  0  0
    6.2400    1.8670  -13.9020 C   0  0  0  0  0  0  0  0  0  0  0  0
    5.2640    0.9300  -13.7080 F   0  0  0  0  0  0  0  0  0  0  0  0
    6.4350    2.8660  -12.9060 C   0  0  0  0  0  0  0  0  0  0  0  0
    9.4420    6.3450  -11.0110 C   0  0  0  0  0  0  0  0  0  0  0  0
   12.2748   10.2361   -7.8476 H   0  0  0  0  0  0  0  0  0  0  0  0
   12.3980   11.3969   -6.3418 H   0  0  0  0  0  0  0  0  0  0  0  0
   13.0096   10.0706   -4.1590 H   0  0  0  0  0  0  0  0  0  0  0  0
   11.1065    9.9960   -4.2464 H   0  0  0  0  0  0  0  0  0  0  0  0
   11.2987    5.4029   -4.8172 H   0  0  0  0  0  0  0  0  0  0  0  0
   10.0508    6.7754   -4.6336 H   0  0  0  0  0  0  0  0  0  0  0  0
   12.4744    6.9038   -6.3193 H   0  0  0  0  0  0  0  0  0  0  0  0
   10.7578    6.3712   -6.8266 H   0  0  0  0  0  0  0  0  0  0  0  0
   10.0653    8.7282   -6.0761 H   0  0  0  0  0  0  0  0  0  0  0  0
   11.4358    9.2540   -8.2966 H   0  0  0  0  0  0  0  0  0  0  0  0
   11.2330    7.3016   -8.1291 H   0  0  0  0  0  0  0  0  0  0  0  0
   10.9349    6.4922   -9.4461 H   0  0  0  0  0  0  0  0  0  0  0  0
    9.7412    4.5839   -8.7626 H   0  0  0  0  0  0  0  0  0  0  0  0
    8.8620    5.7858   -7.8313 H   0  0  0  0  0  0  0  0  0  0  0  0
    7.4580    4.3610   -9.3790 H   0  0  0  0  0  0  0  0  0  0  0  0
    8.3760    3.1430  -11.1990 H   0  0  0  0  0  0  0  0  0  0  0  0
    8.5955    4.6991  -14.8874 H   0  0  0  0  0  0  0  0  0  0  0  0
    8.1029    2.8222  -16.4852 H   0  0  0  0  0  0  0  0  0  0  0  0
    6.7424    0.8436  -15.6783 H   0  0  0  0  0  0  0  0  0  0  0  0
    6.0095    2.8280  -11.8923 H   0  0  0  0  0  0  0  0  0  0  0  0
   10.3197    6.1478  -11.6440 H   0  0  0  0  0  0  0  0  0  0  0  0
    8.9383    7.2247  -11.4382 H   0  0  0  0  0  0  0  0  0  0  0  0
  1  2  2  0
  2  3  1  0
  3  4  1  0
  4  5  1  0
  5  6  2  0
  6  7  1  0
  7  8  1  0
  8  9  1  0
  9 10  1  0
 10 11  1  0
 11 12  1  0
 12 13  1  0
 13 14  1  0
 14 15  1  0
 15 16  1  0
 16 17  1  0
 17 18  1  1
 17 19  1  0
 19 20  2  0
 19 21  2  0
 19 22  1  0
 22 23  2  0
 23 24  1  0
 24 25  2  0
 25 26  1  0
 26 27  1  0
 26 28  2  0
 17 29  1  0
 11  2  1  0
 29 14  1  0
  8  4  2  0
 28 22  1  0
  1 30  1  0
  1 31  1  0
  3 32  1  0
  3 33  1  0
  9 34  1  0
  9 35  1  0
 10 36  1  0
 10 37  1  0
 11 38  1  1
 12 39  1  0
 12 40  1  0
 14 41  1  6
 15 42  1  0
 15 43  1  0
 16 44  1  0
 18 45  1  0
 23 46  1  0
 24 47  1  0
 25 48  1  0
 28 49  1  0
 29 50  1  0
 29 51  1  0
M  END

>  <ID>
DiffSBDD_87_num_sample_100

>  <docking_score>
-10.368

$$$$
DiffSBDD_88_num_sample_100
     RDKit          3D

 57 61  0  0  0  0  0  0  0  0999 V2000
   10.6600    7.9210  -10.6230 C   0  0  0  0  0  0  0  0  0  0  0  0
    9.4670    7.0650  -10.0760 C   0  0  1  0  0  0  0  0  0  0  0  0
    9.1840    5.7750  -10.7050 C   0  0  1  0  0  0  0  0  0  0  0  0
    9.7520    5.3640  -12.0770 C   0  0  2  0  0  0  0  0  0  0  0  0
   10.2100    6.1740  -13.1430 O   0  0  0  0  0  0  0  0  0  0  0  0
    8.3330    4.7020  -12.8580 C   0  0  0  0  0  0  0  0  0  0  0  0
    8.5820    3.6250  -12.7740 O   0  0  0  0  0  0  0  0  0  0  0  0
    7.3640    5.4900  -13.0490 C   0  0  2  0  0  0  0  0  0  0  0  0
    6.1700    5.9850  -12.7220 C   0  0  1  0  0  0  0  0  0  0  0  0
    6.1740    7.4090  -13.4120 C   0  0  0  0  0  0  0  0  0  0  0  0
    5.9440    7.2600  -14.7940 C   0  0  0  0  0  0  0  0  0  0  0  0
    6.2270    8.1830  -15.6790 O   0  0  0  0  0  0  0  0  0  0  0  0
    5.7570    5.9040  -15.3770 S   0  0  0  0  0  0  0  0  0  0  0  0
    6.1100    5.1850  -13.9520 C   0  0  1  0  0  0  0  0  0  0  0  0
    9.2430    4.6090   -9.6900 C   0  0  0  0  0  0  0  0  0  0  0  0
    8.3170    4.9470   -8.5530 C   0  0  0  0  0  0  0  0  0  0  0  0
    8.7440    6.1910   -7.7100 C   0  0  0  0  0  0  0  0  0  0  0  0
    9.7110    6.8630   -8.5250 C   0  0  1  0  0  0  0  0  0  0  0  0
   10.8460    7.4250   -7.9160 N   0  0  0  0  0  0  0  0  0  0  0  0
   11.2860    8.0610   -6.7880 C   0  0  0  0  0  0  0  0  0  0  0  0
   11.7710    9.2460   -6.9830 N   0  0  0  0  0  0  0  0  0  0  0  0
   12.1540    9.7110   -5.8090 N   0  0  0  0  0  0  0  0  0  0  0  0
   12.0660    8.9470   -4.7570 C   0  0  0  0  0  0  0  0  0  0  0  0
   12.4420    9.3280   -3.3160 C   0  0  0  0  0  0  0  0  0  0  0  0
   12.7630    8.4190   -2.2250 C   0  0  0  0  0  0  0  0  0  0  0  0
   13.2530    8.7410   -1.1140 O   0  0  0  0  0  0  0  0  0  0  0  0
   12.4740    7.0400   -2.3560 C   0  0  1  0  0  0  0  0  0  0  0  0
   13.0550    6.1960   -1.6220 F   0  0  0  0  0  0  0  0  0  0  0  0
   11.6810    6.4350   -3.2950 C   0  0  0  0  0  0  0  0  0  0  0  0
   11.1320    6.5180   -4.5920 C   0  0  0  0  0  0  0  0  0  0  0  0
   11.4300    7.7350   -5.3750 C   0  0  1  0  0  0  0  0  0  0  0  0
   11.2333    8.3324   -9.7792 H   0  0  0  0  0  0  0  0  0  0  0  0
   11.3157    7.2860  -11.2369 H   0  0  0  0  0  0  0  0  0  0  0  0
   10.2685    8.7455  -11.2369 H   0  0  0  0  0  0  0  0  0  0  0  0
    8.5655    7.6433  -10.3266 H   0  0  0  0  0  0  0  0  0  0  0  0
    8.1625    6.0109  -11.0379 H   0  0  0  0  0  0  0  0  0  0  0  0
   10.6750    4.8670  -11.7436 H   0  0  0  0  0  0  0  0  0  0  0  0
   10.6180    6.9980  -12.7790 H   0  0  0  0  0  0  0  0  0  0  0  0
    8.3404    5.9609  -12.8623 H   0  0  0  0  0  0  0  0  0  0  0  0
    5.6294    5.9952  -11.7641 H   0  0  0  0  0  0  0  0  0  0  0  0
    5.3806    8.0318  -12.9730 H   0  0  0  0  0  0  0  0  0  0  0  0
    7.1491    7.8922  -13.2518 H   0  0  0  0  0  0  0  0  0  0  0  0
    5.6346    4.2830  -14.3647 H   0  0  0  0  0  0  0  0  0  0  0  0
    8.9189    3.6751  -10.1725 H   0  0  0  0  0  0  0  0  0  0  0  0
   10.2703    4.4689   -9.3225 H   0  0  0  0  0  0  0  0  0  0  0  0
    7.3186    5.1429   -8.9711 H   0  0  0  0  0  0  0  0  0  0  0  0
    8.3388    4.0861   -7.8686 H   0  0  0  0  0  0  0  0  0  0  0  0
    7.8800    6.8431   -7.5146 H   0  0  0  0  0  0  0  0  0  0  0  0
    9.1491    5.9103   -6.7266 H   0  0  0  0  0  0  0  0  0  0  0  0
    9.1685    7.8100   -8.3878 H   0  0  0  0  0  0  0  0  0  0  0  0
   11.6430    7.3200   -8.5600 H   0  0  0  0  0  0  0  0  0  0  0  0
   13.3261    9.9749   -3.4154 H   0  0  0  0  0  0  0  0  0  0  0  0
   11.4622    9.6851   -2.9661 H   0  0  0  0  0  0  0  0  0  0  0  0
   13.2760    6.9428   -3.1026 H   0  0  0  0  0  0  0  0  0  0  0  0
   11.3236    5.4925   -2.8546 H   0  0  0  0  0  0  0  0  0  0  0  0
   10.5083    5.7105   -5.0030 H   0  0  0  0  0  0  0  0  0  0  0  0
   12.4480    7.3639   -5.5644 H   0  0  0  0  0  0  0  0  0  0  0  0
  1  2  1  0
  2  3  1  0
  3  4  1  0
  4  5  1  0
  4  6  1  0
  6  7  2  0
  6  8  1  0
  8  9  1  0
  9 10  1  0
 10 11  1  0
 11 12  2  0
 11 13  1  0
 13 14  1  0
  3 15  1  0
 15 16  1  0
 16 17  1  0
 17 18  1  0
 18 19  1  0
 19 20  1  0
 20 21  2  0
 21 22  1  0
 22 23  2  0
 23 24  1  0
 24 25  1  0
 25 26  2  0
 25 27  1  0
 27 28  1  0
 27 29  1  0
 29 30  2  0
 30 31  1  0
 18  2  1  0
 31 20  1  0
 14  8  1  0
 31 23  1  0
 14  9  1  0
  1 32  1  0
  1 33  1  0
  1 34  1  0
  2 35  1  1
  3 36  1  6
  4 37  1  1
  5 38  1  0
  8 39  1  6
  9 40  1  1
 10 41  1  0
 10 42  1  0
 14 43  1  1
 15 44  1  0
 15 45  1  0
 16 46  1  0
 16 47  1  0
 17 48  1  0
 17 49  1  0
 18 50  1  6
 19 51  1  0
 24 52  1  0
 24 53  1  0
 27 54  1  1
 29 55  1  0
 30 56  1  0
 31 57  1  1
M  END

>  <ID>
DiffSBDD_88_num_sample_100

>  <docking_score>
-11.42

$$$$
DiffSBDD_89_num_sample_100
     RDKit          3D

 75 80  0  0  0  0  0  0  0  0999 V2000
   10.9090    8.1010   -9.5460 C   0  0  0  0  0  0  0  0  0  0  0  0
    9.9710    6.9450   -9.6540 C   0  0  0  0  0  0  0  0  0  0  0  0
    9.8910    5.9990   -8.6820 C   0  0  0  0  0  0  0  0  0  0  0  0
    9.0500    4.9450   -8.7650 C   0  0  0  0  0  0  0  0  0  0  0  0
    8.3270    4.7890   -9.9310 C   0  0  0  0  0  0  0  0  0  0  0  0
    8.3690    5.7260  -10.9770 C   0  0  0  0  0  0  0  0  0  0  0  0
    7.7050    5.4240  -12.1120 O   0  0  0  0  0  0  0  0  0  0  0  0
    8.0940    4.3610  -12.9930 C   0  0  2  0  0  0  0  0  0  0  0  0
    8.2560    4.9570  -14.4110 C   0  0  0  0  0  0  0  0  0  0  0  0
    7.6170    4.1300  -15.5410 C   0  0  0  0  0  0  0  0  0  0  0  0
    7.7530    2.5730  -15.3150 C   0  0  0  0  0  0  0  0  0  0  0  0
    6.5930    1.7620  -14.9430 N   0  0  1  0  0  0  0  0  0  0  0  0
    5.9960    1.1320  -16.2080 C   0  0  1  0  0  0  0  0  0  0  0  0
    4.8890    0.1990  -15.4820 C   0  0  0  0  0  0  0  0  0  0  0  0
    7.1380    0.4480  -16.8780 C   0  0  2  0  0  0  0  0  0  0  0  0
    8.0590   -0.1400  -18.0670 C   0  0  0  0  0  0  0  0  0  0  0  0
    7.2000   -1.0590  -18.9380 C   0  0  1  0  0  0  0  0  0  0  0  0
    5.8480   -1.3940  -18.3290 C   0  0  0  0  0  0  0  0  0  0  0  0
    5.0620   -0.1900  -18.2750 C   0  0  0  0  0  0  0  0  0  0  0  0
    5.9410    0.9040  -17.7160 C   0  0  1  0  0  0  0  0  0  0  0  0
    6.4410    1.8250  -18.8030 C   0  0  0  0  0  0  0  0  0  0  0  0
    6.9950    1.1380  -20.1140 C   0  0  1  0  0  0  0  0  0  0  0  0
    8.5120    1.5120  -20.3040 C   0  0  0  0  0  0  0  0  0  0  0  0
    6.8700   -0.3230  -20.2150 C   0  0  0  0  0  0  0  0  0  0  0  0
    6.2480    1.1150  -13.7280 C   0  0  0  0  0  0  0  0  0  0  0  0
    7.4070    1.7460  -12.8640 C   0  0  0  0  0  0  0  0  0  0  0  0
    7.0260    3.2250  -12.8960 C   0  0  0  0  0  0  0  0  0  0  0  0
    5.7040    3.7990  -13.3190 C   0  0  0  0  0  0  0  0  0  0  0  0
    5.8540    3.2910  -11.9710 C   0  0  0  0  0  0  0  0  0  0  0  0
    9.1650    6.8460  -10.8200 C   0  0  0  0  0  0  0  0  0  0  0  0
    9.0760    7.9330  -11.7620 C   0  0  0  0  0  0  0  0  0  0  0  0
   11.0921    8.3267   -8.4851 H   0  0  0  0  0  0  0  0  0  0  0  0
   11.8605    7.8482  -10.0367 H   0  0  0  0  0  0  0  0  0  0  0  0
   10.4656    8.9800  -10.0367 H   0  0  0  0  0  0  0  0  0  0  0  0
   10.5345    6.0948   -7.7951 H   0  0  0  0  0  0  0  0  0  0  0  0
    8.9447    4.2348   -7.9316 H   0  0  0  0  0  0  0  0  0  0  0  0
    7.6938    3.8968  -10.0453 H   0  0  0  0  0  0  0  0  0  0  0  0
    9.0585    3.9080  -12.7201 H   0  0  0  0  0  0  0  0  0  0  0  0
    7.7948    5.9556  -14.4162 H   0  0  0  0  0  0  0  0  0  0  0  0
    9.3366    4.9740  -14.6157 H   0  0  0  0  0  0  0  0  0  0  0  0
    6.5484    4.3840  -15.6008 H   0  0  0  0  0  0  0  0  0  0  0  0
    8.1489    4.3763  -16.4718 H   0  0  0  0  0  0  0  0  0  0  0  0
    8.1399    2.1530  -16.2551 H   0  0  0  0  0  0  0  0  0  0  0  0
    8.3881    2.5128  -14.4189 H   0  0  0  0  0  0  0  0  0  0  0  0
    6.1930    2.5370  -14.3940 H   0  0  0  0  0  0  0  0  0  0  0  0
    4.9939    0.2874  -14.3906 H   0  0  0  0  0  0  0  0  0  0  0  0
    3.8818    0.5247  -15.7812 H   0  0  0  0  0  0  0  0  0  0  0  0
    5.0395   -0.8488  -15.7812 H   0  0  0  0  0  0  0  0  0  0  0  0
    7.6792    1.4041  -16.9316 H   0  0  0  0  0  0  0  0  0  0  0  0
    8.4517    0.6876  -18.6759 H   0  0  0  0  0  0  0  0  0  0  0  0
    8.9046   -0.7031  -17.6451 H   0  0  0  0  0  0  0  0  0  0  0  0
    7.7820   -1.9830  -19.0705 H   0  0  0  0  0  0  0  0  0  0  0  0
    5.3364   -2.1438  -18.9504 H   0  0  0  0  0  0  0  0  0  0  0  0
    5.9810   -1.8036  -17.3168 H   0  0  0  0  0  0  0  0  0  0  0  0
    4.7217    0.0815  -19.2852 H   0  0  0  0  0  0  0  0  0  0  0  0
    4.1753   -0.3354  -17.6405 H   0  0  0  0  0  0  0  0  0  0  0  0
    5.6065    2.4790  -19.0962 H   0  0  0  0  0  0  0  0  0  0  0  0
    7.3026    2.3497  -18.3646 H   0  0  0  0  0  0  0  0  0  0  0  0
    6.3422    1.5355  -20.9051 H   0  0  0  0  0  0  0  0  0  0  0  0
    8.9870    1.6291  -19.3188 H   0  0  0  0  0  0  0  0  0  0  0  0
    9.0196    0.7121  -20.8630 H   0  0  0  0  0  0  0  0  0  0  0  0
    8.5896    2.4562  -20.8630 H   0  0  0  0  0  0  0  0  0  0  0  0
    5.8333   -0.5627  -20.4941 H   0  0  0  0  0  0  0  0  0  0  0  0
    7.5996   -0.6528  -20.9693 H   0  0  0  0  0  0  0  0  0  0  0  0
    5.2480    1.3967  -13.3666 H   0  0  0  0  0  0  0  0  0  0  0  0
    6.1801    0.0173  -13.7479 H   0  0  0  0  0  0  0  0  0  0  0  0
    7.4058    1.3511  -11.8373 H   0  0  0  0  0  0  0  0  0  0  0  0
    8.4188    1.5312  -13.2384 H   0  0  0  0  0  0  0  0  0  0  0  0
    5.6060    4.8814  -13.4886 H   0  0  0  0  0  0  0  0  0  0  0  0
    5.0052    3.6028  -14.1456 H   0  0  0  0  0  0  0  0  0  0  0  0
    5.8669    3.9903  -11.1220 H   0  0  0  0  0  0  0  0  0  0  0  0
    5.3117    2.5529  -11.3618 H   0  0  0  0  0  0  0  0  0  0  0  0
    8.9980    8.8852  -11.2168 H   0  0  0  0  0  0  0  0  0  0  0  0
    9.9762    7.9450  -12.3941 H   0  0  0  0  0  0  0  0  0  0  0  0
    8.1859    7.7985  -12.3941 H   0  0  0  0  0  0  0  0  0  0  0  0
  1  2  1  0
  2  3  2  0
  3  4  1  0
  4  5  2  0
  5  6  1  0
  6  7  1  0
  7  8  1  0
  8  9  1  0
  9 10  1  0
 10 11  1  0
 11 12  1  0
 12 13  1  0
 13 14  1  1
 13 15  1  0
 15 16  1  0
 16 17  1  0
 17 18  1  0
 18 19  1  0
 20 19  1  6
 20 21  1  0
 21 22  1  0
 22 23  1  0
 22 24  1  0
 12 25  1  0
 25 26  1  0
 26 27  1  0
 27 28  1  0
 28 29  1  0
  6 30  2  0
 30 31  1  0
 30  2  1  0
 27  8  1  0
 20 13  1  0
 29 27  1  0
 20 15  1  0
 24 17  1  0
  1 32  1  0
  1 33  1  0
  1 34  1  0
  3 35  1  0
  4 36  1  0
  5 37  1  0
  8 38  1  1
  9 39  1  0
  9 40  1  0
 10 41  1  0
 10 42  1  0
 11 43  1  0
 11 44  1  0
 12 45  1  1
 14 46  1  0
 14 47  1  0
 14 48  1  0
 15 49  1  1
 16 50  1  0
 16 51  1  0
 17 52  1  6
 18 53  1  0
 18 54  1  0
 19 55  1  0
 19 56  1  0
 21 57  1  0
 21 58  1  0
 22 59  1  6
 23 60  1  0
 23 61  1  0
 23 62  1  0
 24 63  1  0
 24 64  1  0
 25 65  1  0
 25 66  1  0
 26 67  1  0
 26 68  1  0
 28 69  1  0
 28 70  1  0
 29 71  1  0
 29 72  1  0
 31 73  1  0
 31 74  1  0
 31 75  1  0
M  CHG  1  12   1
M  END

>  <ID>
DiffSBDD_89_num_sample_100

>  <docking_score>
-9.427

$$$$
DiffSBDD_8_num_sample_100
     RDKit          3D

 67 70  0  0  0  0  0  0  0  0999 V2000
    5.2110   -0.1910  -16.4800 C   0  0  0  0  0  0  0  0  0  0  0  0
    5.8690    0.6160  -16.8870 C   0  0  0  0  0  0  0  0  0  0  0  0
    5.5780    0.9940  -18.3220 O   0  0  0  0  0  0  0  0  0  0  0  0
    5.4640   -0.1300  -18.4920 C   0  0  0  0  0  0  0  0  0  0  0  0
    6.7860   -0.8010  -18.5080 C   0  0  0  0  0  0  0  0  0  0  0  0
    7.4350   -0.2760  -17.3690 C   0  0  0  0  0  0  0  0  0  0  0  0
    7.9880    1.0700  -17.5540 C   0  0  1  0  0  0  0  0  0  0  0  0
    8.1530    1.4560  -18.8290 O   0  0  0  0  0  0  0  0  0  0  0  0
    7.4270    2.2980  -16.6940 C   0  0  0  0  0  0  0  0  0  0  0  0
    6.8580    2.0510  -15.3510 C   0  0  2  0  0  0  0  0  0  0  0  0
    7.4400    1.9960  -13.8280 C   0  0  1  0  0  0  0  0  0  0  0  0
    7.5450    3.5050  -14.0690 C   0  0  2  0  0  0  0  0  0  0  0  0
    8.7530    4.2220  -14.3890 O   0  0  0  0  0  0  0  0  0  0  0  0
    7.0560    3.6360  -12.7340 C   0  0  2  0  0  0  0  0  0  0  0  0
    5.9340    4.6390  -12.8360 C   0  0  0  0  0  0  0  0  0  0  0  0
    5.9930    5.7550  -11.8700 C   0  0  1  0  0  0  0  0  0  0  0  0
    5.0600    5.5250  -11.0150 O   0  0  0  0  0  0  0  0  0  0  0  0
    7.2520    5.8850  -11.2940 C   0  0  2  0  0  0  0  0  0  0  0  0
    8.5010    5.9600  -11.3270 O   0  0  0  0  0  0  0  0  0  0  0  0
    9.5560    6.5550  -10.4450 C   0  0  0  0  0  0  0  0  0  0  0  0
   10.6780    7.2520  -10.8590 C   0  0  0  0  0  0  0  0  0  0  0  0
   11.5270    7.8780  -10.0110 C   0  0  0  0  0  0  0  0  0  0  0  0
   11.3580    7.6990   -8.4970 C   0  0  0  0  0  0  0  0  0  0  0  0
   10.4320    7.0880   -8.0740 C   0  0  0  0  0  0  0  0  0  0  0  0
   10.1900    6.7850   -6.5360 C   0  0  0  0  0  0  0  0  0  0  0  0
    9.4010    6.3570   -8.9760 C   0  0  0  0  0  0  0  0  0  0  0  0
    8.4870    5.5620   -8.2870 N   0  0  0  0  0  0  0  0  0  0  0  0
    7.1130    4.4750  -10.5820 O   0  0  0  0  0  0  0  0  0  0  0  0
    7.7060    3.6700  -11.5440 O   0  0  0  0  0  0  0  0  0  0  0  0
    6.3340    1.2910  -13.0370 C   0  0  0  0  0  0  0  0  0  0  0  0
    5.6190    0.5010  -14.0750 C   0  0  0  0  0  0  0  0  0  0  0  0
    6.2820    0.6500  -15.3360 C   0  0  1  0  0  0  0  0  0  0  0  0
    5.3425   -0.5379  -15.4445 H   0  0  0  0  0  0  0  0  0  0  0  0
    4.4320   -0.6381  -17.1151 H   0  0  0  0  0  0  0  0  0  0  0  0
    4.8538   -0.5564  -17.6821 H   0  0  0  0  0  0  0  0  0  0  0  0
    4.9776   -0.2900  -19.4656 H   0  0  0  0  0  0  0  0  0  0  0  0
    6.6741   -1.8924  -18.4288 H   0  0  0  0  0  0  0  0  0  0  0  0
    7.3448   -0.6253  -19.4390 H   0  0  0  0  0  0  0  0  0  0  0  0
    6.7074   -0.2389  -16.5448 H   0  0  0  0  0  0  0  0  0  0  0  0
    8.2868   -0.9395  -17.1590 H   0  0  0  0  0  0  0  0  0  0  0  0
    8.9618    0.8491  -17.0926 H   0  0  0  0  0  0  0  0  0  0  0  0
    8.2940    0.6590  -19.4000 H   0  0  0  0  0  0  0  0  0  0  0  0
    8.2609    3.0032  -16.5627 H   0  0  0  0  0  0  0  0  0  0  0  0
    6.5633    2.6476  -17.2786 H   0  0  0  0  0  0  0  0  0  0  0  0
    6.4018    3.0509  -15.3960 H   0  0  0  0  0  0  0  0  0  0  0  0
    8.3018    1.5195  -13.3379 H   0  0  0  0  0  0  0  0  0  0  0  0
    7.0960    3.9207  -14.9831 H   0  0  0  0  0  0  0  0  0  0  0  0
    8.5370    5.1730  -14.5590 H   0  0  0  0  0  0  0  0  0  0  0  0
    6.9170    2.5680  -12.5103 H   0  0  0  0  0  0  0  0  0  0  0  0
    5.9514    5.0660  -13.8496 H   0  0  0  0  0  0  0  0  0  0  0  0
    5.0112    4.0865  -12.6053 H   0  0  0  0  0  0  0  0  0  0  0  0
    5.8313    6.7260  -12.3608 H   0  0  0  0  0  0  0  0  0  0  0  0
    4.9360    4.5480  -10.9160 H   0  0  0  0  0  0  0  0  0  0  0  0
    7.2462    6.9849  -11.3041 H   0  0  0  0  0  0  0  0  0  0  0  0
   10.8914    7.2998  -11.9370 H   0  0  0  0  0  0  0  0  0  0  0  0
   12.3345    8.5122  -10.4057 H   0  0  0  0  0  0  0  0  0  0  0  0
   12.0930    8.1357   -7.8048 H   0  0  0  0  0  0  0  0  0  0  0  0
   10.7616    7.5007   -5.9269 H   0  0  0  0  0  0  0  0  0  0  0  0
    9.1185    6.8826   -6.3072 H   0  0  0  0  0  0  0  0  0  0  0  0
   10.5221    5.7616   -6.3072 H   0  0  0  0  0  0  0  0  0  0  0  0
    7.4850    5.7990   -8.3020 H   0  0  0  0  0  0  0  0  0  0  0  0
    8.8150    4.7380   -7.7630 H   0  0  0  0  0  0  0  0  0  0  0  0
    6.7600    0.6329  -12.2653 H   0  0  0  0  0  0  0  0  0  0  0  0
    5.6763    1.9908  -12.5007 H   0  0  0  0  0  0  0  0  0  0  0  0
    5.6139   -0.5608  -13.7876 H   0  0  0  0  0  0  0  0  0  0  0  0
    4.5845    0.8648  -14.1618 H   0  0  0  0  0  0  0  0  0  0  0  0
    6.7097   -0.3563  -15.2156 H   0  0  0  0  0  0  0  0  0  0  0  0
  1  2  2  0
  2  3  1  0
  3  4  1  0
  4  5  1  0
  5  6  1  0
  6  7  1  0
  7  8  1  0
  7  9  1  0
  9 10  1  0
 10 11  1  0
 11 12  1  0
 12 13  1  0
 12 14  1  0
 14 15  1  0
 15 16  1  0
 16 17  1  0
 16 18  1  0
 18 19  1  0
 19 20  1  0
 20 21  2  0
 21 22  1  0
 22 23  2  0
 23 24  1  0
 24 25  1  0
 24 26  2  0
 26 27  1  0
 18 28  1  0
 28 29  1  0
 11 30  1  0
 30 31  1  0
 31 32  1  0
 32  2  1  0
 32 10  1  0
 29 14  1  0
 26 20  1  0
  1 33  1  0
  1 34  1  0
  4 35  1  0
  4 36  1  0
  5 37  1  0
  5 38  1  0
  6 39  1  0
  6 40  1  0
  7 41  1  1
  8 42  1  0
  9 43  1  0
  9 44  1  0
 10 45  1  1
 11 46  1  6
 12 47  1  6
 13 48  1  0
 14 49  1  1
 15 50  1  0
 15 51  1  0
 16 52  1  6
 17 53  1  0
 18 54  1  1
 21 55  1  0
 22 56  1  0
 23 57  1  0
 25 58  1  0
 25 59  1  0
 25 60  1  0
 27 61  1  0
 27 62  1  0
 30 63  1  0
 30 64  1  0
 31 65  1  0
 31 66  1  0
 32 67  1  6
M  END

>  <ID>
DiffSBDD_8_num_sample_100

>  <docking_score>
-9.455

$$$$
DiffSBDD_90_num_sample_100
     RDKit          3D

 60 64  0  0  0  0  0  0  0  0999 V2000
   12.0090    6.9980   -2.7520 C   0  0  0  0  0  0  0  0  0  0  0  0
   11.9320    8.0060   -3.6840 C   0  0  0  0  0  0  0  0  0  0  0  0
   12.3700    9.7190   -3.7850 S   0  0  0  0  0  0  0  0  0  0  0  0
   11.9820    9.5470   -5.5020 C   0  0  0  0  0  0  0  0  0  0  0  0
   11.4800    8.2660   -5.5660 C   0  0  0  0  0  0  0  0  0  0  0  0
   10.9660    7.9290   -6.7010 C   0  0  0  0  0  0  0  0  0  0  0  0
   11.0570    8.3630   -8.1120 C   0  0  0  0  0  0  0  0  0  0  0  0
   10.3890    7.3900   -9.1070 C   0  0  0  0  0  0  0  0  0  0  0  0
   10.7140    7.4480  -10.5050 C   0  0  0  0  0  0  0  0  0  0  0  0
   10.2330    6.6220  -11.3740 C   0  0  0  0  0  0  0  0  0  0  0  0
    9.0970    5.8250  -11.1050 C   0  0  0  0  0  0  0  0  0  0  0  0
    8.1810    5.3290  -12.0800 C   0  0  0  0  0  0  0  0  0  0  0  0
    7.1270    4.7240  -11.9450 C   0  0  0  0  0  0  0  0  0  0  0  0
    6.3530    4.1580  -13.1140 C   0  0  0  0  0  0  0  0  0  0  0  0
    6.5770    4.4770  -14.4410 C   0  0  0  0  0  0  0  0  0  0  0  0
    6.7720    5.5470  -15.1730 N   0  0  1  0  0  0  0  0  0  0  0  0
    7.7450    5.5470  -16.3220 C   0  0  0  0  0  0  0  0  0  0  0  0
    7.0550    5.3480  -17.6740 C   0  0  0  0  0  0  0  0  0  0  0  0
    6.4280    6.6280  -18.3220 C   0  0  0  0  0  0  0  0  0  0  0  0
    5.4230    7.4470  -17.4650 C   0  0  1  0  0  0  0  0  0  0  0  0
    4.0300    6.6510  -17.1930 C   0  0  0  0  0  0  0  0  0  0  0  0
    6.1360    7.7170  -16.1260 C   0  0  0  0  0  0  0  0  0  0  0  0
    5.7760    6.5910  -15.0860 C   0  0  0  0  0  0  0  0  0  0  0  0
    8.7800    5.6170   -9.7710 C   0  0  0  0  0  0  0  0  0  0  0  0
    9.5410    6.2520   -8.7550 C   0  0  0  0  0  0  0  0  0  0  0  0
    9.5920    5.8030   -7.3360 C   0  0  0  0  0  0  0  0  0  0  0  0
   10.3960    6.7090   -6.3820 C   0  0  0  0  0  0  0  0  0  0  0  0
   11.2900    6.4010   -4.9270 C   0  0  0  0  0  0  0  0  0  0  0  0
   11.5380    7.5010   -4.5730 N   0  0  0  0  0  0  0  0  0  0  0  0
   11.6353    5.9928   -2.9969 H   0  0  0  0  0  0  0  0  0  0  0  0
   12.4443    7.1968   -1.7615 H   0  0  0  0  0  0  0  0  0  0  0  0
   12.1094   10.2784   -6.3137 H   0  0  0  0  0  0  0  0  0  0  0  0
   11.5547    9.2932   -8.4236 H   0  0  0  0  0  0  0  0  0  0  0  0
   11.4040    8.2315  -10.8514 H   0  0  0  0  0  0  0  0  0  0  0  0
   10.7233    6.5361  -12.3549 H   0  0  0  0  0  0  0  0  0  0  0  0
    8.4702    5.5224  -13.1235 H   0  0  0  0  0  0  0  0  0  0  0  0
    6.7251    4.5857  -10.9304 H   0  0  0  0  0  0  0  0  0  0  0  0
    6.4790    3.0672  -13.0490 H   0  0  0  0  0  0  0  0  0  0  0  0
    5.3756    4.6374  -12.9563 H   0  0  0  0  0  0  0  0  0  0  0  0
    7.4743    3.8824  -14.6674 H   0  0  0  0  0  0  0  0  0  0  0  0
    5.5098    4.4172  -14.7007 H   0  0  0  0  0  0  0  0  0  0  0  0
    7.5370    5.9240  -14.5940 H   0  0  0  0  0  0  0  0  0  0  0  0
    8.2755    6.5105  -16.3351 H   0  0  0  0  0  0  0  0  0  0  0  0
    8.4381    4.7059  -16.1733 H   0  0  0  0  0  0  0  0  0  0  0  0
    7.8007    4.9467  -18.3761 H   0  0  0  0  0  0  0  0  0  0  0  0
    6.2099    4.6717  -17.4779 H   0  0  0  0  0  0  0  0  0  0  0  0
    7.2559    7.3004  -18.5912 H   0  0  0  0  0  0  0  0  0  0  0  0
    5.8337    6.2516  -19.1676 H   0  0  0  0  0  0  0  0  0  0  0  0
    5.1452    8.3691  -17.9965 H   0  0  0  0  0  0  0  0  0  0  0  0
    3.8666    6.5576  -16.1092 H   0  0  0  0  0  0  0  0  0  0  0  0
    3.1953    7.2084  -17.6430 H   0  0  0  0  0  0  0  0  0  0  0  0
    4.0865    5.6488  -17.6430 H   0  0  0  0  0  0  0  0  0  0  0  0
    7.2239    7.7281  -16.2886 H   0  0  0  0  0  0  0  0  0  0  0  0
    5.8071    8.6900  -15.7322 H   0  0  0  0  0  0  0  0  0  0  0  0
    5.7695    7.0131  -14.0702 H   0  0  0  0  0  0  0  0  0  0  0  0
    4.7802    6.1796  -15.3074 H   0  0  0  0  0  0  0  0  0  0  0  0
    7.9397    4.9606   -9.5006 H   0  0  0  0  0  0  0  0  0  0  0  0
    9.0900    4.8868   -6.9917 H   0  0  0  0  0  0  0  0  0  0  0  0
   10.6796    5.8664   -4.1843 H   0  0  0  0  0  0  0  0  0  0  0  0
   12.1740    5.7616   -5.0670 H   0  0  0  0  0  0  0  0  0  0  0  0
  1  2  2  0
  2  3  1  0
  3  4  1  0
  4  5  2  0
  5  6  1  0
  6  7  2  0
  7  8  1  0
  8  9  2  0
  9 10  1  0
 10 11  2  0
 11 12  1  0
 12 13  2  3
 13 14  1  0
 14 15  1  0
 15 16  1  0
 16 17  1  0
 17 18  1  0
 18 19  1  0
 19 20  1  0
 20 21  1  0
 20 22  1  0
 22 23  1  0
 11 24  1  0
 24 25  2  0
 25 26  1  0
 26 27  2  0
 27 28  1  0
 28 29  1  0
 29  2  1  0
 29  5  1  0
 27  6  1  0
 25  8  1  0
 23 16  1  0
  1 30  1  0
  1 31  1  0
  4 32  1  0
  7 33  1  0
  9 34  1  0
 10 35  1  0
 12 36  1  0
 13 37  1  0
 14 38  1  0
 14 39  1  0
 15 40  1  0
 15 41  1  0
 16 42  1  1
 17 43  1  0
 17 44  1  0
 18 45  1  0
 18 46  1  0
 19 47  1  0
 19 48  1  0
 20 49  1  6
 21 50  1  0
 21 51  1  0
 21 52  1  0
 22 53  1  0
 22 54  1  0
 23 55  1  0
 23 56  1  0
 24 57  1  0
 26 58  1  0
 28 59  1  0
 28 60  1  0
M  CHG  1  16   1
M  END

>  <ID>
DiffSBDD_90_num_sample_100

>  <docking_score>
-11.067

$$$$
DiffSBDD_91_num_sample_100
     RDKit          3D

 91 94  0  0  0  0  0  0  0  0999 V2000
    9.0690    4.6400   -8.3850 C   0  0  0  0  0  0  0  0  0  0  0  0
    9.5580    6.2440   -8.5530 C   0  0  2  0  0  0  0  0  0  0  0  0
    9.1670    6.3500  -10.0690 C   0  0  0  0  0  0  0  0  0  0  0  0
    8.0830    5.9300  -10.6110 O   0  0  0  0  0  0  0  0  0  0  0  0
    8.1190    5.3600  -11.6870 C   0  0  0  0  0  0  0  0  0  0  0  0
    9.4030    4.6600  -12.1310 O   0  0  0  0  0  0  0  0  0  0  0  0
    7.3560    6.1060  -12.6370 C   0  0  2  0  0  0  0  0  0  0  0  0
    6.9090    7.0520  -12.9900 C   0  0  0  0  0  0  0  0  0  0  0  0
    6.4150    6.9490  -14.4740 C   0  0  0  0  0  0  0  0  0  0  0  0
    6.5930    5.7050  -14.7790 C   0  0  1  0  0  0  0  0  0  0  0  0
    7.3220    5.2620  -16.3310 C   0  0  0  0  0  0  0  0  0  0  0  0
    8.3080    4.2330  -15.9480 C   0  0  0  0  0  0  0  0  0  0  0  0
    7.4940    3.0770  -15.4000 C   0  0  2  0  0  0  0  0  0  0  0  0
    6.4150    2.6350  -16.2770 F   0  0  0  0  0  0  0  0  0  0  0  0
    6.7750    2.5690  -14.0790 C   0  0  1  0  0  0  0  0  0  0  0  0
    5.4340    2.6230  -14.4940 F   0  0  0  0  0  0  0  0  0  0  0  0
    7.1120    1.1390  -13.8550 C   0  0  0  0  0  0  0  0  0  0  0  0
    5.9970    0.6980  -13.0560 F   0  0  0  0  0  0  0  0  0  0  0  0
    8.0170    1.2950  -13.1470 F   0  0  0  0  0  0  0  0  0  0  0  0
    7.1950    0.1920  -14.6700 C   0  0  0  0  0  0  0  0  0  0  0  0
    7.7750   -0.3000  -15.6180 N   0  0  0  0  0  0  0  0  0  0  0  0
    6.5130   -0.5900  -16.5470 C   0  0  0  0  0  0  0  0  0  0  0  0
    4.8850   -0.4490  -16.4780 S   0  0  0  0  0  0  0  0  0  0  0  0
    7.3250   -1.1290  -17.9230 N   0  0  0  0  0  0  0  0  0  0  0  0
    7.3660    0.2750  -18.4910 C   0  0  0  0  0  0  0  0  0  0  0  0
    6.9460    0.5010  -19.9840 C   0  0  0  0  0  0  0  0  0  0  0  0
    6.4040    1.8820  -20.1910 C   0  0  0  0  0  0  0  0  0  0  0  0
    6.5560    2.3620  -21.4580 F   0  0  0  0  0  0  0  0  0  0  0  0
    7.0740    3.0160  -19.4760 C   0  0  0  0  0  0  0  0  0  0  0  0
    5.5670    3.4550  -19.8030 C   0  0  0  0  0  0  0  0  0  0  0  0
    5.0630    1.9670  -19.6060 C   0  0  0  0  0  0  0  0  0  0  0  0
    6.7290    3.4370  -13.1600 O   0  0  0  0  0  0  0  0  0  0  0  0
    6.6630    4.8060  -13.4670 C   0  0  1  0  0  0  0  0  0  0  0  0
   10.7550    6.7030   -8.4280 N   0  0  0  0  0  0  0  0  0  0  0  0
   10.7970    7.8300   -7.2640 C   0  0  1  0  0  0  0  0  0  0  0  0
    9.4020    8.2750   -7.1510 C   0  0  0  0  0  0  0  0  0  0  0  0
    8.6640    8.7670   -6.8590 O   0  0  0  0  0  0  0  0  0  0  0  0
   11.0460    7.0770   -6.0410 C   0  0  0  0  0  0  0  0  0  0  0  0
   11.6350    7.4940   -4.9060 C   0  0  0  0  0  0  0  0  0  0  0  0
   11.6400    6.4560   -3.8460 C   0  0  0  0  0  0  0  0  0  0  0  0
   12.1070    6.7990   -2.6240 C   0  0  0  0  0  0  0  0  0  0  0  0
   12.4840    8.0180   -2.3490 C   0  0  0  0  0  0  0  0  0  0  0  0
   12.9960    8.4380   -0.7210 Cl  0  0  0  0  0  0  0  0  0  0  0  0
   12.5770    9.0850   -3.2980 C   0  0  0  0  0  0  0  0  0  0  0  0
   12.0840    8.7080   -4.5750 C   0  0  0  0  0  0  0  0  0  0  0  0
   11.7250    8.6650   -8.3240 C   0  0  0  0  0  0  0  0  0  0  0  0
   11.6360    8.7010   -9.6470 O   0  0  0  0  0  0  0  0  0  0  0  0
   12.9060    9.0150   -7.7970 O   0  0  0  0  0  0  0  0  0  0  0  0
    8.9928    4.3899   -7.3165 H   0  0  0  0  0  0  0  0  0  0  0  0
    8.0884    4.5035   -8.8644 H   0  0  0  0  0  0  0  0  0  0  0  0
    9.8066    3.9797   -8.8644 H   0  0  0  0  0  0  0  0  0  0  0  0
    9.1338    6.8182   -7.7161 H   0  0  0  0  0  0  0  0  0  0  0  0
    9.2024    7.4253  -10.2981 H   0  0  0  0  0  0  0  0  0  0  0  0
    9.8739    5.6195  -10.4894 H   0  0  0  0  0  0  0  0  0  0  0  0
    7.9306    6.9953  -12.3388 H   0  0  0  0  0  0  0  0  0  0  0  0
    6.0523    7.3019  -12.3469 H   0  0  0  0  0  0  0  0  0  0  0  0
    7.6827    7.8325  -12.9424 H   0  0  0  0  0  0  0  0  0  0  0  0
    5.3523    7.2222  -14.5519 H   0  0  0  0  0  0  0  0  0  0  0  0
    6.9550    7.6307  -15.1475 H   0  0  0  0  0  0  0  0  0  0  0  0
    5.7088    5.2958  -15.2897 H   0  0  0  0  0  0  0  0  0  0  0  0
    6.5687    4.8519  -17.0198 H   0  0  0  0  0  0  0  0  0  0  0  0
    7.7680    6.1160  -16.8619 H   0  0  0  0  0  0  0  0  0  0  0  0
    8.8895    3.9123  -16.8249 H   0  0  0  0  0  0  0  0  0  0  0  0
    9.0279    4.6126  -15.2079 H   0  0  0  0  0  0  0  0  0  0  0  0
    8.5502    2.8524  -15.1900 H   0  0  0  0  0  0  0  0  0  0  0  0
    7.2746   -0.6449  -13.9606 H   0  0  0  0  0  0  0  0  0  0  0  0
    6.5442    0.7433  -15.3646 H   0  0  0  0  0  0  0  0  0  0  0  0
    8.7770   -0.4760  -15.7730 H   0  0  0  0  0  0  0  0  0  0  0  0
    7.6610   -2.0470  -18.2480 H   0  0  0  0  0  0  0  0  0  0  0  0
    6.7001    0.8935  -17.8712 H   0  0  0  0  0  0  0  0  0  0  0  0
    8.4344    0.5363  -18.4741 H   0  0  0  0  0  0  0  0  0  0  0  0
    7.8256    0.3602  -20.6294 H   0  0  0  0  0  0  0  0  0  0  0  0
    6.1586   -0.2240  -20.2380 H   0  0  0  0  0  0  0  0  0  0  0  0
    7.3489    2.8679  -18.4213 H   0  0  0  0  0  0  0  0  0  0  0  0
    8.0191    3.5292  -19.7069 H   0  0  0  0  0  0  0  0  0  0  0  0
    5.1440    4.1679  -19.0800 H   0  0  0  0  0  0  0  0  0  0  0  0
    5.3424    3.9909  -20.7370 H   0  0  0  0  0  0  0  0  0  0  0  0
    4.9331    1.6055  -18.5753 H   0  0  0  0  0  0  0  0  0  0  0  0
    4.1278    1.5032  -19.9527 H   0  0  0  0  0  0  0  0  0  0  0  0
    5.8504    4.0998  -13.2413 H   0  0  0  0  0  0  0  0  0  0  0  0
   11.0550    7.1220   -9.3200 H   0  0  0  0  0  0  0  0  0  0  0  0
   11.3880    5.9310   -8.1740 H   0  0  0  0  0  0  0  0  0  0  0  0
    9.2589    8.4781   -8.2226 H   0  0  0  0  0  0  0  0  0  0  0  0
    9.3636    7.7429   -6.1891 H   0  0  0  0  0  0  0  0  0  0  0  0
    8.0820    8.1900   -6.3030 H   0  0  0  0  0  0  0  0  0  0  0  0
   10.0518    6.7290   -5.7241 H   0  0  0  0  0  0  0  0  0  0  0  0
   11.8539    6.4296   -6.4127 H   0  0  0  0  0  0  0  0  0  0  0  0
   11.2749    5.4382   -4.0479 H   0  0  0  0  0  0  0  0  0  0  0  0
   12.1709    6.0296   -1.8404 H   0  0  0  0  0  0  0  0  0  0  0  0
   12.9829   10.0806   -3.0654 H   0  0  0  0  0  0  0  0  0  0  0  0
   12.0706    9.4806   -5.3579 H   0  0  0  0  0  0  0  0  0  0  0  0
  1  2  1  0
  2  3  1  0
  3  4  1  0
  4  5  1  0
  5  6  2  0
  5  7  1  0
  7  8  1  0
  8  9  1  0
  9 10  1  0
 10 11  1  0
 11 12  1  0
 12 13  1  0
 13 14  1  0
 13 15  1  0
 15 16  1  6
 15 17  1  0
 17 18  1  0
 17 19  1  0
 17 20  1  0
 20 21  1  0
 21 22  1  0
 22 23  2  0
 22 24  1  0
 24 25  1  0
 25 26  1  0
 26 27  1  0
 27 28  1  0
 27 29  1  0
 29 30  1  0
 30 31  1  0
 15 32  1  0
 32 33  1  0
  2 34  1  0
 34 35  1  0
 35 36  1  1
 36 37  1  0
 35 38  1  0
 38 39  1  0
 39 40  2  0
 40 41  1  0
 41 42  2  0
 42 43  1  0
 42 44  1  0
 44 45  2  0
 35 46  1  0
 46 47  2  0
 46 48  1  0
 33  7  1  0
 45 39  1  0
 33 10  1  0
 31 27  1  0
  1 49  1  0
  1 50  1  0
  1 51  1  0
  2 52  1  1
  3 53  1  0
  3 54  1  0
  7 55  1  6
  8 56  1  0
  8 57  1  0
  9 58  1  0
  9 59  1  0
 10 60  1  6
 11 61  1  0
 11 62  1  0
 12 63  1  0
 12 64  1  0
 13 65  1  6
 20 66  1  0
 20 67  1  0
 21 68  1  0
 24 69  1  0
 25 70  1  0
 25 71  1  0
 26 72  1  0
 26 73  1  0
 29 74  1  0
 29 75  1  0
 30 76  1  0
 30 77  1  0
 31 78  1  0
 31 79  1  0
 33 80  1  1
 34 81  1  0
 34 82  1  0
 36 83  1  0
 36 84  1  0
 37 85  1  0
 38 86  1  0
 38 87  1  0
 40 88  1  0
 41 89  1  0
 44 90  1  0
 45 91  1  0
M  CHG  2  34   1  48  -1
M  END

>  <ID>
DiffSBDD_91_num_sample_100

>  <docking_score>
-10.37

$$$$
DiffSBDD_92_num_sample_100
     RDKit          3D

 66 68  0  0  0  0  0  0  0  0999 V2000
    9.3250    4.8710   -9.3810 C   0  0  0  0  0  0  0  0  0  0  0  0
    8.3070    5.5230  -10.4960 C   0  0  2  0  0  0  0  0  0  0  0  0
    7.0620    4.5720  -10.5800 C   0  0  0  0  0  0  0  0  0  0  0  0
    6.6190    4.5090  -12.2110 C   0  0  0  0  0  0  0  0  0  0  0  0
    6.9180    3.2190  -12.9280 C   0  0  0  0  0  0  0  0  0  0  0  0
    5.0740    4.4360  -12.0990 C   0  0  0  0  0  0  0  0  0  0  0  0
    7.4550    5.7310  -12.8960 C   0  0  2  0  0  0  0  0  0  0  0  0
    7.0240    5.8720  -13.9760 F   0  0  0  0  0  0  0  0  0  0  0  0
    8.8460    6.1000  -12.6250 C   0  0  2  0  0  0  0  0  0  0  0  0
    9.7680    5.1130  -12.5230 O   0  0  0  0  0  0  0  0  0  0  0  0
    9.0110    6.4980  -11.4130 C   0  0  1  0  0  0  0  0  0  0  0  0
    8.4660    8.1150  -12.0510 C   0  0  0  0  0  0  0  0  0  0  0  0
   10.8300    7.2540  -11.4140 C   0  0  0  0  0  0  0  0  0  0  0  0
   11.3990    6.8180  -13.0390 S   0  0  0  0  0  0  0  0  0  0  0  0
   11.4700    7.6970  -10.5220 N   0  0  0  0  0  0  0  0  0  0  0  0
   10.9350    7.7240   -9.2280 C   0  0  1  0  0  0  0  0  0  0  0  0
   11.5230    8.3500   -8.7600 C   0  0  0  0  0  0  0  0  0  0  0  0
   12.8670    8.7590   -7.5020 C   0  0  0  0  0  0  0  0  0  0  0  0
   12.5490    9.3940   -6.4370 C   0  0  0  0  0  0  0  0  0  0  0  0
   11.5200    8.8550   -5.7240 C   0  0  2  0  0  0  0  0  0  0  0  0
   11.7870    8.5970   -4.1950 C   0  0  0  0  0  0  0  0  0  0  0  0
   11.9950    9.5490   -3.1590 C   0  0  0  0  0  0  0  0  0  0  0  0
   11.7360   10.7320   -3.1720 F   0  0  0  0  0  0  0  0  0  0  0  0
   12.3240    9.3510   -1.9590 C   0  0  0  0  0  0  0  0  0  0  0  0
   12.6930    8.1120   -1.6250 C   0  0  0  0  0  0  0  0  0  0  0  0
   12.3160    6.7300   -2.2290 C   0  0  0  0  0  0  0  0  0  0  0  0
   12.8130    5.6880   -1.5750 F   0  0  0  0  0  0  0  0  0  0  0  0
   11.8890    6.8520   -3.4440 C   0  0  0  0  0  0  0  0  0  0  0  0
   11.5810    6.4160   -4.6610 O   0  0  0  0  0  0  0  0  0  0  0  0
   11.0560    7.8940   -6.3650 C   0  0  0  0  0  0  0  0  0  0  0  0
    9.2970    8.1150   -6.9250 C   0  0  0  0  0  0  0  0  0  0  0  0
    9.6500    8.3240   -8.5610 S   0  0  0  0  0  0  0  0  0  0  0  0
    8.9599    5.1049   -8.3701 H   0  0  0  0  0  0  0  0  0  0  0  0
    9.3636    3.7797   -9.5136 H   0  0  0  0  0  0  0  0  0  0  0  0
   10.3324    5.2923   -9.5136 H   0  0  0  0  0  0  0  0  0  0  0  0
    7.6136    6.3759  -10.5391 H   0  0  0  0  0  0  0  0  0  0  0  0
    7.3256    3.5672  -10.2182 H   0  0  0  0  0  0  0  0  0  0  0  0
    6.2349    4.9415   -9.9560 H   0  0  0  0  0  0  0  0  0  0  0  0
    7.1023    2.4238  -12.1906 H   0  0  0  0  0  0  0  0  0  0  0  0
    6.0601    2.9426  -13.5586 H   0  0  0  0  0  0  0  0  0  0  0  0
    7.8100    3.3482  -13.5586 H   0  0  0  0  0  0  0  0  0  0  0  0
    4.7835    4.4223  -11.0381 H   0  0  0  0  0  0  0  0  0  0  0  0
    4.6289    5.3141  -12.5897 H   0  0  0  0  0  0  0  0  0  0  0  0
    4.7137    3.5198  -12.5897 H   0  0  0  0  0  0  0  0  0  0  0  0
    7.3013    6.5643  -12.1946 H   0  0  0  0  0  0  0  0  0  0  0  0
    8.9897    6.7845  -13.4740 H   0  0  0  0  0  0  0  0  0  0  0  0
   10.0930    4.8700  -13.4270 H   0  0  0  0  0  0  0  0  0  0  0  0
    8.2403    8.7846  -11.2080 H   0  0  0  0  0  0  0  0  0  0  0  0
    9.2654    8.5552  -12.6651 H   0  0  0  0  0  0  0  0  0  0  0  0
    7.5632    7.9815  -12.6651 H   0  0  0  0  0  0  0  0  0  0  0  0
   12.4170    8.0610  -10.6970 H   0  0  0  0  0  0  0  0  0  0  0  0
   10.7584    6.6385   -9.2065 H   0  0  0  0  0  0  0  0  0  0  0  0
   12.0016    8.7975   -9.6436 H   0  0  0  0  0  0  0  0  0  0  0  0
   10.7922    8.3719   -7.9382 H   0  0  0  0  0  0  0  0  0  0  0  0
   13.3142    7.8047   -7.1867 H   0  0  0  0  0  0  0  0  0  0  0  0
   13.5258    9.4578   -8.0384 H   0  0  0  0  0  0  0  0  0  0  0  0
   13.4338    9.4280   -5.7844 H   0  0  0  0  0  0  0  0  0  0  0  0
   12.2056   10.3862   -6.7649 H   0  0  0  0  0  0  0  0  0  0  0  0
   10.7370    9.6218   -5.6300 H   0  0  0  0  0  0  0  0  0  0  0  0
   12.3079   10.1640   -1.2182 H   0  0  0  0  0  0  0  0  0  0  0  0
   13.3858    8.0600   -0.7722 H   0  0  0  0  0  0  0  0  0  0  0  0
   11.0700    5.5750   -4.7700 H   0  0  0  0  0  0  0  0  0  0  0  0
   11.6830    7.7408   -7.2557 H   0  0  0  0  0  0  0  0  0  0  0  0
   11.0598    7.0321   -5.6815 H   0  0  0  0  0  0  0  0  0  0  0  0
    8.6769    7.2265   -6.7353 H   0  0  0  0  0  0  0  0  0  0  0  0
    8.7127    8.9077   -6.4349 H   0  0  0  0  0  0  0  0  0  0  0  0
  1  2  1  0
  2  3  1  0
  3  4  1  0
  4  5  1  0
  4  6  1  0
  4  7  1  0
  7  8  1  0
  7  9  1  0
  9 10  1  0
  9 11  1  0
 11 12  1  6
 11 13  1  0
 13 14  2  0
 13 15  1  0
 15 16  1  0
 16 17  1  0
 17 18  1  0
 18 19  1  0
 19 20  1  0
 20 21  1  0
 21 22  2  0
 22 23  1  0
 22 24  1  0
 24 25  2  0
 25 26  1  0
 26 27  1  0
 26 28  2  0
 28 29  1  0
 20 30  1  0
 30 31  1  0
 31 32  1  0
 11  2  1  0
 32 16  1  0
 28 21  1  0
  1 33  1  0
  1 34  1  0
  1 35  1  0
  2 36  1  1
  3 37  1  0
  3 38  1  0
  5 39  1  0
  5 40  1  0
  5 41  1  0
  6 42  1  0
  6 43  1  0
  6 44  1  0
  7 45  1  1
  9 46  1  6
 10 47  1  0
 12 48  1  0
 12 49  1  0
 12 50  1  0
 15 51  1  0
 16 52  1  1
 17 53  1  0
 17 54  1  0
 18 55  1  0
 18 56  1  0
 19 57  1  0
 19 58  1  0
 20 59  1  1
 24 60  1  0
 25 61  1  0
 29 62  1  0
 30 63  1  0
 30 64  1  0
 31 65  1  0
 31 66  1  0
M  END

>  <ID>
DiffSBDD_92_num_sample_100

>  <docking_score>
-11.273

$$$$
DiffSBDD_93_num_sample_100
     RDKit          3D

 36 36  0  0  0  0  0  0  0  0999 V2000
   12.7200    8.1600   -1.4200 C   0  0  0  0  0  0  0  0  0  0  0  0
   12.7460    8.8080   -2.8670 C   0  0  0  0  0  0  0  0  0  0  0  0
   12.0330    7.9230   -3.8920 C   0  0  1  0  0  0  0  0  0  0  0  0
   11.6350    6.5990   -3.2110 C   0  0  0  0  0  0  0  0  0  0  0  0
   11.7480    7.9680   -5.3990 C   0  0  1  0  0  0  0  0  0  0  0  0
   10.6710    6.8410   -5.9690 C   0  0  0  0  0  0  0  0  0  0  0  0
   10.9110    6.1280   -7.2120 C   0  0  0  0  0  0  0  0  0  0  0  0
   10.6490    7.2170   -8.3770 C   0  0  0  0  0  0  0  0  0  0  0  0
   11.7340    8.0890   -8.7880 C   0  0  0  0  0  0  0  0  0  0  0  0
   11.5610    9.2120   -7.4700 C   0  0  0  0  0  0  0  0  0  0  0  0
   11.1450    9.1900   -6.0780 C   0  0  2  0  0  0  0  0  0  0  0  0
   11.2420   10.4840   -5.3490 C   0  0  0  0  0  0  0  0  0  0  0  0
   12.7519    8.9558   -0.6612 H   0  0  0  0  0  0  0  0  0  0  0  0
   11.7976    7.5734   -1.2975 H   0  0  0  0  0  0  0  0  0  0  0  0
   13.5924    7.5013   -1.2975 H   0  0  0  0  0  0  0  0  0  0  0  0
   12.2444    9.7863   -2.8294 H   0  0  0  0  0  0  0  0  0  0  0  0
   13.7958    8.9172   -3.1769 H   0  0  0  0  0  0  0  0  0  0  0  0
   12.9981    7.4830   -4.1834 H   0  0  0  0  0  0  0  0  0  0  0  0
   11.6722    6.7229   -2.1186 H   0  0  0  0  0  0  0  0  0  0  0  0
   10.6142    6.3231   -3.5142 H   0  0  0  0  0  0  0  0  0  0  0  0
   12.3345    5.8060   -3.5142 H   0  0  0  0  0  0  0  0  0  0  0  0
   12.8152    7.8508   -5.6384 H   0  0  0  0  0  0  0  0  0  0  0  0
   10.5770    6.0757   -5.1844 H   0  0  0  0  0  0  0  0  0  0  0  0
    9.7907    7.4541   -6.2120 H   0  0  0  0  0  0  0  0  0  0  0  0
   11.9468    5.7601   -7.2527 H   0  0  0  0  0  0  0  0  0  0  0  0
   10.2595    5.2478   -7.3155 H   0  0  0  0  0  0  0  0  0  0  0  0
   10.3275    6.6612   -9.2701 H   0  0  0  0  0  0  0  0  0  0  0  0
    9.9148    7.9047   -7.9320 H   0  0  0  0  0  0  0  0  0  0  0  0
   12.7103    7.5823   -8.7909 H   0  0  0  0  0  0  0  0  0  0  0  0
   11.6941    8.4981   -9.8083 H   0  0  0  0  0  0  0  0  0  0  0  0
   12.5738    9.6350   -7.3977 H   0  0  0  0  0  0  0  0  0  0  0  0
   10.5861    9.5785   -7.8239 H   0  0  0  0  0  0  0  0  0  0  0  0
   10.0520    9.0703   -6.0455 H   0  0  0  0  0  0  0  0  0  0  0  0
   11.2279   10.2962   -4.2652 H   0  0  0  0  0  0  0  0  0  0  0  0
   12.1805   10.9889   -5.6215 H   0  0  0  0  0  0  0  0  0  0  0  0
   10.3892   11.1232   -5.6215 H   0  0  0  0  0  0  0  0  0  0  0  0
  1  2  1  0
  2  3  1  0
  3  4  1  0
  3  5  1  0
  5  6  1  0
  6  7  1  0
  7  8  1  0
  8  9  1  0
  9 10  1  0
 10 11  1  0
 11 12  1  0
 11  5  1  0
  1 13  1  0
  1 14  1  0
  1 15  1  0
  2 16  1  0
  2 17  1  0
  3 18  1  1
  4 19  1  0
  4 20  1  0
  4 21  1  0
  5 22  1  6
  6 23  1  0
  6 24  1  0
  7 25  1  0
  7 26  1  0
  8 27  1  0
  8 28  1  0
  9 29  1  0
  9 30  1  0
 10 31  1  0
 10 32  1  0
 11 33  1  6
 12 34  1  0
 12 35  1  0
 12 36  1  0
M  END

>  <ID>
DiffSBDD_93_num_sample_100

>  <docking_score>
-7.142

$$$$
DiffSBDD_94_num_sample_100
     RDKit          3D

 55 56  0  0  0  0  0  0  0  0999 V2000
   12.0340    6.8550   -3.0830 C   0  0  0  0  0  0  0  0  0  0  0  0
   11.6800    7.2060   -4.3420 C   0  0  0  0  0  0  0  0  0  0  0  0
   10.7010    6.5330   -5.3090 C   0  0  0  0  0  0  0  0  0  0  0  0
   11.3520    6.8750   -6.4470 C   0  0  0  0  0  0  0  0  0  0  0  0
   10.8950    8.3450   -6.9380 C   0  0  0  0  0  0  0  0  0  0  0  0
   11.5590    8.0700   -8.2190 C   0  0  2  0  0  0  0  0  0  0  0  0
   11.7640    9.5360   -9.1740 O   0  0  0  0  0  0  0  0  0  0  0  0
   10.8060    7.6170   -9.1390 C   0  0  0  0  0  0  0  0  0  0  0  0
    9.9010    6.5140   -9.8800 C   0  0  0  0  0  0  0  0  0  0  0  0
    9.2160    5.5470  -10.0690 C   0  0  2  0  0  0  0  0  0  0  0  0
    8.6240    5.0270   -8.7030 C   0  0  0  0  0  0  0  0  0  0  0  0
    9.0240    4.4050   -8.5340 C   0  0  0  0  0  0  0  0  0  0  0  0
    8.8470    4.3190  -11.3650 S   0  0  0  0  0  0  0  0  0  0  0  0
    7.5190    5.2430  -12.1190 C   0  0  1  0  0  0  0  0  0  0  0  0
    6.3200    5.1540  -11.3310 C   0  0  0  0  0  0  0  0  0  0  0  0
    8.5980    5.6330  -13.4630 C   0  0  0  0  0  0  0  0  0  0  0  0
    6.8540    5.5320  -13.5380 C   0  0  2  0  0  0  0  0  0  0  0  0
    6.0060    6.4820  -13.7680 C   0  0  0  0  0  0  0  0  0  0  0  0
    6.0350    6.6080  -15.4570 C   0  0  0  0  0  0  0  0  0  0  0  0
    5.0480    6.9950  -16.0660 O   0  0  0  0  0  0  0  0  0  0  0  0
    6.8080    5.7870  -16.2060 N   0  0  0  0  0  0  0  0  0  0  0  0
    7.1800    6.3350  -17.5400 C   0  0  0  0  0  0  0  0  0  0  0  0
    7.2690    4.5800  -15.7860 C   0  0  0  0  0  0  0  0  0  0  0  0
    6.7560    4.1900  -14.3750 C   0  0  1  0  0  0  0  0  0  0  0  0
    7.5150    3.1780  -14.0030 F   0  0  0  0  0  0  0  0  0  0  0  0
   12.7628    7.4630   -2.5269 H   0  0  0  0  0  0  0  0  0  0  0  0
   11.5928    5.9619   -2.6164 H   0  0  0  0  0  0  0  0  0  0  0  0
   12.1697    8.1118   -4.7290 H   0  0  0  0  0  0  0  0  0  0  0  0
   10.6449    5.4440   -5.1646 H   0  0  0  0  0  0  0  0  0  0  0  0
    9.6441    6.8280   -5.2325 H   0  0  0  0  0  0  0  0  0  0  0  0
   12.4356    6.8767   -6.2580 H   0  0  0  0  0  0  0  0  0  0  0  0
   11.1061    6.1445   -7.2318 H   0  0  0  0  0  0  0  0  0  0  0  0
    9.8062    8.4846   -7.0089 H   0  0  0  0  0  0  0  0  0  0  0  0
   11.1315    9.2448   -6.3511 H   0  0  0  0  0  0  0  0  0  0  0  0
   12.4049    7.4651   -7.8605 H   0  0  0  0  0  0  0  0  0  0  0  0
   11.7720    9.3040  -10.1360 H   0  0  0  0  0  0  0  0  0  0  0  0
    9.2367    6.1341  -10.9990 H   0  0  0  0  0  0  0  0  0  0  0  0
    8.7442    5.7873   -7.9171 H   0  0  0  0  0  0  0  0  0  0  0  0
    7.5476    4.8133   -8.7785 H   0  0  0  0  0  0  0  0  0  0  0  0
    9.0924    4.2987   -7.4413 H   0  0  0  0  0  0  0  0  0  0  0  0
    8.5244    3.5214   -8.9578 H   0  0  0  0  0  0  0  0  0  0  0  0
   10.0353    4.4930   -8.9578 H   0  0  0  0  0  0  0  0  0  0  0  0
    6.5811    5.1734  -10.2626 H   0  0  0  0  0  0  0  0  0  0  0  0
    5.6642    6.0059  -11.5637 H   0  0  0  0  0  0  0  0  0  0  0  0
    5.7972    4.2146  -11.5637 H   0  0  0  0  0  0  0  0  0  0  0  0
    9.1115    6.6045  -13.5132 H   0  0  0  0  0  0  0  0  0  0  0  0
    9.4602    5.1761  -13.9708 H   0  0  0  0  0  0  0  0  0  0  0  0
    5.0021    6.2131  -13.4077 H   0  0  0  0  0  0  0  0  0  0  0  0
    6.2560    7.4230  -13.2562 H   0  0  0  0  0  0  0  0  0  0  0  0
    7.7933    7.2385  -17.4072 H   0  0  0  0  0  0  0  0  0  0  0  0
    7.7538    5.5812  -18.0990 H   0  0  0  0  0  0  0  0  0  0  0  0
    6.2676    6.5901  -18.0990 H   0  0  0  0  0  0  0  0  0  0  0  0
    6.9418    3.8118  -16.5021 H   0  0  0  0  0  0  0  0  0  0  0  0
    8.3653    4.6495  -15.7287 H   0  0  0  0  0  0  0  0  0  0  0  0
    5.7199    3.8360  -14.2687 H   0  0  0  0  0  0  0  0  0  0  0  0
  1  2  2  0
  2  3  1  0
  3  4  1  0
  4  5  1  0
  5  6  1  0
  6  7  1  0
  6  8  1  0
  8  9  3  0
  9 10  1  0
 10 11  1  0
 11 12  1  0
 10 13  1  0
 14 13  1  1
 14 15  1  0
 14 16  1  0
 17 16  1  6
 17 18  1  0
 18 19  1  0
 19 20  2  0
 19 21  1  0
 21 22  1  0
 21 23  1  0
 23 24  1  0
 24 25  1  0
 17 14  1  0
 24 17  1  0
  1 26  1  0
  1 27  1  0
  2 28  1  0
  3 29  1  0
  3 30  1  0
  4 31  1  0
  4 32  1  0
  5 33  1  0
  5 34  1  0
  6 35  1  1
  7 36  1  0
 10 37  1  6
 11 38  1  0
 11 39  1  0
 12 40  1  0
 12 41  1  0
 12 42  1  0
 15 43  1  0
 15 44  1  0
 15 45  1  0
 16 46  1  0
 16 47  1  0
 18 48  1  0
 18 49  1  0
 22 50  1  0
 22 51  1  0
 22 52  1  0
 23 53  1  0
 23 54  1  0
 24 55  1  6
M  END

>  <ID>
DiffSBDD_94_num_sample_100

>  <docking_score>
-8.113

$$$$
DiffSBDD_9_num_sample_100
     RDKit          3D

 39 39  0  0  0  0  0  0  0  0999 V2000
    5.6810    7.6570  -16.2800 C   0  0  0  0  0  0  0  0  0  0  0  0
    6.0130    7.2840  -15.1790 C   0  0  0  0  0  0  0  0  0  0  0  0
    6.3040    6.4610  -14.1110 C   0  0  0  0  0  0  0  0  0  0  0  0
    6.4370    5.6360  -13.0270 C   0  0  0  0  0  0  0  0  0  0  0  0
    7.2830    4.8400  -11.7860 S   0  0  0  0  0  0  0  0  0  0  0  0
    7.8820    3.7170  -12.4050 O   0  0  0  0  0  0  0  0  0  0  0  0
    6.4360    4.4450  -10.7020 O   0  0  0  0  0  0  0  0  0  0  0  0
    8.5070    5.6750  -10.8590 C   0  0  1  0  0  0  0  0  0  0  0  0
    8.4100    5.2910   -9.3000 C   0  0  0  0  0  0  0  0  0  0  0  0
    9.6880    5.2350   -8.3790 C   0  0  0  0  0  0  0  0  0  0  0  0
    9.9060    6.0380   -7.3330 C   0  0  0  0  0  0  0  0  0  0  0  0
   10.8510    7.1590   -7.2010 C   0  0  0  0  0  0  0  0  0  0  0  0
   11.2800    7.5630   -5.8800 C   0  0  0  0  0  0  0  0  0  0  0  0
   11.3280    6.5850   -4.7950 C   0  0  0  0  0  0  0  0  0  0  0  0
   11.7520    7.0240   -3.5710 C   0  0  0  0  0  0  0  0  0  0  0  0
   11.6860    6.2810   -2.5250 F   0  0  0  0  0  0  0  0  0  0  0  0
   12.3110    8.2710   -3.3260 C   0  0  0  0  0  0  0  0  0  0  0  0
   12.2930    9.2110   -4.3500 C   0  0  0  0  0  0  0  0  0  0  0  0
   11.6860    8.8230   -5.6100 C   0  0  0  0  0  0  0  0  0  0  0  0
   11.5330    9.7370   -6.5270 F   0  0  0  0  0  0  0  0  0  0  0  0
    9.4520    6.2540  -11.9850 C   0  0  0  0  0  0  0  0  0  0  0  0
    9.7150    7.5740  -11.1950 C   0  0  0  0  0  0  0  0  0  0  0  0
    8.9390    8.4710  -11.0770 O   0  0  0  0  0  0  0  0  0  0  0  0
   11.1980    7.5030  -10.7890 O   0  0  0  0  0  0  0  0  0  0  0  0
    5.3789    7.9964  -17.2818 H   0  0  0  0  0  0  0  0  0  0  0  0
    8.8847    6.4886  -10.2223 H   0  0  0  0  0  0  0  0  0  0  0  0
    7.7310    6.0255   -8.8423 H   0  0  0  0  0  0  0  0  0  0  0  0
    8.1025    4.2355   -9.3378 H   0  0  0  0  0  0  0  0  0  0  0  0
    9.7171    4.2117   -7.9766 H   0  0  0  0  0  0  0  0  0  0  0  0
   10.4565    5.5987   -9.0769 H   0  0  0  0  0  0  0  0  0  0  0  0
    8.9229    6.4845   -7.1229 H   0  0  0  0  0  0  0  0  0  0  0  0
   10.4347    5.3160   -6.6934 H   0  0  0  0  0  0  0  0  0  0  0  0
   11.7556    6.8860   -7.7642 H   0  0  0  0  0  0  0  0  0  0  0  0
   10.2846    8.0263   -7.5710 H   0  0  0  0  0  0  0  0  0  0  0  0
   11.0347    5.5372   -4.9564 H   0  0  0  0  0  0  0  0  0  0  0  0
   12.7559    8.5087   -2.3485 H   0  0  0  0  0  0  0  0  0  0  0  0
   12.7236   10.2135   -4.2103 H   0  0  0  0  0  0  0  0  0  0  0  0
   10.3588    5.6529  -12.1472 H   0  0  0  0  0  0  0  0  0  0  0  0
    9.0723    6.3186  -13.0154 H   0  0  0  0  0  0  0  0  0  0  0  0
  1  2  3  0
  2  3  1  0
  3  4  3  0
  4  5  1  0
  5  6  2  0
  5  7  2  0
  5  8  1  0
  8  9  1  0
  9 10  1  0
 10 11  1  0
 11 12  1  0
 12 13  1  0
 13 14  2  0
 14 15  1  0
 15 16  1  0
 15 17  2  0
 17 18  1  0
 18 19  2  0
 19 20  1  0
  8 21  1  0
 21 22  1  0
 22 23  2  0
 22 24  1  0
 19 13  1  0
  1 25  1  0
  8 26  1  1
  9 27  1  0
  9 28  1  0
 10 29  1  0
 10 30  1  0
 11 31  1  0
 11 32  1  0
 12 33  1  0
 12 34  1  0
 14 35  1  0
 17 36  1  0
 18 37  1  0
 21 38  1  0
 21 39  1  0
M  CHG  1  24  -1
M  END

>  <ID>
DiffSBDD_9_num_sample_100

>  <docking_score>
-8.977

$$$$
